1ntb_lig
 OpenBabel11021811403D
libRbt.so/2013.1/901 2013/11/27
 40 42  0  0  0  0  0  0  0  0999 V2000
    9.9035   33.0455   -0.9556 C   0  0  0  0  0  0  0  0  0  0  0  0
   10.9157   32.7495   -0.2360 N   0  0  0  0  0  0  0  0  0  0  0  0
   -0.5390   34.5403   -4.0471 C   0  0  0  0  0  0  0  0  0  0  0  0
    0.3055   34.8631   -5.1394 O   0  0  0  0  0  0  0  0  0  0  0  0
    4.6650   36.4434    0.4508 C   0  0  0  0  0  0  0  0  0  0  0  0
    5.5418   36.9101    1.2665 N   0  0  0  0  0  0  0  0  0  0  0  0
    0.2919   31.5089   -3.2105 C   0  0  0  0  0  0  0  0  0  0  0  0
   -2.3148   35.5000    0.4819 C   0  0  0  0  0  0  0  0  0  0  0  0
    7.5845   33.4519   -1.1080 C   0  0  2  0  0  0  0  0  0  0  0  0
    8.7301   32.7075   -0.4565 N   0  0  0  0  0  0  0  0  0  0  0  0
    2.4452   33.9930   -1.9663 C   0  0  2  0  0  0  0  0  0  0  0  0
   -0.2490   36.4001   -1.6571 C   0  0  1  0  0  0  0  0  0  0  0  0
    0.8756   35.6033   -1.3336 O   0  0  0  0  0  0  0  0  0  0  0  0
    6.6057   33.9729   -0.0615 C   0  0  1  0  0  0  0  0  0  0  0  0
    7.4302   34.8401    0.8329 O   0  0  0  0  0  0  0  0  0  0  0  0
    1.3183   34.9085   -2.4088 C   0  0  2  0  0  0  0  0  0  0  0  0
   -0.6926   37.1373   -0.4169 C   0  0  1  0  0  0  0  0  0  0  0  0
   -1.0697   36.2064    0.5874 N   0  0  0  0  0  0  0  0  0  0  0  0
    5.4139   34.7067   -0.6729 C   0  0  2  0  0  0  0  0  0  0  0  0
    4.4539   35.2269    0.2787 N   0  0  0  0  0  0  0  0  0  0  0  0
    0.2797   33.9478   -2.9240 C   0  0  1  0  0  0  0  0  0  0  0  0
   -0.5786   33.5361   -1.8549 O   0  0  0  0  0  0  0  0  0  0  0  0
    0.4763   37.9758    0.0721 C   0  0  2  0  0  0  0  0  0  0  0  0
    0.1175   38.6810    1.2403 O   0  0  0  0  0  0  0  0  0  0  0  0
    4.7030   33.7517   -1.5964 C   0  0  1  0  0  0  0  0  0  0  0  0
    3.7103   34.5649   -2.2815 O   0  0  0  0  0  0  0  0  0  0  0  0
    1.0653   32.7865   -3.4102 C   0  0  1  0  0  0  0  0  0  0  0  0
    2.2765   32.7501   -2.6520 O   0  0  0  0  0  0  0  0  0  0  0  0
    0.8267   38.9505   -1.0523 C   0  0  1  0  0  0  0  0  0  0  0  0
    1.9208   39.7702   -0.6721 O   0  0  0  0  0  0  0  0  0  0  0  0
    5.6753   33.2518   -2.6986 C   0  0  2  0  0  0  0  0  0  0  0  0
    4.9829   32.3660   -3.5647 O   0  0  0  0  0  0  0  0  0  0  0  0
    1.1823   38.1524   -2.3071 C   0  0  1  0  0  0  0  0  0  0  0  0
    0.0815   37.3284   -2.6874 O   0  0  0  0  0  0  0  0  0  0  0  0
    6.8546   32.5083   -2.0422 C   0  0  1  0  0  0  0  0  0  0  0  0
    7.7619   32.0399   -3.0471 O   0  0  0  0  0  0  0  0  0  0  0  0
    1.5014   39.1270   -3.4410 C   0  0  0  0  0  0  0  0  0  0  0  0
    2.7110   39.8062   -3.1446 O   0  0  0  0  0  0  0  0  0  0  0  0
   10.0158   33.6133   -2.1048 N   0  0  0  0  0  0  0  0  0  0  0  0
    3.9350   37.2307   -0.1769 N   0  0  0  0  0  0  0  0  0  0  0  0
  1  2  1  0  0  0  0
  1 39  1  0  0  0  0
  3  4  1  0  0  0  0
  5  6  1  0  0  0  0
  5 40  1  0  0  0  0
  9 10  1  1  0  0  0
  9 14  1  0  0  0  0
  9 35  1  0  0  0  0
 10  1  1  0  0  0  0
 11 16  1  0  0  0  0
 11 28  1  0  0  0  0
 11 26  1  6  0  0  0
 12 17  1  0  0  0  0
 12 34  1  0  0  0  0
 12 13  1  1  0  0  0
 14 15  1  1  0  0  0
 14 19  1  0  0  0  0
 16 13  1  1  0  0  0
 16 21  1  0  0  0  0
 17 18  1  1  0  0  0
 17 23  1  0  0  0  0
 18  8  1  0  0  0  0
 19 20  1  1  0  0  0
 19 25  1  0  0  0  0
 20  5  1  0  0  0  0
 21  3  1  6  0  0  0
 21 22  1  0  0  0  0
 21 27  1  0  0  0  0
 23 24  1  1  0  0  0
 23 29  1  0  0  0  0
 25 26  1  6  0  0  0
 25 31  1  0  0  0  0
 27  7  1  1  0  0  0
 27 28  1  0  0  0  0
 29 30  1  1  0  0  0
 29 33  1  0  0  0  0
 31 32  1  6  0  0  0
 31 35  1  0  0  0  0
 33 34  1  0  0  0  0
 33 37  1  6  0  0  0
 35 36  1  6  0  0  0
 37 38  1  0  0  0  0
M  END
>  <CHROM.1>
-134.62376653,161.74065244,169.26679910,179.67505668,-175.32261036,-74.64633647
99.51058950,-83.54814421,61.11861076,-120.18890124,68.35901367,3.23629355
35.18635012,-1.52342849,-0.33182803,-0.24121856,0.50241422

>  <Name>
1ntb_lig

>  <RI>
0

>  <Rbt.Current_Directory>
/home/itssahil/PROJECTS/Mol_Feturizer/New_Systems/rnas/1ntb

>  <Rbt.Executable>
rbdock ($Id: //depot/dev/client3/rdock/2013.1/src/exe/rbdock.cxx#4 $)

>  <Rbt.Library>
libRbt.so (2013.1, Build901 2013/11/27)

>  <Rbt.Parameter_File>
/export/apps/rDock/src/rDock_2013.1_src/data/scripts/dock_solv.prm

>  <Rbt.Receptor>
prm/pocket_docking_2.prm

>  <SCORE>
-17.649

>  <SCORE.INTER>
-7.39679

>  <SCORE.INTER.CONST>
1

>  <SCORE.INTER.POLAR>
-0.742252

>  <SCORE.INTER.ROT>
11

>  <SCORE.INTER.SOLV>
23.7861

>  <SCORE.INTER.VDW>
-21.3191

>  <SCORE.INTER.norm>
-0.18492

>  <SCORE.INTRA>
-10.2714

>  <SCORE.INTRA.DIHEDRAL>
-3.70752

>  <SCORE.INTRA.DIHEDRAL.0>
15.4453

>  <SCORE.INTRA.POLAR>
0

>  <SCORE.INTRA.POLAR.0>
0

>  <SCORE.INTRA.REPUL>
-0.823958

>  <SCORE.INTRA.REPUL.0>
0.823958

>  <SCORE.INTRA.SOLV>
0.774175

>  <SCORE.INTRA.SOLV.lig_0>
-99.3069

>  <SCORE.INTRA.VDW>
-4.6849

>  <SCORE.INTRA.VDW.0>
0.946495

>  <SCORE.INTRA.norm>
-0.256784

>  <SCORE.RESTR>
0.0191719

>  <SCORE.RESTR.CAVITY>
0.0191719

>  <SCORE.RESTR.norm>
0.000479297

>  <SCORE.SYSTEM>
0

>  <SCORE.SYSTEM.CONST>
0

>  <SCORE.SYSTEM.DIHEDRAL>
0

>  <SCORE.SYSTEM.SOLV>
0

>  <SCORE.SYSTEM.norm>
0

>  <SCORE.heavy>
40

>  <SCORE.norm>
-0.441224

>  <RMSD>
0.609

$$$$
1ntb_lig
 OpenBabel11021811403D
libRbt.so/2013.1/901 2013/11/27
 40 42  0  0  0  0  0  0  0  0999 V2000
    9.9374   32.9535   -1.4595 C   0  0  0  0  0  0  0  0  0  0  0  0
   10.4255   34.1293   -1.5565 N   0  0  0  0  0  0  0  0  0  0  0  0
   -0.5654   34.6938   -3.8636 C   0  0  0  0  0  0  0  0  0  0  0  0
    0.2428   35.2069   -4.9096 O   0  0  0  0  0  0  0  0  0  0  0  0
    5.0515   36.5711    0.5702 C   0  0  0  0  0  0  0  0  0  0  0  0
    4.9829   37.5791   -0.2243 N   0  0  0  0  0  0  0  0  0  0  0  0
    0.3938   31.6286   -3.3492 C   0  0  0  0  0  0  0  0  0  0  0  0
   -2.6180   35.4739    0.5698 C   0  0  0  0  0  0  0  0  0  0  0  0
    7.6699   33.5841   -1.2973 C   0  0  2  0  0  0  0  0  0  0  0  0
    8.8548   32.8448   -0.7137 N   0  0  0  0  0  0  0  0  0  0  0  0
    2.4929   34.0589   -1.9198 C   0  0  2  0  0  0  0  0  0  0  0  0
   -0.1591   36.4632   -1.3368 C   0  0  1  0  0  0  0  0  0  0  0  0
    0.8864   35.5401   -1.0940 O   0  0  0  0  0  0  0  0  0  0  0  0
    6.7758   34.1406   -0.1946 C   0  0  1  0  0  0  0  0  0  0  0  0
    7.6715   35.0217    0.6136 O   0  0  0  0  0  0  0  0  0  0  0  0
    1.3229   34.9703   -2.2427 C   0  0  2  0  0  0  0  0  0  0  0  0
   -0.7069   36.9334   -0.0111 C   0  0  1  0  0  0  0  0  0  0  0  0
   -1.2346   35.8297    0.7105 N   0  0  0  0  0  0  0  0  0  0  0  0
    5.5477   34.8707   -0.7344 C   0  0  2  0  0  0  0  0  0  0  0  0
    4.6654   35.4239    0.2722 N   0  0  0  0  0  0  0  0  0  0  0  0
    0.3045   34.0260   -2.8243 C   0  0  1  0  0  0  0  0  0  0  0  0
   -0.5088   33.4804   -1.7802 O   0  0  0  0  0  0  0  0  0  0  0  0
    0.4349   37.5605    0.7709 C   0  0  2  0  0  0  0  0  0  0  0  0
   -0.0221   38.0100    2.0278 O   0  0  0  0  0  0  0  0  0  0  0  0
    4.7625   33.9001   -1.5779 C   0  0  1  0  0  0  0  0  0  0  0  0
    3.7280   34.7057   -2.2081 O   0  0  0  0  0  0  0  0  0  0  0  0
    1.1163   32.9477   -3.4413 C   0  0  1  0  0  0  0  0  0  0  0  0
    2.3487   32.8831   -2.7199 O   0  0  0  0  0  0  0  0  0  0  0  0
    0.9513   38.7356   -0.0597 C   0  0  1  0  0  0  0  0  0  0  0  0
    2.0303   39.3738    0.6053 O   0  0  0  0  0  0  0  0  0  0  0  0
    5.6460   33.3633   -2.7362 C   0  0  2  0  0  0  0  0  0  0  0  0
    4.8840   32.4631   -3.5256 O   0  0  0  0  0  0  0  0  0  0  0  0
    1.4108   38.2153   -1.4220 C   0  0  1  0  0  0  0  0  0  0  0  0
    0.3251   37.5734   -2.0887 O   0  0  0  0  0  0  0  0  0  0  0  0
    6.8649   32.6248   -2.1503 C   0  0  1  0  0  0  0  0  0  0  0  0
    7.6911   32.1226   -3.2074 O   0  0  0  0  0  0  0  0  0  0  0  0
    1.8972   39.3945   -2.2649 C   0  0  0  0  0  0  0  0  0  0  0  0
    2.2444   38.9296   -3.5594 O   0  0  0  0  0  0  0  0  0  0  0  0
   10.4765   31.9332   -2.0288 N   0  0  0  0  0  0  0  0  0  0  0  0
    5.5779   36.7099    1.6884 N   0  0  0  0  0  0  0  0  0  0  0  0
  1  2  1  0  0  0  0
  1 39  1  0  0  0  0
  3  4  1  0  0  0  0
  5  6  1  0  0  0  0
  5 40  1  0  0  0  0
  9 10  1  1  0  0  0
  9 14  1  0  0  0  0
  9 35  1  0  0  0  0
 10  1  1  0  0  0  0
 11 16  1  0  0  0  0
 11 28  1  0  0  0  0
 11 26  1  6  0  0  0
 12 17  1  0  0  0  0
 12 34  1  0  0  0  0
 12 13  1  1  0  0  0
 14 15  1  6  0  0  0
 14 19  1  0  0  0  0
 16 13  1  1  0  0  0
 16 21  1  0  0  0  0
 17 18  1  1  0  0  0
 17 23  1  0  0  0  0
 18  8  1  0  0  0  0
 19 20  1  1  0  0  0
 19 25  1  0  0  0  0
 20  5  1  0  0  0  0
 21  3  1  6  0  0  0
 21 22  1  0  0  0  0
 21 27  1  0  0  0  0
 23 24  1  1  0  0  0
 23 29  1  0  0  0  0
 25 26  1  6  0  0  0
 25 31  1  0  0  0  0
 27  7  1  1  0  0  0
 27 28  1  0  0  0  0
 29 30  1  1  0  0  0
 29 33  1  0  0  0  0
 31 32  1  1  0  0  0
 31 35  1  0  0  0  0
 33 34  1  0  0  0  0
 33 37  1  6  0  0  0
 35 36  1  6  0  0  0
 37 38  1  0  0  0  0
M  END
>  <CHROM.1>
-146.93344240,65.43715831,166.72483017,173.29414941,176.66262962,-91.17972045
87.71616876,69.00389150,58.45256872,-127.11012825,-176.30638378,3.29944442
35.18293285,-1.38556135,-0.33125369,-0.18650216,0.62736300

>  <Name>
1ntb_lig

>  <RI>
0

>  <Rbt.Current_Directory>
/home/itssahil/PROJECTS/Mol_Feturizer/New_Systems/rnas/1ntb

>  <Rbt.Executable>
rbdock ($Id: //depot/dev/client3/rdock/2013.1/src/exe/rbdock.cxx#4 $)

>  <Rbt.Library>
libRbt.so (2013.1, Build901 2013/11/27)

>  <Rbt.Parameter_File>
/export/apps/rDock/src/rDock_2013.1_src/data/scripts/dock_solv.prm

>  <Rbt.Receptor>
prm/pocket_docking_2.prm

>  <SCORE>
-19.7509

>  <SCORE.INTER>
-7.55681

>  <SCORE.INTER.CONST>
1

>  <SCORE.INTER.POLAR>
-1.2258

>  <SCORE.INTER.ROT>
11

>  <SCORE.INTER.SOLV>
24.1647

>  <SCORE.INTER.VDW>
-19.9401

>  <SCORE.INTER.norm>
-0.18892

>  <SCORE.INTRA>
-12.2234

>  <SCORE.INTRA.DIHEDRAL>
-3.77985

>  <SCORE.INTRA.DIHEDRAL.0>
15.4453

>  <SCORE.INTRA.POLAR>
0

>  <SCORE.INTRA.POLAR.0>
0

>  <SCORE.INTRA.REPUL>
-0.777723

>  <SCORE.INTRA.REPUL.0>
0.823958

>  <SCORE.INTRA.SOLV>
-0.623406

>  <SCORE.INTRA.SOLV.lig_0>
-99.3069

>  <SCORE.INTRA.VDW>
-6.13319

>  <SCORE.INTRA.VDW.0>
0.946495

>  <SCORE.INTRA.norm>
-0.305586

>  <SCORE.RESTR>
0.0293213

>  <SCORE.RESTR.CAVITY>
0.0293213

>  <SCORE.RESTR.norm>
0.000733034

>  <SCORE.SYSTEM>
0

>  <SCORE.SYSTEM.CONST>
0

>  <SCORE.SYSTEM.DIHEDRAL>
0

>  <SCORE.SYSTEM.SOLV>
0

>  <SCORE.SYSTEM.norm>
0

>  <SCORE.heavy>
40

>  <SCORE.norm>
-0.493773

>  <RMSD>
0.640

$$$$
1ntb_lig
 OpenBabel11021811403D
libRbt.so/2013.1/901 2013/11/27
 40 42  0  0  0  0  0  0  0  0999 V2000
    9.9443   32.9948   -1.6952 C   0  0  0  0  0  0  0  0  0  0  0  0
   10.4288   34.1654   -1.5368 N   0  0  0  0  0  0  0  0  0  0  0  0
   -0.6103   34.3895   -4.3336 C   0  0  0  0  0  0  0  0  0  0  0  0
    0.1915   34.7892   -5.4326 O   0  0  0  0  0  0  0  0  0  0  0  0
    4.6144   35.9604    0.3449 C   0  0  0  0  0  0  0  0  0  0  0  0
    4.3952   37.1009   -0.2058 N   0  0  0  0  0  0  0  0  0  0  0  0
    0.2328   31.4446   -3.2397 C   0  0  0  0  0  0  0  0  0  0  0  0
   -2.4108   36.3561    0.5583 C   0  0  0  0  0  0  0  0  0  0  0  0
    7.6413   33.5051   -1.6588 C   0  0  2  0  0  0  0  0  0  0  0  0
    8.8125   32.7551   -1.0614 N   0  0  0  0  0  0  0  0  0  0  0  0
    2.4929   34.0011   -2.3961 C   0  0  2  0  0  0  0  0  0  0  0  0
   -0.0833   36.5480   -2.2050 C   0  0  1  0  0  0  0  0  0  0  0  0
    0.9878   35.6982   -1.8381 O   0  0  0  0  0  0  0  0  0  0  0  0
    6.5912   33.8139   -0.5974 C   0  0  1  0  0  0  0  0  0  0  0  0
    7.3198   34.6032    0.4409 O   0  0  0  0  0  0  0  0  0  0  0  0
    1.3521   34.8880   -2.8606 C   0  0  2  0  0  0  0  0  0  0  0  0
   -0.6419   37.1886   -0.9575 C   0  0  1  0  0  0  0  0  0  0  0  0
   -1.1374   36.1860   -0.0820 N   0  0  0  0  0  0  0  0  0  0  0  0
    5.3732   34.5449   -1.1585 C   0  0  2  0  0  0  0  0  0  0  0  0
    4.3454   34.8671   -0.1903 N   0  0  0  0  0  0  0  0  0  0  0  0
    0.2704   33.8998   -3.2079 C   0  0  1  0  0  0  0  0  0  0  0  0
   -0.5234   33.6171   -2.0507 O   0  0  0  0  0  0  0  0  0  0  0  0
    0.4833   37.9525   -0.2800 C   0  0  2  0  0  0  0  0  0  0  0  0
    0.0161   38.5652    0.9019 O   0  0  0  0  0  0  0  0  0  0  0  0
    4.7652   33.6803   -2.2322 C   0  0  1  0  0  0  0  0  0  0  0  0
    3.7427   34.5128   -2.8468 O   0  0  0  0  0  0  0  0  0  0  0  0
    1.0084   32.6795   -3.6186 C   0  0  1  0  0  0  0  0  0  0  0  0
    2.2649   32.6978   -2.9372 O   0  0  0  0  0  0  0  0  0  0  0  0
    0.9655   39.0097   -1.2736 C   0  0  1  0  0  0  0  0  0  0  0  0
    2.0274   39.7660   -0.7131 O   0  0  0  0  0  0  0  0  0  0  0  0
    5.8093   33.3994   -3.3463 C   0  0  2  0  0  0  0  0  0  0  0  0
    5.2126   32.5966   -4.3531 O   0  0  0  0  0  0  0  0  0  0  0  0
    1.4370   38.3118   -2.5497 C   0  0  1  0  0  0  0  0  0  0  0  0
    0.3685   37.5514   -3.1112 O   0  0  0  0  0  0  0  0  0  0  0  0
    7.0138   32.6519   -2.7425 C   0  0  1  0  0  0  0  0  0  0  0  0
    7.9874   32.3848   -3.7589 O   0  0  0  0  0  0  0  0  0  0  0  0
    1.8892   39.3705   -3.5558 C   0  0  0  0  0  0  0  0  0  0  0  0
    2.9982   40.0762   -3.0225 O   0  0  0  0  0  0  0  0  0  0  0  0
   10.5304   32.0953   -2.4045 N   0  0  0  0  0  0  0  0  0  0  0  0
    5.1750   35.9158    1.4542 N   0  0  0  0  0  0  0  0  0  0  0  0
  1  2  1  0  0  0  0
  1 39  1  0  0  0  0
  3  4  1  0  0  0  0
  5  6  1  0  0  0  0
  5 40  1  0  0  0  0
  9 10  1  1  0  0  0
  9 14  1  0  0  0  0
  9 35  1  0  0  0  0
 10  1  1  0  0  0  0
 11 16  1  0  0  0  0
 11 28  1  0  0  0  0
 11 26  1  6  0  0  0
 12 17  1  0  0  0  0
 12 34  1  0  0  0  0
 12 13  1  1  0  0  0
 14 15  1  1  0  0  0
 14 19  1  0  0  0  0
 16 13  1  1  0  0  0
 16 21  1  0  0  0  0
 17 18  1  1  0  0  0
 17 23  1  0  0  0  0
 18  8  1  0  0  0  0
 19 20  1  1  0  0  0
 19 25  1  0  0  0  0
 20  5  1  0  0  0  0
 21  3  1  6  0  0  0
 21 22  1  0  0  0  0
 21 27  1  0  0  0  0
 23 24  1  1  0  0  0
 23 29  1  0  0  0  0
 25 26  1  6  0  0  0
 25 31  1  0  0  0  0
 27  7  1  1  0  0  0
 27 28  1  0  0  0  0
 29 30  1  1  0  0  0
 29 33  1  0  0  0  0
 31 32  1  6  0  0  0
 31 35  1  0  0  0  0
 33 34  1  0  0  0  0
 33 37  1  6  0  0  0
 35 36  1  6  0  0  0
 37 38  1  0  0  0  0
M  END
>  <CHROM.1>
-150.59530508,70.49336637,174.01948479,167.30594182,-179.57910611,-135.16177520
86.61160587,78.86642820,51.62107465,-106.50054243,62.95802749,3.29121411
35.18310458,-1.91026754,-0.37352570,-0.20723812,0.52677373

>  <Name>
1ntb_lig

>  <RI>
0

>  <Rbt.Current_Directory>
/home/itssahil/PROJECTS/Mol_Feturizer/New_Systems/rnas/1ntb

>  <Rbt.Executable>
rbdock ($Id: //depot/dev/client3/rdock/2013.1/src/exe/rbdock.cxx#4 $)

>  <Rbt.Library>
libRbt.so (2013.1, Build901 2013/11/27)

>  <Rbt.Parameter_File>
/export/apps/rDock/src/rDock_2013.1_src/data/scripts/dock_solv.prm

>  <Rbt.Receptor>
prm/pocket_docking_2.prm

>  <SCORE>
-20.1657

>  <SCORE.INTER>
-9.18475

>  <SCORE.INTER.CONST>
1

>  <SCORE.INTER.POLAR>
-0.971048

>  <SCORE.INTER.ROT>
11

>  <SCORE.INTER.SOLV>
23.049

>  <SCORE.INTER.VDW>
-21.5027

>  <SCORE.INTER.norm>
-0.229619

>  <SCORE.INTRA>
-11.0464

>  <SCORE.INTRA.DIHEDRAL>
-4.30069

>  <SCORE.INTRA.DIHEDRAL.0>
15.4453

>  <SCORE.INTRA.POLAR>
0

>  <SCORE.INTRA.POLAR.0>
0

>  <SCORE.INTRA.REPUL>
-0.823958

>  <SCORE.INTRA.REPUL.0>
0.823958

>  <SCORE.INTRA.SOLV>
0.344362

>  <SCORE.INTRA.SOLV.lig_0>
-99.3069

>  <SCORE.INTRA.VDW>
-4.94843

>  <SCORE.INTRA.VDW.0>
0.946495

>  <SCORE.INTRA.norm>
-0.27616

>  <SCORE.RESTR>
0.0653968

>  <SCORE.RESTR.CAVITY>
0.0653968

>  <SCORE.RESTR.norm>
0.00163492

>  <SCORE.SYSTEM>
0

>  <SCORE.SYSTEM.CONST>
0

>  <SCORE.SYSTEM.DIHEDRAL>
0

>  <SCORE.SYSTEM.SOLV>
0

>  <SCORE.SYSTEM.norm>
0

>  <SCORE.heavy>
40

>  <SCORE.norm>
-0.504143

>  <RMSD>
0.678

$$$$
1ntb_lig
 OpenBabel11021811403D
libRbt.so/2013.1/901 2013/11/27
 40 42  0  0  0  0  0  0  0  0999 V2000
   10.0575   32.9355   -1.4054 C   0  0  0  0  0  0  0  0  0  0  0  0
   10.6957   31.8773   -1.7264 N   0  0  0  0  0  0  0  0  0  0  0  0
   -0.5401   34.6169   -3.8498 C   0  0  0  0  0  0  0  0  0  0  0  0
   -1.6528   33.7603   -4.0462 O   0  0  0  0  0  0  0  0  0  0  0  0
    4.8378   36.2119    0.4823 C   0  0  0  0  0  0  0  0  0  0  0  0
    4.5421   37.2777   -0.1724 N   0  0  0  0  0  0  0  0  0  0  0  0
    0.2263   31.6037   -2.8940 C   0  0  0  0  0  0  0  0  0  0  0  0
   -2.3567   35.4790    0.1467 C   0  0  0  0  0  0  0  0  0  0  0  0
    7.7635   33.4846   -1.3636 C   0  0  2  0  0  0  0  0  0  0  0  0
    8.9307   32.7444   -0.7466 N   0  0  0  0  0  0  0  0  0  0  0  0
    2.6068   34.0425   -2.0327 C   0  0  2  0  0  0  0  0  0  0  0  0
    0.0977   36.6326   -1.6433 C   0  0  1  0  0  0  0  0  0  0  0  0
    1.1851   35.7707   -1.3625 O   0  0  0  0  0  0  0  0  0  0  0  0
    6.7585   33.9066   -0.2973 C   0  0  1  0  0  0  0  0  0  0  0  0
    7.5442   34.7481    0.6547 O   0  0  0  0  0  0  0  0  0  0  0  0
    1.4858   34.9873   -2.4258 C   0  0  2  0  0  0  0  0  0  0  0  0
   -0.5240   37.0681   -0.3386 C   0  0  1  0  0  0  0  0  0  0  0  0
   -1.0130   35.9345    0.3637 N   0  0  0  0  0  0  0  0  0  0  0  0
    5.5452   34.6321   -0.8754 C   0  0  2  0  0  0  0  0  0  0  0  0
    4.5599   35.0596    0.0963 N   0  0  0  0  0  0  0  0  0  0  0  0
    0.3572   34.0530   -2.7729 C   0  0  1  0  0  0  0  0  0  0  0  0
   -0.4092   33.7555   -1.6011 O   0  0  0  0  0  0  0  0  0  0  0  0
    0.5508   37.7584    0.4842 C   0  0  2  0  0  0  0  0  0  0  0  0
    0.0234   38.1786    1.7236 O   0  0  0  0  0  0  0  0  0  0  0  0
    4.8766   33.7089   -1.8607 C   0  0  1  0  0  0  0  0  0  0  0  0
    3.8598   34.5252   -2.5057 O   0  0  0  0  0  0  0  0  0  0  0  0
    1.0353   32.8233   -3.2528 C   0  0  1  0  0  0  0  0  0  0  0  0
    2.3127   32.7698   -2.6135 O   0  0  0  0  0  0  0  0  0  0  0  0
    1.0285   38.9628   -0.3274 C   0  0  1  0  0  0  0  0  0  0  0  0
    2.0442   39.6607    0.3761 O   0  0  0  0  0  0  0  0  0  0  0  0
    5.8746   33.3110   -2.9814 C   0  0  2  0  0  0  0  0  0  0  0  0
    5.2214   32.4541   -3.9050 O   0  0  0  0  0  0  0  0  0  0  0  0
    1.5662   38.4722   -1.6721 C   0  0  1  0  0  0  0  0  0  0  0  0
    0.5441   37.7701   -2.3775 O   0  0  0  0  0  0  0  0  0  0  0  0
    7.0754   32.5728   -2.3591 C   0  0  1  0  0  0  0  0  0  0  0  0
    8.0066   32.1982   -3.3813 O   0  0  0  0  0  0  0  0  0  0  0  0
    2.0143   39.6789   -2.4971 C   0  0  0  0  0  0  0  0  0  0  0  0
    2.3074   39.2562   -3.8191 O   0  0  0  0  0  0  0  0  0  0  0  0
   10.4685   34.1127   -1.7231 N   0  0  0  0  0  0  0  0  0  0  0  0
    5.4853   36.3051    1.5401 N   0  0  0  0  0  0  0  0  0  0  0  0
  1  2  1  0  0  0  0
  1 39  1  0  0  0  0
  3  4  1  0  0  0  0
  5  6  1  0  0  0  0
  5 40  1  0  0  0  0
  9 10  1  1  0  0  0
  9 14  1  0  0  0  0
  9 35  1  0  0  0  0
 10  1  1  0  0  0  0
 11 16  1  0  0  0  0
 11 28  1  0  0  0  0
 11 26  1  6  0  0  0
 12 17  1  0  0  0  0
 12 34  1  0  0  0  0
 12 13  1  1  0  0  0
 14 15  1  1  0  0  0
 14 19  1  0  0  0  0
 16 13  1  1  0  0  0
 16 21  1  0  0  0  0
 17 18  1  1  0  0  0
 17 23  1  0  0  0  0
 18  8  1  0  0  0  0
 19 20  1  1  0  0  0
 19 25  1  0  0  0  0
 20  5  1  0  0  0  0
 21  3  1  6  0  0  0
 21 22  1  0  0  0  0
 21 27  1  0  0  0  0
 23 24  1  1  0  0  0
 23 29  1  0  0  0  0
 25 26  1  6  0  0  0
 25 31  1  0  0  0  0
 27  7  1  1  0  0  0
 27 28  1  0  0  0  0
 29 30  1  1  0  0  0
 29 33  1  0  0  0  0
 31 32  1  6  0  0  0
 31 35  1  0  0  0  0
 33 34  1  0  0  0  0
 33 37  1  6  0  0  0
 35 36  1  6  0  0  0
 37 38  1  0  0  0  0
M  END
>  <CHROM.1>
-148.43760867,-128.84144098,168.99813203,158.38678405,-177.06601727,-89.54549118
90.29188754,80.91281064,-174.41476305,-109.49441961,-170.54324744,3.32430483
35.13824839,-1.49035248,-0.35007215,-0.17393011,0.52201084

>  <Name>
1ntb_lig

>  <RI>
0

>  <Rbt.Current_Directory>
/home/itssahil/PROJECTS/Mol_Feturizer/New_Systems/rnas/1ntb

>  <Rbt.Executable>
rbdock ($Id: //depot/dev/client3/rdock/2013.1/src/exe/rbdock.cxx#4 $)

>  <Rbt.Library>
libRbt.so (2013.1, Build901 2013/11/27)

>  <Rbt.Parameter_File>
/export/apps/rDock/src/rDock_2013.1_src/data/scripts/dock_solv.prm

>  <Rbt.Receptor>
prm/pocket_docking_2.prm

>  <SCORE>
-19.3432

>  <SCORE.INTER>
-8.56737

>  <SCORE.INTER.CONST>
1

>  <SCORE.INTER.POLAR>
-1.15601

>  <SCORE.INTER.ROT>
11

>  <SCORE.INTER.SOLV>
23.1123

>  <SCORE.INTER.VDW>
-20.4956

>  <SCORE.INTER.norm>
-0.214184

>  <SCORE.INTRA>
-10.7885

>  <SCORE.INTRA.DIHEDRAL>
-2.47228

>  <SCORE.INTRA.DIHEDRAL.0>
15.4453

>  <SCORE.INTRA.POLAR>
0

>  <SCORE.INTRA.POLAR.0>
0

>  <SCORE.INTRA.REPUL>
-0.823958

>  <SCORE.INTRA.REPUL.0>
0.823958

>  <SCORE.INTRA.SOLV>
0.689302

>  <SCORE.INTRA.SOLV.lig_0>
-99.3069

>  <SCORE.INTRA.VDW>
-5.77726

>  <SCORE.INTRA.VDW.0>
0.946495

>  <SCORE.INTRA.norm>
-0.269713

>  <SCORE.RESTR>
0.0126928

>  <SCORE.RESTR.CAVITY>
0.0126928

>  <SCORE.RESTR.norm>
0.00031732

>  <SCORE.SYSTEM>
0

>  <SCORE.SYSTEM.CONST>
0

>  <SCORE.SYSTEM.DIHEDRAL>
0

>  <SCORE.SYSTEM.SOLV>
0

>  <SCORE.SYSTEM.norm>
0

>  <SCORE.heavy>
40

>  <SCORE.norm>
-0.48358

>  <RMSD>
0.686

$$$$
1ntb_lig
 OpenBabel11021811403D
libRbt.so/2013.1/901 2013/11/27
 40 42  0  0  0  0  0  0  0  0999 V2000
   10.0141   32.9448   -1.1208 C   0  0  0  0  0  0  0  0  0  0  0  0
   10.6627   31.8695   -1.3517 N   0  0  0  0  0  0  0  0  0  0  0  0
   -0.4921   34.6340   -3.8498 C   0  0  0  0  0  0  0  0  0  0  0  0
   -1.5314   33.7408   -4.2139 O   0  0  0  0  0  0  0  0  0  0  0  0
    4.7675   36.4025    0.5338 C   0  0  0  0  0  0  0  0  0  0  0  0
    5.5509   36.8098    1.4678 N   0  0  0  0  0  0  0  0  0  0  0  0
    0.3256   31.5756   -3.1031 C   0  0  0  0  0  0  0  0  0  0  0  0
   -2.4255   35.4038    0.3270 C   0  0  0  0  0  0  0  0  0  0  0  0
    7.7272   33.5242   -1.1013 C   0  0  2  0  0  0  0  0  0  0  0  0
    8.8862   32.7983   -0.4525 N   0  0  0  0  0  0  0  0  0  0  0  0
    2.5766   34.0029   -1.9213 C   0  0  2  0  0  0  0  0  0  0  0  0
   -0.0037   36.5121   -1.4670 C   0  0  1  0  0  0  0  0  0  0  0  0
    1.0660   35.6273   -1.1890 O   0  0  0  0  0  0  0  0  0  0  0  0
    6.7285   34.0052   -0.0543 C   0  0  1  0  0  0  0  0  0  0  0  0
    7.5252   34.8787    0.8590 O   0  0  0  0  0  0  0  0  0  0  0  0
    1.4459   34.9440   -2.2951 C   0  0  2  0  0  0  0  0  0  0  0  0
   -0.5895   36.9886   -0.1600 C   0  0  1  0  0  0  0  0  0  0  0  0
   -1.0947   35.8820    0.5731 N   0  0  0  0  0  0  0  0  0  0  0  0
    5.5233   34.7187   -0.6634 C   0  0  2  0  0  0  0  0  0  0  0  0
    4.5442   35.2008    0.2888 N   0  0  0  0  0  0  0  0  0  0  0  0
    0.3681   34.0092   -2.7764 C   0  0  1  0  0  0  0  0  0  0  0  0
   -0.4459   33.5931   -1.6749 O   0  0  0  0  0  0  0  0  0  0  0  0
    0.5180   37.6660    0.6296 C   0  0  2  0  0  0  0  0  0  0  0  0
    0.0249   38.1235    1.8699 O   0  0  0  0  0  0  0  0  0  0  0  0
    4.8427   33.7608   -1.6063 C   0  0  1  0  0  0  0  0  0  0  0  0
    3.8350   34.5597   -2.2865 O   0  0  0  0  0  0  0  0  0  0  0  0
    1.1104   32.8438   -3.3181 C   0  0  1  0  0  0  0  0  0  0  0  0
    2.3550   32.7749   -2.6186 O   0  0  0  0  0  0  0  0  0  0  0  0
    1.0117   38.8416   -0.2140 C   0  0  1  0  0  0  0  0  0  0  0  0
    2.0580   39.5258    0.4573 O   0  0  0  0  0  0  0  0  0  0  0  0
    5.8347   33.3015   -2.7087 C   0  0  2  0  0  0  0  0  0  0  0  0
    5.1704   32.4123   -3.5931 O   0  0  0  0  0  0  0  0  0  0  0  0
    1.5113   38.3115   -1.5582 C   0  0  1  0  0  0  0  0  0  0  0  0
    0.4584   37.6232   -2.2312 O   0  0  0  0  0  0  0  0  0  0  0  0
    7.0273   32.5774   -2.0549 C   0  0  1  0  0  0  0  0  0  0  0  0
    7.9529   32.1466   -3.0599 O   0  0  0  0  0  0  0  0  0  0  0  0
    1.9752   39.4900   -2.4147 C   0  0  0  0  0  0  0  0  0  0  0  0
    2.2475   39.0315   -3.7292 O   0  0  0  0  0  0  0  0  0  0  0  0
   10.4162   34.0956   -1.5327 N   0  0  0  0  0  0  0  0  0  0  0  0
    4.1427   37.2360   -0.1457 N   0  0  0  0  0  0  0  0  0  0  0  0
  1  2  1  0  0  0  0
  1 39  1  0  0  0  0
  3  4  1  0  0  0  0
  5  6  1  0  0  0  0
  5 40  1  0  0  0  0
  9 10  1  1  0  0  0
  9 14  1  0  0  0  0
  9 35  1  0  0  0  0
 10  1  1  0  0  0  0
 11 16  1  0  0  0  0
 11 28  1  0  0  0  0
 11 26  1  6  0  0  0
 12 17  1  0  0  0  0
 12 34  1  0  0  0  0
 12 13  1  1  0  0  0
 14 15  1  1  0  0  0
 14 19  1  0  0  0  0
 16 13  1  1  0  0  0
 16 21  1  0  0  0  0
 17 18  1  1  0  0  0
 17 23  1  0  0  0  0
 18  8  1  0  0  0  0
 19 20  1  1  0  0  0
 19 25  1  0  0  0  0
 20  5  1  0  0  0  0
 21  3  1  6  0  0  0
 21 22  1  0  0  0  0
 21 27  1  0  0  0  0
 23 24  1  1  0  0  0
 23 29  1  0  0  0  0
 25 26  1  6  0  0  0
 25 31  1  0  0  0  0
 27  7  1  1  0  0  0
 27 28  1  0  0  0  0
 29 30  1  1  0  0  0
 29 33  1  0  0  0  0
 31 32  1  6  0  0  0
 31 35  1  0  0  0  0
 33 34  1  0  0  0  0
 33 37  1  6  0  0  0
 35 36  1  6  0  0  0
 37 38  1  0  0  0  0
M  END
>  <CHROM.1>
-148.53302377,-131.28112199,166.39811829,166.71104722,-179.12890110,-85.52220359
96.07009443,-89.10851082,-176.85671004,-116.63159205,-171.21467870,3.29059706
35.11808702,-1.35459602,-0.31823879,-0.19499010,0.55303655

>  <Name>
1ntb_lig

>  <RI>
0

>  <Rbt.Current_Directory>
/home/itssahil/PROJECTS/Mol_Feturizer/New_Systems/rnas/1ntb

>  <Rbt.Executable>
rbdock ($Id: //depot/dev/client3/rdock/2013.1/src/exe/rbdock.cxx#4 $)

>  <Rbt.Library>
libRbt.so (2013.1, Build901 2013/11/27)

>  <Rbt.Parameter_File>
/export/apps/rDock/src/rDock_2013.1_src/data/scripts/dock_solv.prm

>  <Rbt.Receptor>
prm/pocket_docking_2.prm

>  <SCORE>
-19.7813

>  <SCORE.INTER>
-8.43353

>  <SCORE.INTER.CONST>
1

>  <SCORE.INTER.POLAR>
-1.20719

>  <SCORE.INTER.ROT>
11

>  <SCORE.INTER.SOLV>
23.1061

>  <SCORE.INTER.VDW>
-20.2337

>  <SCORE.INTER.norm>
-0.210838

>  <SCORE.INTRA>
-11.3593

>  <SCORE.INTRA.DIHEDRAL>
-3.14774

>  <SCORE.INTRA.DIHEDRAL.0>
15.4453

>  <SCORE.INTRA.POLAR>
0

>  <SCORE.INTRA.POLAR.0>
0

>  <SCORE.INTRA.REPUL>
-0.823958

>  <SCORE.INTRA.REPUL.0>
0.823958

>  <SCORE.INTRA.SOLV>
1.58305

>  <SCORE.INTRA.SOLV.lig_0>
-99.3069

>  <SCORE.INTRA.VDW>
-6.45712

>  <SCORE.INTRA.VDW.0>
0.946495

>  <SCORE.INTRA.norm>
-0.283981

>  <SCORE.RESTR>
0.0115158

>  <SCORE.RESTR.CAVITY>
0.0115158

>  <SCORE.RESTR.norm>
0.000287896

>  <SCORE.SYSTEM>
0

>  <SCORE.SYSTEM.CONST>
0

>  <SCORE.SYSTEM.DIHEDRAL>
0

>  <SCORE.SYSTEM.SOLV>
0

>  <SCORE.SYSTEM.norm>
0

>  <SCORE.heavy>
40

>  <SCORE.norm>
-0.494532

>  <RMSD>
0.709

$$$$
1ntb_lig
 OpenBabel11021811403D
libRbt.so/2013.1/901 2013/11/27
 40 42  0  0  0  0  0  0  0  0999 V2000
    9.8639   32.9960   -1.3010 C   0  0  0  0  0  0  0  0  0  0  0  0
   10.3704   34.1469   -1.5227 N   0  0  0  0  0  0  0  0  0  0  0  0
   -0.5553   34.4471   -4.1414 C   0  0  0  0  0  0  0  0  0  0  0  0
    0.2675   34.6096   -5.2846 O   0  0  0  0  0  0  0  0  0  0  0  0
    4.7290   36.6102    0.3785 C   0  0  0  0  0  0  0  0  0  0  0  0
    5.5833   36.9464    1.2780 N   0  0  0  0  0  0  0  0  0  0  0  0
    0.3045   31.5295   -2.9886 C   0  0  0  0  0  0  0  0  0  0  0  0
   -0.3541   35.6970    0.9574 C   0  0  0  0  0  0  0  0  0  0  0  0
    7.6096   33.6886   -1.2351 C   0  0  2  0  0  0  0  0  0  0  0  0
    8.7701   32.9864   -0.5636 N   0  0  0  0  0  0  0  0  0  0  0  0
    2.4560   34.1457   -2.0495 C   0  0  2  0  0  0  0  0  0  0  0  0
   -0.1692   36.6491   -2.0107 C   0  0  1  0  0  0  0  0  0  0  0  0
    0.8836   35.8076   -1.5776 O   0  0  0  0  0  0  0  0  0  0  0  0
    6.6179   34.2147   -0.2033 C   0  0  1  0  0  0  0  0  0  0  0  0
    7.4219   35.1225    0.6694 O   0  0  0  0  0  0  0  0  0  0  0  0
    1.3183   35.0016   -2.5757 C   0  0  2  0  0  0  0  0  0  0  0  0
   -0.7255   37.3828   -0.8146 C   0  0  1  0  0  0  0  0  0  0  0  0
   -1.2457   36.4509    0.1226 N   0  0  0  0  0  0  0  0  0  0  0  0
    5.4113   34.9063   -0.8345 C   0  0  2  0  0  0  0  0  0  0  0  0
    4.4387   35.4296    0.1025 N   0  0  0  0  0  0  0  0  0  0  0  0
    0.2800   33.9851   -2.9702 C   0  0  1  0  0  0  0  0  0  0  0  0
   -0.5633   33.6884   -1.8522 O   0  0  0  0  0  0  0  0  0  0  0  0
    0.4082   38.1711   -0.1806 C   0  0  2  0  0  0  0  0  0  0  0  0
   -0.0568   38.8709    0.9528 O   0  0  0  0  0  0  0  0  0  0  0  0
    4.7230   33.9127   -1.7339 C   0  0  1  0  0  0  0  0  0  0  0  0
    3.7137   34.6861   -2.4407 O   0  0  0  0  0  0  0  0  0  0  0  0
    1.0674   32.7816   -3.3361 C   0  0  1  0  0  0  0  0  0  0  0  0
    2.2874   32.8345   -2.5932 O   0  0  0  0  0  0  0  0  0  0  0  0
    0.9169   39.1497   -1.2394 C   0  0  1  0  0  0  0  0  0  0  0  0
    1.9881   39.9236   -0.7222 O   0  0  0  0  0  0  0  0  0  0  0  0
    5.7077   33.4061   -2.8220 C   0  0  2  0  0  0  0  0  0  0  0  0
    5.0362   32.4835   -3.6658 O   0  0  0  0  0  0  0  0  0  0  0  0
    1.3854   38.3585   -2.4610 C   0  0  1  0  0  0  0  0  0  0  0  0
    0.3076   37.5805   -2.9790 O   0  0  0  0  0  0  0  0  0  0  0  0
    6.9019   32.7057   -2.1456 C   0  0  1  0  0  0  0  0  0  0  0  0
    7.8208   32.2317   -3.1371 O   0  0  0  0  0  0  0  0  0  0  0  0
    1.8642   39.3382   -3.5326 C   0  0  0  0  0  0  0  0  0  0  0  0
    3.0208   40.0126   -3.0637 O   0  0  0  0  0  0  0  0  0  0  0  0
   10.3952   31.9110   -1.7439 N   0  0  0  0  0  0  0  0  0  0  0  0
    4.1030   37.4957   -0.2302 N   0  0  0  0  0  0  0  0  0  0  0  0
  1  2  1  0  0  0  0
  1 39  1  0  0  0  0
  3  4  1  0  0  0  0
  5  6  1  0  0  0  0
  5 40  1  0  0  0  0
  9 10  1  1  0  0  0
  9 14  1  0  0  0  0
  9 35  1  0  0  0  0
 10  1  1  0  0  0  0
 11 16  1  0  0  0  0
 11 28  1  0  0  0  0
 11 26  1  6  0  0  0
 12 17  1  0  0  0  0
 12 34  1  0  0  0  0
 12 13  1  1  0  0  0
 14 15  1  1  0  0  0
 14 19  1  0  0  0  0
 16 13  1  1  0  0  0
 16 21  1  0  0  0  0
 17 18  1  1  0  0  0
 17 23  1  0  0  0  0
 18  8  1  0  0  0  0
 19 20  1  1  0  0  0
 19 25  1  0  0  0  0
 20  5  1  0  0  0  0
 21  3  1  6  0  0  0
 21 22  1  0  0  0  0
 21 27  1  0  0  0  0
 23 24  1  1  0  0  0
 23 29  1  0  0  0  0
 25 26  1  6  0  0  0
 25 31  1  0  0  0  0
 27  7  1  1  0  0  0
 27 28  1  0  0  0  0
 29 30  1  1  0  0  0
 29 33  1  0  0  0  0
 31 32  1  6  0  0  0
 31 35  1  0  0  0  0
 33 34  1  0  0  0  0
 33 37  1  6  0  0  0
 35 36  1  6  0  0  0
 37 38  1  0  0  0  0
M  END
>  <CHROM.1>
-154.40668490,64.58705712,172.06256385,172.57246309,179.14625765,76.28441807
90.87023613,-83.96805431,63.06475892,-116.80447692,65.76359476,3.31953589
35.32207512,-1.65452744,-0.37325158,-0.23026534,0.46522822

>  <Name>
1ntb_lig

>  <RI>
0

>  <Rbt.Current_Directory>
/home/itssahil/PROJECTS/Mol_Feturizer/New_Systems/rnas/1ntb

>  <Rbt.Executable>
rbdock ($Id: //depot/dev/client3/rdock/2013.1/src/exe/rbdock.cxx#4 $)

>  <Rbt.Library>
libRbt.so (2013.1, Build901 2013/11/27)

>  <Rbt.Parameter_File>
/export/apps/rDock/src/rDock_2013.1_src/data/scripts/dock_solv.prm

>  <Rbt.Receptor>
prm/pocket_docking_2.prm

>  <SCORE>
-16.7596

>  <SCORE.INTER>
-9.24593

>  <SCORE.INTER.CONST>
1

>  <SCORE.INTER.POLAR>
-1.14387

>  <SCORE.INTER.ROT>
11

>  <SCORE.INTER.SOLV>
22.5149

>  <SCORE.INTER.VDW>
-20.7893

>  <SCORE.INTER.norm>
-0.231148

>  <SCORE.INTRA>
-7.5606

>  <SCORE.INTRA.DIHEDRAL>
-4.6232

>  <SCORE.INTRA.DIHEDRAL.0>
15.4453

>  <SCORE.INTRA.POLAR>
0

>  <SCORE.INTRA.POLAR.0>
0

>  <SCORE.INTRA.REPUL>
-0.820024

>  <SCORE.INTRA.REPUL.0>
0.823958

>  <SCORE.INTRA.SOLV>
1.51934

>  <SCORE.INTRA.SOLV.lig_0>
-99.3069

>  <SCORE.INTRA.VDW>
-1.90855

>  <SCORE.INTRA.VDW.0>
0.946495

>  <SCORE.INTRA.norm>
-0.189015

>  <SCORE.RESTR>
0.0468817

>  <SCORE.RESTR.CAVITY>
0.0468817

>  <SCORE.RESTR.norm>
0.00117204

>  <SCORE.SYSTEM>
0

>  <SCORE.SYSTEM.CONST>
0

>  <SCORE.SYSTEM.DIHEDRAL>
0

>  <SCORE.SYSTEM.SOLV>
0

>  <SCORE.SYSTEM.norm>
0

>  <SCORE.heavy>
40

>  <SCORE.norm>
-0.418991

>  <RMSD>
0.726

$$$$
1ntb_lig
 OpenBabel11021811403D
libRbt.so/2013.1/901 2013/11/27
 40 42  0  0  0  0  0  0  0  0999 V2000
   10.0267   32.9124   -1.6972 C   0  0  0  0  0  0  0  0  0  0  0  0
   10.6022   31.9101   -2.2398 N   0  0  0  0  0  0  0  0  0  0  0  0
   -0.5949   34.6543   -4.0128 C   0  0  0  0  0  0  0  0  0  0  0  0
   -1.6674   33.7743   -4.3055 O   0  0  0  0  0  0  0  0  0  0  0  0
    4.7192   36.0665    0.2976 C   0  0  0  0  0  0  0  0  0  0  0  0
    5.5556   36.4050    1.2130 N   0  0  0  0  0  0  0  0  0  0  0  0
    0.1938   31.5943   -3.2418 C   0  0  0  0  0  0  0  0  0  0  0  0
   -2.2915   35.3481    0.1265 C   0  0  0  0  0  0  0  0  0  0  0  0
    7.7239   33.4210   -1.6322 C   0  0  2  0  0  0  0  0  0  0  0  0
    8.8977   32.6501   -1.0674 N   0  0  0  0  0  0  0  0  0  0  0  0
    2.5611   33.9925   -2.2419 C   0  0  2  0  0  0  0  0  0  0  0  0
    0.0419   36.5438   -1.6933 C   0  0  1  0  0  0  0  0  0  0  0  0
    1.1305   35.6679   -1.4653 O   0  0  0  0  0  0  0  0  0  0  0  0
    6.7231   33.7727   -0.5369 C   0  0  1  0  0  0  0  0  0  0  0  0
    7.5103   34.5584    0.4604 O   0  0  0  0  0  0  0  0  0  0  0  0
    1.4329   34.9518   -2.5746 C   0  0  2  0  0  0  0  0  0  0  0  0
   -0.5069   36.9908   -0.3600 C   0  0  1  0  0  0  0  0  0  0  0  0
   -0.9749   35.8656    0.3696 N   0  0  0  0  0  0  0  0  0  0  0  0
    5.5035   34.5264   -1.0634 C   0  0  2  0  0  0  0  0  0  0  0  0
    4.5217   34.8895   -0.0625 N   0  0  0  0  0  0  0  0  0  0  0  0
    0.3093   34.0327   -2.9741 C   0  0  1  0  0  0  0  0  0  0  0  0
   -0.4516   33.6602   -1.8203 O   0  0  0  0  0  0  0  0  0  0  0  0
    0.6173   37.6685    0.4051 C   0  0  2  0  0  0  0  0  0  0  0  0
    0.1592   38.0986    1.6683 O   0  0  0  0  0  0  0  0  0  0  0  0
    4.8334   33.6617   -2.0996 C   0  0  1  0  0  0  0  0  0  0  0  0
    3.8096   34.5110   -2.6884 O   0  0  0  0  0  0  0  0  0  0  0  0
    0.9938   32.8384   -3.5289 C   0  0  1  0  0  0  0  0  0  0  0  0
    2.2734   32.7551   -2.8974 O   0  0  0  0  0  0  0  0  0  0  0  0
    1.0694   38.8643   -0.4333 C   0  0  1  0  0  0  0  0  0  0  0  0
    2.1287   39.5501    0.2157 O   0  0  0  0  0  0  0  0  0  0  0  0
    5.8269   33.3373   -3.2476 C   0  0  2  0  0  0  0  0  0  0  0  0
    5.1723   32.5351   -4.2182 O   0  0  0  0  0  0  0  0  0  0  0  0
    1.5316   38.3633   -1.8020 C   0  0  1  0  0  0  0  0  0  0  0  0
    0.4657   37.6735   -2.4526 O   0  0  0  0  0  0  0  0  0  0  0  0
    7.0343   32.5682   -2.6776 C   0  0  1  0  0  0  0  0  0  0  0  0
    7.9614   32.2607   -3.7256 O   0  0  0  0  0  0  0  0  0  0  0  0
    1.9534   39.5619   -2.6523 C   0  0  0  0  0  0  0  0  0  0  0  0
    2.1307   39.1407   -3.9953 O   0  0  0  0  0  0  0  0  0  0  0  0
   10.4991   34.1067   -1.7778 N   0  0  0  0  0  0  0  0  0  0  0  0
    4.0153   36.9399   -0.2393 N   0  0  0  0  0  0  0  0  0  0  0  0
  1  2  1  0  0  0  0
  1 39  1  0  0  0  0
  3  4  1  0  0  0  0
  5  6  1  0  0  0  0
  5 40  1  0  0  0  0
  9 10  1  1  0  0  0
  9 14  1  0  0  0  0
  9 35  1  0  0  0  0
 10  1  1  0  0  0  0
 11 16  1  0  0  0  0
 11 28  1  0  0  0  0
 11 26  1  6  0  0  0
 12 17  1  0  0  0  0
 12 34  1  0  0  0  0
 12 13  1  1  0  0  0
 14 15  1  1  0  0  0
 14 19  1  0  0  0  0
 16 13  1  1  0  0  0
 16 21  1  0  0  0  0
 17 18  1  1  0  0  0
 17 23  1  0  0  0  0
 18  8  1  0  0  0  0
 19 20  1  1  0  0  0
 19 25  1  0  0  0  0
 20  5  1  0  0  0  0
 21  3  1  6  0  0  0
 21 22  1  0  0  0  0
 21 27  1  0  0  0  0
 23 24  1  1  0  0  0
 23 29  1  0  0  0  0
 25 26  1  6  0  0  0
 25 31  1  0  0  0  0
 27  7  1  1  0  0  0
 27 28  1  0  0  0  0
 29 30  1  1  0  0  0
 29 33  1  0  0  0  0
 31 32  1  6  0  0  0
 31 35  1  0  0  0  0
 33 34  1  0  0  0  0
 33 37  1  6  0  0  0
 35 36  1  6  0  0  0
 37 38  1  0  0  0  0
M  END
>  <CHROM.1>
-146.78730811,-120.66577256,169.16436648,163.17205026,-177.42124594,-83.47125859
96.68651497,-85.15406075,-177.27507075,-109.64310207,-168.64024270,3.28588380
35.07649648,-1.68325088,-0.34897761,-0.17285661,0.56977176

>  <Name>
1ntb_lig

>  <RI>
0

>  <Rbt.Current_Directory>
/home/itssahil/PROJECTS/Mol_Feturizer/New_Systems/rnas/1ntb

>  <Rbt.Executable>
rbdock ($Id: //depot/dev/client3/rdock/2013.1/src/exe/rbdock.cxx#4 $)

>  <Rbt.Library>
libRbt.so (2013.1, Build901 2013/11/27)

>  <Rbt.Parameter_File>
/export/apps/rDock/src/rDock_2013.1_src/data/scripts/dock_solv.prm

>  <Rbt.Receptor>
prm/pocket_docking_2.prm

>  <SCORE>
-19.3841

>  <SCORE.INTER>
-8.32381

>  <SCORE.INTER.CONST>
1

>  <SCORE.INTER.POLAR>
-1.01696

>  <SCORE.INTER.ROT>
11

>  <SCORE.INTER.SOLV>
21.5882

>  <SCORE.INTER.VDW>
-20.2887

>  <SCORE.INTER.norm>
-0.208095

>  <SCORE.INTRA>
-11.067

>  <SCORE.INTRA.DIHEDRAL>
-3.23217

>  <SCORE.INTRA.DIHEDRAL.0>
15.4453

>  <SCORE.INTRA.POLAR>
0

>  <SCORE.INTRA.POLAR.0>
0

>  <SCORE.INTRA.REPUL>
-0.823958

>  <SCORE.INTRA.REPUL.0>
0.823958

>  <SCORE.INTRA.SOLV>
1.92119

>  <SCORE.INTRA.SOLV.lig_0>
-99.3069

>  <SCORE.INTRA.VDW>
-6.29168

>  <SCORE.INTRA.VDW.0>
0.946495

>  <SCORE.INTRA.norm>
-0.276674

>  <SCORE.RESTR>
0.00665418

>  <SCORE.RESTR.CAVITY>
0.00665418

>  <SCORE.RESTR.norm>
0.000166354

>  <SCORE.SYSTEM>
0

>  <SCORE.SYSTEM.CONST>
0

>  <SCORE.SYSTEM.DIHEDRAL>
0

>  <SCORE.SYSTEM.SOLV>
0

>  <SCORE.SYSTEM.norm>
0

>  <SCORE.heavy>
40

>  <SCORE.norm>
-0.484603

>  <RMSD>
0.726

$$$$
1ntb_lig
 OpenBabel11021811403D
libRbt.so/2013.1/901 2013/11/27
 40 42  0  0  0  0  0  0  0  0999 V2000
    9.9770   32.9229   -1.7983 C   0  0  0  0  0  0  0  0  0  0  0  0
   10.4598   34.1019   -1.7143 N   0  0  0  0  0  0  0  0  0  0  0  0
   -0.6591   34.3797   -4.1211 C   0  0  0  0  0  0  0  0  0  0  0  0
   -1.7655   33.5047   -4.2645 O   0  0  0  0  0  0  0  0  0  0  0  0
    4.5746   35.8830    0.2946 C   0  0  0  0  0  0  0  0  0  0  0  0
    5.3474   36.1217    1.2936 N   0  0  0  0  0  0  0  0  0  0  0  0
    0.1877   31.4118   -3.0940 C   0  0  0  0  0  0  0  0  0  0  0  0
   -2.2483   35.5219    0.0066 C   0  0  0  0  0  0  0  0  0  0  0  0
    7.6806   33.4533   -1.6931 C   0  0  2  0  0  0  0  0  0  0  0  0
    8.8673   32.7109   -1.1173 N   0  0  0  0  0  0  0  0  0  0  0  0
    2.5224   33.9261   -2.3303 C   0  0  2  0  0  0  0  0  0  0  0  0
   -0.0184   36.4929   -1.9908 C   0  0  1  0  0  0  0  0  0  0  0  0
    1.0702   35.6397   -1.6887 O   0  0  0  0  0  0  0  0  0  0  0  0
    6.6354   33.7307   -0.6182 C   0  0  1  0  0  0  0  0  0  0  0  0
    7.3616   34.5141    0.4261 O   0  0  0  0  0  0  0  0  0  0  0  0
    1.3754   34.8344   -2.7343 C   0  0  2  0  0  0  0  0  0  0  0  0
   -0.5068   37.1258   -0.7104 C   0  0  1  0  0  0  0  0  0  0  0  0
   -0.9548   36.1180    0.1845 N   0  0  0  0  0  0  0  0  0  0  0  0
    5.4025   34.4529   -1.1577 C   0  0  2  0  0  0  0  0  0  0  0  0
    4.3786   34.7454   -0.1760 N   0  0  0  0  0  0  0  0  0  0  0  0
    0.2641   33.8658   -3.0411 C   0  0  1  0  0  0  0  0  0  0  0  0
   -0.4806   33.5834   -1.8518 O   0  0  0  0  0  0  0  0  0  0  0  0
    0.6549   37.8843   -0.0908 C   0  0  2  0  0  0  0  0  0  0  0  0
    0.2541   38.4896    1.1189 O   0  0  0  0  0  0  0  0  0  0  0  0
    4.7975   33.5964   -2.2396 C   0  0  1  0  0  0  0  0  0  0  0  0
    3.7581   34.4237   -2.8326 O   0  0  0  0  0  0  0  0  0  0  0  0
    0.9641   32.6389   -3.4963 C   0  0  1  0  0  0  0  0  0  0  0  0
    2.2502   32.6317   -2.8725 O   0  0  0  0  0  0  0  0  0  0  0  0
    1.0832   38.9475   -1.1025 C   0  0  1  0  0  0  0  0  0  0  0  0
    2.1752   39.6991   -0.5963 O   0  0  0  0  0  0  0  0  0  0  0  0
    5.8358   33.3477   -3.3667 C   0  0  2  0  0  0  0  0  0  0  0  0
    5.2419   32.5522   -4.3808 O   0  0  0  0  0  0  0  0  0  0  0  0
    1.4830   38.2575   -2.4071 C   0  0  1  0  0  0  0  0  0  0  0  0
    0.3843   37.5018   -2.9140 O   0  0  0  0  0  0  0  0  0  0  0  0
    7.0559   32.6082   -2.7846 C   0  0  1  0  0  0  0  0  0  0  0  0
    8.0244   32.3707   -3.8132 O   0  0  0  0  0  0  0  0  0  0  0  0
    1.8805   39.3223   -3.4297 C   0  0  0  0  0  0  0  0  0  0  0  0
    3.0528   39.9836   -2.9815 O   0  0  0  0  0  0  0  0  0  0  0  0
   10.5450   31.9913   -2.4804 N   0  0  0  0  0  0  0  0  0  0  0  0
    3.9325   36.8170   -0.2174 N   0  0  0  0  0  0  0  0  0  0  0  0
  1  2  1  0  0  0  0
  1 39  1  0  0  0  0
  3  4  1  0  0  0  0
  5  6  1  0  0  0  0
  5 40  1  0  0  0  0
  9 10  1  1  0  0  0
  9 14  1  0  0  0  0
  9 35  1  0  0  0  0
 10  1  1  0  0  0  0
 11 16  1  0  0  0  0
 11 28  1  0  0  0  0
 11 26  1  6  0  0  0
 12 17  1  0  0  0  0
 12 34  1  0  0  0  0
 12 13  1  1  0  0  0
 14 15  1  1  0  0  0
 14 19  1  0  0  0  0
 16 13  1  1  0  0  0
 16 21  1  0  0  0  0
 17 18  1  1  0  0  0
 17 23  1  0  0  0  0
 18  8  1  0  0  0  0
 19 20  1  1  0  0  0
 19 25  1  0  0  0  0
 20  5  1  0  0  0  0
 21  3  1  6  0  0  0
 21 22  1  0  0  0  0
 21 27  1  0  0  0  0
 23 24  1  1  0  0  0
 23 29  1  0  0  0  0
 25 26  1  6  0  0  0
 25 31  1  0  0  0  0
 27  7  1  1  0  0  0
 27 28  1  0  0  0  0
 29 30  1  1  0  0  0
 29 33  1  0  0  0  0
 31 32  1  6  0  0  0
 31 35  1  0  0  0  0
 33 34  1  0  0  0  0
 33 37  1  6  0  0  0
 35 36  1  6  0  0  0
 37 38  1  0  0  0  0
M  END
>  <CHROM.1>
-153.84811644,69.05136584,172.27771872,167.21074834,-178.56342990,-78.84971750
92.06712870,-86.77653315,-173.46656584,-103.87487600,65.51495701,3.27493359
35.06740838,-1.83286203,-0.35982363,-0.15231167,0.46439083

>  <Name>
1ntb_lig

>  <RI>
0

>  <Rbt.Current_Directory>
/home/itssahil/PROJECTS/Mol_Feturizer/New_Systems/rnas/1ntb

>  <Rbt.Executable>
rbdock ($Id: //depot/dev/client3/rdock/2013.1/src/exe/rbdock.cxx#4 $)

>  <Rbt.Library>
libRbt.so (2013.1, Build901 2013/11/27)

>  <Rbt.Parameter_File>
/export/apps/rDock/src/rDock_2013.1_src/data/scripts/dock_solv.prm

>  <Rbt.Receptor>
prm/pocket_docking_2.prm

>  <SCORE>
-19.7151

>  <SCORE.INTER>
-8.84312

>  <SCORE.INTER.CONST>
1

>  <SCORE.INTER.POLAR>
-0.974338

>  <SCORE.INTER.ROT>
11

>  <SCORE.INTER.SOLV>
21.1864

>  <SCORE.INTER.VDW>
-20.6431

>  <SCORE.INTER.norm>
-0.221078

>  <SCORE.INTRA>
-10.8739

>  <SCORE.INTRA.DIHEDRAL>
-5.03968

>  <SCORE.INTRA.DIHEDRAL.0>
15.4453

>  <SCORE.INTRA.POLAR>
0

>  <SCORE.INTRA.POLAR.0>
0

>  <SCORE.INTRA.REPUL>
-0.823958

>  <SCORE.INTRA.REPUL.0>
0.823958

>  <SCORE.INTRA.SOLV>
1.92819

>  <SCORE.INTRA.SOLV.lig_0>
-99.3069

>  <SCORE.INTRA.VDW>
-5.19835

>  <SCORE.INTRA.VDW.0>
0.946495

>  <SCORE.INTRA.norm>
-0.271847

>  <SCORE.RESTR>
0.00190727

>  <SCORE.RESTR.CAVITY>
0.00190727

>  <SCORE.RESTR.norm>
4.76817e-05

>  <SCORE.SYSTEM>
0

>  <SCORE.SYSTEM.CONST>
0

>  <SCORE.SYSTEM.DIHEDRAL>
0

>  <SCORE.SYSTEM.SOLV>
0

>  <SCORE.SYSTEM.norm>
0

>  <SCORE.heavy>
40

>  <SCORE.norm>
-0.492877

>  <RMSD>
0.746

$$$$
1ntb_lig
 OpenBabel11021811403D
libRbt.so/2013.1/901 2013/11/27
 40 42  0  0  0  0  0  0  0  0999 V2000
   10.0776   32.9453   -1.3452 C   0  0  0  0  0  0  0  0  0  0  0  0
   10.7546   31.8861   -1.5686 N   0  0  0  0  0  0  0  0  0  0  0  0
   -0.4819   34.4655   -4.0103 C   0  0  0  0  0  0  0  0  0  0  0  0
    0.3033   34.7060   -5.1661 O   0  0  0  0  0  0  0  0  0  0  0  0
    4.8404   36.2158    0.4197 C   0  0  0  0  0  0  0  0  0  0  0  0
    4.5955   37.3013   -0.2236 N   0  0  0  0  0  0  0  0  0  0  0  0
    0.2761   31.5344   -2.8210 C   0  0  0  0  0  0  0  0  0  0  0  0
   -1.8475   35.8841    0.6027 C   0  0  0  0  0  0  0  0  0  0  0  0
    7.7825   33.4911   -1.3567 C   0  0  2  0  0  0  0  0  0  0  0  0
    8.9402   32.7701   -0.7004 N   0  0  0  0  0  0  0  0  0  0  0  0
    2.6394   34.0375   -2.1105 C   0  0  2  0  0  0  0  0  0  0  0  0
    0.0181   36.5221   -1.8807 C   0  0  1  0  0  0  0  0  0  0  0  0
    1.2051   35.8069   -1.5918 O   0  0  0  0  0  0  0  0  0  0  0  0
    6.7536   33.9298   -0.3204 C   0  0  1  0  0  0  0  0  0  0  0  0
    7.5153   34.7951    0.6299 O   0  0  0  0  0  0  0  0  0  0  0  0
    1.5225   34.9471   -2.5892 C   0  0  2  0  0  0  0  0  0  0  0  0
   -0.3415   37.3671   -0.6827 C   0  0  1  0  0  0  0  0  0  0  0  0
   -0.5770   36.5323    0.4420 N   0  0  0  0  0  0  0  0  0  0  0  0
    5.5490   34.6368   -0.9383 C   0  0  2  0  0  0  0  0  0  0  0  0
    4.5418   35.0792    0.0037 N   0  0  0  0  0  0  0  0  0  0  0  0
    0.4008   33.9863   -2.8815 C   0  0  1  0  0  0  0  0  0  0  0  0
   -0.3819   33.7749   -1.7018 O   0  0  0  0  0  0  0  0  0  0  0  0
    0.8268   38.2959   -0.3979 C   0  0  2  0  0  0  0  0  0  0  0  0
    0.5463   39.1048    0.7235 O   0  0  0  0  0  0  0  0  0  0  0  0
    4.9054   33.6898   -1.9177 C   0  0  1  0  0  0  0  0  0  0  0  0
    3.8983   34.4872   -2.6004 O   0  0  0  0  0  0  0  0  0  0  0  0
    1.0880   32.7260   -3.2584 C   0  0  1  0  0  0  0  0  0  0  0  0
    2.3561   32.7242   -2.5988 O   0  0  0  0  0  0  0  0  0  0  0  0
    1.0222   39.1608   -1.6434 C   0  0  1  0  0  0  0  0  0  0  0  0
    2.1067   40.0568   -1.4570 O   0  0  0  0  0  0  0  0  0  0  0  0
    5.9283   33.2740   -3.0090 C   0  0  2  0  0  0  0  0  0  0  0  0
    5.2986   32.3947   -3.9279 O   0  0  0  0  0  0  0  0  0  0  0  0
    1.2957   38.2504   -2.8409 C   0  0  1  0  0  0  0  0  0  0  0  0
    0.2049   37.3499   -3.0262 O   0  0  0  0  0  0  0  0  0  0  0  0
    7.1196   32.5552   -2.3469 C   0  0  1  0  0  0  0  0  0  0  0  0
    8.0735   32.1644   -3.3416 O   0  0  0  0  0  0  0  0  0  0  0  0
    1.4592   39.1130   -4.0926 C   0  0  0  0  0  0  0  0  0  0  0  0
    2.6113   39.9282   -3.9490 O   0  0  0  0  0  0  0  0  0  0  0  0
   10.4621   34.1071   -1.7431 N   0  0  0  0  0  0  0  0  0  0  0  0
    5.4572   36.2712    1.4982 N   0  0  0  0  0  0  0  0  0  0  0  0
  1  2  1  0  0  0  0
  1 39  1  0  0  0  0
  3  4  1  0  0  0  0
  5  6  1  0  0  0  0
  5 40  1  0  0  0  0
  9 10  1  1  0  0  0
  9 14  1  0  0  0  0
  9 35  1  0  0  0  0
 10  1  1  0  0  0  0
 11 16  1  0  0  0  0
 11 28  1  0  0  0  0
 11 26  1  6  0  0  0
 12 17  1  0  0  0  0
 12 34  1  0  0  0  0
 12 13  1  1  0  0  0
 14 15  1  1  0  0  0
 14 19  1  0  0  0  0
 16 13  1  1  0  0  0
 16 21  1  0  0  0  0
 17 18  1  1  0  0  0
 17 23  1  0  0  0  0
 18  8  1  0  0  0  0
 19 20  1  1  0  0  0
 19 25  1  0  0  0  0
 20  5  1  0  0  0  0
 21  3  1  6  0  0  0
 21 22  1  0  0  0  0
 21 27  1  0  0  0  0
 23 24  1  1  0  0  0
 23 29  1  0  0  0  0
 25 26  1  6  0  0  0
 25 31  1  0  0  0  0
 27  7  1  1  0  0  0
 27 28  1  0  0  0  0
 29 30  1  1  0  0  0
 29 33  1  0  0  0  0
 31 32  1  6  0  0  0
 31 35  1  0  0  0  0
 33 34  1  0  0  0  0
 33 37  1  6  0  0  0
 35 36  1  6  0  0  0
 37 38  1  0  0  0  0
M  END
>  <CHROM.1>
-148.90583222,-132.15947085,171.04127324,175.08504914,-169.53171229,-81.32043095
87.16153296,81.31285498,55.70398023,-107.63935346,64.64616384,3.42657573
35.22475491,-1.76462802,-0.38683228,-0.23190332,0.43168161

>  <Name>
1ntb_lig

>  <RI>
0

>  <Rbt.Current_Directory>
/home/itssahil/PROJECTS/Mol_Feturizer/New_Systems/rnas/1ntb

>  <Rbt.Executable>
rbdock ($Id: //depot/dev/client3/rdock/2013.1/src/exe/rbdock.cxx#4 $)

>  <Rbt.Library>
libRbt.so (2013.1, Build901 2013/11/27)

>  <Rbt.Parameter_File>
/export/apps/rDock/src/rDock_2013.1_src/data/scripts/dock_solv.prm

>  <Rbt.Receptor>
prm/pocket_docking_2.prm

>  <SCORE>
-20.748

>  <SCORE.INTER>
-10.3909

>  <SCORE.INTER.CONST>
1

>  <SCORE.INTER.POLAR>
-1.18209

>  <SCORE.INTER.ROT>
11

>  <SCORE.INTER.SOLV>
24.1738

>  <SCORE.INTER.VDW>
-21.9782

>  <SCORE.INTER.norm>
-0.259773

>  <SCORE.INTRA>
-10.3754

>  <SCORE.INTRA.DIHEDRAL>
-5.12723

>  <SCORE.INTRA.DIHEDRAL.0>
15.4453

>  <SCORE.INTRA.POLAR>
0

>  <SCORE.INTRA.POLAR.0>
0

>  <SCORE.INTRA.REPUL>
-0.810082

>  <SCORE.INTRA.REPUL.0>
0.823958

>  <SCORE.INTRA.SOLV>
-0.155837

>  <SCORE.INTRA.SOLV.lig_0>
-99.3069

>  <SCORE.INTRA.VDW>
-3.68346

>  <SCORE.INTRA.VDW.0>
0.946495

>  <SCORE.INTRA.norm>
-0.259385

>  <SCORE.RESTR>
0.0183344

>  <SCORE.RESTR.CAVITY>
0.0183344

>  <SCORE.RESTR.norm>
0.000458359

>  <SCORE.SYSTEM>
0

>  <SCORE.SYSTEM.CONST>
0

>  <SCORE.SYSTEM.DIHEDRAL>
0

>  <SCORE.SYSTEM.SOLV>
0

>  <SCORE.SYSTEM.norm>
0

>  <SCORE.heavy>
40

>  <SCORE.norm>
-0.5187

>  <RMSD>
0.769

$$$$
1ntb_lig
 OpenBabel11021811403D
libRbt.so/2013.1/901 2013/11/27
 40 42  0  0  0  0  0  0  0  0999 V2000
    9.9217   32.8022   -0.9977 C   0  0  0  0  0  0  0  0  0  0  0  0
   10.9092   32.7759   -0.1888 N   0  0  0  0  0  0  0  0  0  0  0  0
   -0.3008   34.9790   -4.2567 C   0  0  0  0  0  0  0  0  0  0  0  0
   -1.2629   34.1110   -4.8323 O   0  0  0  0  0  0  0  0  0  0  0  0
    5.1154   36.5155    0.6308 C   0  0  0  0  0  0  0  0  0  0  0  0
    5.1613   37.5499   -0.1307 N   0  0  0  0  0  0  0  0  0  0  0  0
    0.4594   31.8646   -3.7065 C   0  0  0  0  0  0  0  0  0  0  0  0
   -2.5684   36.0185    0.9273 C   0  0  0  0  0  0  0  0  0  0  0  0
    7.6403   33.3919   -1.1128 C   0  0  2  0  0  0  0  0  0  0  0  0
    8.7378   32.5791   -0.4603 N   0  0  0  0  0  0  0  0  0  0  0  0
    2.5560   34.1724   -2.0835 C   0  0  2  0  0  0  0  0  0  0  0  0
   -0.0858   36.6247   -1.6758 C   0  0  1  0  0  0  0  0  0  0  0  0
    0.9645   35.7263   -1.3696 O   0  0  0  0  0  0  0  0  0  0  0  0
    6.7139   33.9999   -0.0654 C   0  0  1  0  0  0  0  0  0  0  0  0
    7.6091   34.8217    0.8036 O   0  0  0  0  0  0  0  0  0  0  0  0
    1.4627   35.1449   -2.4870 C   0  0  2  0  0  0  0  0  0  0  0  0
   -0.7467   37.0532   -0.3881 C   0  0  1  0  0  0  0  0  0  0  0  0
   -1.2955   35.9213    0.2713 N   0  0  0  0  0  0  0  0  0  0  0  0
    5.5700   34.8061   -0.6772 C   0  0  2  0  0  0  0  0  0  0  0  0
    4.6614   35.4103    0.2751 N   0  0  0  0  0  0  0  0  0  0  0  0
    0.4483   34.2588   -3.1599 C   0  0  1  0  0  0  0  0  0  0  0  0
   -0.4724   33.7463   -2.1910 O   0  0  0  0  0  0  0  0  0  0  0  0
    0.3134   37.6962    0.4903 C   0  0  2  0  0  0  0  0  0  0  0  0
   -0.2511   38.1078    1.7161 O   0  0  0  0  0  0  0  0  0  0  0  0
    4.7817   33.8882   -1.5750 C   0  0  1  0  0  0  0  0  0  0  0  0
    3.8411   34.7580   -2.2642 O   0  0  0  0  0  0  0  0  0  0  0  0
    1.2521   33.1459   -3.7239 C   0  0  1  0  0  0  0  0  0  0  0  0
    2.4178   33.0125   -2.9075 O   0  0  0  0  0  0  0  0  0  0  0  0
    0.8572   38.9013   -0.2774 C   0  0  1  0  0  0  0  0  0  0  0  0
    1.8633   39.5558    0.4797 O   0  0  0  0  0  0  0  0  0  0  0  0
    5.7023   33.3006   -2.6784 C   0  0  2  0  0  0  0  0  0  0  0  0
    4.9379   32.4515   -3.5203 O   0  0  0  0  0  0  0  0  0  0  0  0
    1.4343   38.4209   -1.6093 C   0  0  1  0  0  0  0  0  0  0  0  0
    0.4218   37.7625   -2.3687 O   0  0  0  0  0  0  0  0  0  0  0  0
    6.8336   32.4865   -2.0214 C   0  0  1  0  0  0  0  0  0  0  0  0
    7.6928   31.9368   -3.0273 O   0  0  0  0  0  0  0  0  0  0  0  0
    1.9491   39.6295   -2.3915 C   0  0  0  0  0  0  0  0  0  0  0  0
    2.3475   39.2105   -3.6869 O   0  0  0  0  0  0  0  0  0  0  0  0
   10.0682   33.0069   -2.2596 N   0  0  0  0  0  0  0  0  0  0  0  0
    5.5934   36.5796    1.7771 N   0  0  0  0  0  0  0  0  0  0  0  0
  1  2  1  0  0  0  0
  1 39  1  0  0  0  0
  3  4  1  0  0  0  0
  5  6  1  0  0  0  0
  5 40  1  0  0  0  0
  9 10  1  1  0  0  0
  9 14  1  0  0  0  0
  9 35  1  0  0  0  0
 10  1  1  0  0  0  0
 11 16  1  0  0  0  0
 11 28  1  0  0  0  0
 11 26  1  6  0  0  0
 12 17  1  0  0  0  0
 12 34  1  0  0  0  0
 12 13  1  1  0  0  0
 14 15  1  1  0  0  0
 14 19  1  0  0  0  0
 16 13  1  1  0  0  0
 16 21  1  0  0  0  0
 17 18  1  1  0  0  0
 17 23  1  0  0  0  0
 18  8  1  0  0  0  0
 19 20  1  1  0  0  0
 19 25  1  0  0  0  0
 20  5  1  0  0  0  0
 21  3  1  6  0  0  0
 21 22  1  0  0  0  0
 21 27  1  0  0  0  0
 23 24  1  1  0  0  0
 23 29  1  0  0  0  0
 25 26  1  6  0  0  0
 25 31  1  0  0  0  0
 27  7  1  1  0  0  0
 27 28  1  0  0  0  0
 29 30  1  1  0  0  0
 29 33  1  0  0  0  0
 31 32  1  6  0  0  0
 31 35  1  0  0  0  0
 33 34  1  0  0  0  0
 33 37  1  6  0  0  0
 35 36  1  6  0  0  0
 37 38  1  0  0  0  0
M  END
>  <CHROM.1>
-135.99587443,144.63706618,167.27191100,170.46148858,-178.58517503,-140.42302956
86.00228339,70.66513461,-178.56333715,-128.34489083,-173.51849678,3.28040277
35.21326257,-1.43779356,-0.29981839,-0.26496908,0.64251277

>  <Name>
1ntb_lig

>  <RI>
0

>  <Rbt.Current_Directory>
/home/itssahil/PROJECTS/Mol_Feturizer/New_Systems/rnas/1ntb

>  <Rbt.Executable>
rbdock ($Id: //depot/dev/client3/rdock/2013.1/src/exe/rbdock.cxx#4 $)

>  <Rbt.Library>
libRbt.so (2013.1, Build901 2013/11/27)

>  <Rbt.Parameter_File>
/export/apps/rDock/src/rDock_2013.1_src/data/scripts/dock_solv.prm

>  <Rbt.Receptor>
prm/pocket_docking_2.prm

>  <SCORE>
-17.8945

>  <SCORE.INTER>
-6.42036

>  <SCORE.INTER.CONST>
1

>  <SCORE.INTER.POLAR>
-0.708843

>  <SCORE.INTER.ROT>
11

>  <SCORE.INTER.SOLV>
25.6051

>  <SCORE.INTER.VDW>
-21.3858

>  <SCORE.INTER.norm>
-0.160509

>  <SCORE.INTRA>
-11.4742

>  <SCORE.INTRA.DIHEDRAL>
-3.36209

>  <SCORE.INTRA.DIHEDRAL.0>
15.4453

>  <SCORE.INTRA.POLAR>
0

>  <SCORE.INTRA.POLAR.0>
0

>  <SCORE.INTRA.REPUL>
-0.764255

>  <SCORE.INTRA.REPUL.0>
0.823958

>  <SCORE.INTRA.SOLV>
-2.00636

>  <SCORE.INTRA.SOLV.lig_0>
-99.3069

>  <SCORE.INTRA.VDW>
-4.96867

>  <SCORE.INTRA.VDW.0>
0.946495

>  <SCORE.INTRA.norm>
-0.286854

>  <SCORE.RESTR>
0

>  <SCORE.RESTR.CAVITY>
0

>  <SCORE.RESTR.norm>
0

>  <SCORE.SYSTEM>
0

>  <SCORE.SYSTEM.CONST>
0

>  <SCORE.SYSTEM.DIHEDRAL>
0

>  <SCORE.SYSTEM.SOLV>
0

>  <SCORE.SYSTEM.norm>
0

>  <SCORE.heavy>
40

>  <SCORE.norm>
-0.447363

>  <RMSD>
0.772

$$$$
1ntb_lig
 OpenBabel11021811403D
libRbt.so/2013.1/901 2013/11/27
 40 42  0  0  0  0  0  0  0  0999 V2000
    9.9807   32.9322   -1.7428 C   0  0  0  0  0  0  0  0  0  0  0  0
   10.5908   31.9686   -2.3168 N   0  0  0  0  0  0  0  0  0  0  0  0
   -0.5567   34.8526   -4.2882 C   0  0  0  0  0  0  0  0  0  0  0  0
   -1.6005   35.4994   -3.5793 O   0  0  0  0  0  0  0  0  0  0  0  0
    4.6598   36.0100    0.2865 C   0  0  0  0  0  0  0  0  0  0  0  0
    5.4324   36.3115    1.2684 N   0  0  0  0  0  0  0  0  0  0  0  0
    0.2876   31.7219   -4.0326 C   0  0  0  0  0  0  0  0  0  0  0  0
   -2.2708   35.6597    1.1593 C   0  0  0  0  0  0  0  0  0  0  0  0
    7.6723   33.4180   -1.7096 C   0  0  2  0  0  0  0  0  0  0  0  0
    8.8370   32.6196   -1.1646 N   0  0  0  0  0  0  0  0  0  0  0  0
    2.5199   33.9518   -2.4834 C   0  0  2  0  0  0  0  0  0  0  0  0
   -0.0540   36.3662   -1.6433 C   0  0  1  0  0  0  0  0  0  0  0  0
    0.9967   35.4277   -1.5042 O   0  0  0  0  0  0  0  0  0  0  0  0
    6.6641   33.7340   -0.6102 C   0  0  1  0  0  0  0  0  0  0  0  0
    7.4472   34.4771    0.4225 O   0  0  0  0  0  0  0  0  0  0  0  0
    1.3808   34.9303   -2.7042 C   0  0  2  0  0  0  0  0  0  0  0  0
   -0.5600   36.7331   -0.2692 C   0  0  1  0  0  0  0  0  0  0  0  0
   -1.0672   35.5770    0.3816 N   0  0  0  0  0  0  0  0  0  0  0  0
    5.4532   34.5141   -1.1180 C   0  0  2  0  0  0  0  0  0  0  0  0
    4.4650   34.8450   -0.1122 N   0  0  0  0  0  0  0  0  0  0  0  0
    0.3102   34.0739   -3.3266 C   0  0  1  0  0  0  0  0  0  0  0  0
   -0.4988   33.4826   -2.3044 O   0  0  0  0  0  0  0  0  0  0  0  0
    0.6065   37.2990    0.5230 C   0  0  2  0  0  0  0  0  0  0  0  0
    0.1893   37.6505    1.8242 O   0  0  0  0  0  0  0  0  0  0  0  0
    4.7872   33.6929   -2.1914 C   0  0  1  0  0  0  0  0  0  0  0  0
    3.7731   34.5697   -2.7563 O   0  0  0  0  0  0  0  0  0  0  0  0
    1.0614   33.0147   -4.0452 C   0  0  1  0  0  0  0  0  0  0  0  0
    2.3075   32.8470   -3.3653 O   0  0  0  0  0  0  0  0  0  0  0  0
    1.0993   38.5345   -0.2306 C   0  0  1  0  0  0  0  0  0  0  0  0
    2.1995   39.1203    0.4478 O   0  0  0  0  0  0  0  0  0  0  0  0
    5.7886   33.4062   -3.3426 C   0  0  2  0  0  0  0  0  0  0  0  0
    5.1379   32.6449   -4.3482 O   0  0  0  0  0  0  0  0  0  0  0  0
    1.5157   38.1204   -1.6423 C   0  0  1  0  0  0  0  0  0  0  0  0
    0.4088   37.5310   -2.3225 O   0  0  0  0  0  0  0  0  0  0  0  0
    6.9869   32.6091   -2.7921 C   0  0  1  0  0  0  0  0  0  0  0  0
    7.9212   32.3360   -3.8432 O   0  0  0  0  0  0  0  0  0  0  0  0
    1.9782   39.3610   -2.4069 C   0  0  0  0  0  0  0  0  0  0  0  0
    2.1979   39.0157   -3.7652 O   0  0  0  0  0  0  0  0  0  0  0  0
   10.4341   34.1364   -1.7468 N   0  0  0  0  0  0  0  0  0  0  0  0
    4.0165   36.9094   -0.2826 N   0  0  0  0  0  0  0  0  0  0  0  0
  1  2  1  0  0  0  0
  1 39  1  0  0  0  0
  3  4  1  0  0  0  0
  5  6  1  0  0  0  0
  5 40  1  0  0  0  0
  9 10  1  1  0  0  0
  9 14  1  0  0  0  0
  9 35  1  0  0  0  0
 10  1  1  0  0  0  0
 11 16  1  0  0  0  0
 11 28  1  0  0  0  0
 11 26  1  6  0  0  0
 12 17  1  0  0  0  0
 12 34  1  0  0  0  0
 12 13  1  1  0  0  0
 14 15  1  1  0  0  0
 14 19  1  0  0  0  0
 16 13  1  1  0  0  0
 16 21  1  0  0  0  0
 17 18  1  1  0  0  0
 17 23  1  0  0  0  0
 18  8  1  0  0  0  0
 19 20  1  1  0  0  0
 19 25  1  0  0  0  0
 20  5  1  0  0  0  0
 21  3  1  6  0  0  0
 21 22  1  0  0  0  0
 21 27  1  0  0  0  0
 23 24  1  1  0  0  0
 23 29  1  0  0  0  0
 25 26  1  6  0  0  0
 25 31  1  0  0  0  0
 27  7  1  1  0  0  0
 27 28  1  0  0  0  0
 29 30  1  1  0  0  0
 29 33  1  0  0  0  0
 31 32  1  6  0  0  0
 31 35  1  0  0  0  0
 33 34  1  0  0  0  0
 33 37  1  6  0  0  0
 35 36  1  6  0  0  0
 37 38  1  0  0  0  0
M  END
>  <CHROM.1>
-144.58579736,-121.72442039,165.49844057,172.22126115,179.11251443,-139.42396679
97.17702533,-89.31560897,-85.32637832,-116.74505386,-172.39877441,3.26336729
35.06300831,-1.70454843,-0.33263102,-0.19824619,0.71584940

>  <Name>
1ntb_lig

>  <RI>
0

>  <Rbt.Current_Directory>
/home/itssahil/PROJECTS/Mol_Feturizer/New_Systems/rnas/1ntb

>  <Rbt.Executable>
rbdock ($Id: //depot/dev/client3/rdock/2013.1/src/exe/rbdock.cxx#4 $)

>  <Rbt.Library>
libRbt.so (2013.1, Build901 2013/11/27)

>  <Rbt.Parameter_File>
/export/apps/rDock/src/rDock_2013.1_src/data/scripts/dock_solv.prm

>  <Rbt.Receptor>
prm/pocket_docking_2.prm

>  <SCORE>
-17.6862

>  <SCORE.INTER>
-7.75922

>  <SCORE.INTER.CONST>
1

>  <SCORE.INTER.POLAR>
-0.877293

>  <SCORE.INTER.ROT>
11

>  <SCORE.INTER.SOLV>
21.8659

>  <SCORE.INTER.VDW>
-20.4705

>  <SCORE.INTER.norm>
-0.19398

>  <SCORE.INTRA>
-9.96538

>  <SCORE.INTRA.DIHEDRAL>
-1.55644

>  <SCORE.INTRA.DIHEDRAL.0>
15.4453

>  <SCORE.INTRA.POLAR>
0

>  <SCORE.INTRA.POLAR.0>
0

>  <SCORE.INTRA.REPUL>
-0.823958

>  <SCORE.INTRA.REPUL.0>
0.823958

>  <SCORE.INTRA.SOLV>
2.51037

>  <SCORE.INTRA.SOLV.lig_0>
-99.3069

>  <SCORE.INTRA.VDW>
-6.32256

>  <SCORE.INTRA.VDW.0>
0.946495

>  <SCORE.INTRA.norm>
-0.249134

>  <SCORE.RESTR>
0.0384325

>  <SCORE.RESTR.CAVITY>
0.0384325

>  <SCORE.RESTR.norm>
0.000960813

>  <SCORE.SYSTEM>
0

>  <SCORE.SYSTEM.CONST>
0

>  <SCORE.SYSTEM.DIHEDRAL>
0

>  <SCORE.SYSTEM.SOLV>
0

>  <SCORE.SYSTEM.norm>
0

>  <SCORE.heavy>
40

>  <SCORE.norm>
-0.442154

>  <RMSD>
0.777

$$$$
1ntb_lig
 OpenBabel11021811403D
libRbt.so/2013.1/901 2013/11/27
 40 42  0  0  0  0  0  0  0  0999 V2000
    9.8657   32.8326   -0.9331 C   0  0  0  0  0  0  0  0  0  0  0  0
    9.8904   33.0157   -2.1964 N   0  0  0  0  0  0  0  0  0  0  0  0
   -0.4627   34.5375   -4.1564 C   0  0  0  0  0  0  0  0  0  0  0  0
   -1.5116   33.6465   -4.4975 O   0  0  0  0  0  0  0  0  0  0  0  0
    4.7029   36.4329    0.4238 C   0  0  0  0  0  0  0  0  0  0  0  0
    5.6063   36.9188    1.1984 N   0  0  0  0  0  0  0  0  0  0  0  0
    0.2812   31.5399   -3.1361 C   0  0  0  0  0  0  0  0  0  0  0  0
   -2.3866   35.6121    0.0093 C   0  0  0  0  0  0  0  0  0  0  0  0
    7.5656   33.3367   -1.0782 C   0  0  2  0  0  0  0  0  0  0  0  0
    8.6825   32.5558   -0.4196 N   0  0  0  0  0  0  0  0  0  0  0  0
    2.4516   34.0450   -1.9658 C   0  0  2  0  0  0  0  0  0  0  0  0
   -0.1669   36.5533   -1.8743 C   0  0  1  0  0  0  0  0  0  0  0  0
    0.8996   35.7174   -1.4645 O   0  0  0  0  0  0  0  0  0  0  0  0
    6.5978   33.8895   -0.0376 C   0  0  1  0  0  0  0  0  0  0  0  0
    7.4446   34.7300    0.8615 O   0  0  0  0  0  0  0  0  0  0  0  0
    1.3566   34.9571   -2.4882 C   0  0  2  0  0  0  0  0  0  0  0  0
   -0.6973   37.2879   -0.6669 C   0  0  1  0  0  0  0  0  0  0  0  0
   -1.1907   36.3564    0.2850 N   0  0  0  0  0  0  0  0  0  0  0  0
    5.4341   34.6613   -0.6563 C   0  0  2  0  0  0  0  0  0  0  0  0
    4.4858   35.2127    0.2894 N   0  0  0  0  0  0  0  0  0  0  0  0
    0.3124   33.9905   -2.9805 C   0  0  1  0  0  0  0  0  0  0  0  0
   -0.5831   33.6539   -1.9157 O   0  0  0  0  0  0  0  0  0  0  0  0
    0.4481   38.0827   -0.0626 C   0  0  2  0  0  0  0  0  0  0  0  0
    0.0076   38.7836    1.0799 O   0  0  0  0  0  0  0  0  0  0  0  0
    4.6983   33.7296   -1.5840 C   0  0  1  0  0  0  0  0  0  0  0  0
    3.7365   34.5742   -2.2752 O   0  0  0  0  0  0  0  0  0  0  0  0
    1.0865   32.7896   -3.3818 C   0  0  1  0  0  0  0  0  0  0  0  0
    2.2755   32.7704   -2.5887 O   0  0  0  0  0  0  0  0  0  0  0  0
    0.9269   39.0605   -1.1359 C   0  0  1  0  0  0  0  0  0  0  0  0
    2.0069   39.8403   -0.6468 O   0  0  0  0  0  0  0  0  0  0  0  0
    5.6605   33.1980   -2.6802 C   0  0  2  0  0  0  0  0  0  0  0  0
    4.9450   32.3348   -3.5503 O   0  0  0  0  0  0  0  0  0  0  0  0
    1.3691   38.2680   -2.3664 C   0  0  1  0  0  0  0  0  0  0  0  0
    0.2823   37.4841   -2.8562 O   0  0  0  0  0  0  0  0  0  0  0  0
    6.8111   32.4170   -2.0166 C   0  0  1  0  0  0  0  0  0  0  0  0
    7.7088   31.9191   -3.0159 O   0  0  0  0  0  0  0  0  0  0  0  0
    1.8176   39.2468   -3.4519 C   0  0  0  0  0  0  0  0  0  0  0  0
    2.9966   39.9091   -3.0232 O   0  0  0  0  0  0  0  0  0  0  0  0
   10.9182   32.9352   -0.2000 N   0  0  0  0  0  0  0  0  0  0  0  0
    3.9531   37.2051   -0.1992 N   0  0  0  0  0  0  0  0  0  0  0  0
  1  2  1  0  0  0  0
  1 39  1  0  0  0  0
  3  4  1  0  0  0  0
  5  6  1  0  0  0  0
  5 40  1  0  0  0  0
  9 10  1  1  0  0  0
  9 14  1  0  0  0  0
  9 35  1  0  0  0  0
 10  1  1  0  0  0  0
 11 16  1  0  0  0  0
 11 28  1  0  0  0  0
 11 26  1  6  0  0  0
 12 17  1  0  0  0  0
 12 34  1  0  0  0  0
 12 13  1  1  0  0  0
 14 15  1  1  0  0  0
 14 19  1  0  0  0  0
 16 13  1  1  0  0  0
 16 21  1  0  0  0  0
 17 18  1  1  0  0  0
 17 23  1  0  0  0  0
 18  8  1  0  0  0  0
 19 20  1  1  0  0  0
 19 25  1  0  0  0  0
 20  5  1  0  0  0  0
 21  3  1  6  0  0  0
 21 22  1  0  0  0  0
 21 27  1  0  0  0  0
 23 24  1  1  0  0  0
 23 29  1  0  0  0  0
 25 26  1  6  0  0  0
 25 31  1  0  0  0  0
 27  7  1  1  0  0  0
 27 28  1  0  0  0  0
 29 30  1  1  0  0  0
 29 33  1  0  0  0  0
 31 32  1  6  0  0  0
 31 35  1  0  0  0  0
 33 34  1  0  0  0  0
 33 37  1  6  0  0  0
 35 36  1  6  0  0  0
 37 38  1  0  0  0  0
M  END
>  <CHROM.1>
-136.10652868,-37.94257831,172.61618588,175.56687754,-177.48335785,-69.66284632
102.01819311,-82.21899015,-174.47949509,-120.10008077,66.84619809,3.20871918
35.16326734,-1.55183046,-0.33923631,-0.23790478,0.43824222

>  <Name>
1ntb_lig

>  <RI>
0

>  <Rbt.Current_Directory>
/home/itssahil/PROJECTS/Mol_Feturizer/New_Systems/rnas/1ntb

>  <Rbt.Executable>
rbdock ($Id: //depot/dev/client3/rdock/2013.1/src/exe/rbdock.cxx#4 $)

>  <Rbt.Library>
libRbt.so (2013.1, Build901 2013/11/27)

>  <Rbt.Parameter_File>
/export/apps/rDock/src/rDock_2013.1_src/data/scripts/dock_solv.prm

>  <Rbt.Receptor>
prm/pocket_docking_2.prm

>  <SCORE>
-17.0499

>  <SCORE.INTER>
-7.38572

>  <SCORE.INTER.CONST>
1

>  <SCORE.INTER.POLAR>
-0.729019

>  <SCORE.INTER.ROT>
11

>  <SCORE.INTER.SOLV>
22.6227

>  <SCORE.INTER.VDW>
-20.968

>  <SCORE.INTER.norm>
-0.184643

>  <SCORE.INTRA>
-9.67331

>  <SCORE.INTRA.DIHEDRAL>
-3.96663

>  <SCORE.INTRA.DIHEDRAL.0>
15.4453

>  <SCORE.INTRA.POLAR>
0

>  <SCORE.INTRA.POLAR.0>
0

>  <SCORE.INTRA.REPUL>
-0.823958

>  <SCORE.INTRA.REPUL.0>
0.823958

>  <SCORE.INTRA.SOLV>
1.09883

>  <SCORE.INTRA.SOLV.lig_0>
-99.3069

>  <SCORE.INTRA.VDW>
-4.11962

>  <SCORE.INTRA.VDW.0>
0.946495

>  <SCORE.INTRA.norm>
-0.241833

>  <SCORE.RESTR>
0.00913696

>  <SCORE.RESTR.CAVITY>
0.00913696

>  <SCORE.RESTR.norm>
0.000228424

>  <SCORE.SYSTEM>
0

>  <SCORE.SYSTEM.CONST>
0

>  <SCORE.SYSTEM.DIHEDRAL>
0

>  <SCORE.SYSTEM.SOLV>
0

>  <SCORE.SYSTEM.norm>
0

>  <SCORE.heavy>
40

>  <SCORE.norm>
-0.426247

>  <RMSD>
0.781

$$$$
1ntb_lig
 OpenBabel11021811403D
libRbt.so/2013.1/901 2013/11/27
 40 42  0  0  0  0  0  0  0  0999 V2000
    9.9495   32.9598   -1.7777 C   0  0  0  0  0  0  0  0  0  0  0  0
   10.4634   34.1095   -1.5673 N   0  0  0  0  0  0  0  0  0  0  0  0
   -0.6071   34.4631   -4.2460 C   0  0  0  0  0  0  0  0  0  0  0  0
    0.1637   34.6493   -5.4214 O   0  0  0  0  0  0  0  0  0  0  0  0
    4.5931   36.0585    0.2865 C   0  0  0  0  0  0  0  0  0  0  0  0
    4.0319   37.0726   -0.2692 N   0  0  0  0  0  0  0  0  0  0  0  0
    0.2605   31.4882   -3.2574 C   0  0  0  0  0  0  0  0  0  0  0  0
   -2.0403   35.6305    0.3009 C   0  0  0  0  0  0  0  0  0  0  0  0
    7.6519   33.4865   -1.6788 C   0  0  2  0  0  0  0  0  0  0  0  0
    8.8284   32.7087   -1.1293 N   0  0  0  0  0  0  0  0  0  0  0  0
    2.4887   34.0346   -2.3051 C   0  0  2  0  0  0  0  0  0  0  0  0
   -0.1925   36.4546   -1.9963 C   0  0  1  0  0  0  0  0  0  0  0  0
    0.9626   35.6941   -1.6935 O   0  0  0  0  0  0  0  0  0  0  0  0
    6.6410   33.7970   -0.5804 C   0  0  1  0  0  0  0  0  0  0  0  0
    7.4150   34.5589    0.4454 O   0  0  0  0  0  0  0  0  0  0  0  0
    1.3413   34.9264   -2.7433 C   0  0  2  0  0  0  0  0  0  0  0  0
   -0.5565   37.2833   -0.7882 C   0  0  1  0  0  0  0  0  0  0  0  0
   -0.8490   36.4312    0.3098 N   0  0  0  0  0  0  0  0  0  0  0  0
    5.4186   34.5561   -1.0924 C   0  0  2  0  0  0  0  0  0  0  0  0
    4.4272   34.8809   -0.0877 N   0  0  0  0  0  0  0  0  0  0  0  0
    0.2722   33.9408   -3.1339 C   0  0  1  0  0  0  0  0  0  0  0  0
   -0.5253   33.6069   -1.9930 O   0  0  0  0  0  0  0  0  0  0  0  0
    0.6332   38.1663   -0.4511 C   0  0  2  0  0  0  0  0  0  0  0  0
    0.3491   38.9581    0.6816 O   0  0  0  0  0  0  0  0  0  0  0  0
    4.7626   33.7175   -2.1585 C   0  0  1  0  0  0  0  0  0  0  0  0
    3.7356   34.5756   -2.7286 O   0  0  0  0  0  0  0  0  0  0  0  0
    1.0254   32.7444   -3.5852 C   0  0  1  0  0  0  0  0  0  0  0  0
    2.2775   32.7501   -2.8958 O   0  0  0  0  0  0  0  0  0  0  0  0
    0.8899   39.0526   -1.6701 C   0  0  1  0  0  0  0  0  0  0  0  0
    1.9975   39.9078   -1.4342 O   0  0  0  0  0  0  0  0  0  0  0  0
    5.7664   33.4358   -3.3089 C   0  0  2  0  0  0  0  0  0  0  0  0
    5.1250   32.6578   -4.3076 O   0  0  0  0  0  0  0  0  0  0  0  0
    1.1659   38.1613   -2.8814 C   0  0  1  0  0  0  0  0  0  0  0  0
    0.0517   37.3018   -3.1165 O   0  0  0  0  0  0  0  0  0  0  0  0
    6.9764   32.6599   -2.7540 C   0  0  1  0  0  0  0  0  0  0  0  0
    7.9130   32.3917   -3.8044 O   0  0  0  0  0  0  0  0  0  0  0  0
    1.3907   39.0465   -4.1075 C   0  0  0  0  0  0  0  0  0  0  0  0
    2.6023   39.7666   -3.9460 O   0  0  0  0  0  0  0  0  0  0  0  0
   10.4979   32.0894   -2.5506 N   0  0  0  0  0  0  0  0  0  0  0  0
    5.3939   36.2397    1.2205 N   0  0  0  0  0  0  0  0  0  0  0  0
  1  2  1  0  0  0  0
  1 39  1  0  0  0  0
  3  4  1  0  0  0  0
  5  6  1  0  0  0  0
  5 40  1  0  0  0  0
  9 10  1  1  0  0  0
  9 14  1  0  0  0  0
  9 35  1  0  0  0  0
 10  1  1  0  0  0  0
 11 16  1  0  0  0  0
 11 28  1  0  0  0  0
 11 26  1  6  0  0  0
 12 17  1  0  0  0  0
 12 34  1  0  0  0  0
 12 13  1  1  0  0  0
 14 15  1  1  0  0  0
 14 19  1  0  0  0  0
 16 13  1  1  0  0  0
 16 21  1  0  0  0  0
 17 18  1  1  0  0  0
 17 23  1  0  0  0  0
 18  8  1  0  0  0  0
 19 20  1  1  0  0  0
 19 25  1  0  0  0  0
 20  5  1  0  0  0  0
 21  3  1  6  0  0  0
 21 22  1  0  0  0  0
 21 27  1  0  0  0  0
 23 24  1  1  0  0  0
 23 29  1  0  0  0  0
 25 26  1  6  0  0  0
 25 31  1  0  0  0  0
 27  7  1  1  0  0  0
 27 28  1  0  0  0  0
 29 30  1  1  0  0  0
 29 33  1  0  0  0  0
 31 32  1  6  0  0  0
 31 35  1  0  0  0  0
 33 34  1  0  0  0  0
 33 37  1  6  0  0  0
 35 36  1  6  0  0  0
 37 38  1  0  0  0  0
M  END
>  <CHROM.1>
-149.29132810,72.07200971,174.99560308,-179.96536214,-174.10368538,-69.82537198
98.21053767,89.45303690,63.75032908,-109.57641868,67.74269554,3.27591858
35.17798755,-1.97649664,-0.36635162,-0.21993378,0.50488070

>  <Name>
1ntb_lig

>  <RI>
0

>  <Rbt.Current_Directory>
/home/itssahil/PROJECTS/Mol_Feturizer/New_Systems/rnas/1ntb

>  <Rbt.Executable>
rbdock ($Id: //depot/dev/client3/rdock/2013.1/src/exe/rbdock.cxx#4 $)

>  <Rbt.Library>
libRbt.so (2013.1, Build901 2013/11/27)

>  <Rbt.Parameter_File>
/export/apps/rDock/src/rDock_2013.1_src/data/scripts/dock_solv.prm

>  <Rbt.Receptor>
prm/pocket_docking_2.prm

>  <SCORE>
-19.7443

>  <SCORE.INTER>
-9.17903

>  <SCORE.INTER.CONST>
1

>  <SCORE.INTER.POLAR>
-0.919639

>  <SCORE.INTER.ROT>
11

>  <SCORE.INTER.SOLV>
21.9136

>  <SCORE.INTER.VDW>
-21.2918

>  <SCORE.INTER.norm>
-0.229476

>  <SCORE.INTRA>
-10.5846

>  <SCORE.INTRA.DIHEDRAL>
-5.09465

>  <SCORE.INTRA.DIHEDRAL.0>
15.4453

>  <SCORE.INTRA.POLAR>
0

>  <SCORE.INTRA.POLAR.0>
0

>  <SCORE.INTRA.REPUL>
-0.823958

>  <SCORE.INTRA.REPUL.0>
0.823958

>  <SCORE.INTRA.SOLV>
0.787426

>  <SCORE.INTRA.SOLV.lig_0>
-99.3069

>  <SCORE.INTRA.VDW>
-4.31119

>  <SCORE.INTRA.VDW.0>
0.946495

>  <SCORE.INTRA.norm>
-0.264615

>  <SCORE.RESTR>
0.0192648

>  <SCORE.RESTR.CAVITY>
0.0192648

>  <SCORE.RESTR.norm>
0.000481621

>  <SCORE.SYSTEM>
0

>  <SCORE.SYSTEM.CONST>
0

>  <SCORE.SYSTEM.DIHEDRAL>
0

>  <SCORE.SYSTEM.SOLV>
0

>  <SCORE.SYSTEM.norm>
0

>  <SCORE.heavy>
40

>  <SCORE.norm>
-0.493609

>  <RMSD>
0.793

$$$$
1ntb_lig
 OpenBabel11021811403D
libRbt.so/2013.1/901 2013/11/27
 40 42  0  0  0  0  0  0  0  0999 V2000
   10.0163   32.9111   -1.6195 C   0  0  0  0  0  0  0  0  0  0  0  0
   10.4482   34.1094   -1.5313 N   0  0  0  0  0  0  0  0  0  0  0  0
   -0.5565   34.5268   -4.2076 C   0  0  0  0  0  0  0  0  0  0  0  0
    0.2064   34.7449   -5.3827 O   0  0  0  0  0  0  0  0  0  0  0  0
    4.6805   35.9351    0.3354 C   0  0  0  0  0  0  0  0  0  0  0  0
    4.4343   37.0617   -0.2323 N   0  0  0  0  0  0  0  0  0  0  0  0
    0.2022   31.5416   -3.1622 C   0  0  0  0  0  0  0  0  0  0  0  0
   -2.0162   35.7829    0.2012 C   0  0  0  0  0  0  0  0  0  0  0  0
    7.7147   33.4291   -1.6146 C   0  0  2  0  0  0  0  0  0  0  0  0
    8.8739   32.6697   -1.0058 N   0  0  0  0  0  0  0  0  0  0  0  0
    2.5792   34.0025   -2.3565 C   0  0  2  0  0  0  0  0  0  0  0  0
    0.0403   36.5714   -2.0387 C   0  0  1  0  0  0  0  0  0  0  0  0
    1.1549   35.7498   -1.7440 O   0  0  0  0  0  0  0  0  0  0  0  0
    6.6595   33.7517   -0.5622 C   0  0  1  0  0  0  0  0  0  0  0  0
    7.3879   34.5372    0.4791 O   0  0  0  0  0  0  0  0  0  0  0  0
    1.4613   34.9364   -2.7829 C   0  0  2  0  0  0  0  0  0  0  0  0
   -0.3515   37.3218   -0.7890 C   0  0  1  0  0  0  0  0  0  0  0  0
   -0.7217   36.4025    0.2284 N   0  0  0  0  0  0  0  0  0  0  0  0
    5.4531   34.4927   -1.1350 C   0  0  2  0  0  0  0  0  0  0  0  0
    4.4212   34.8281   -0.1758 N   0  0  0  0  0  0  0  0  0  0  0  0
    0.3341   33.9933   -3.1099 C   0  0  1  0  0  0  0  0  0  0  0  0
   -0.4394   33.7295   -1.9346 O   0  0  0  0  0  0  0  0  0  0  0  0
    0.8495   38.1345   -0.3355 C   0  0  2  0  0  0  0  0  0  0  0  0
    0.5397   38.8508    0.8399 O   0  0  0  0  0  0  0  0  0  0  0  0
    4.8449   33.6305   -2.2106 C   0  0  1  0  0  0  0  0  0  0  0  0
    3.8354   34.4709   -2.8357 O   0  0  0  0  0  0  0  0  0  0  0  0
    1.0141   32.7500   -3.5507 C   0  0  1  0  0  0  0  0  0  0  0  0
    2.2877   32.7141   -2.9027 O   0  0  0  0  0  0  0  0  0  0  0  0
    1.1906   39.0980   -1.4725 C   0  0  1  0  0  0  0  0  0  0  0  0
    2.3135   39.8933   -1.1255 O   0  0  0  0  0  0  0  0  0  0  0  0
    5.8947   33.3359   -3.3158 C   0  0  2  0  0  0  0  0  0  0  0  0
    5.2980   32.5356   -4.3245 O   0  0  0  0  0  0  0  0  0  0  0  0
    1.4927   38.2886   -2.7340 C   0  0  1  0  0  0  0  0  0  0  0  0
    0.3631   37.4891   -3.0808 O   0  0  0  0  0  0  0  0  0  0  0  0
    7.0872   32.5786   -2.7003 C   0  0  1  0  0  0  0  0  0  0  0  0
    8.0659   32.2987   -3.7083 O   0  0  0  0  0  0  0  0  0  0  0  0
    1.8022   39.2526   -3.8795 C   0  0  0  0  0  0  0  0  0  0  0  0
    0.6991   40.1251   -4.0649 O   0  0  0  0  0  0  0  0  0  0  0  0
   10.6615   31.9889   -2.2433 N   0  0  0  0  0  0  0  0  0  0  0  0
    5.2586   35.9198    1.4363 N   0  0  0  0  0  0  0  0  0  0  0  0
  1  2  1  0  0  0  0
  1 39  1  0  0  0  0
  3  4  1  0  0  0  0
  5  6  1  0  0  0  0
  5 40  1  0  0  0  0
  9 10  1  1  0  0  0
  9 14  1  0  0  0  0
  9 35  1  0  0  0  0
 10  1  1  0  0  0  0
 11 16  1  0  0  0  0
 11 28  1  0  0  0  0
 11 26  1  6  0  0  0
 12 17  1  0  0  0  0
 12 34  1  0  0  0  0
 12 13  1  1  0  0  0
 14 15  1  1  0  0  0
 14 19  1  0  0  0  0
 16 13  1  1  0  0  0
 16 21  1  0  0  0  0
 17 18  1  1  0  0  0
 17 23  1  0  0  0  0
 18  8  1  0  0  0  0
 19 20  1  1  0  0  0
 19 25  1  0  0  0  0
 20  5  1  0  0  0  0
 21  3  1  6  0  0  0
 21 22  1  0  0  0  0
 21 27  1  0  0  0  0
 23 24  1  1  0  0  0
 23 29  1  0  0  0  0
 25 26  1  6  0  0  0
 25 31  1  0  0  0  0
 27  7  1  1  0  0  0
 27 28  1  0  0  0  0
 29 30  1  1  0  0  0
 29 33  1  0  0  0  0
 31 32  1  6  0  0  0
 31 35  1  0  0  0  0
 33 34  1  0  0  0  0
 33 37  1  6  0  0  0
 35 36  1  6  0  0  0
 37 38  1  0  0  0  0
M  END
>  <CHROM.1>
-149.68192455,65.11710663,171.64670192,173.01583443,-175.01664647,-78.23820420
88.14500223,79.97719187,59.09011398,-104.53094106,-57.66808580,3.33952717
35.17913276,-1.93010444,-0.37980825,-0.25232949,0.51747113

>  <Name>
1ntb_lig

>  <RI>
0

>  <Rbt.Current_Directory>
/home/itssahil/PROJECTS/Mol_Feturizer/New_Systems/rnas/1ntb

>  <Rbt.Executable>
rbdock ($Id: //depot/dev/client3/rdock/2013.1/src/exe/rbdock.cxx#4 $)

>  <Rbt.Library>
libRbt.so (2013.1, Build901 2013/11/27)

>  <Rbt.Parameter_File>
/export/apps/rDock/src/rDock_2013.1_src/data/scripts/dock_solv.prm

>  <Rbt.Receptor>
prm/pocket_docking_2.prm

>  <SCORE>
-21.0704

>  <SCORE.INTER>
-9.66378

>  <SCORE.INTER.CONST>
1

>  <SCORE.INTER.POLAR>
-0.986925

>  <SCORE.INTER.ROT>
11

>  <SCORE.INTER.SOLV>
22.6786

>  <SCORE.INTER.VDW>
-21.6456

>  <SCORE.INTER.norm>
-0.241594

>  <SCORE.INTRA>
-11.416

>  <SCORE.INTRA.DIHEDRAL>
-5.60897

>  <SCORE.INTRA.DIHEDRAL.0>
15.4453

>  <SCORE.INTRA.POLAR>
0

>  <SCORE.INTRA.POLAR.0>
0

>  <SCORE.INTRA.REPUL>
-0.823958

>  <SCORE.INTRA.REPUL.0>
0.823958

>  <SCORE.INTRA.SOLV>
0.64466

>  <SCORE.INTRA.SOLV.lig_0>
-99.3069

>  <SCORE.INTRA.VDW>
-4.81404

>  <SCORE.INTRA.VDW.0>
0.946495

>  <SCORE.INTRA.norm>
-0.2854

>  <SCORE.RESTR>
0.00939883

>  <SCORE.RESTR.CAVITY>
0.00939883

>  <SCORE.RESTR.norm>
0.000234971

>  <SCORE.SYSTEM>
0

>  <SCORE.SYSTEM.CONST>
0

>  <SCORE.SYSTEM.DIHEDRAL>
0

>  <SCORE.SYSTEM.SOLV>
0

>  <SCORE.SYSTEM.norm>
0

>  <SCORE.heavy>
40

>  <SCORE.norm>
-0.526759

>  <RMSD>
0.794

$$$$
1ntb_lig
 OpenBabel11021811403D
libRbt.so/2013.1/901 2013/11/27
 40 42  0  0  0  0  0  0  0  0999 V2000
    9.9371   32.9499   -1.5221 C   0  0  0  0  0  0  0  0  0  0  0  0
   10.4717   34.1094   -1.5233 N   0  0  0  0  0  0  0  0  0  0  0  0
   -0.5657   34.5877   -3.8482 C   0  0  0  0  0  0  0  0  0  0  0  0
   -1.6111   35.3601   -3.2816 O   0  0  0  0  0  0  0  0  0  0  0  0
    5.1654   36.5665    0.6109 C   0  0  0  0  0  0  0  0  0  0  0  0
    5.2519   37.5758   -0.1804 N   0  0  0  0  0  0  0  0  0  0  0  0
    0.3811   31.5768   -3.0621 C   0  0  0  0  0  0  0  0  0  0  0  0
   -0.8997   35.0660    0.9748 C   0  0  0  0  0  0  0  0  0  0  0  0
    7.6680   33.5704   -1.3433 C   0  0  2  0  0  0  0  0  0  0  0  0
    8.8554   32.8212   -0.7780 N   0  0  0  0  0  0  0  0  0  0  0  0
    2.4841   34.1169   -1.8454 C   0  0  2  0  0  0  0  0  0  0  0  0
    0.0214   36.7382   -1.5147 C   0  0  1  0  0  0  0  0  0  0  0  0
    0.8801   35.6704   -1.1590 O   0  0  0  0  0  0  0  0  0  0  0  0
    6.8018   34.1440   -0.2272 C   0  0  1  0  0  0  0  0  0  0  0  0
    7.7230   35.0197    0.5580 O   0  0  0  0  0  0  0  0  0  0  0  0
    1.3183   35.0000   -2.2515 C   0  0  2  0  0  0  0  0  0  0  0  0
   -0.7257   37.1891   -0.2831 C   0  0  1  0  0  0  0  0  0  0  0  0
   -1.5148   36.1204    0.2195 N   0  0  0  0  0  0  0  0  0  0  0  0
    5.5719   34.8848   -0.7480 C   0  0  2  0  0  0  0  0  0  0  0  0
    4.7157   35.4544    0.2719 N   0  0  0  0  0  0  0  0  0  0  0  0
    0.2984   34.0114   -2.7511 C   0  0  1  0  0  0  0  0  0  0  0  0
   -0.5201   33.5626   -1.6658 O   0  0  0  0  0  0  0  0  0  0  0  0
    0.2985   37.6062    0.7588 C   0  0  2  0  0  0  0  0  0  0  0  0
   -0.3487   38.0290    1.9390 O   0  0  0  0  0  0  0  0  0  0  0  0
    4.7595   33.9182   -1.5700 C   0  0  1  0  0  0  0  0  0  0  0  0
    3.7223   34.7319   -2.1852 O   0  0  0  0  0  0  0  0  0  0  0  0
    1.1085   32.8803   -3.2677 C   0  0  1  0  0  0  0  0  0  0  0  0
    2.3383   32.8756   -2.5392 O   0  0  0  0  0  0  0  0  0  0  0  0
    1.1072   38.7541    0.1540 C   0  0  1  0  0  0  0  0  0  0  0  0
    2.0955   39.1982    1.0704 O   0  0  0  0  0  0  0  0  0  0  0  0
    5.6143   33.3641   -2.7416 C   0  0  2  0  0  0  0  0  0  0  0  0
    4.8270   32.4680   -3.5104 O   0  0  0  0  0  0  0  0  0  0  0  0
    1.7700   38.2678   -1.1352 C   0  0  1  0  0  0  0  0  0  0  0  0
    0.7751   37.8211   -2.0548 O   0  0  0  0  0  0  0  0  0  0  0  0
    6.8358   32.6153   -2.1746 C   0  0  1  0  0  0  0  0  0  0  0  0
    7.6357   32.0971   -3.2442 O   0  0  0  0  0  0  0  0  0  0  0  0
    2.5525   39.4246   -1.7574 C   0  0  0  0  0  0  0  0  0  0  0  0
    1.6504   40.4616   -2.1082 O   0  0  0  0  0  0  0  0  0  0  0  0
   10.4310   31.9613   -2.1811 N   0  0  0  0  0  0  0  0  0  0  0  0
    5.5973   36.6632    1.7731 N   0  0  0  0  0  0  0  0  0  0  0  0
  1  2  1  0  0  0  0
  1 39  1  0  0  0  0
  3  4  1  0  0  0  0
  5  6  1  0  0  0  0
  5 40  1  0  0  0  0
  9 10  1  1  0  0  0
  9 14  1  0  0  0  0
  9 35  1  0  0  0  0
 10  1  1  0  0  0  0
 11 16  1  0  0  0  0
 11 28  1  0  0  0  0
 11 26  1  6  0  0  0
 12 17  1  0  0  0  0
 12 34  1  0  0  0  0
 12 13  1  1  0  0  0
 14 15  1  6  0  0  0
 14 19  1  0  0  0  0
 16 13  1  1  0  0  0
 16 21  1  0  0  0  0
 17 18  1  1  0  0  0
 17 23  1  0  0  0  0
 18  8  1  0  0  0  0
 19 20  1  1  0  0  0
 19 25  1  0  0  0  0
 20  5  1  0  0  0  0
 21  3  1  6  0  0  0
 21 22  1  0  0  0  0
 21 27  1  0  0  0  0
 23 24  1  1  0  0  0
 23 29  1  0  0  0  0
 25 26  1  6  0  0  0
 25 31  1  0  0  0  0
 27  7  1  1  0  0  0
 27 28  1  0  0  0  0
 29 30  1  1  0  0  0
 29 33  1  0  0  0  0
 31 32  1  1  0  0  0
 31 35  1  0  0  0  0
 33 34  1  0  0  0  0
 33 37  1  6  0  0  0
 35 36  1  6  0  0  0
 37 38  1  0  0  0  0
M  END
>  <CHROM.1>
-144.79080002,69.78750157,171.15401379,164.32406418,165.82189622,77.80846461
83.89167722,63.65885563,-82.13967850,-125.91188287,-62.96666126,3.30994293
35.24615827,-1.25986271,-0.37591585,-0.15390125,0.53739336

>  <Name>
1ntb_lig

>  <RI>
0

>  <Rbt.Current_Directory>
/home/itssahil/PROJECTS/Mol_Feturizer/New_Systems/rnas/1ntb

>  <Rbt.Executable>
rbdock ($Id: //depot/dev/client3/rdock/2013.1/src/exe/rbdock.cxx#4 $)

>  <Rbt.Library>
libRbt.so (2013.1, Build901 2013/11/27)

>  <Rbt.Parameter_File>
/export/apps/rDock/src/rDock_2013.1_src/data/scripts/dock_solv.prm

>  <Rbt.Receptor>
prm/pocket_docking_2.prm

>  <SCORE>
-14.212

>  <SCORE.INTER>
-6.90646

>  <SCORE.INTER.CONST>
1

>  <SCORE.INTER.POLAR>
-1.25344

>  <SCORE.INTER.ROT>
11

>  <SCORE.INTER.SOLV>
23.2056

>  <SCORE.INTER.VDW>
-19.0947

>  <SCORE.INTER.norm>
-0.172662

>  <SCORE.INTRA>
-7.31493

>  <SCORE.INTRA.DIHEDRAL>
-1.60731

>  <SCORE.INTRA.DIHEDRAL.0>
15.4453

>  <SCORE.INTRA.POLAR>
0

>  <SCORE.INTRA.POLAR.0>
0

>  <SCORE.INTRA.REPUL>
-0.802817

>  <SCORE.INTRA.REPUL.0>
0.823958

>  <SCORE.INTRA.SOLV>
0.840116

>  <SCORE.INTRA.SOLV.lig_0>
-99.3069

>  <SCORE.INTRA.VDW>
-2.91724

>  <SCORE.INTRA.VDW.0>
0.946495

>  <SCORE.INTRA.norm>
-0.182873

>  <SCORE.RESTR>
0.0093724

>  <SCORE.RESTR.CAVITY>
0.0093724

>  <SCORE.RESTR.norm>
0.00023431

>  <SCORE.SYSTEM>
0

>  <SCORE.SYSTEM.CONST>
0

>  <SCORE.SYSTEM.DIHEDRAL>
0

>  <SCORE.SYSTEM.SOLV>
0

>  <SCORE.SYSTEM.norm>
0

>  <SCORE.heavy>
40

>  <SCORE.norm>
-0.3553

>  <RMSD>
0.802

$$$$
1ntb_lig
 OpenBabel11021811403D
libRbt.so/2013.1/901 2013/11/27
 40 42  0  0  0  0  0  0  0  0999 V2000
    9.9822   32.9022   -1.4932 C   0  0  0  0  0  0  0  0  0  0  0  0
   10.4061   34.1064   -1.5148 N   0  0  0  0  0  0  0  0  0  0  0  0
   -0.5112   34.4497   -4.3509 C   0  0  0  0  0  0  0  0  0  0  0  0
    0.2913   34.6548   -5.5017 O   0  0  0  0  0  0  0  0  0  0  0  0
    4.6416   35.9894    0.3263 C   0  0  0  0  0  0  0  0  0  0  0  0
    4.4764   37.1300   -0.2428 N   0  0  0  0  0  0  0  0  0  0  0  0
    0.2164   31.5426   -3.0862 C   0  0  0  0  0  0  0  0  0  0  0  0
   -2.2922   35.8657   -0.3834 C   0  0  0  0  0  0  0  0  0  0  0  0
    7.6907   33.4619   -1.5315 C   0  0  2  0  0  0  0  0  0  0  0  0
    8.8315   32.7134   -0.8764 N   0  0  0  0  0  0  0  0  0  0  0  0
    2.5794   34.0515   -2.3953 C   0  0  2  0  0  0  0  0  0  0  0  0
    0.0801   36.6798   -2.3381 C   0  0  1  0  0  0  0  0  0  0  0  0
    1.1449   35.8375   -1.9373 O   0  0  0  0  0  0  0  0  0  0  0  0
    6.6093   33.8094   -0.5143 C   0  0  1  0  0  0  0  0  0  0  0  0
    7.3123   34.6157    0.5285 O   0  0  0  0  0  0  0  0  0  0  0  0
    1.4737   34.9547   -2.9107 C   0  0  2  0  0  0  0  0  0  0  0  0
   -0.4737   37.3738   -1.1174 C   0  0  1  0  0  0  0  0  0  0  0  0
   -0.9766   36.4105   -0.2027 N   0  0  0  0  0  0  0  0  0  0  0  0
    5.4203   34.5404   -1.1343 C   0  0  2  0  0  0  0  0  0  0  0  0
    4.3645   34.8987   -0.2098 N   0  0  0  0  0  0  0  0  0  0  0  0
    0.3524   33.9920   -3.1987 C   0  0  1  0  0  0  0  0  0  0  0  0
   -0.4489   33.8097   -2.0266 O   0  0  0  0  0  0  0  0  0  0  0  0
    0.6571   38.1558   -0.4705 C   0  0  2  0  0  0  0  0  0  0  0  0
    0.1944   38.8185    0.6859 O   0  0  0  0  0  0  0  0  0  0  0  0
    4.8380   33.6565   -2.2066 C   0  0  1  0  0  0  0  0  0  0  0  0
    3.8473   34.4853   -2.8759 O   0  0  0  0  0  0  0  0  0  0  0  0
    1.0398   32.7211   -3.5374 C   0  0  1  0  0  0  0  0  0  0  0  0
    2.2978   32.7289   -2.8588 O   0  0  0  0  0  0  0  0  0  0  0  0
    1.1470   39.1689   -1.5054 C   0  0  1  0  0  0  0  0  0  0  0  0
    2.2145   39.9391   -0.9752 O   0  0  0  0  0  0  0  0  0  0  0  0
    5.9155   33.3357   -3.2773 C   0  0  2  0  0  0  0  0  0  0  0  0
    5.3431   32.5151   -4.2839 O   0  0  0  0  0  0  0  0  0  0  0  0
    1.6134   38.4173   -2.7525 C   0  0  1  0  0  0  0  0  0  0  0  0
    0.5393   37.6430   -3.2835 O   0  0  0  0  0  0  0  0  0  0  0  0
    7.0894   32.5895   -2.6147 C   0  0  1  0  0  0  0  0  0  0  0  0
    8.0933   32.2857   -3.5905 O   0  0  0  0  0  0  0  0  0  0  0  0
    2.0732   39.4317   -3.7999 C   0  0  0  0  0  0  0  0  0  0  0  0
    1.0223   40.3510   -4.0506 O   0  0  0  0  0  0  0  0  0  0  0  0
   10.6422   31.9286   -2.0148 N   0  0  0  0  0  0  0  0  0  0  0  0
    5.1552   35.9405    1.4579 N   0  0  0  0  0  0  0  0  0  0  0  0
  1  2  1  0  0  0  0
  1 39  1  0  0  0  0
  3  4  1  0  0  0  0
  5  6  1  0  0  0  0
  5 40  1  0  0  0  0
  9 10  1  1  0  0  0
  9 14  1  0  0  0  0
  9 35  1  0  0  0  0
 10  1  1  0  0  0  0
 11 16  1  0  0  0  0
 11 28  1  0  0  0  0
 11 26  1  6  0  0  0
 12 17  1  0  0  0  0
 12 34  1  0  0  0  0
 12 13  1  1  0  0  0
 14 15  1  1  0  0  0
 14 19  1  0  0  0  0
 16 13  1  1  0  0  0
 16 21  1  0  0  0  0
 17 18  1  1  0  0  0
 17 23  1  0  0  0  0
 18  8  1  0  0  0  0
 19 20  1  1  0  0  0
 19 25  1  0  0  0  0
 20  5  1  0  0  0  0
 21  3  1  6  0  0  0
 21 22  1  0  0  0  0
 21 27  1  0  0  0  0
 23 24  1  1  0  0  0
 23 29  1  0  0  0  0
 25 26  1  6  0  0  0
 25 31  1  0  0  0  0
 27  7  1  1  0  0  0
 27 28  1  0  0  0  0
 29 30  1  1  0  0  0
 29 33  1  0  0  0  0
 31 32  1  6  0  0  0
 31 35  1  0  0  0  0
 33 34  1  0  0  0  0
 33 37  1  6  0  0  0
 35 36  1  6  0  0  0
 37 38  1  0  0  0  0
M  END
>  <CHROM.1>
-151.88883632,62.08160225,173.62095764,165.26286794,-177.78614309,-82.24983004
85.34956050,78.75864691,56.00664446,-103.16965684,-55.43931247,3.32556352
35.21748132,-1.97332879,-0.38437352,-0.25844974,0.47161381

>  <Name>
1ntb_lig

>  <RI>
0

>  <Rbt.Current_Directory>
/home/itssahil/PROJECTS/Mol_Feturizer/New_Systems/rnas/1ntb

>  <Rbt.Executable>
rbdock ($Id: //depot/dev/client3/rdock/2013.1/src/exe/rbdock.cxx#4 $)

>  <Rbt.Library>
libRbt.so (2013.1, Build901 2013/11/27)

>  <Rbt.Parameter_File>
/export/apps/rDock/src/rDock_2013.1_src/data/scripts/dock_solv.prm

>  <Rbt.Receptor>
prm/pocket_docking_2.prm

>  <SCORE>
-21.0813

>  <SCORE.INTER>
-9.80996

>  <SCORE.INTER.CONST>
1

>  <SCORE.INTER.POLAR>
-0.950277

>  <SCORE.INTER.ROT>
11

>  <SCORE.INTER.SOLV>
23.2916

>  <SCORE.INTER.VDW>
-22.0696

>  <SCORE.INTER.norm>
-0.245249

>  <SCORE.INTRA>
-11.2777

>  <SCORE.INTRA.DIHEDRAL>
-5.22244

>  <SCORE.INTRA.DIHEDRAL.0>
15.4453

>  <SCORE.INTRA.POLAR>
0

>  <SCORE.INTRA.POLAR.0>
0

>  <SCORE.INTRA.REPUL>
-0.823958

>  <SCORE.INTRA.REPUL.0>
0.823958

>  <SCORE.INTRA.SOLV>
0.534446

>  <SCORE.INTRA.SOLV.lig_0>
-99.3069

>  <SCORE.INTRA.VDW>
-4.81392

>  <SCORE.INTRA.VDW.0>
0.946495

>  <SCORE.INTRA.norm>
-0.281943

>  <SCORE.RESTR>
0.00638559

>  <SCORE.RESTR.CAVITY>
0.00638559

>  <SCORE.RESTR.norm>
0.00015964

>  <SCORE.SYSTEM>
0

>  <SCORE.SYSTEM.CONST>
0

>  <SCORE.SYSTEM.DIHEDRAL>
0

>  <SCORE.SYSTEM.SOLV>
0

>  <SCORE.SYSTEM.norm>
0

>  <SCORE.heavy>
40

>  <SCORE.norm>
-0.527032

>  <RMSD>
0.804

$$$$
1ntb_lig
 OpenBabel11021811403D
libRbt.so/2013.1/901 2013/11/27
 40 42  0  0  0  0  0  0  0  0999 V2000
    9.8513   32.8025   -1.0067 C   0  0  0  0  0  0  0  0  0  0  0  0
    9.9452   32.8671   -2.2784 N   0  0  0  0  0  0  0  0  0  0  0  0
   -0.2335   34.9075   -4.5781 C   0  0  0  0  0  0  0  0  0  0  0  0
   -1.1216   33.9903   -5.1948 O   0  0  0  0  0  0  0  0  0  0  0  0
    5.0305   36.4905    0.5654 C   0  0  0  0  0  0  0  0  0  0  0  0
    5.0069   37.5495   -0.1626 N   0  0  0  0  0  0  0  0  0  0  0  0
    0.4992   31.8264   -3.8367 C   0  0  0  0  0  0  0  0  0  0  0  0
   -2.5491   35.8247   -0.1389 C   0  0  0  0  0  0  0  0  0  0  0  0
    7.5688   33.3711   -1.1876 C   0  0  2  0  0  0  0  0  0  0  0  0
    8.6485   32.5338   -0.5363 N   0  0  0  0  0  0  0  0  0  0  0  0
    2.5084   34.2178   -2.2242 C   0  0  2  0  0  0  0  0  0  0  0  0
   -0.1770   36.6508   -2.0701 C   0  0  1  0  0  0  0  0  0  0  0  0
    0.8814   35.8000   -1.6704 O   0  0  0  0  0  0  0  0  0  0  0  0
    6.6312   33.9639   -0.1414 C   0  0  1  0  0  0  0  0  0  0  0  0
    7.5196   34.7576    0.7601 O   0  0  0  0  0  0  0  0  0  0  0  0
    1.4367   35.1658   -2.7307 C   0  0  2  0  0  0  0  0  0  0  0  0
   -0.7293   37.3431   -0.8477 C   0  0  1  0  0  0  0  0  0  0  0  0
   -1.2405   36.3793    0.0617 N   0  0  0  0  0  0  0  0  0  0  0  0
    5.5044   34.7941   -0.7526 C   0  0  2  0  0  0  0  0  0  0  0  0
    4.5861   35.3851    0.1987 N   0  0  0  0  0  0  0  0  0  0  0  0
    0.4587   34.2445   -3.4102 C   0  0  1  0  0  0  0  0  0  0  0  0
   -0.5103   33.7775   -2.4657 O   0  0  0  0  0  0  0  0  0  0  0  0
    0.4050   38.1151   -0.1949 C   0  0  2  0  0  0  0  0  0  0  0  0
   -0.0561   38.7759    0.9633 O   0  0  0  0  0  0  0  0  0  0  0  0
    4.7224   33.9040   -1.6834 C   0  0  1  0  0  0  0  0  0  0  0  0
    3.8007   34.7978   -2.3674 O   0  0  0  0  0  0  0  0  0  0  0  0
    1.2910   33.1077   -3.8766 C   0  0  1  0  0  0  0  0  0  0  0  0
    2.4134   33.0183   -2.9959 O   0  0  0  0  0  0  0  0  0  0  0  0
    0.9039   39.1295   -1.2242 C   0  0  1  0  0  0  0  0  0  0  0  0
    1.9750   39.8905   -0.6883 O   0  0  0  0  0  0  0  0  0  0  0  0
    5.6553   33.3330   -2.7852 C   0  0  2  0  0  0  0  0  0  0  0  0
    4.8970   32.5101   -3.6580 O   0  0  0  0  0  0  0  0  0  0  0  0
    1.3684   38.3802   -2.4735 C   0  0  1  0  0  0  0  0  0  0  0  0
    0.2906   37.6150   -3.0103 O   0  0  0  0  0  0  0  0  0  0  0  0
    6.7687   32.4939   -2.1290 C   0  0  1  0  0  0  0  0  0  0  0  0
    7.6390   31.9591   -3.1334 O   0  0  0  0  0  0  0  0  0  0  0  0
    1.8372   39.3960   -3.5155 C   0  0  0  0  0  0  0  0  0  0  0  0
    3.0091   40.0407   -3.0429 O   0  0  0  0  0  0  0  0  0  0  0  0
   10.8551   33.0103   -0.2289 N   0  0  0  0  0  0  0  0  0  0  0  0
    5.5702   36.5314    1.6851 N   0  0  0  0  0  0  0  0  0  0  0  0
  1  2  1  0  0  0  0
  1 39  1  0  0  0  0
  3  4  1  0  0  0  0
  5  6  1  0  0  0  0
  5 40  1  0  0  0  0
  9 10  1  1  0  0  0
  9 14  1  0  0  0  0
  9 35  1  0  0  0  0
 10  1  1  0  0  0  0
 11 16  1  0  0  0  0
 11 28  1  0  0  0  0
 11 26  1  6  0  0  0
 12 17  1  0  0  0  0
 12 34  1  0  0  0  0
 12 13  1  1  0  0  0
 14 15  1  1  0  0  0
 14 19  1  0  0  0  0
 16 13  1  1  0  0  0
 16 21  1  0  0  0  0
 17 18  1  1  0  0  0
 17 23  1  0  0  0  0
 18  8  1  0  0  0  0
 19 20  1  1  0  0  0
 19 25  1  0  0  0  0
 20  5  1  0  0  0  0
 21  3  1  6  0  0  0
 21 22  1  0  0  0  0
 21 27  1  0  0  0  0
 23 24  1  1  0  0  0
 23 29  1  0  0  0  0
 25 26  1  6  0  0  0
 25 31  1  0  0  0  0
 27  7  1  1  0  0  0
 27 28  1  0  0  0  0
 29 30  1  1  0  0  0
 29 33  1  0  0  0  0
 31 32  1  6  0  0  0
 31 35  1  0  0  0  0
 33 34  1  0  0  0  0
 33 37  1  6  0  0  0
 35 36  1  6  0  0  0
 37 38  1  0  0  0  0
M  END
>  <CHROM.1>
-133.04765313,-46.75834482,171.96010383,-178.88681568,-176.94645178,-81.05015349
87.37267360,74.64511439,178.90473790,-128.53494342,66.90849288,3.27400115
35.27962680,-1.72098730,-0.30836688,-0.29643172,0.53526219

>  <Name>
1ntb_lig

>  <RI>
0

>  <Rbt.Current_Directory>
/home/itssahil/PROJECTS/Mol_Feturizer/New_Systems/rnas/1ntb

>  <Rbt.Executable>
rbdock ($Id: //depot/dev/client3/rdock/2013.1/src/exe/rbdock.cxx#4 $)

>  <Rbt.Library>
libRbt.so (2013.1, Build901 2013/11/27)

>  <Rbt.Parameter_File>
/export/apps/rDock/src/rDock_2013.1_src/data/scripts/dock_solv.prm

>  <Rbt.Receptor>
prm/pocket_docking_2.prm

>  <SCORE>
-17.3029

>  <SCORE.INTER>
-6.68081

>  <SCORE.INTER.CONST>
1

>  <SCORE.INTER.POLAR>
-0.609443

>  <SCORE.INTER.ROT>
11

>  <SCORE.INTER.SOLV>
24.9996

>  <SCORE.INTER.VDW>
-21.6889

>  <SCORE.INTER.norm>
-0.16702

>  <SCORE.INTRA>
-10.6221

>  <SCORE.INTRA.DIHEDRAL>
-4.52288

>  <SCORE.INTRA.DIHEDRAL.0>
15.4453

>  <SCORE.INTRA.POLAR>
0

>  <SCORE.INTRA.POLAR.0>
0

>  <SCORE.INTRA.REPUL>
-0.795294

>  <SCORE.INTRA.REPUL.0>
0.823958

>  <SCORE.INTRA.SOLV>
-1.87366

>  <SCORE.INTRA.SOLV.lig_0>
-99.3069

>  <SCORE.INTRA.VDW>
-3.44736

>  <SCORE.INTRA.VDW.0>
0.946495

>  <SCORE.INTRA.norm>
-0.265552

>  <SCORE.RESTR>
0

>  <SCORE.RESTR.CAVITY>
0

>  <SCORE.RESTR.norm>
0

>  <SCORE.SYSTEM>
0

>  <SCORE.SYSTEM.CONST>
0

>  <SCORE.SYSTEM.DIHEDRAL>
0

>  <SCORE.SYSTEM.SOLV>
0

>  <SCORE.SYSTEM.norm>
0

>  <SCORE.heavy>
40

>  <SCORE.norm>
-0.432573

>  <RMSD>
0.812

$$$$
1ntb_lig
 OpenBabel11021811403D
libRbt.so/2013.1/901 2013/11/27
 40 42  0  0  0  0  0  0  0  0999 V2000
    9.9953   32.9351   -1.4504 C   0  0  0  0  0  0  0  0  0  0  0  0
   10.6521   31.8858   -1.7628 N   0  0  0  0  0  0  0  0  0  0  0  0
   -0.5095   34.4520   -4.3170 C   0  0  0  0  0  0  0  0  0  0  0  0
    0.2776   34.5714   -5.4902 O   0  0  0  0  0  0  0  0  0  0  0  0
    4.6579   36.0159    0.3283 C   0  0  0  0  0  0  0  0  0  0  0  0
    4.4876   37.1569   -0.2384 N   0  0  0  0  0  0  0  0  0  0  0  0
    0.2070   31.5685   -2.9933 C   0  0  0  0  0  0  0  0  0  0  0  0
   -2.3290   36.0300   -0.2697 C   0  0  0  0  0  0  0  0  0  0  0  0
    7.6989   33.4720   -1.5141 C   0  0  2  0  0  0  0  0  0  0  0  0
    8.8380   32.7268   -0.8523 N   0  0  0  0  0  0  0  0  0  0  0  0
    2.5901   34.0763   -2.3712 C   0  0  2  0  0  0  0  0  0  0  0  0
    0.0962   36.7098   -2.3497 C   0  0  1  0  0  0  0  0  0  0  0  0
    1.1699   35.8812   -1.9439 O   0  0  0  0  0  0  0  0  0  0  0  0
    6.6177   33.8298   -0.5002 C   0  0  1  0  0  0  0  0  0  0  0  0
    7.3217   34.6435    0.5362 O   0  0  0  0  0  0  0  0  0  0  0  0
    1.4872   34.9753   -2.8997 C   0  0  2  0  0  0  0  0  0  0  0  0
   -0.4637   37.4065   -1.1333 C   0  0  1  0  0  0  0  0  0  0  0  0
   -0.9560   36.4446   -0.2115 N   0  0  0  0  0  0  0  0  0  0  0  0
    5.4302   34.5578   -1.1268 C   0  0  2  0  0  0  0  0  0  0  0  0
    4.3747   34.9256   -0.2057 N   0  0  0  0  0  0  0  0  0  0  0  0
    0.3580   34.0139   -3.1601 C   0  0  1  0  0  0  0  0  0  0  0  0
   -0.4373   33.8625   -1.9796 O   0  0  0  0  0  0  0  0  0  0  0  0
    0.6595   38.2045   -0.4928 C   0  0  2  0  0  0  0  0  0  0  0  0
    0.1910   38.8705    0.6593 O   0  0  0  0  0  0  0  0  0  0  0  0
    4.8468   33.6662   -2.1920 C   0  0  1  0  0  0  0  0  0  0  0  0
    3.8579   34.4913   -2.8685 O   0  0  0  0  0  0  0  0  0  0  0  0
    1.0352   32.7315   -3.4749 C   0  0  1  0  0  0  0  0  0  0  0  0
    2.2973   32.7458   -2.8040 O   0  0  0  0  0  0  0  0  0  0  0  0
    1.1383   39.2155   -1.5351 C   0  0  1  0  0  0  0  0  0  0  0  0
    2.1982   40.0002   -1.0112 O   0  0  0  0  0  0  0  0  0  0  0  0
    5.9241   33.3347   -3.2595 C   0  0  2  0  0  0  0  0  0  0  0  0
    5.3507   32.5068   -4.2595 O   0  0  0  0  0  0  0  0  0  0  0  0
    1.6113   38.4600   -2.7774 C   0  0  1  0  0  0  0  0  0  0  0  0
    0.5448   37.6710   -3.3021 O   0  0  0  0  0  0  0  0  0  0  0  0
    7.0965   32.5918   -2.5903 C   0  0  1  0  0  0  0  0  0  0  0  0
    8.1002   32.2781   -3.5631 O   0  0  0  0  0  0  0  0  0  0  0  0
    2.0600   39.4717   -3.8322 C   0  0  0  0  0  0  0  0  0  0  0  0
    0.9857   40.3527   -4.1189 O   0  0  0  0  0  0  0  0  0  0  0  0
   10.4174   34.1200   -1.7215 N   0  0  0  0  0  0  0  0  0  0  0  0
    5.1830   35.9660    1.4546 N   0  0  0  0  0  0  0  0  0  0  0  0
  1  2  1  0  0  0  0
  1 39  1  0  0  0  0
  3  4  1  0  0  0  0
  5  6  1  0  0  0  0
  5 40  1  0  0  0  0
  9 10  1  1  0  0  0
  9 14  1  0  0  0  0
  9 35  1  0  0  0  0
 10  1  1  0  0  0  0
 11 16  1  0  0  0  0
 11 28  1  0  0  0  0
 11 26  1  6  0  0  0
 12 17  1  0  0  0  0
 12 34  1  0  0  0  0
 12 13  1  1  0  0  0
 14 15  1  1  0  0  0
 14 19  1  0  0  0  0
 16 13  1  1  0  0  0
 16 21  1  0  0  0  0
 17 18  1  1  0  0  0
 17 23  1  0  0  0  0
 18  8  1  0  0  0  0
 19 20  1  1  0  0  0
 19 25  1  0  0  0  0
 20  5  1  0  0  0  0
 21  3  1  6  0  0  0
 21 22  1  0  0  0  0
 21 27  1  0  0  0  0
 23 24  1  1  0  0  0
 23 29  1  0  0  0  0
 25 26  1  6  0  0  0
 25 31  1  0  0  0  0
 27  7  1  1  0  0  0
 27 28  1  0  0  0  0
 29 30  1  1  0  0  0
 29 33  1  0  0  0  0
 31 32  1  6  0  0  0
 31 35  1  0  0  0  0
 33 34  1  0  0  0  0
 33 37  1  6  0  0  0
 35 36  1  6  0  0  0
 37 38  1  0  0  0  0
M  END
>  <CHROM.1>
-150.30657962,-128.53914848,173.89621955,163.88264695,-176.99421993,-91.34235789
84.90408842,79.58161325,58.48960838,-102.38645399,-57.24968217,3.32945769
35.24037545,-1.96163961,-0.39049223,-0.25807265,0.45917819

>  <Name>
1ntb_lig

>  <RI>
0

>  <Rbt.Current_Directory>
/home/itssahil/PROJECTS/Mol_Feturizer/New_Systems/rnas/1ntb

>  <Rbt.Executable>
rbdock ($Id: //depot/dev/client3/rdock/2013.1/src/exe/rbdock.cxx#4 $)

>  <Rbt.Library>
libRbt.so (2013.1, Build901 2013/11/27)

>  <Rbt.Parameter_File>
/export/apps/rDock/src/rDock_2013.1_src/data/scripts/dock_solv.prm

>  <Rbt.Receptor>
prm/pocket_docking_2.prm

>  <SCORE>
-21.752

>  <SCORE.INTER>
-10.2991

>  <SCORE.INTER.CONST>
1

>  <SCORE.INTER.POLAR>
-0.993029

>  <SCORE.INTER.ROT>
11

>  <SCORE.INTER.SOLV>
23.535

>  <SCORE.INTER.VDW>
-22.3343

>  <SCORE.INTER.norm>
-0.257477

>  <SCORE.INTRA>
-11.4919

>  <SCORE.INTRA.DIHEDRAL>
-5.27122

>  <SCORE.INTRA.DIHEDRAL.0>
15.4453

>  <SCORE.INTRA.POLAR>
0

>  <SCORE.INTRA.POLAR.0>
0

>  <SCORE.INTRA.REPUL>
-0.823958

>  <SCORE.INTRA.REPUL.0>
0.823958

>  <SCORE.INTRA.SOLV>
0.341064

>  <SCORE.INTRA.SOLV.lig_0>
-99.3069

>  <SCORE.INTRA.VDW>
-4.90705

>  <SCORE.INTRA.VDW.0>
0.946495

>  <SCORE.INTRA.norm>
-0.287298

>  <SCORE.RESTR>
0.038948

>  <SCORE.RESTR.CAVITY>
0.038948

>  <SCORE.RESTR.norm>
0.000973699

>  <SCORE.SYSTEM>
0

>  <SCORE.SYSTEM.CONST>
0

>  <SCORE.SYSTEM.DIHEDRAL>
0

>  <SCORE.SYSTEM.SOLV>
0

>  <SCORE.SYSTEM.norm>
0

>  <SCORE.heavy>
40

>  <SCORE.norm>
-0.543801

>  <RMSD>
0.814

$$$$
1ntb_lig
 OpenBabel11021811403D
libRbt.so/2013.1/901 2013/11/27
 40 42  0  0  0  0  0  0  0  0999 V2000
    9.7509   32.7257   -1.0735 C   0  0  0  0  0  0  0  0  0  0  0  0
    9.8389   32.6029   -2.3413 N   0  0  0  0  0  0  0  0  0  0  0  0
   -0.3847   35.0512   -4.3946 C   0  0  0  0  0  0  0  0  0  0  0  0
   -1.3574   34.2059   -4.9859 O   0  0  0  0  0  0  0  0  0  0  0  0
    4.9355   36.5041    0.5612 C   0  0  0  0  0  0  0  0  0  0  0  0
    4.7445   37.5389   -0.1769 N   0  0  0  0  0  0  0  0  0  0  0  0
    0.3628   31.9282   -3.8766 C   0  0  0  0  0  0  0  0  0  0  0  0
   -2.7826   35.5248   -0.4822 C   0  0  0  0  0  0  0  0  0  0  0  0
    7.4748   33.3365   -1.1834 C   0  0  2  0  0  0  0  0  0  0  0  0
    8.5602   32.4867   -0.5584 N   0  0  0  0  0  0  0  0  0  0  0  0
    2.4070   34.2088   -2.1515 C   0  0  2  0  0  0  0  0  0  0  0  0
   -0.1893   36.7150   -1.7834 C   0  0  1  0  0  0  0  0  0  0  0  0
    0.7928   35.7486   -1.4583 O   0  0  0  0  0  0  0  0  0  0  0  0
    6.5607   33.9277   -0.1158 C   0  0  1  0  0  0  0  0  0  0  0  0
    7.4709   34.7082    0.7753 O   0  0  0  0  0  0  0  0  0  0  0  0
    1.3250   35.1874   -2.5704 C   0  0  2  0  0  0  0  0  0  0  0  0
   -0.8992   37.1283   -0.5170 C   0  0  1  0  0  0  0  0  0  0  0  0
   -1.5439   36.0032    0.0626 N   0  0  0  0  0  0  0  0  0  0  0  0
    5.4289   34.7705   -0.7001 C   0  0  2  0  0  0  0  0  0  0  0  0
    4.5322   35.3605    0.2723 N   0  0  0  0  0  0  0  0  0  0  0  0
    0.3322   34.3124   -3.2887 C   0  0  1  0  0  0  0  0  0  0  0  0
   -0.6163   33.7822   -2.3569 O   0  0  0  0  0  0  0  0  0  0  0  0
    0.1414   37.6767    0.4449 C   0  0  2  0  0  0  0  0  0  0  0  0
   -0.4697   38.0703    1.6541 O   0  0  0  0  0  0  0  0  0  0  0  0
    4.6238   33.8931   -1.6231 C   0  0  1  0  0  0  0  0  0  0  0  0
    3.6961   34.7985   -2.2833 O   0  0  0  0  0  0  0  0  0  0  0  0
    1.1540   33.2103   -3.8478 C   0  0  1  0  0  0  0  0  0  0  0  0
    2.2950   33.0634   -2.9994 O   0  0  0  0  0  0  0  0  0  0  0  0
    0.7912   38.8792   -0.2399 C   0  0  1  0  0  0  0  0  0  0  0  0
    1.7855   39.4469    0.5985 O   0  0  0  0  0  0  0  0  0  0  0  0
    5.5324   33.3241   -2.7461 C   0  0  2  0  0  0  0  0  0  0  0  0
    4.7525   32.5133   -3.6112 O   0  0  0  0  0  0  0  0  0  0  0  0
    1.4173   38.4206   -1.5573 C   0  0  1  0  0  0  0  0  0  0  0  0
    0.4165   37.8495   -2.3984 O   0  0  0  0  0  0  0  0  0  0  0  0
    6.6515   32.4723   -2.1167 C   0  0  1  0  0  0  0  0  0  0  0  0
    7.4996   31.9392   -3.1409 O   0  0  0  0  0  0  0  0  0  0  0  0
    2.0392   39.6289   -2.2580 C   0  0  0  0  0  0  0  0  0  0  0  0
    2.4757   39.2433   -3.5515 O   0  0  0  0  0  0  0  0  0  0  0  0
   10.7484   33.0838   -0.3437 N   0  0  0  0  0  0  0  0  0  0  0  0
    5.6041   36.6131    1.6041 N   0  0  0  0  0  0  0  0  0  0  0  0
  1  2  1  0  0  0  0
  1 39  1  0  0  0  0
  3  4  1  0  0  0  0
  5  6  1  0  0  0  0
  5 40  1  0  0  0  0
  9 10  1  1  0  0  0
  9 14  1  0  0  0  0
  9 35  1  0  0  0  0
 10  1  1  0  0  0  0
 11 16  1  0  0  0  0
 11 28  1  0  0  0  0
 11 26  1  6  0  0  0
 12 17  1  0  0  0  0
 12 34  1  0  0  0  0
 12 13  1  1  0  0  0
 14 15  1  1  0  0  0
 14 19  1  0  0  0  0
 16 13  1  1  0  0  0
 16 21  1  0  0  0  0
 17 18  1  1  0  0  0
 17 23  1  0  0  0  0
 18  8  1  0  0  0  0
 19 20  1  1  0  0  0
 19 25  1  0  0  0  0
 20  5  1  0  0  0  0
 21  3  1  6  0  0  0
 21 22  1  0  0  0  0
 21 27  1  0  0  0  0
 23 24  1  1  0  0  0
 23 29  1  0  0  0  0
 25 26  1  6  0  0  0
 25 31  1  0  0  0  0
 27  7  1  1  0  0  0
 27 28  1  0  0  0  0
 29 30  1  1  0  0  0
 29 33  1  0  0  0  0
 31 32  1  6  0  0  0
 31 35  1  0  0  0  0
 33 34  1  0  0  0  0
 33 37  1  6  0  0  0
 35 36  1  6  0  0  0
 37 38  1  0  0  0  0
M  END
>  <CHROM.1>
-134.72614342,-55.39062330,169.26074229,170.60517126,177.61621624,-77.69127061
92.51129257,79.04477770,-176.73470340,-130.02084025,-172.90921826,3.14732613
35.20692333,-1.54003194,-0.29250214,-0.27233596,0.63259204

>  <Name>
1ntb_lig

>  <RI>
0

>  <Rbt.Current_Directory>
/home/itssahil/PROJECTS/Mol_Feturizer/New_Systems/rnas/1ntb

>  <Rbt.Executable>
rbdock ($Id: //depot/dev/client3/rdock/2013.1/src/exe/rbdock.cxx#4 $)

>  <Rbt.Library>
libRbt.so (2013.1, Build901 2013/11/27)

>  <Rbt.Parameter_File>
/export/apps/rDock/src/rDock_2013.1_src/data/scripts/dock_solv.prm

>  <Rbt.Receptor>
prm/pocket_docking_2.prm

>  <SCORE>
-17.3994

>  <SCORE.INTER>
-5.80648

>  <SCORE.INTER.CONST>
1

>  <SCORE.INTER.POLAR>
-0.614757

>  <SCORE.INTER.ROT>
11

>  <SCORE.INTER.SOLV>
23.558

>  <SCORE.INTER.VDW>
-20.6078

>  <SCORE.INTER.norm>
-0.145162

>  <SCORE.INTRA>
-11.597

>  <SCORE.INTRA.DIHEDRAL>
-3.85716

>  <SCORE.INTRA.DIHEDRAL.0>
15.4453

>  <SCORE.INTRA.POLAR>
0

>  <SCORE.INTRA.POLAR.0>
0

>  <SCORE.INTRA.REPUL>
-0.81303

>  <SCORE.INTRA.REPUL.0>
0.823958

>  <SCORE.INTRA.SOLV>
-0.817177

>  <SCORE.INTRA.SOLV.lig_0>
-99.3069

>  <SCORE.INTRA.VDW>
-5.19473

>  <SCORE.INTRA.VDW.0>
0.946495

>  <SCORE.INTRA.norm>
-0.289926

>  <SCORE.RESTR>
0.00412774

>  <SCORE.RESTR.CAVITY>
0.00412774

>  <SCORE.RESTR.norm>
0.000103193

>  <SCORE.SYSTEM>
0

>  <SCORE.SYSTEM.CONST>
0

>  <SCORE.SYSTEM.DIHEDRAL>
0

>  <SCORE.SYSTEM.SOLV>
0

>  <SCORE.SYSTEM.norm>
0

>  <SCORE.heavy>
40

>  <SCORE.norm>
-0.434985

>  <RMSD>
0.814

$$$$
1ntb_lig
 OpenBabel11021811403D
libRbt.so/2013.1/901 2013/11/27
 40 42  0  0  0  0  0  0  0  0999 V2000
    9.9018   32.7542   -0.9622 C   0  0  0  0  0  0  0  0  0  0  0  0
    9.9798   32.7957   -2.2359 N   0  0  0  0  0  0  0  0  0  0  0  0
   -0.2719   35.1110   -4.3381 C   0  0  0  0  0  0  0  0  0  0  0  0
   -1.2536   34.2972   -4.9579 O   0  0  0  0  0  0  0  0  0  0  0  0
    5.0821   36.4761    0.5788 C   0  0  0  0  0  0  0  0  0  0  0  0
    5.6071   36.7080    1.7288 N   0  0  0  0  0  0  0  0  0  0  0  0
    0.4788   31.9641   -4.0009 C   0  0  0  0  0  0  0  0  0  0  0  0
   -2.5988   35.9564    0.7644 C   0  0  0  0  0  0  0  0  0  0  0  0
    7.6215   33.3343   -1.1332 C   0  0  2  0  0  0  0  0  0  0  0  0
    8.7025   32.5067   -0.4718 N   0  0  0  0  0  0  0  0  0  0  0  0
    2.5636   34.1480   -2.2010 C   0  0  2  0  0  0  0  0  0  0  0  0
   -0.0481   36.6042   -1.6473 C   0  0  1  0  0  0  0  0  0  0  0  0
    0.9678   35.6512   -1.3943 O   0  0  0  0  0  0  0  0  0  0  0  0
    6.6846   33.9406   -0.0942 C   0  0  1  0  0  0  0  0  0  0  0  0
    7.5733   34.7472    0.7954 O   0  0  0  0  0  0  0  0  0  0  0  0
    1.4755   35.1487   -2.5452 C   0  0  2  0  0  0  0  0  0  0  0  0
   -0.6552   37.0251   -0.3310 C   0  0  1  0  0  0  0  0  0  0  0  0
   -1.2378   35.9006    0.3120 N   0  0  0  0  0  0  0  0  0  0  0  0
    5.5565   34.7617   -0.7155 C   0  0  2  0  0  0  0  0  0  0  0  0
    4.6387   35.3649    0.2286 N   0  0  0  0  0  0  0  0  0  0  0  0
    0.4660   34.3140   -3.2878 C   0  0  1  0  0  0  0  0  0  0  0  0
   -0.4643   33.7367   -2.3658 O   0  0  0  0  0  0  0  0  0  0  0  0
    0.4554   37.5947    0.5355 C   0  0  2  0  0  0  0  0  0  0  0  0
   -0.0578   37.9962    1.7869 O   0  0  0  0  0  0  0  0  0  0  0  0
    4.7742   33.8584   -1.6333 C   0  0  1  0  0  0  0  0  0  0  0  0
    3.8511   34.7422   -2.3284 O   0  0  0  0  0  0  0  0  0  0  0  0
    1.2734   33.2419   -3.9212 C   0  0  1  0  0  0  0  0  0  0  0  0
    2.4314   33.0490   -3.1056 O   0  0  0  0  0  0  0  0  0  0  0  0
    1.0336   38.7955   -0.2136 C   0  0  1  0  0  0  0  0  0  0  0  0
    2.0876   39.3825    0.5335 O   0  0  0  0  0  0  0  0  0  0  0  0
    5.7064   33.2732   -2.7282 C   0  0  2  0  0  0  0  0  0  0  0  0
    4.9477   32.4379   -3.5890 O   0  0  0  0  0  0  0  0  0  0  0  0
    1.5535   38.3278   -1.5733 C   0  0  1  0  0  0  0  0  0  0  0  0
    0.4927   37.7373   -2.3225 O   0  0  0  0  0  0  0  0  0  0  0  0
    6.8210   32.4439   -2.0618 C   0  0  1  0  0  0  0  0  0  0  0  0
    7.6907   31.8961   -3.0598 O   0  0  0  0  0  0  0  0  0  0  0  0
    2.1024   39.5339   -2.3359 C   0  0  0  0  0  0  0  0  0  0  0  0
    2.4376   39.1369   -3.6559 O   0  0  0  0  0  0  0  0  0  0  0  0
   10.9178   32.9646   -0.2011 N   0  0  0  0  0  0  0  0  0  0  0  0
    4.9489   37.4105   -0.2311 N   0  0  0  0  0  0  0  0  0  0  0  0
  1  2  1  0  0  0  0
  1 39  1  0  0  0  0
  3  4  1  0  0  0  0
  5  6  1  0  0  0  0
  5 40  1  0  0  0  0
  9 10  1  1  0  0  0
  9 14  1  0  0  0  0
  9 35  1  0  0  0  0
 10  1  1  0  0  0  0
 11 16  1  0  0  0  0
 11 28  1  0  0  0  0
 11 26  1  6  0  0  0
 12 17  1  0  0  0  0
 12 34  1  0  0  0  0
 12 13  1  1  0  0  0
 14 15  1  1  0  0  0
 14 19  1  0  0  0  0
 16 13  1  1  0  0  0
 16 21  1  0  0  0  0
 17 18  1  1  0  0  0
 17 23  1  0  0  0  0
 18  8  1  0  0  0  0
 19 20  1  1  0  0  0
 19 25  1  0  0  0  0
 20  5  1  0  0  0  0
 21  3  1  6  0  0  0
 21 22  1  0  0  0  0
 21 27  1  0  0  0  0
 23 24  1  1  0  0  0
 23 29  1  0  0  0  0
 25 26  1  6  0  0  0
 25 31  1  0  0  0  0
 27  7  1  1  0  0  0
 27 28  1  0  0  0  0
 29 30  1  1  0  0  0
 29 33  1  0  0  0  0
 31 32  1  6  0  0  0
 31 35  1  0  0  0  0
 33 34  1  0  0  0  0
 33 37  1  6  0  0  0
 35 36  1  6  0  0  0
 37 38  1  0  0  0  0
M  END
>  <CHROM.1>
-134.08319663,-46.18829900,164.40428905,174.78168825,179.46258898,-127.64488492
87.43913020,-106.00453850,-177.05062290,-129.77603563,-173.05170320,3.30578665
35.18684687,-1.48001934,-0.28462481,-0.27889077,0.68029519

>  <Name>
1ntb_lig

>  <RI>
0

>  <Rbt.Current_Directory>
/home/itssahil/PROJECTS/Mol_Feturizer/New_Systems/rnas/1ntb

>  <Rbt.Executable>
rbdock ($Id: //depot/dev/client3/rdock/2013.1/src/exe/rbdock.cxx#4 $)

>  <Rbt.Library>
libRbt.so (2013.1, Build901 2013/11/27)

>  <Rbt.Parameter_File>
/export/apps/rDock/src/rDock_2013.1_src/data/scripts/dock_solv.prm

>  <Rbt.Receptor>
prm/pocket_docking_2.prm

>  <SCORE>
-17.1314

>  <SCORE.INTER>
-6.35387

>  <SCORE.INTER.CONST>
1

>  <SCORE.INTER.POLAR>
-0.669901

>  <SCORE.INTER.ROT>
11

>  <SCORE.INTER.SOLV>
25.2077

>  <SCORE.INTER.VDW>
-21.3388

>  <SCORE.INTER.norm>
-0.158847

>  <SCORE.INTRA>
-10.7846

>  <SCORE.INTRA.DIHEDRAL>
-3.12115

>  <SCORE.INTRA.DIHEDRAL.0>
15.4453

>  <SCORE.INTRA.POLAR>
0

>  <SCORE.INTRA.POLAR.0>
0

>  <SCORE.INTRA.REPUL>
-0.766491

>  <SCORE.INTRA.REPUL.0>
0.823958

>  <SCORE.INTRA.SOLV>
-1.01355

>  <SCORE.INTRA.SOLV.lig_0>
-99.3069

>  <SCORE.INTRA.VDW>
-4.8848

>  <SCORE.INTRA.VDW.0>
0.946495

>  <SCORE.INTRA.norm>
-0.269615

>  <SCORE.RESTR>
0.00709913

>  <SCORE.RESTR.CAVITY>
0.00709913

>  <SCORE.RESTR.norm>
0.000177478

>  <SCORE.SYSTEM>
0

>  <SCORE.SYSTEM.CONST>
0

>  <SCORE.SYSTEM.DIHEDRAL>
0

>  <SCORE.SYSTEM.SOLV>
0

>  <SCORE.SYSTEM.norm>
0

>  <SCORE.heavy>
40

>  <SCORE.norm>
-0.428284

>  <RMSD>
0.818

$$$$
1ntb_lig
 OpenBabel11021811403D
libRbt.so/2013.1/901 2013/11/27
 40 42  0  0  0  0  0  0  0  0999 V2000
    9.9592   33.0473   -2.0204 C   0  0  0  0  0  0  0  0  0  0  0  0
   10.5227   32.3770   -2.9496 N   0  0  0  0  0  0  0  0  0  0  0  0
   -0.6499   34.7592   -4.1055 C   0  0  0  0  0  0  0  0  0  0  0  0
   -1.7341   35.3949   -3.4493 O   0  0  0  0  0  0  0  0  0  0  0  0
    5.1217   36.1793    0.3484 C   0  0  0  0  0  0  0  0  0  0  0  0
    4.7765   37.2773   -0.2237 N   0  0  0  0  0  0  0  0  0  0  0  0
    0.2819   31.6780   -3.6388 C   0  0  0  0  0  0  0  0  0  0  0  0
   -2.6061   35.4097    0.0703 C   0  0  0  0  0  0  0  0  0  0  0  0
    7.6257   33.3930   -1.9896 C   0  0  2  0  0  0  0  0  0  0  0  0
    8.8180   32.5577   -1.5753 N   0  0  0  0  0  0  0  0  0  0  0  0
    2.4376   34.0691   -2.2278 C   0  0  2  0  0  0  0  0  0  0  0  0
   -0.1423   36.5314   -1.5753 C   0  0  1  0  0  0  0  0  0  0  0  0
    0.8654   35.5613   -1.3568 O   0  0  0  0  0  0  0  0  0  0  0  0
    6.8001   33.8069   -0.7764 C   0  0  1  0  0  0  0  0  0  0  0  0
    7.7558   34.5499    0.0991 O   0  0  0  0  0  0  0  0  0  0  0  0
    1.2726   34.9974   -2.5192 C   0  0  2  0  0  0  0  0  0  0  0  0
   -0.7014   36.9575   -0.2394 C   0  0  1  0  0  0  0  0  0  0  0  0
   -1.2818   35.8403    0.4181 N   0  0  0  0  0  0  0  0  0  0  0  0
    5.5665   34.6278   -1.1465 C   0  0  2  0  0  0  0  0  0  0  0  0
    4.7481   35.0516   -0.0293 N   0  0  0  0  0  0  0  0  0  0  0  0
    0.2317   34.0710   -3.0897 C   0  0  1  0  0  0  0  0  0  0  0  0
   -0.5677   33.5251   -2.0352 O   0  0  0  0  0  0  0  0  0  0  0  0
    0.4447   37.5061    0.5938 C   0  0  2  0  0  0  0  0  0  0  0  0
   -0.0228   37.9115    1.8617 O   0  0  0  0  0  0  0  0  0  0  0  0
    4.7172   33.7992   -2.0750 C   0  0  1  0  0  0  0  0  0  0  0  0
    3.6746   34.7039   -2.5339 O   0  0  0  0  0  0  0  0  0  0  0  0
    1.0184   32.9892   -3.7325 C   0  0  1  0  0  0  0  0  0  0  0  0
    2.2636   32.9029   -3.0360 O   0  0  0  0  0  0  0  0  0  0  0  0
    1.0187   38.7001   -0.1694 C   0  0  1  0  0  0  0  0  0  0  0  0
    2.1048   39.2674    0.5463 O   0  0  0  0  0  0  0  0  0  0  0  0
    5.5301   33.4127   -3.3399 C   0  0  2  0  0  0  0  0  0  0  0  0
    4.7083   32.6458   -4.2063 O   0  0  0  0  0  0  0  0  0  0  0  0
    1.4884   38.2288   -1.5460 C   0  0  1  0  0  0  0  0  0  0  0  0
    0.3955   37.6580   -2.2636 O   0  0  0  0  0  0  0  0  0  0  0  0
    6.7565   32.5772   -2.9249 C   0  0  1  0  0  0  0  0  0  0  0  0
    7.5179   32.2121   -4.0822 O   0  0  0  0  0  0  0  0  0  0  0  0
    2.0329   39.4285   -2.3218 C   0  0  0  0  0  0  0  0  0  0  0  0
    2.2983   39.0367   -3.6591 O   0  0  0  0  0  0  0  0  0  0  0  0
   10.4543   34.1429   -1.5618 N   0  0  0  0  0  0  0  0  0  0  0  0
    5.9164   36.2127    1.3045 N   0  0  0  0  0  0  0  0  0  0  0  0
  1  2  1  0  0  0  0
  1 39  1  0  0  0  0
  3  4  1  0  0  0  0
  5  6  1  0  0  0  0
  5 40  1  0  0  0  0
  9 10  1  1  0  0  0
  9 14  1  0  0  0  0
  9 35  1  0  0  0  0
 10  1  1  0  0  0  0
 11 16  1  0  0  0  0
 11 28  1  0  0  0  0
 11 26  1  6  0  0  0
 12 17  1  0  0  0  0
 12 34  1  0  0  0  0
 12 13  1  1  0  0  0
 14 15  1  1  0  0  0
 14 19  1  0  0  0  0
 16 13  1  1  0  0  0
 16 21  1  0  0  0  0
 17 18  1  1  0  0  0
 17 23  1  0  0  0  0
 18  8  1  0  0  0  0
 19 20  1  1  0  0  0
 19 25  1  0  0  0  0
 20  5  1  0  0  0  0
 21  3  1  6  0  0  0
 21 22  1  0  0  0  0
 21 27  1  0  0  0  0
 23 24  1  1  0  0  0
 23 29  1  0  0  0  0
 25 26  1  6  0  0  0
 25 31  1  0  0  0  0
 27  7  1  1  0  0  0
 27 28  1  0  0  0  0
 29 30  1  1  0  0  0
 29 33  1  0  0  0  0
 31 32  1  6  0  0  0
 31 35  1  0  0  0  0
 33 34  1  0  0  0  0
 33 37  1  6  0  0  0
 35 36  1  6  0  0  0
 37 38  1  0  0  0  0
M  END
>  <CHROM.1>
-125.32770984,-109.06654494,173.47680840,171.12442352,174.70663605,-81.01972481
92.03359108,80.82955868,-86.65605983,-124.90571215,-172.03761562,3.23323399
35.13869732,-1.69104004,-0.34505898,-0.14924965,0.63466641

>  <Name>
1ntb_lig

>  <RI>
0

>  <Rbt.Current_Directory>
/home/itssahil/PROJECTS/Mol_Feturizer/New_Systems/rnas/1ntb

>  <Rbt.Executable>
rbdock ($Id: //depot/dev/client3/rdock/2013.1/src/exe/rbdock.cxx#4 $)

>  <Rbt.Library>
libRbt.so (2013.1, Build901 2013/11/27)

>  <Rbt.Parameter_File>
/export/apps/rDock/src/rDock_2013.1_src/data/scripts/dock_solv.prm

>  <Rbt.Receptor>
prm/pocket_docking_2.prm

>  <SCORE>
-17.1174

>  <SCORE.INTER>
-5.7516

>  <SCORE.INTER.CONST>
1

>  <SCORE.INTER.POLAR>
-0.795386

>  <SCORE.INTER.ROT>
11

>  <SCORE.INTER.SOLV>
22.8231

>  <SCORE.INTER.VDW>
-19.7241

>  <SCORE.INTER.norm>
-0.14379

>  <SCORE.INTRA>
-11.518

>  <SCORE.INTRA.DIHEDRAL>
-2.22011

>  <SCORE.INTRA.DIHEDRAL.0>
15.4453

>  <SCORE.INTRA.POLAR>
0

>  <SCORE.INTRA.POLAR.0>
0

>  <SCORE.INTRA.REPUL>
-0.821655

>  <SCORE.INTRA.REPUL.0>
0.823958

>  <SCORE.INTRA.SOLV>
-0.0448539

>  <SCORE.INTRA.SOLV.lig_0>
-99.3069

>  <SCORE.INTRA.VDW>
-6.27721

>  <SCORE.INTRA.VDW.0>
0.946495

>  <SCORE.INTRA.norm>
-0.287949

>  <SCORE.RESTR>
0.152215

>  <SCORE.RESTR.CAVITY>
0.152215

>  <SCORE.RESTR.norm>
0.00380536

>  <SCORE.SYSTEM>
0

>  <SCORE.SYSTEM.CONST>
0

>  <SCORE.SYSTEM.DIHEDRAL>
0

>  <SCORE.SYSTEM.SOLV>
0

>  <SCORE.SYSTEM.norm>
0

>  <SCORE.heavy>
40

>  <SCORE.norm>
-0.427934

>  <RMSD>
0.820

$$$$
1ntb_lig
 OpenBabel11021811403D
libRbt.so/2013.1/901 2013/11/27
 40 42  0  0  0  0  0  0  0  0999 V2000
    9.9597   32.9542   -1.2952 C   0  0  0  0  0  0  0  0  0  0  0  0
   10.5589   31.8857   -1.6549 N   0  0  0  0  0  0  0  0  0  0  0  0
   -0.5341   34.3923   -4.3036 C   0  0  0  0  0  0  0  0  0  0  0  0
   -1.6063   33.4851   -4.4976 O   0  0  0  0  0  0  0  0  0  0  0  0
    4.4069   36.0861    0.1466 C   0  0  0  0  0  0  0  0  0  0  0  0
    5.1821   36.4847    1.0911 N   0  0  0  0  0  0  0  0  0  0  0  0
    0.1753   31.4764   -3.0489 C   0  0  0  0  0  0  0  0  0  0  0  0
   -2.0963   35.7348    0.1776 C   0  0  0  0  0  0  0  0  0  0  0  0
    7.6631   33.4859   -1.3890 C   0  0  2  0  0  0  0  0  0  0  0  0
    8.8029   32.7818   -0.6848 N   0  0  0  0  0  0  0  0  0  0  0  0
    2.5637   33.9632   -2.3660 C   0  0  2  0  0  0  0  0  0  0  0  0
   -0.0320   36.4792   -2.2072 C   0  0  1  0  0  0  0  0  0  0  0  0
    1.1474   35.7606   -1.8963 O   0  0  0  0  0  0  0  0  0  0  0  0
    6.5511   33.8417   -0.4083 C   0  0  1  0  0  0  0  0  0  0  0  0
    7.2128   34.6941    0.6249 O   0  0  0  0  0  0  0  0  0  0  0  0
    1.4631   34.8771   -2.8733 C   0  0  2  0  0  0  0  0  0  0  0  0
   -0.4868   37.2198   -0.9730 C   0  0  1  0  0  0  0  0  0  0  0  0
   -0.7793   36.2940    0.0637 N   0  0  0  0  0  0  0  0  0  0  0  0
    5.3626   34.5283   -1.0780 C   0  0  2  0  0  0  0  0  0  0  0  0
    4.2782   34.8926   -0.1896 N   0  0  0  0  0  0  0  0  0  0  0  0
    0.3319   33.9247   -3.1571 C   0  0  1  0  0  0  0  0  0  0  0  0
   -0.4644   33.7470   -1.9809 O   0  0  0  0  0  0  0  0  0  0  0  0
    0.6413   38.1399   -0.5375 C   0  0  2  0  0  0  0  0  0  0  0  0
    0.2712   38.8519    0.6230 O   0  0  0  0  0  0  0  0  0  0  0  0
    4.8238   33.6000   -2.1354 C   0  0  1  0  0  0  0  0  0  0  0  0
    3.8328   34.3871   -2.8528 O   0  0  0  0  0  0  0  0  0  0  0  0
    1.0064   32.6487   -3.5023 C   0  0  1  0  0  0  0  0  0  0  0  0
    2.2682   32.6441   -2.8306 O   0  0  0  0  0  0  0  0  0  0  0  0
    0.9011   39.1048   -1.6945 C   0  0  1  0  0  0  0  0  0  0  0  0
    1.9528   39.9988   -1.3651 O   0  0  0  0  0  0  0  0  0  0  0  0
    5.9326   33.2692   -3.1705 C   0  0  2  0  0  0  0  0  0  0  0  0
    5.4009   32.4064   -4.1639 O   0  0  0  0  0  0  0  0  0  0  0  0
    1.2714   38.2976   -2.9392 C   0  0  1  0  0  0  0  0  0  0  0  0
    0.2134   37.3989   -3.2683 O   0  0  0  0  0  0  0  0  0  0  0  0
    7.1054   32.5683   -2.4581 C   0  0  1  0  0  0  0  0  0  0  0  0
    8.1380   32.2558   -3.4006 O   0  0  0  0  0  0  0  0  0  0  0  0
    1.4998   39.2603   -4.1048 C   0  0  0  0  0  0  0  0  0  0  0  0
    2.6544   40.0421   -3.8436 O   0  0  0  0  0  0  0  0  0  0  0  0
   10.4356   34.1259   -1.5324 N   0  0  0  0  0  0  0  0  0  0  0  0
    3.6929   36.9132   -0.4473 N   0  0  0  0  0  0  0  0  0  0  0  0
  1  2  1  0  0  0  0
  1 39  1  0  0  0  0
  3  4  1  0  0  0  0
  5  6  1  0  0  0  0
  5 40  1  0  0  0  0
  9 10  1  1  0  0  0
  9 14  1  0  0  0  0
  9 35  1  0  0  0  0
 10  1  1  0  0  0  0
 11 16  1  0  0  0  0
 11 28  1  0  0  0  0
 11 26  1  6  0  0  0
 12 17  1  0  0  0  0
 12 34  1  0  0  0  0
 12 13  1  1  0  0  0
 14 15  1  1  0  0  0
 14 19  1  0  0  0  0
 16 13  1  1  0  0  0
 16 21  1  0  0  0  0
 17 18  1  1  0  0  0
 17 23  1  0  0  0  0
 18  8  1  0  0  0  0
 19 20  1  1  0  0  0
 19 25  1  0  0  0  0
 20  5  1  0  0  0  0
 21  3  1  6  0  0  0
 21 22  1  0  0  0  0
 21 27  1  0  0  0  0
 23 24  1  1  0  0  0
 23 29  1  0  0  0  0
 25 26  1  6  0  0  0
 25 31  1  0  0  0  0
 27  7  1  1  0  0  0
 27 28  1  0  0  0  0
 29 30  1  1  0  0  0
 29 33  1  0  0  0  0
 31 32  1  6  0  0  0
 31 35  1  0  0  0  0
 33 34  1  0  0  0  0
 33 37  1  6  0  0  0
 35 36  1  6  0  0  0
 37 38  1  0  0  0  0
M  END
>  <CHROM.1>
-153.12752447,-122.35527948,170.50968431,168.14110725,-169.18358719,-88.61906092
96.14658963,-82.21189858,-178.02748223,-101.87341359,66.92352892,3.24639997
35.13768017,-1.90619038,-0.36363222,-0.21427607,0.38981629

>  <Name>
1ntb_lig

>  <RI>
0

>  <Rbt.Current_Directory>
/home/itssahil/PROJECTS/Mol_Feturizer/New_Systems/rnas/1ntb

>  <Rbt.Executable>
rbdock ($Id: //depot/dev/client3/rdock/2013.1/src/exe/rbdock.cxx#4 $)

>  <Rbt.Library>
libRbt.so (2013.1, Build901 2013/11/27)

>  <Rbt.Parameter_File>
/export/apps/rDock/src/rDock_2013.1_src/data/scripts/dock_solv.prm

>  <Rbt.Receptor>
prm/pocket_docking_2.prm

>  <SCORE>
-20.6178

>  <SCORE.INTER>
-10.7199

>  <SCORE.INTER.CONST>
1

>  <SCORE.INTER.POLAR>
-1.11637

>  <SCORE.INTER.ROT>
11

>  <SCORE.INTER.SOLV>
22.4021

>  <SCORE.INTER.VDW>
-21.8261

>  <SCORE.INTER.norm>
-0.267997

>  <SCORE.INTRA>
-9.98299

>  <SCORE.INTRA.DIHEDRAL>
-4.79784

>  <SCORE.INTRA.DIHEDRAL.0>
15.4453

>  <SCORE.INTRA.POLAR>
0

>  <SCORE.INTRA.POLAR.0>
0

>  <SCORE.INTRA.REPUL>
-0.823958

>  <SCORE.INTRA.REPUL.0>
0.823958

>  <SCORE.INTRA.SOLV>
2.20421

>  <SCORE.INTRA.SOLV.lig_0>
-99.3069

>  <SCORE.INTRA.VDW>
-4.56638

>  <SCORE.INTRA.VDW.0>
0.946495

>  <SCORE.INTRA.norm>
-0.249575

>  <SCORE.RESTR>
0.085064

>  <SCORE.RESTR.CAVITY>
0.085064

>  <SCORE.RESTR.norm>
0.0021266

>  <SCORE.SYSTEM>
0

>  <SCORE.SYSTEM.CONST>
0

>  <SCORE.SYSTEM.DIHEDRAL>
0

>  <SCORE.SYSTEM.SOLV>
0

>  <SCORE.SYSTEM.norm>
0

>  <SCORE.heavy>
40

>  <SCORE.norm>
-0.515445

>  <RMSD>
0.842

$$$$
1ntb_lig
 OpenBabel11021811403D
libRbt.so/2013.1/901 2013/11/27
 40 42  0  0  0  0  0  0  0  0999 V2000
   10.0049   33.3486   -1.1330 C   0  0  0  0  0  0  0  0  0  0  0  0
   10.7641   32.5800   -1.8134 N   0  0  0  0  0  0  0  0  0  0  0  0
   -0.6165   34.4810   -4.1139 C   0  0  0  0  0  0  0  0  0  0  0  0
    0.1142   34.6417   -5.3183 O   0  0  0  0  0  0  0  0  0  0  0  0
    4.5023   35.9719    0.3349 C   0  0  0  0  0  0  0  0  0  0  0  0
    4.1984   37.0820   -0.2371 N   0  0  0  0  0  0  0  0  0  0  0  0
    0.1322   31.4908   -3.0757 C   0  0  0  0  0  0  0  0  0  0  0  0
   -1.9930   35.8239    0.4494 C   0  0  0  0  0  0  0  0  0  0  0  0
    7.6746   33.5307   -1.4528 C   0  0  2  0  0  0  0  0  0  0  0  0
    8.8407   32.8364   -0.7827 N   0  0  0  0  0  0  0  0  0  0  0  0
    2.5497   33.9292   -2.3234 C   0  0  2  0  0  0  0  0  0  0  0  0
    0.0241   36.5019   -1.9499 C   0  0  1  0  0  0  0  0  0  0  0  0
    1.1556   35.6925   -1.6876 O   0  0  0  0  0  0  0  0  0  0  0  0
    6.5749   33.8477   -0.4453 C   0  0  1  0  0  0  0  0  0  0  0  0
    7.2398   34.6944    0.5905 O   0  0  0  0  0  0  0  0  0  0  0  0
    1.4331   34.8735   -2.7302 C   0  0  2  0  0  0  0  0  0  0  0  0
   -0.3320   37.2578   -0.6928 C   0  0  1  0  0  0  0  0  0  0  0  0
   -0.6589   36.3425    0.3430 N   0  0  0  0  0  0  0  0  0  0  0  0
    5.3611   34.5230   -1.0803 C   0  0  2  0  0  0  0  0  0  0  0  0
    4.2870   34.8506   -0.1655 N   0  0  0  0  0  0  0  0  0  0  0  0
    0.2901   33.9411   -3.0325 C   0  0  1  0  0  0  0  0  0  0  0  0
   -0.4627   33.6881   -1.8415 O   0  0  0  0  0  0  0  0  0  0  0  0
    0.8763   38.0844   -0.2860 C   0  0  2  0  0  0  0  0  0  0  0  0
    0.6000   38.8064    0.8943 O   0  0  0  0  0  0  0  0  0  0  0  0
    4.8200   33.6032   -2.1440 C   0  0  1  0  0  0  0  0  0  0  0  0
    3.8008   34.3836   -2.8285 O   0  0  0  0  0  0  0  0  0  0  0  0
    0.9486   32.6899   -3.4833 C   0  0  1  0  0  0  0  0  0  0  0  0
    2.2343   32.6425   -2.8604 O   0  0  0  0  0  0  0  0  0  0  0  0
    1.1696   39.0427   -1.4405 C   0  0  1  0  0  0  0  0  0  0  0  0
    2.2963   39.8506   -1.1375 O   0  0  0  0  0  0  0  0  0  0  0  0
    5.9150   33.3121   -3.2053 C   0  0  2  0  0  0  0  0  0  0  0  0
    5.3810   32.4569   -4.2040 O   0  0  0  0  0  0  0  0  0  0  0  0
    1.4361   38.2270   -2.7060 C   0  0  1  0  0  0  0  0  0  0  0  0
    0.3028   37.4149   -3.0086 O   0  0  0  0  0  0  0  0  0  0  0  0
    7.1142   32.6215   -2.5276 C   0  0  1  0  0  0  0  0  0  0  0  0
    8.1345   32.3457   -3.4947 O   0  0  0  0  0  0  0  0  0  0  0  0
    1.6977   39.1855   -3.8680 C   0  0  0  0  0  0  0  0  0  0  0  0
    1.7298   38.4496   -5.0804 O   0  0  0  0  0  0  0  0  0  0  0  0
   10.3374   34.5536   -0.8277 N   0  0  0  0  0  0  0  0  0  0  0  0
    5.0940   35.9906    1.4287 N   0  0  0  0  0  0  0  0  0  0  0  0
  1  2  1  0  0  0  0
  1 39  1  0  0  0  0
  3  4  1  0  0  0  0
  5  6  1  0  0  0  0
  5 40  1  0  0  0  0
  9 10  1  1  0  0  0
  9 14  1  0  0  0  0
  9 35  1  0  0  0  0
 10  1  1  0  0  0  0
 11 16  1  0  0  0  0
 11 28  1  0  0  0  0
 11 26  1  6  0  0  0
 12 17  1  0  0  0  0
 12 34  1  0  0  0  0
 12 13  1  1  0  0  0
 14 15  1  1  0  0  0
 14 19  1  0  0  0  0
 16 13  1  1  0  0  0
 16 21  1  0  0  0  0
 17 18  1  1  0  0  0
 17 23  1  0  0  0  0
 18  8  1  0  0  0  0
 19 20  1  1  0  0  0
 19 25  1  0  0  0  0
 20  5  1  0  0  0  0
 21  3  1  6  0  0  0
 21 22  1  0  0  0  0
 21 27  1  0  0  0  0
 23 24  1  1  0  0  0
 23 29  1  0  0  0  0
 25 26  1  6  0  0  0
 25 31  1  0  0  0  0
 27  7  1  1  0  0  0
 27 28  1  0  0  0  0
 29 30  1  1  0  0  0
 29 33  1  0  0  0  0
 31 32  1  6  0  0  0
 31 35  1  0  0  0  0
 33 34  1  0  0  0  0
 33 37  1  6  0  0  0
 35 36  1  6  0  0  0
 37 38  1  0  0  0  0
M  END
>  <CHROM.1>
-133.51527818,-113.51552912,167.39870063,172.95369753,-173.59324916,-85.08658696
86.85883625,83.12753239,61.24278030,-101.73044174,-170.61421106,3.33086067
35.15210969,-1.84920510,-0.29794669,-0.26152550,0.57039700

>  <Name>
1ntb_lig

>  <RI>
0

>  <Rbt.Current_Directory>
/home/itssahil/PROJECTS/Mol_Feturizer/New_Systems/rnas/1ntb

>  <Rbt.Executable>
rbdock ($Id: //depot/dev/client3/rdock/2013.1/src/exe/rbdock.cxx#4 $)

>  <Rbt.Library>
libRbt.so (2013.1, Build901 2013/11/27)

>  <Rbt.Parameter_File>
/export/apps/rDock/src/rDock_2013.1_src/data/scripts/dock_solv.prm

>  <Rbt.Receptor>
prm/pocket_docking_3.prm

>  <SCORE>
-22.2659

>  <SCORE.INTER>
-10.5998

>  <SCORE.INTER.CONST>
1

>  <SCORE.INTER.POLAR>
-1.06176

>  <SCORE.INTER.ROT>
11

>  <SCORE.INTER.SOLV>
24.4231

>  <SCORE.INTER.VDW>
-22.6017

>  <SCORE.INTER.norm>
-0.264994

>  <SCORE.INTRA>
-11.6661

>  <SCORE.INTRA.DIHEDRAL>
-4.99649

>  <SCORE.INTRA.DIHEDRAL.0>
15.4453

>  <SCORE.INTRA.POLAR>
0

>  <SCORE.INTRA.POLAR.0>
0

>  <SCORE.INTRA.REPUL>
-0.823958

>  <SCORE.INTRA.REPUL.0>
0.823958

>  <SCORE.INTRA.SOLV>
0.883468

>  <SCORE.INTRA.SOLV.lig_0>
-99.3069

>  <SCORE.INTRA.VDW>
-5.48982

>  <SCORE.INTRA.VDW.0>
0.946495

>  <SCORE.INTRA.norm>
-0.291653

>  <SCORE.RESTR>
0

>  <SCORE.RESTR.CAVITY>
0

>  <SCORE.RESTR.norm>
0

>  <SCORE.SYSTEM>
0

>  <SCORE.SYSTEM.CONST>
0

>  <SCORE.SYSTEM.DIHEDRAL>
0

>  <SCORE.SYSTEM.SOLV>
0

>  <SCORE.SYSTEM.norm>
0

>  <SCORE.heavy>
40

>  <SCORE.norm>
-0.556648

>  <RMSD>
0.865

$$$$
1ntb_lig
 OpenBabel11021811403D
libRbt.so/2013.1/901 2013/11/27
 40 42  0  0  0  0  0  0  0  0999 V2000
    9.6955   33.0507   -1.6826 C   0  0  0  0  0  0  0  0  0  0  0  0
   10.4331   34.0928   -1.6701 N   0  0  0  0  0  0  0  0  0  0  0  0
   -0.6931   34.8391   -4.2132 C   0  0  0  0  0  0  0  0  0  0  0  0
   -1.6448   33.9752   -4.8118 O   0  0  0  0  0  0  0  0  0  0  0  0
    5.0875   36.6069    0.6733 C   0  0  0  0  0  0  0  0  0  0  0  0
    5.5782   36.5242    1.8584 N   0  0  0  0  0  0  0  0  0  0  0  0
    0.5021   31.8139   -4.2137 C   0  0  0  0  0  0  0  0  0  0  0  0
   -2.8790   35.0735   -0.2228 C   0  0  0  0  0  0  0  0  0  0  0  0
    7.4664   33.7875   -1.4502 C   0  0  2  0  0  0  0  0  0  0  0  0
    8.6634   33.0723   -0.8614 N   0  0  0  0  0  0  0  0  0  0  0  0
    2.3197   34.0854   -2.2408 C   0  0  2  0  0  0  0  0  0  0  0  0
   -0.3437   36.3467   -1.3488 C   0  0  1  0  0  0  0  0  0  0  0  0
    0.5570   35.2587   -1.2542 O   0  0  0  0  0  0  0  0  0  0  0  0
    6.5901   34.3813   -0.3528 C   0  0  1  0  0  0  0  0  0  0  0  0
    7.4972   35.2929    0.4075 O   0  0  0  0  0  0  0  0  0  0  0  0
    1.0911   34.9494   -2.4599 C   0  0  2  0  0  0  0  0  0  0  0  0
   -0.9446   36.5973    0.0132 C   0  0  1  0  0  0  0  0  0  0  0  0
   -1.6631   35.4492    0.4410 N   0  0  0  0  0  0  0  0  0  0  0  0
    5.3507   35.0888   -0.8970 C   0  0  2  0  0  0  0  0  0  0  0  0
    4.4845   35.6759    0.1044 N   0  0  0  0  0  0  0  0  0  0  0  0
    0.1842   34.0563   -3.2642 C   0  0  1  0  0  0  0  0  0  0  0  0
   -0.6245   33.2641   -2.3881 O   0  0  0  0  0  0  0  0  0  0  0  0
    0.1919   36.8826    0.9805 C   0  0  2  0  0  0  0  0  0  0  0  0
   -0.3155   37.1151    2.2762 O   0  0  0  0  0  0  0  0  0  0  0  0
    4.5537   34.0868   -1.6913 C   0  0  1  0  0  0  0  0  0  0  0  0
    3.5061   34.8670   -2.3317 O   0  0  0  0  0  0  0  0  0  0  0  0
    1.1121   33.1779   -4.0192 C   0  0  1  0  0  0  0  0  0  0  0  0
    2.3124   33.0732   -3.2501 O   0  0  0  0  0  0  0  0  0  0  0  0
    0.9175   38.1242    0.4616 C   0  0  1  0  0  0  0  0  0  0  0  0
    2.0035   38.4535    1.3137 O   0  0  0  0  0  0  0  0  0  0  0  0
    5.4185   33.5107   -2.8447 C   0  0  2  0  0  0  0  0  0  0  0  0
    4.6454   32.5811   -3.5879 O   0  0  0  0  0  0  0  0  0  0  0  0
    1.4281   37.8451   -0.9523 C   0  0  1  0  0  0  0  0  0  0  0  0
    0.3352   37.5134   -1.8073 O   0  0  0  0  0  0  0  0  0  0  0  0
    6.6495   32.7964   -2.2541 C   0  0  1  0  0  0  0  0  0  0  0  0
    7.4586   32.2584   -3.3068 O   0  0  0  0  0  0  0  0  0  0  0  0
    2.1257   39.0974   -1.4840 C   0  0  0  0  0  0  0  0  0  0  0  0
    1.1810   40.1513   -1.5799 O   0  0  0  0  0  0  0  0  0  0  0  0
    9.9516   32.0325   -2.4265 N   0  0  0  0  0  0  0  0  0  0  0  0
    5.1588   37.6847    0.0569 N   0  0  0  0  0  0  0  0  0  0  0  0
  1  2  1  0  0  0  0
  1 39  1  0  0  0  0
  3  4  1  0  0  0  0
  5  6  1  0  0  0  0
  5 40  1  0  0  0  0
  9 10  1  1  0  0  0
  9 14  1  0  0  0  0
  9 35  1  0  0  0  0
 10  1  1  0  0  0  0
 11 16  1  0  0  0  0
 11 28  1  0  0  0  0
 11 26  1  6  0  0  0
 12 17  1  0  0  0  0
 12 34  1  0  0  0  0
 12 13  1  1  0  0  0
 14 15  1  6  0  0  0
 14 19  1  0  0  0  0
 16 13  1  1  0  0  0
 16 21  1  0  0  0  0
 17 18  1  1  0  0  0
 17 23  1  0  0  0  0
 18  8  1  0  0  0  0
 19 20  1  1  0  0  0
 19 25  1  0  0  0  0
 20  5  1  0  0  0  0
 21  3  1  6  0  0  0
 21 22  1  0  0  0  0
 21 27  1  0  0  0  0
 23 24  1  1  0  0  0
 23 29  1  0  0  0  0
 25 26  1  6  0  0  0
 25 31  1  0  0  0  0
 27  7  1  1  0  0  0
 27 28  1  0  0  0  0
 29 30  1  1  0  0  0
 29 33  1  0  0  0  0
 31 32  1  1  0  0  0
 31 35  1  0  0  0  0
 33 34  1  0  0  0  0
 33 37  1  6  0  0  0
 35 36  1  6  0  0  0
 37 38  1  0  0  0  0
M  END
>  <CHROM.1>
-152.77499188,83.70697490,161.76044732,177.55191097,163.41300937,-68.89169266
65.83913397,-104.75418774,-172.27062049,-139.02712581,-63.26426825,3.07941418
35.12056353,-1.41983259,0.25164861,0.16301302,-2.42796549

>  <Name>
1ntb_lig

>  <RI>
0

>  <Rbt.Current_Directory>
/home/itssahil/PROJECTS/Mol_Feturizer/New_Systems/rnas/1ntb

>  <Rbt.Executable>
rbdock ($Id: //depot/dev/client3/rdock/2013.1/src/exe/rbdock.cxx#4 $)

>  <Rbt.Library>
libRbt.so (2013.1, Build901 2013/11/27)

>  <Rbt.Parameter_File>
/export/apps/rDock/src/rDock_2013.1_src/data/scripts/dock_solv.prm

>  <Rbt.Receptor>
prm/pocket_docking_2.prm

>  <SCORE>
-15.5055

>  <SCORE.INTER>
-5.67139

>  <SCORE.INTER.CONST>
1

>  <SCORE.INTER.POLAR>
-1.08444

>  <SCORE.INTER.ROT>
11

>  <SCORE.INTER.SOLV>
22.3632

>  <SCORE.INTER.VDW>
-18.5539

>  <SCORE.INTER.norm>
-0.141785

>  <SCORE.INTRA>
-9.90329

>  <SCORE.INTRA.DIHEDRAL>
-4.86235

>  <SCORE.INTRA.DIHEDRAL.0>
15.4453

>  <SCORE.INTRA.POLAR>
0

>  <SCORE.INTRA.POLAR.0>
0

>  <SCORE.INTRA.REPUL>
-0.823958

>  <SCORE.INTRA.REPUL.0>
0.823958

>  <SCORE.INTRA.SOLV>
0.718801

>  <SCORE.INTRA.SOLV.lig_0>
-99.3069

>  <SCORE.INTRA.VDW>
-3.71173

>  <SCORE.INTRA.VDW.0>
0.946495

>  <SCORE.INTRA.norm>
-0.247582

>  <SCORE.RESTR>
0.0691639

>  <SCORE.RESTR.CAVITY>
0.0691639

>  <SCORE.RESTR.norm>
0.0017291

>  <SCORE.SYSTEM>
0

>  <SCORE.SYSTEM.CONST>
0

>  <SCORE.SYSTEM.DIHEDRAL>
0

>  <SCORE.SYSTEM.SOLV>
0

>  <SCORE.SYSTEM.norm>
0

>  <SCORE.heavy>
40

>  <SCORE.norm>
-0.387638

>  <RMSD>
0.866

$$$$
1ntb_lig
 OpenBabel11021811403D
libRbt.so/2013.1/901 2013/11/27
 40 42  0  0  0  0  0  0  0  0999 V2000
    9.8719   32.9827   -1.4920 C   0  0  0  0  0  0  0  0  0  0  0  0
   10.2918   31.9511   -2.1162 N   0  0  0  0  0  0  0  0  0  0  0  0
   -0.6025   34.9310   -3.9238 C   0  0  0  0  0  0  0  0  0  0  0  0
   -1.5643   34.0939   -4.5442 O   0  0  0  0  0  0  0  0  0  0  0  0
    4.9207   36.5931    0.5149 C   0  0  0  0  0  0  0  0  0  0  0  0
    5.5897   36.9864    1.5395 N   0  0  0  0  0  0  0  0  0  0  0  0
    0.4338   31.8478   -3.9298 C   0  0  0  0  0  0  0  0  0  0  0  0
   -2.6909   34.5583    0.3406 C   0  0  0  0  0  0  0  0  0  0  0  0
    7.5940   33.5769   -1.3366 C   0  0  2  0  0  0  0  0  0  0  0  0
    8.7749   32.8113   -0.7796 N   0  0  0  0  0  0  0  0  0  0  0  0
    2.4370   34.0421   -2.0514 C   0  0  2  0  0  0  0  0  0  0  0  0
   -0.3471   36.1734   -1.1207 C   0  0  1  0  0  0  0  0  0  0  0  0
    0.7744   35.3158   -1.0168 O   0  0  0  0  0  0  0  0  0  0  0  0
    6.7117   34.1129   -0.2145 C   0  0  1  0  0  0  0  0  0  0  0  0
    7.6205   34.9639    0.6111 O   0  0  0  0  0  0  0  0  0  0  0  0
    1.2475   34.9665   -2.2371 C   0  0  2  0  0  0  0  0  0  0  0  0
   -0.9657   36.3289    0.2474 C   0  0  1  0  0  0  0  0  0  0  0  0
   -1.4037   35.0646    0.7242 N   0  0  0  0  0  0  0  0  0  0  0  0
    5.4877   34.8686   -0.7278 C   0  0  2  0  0  0  0  0  0  0  0  0
    4.6166   35.4038    0.2982 N   0  0  0  0  0  0  0  0  0  0  0  0
    0.2670   34.1135   -2.9973 C   0  0  1  0  0  0  0  0  0  0  0  0
   -0.5492   33.3738   -2.0830 O   0  0  0  0  0  0  0  0  0  0  0  0
    0.0949   36.8904    1.1793 C   0  0  2  0  0  0  0  0  0  0  0  0
   -0.4297   37.0467    2.4796 O   0  0  0  0  0  0  0  0  0  0  0  0
    4.6883   33.9280   -1.5917 C   0  0  1  0  0  0  0  0  0  0  0  0
    3.6582   34.7598   -2.1944 O   0  0  0  0  0  0  0  0  0  0  0  0
    1.1201   33.1801   -3.7741 C   0  0  1  0  0  0  0  0  0  0  0  0
    2.3406   33.0211   -3.0473 O   0  0  0  0  0  0  0  0  0  0  0  0
    0.5176   38.2444    0.6088 C   0  0  1  0  0  0  0  0  0  0  0  0
    1.5173   38.8339    1.4254 O   0  0  0  0  0  0  0  0  0  0  0  0
    5.5600   33.4132   -2.7687 C   0  0  2  0  0  0  0  0  0  0  0  0
    4.7847   32.5414   -3.5768 O   0  0  0  0  0  0  0  0  0  0  0  0
    1.0536   38.0394   -0.8084 C   0  0  1  0  0  0  0  0  0  0  0  0
    0.0477   37.4460   -1.6277 O   0  0  0  0  0  0  0  0  0  0  0  0
    6.7749   32.6480   -2.2096 C   0  0  1  0  0  0  0  0  0  0  0  0
    7.5902   32.1657   -3.2843 O   0  0  0  0  0  0  0  0  0  0  0  0
    1.4463   39.3972   -1.3914 C   0  0  0  0  0  0  0  0  0  0  0  0
    2.6076   39.8704   -0.7281 O   0  0  0  0  0  0  0  0  0  0  0  0
   10.4614   34.1239   -1.5693 N   0  0  0  0  0  0  0  0  0  0  0  0
    4.4947   37.4346   -0.2957 N   0  0  0  0  0  0  0  0  0  0  0  0
  1  2  1  0  0  0  0
  1 39  1  0  0  0  0
  3  4  1  0  0  0  0
  5  6  1  0  0  0  0
  5 40  1  0  0  0  0
  9 10  1  1  0  0  0
  9 14  1  0  0  0  0
  9 35  1  0  0  0  0
 10  1  1  0  0  0  0
 11 16  1  0  0  0  0
 11 28  1  0  0  0  0
 11 26  1  6  0  0  0
 12 17  1  0  0  0  0
 12 34  1  0  0  0  0
 12 13  1  1  0  0  0
 14 15  1  1  0  0  0
 14 19  1  0  0  0  0
 16 13  1  1  0  0  0
 16 21  1  0  0  0  0
 17 18  1  1  0  0  0
 17 23  1  0  0  0  0
 18  8  1  0  0  0  0
 19 20  1  1  0  0  0
 19 25  1  0  0  0  0
 20  5  1  0  0  0  0
 21  3  1  6  0  0  0
 21 22  1  0  0  0  0
 21 27  1  0  0  0  0
 23 24  1  1  0  0  0
 23 29  1  0  0  0  0
 25 26  1  6  0  0  0
 25 31  1  0  0  0  0
 27  7  1  1  0  0  0
 27 28  1  0  0  0  0
 29 30  1  1  0  0  0
 29 33  1  0  0  0  0
 31 32  1  6  0  0  0
 31 35  1  0  0  0  0
 33 34  1  0  0  0  0
 33 37  1  6  0  0  0
 35 36  1  6  0  0  0
 37 38  1  0  0  0  0
M  END
>  <CHROM.1>
-143.76294331,-112.54314868,162.19783030,170.29028509,-179.55221288,-84.30377256
95.22654810,-103.36861618,-176.05581852,-133.66045747,70.54647206,3.12123018
35.05919385,-1.24577495,-0.29657290,-0.14253001,0.68881869

>  <Name>
1ntb_lig

>  <RI>
0

>  <Rbt.Current_Directory>
/home/itssahil/PROJECTS/Mol_Feturizer/New_Systems/rnas/1ntb

>  <Rbt.Executable>
rbdock ($Id: //depot/dev/client3/rdock/2013.1/src/exe/rbdock.cxx#4 $)

>  <Rbt.Library>
libRbt.so (2013.1, Build901 2013/11/27)

>  <Rbt.Parameter_File>
/export/apps/rDock/src/rDock_2013.1_src/data/scripts/dock_solv.prm

>  <Rbt.Receptor>
prm/pocket_docking_2.prm

>  <SCORE>
-17.564

>  <SCORE.INTER>
-6.16186

>  <SCORE.INTER.CONST>
1

>  <SCORE.INTER.POLAR>
-1.16725

>  <SCORE.INTER.ROT>
11

>  <SCORE.INTER.SOLV>
21.7382

>  <SCORE.INTER.VDW>
-18.3965

>  <SCORE.INTER.norm>
-0.154047

>  <SCORE.INTRA>
-11.4396

>  <SCORE.INTRA.DIHEDRAL>
-3.69049

>  <SCORE.INTRA.DIHEDRAL.0>
15.4453

>  <SCORE.INTRA.POLAR>
0

>  <SCORE.INTRA.POLAR.0>
0

>  <SCORE.INTRA.REPUL>
-0.804408

>  <SCORE.INTRA.REPUL.0>
0.823958

>  <SCORE.INTRA.SOLV>
0.429881

>  <SCORE.INTRA.SOLV.lig_0>
-99.3069

>  <SCORE.INTRA.VDW>
-5.78722

>  <SCORE.INTRA.VDW.0>
0.946495

>  <SCORE.INTRA.norm>
-0.285989

>  <SCORE.RESTR>
0.037444

>  <SCORE.RESTR.CAVITY>
0.037444

>  <SCORE.RESTR.norm>
0.0009361

>  <SCORE.SYSTEM>
0

>  <SCORE.SYSTEM.CONST>
0

>  <SCORE.SYSTEM.DIHEDRAL>
0

>  <SCORE.SYSTEM.SOLV>
0

>  <SCORE.SYSTEM.norm>
0

>  <SCORE.heavy>
40

>  <SCORE.norm>
-0.4391

>  <RMSD>
0.869

$$$$
1ntb_lig
 OpenBabel11021811403D
libRbt.so/2013.1/901 2013/11/27
 40 42  0  0  0  0  0  0  0  0999 V2000
    9.8596   32.9509   -1.1693 C   0  0  0  0  0  0  0  0  0  0  0  0
   10.4381   31.8489   -1.4538 N   0  0  0  0  0  0  0  0  0  0  0  0
   -0.5104   34.4840   -4.1913 C   0  0  0  0  0  0  0  0  0  0  0  0
   -1.6773   35.1808   -3.7874 O   0  0  0  0  0  0  0  0  0  0  0  0
    4.8567   36.6326    0.3884 C   0  0  0  0  0  0  0  0  0  0  0  0
    5.5703   36.9182    1.4186 N   0  0  0  0  0  0  0  0  0  0  0  0
    0.2434   31.6294   -2.8264 C   0  0  0  0  0  0  0  0  0  0  0  0
   -2.5800   36.1801   -0.4095 C   0  0  0  0  0  0  0  0  0  0  0  0
    7.5864   33.5813   -1.2056 C   0  0  2  0  0  0  0  0  0  0  0  0
    8.7164   32.8441   -0.5196 N   0  0  0  0  0  0  0  0  0  0  0  0
    2.4566   34.2414   -2.0298 C   0  0  2  0  0  0  0  0  0  0  0  0
   -0.0746   36.8329   -2.2176 C   0  0  1  0  0  0  0  0  0  0  0  0
    0.9271   35.9761   -1.7011 O   0  0  0  0  0  0  0  0  0  0  0  0
    6.6171   34.1675   -0.1849 C   0  0  1  0  0  0  0  0  0  0  0  0
    7.4578   35.0572    0.6715 O   0  0  0  0  0  0  0  0  0  0  0  0
    1.3535   35.0912   -2.6337 C   0  0  2  0  0  0  0  0  0  0  0  0
   -0.6782   37.6148   -1.0762 C   0  0  1  0  0  0  0  0  0  0  0  0
   -1.2780   36.7241   -0.1466 N   0  0  0  0  0  0  0  0  0  0  0  0
    5.4406   34.8968   -0.8304 C   0  0  2  0  0  0  0  0  0  0  0  0
    4.4903   35.4776    0.0954 N   0  0  0  0  0  0  0  0  0  0  0  0
    0.2918   34.0801   -2.9764 C   0  0  1  0  0  0  0  0  0  0  0  0
   -0.5778   33.8854   -1.8562 O   0  0  0  0  0  0  0  0  0  0  0  0
    0.4387   38.3902   -0.3982 C   0  0  2  0  0  0  0  0  0  0  0  0
   -0.0711   39.1340    0.6869 O   0  0  0  0  0  0  0  0  0  0  0  0
    4.7118   33.9159   -1.7119 C   0  0  1  0  0  0  0  0  0  0  0  0
    3.7360   34.7173   -2.4343 O   0  0  0  0  0  0  0  0  0  0  0  0
    1.0488   32.8321   -3.2449 C   0  0  1  0  0  0  0  0  0  0  0  0
    2.2578   32.9011   -2.4854 O   0  0  0  0  0  0  0  0  0  0  0  0
    1.0355   39.3244   -1.4510 C   0  0  1  0  0  0  0  0  0  0  0  0
    2.0964   40.0838   -0.8928 O   0  0  0  0  0  0  0  0  0  0  0  0
    5.6751   33.3484   -2.7891 C   0  0  2  0  0  0  0  0  0  0  0  0
    4.9660   32.4389   -3.6162 O   0  0  0  0  0  0  0  0  0  0  0  0
    1.5513   38.4866   -2.6215 C   0  0  1  0  0  0  0  0  0  0  0  0
    0.4837   37.7233   -3.1808 O   0  0  0  0  0  0  0  0  0  0  0  0
    6.8388   32.6117   -2.0983 C   0  0  1  0  0  0  0  0  0  0  0  0
    7.7376   32.0813   -3.0797 O   0  0  0  0  0  0  0  0  0  0  0  0
    2.1189   39.4224   -3.6890 C   0  0  0  0  0  0  0  0  0  0  0  0
    1.1052   40.3233   -4.1051 O   0  0  0  0  0  0  0  0  0  0  0  0
   10.3422   34.0930   -1.5134 N   0  0  0  0  0  0  0  0  0  0  0  0
    4.4507   37.5501   -0.3464 N   0  0  0  0  0  0  0  0  0  0  0  0
  1  2  1  0  0  0  0
  1 39  1  0  0  0  0
  3  4  1  0  0  0  0
  5  6  1  0  0  0  0
  5 40  1  0  0  0  0
  9 10  1  1  0  0  0
  9 14  1  0  0  0  0
  9 35  1  0  0  0  0
 10  1  1  0  0  0  0
 11 16  1  0  0  0  0
 11 28  1  0  0  0  0
 11 26  1  6  0  0  0
 12 17  1  0  0  0  0
 12 34  1  0  0  0  0
 12 13  1  1  0  0  0
 14 15  1  1  0  0  0
 14 19  1  0  0  0  0
 16 13  1  1  0  0  0
 16 21  1  0  0  0  0
 17 18  1  1  0  0  0
 17 23  1  0  0  0  0
 18  8  1  0  0  0  0
 19 20  1  1  0  0  0
 19 25  1  0  0  0  0
 20  5  1  0  0  0  0
 21  3  1  6  0  0  0
 21 22  1  0  0  0  0
 21 27  1  0  0  0  0
 23 24  1  1  0  0  0
 23 29  1  0  0  0  0
 25 26  1  6  0  0  0
 25 31  1  0  0  0  0
 27  7  1  1  0  0  0
 27 28  1  0  0  0  0
 29 30  1  1  0  0  0
 29 33  1  0  0  0  0
 31 32  1  6  0  0  0
 31 35  1  0  0  0  0
 33 34  1  0  0  0  0
 33 37  1  6  0  0  0
 35 36  1  6  0  0  0
 37 38  1  0  0  0  0
M  END
>  <CHROM.1>
-145.65853834,-126.18812094,175.07092623,169.83341356,177.99153052,-79.96565392
88.40691289,-93.93674895,-93.76632914,-116.54088024,-58.18887590,3.18206253
35.41034616,-1.70805957,-0.38619858,-0.23435894,0.35793702

>  <Name>
1ntb_lig

>  <RI>
0

>  <Rbt.Current_Directory>
/home/itssahil/PROJECTS/Mol_Feturizer/New_Systems/rnas/1ntb

>  <Rbt.Executable>
rbdock ($Id: //depot/dev/client3/rdock/2013.1/src/exe/rbdock.cxx#4 $)

>  <Rbt.Library>
libRbt.so (2013.1, Build901 2013/11/27)

>  <Rbt.Parameter_File>
/export/apps/rDock/src/rDock_2013.1_src/data/scripts/dock_solv.prm

>  <Rbt.Receptor>
prm/pocket_docking_2.prm

>  <SCORE>
-19.0141

>  <SCORE.INTER>
-8.43016

>  <SCORE.INTER.CONST>
1

>  <SCORE.INTER.POLAR>
-1.06158

>  <SCORE.INTER.ROT>
11

>  <SCORE.INTER.SOLV>
22.8676

>  <SCORE.INTER.VDW>
-20.6374

>  <SCORE.INTER.norm>
-0.210754

>  <SCORE.INTRA>
-10.584

>  <SCORE.INTRA.DIHEDRAL>
-2.27295

>  <SCORE.INTRA.DIHEDRAL.0>
15.4453

>  <SCORE.INTRA.POLAR>
0

>  <SCORE.INTRA.POLAR.0>
0

>  <SCORE.INTRA.REPUL>
-0.812197

>  <SCORE.INTRA.REPUL.0>
0.823958

>  <SCORE.INTRA.SOLV>
0.542141

>  <SCORE.INTRA.SOLV.lig_0>
-99.3069

>  <SCORE.INTRA.VDW>
-5.6576

>  <SCORE.INTRA.VDW.0>
0.946495

>  <SCORE.INTRA.norm>
-0.2646

>  <SCORE.RESTR>
0

>  <SCORE.RESTR.CAVITY>
0

>  <SCORE.RESTR.norm>
0

>  <SCORE.SYSTEM>
0

>  <SCORE.SYSTEM.CONST>
0

>  <SCORE.SYSTEM.DIHEDRAL>
0

>  <SCORE.SYSTEM.SOLV>
0

>  <SCORE.SYSTEM.norm>
0

>  <SCORE.heavy>
40

>  <SCORE.norm>
-0.475354

>  <RMSD>
0.871

$$$$
1ntb_lig
 OpenBabel11021811403D
libRbt.so/2013.1/901 2013/11/27
 40 42  0  0  0  0  0  0  0  0999 V2000
   10.0361   32.9008   -1.6404 C   0  0  0  0  0  0  0  0  0  0  0  0
   10.4715   34.1005   -1.6040 N   0  0  0  0  0  0  0  0  0  0  0  0
   -0.5826   34.4922   -4.0507 C   0  0  0  0  0  0  0  0  0  0  0  0
   -1.6992   33.6281   -4.1797 O   0  0  0  0  0  0  0  0  0  0  0  0
    4.6108   35.9673    0.2678 C   0  0  0  0  0  0  0  0  0  0  0  0
    4.0902   37.0034   -0.2867 N   0  0  0  0  0  0  0  0  0  0  0  0
    0.1832   31.5355   -2.9321 C   0  0  0  0  0  0  0  0  0  0  0  0
   -1.7532   35.7650    0.5681 C   0  0  0  0  0  0  0  0  0  0  0  0
    7.7384   33.4342   -1.5957 C   0  0  2  0  0  0  0  0  0  0  0  0
    8.9069   32.6838   -0.9938 N   0  0  0  0  0  0  0  0  0  0  0  0
    2.5987   34.0015   -2.2694 C   0  0  2  0  0  0  0  0  0  0  0  0
    0.0157   36.5107   -1.9102 C   0  0  1  0  0  0  0  0  0  0  0  0
    1.2041   35.7785   -1.6742 O   0  0  0  0  0  0  0  0  0  0  0  0
    6.6853   33.7454   -0.5378 C   0  0  1  0  0  0  0  0  0  0  0  0
    7.4115   34.5352    0.5018 O   0  0  0  0  0  0  0  0  0  0  0  0
    1.4762   34.9304   -2.6947 C   0  0  2  0  0  0  0  0  0  0  0  0
   -0.3003   37.3292   -0.6819 C   0  0  1  0  0  0  0  0  0  0  0  0
   -0.5102   36.4691    0.4288 N   0  0  0  0  0  0  0  0  0  0  0  0
    5.4699   34.4770   -1.1036 C   0  0  2  0  0  0  0  0  0  0  0  0
    4.4394   34.8014   -0.1390 N   0  0  0  0  0  0  0  0  0  0  0  0
    0.3338   33.9864   -2.9611 C   0  0  1  0  0  0  0  0  0  0  0  0
   -0.4091   33.7659   -1.7576 O   0  0  0  0  0  0  0  0  0  0  0  0
    0.8844   38.2407   -0.4096 C   0  0  2  0  0  0  0  0  0  0  0  0
    0.6448   39.0243    0.7390 O   0  0  0  0  0  0  0  0  0  0  0  0
    4.8643   33.6118   -2.1782 C   0  0  1  0  0  0  0  0  0  0  0  0
    3.8446   34.4446   -2.7970 O   0  0  0  0  0  0  0  0  0  0  0  0
    0.9928   32.7245   -3.3806 C   0  0  1  0  0  0  0  0  0  0  0  0
    2.2833   32.6989   -2.7664 O   0  0  0  0  0  0  0  0  0  0  0  0
    1.0509   39.1342   -1.6390 C   0  0  1  0  0  0  0  0  0  0  0  0
    2.1487   40.0160   -1.4634 O   0  0  0  0  0  0  0  0  0  0  0  0
    5.9116   33.3286   -3.2888 C   0  0  2  0  0  0  0  0  0  0  0  0
    5.3172   32.5252   -4.2965 O   0  0  0  0  0  0  0  0  0  0  0  0
    1.2804   38.2510   -2.8659 C   0  0  1  0  0  0  0  0  0  0  0  0
    0.1762   37.3647   -3.0404 O   0  0  0  0  0  0  0  0  0  0  0  0
    7.1134   32.5805   -2.6803 C   0  0  1  0  0  0  0  0  0  0  0  0
    8.0899   32.3112   -3.6933 O   0  0  0  0  0  0  0  0  0  0  0  0
    1.4148   39.1426   -4.1006 C   0  0  0  0  0  0  0  0  0  0  0  0
    2.6085   39.9022   -3.9988 O   0  0  0  0  0  0  0  0  0  0  0  0
   10.6663   31.9557   -2.2449 N   0  0  0  0  0  0  0  0  0  0  0  0
    5.3767   36.1133    1.2367 N   0  0  0  0  0  0  0  0  0  0  0  0
  1  2  1  0  0  0  0
  1 39  1  0  0  0  0
  3  4  1  0  0  0  0
  5  6  1  0  0  0  0
  5 40  1  0  0  0  0
  9 10  1  1  0  0  0
  9 14  1  0  0  0  0
  9 35  1  0  0  0  0
 10  1  1  0  0  0  0
 11 16  1  0  0  0  0
 11 28  1  0  0  0  0
 11 26  1  6  0  0  0
 12 17  1  0  0  0  0
 12 34  1  0  0  0  0
 12 13  1  1  0  0  0
 14 15  1  1  0  0  0
 14 19  1  0  0  0  0
 16 13  1  1  0  0  0
 16 21  1  0  0  0  0
 17 18  1  1  0  0  0
 17 23  1  0  0  0  0
 18  8  1  0  0  0  0
 19 20  1  1  0  0  0
 19 25  1  0  0  0  0
 20  5  1  0  0  0  0
 21  3  1  6  0  0  0
 21 22  1  0  0  0  0
 21 27  1  0  0  0  0
 23 24  1  1  0  0  0
 23 29  1  0  0  0  0
 25 26  1  6  0  0  0
 25 31  1  0  0  0  0
 27  7  1  1  0  0  0
 27 28  1  0  0  0  0
 29 30  1  1  0  0  0
 29 33  1  0  0  0  0
 31 32  1  6  0  0  0
 31 35  1  0  0  0  0
 33 34  1  0  0  0  0
 33 37  1  6  0  0  0
 35 36  1  6  0  0  0
 37 38  1  0  0  0  0
M  END
>  <CHROM.1>
-151.85142094,64.56036769,171.92708936,174.43069486,-169.51792245,-77.55575455
95.19189337,89.85559186,-174.93164723,-102.12181838,67.14703593,3.33023557
35.14620220,-1.87020553,-0.38341512,-0.18358785,0.40844400

>  <Name>
1ntb_lig

>  <RI>
0

>  <Rbt.Current_Directory>
/home/itssahil/PROJECTS/Mol_Feturizer/New_Systems/rnas/1ntb

>  <Rbt.Executable>
rbdock ($Id: //depot/dev/client3/rdock/2013.1/src/exe/rbdock.cxx#4 $)

>  <Rbt.Library>
libRbt.so (2013.1, Build901 2013/11/27)

>  <Rbt.Parameter_File>
/export/apps/rDock/src/rDock_2013.1_src/data/scripts/dock_solv.prm

>  <Rbt.Receptor>
prm/pocket_docking_2.prm

>  <SCORE>
-19.8722

>  <SCORE.INTER>
-9.97772

>  <SCORE.INTER.CONST>
1

>  <SCORE.INTER.POLAR>
-1.03518

>  <SCORE.INTER.ROT>
11

>  <SCORE.INTER.SOLV>
21.7504

>  <SCORE.INTER.VDW>
-21.3847

>  <SCORE.INTER.norm>
-0.249443

>  <SCORE.INTRA>
-9.90413

>  <SCORE.INTRA.DIHEDRAL>
-5.29079

>  <SCORE.INTRA.DIHEDRAL.0>
15.4453

>  <SCORE.INTRA.POLAR>
0

>  <SCORE.INTRA.POLAR.0>
0

>  <SCORE.INTRA.REPUL>
-0.823958

>  <SCORE.INTRA.REPUL.0>
0.823958

>  <SCORE.INTRA.SOLV>
1.45807

>  <SCORE.INTRA.SOLV.lig_0>
-99.3069

>  <SCORE.INTRA.VDW>
-3.86798

>  <SCORE.INTRA.VDW.0>
0.946495

>  <SCORE.INTRA.norm>
-0.247603

>  <SCORE.RESTR>
0.0096727

>  <SCORE.RESTR.CAVITY>
0.0096727

>  <SCORE.RESTR.norm>
0.000241818

>  <SCORE.SYSTEM>
0

>  <SCORE.SYSTEM.CONST>
0

>  <SCORE.SYSTEM.DIHEDRAL>
0

>  <SCORE.SYSTEM.SOLV>
0

>  <SCORE.SYSTEM.norm>
0

>  <SCORE.heavy>
40

>  <SCORE.norm>
-0.496804

>  <RMSD>
0.885

$$$$
1ntb_lig
 OpenBabel11021811403D
libRbt.so/2013.1/901 2013/11/27
 40 42  0  0  0  0  0  0  0  0999 V2000
   10.1009   32.9208   -1.2803 C   0  0  0  0  0  0  0  0  0  0  0  0
   10.8989   31.9395   -1.4544 N   0  0  0  0  0  0  0  0  0  0  0  0
   -0.3307   34.5408   -4.4340 C   0  0  0  0  0  0  0  0  0  0  0  0
   -1.4640   33.7043   -4.5954 O   0  0  0  0  0  0  0  0  0  0  0  0
    4.8343   36.0418    0.3284 C   0  0  0  0  0  0  0  0  0  0  0  0
    4.6981   37.1816   -0.2499 N   0  0  0  0  0  0  0  0  0  0  0  0
    0.3238   31.6142   -3.1745 C   0  0  0  0  0  0  0  0  0  0  0  0
   -2.1656   35.8594   -0.2735 C   0  0  0  0  0  0  0  0  0  0  0  0
    7.7957   33.3821   -1.4776 C   0  0  2  0  0  0  0  0  0  0  0  0
    8.9103   32.6106   -0.8044 N   0  0  0  0  0  0  0  0  0  0  0  0
    2.7044   34.0834   -2.4058 C   0  0  2  0  0  0  0  0  0  0  0  0
    0.1759   36.6793   -2.3517 C   0  0  1  0  0  0  0  0  0  0  0  0
    1.2847   35.8865   -1.9694 O   0  0  0  0  0  0  0  0  0  0  0  0
    6.7249   33.7866   -0.4703 C   0  0  1  0  0  0  0  0  0  0  0  0
    7.4526   34.5914    0.5566 O   0  0  0  0  0  0  0  0  0  0  0  0
    1.6249   35.0063   -2.9413 C   0  0  2  0  0  0  0  0  0  0  0  0
   -0.3847   37.3520   -1.1222 C   0  0  1  0  0  0  0  0  0  0  0  0
   -0.8266   36.3705   -0.1956 N   0  0  0  0  0  0  0  0  0  0  0  0
    5.5614   34.5429   -1.1082 C   0  0  2  0  0  0  0  0  0  0  0  0
    4.5168   34.9553   -0.1938 N   0  0  0  0  0  0  0  0  0  0  0  0
    0.4974   34.0621   -3.2645 C   0  0  1  0  0  0  0  0  0  0  0  0
   -0.3352   33.8827   -2.1139 O   0  0  0  0  0  0  0  0  0  0  0  0
    0.7224   38.1857   -0.4993 C   0  0  2  0  0  0  0  0  0  0  0  0
    0.2530   38.8310    0.6642 O   0  0  0  0  0  0  0  0  0  0  0  0
    4.9519   33.6559   -2.1627 C   0  0  1  0  0  0  0  0  0  0  0  0
    3.9900   34.5024   -2.8515 O   0  0  0  0  0  0  0  0  0  0  0  0
    1.1748   32.7840   -3.5960 C   0  0  1  0  0  0  0  0  0  0  0  0
    2.4156   32.7685   -2.8864 O   0  0  0  0  0  0  0  0  0  0  0  0
    1.1469   39.2162   -1.5458 C   0  0  1  0  0  0  0  0  0  0  0  0
    2.1890   40.0348   -1.0383 O   0  0  0  0  0  0  0  0  0  0  0  0
    6.0197   33.2771   -3.2241 C   0  0  2  0  0  0  0  0  0  0  0  0
    5.4220   32.4545   -4.2141 O   0  0  0  0  0  0  0  0  0  0  0  0
    1.6222   38.4818   -2.7999 C   0  0  1  0  0  0  0  0  0  0  0  0
    0.5736   37.6588   -3.3082 O   0  0  0  0  0  0  0  0  0  0  0  0
    7.1676   32.5070   -2.5432 C   0  0  1  0  0  0  0  0  0  0  0  0
    8.1623   32.1496   -3.5103 O   0  0  0  0  0  0  0  0  0  0  0  0
    2.0163   39.5121   -3.8585 C   0  0  0  0  0  0  0  0  0  0  0  0
    0.9090   40.3601   -4.1178 O   0  0  0  0  0  0  0  0  0  0  0  0
   10.4223   34.1321   -1.5721 N   0  0  0  0  0  0  0  0  0  0  0  0
    5.3595   35.9874    1.4544 N   0  0  0  0  0  0  0  0  0  0  0  0
  1  2  1  0  0  0  0
  1 39  1  0  0  0  0
  3  4  1  0  0  0  0
  5  6  1  0  0  0  0
  5 40  1  0  0  0  0
  9 10  1  1  0  0  0
  9 14  1  0  0  0  0
  9 35  1  0  0  0  0
 10  1  1  0  0  0  0
 11 16  1  0  0  0  0
 11 28  1  0  0  0  0
 11 26  1  6  0  0  0
 12 17  1  0  0  0  0
 12 34  1  0  0  0  0
 12 13  1  1  0  0  0
 14 15  1  1  0  0  0
 14 19  1  0  0  0  0
 16 13  1  1  0  0  0
 16 21  1  0  0  0  0
 17 18  1  1  0  0  0
 17 23  1  0  0  0  0
 18  8  1  0  0  0  0
 19 20  1  1  0  0  0
 19 25  1  0  0  0  0
 20  5  1  0  0  0  0
 21  3  1  6  0  0  0
 21 22  1  0  0  0  0
 21 27  1  0  0  0  0
 23 24  1  1  0  0  0
 23 29  1  0  0  0  0
 25 26  1  6  0  0  0
 25 31  1  0  0  0  0
 27  7  1  1  0  0  0
 27 28  1  0  0  0  0
 29 30  1  1  0  0  0
 29 33  1  0  0  0  0
 31 32  1  6  0  0  0
 31 35  1  0  0  0  0
 33 34  1  0  0  0  0
 33 37  1  6  0  0  0
 35 36  1  6  0  0  0
 37 38  1  0  0  0  0
M  END
>  <CHROM.1>
-141.23508543,-138.68191334,173.52320552,164.61884352,-173.33787587,-88.15681095
84.77439087,79.82040927,-173.16085069,-105.51096250,-57.02950971,3.37391248
35.20411186,-1.93481564,-0.36957593,-0.25774113,0.43077349

>  <Name>
1ntb_lig

>  <RI>
0

>  <Rbt.Current_Directory>
/home/itssahil/PROJECTS/Mol_Feturizer/New_Systems/rnas/1ntb

>  <Rbt.Executable>
rbdock ($Id: //depot/dev/client3/rdock/2013.1/src/exe/rbdock.cxx#4 $)

>  <Rbt.Library>
libRbt.so (2013.1, Build901 2013/11/27)

>  <Rbt.Parameter_File>
/export/apps/rDock/src/rDock_2013.1_src/data/scripts/dock_solv.prm

>  <Rbt.Receptor>
prm/pocket_docking_2.prm

>  <SCORE>
-20.9284

>  <SCORE.INTER>
-10.1224

>  <SCORE.INTER.CONST>
1

>  <SCORE.INTER.POLAR>
-1.04446

>  <SCORE.INTER.ROT>
11

>  <SCORE.INTER.SOLV>
24.1494

>  <SCORE.INTER.VDW>
-22.2498

>  <SCORE.INTER.norm>
-0.253059

>  <SCORE.INTRA>
-10.856

>  <SCORE.INTRA.DIHEDRAL>
-4.2291

>  <SCORE.INTRA.DIHEDRAL.0>
15.4453

>  <SCORE.INTRA.POLAR>
0

>  <SCORE.INTRA.POLAR.0>
0

>  <SCORE.INTRA.REPUL>
-0.802734

>  <SCORE.INTRA.REPUL.0>
0.823958

>  <SCORE.INTRA.SOLV>
-0.503392

>  <SCORE.INTRA.SOLV.lig_0>
-99.3069

>  <SCORE.INTRA.VDW>
-4.47604

>  <SCORE.INTRA.VDW.0>
0.946495

>  <SCORE.INTRA.norm>
-0.271399

>  <SCORE.RESTR>
0.0499583

>  <SCORE.RESTR.CAVITY>
0.0499583

>  <SCORE.RESTR.norm>
0.00124896

>  <SCORE.SYSTEM>
0

>  <SCORE.SYSTEM.CONST>
0

>  <SCORE.SYSTEM.DIHEDRAL>
0

>  <SCORE.SYSTEM.SOLV>
0

>  <SCORE.SYSTEM.norm>
0

>  <SCORE.heavy>
40

>  <SCORE.norm>
-0.523209

>  <RMSD>
0.889

$$$$
1ntb_lig
 OpenBabel11021811403D
libRbt.so/2013.1/901 2013/11/27
 40 42  0  0  0  0  0  0  0  0999 V2000
    9.8488   32.9594   -1.4813 C   0  0  0  0  0  0  0  0  0  0  0  0
   10.2814   31.9280   -2.0974 N   0  0  0  0  0  0  0  0  0  0  0  0
   -0.6238   34.8778   -4.0843 C   0  0  0  0  0  0  0  0  0  0  0  0
   -1.6402   34.0454   -4.6177 O   0  0  0  0  0  0  0  0  0  0  0  0
    5.0759   36.5463    0.4784 C   0  0  0  0  0  0  0  0  0  0  0  0
    5.1506   37.6070   -0.2437 N   0  0  0  0  0  0  0  0  0  0  0  0
    0.3575   31.7790   -3.9633 C   0  0  0  0  0  0  0  0  0  0  0  0
   -2.8679   35.5582    0.9068 C   0  0  0  0  0  0  0  0  0  0  0  0
    7.5623   33.5364   -1.4145 C   0  0  2  0  0  0  0  0  0  0  0  0
    8.7297   32.7915   -0.8035 N   0  0  0  0  0  0  0  0  0  0  0  0
    2.4150   34.0164   -2.1981 C   0  0  2  0  0  0  0  0  0  0  0  0
   -0.1277   36.4393   -1.3355 C   0  0  1  0  0  0  0  0  0  0  0  0
    0.7841   35.3640   -1.2076 O   0  0  0  0  0  0  0  0  0  0  0  0
    6.6715   34.1380   -0.3331 C   0  0  1  0  0  0  0  0  0  0  0  0
    7.5780   35.0238    0.4579 O   0  0  0  0  0  0  0  0  0  0  0  0
    1.2407   34.9533   -2.4149 C   0  0  2  0  0  0  0  0  0  0  0  0
   -0.8390   36.6298   -0.0178 C   0  0  1  0  0  0  0  0  0  0  0  0
   -1.5662   35.4549    0.3110 N   0  0  0  0  0  0  0  0  0  0  0  0
    5.4605   34.8757   -0.9004 C   0  0  2  0  0  0  0  0  0  0  0  0
    4.5821   35.4713    0.0852 N   0  0  0  0  0  0  0  0  0  0  0  0
    0.2388   34.0859   -3.1296 C   0  0  1  0  0  0  0  0  0  0  0  0
   -0.5827   33.4017   -2.1777 O   0  0  0  0  0  0  0  0  0  0  0  0
    0.2116   36.8990    1.0463 C   0  0  2  0  0  0  0  0  0  0  0  0
   -0.4011   37.0754    2.3049 O   0  0  0  0  0  0  0  0  0  0  0  0
    4.6630   33.8976   -1.7234 C   0  0  1  0  0  0  0  0  0  0  0  0
    3.6476   34.7050   -2.3817 O   0  0  0  0  0  0  0  0  0  0  0  0
    1.0687   33.1042   -3.8714 C   0  0  1  0  0  0  0  0  0  0  0  0
    2.2922   32.9549   -3.1476 O   0  0  0  0  0  0  0  0  0  0  0  0
    0.9512   38.1708    0.6306 C   0  0  1  0  0  0  0  0  0  0  0  0
    1.9597   38.4872    1.5775 O   0  0  0  0  0  0  0  0  0  0  0  0
    5.5440   33.3144   -2.8610 C   0  0  2  0  0  0  0  0  0  0  0  0
    4.7707   32.4077   -3.6317 O   0  0  0  0  0  0  0  0  0  0  0  0
    1.5773   37.9521   -0.7471 C   0  0  1  0  0  0  0  0  0  0  0  0
    0.5621   37.6333   -1.6974 O   0  0  0  0  0  0  0  0  0  0  0  0
    6.7454   32.5697   -2.2475 C   0  0  1  0  0  0  0  0  0  0  0  0
    7.5690   32.0248   -3.2853 O   0  0  0  0  0  0  0  0  0  0  0  0
    2.2897   39.2346   -1.1774 C   0  0  0  0  0  0  0  0  0  0  0  0
    1.3920   40.3270   -1.0620 O   0  0  0  0  0  0  0  0  0  0  0  0
   10.4473   34.0972   -1.5353 N   0  0  0  0  0  0  0  0  0  0  0  0
    5.5649   36.5506    1.6219 N   0  0  0  0  0  0  0  0  0  0  0  0
  1  2  1  0  0  0  0
  1 39  1  0  0  0  0
  3  4  1  0  0  0  0
  5  6  1  0  0  0  0
  5 40  1  0  0  0  0
  9 10  1  1  0  0  0
  9 14  1  0  0  0  0
  9 35  1  0  0  0  0
 10  1  1  0  0  0  0
 11 16  1  0  0  0  0
 11 28  1  0  0  0  0
 11 26  1  6  0  0  0
 12 17  1  0  0  0  0
 12 34  1  0  0  0  0
 12 13  1  1  0  0  0
 14 15  1  6  0  0  0
 14 19  1  0  0  0  0
 16 13  1  1  0  0  0
 16 21  1  0  0  0  0
 17 18  1  1  0  0  0
 17 23  1  0  0  0  0
 18  8  1  0  0  0  0
 19 20  1  1  0  0  0
 19 25  1  0  0  0  0
 20  5  1  0  0  0  0
 21  3  1  6  0  0  0
 21 22  1  0  0  0  0
 21 27  1  0  0  0  0
 23 24  1  1  0  0  0
 23 29  1  0  0  0  0
 25 26  1  6  0  0  0
 25 31  1  0  0  0  0
 27  7  1  1  0  0  0
 27 28  1  0  0  0  0
 29 30  1  1  0  0  0
 29 33  1  0  0  0  0
 31 32  1  1  0  0  0
 31 35  1  0  0  0  0
 33 34  1  0  0  0  0
 33 37  1  6  0  0  0
 35 36  1  6  0  0  0
 37 38  1  0  0  0  0
M  END
>  <CHROM.1>
-141.24267704,-110.96575194,160.87923112,166.70695338,168.17664076,-140.58287043
79.53626284,70.50647769,-173.63027933,-132.77091865,-52.08911729,3.15987896
35.08180681,-1.31748601,-0.30949654,-0.16048392,0.69232861

>  <Name>
1ntb_lig

>  <RI>
0

>  <Rbt.Current_Directory>
/home/itssahil/PROJECTS/Mol_Feturizer/New_Systems/rnas/1ntb

>  <Rbt.Executable>
rbdock ($Id: //depot/dev/client3/rdock/2013.1/src/exe/rbdock.cxx#4 $)

>  <Rbt.Library>
libRbt.so (2013.1, Build901 2013/11/27)

>  <Rbt.Parameter_File>
/export/apps/rDock/src/rDock_2013.1_src/data/scripts/dock_solv.prm

>  <Rbt.Receptor>
prm/pocket_docking_2.prm

>  <SCORE>
-17.945

>  <SCORE.INTER>
-6.846

>  <SCORE.INTER.CONST>
1

>  <SCORE.INTER.POLAR>
-1.24104

>  <SCORE.INTER.ROT>
11

>  <SCORE.INTER.SOLV>
23.6182

>  <SCORE.INTER.VDW>
-19.2332

>  <SCORE.INTER.norm>
-0.17115

>  <SCORE.INTRA>
-11.1014

>  <SCORE.INTRA.DIHEDRAL>
-2.04909

>  <SCORE.INTRA.DIHEDRAL.0>
15.4453

>  <SCORE.INTRA.POLAR>
0

>  <SCORE.INTRA.POLAR.0>
0

>  <SCORE.INTRA.REPUL>
-0.799752

>  <SCORE.INTRA.REPUL.0>
0.823958

>  <SCORE.INTRA.SOLV>
0.406555

>  <SCORE.INTRA.SOLV.lig_0>
-99.3069

>  <SCORE.INTRA.VDW>
-6.28135

>  <SCORE.INTRA.VDW.0>
0.946495

>  <SCORE.INTRA.norm>
-0.277535

>  <SCORE.RESTR>
0.00238415

>  <SCORE.RESTR.CAVITY>
0.00238415

>  <SCORE.RESTR.norm>
5.96036e-05

>  <SCORE.SYSTEM>
0

>  <SCORE.SYSTEM.CONST>
0

>  <SCORE.SYSTEM.DIHEDRAL>
0

>  <SCORE.SYSTEM.SOLV>
0

>  <SCORE.SYSTEM.norm>
0

>  <SCORE.heavy>
40

>  <SCORE.norm>
-0.448625

>  <RMSD>
0.892

$$$$
1ntb_lig
 OpenBabel11021811403D
libRbt.so/2013.1/901 2013/11/27
 40 42  0  0  0  0  0  0  0  0999 V2000
   10.0088   32.9928   -0.9680 C   0  0  0  0  0  0  0  0  0  0  0  0
   11.0080   32.8242   -0.1911 N   0  0  0  0  0  0  0  0  0  0  0  0
   -0.3805   34.4452   -4.0790 C   0  0  0  0  0  0  0  0  0  0  0  0
    0.4948   34.6803   -5.1694 O   0  0  0  0  0  0  0  0  0  0  0  0
    5.0493   36.5061    0.5832 C   0  0  0  0  0  0  0  0  0  0  0  0
    4.9923   37.5466   -0.1691 N   0  0  0  0  0  0  0  0  0  0  0  0
    0.3707   31.5734   -2.7492 C   0  0  0  0  0  0  0  0  0  0  0  0
   -0.1950   35.9317    0.9714 C   0  0  0  0  0  0  0  0  0  0  0  0
    7.7019   33.4642   -1.1162 C   0  0  2  0  0  0  0  0  0  0  0  0
    8.8297   32.7040   -0.4518 N   0  0  0  0  0  0  0  0  0  0  0  0
    2.5727   34.1788   -1.9014 C   0  0  2  0  0  0  0  0  0  0  0  0
   -0.0255   36.7061   -2.0422 C   0  0  1  0  0  0  0  0  0  0  0  0
    1.0371   35.9054   -1.5586 O   0  0  0  0  0  0  0  0  0  0  0  0
    6.7497   34.0474   -0.0779 C   0  0  1  0  0  0  0  0  0  0  0  0
    7.6094   34.9149    0.7825 O   0  0  0  0  0  0  0  0  0  0  0  0
    1.4717   35.0346   -2.5007 C   0  0  2  0  0  0  0  0  0  0  0  0
   -0.5881   37.5083   -0.8939 C   0  0  1  0  0  0  0  0  0  0  0  0
   -1.0967   36.6323    0.1018 N   0  0  0  0  0  0  0  0  0  0  0  0
    5.5758   34.7996   -0.7014 C   0  0  2  0  0  0  0  0  0  0  0  0
    4.6416   35.3786    0.2418 N   0  0  0  0  0  0  0  0  0  0  0  0
    0.4146   34.0260   -2.8645 C   0  0  1  0  0  0  0  0  0  0  0  0
   -0.4619   33.8138   -1.7529 O   0  0  0  0  0  0  0  0  0  0  0  0
    0.5377   38.3478   -0.3138 C   0  0  2  0  0  0  0  0  0  0  0  0
    0.0666   39.1131    0.7738 O   0  0  0  0  0  0  0  0  0  0  0  0
    4.8268   33.8401   -1.5893 C   0  0  1  0  0  0  0  0  0  0  0  0
    3.8537   34.6631   -2.2907 O   0  0  0  0  0  0  0  0  0  0  0  0
    1.1761   32.7836   -3.1455 C   0  0  1  0  0  0  0  0  0  0  0  0
    2.3799   32.8446   -2.3771 O   0  0  0  0  0  0  0  0  0  0  0  0
    1.0341   39.2625   -1.4338 C   0  0  1  0  0  0  0  0  0  0  0  0
    2.0973   40.0794   -0.9692 O   0  0  0  0  0  0  0  0  0  0  0  0
    5.7726   33.2764   -2.6839 C   0  0  2  0  0  0  0  0  0  0  0  0
    5.0447   32.3872   -3.5166 O   0  0  0  0  0  0  0  0  0  0  0  0
    1.5095   38.4003   -2.6036 C   0  0  1  0  0  0  0  0  0  0  0  0
    0.4396   37.5792   -3.0687 O   0  0  0  0  0  0  0  0  0  0  0  0
    6.9341   32.5163   -2.0150 C   0  0  1  0  0  0  0  0  0  0  0  0
    7.8168   31.9892   -3.0126 O   0  0  0  0  0  0  0  0  0  0  0  0
    1.9759   39.3150   -3.7364 C   0  0  0  0  0  0  0  0  0  0  0  0
    0.9238   40.2015   -4.0822 O   0  0  0  0  0  0  0  0  0  0  0  0
   10.1395   33.3933   -2.1838 N   0  0  0  0  0  0  0  0  0  0  0  0
    5.5856   36.5904    1.7021 N   0  0  0  0  0  0  0  0  0  0  0  0
  1  2  1  0  0  0  0
  1 39  1  0  0  0  0
  3  4  1  0  0  0  0
  5  6  1  0  0  0  0
  5 40  1  0  0  0  0
  9 10  1  1  0  0  0
  9 14  1  0  0  0  0
  9 35  1  0  0  0  0
 10  1  1  0  0  0  0
 11 16  1  0  0  0  0
 11 28  1  0  0  0  0
 11 26  1  6  0  0  0
 12 17  1  0  0  0  0
 12 34  1  0  0  0  0
 12 13  1  1  0  0  0
 14 15  1  1  0  0  0
 14 19  1  0  0  0  0
 16 13  1  1  0  0  0
 16 21  1  0  0  0  0
 17 18  1  1  0  0  0
 17 23  1  0  0  0  0
 18  8  1  0  0  0  0
 19 20  1  1  0  0  0
 19 25  1  0  0  0  0
 20  5  1  0  0  0  0
 21  3  1  6  0  0  0
 21 22  1  0  0  0  0
 21 27  1  0  0  0  0
 23 24  1  1  0  0  0
 23 29  1  0  0  0  0
 25 26  1  6  0  0  0
 25 31  1  0  0  0  0
 27  7  1  1  0  0  0
 27 28  1  0  0  0  0
 29 30  1  1  0  0  0
 29 33  1  0  0  0  0
 31 32  1  6  0  0  0
 31 35  1  0  0  0  0
 33 34  1  0  0  0  0
 33 37  1  6  0  0  0
 35 36  1  6  0  0  0
 37 38  1  0  0  0  0
M  END
>  <CHROM.1>
-134.41616946,154.32231697,175.94049623,172.05270157,-178.02261573,75.60325065
86.10159906,74.28133282,56.01302651,-117.70156036,-55.73894007,3.40143793
35.32184600,-1.59832329,-0.37371346,-0.29873998,0.45474316

>  <Name>
1ntb_lig

>  <RI>
0

>  <Rbt.Current_Directory>
/home/itssahil/PROJECTS/Mol_Feturizer/New_Systems/rnas/1ntb

>  <Rbt.Executable>
rbdock ($Id: //depot/dev/client3/rdock/2013.1/src/exe/rbdock.cxx#4 $)

>  <Rbt.Library>
libRbt.so (2013.1, Build901 2013/11/27)

>  <Rbt.Parameter_File>
/export/apps/rDock/src/rDock_2013.1_src/data/scripts/dock_solv.prm

>  <Rbt.Receptor>
prm/pocket_docking_2.prm

>  <SCORE>
-16.108

>  <SCORE.INTER>
-7.75725

>  <SCORE.INTER.CONST>
1

>  <SCORE.INTER.POLAR>
-0.778166

>  <SCORE.INTER.ROT>
11

>  <SCORE.INTER.SOLV>
25.824

>  <SCORE.INTER.VDW>
-22.119

>  <SCORE.INTER.norm>
-0.193931

>  <SCORE.INTRA>
-8.35071

>  <SCORE.INTRA.DIHEDRAL>
-4.57028

>  <SCORE.INTRA.DIHEDRAL.0>
15.4453

>  <SCORE.INTRA.POLAR>
0

>  <SCORE.INTRA.POLAR.0>
0

>  <SCORE.INTRA.REPUL>
-0.795921

>  <SCORE.INTRA.REPUL.0>
0.823958

>  <SCORE.INTRA.SOLV>
-1.55434

>  <SCORE.INTRA.SOLV.lig_0>
-99.3069

>  <SCORE.INTRA.VDW>
-1.3088

>  <SCORE.INTRA.VDW.0>
0.946495

>  <SCORE.INTRA.norm>
-0.208768

>  <SCORE.RESTR>
0

>  <SCORE.RESTR.CAVITY>
0

>  <SCORE.RESTR.norm>
0

>  <SCORE.SYSTEM>
0

>  <SCORE.SYSTEM.CONST>
0

>  <SCORE.SYSTEM.DIHEDRAL>
0

>  <SCORE.SYSTEM.SOLV>
0

>  <SCORE.SYSTEM.norm>
0

>  <SCORE.heavy>
40

>  <SCORE.norm>
-0.402699

>  <RMSD>
0.902

$$$$
1ntb_lig
 OpenBabel11021811403D
libRbt.so/2013.1/901 2013/11/27
 40 42  0  0  0  0  0  0  0  0999 V2000
    9.8103   32.8778   -1.0243 C   0  0  0  0  0  0  0  0  0  0  0  0
    9.8770   32.9495   -2.2973 N   0  0  0  0  0  0  0  0  0  0  0  0
   -0.4219   34.3658   -4.3832 C   0  0  0  0  0  0  0  0  0  0  0  0
   -1.4286   33.4129   -4.6815 O   0  0  0  0  0  0  0  0  0  0  0  0
    4.9148   36.4752    0.5297 C   0  0  0  0  0  0  0  0  0  0  0  0
    4.7216   37.5440   -0.1575 N   0  0  0  0  0  0  0  0  0  0  0  0
    0.3193   31.5086   -3.0168 C   0  0  0  0  0  0  0  0  0  0  0  0
   -2.5911   35.7434   -0.2862 C   0  0  0  0  0  0  0  0  0  0  0  0
    7.5113   33.3820   -1.1854 C   0  0  2  0  0  0  0  0  0  0  0  0
    8.6216   32.5888   -0.5306 N   0  0  0  0  0  0  0  0  0  0  0  0
    2.4013   34.1643   -2.0330 C   0  0  2  0  0  0  0  0  0  0  0  0
   -0.3168   36.5475   -2.2890 C   0  0  1  0  0  0  0  0  0  0  0  0
    0.8055   35.8514   -1.7792 O   0  0  0  0  0  0  0  0  0  0  0  0
    6.5729   33.9746   -0.1399 C   0  0  1  0  0  0  0  0  0  0  0  0
    7.4522   34.8123    0.7300 O   0  0  0  0  0  0  0  0  0  0  0  0
    1.3173   34.9949   -2.6954 C   0  0  2  0  0  0  0  0  0  0  0  0
   -0.9347   37.3532   -1.1720 C   0  0  1  0  0  0  0  0  0  0  0  0
   -1.3712   36.4847   -0.1363 N   0  0  0  0  0  0  0  0  0  0  0  0
    5.4162   34.7605   -0.7540 C   0  0  2  0  0  0  0  0  0  0  0  0
    4.4956   35.3495    0.1964 N   0  0  0  0  0  0  0  0  0  0  0  0
    0.3092   33.9620   -3.1241 C   0  0  1  0  0  0  0  0  0  0  0  0
   -0.6269   33.7242   -2.0675 O   0  0  0  0  0  0  0  0  0  0  0  0
    0.1261   38.3000   -0.6361 C   0  0  2  0  0  0  0  0  0  0  0  0
   -0.3979   39.0733    0.4213 O   0  0  0  0  0  0  0  0  0  0  0  0
    4.6452   33.8285   -1.6525 C   0  0  1  0  0  0  0  0  0  0  0  0
    3.6908   34.6815   -2.3437 O   0  0  0  0  0  0  0  0  0  0  0  0
    1.1168   32.7397   -3.3615 C   0  0  1  0  0  0  0  0  0  0  0  0
    2.2705   32.8276   -2.5222 O   0  0  0  0  0  0  0  0  0  0  0  0
    0.5470   39.2007   -1.7975 C   0  0  1  0  0  0  0  0  0  0  0  0
    1.5467   40.1153   -1.3756 O   0  0  0  0  0  0  0  0  0  0  0  0
    5.5777   33.2563   -2.7540 C   0  0  2  0  0  0  0  0  0  0  0  0
    4.8295   32.3935   -3.5966 O   0  0  0  0  0  0  0  0  0  0  0  0
    1.0824   38.3277   -2.9328 C   0  0  1  0  0  0  0  0  0  0  0  0
    0.0764   37.4084   -3.3550 O   0  0  0  0  0  0  0  0  0  0  0  0
    6.7218   32.4623   -2.0947 C   0  0  1  0  0  0  0  0  0  0  0  0
    7.5920   31.9269   -3.0988 O   0  0  0  0  0  0  0  0  0  0  0  0
    1.4734   39.2256   -4.1068 C   0  0  0  0  0  0  0  0  0  0  0  0
    2.5810   40.0282   -3.7305 O   0  0  0  0  0  0  0  0  0  0  0  0
   10.8267   33.0972   -0.2663 N   0  0  0  0  0  0  0  0  0  0  0  0
    5.6019   36.5309    1.5649 N   0  0  0  0  0  0  0  0  0  0  0  0
  1  2  1  0  0  0  0
  1 39  1  0  0  0  0
  3  4  1  0  0  0  0
  5  6  1  0  0  0  0
  5 40  1  0  0  0  0
  9 10  1  1  0  0  0
  9 14  1  0  0  0  0
  9 35  1  0  0  0  0
 10  1  1  0  0  0  0
 11 16  1  0  0  0  0
 11 28  1  0  0  0  0
 11 26  1  6  0  0  0
 12 17  1  0  0  0  0
 12 34  1  0  0  0  0
 12 13  1  1  0  0  0
 14 15  1  1  0  0  0
 14 19  1  0  0  0  0
 16 13  1  1  0  0  0
 16 21  1  0  0  0  0
 17 18  1  1  0  0  0
 17 23  1  0  0  0  0
 18  8  1  0  0  0  0
 19 20  1  1  0  0  0
 19 25  1  0  0  0  0
 20  5  1  0  0  0  0
 21  3  1  6  0  0  0
 21 22  1  0  0  0  0
 21 27  1  0  0  0  0
 23 24  1  1  0  0  0
 23 29  1  0  0  0  0
 25 26  1  6  0  0  0
 25 31  1  0  0  0  0
 27  7  1  1  0  0  0
 27 28  1  0  0  0  0
 29 30  1  1  0  0  0
 29 33  1  0  0  0  0
 31 32  1  6  0  0  0
 31 35  1  0  0  0  0
 33 34  1  0  0  0  0
 33 37  1  6  0  0  0
 35 36  1  6  0  0  0
 37 38  1  0  0  0  0
M  END
>  <CHROM.1>
-133.04591060,-44.98664507,179.36635996,173.22572910,-173.12472061,-77.60011276
87.45339406,82.63502331,-175.38424493,-121.61820570,66.71900064,3.11948520
35.21942516,-1.76932975,-0.33789463,-0.26335885,0.38285497

>  <Name>
1ntb_lig

>  <RI>
0

>  <Rbt.Current_Directory>
/home/itssahil/PROJECTS/Mol_Feturizer/New_Systems/rnas/1ntb

>  <Rbt.Executable>
rbdock ($Id: //depot/dev/client3/rdock/2013.1/src/exe/rbdock.cxx#4 $)

>  <Rbt.Library>
libRbt.so (2013.1, Build901 2013/11/27)

>  <Rbt.Parameter_File>
/export/apps/rDock/src/rDock_2013.1_src/data/scripts/dock_solv.prm

>  <Rbt.Receptor>
prm/pocket_docking_2.prm

>  <SCORE>
-17.2585

>  <SCORE.INTER>
-7.02147

>  <SCORE.INTER.CONST>
1

>  <SCORE.INTER.POLAR>
-0.695836

>  <SCORE.INTER.ROT>
11

>  <SCORE.INTER.SOLV>
23.9459

>  <SCORE.INTER.VDW>
-21.2768

>  <SCORE.INTER.norm>
-0.175537

>  <SCORE.INTRA>
-10.2458

>  <SCORE.INTRA.DIHEDRAL>
-4.12257

>  <SCORE.INTRA.DIHEDRAL.0>
15.4453

>  <SCORE.INTRA.POLAR>
0

>  <SCORE.INTRA.POLAR.0>
0

>  <SCORE.INTRA.REPUL>
-0.815191

>  <SCORE.INTRA.REPUL.0>
0.823958

>  <SCORE.INTRA.SOLV>
-2.13091

>  <SCORE.INTRA.SOLV.lig_0>
-99.3069

>  <SCORE.INTRA.VDW>
-3.04306

>  <SCORE.INTRA.VDW.0>
0.946495

>  <SCORE.INTRA.norm>
-0.256144

>  <SCORE.RESTR>
0.00869768

>  <SCORE.RESTR.CAVITY>
0.00869768

>  <SCORE.RESTR.norm>
0.000217442

>  <SCORE.SYSTEM>
0

>  <SCORE.SYSTEM.CONST>
0

>  <SCORE.SYSTEM.DIHEDRAL>
0

>  <SCORE.SYSTEM.SOLV>
0

>  <SCORE.SYSTEM.norm>
0

>  <SCORE.heavy>
40

>  <SCORE.norm>
-0.431463

>  <RMSD>
0.911

$$$$
1ntb_lig
 OpenBabel11021811403D
libRbt.so/2013.1/901 2013/11/27
 40 42  0  0  0  0  0  0  0  0999 V2000
   10.0061   33.0565   -2.5208 C   0  0  0  0  0  0  0  0  0  0  0  0
   10.5373   34.0613   -1.9389 N   0  0  0  0  0  0  0  0  0  0  0  0
   -0.7754   34.5218   -3.9126 C   0  0  0  0  0  0  0  0  0  0  0  0
   -1.8314   33.6232   -4.2089 O   0  0  0  0  0  0  0  0  0  0  0  0
    5.1585   36.0256    0.1577 C   0  0  0  0  0  0  0  0  0  0  0  0
    6.1384   36.2299    0.9640 N   0  0  0  0  0  0  0  0  0  0  0  0
    0.2282   31.4646   -3.4366 C   0  0  0  0  0  0  0  0  0  0  0  0
   -2.0738   35.5302    1.2038 C   0  0  0  0  0  0  0  0  0  0  0  0
    7.6781   33.3799   -2.3165 C   0  0  2  0  0  0  0  0  0  0  0  0
    8.9127   32.5821   -1.9555 N   0  0  0  0  0  0  0  0  0  0  0  0
    2.4672   33.9167   -2.2836 C   0  0  2  0  0  0  0  0  0  0  0  0
   -0.1956   36.2333   -1.4479 C   0  0  1  0  0  0  0  0  0  0  0  0
    0.9568   35.4201   -1.3267 O   0  0  0  0  0  0  0  0  0  0  0  0
    6.8774   33.7417   -1.0703 C   0  0  1  0  0  0  0  0  0  0  0  0
    7.8330   34.5040   -0.2115 O   0  0  0  0  0  0  0  0  0  0  0  0
    1.2711   34.8252   -2.5023 C   0  0  2  0  0  0  0  0  0  0  0  0
   -0.4733   36.8809   -0.1129 C   0  0  1  0  0  0  0  0  0  0  0  0
   -0.7241   35.8812    0.8643 N   0  0  0  0  0  0  0  0  0  0  0  0
    5.6035   34.5229   -1.3861 C   0  0  2  0  0  0  0  0  0  0  0  0
    4.8064   34.8965   -0.2360 N   0  0  0  0  0  0  0  0  0  0  0  0
    0.1967   33.8726   -2.9554 C   0  0  1  0  0  0  0  0  0  0  0  0
   -0.5046   33.3514   -1.8215 O   0  0  0  0  0  0  0  0  0  0  0  0
    0.7529   37.6876    0.2797 C   0  0  2  0  0  0  0  0  0  0  0  0
    0.5499   38.3086    1.5302 O   0  0  0  0  0  0  0  0  0  0  0  0
    4.7555   33.6798   -2.3028 C   0  0  1  0  0  0  0  0  0  0  0  0
    3.6665   34.5533   -2.7118 O   0  0  0  0  0  0  0  0  0  0  0  0
    0.9389   32.7791   -3.6306 C   0  0  1  0  0  0  0  0  0  0  0  0
    2.2393   32.7252   -3.0397 O   0  0  0  0  0  0  0  0  0  0  0  0
    0.9620   38.7394   -0.8100 C   0  0  1  0  0  0  0  0  0  0  0  0
    2.1001   39.5347   -0.5166 O   0  0  0  0  0  0  0  0  0  0  0  0
    5.5410   33.3459   -3.5997 C   0  0  2  0  0  0  0  0  0  0  0  0
    4.7203   32.5644   -4.4540 O   0  0  0  0  0  0  0  0  0  0  0  0
    1.1502   38.0317   -2.1522 C   0  0  1  0  0  0  0  0  0  0  0  0
    0.0056   37.2321   -2.4450 O   0  0  0  0  0  0  0  0  0  0  0  0
    6.8096   32.5491   -3.2391 C   0  0  1  0  0  0  0  0  0  0  0  0
    7.5463   32.2327   -4.4263 O   0  0  0  0  0  0  0  0  0  0  0  0
    1.3271   39.0839   -3.2472 C   0  0  0  0  0  0  0  0  0  0  0  0
    2.5946   39.7032   -3.0975 O   0  0  0  0  0  0  0  0  0  0  0  0
   10.5138   32.5215   -3.5752 N   0  0  0  0  0  0  0  0  0  0  0  0
    4.4723   36.9894   -0.2257 N   0  0  0  0  0  0  0  0  0  0  0  0
  1  2  1  0  0  0  0
  1 39  1  0  0  0  0
  3  4  1  0  0  0  0
  5  6  1  0  0  0  0
  5 40  1  0  0  0  0
  9 10  1  1  0  0  0
  9 14  1  0  0  0  0
  9 35  1  0  0  0  0
 10  1  1  0  0  0  0
 11 16  1  0  0  0  0
 11 28  1  0  0  0  0
 11 26  1  6  0  0  0
 12 17  1  0  0  0  0
 12 34  1  0  0  0  0
 12 13  1  1  0  0  0
 14 15  1  1  0  0  0
 14 19  1  0  0  0  0
 16 13  1  1  0  0  0
 16 21  1  0  0  0  0
 17 18  1  1  0  0  0
 17 23  1  0  0  0  0
 18  8  1  0  0  0  0
 19 20  1  1  0  0  0
 19 25  1  0  0  0  0
 20  5  1  0  0  0  0
 21  3  1  6  0  0  0
 21 22  1  0  0  0  0
 21 27  1  0  0  0  0
 23 24  1  1  0  0  0
 23 29  1  0  0  0  0
 25 26  1  6  0  0  0
 25 31  1  0  0  0  0
 27  7  1  1  0  0  0
 27 28  1  0  0  0  0
 29 30  1  1  0  0  0
 29 33  1  0  0  0  0
 31 32  1  6  0  0  0
 31 35  1  0  0  0  0
 33 34  1  0  0  0  0
 33 37  1  6  0  0  0
 35 36  1  6  0  0  0
 37 38  1  0  0  0  0
M  END
>  <CHROM.1>
-130.73682714,80.80504912,172.83703570,-179.04425603,-177.10138690,-97.58866478
91.47728558,-85.33143818,-174.60967912,-120.41926215,70.98424385,3.26822110
35.03215914,-1.86351093,-0.36982783,-0.09270971,0.57568286

>  <Name>
1ntb_lig

>  <RI>
0

>  <Rbt.Current_Directory>
/home/itssahil/PROJECTS/Mol_Feturizer/New_Systems/rnas/1ntb

>  <Rbt.Executable>
rbdock ($Id: //depot/dev/client3/rdock/2013.1/src/exe/rbdock.cxx#4 $)

>  <Rbt.Library>
libRbt.so (2013.1, Build901 2013/11/27)

>  <Rbt.Parameter_File>
/export/apps/rDock/src/rDock_2013.1_src/data/scripts/dock_solv.prm

>  <Rbt.Receptor>
prm/pocket_docking_2.prm

>  <SCORE>
-19.9209

>  <SCORE.INTER>
-8.90834

>  <SCORE.INTER.CONST>
1

>  <SCORE.INTER.POLAR>
-1.54055

>  <SCORE.INTER.ROT>
11

>  <SCORE.INTER.SOLV>
23.5832

>  <SCORE.INTER.VDW>
-19.5981

>  <SCORE.INTER.norm>
-0.222709

>  <SCORE.INTRA>
-11.4931

>  <SCORE.INTRA.DIHEDRAL>
-3.27574

>  <SCORE.INTRA.DIHEDRAL.0>
15.4453

>  <SCORE.INTRA.POLAR>
0

>  <SCORE.INTRA.POLAR.0>
0

>  <SCORE.INTRA.REPUL>
-0.82001

>  <SCORE.INTRA.REPUL.0>
0.823958

>  <SCORE.INTRA.SOLV>
-0.495052

>  <SCORE.INTRA.SOLV.lig_0>
-99.3069

>  <SCORE.INTRA.VDW>
-5.50764

>  <SCORE.INTRA.VDW.0>
0.946495

>  <SCORE.INTRA.norm>
-0.287327

>  <SCORE.RESTR>
0.480501

>  <SCORE.RESTR.CAVITY>
0.480501

>  <SCORE.RESTR.norm>
0.0120125

>  <SCORE.SYSTEM>
0

>  <SCORE.SYSTEM.CONST>
0

>  <SCORE.SYSTEM.DIHEDRAL>
0

>  <SCORE.SYSTEM.SOLV>
0

>  <SCORE.SYSTEM.norm>
0

>  <SCORE.heavy>
40

>  <SCORE.norm>
-0.498023

>  <RMSD>
0.918

$$$$
1ntb_lig
 OpenBabel11021811403D
libRbt.so/2013.1/901 2013/11/27
 40 42  0  0  0  0  0  0  0  0999 V2000
   10.0122   33.3735   -1.0770 C   0  0  0  0  0  0  0  0  0  0  0  0
   10.3612   34.5668   -0.7864 N   0  0  0  0  0  0  0  0  0  0  0  0
   -0.5549   34.4788   -4.0973 C   0  0  0  0  0  0  0  0  0  0  0  0
    0.2288   34.6308   -5.2691 O   0  0  0  0  0  0  0  0  0  0  0  0
    4.6021   36.4371    0.2707 C   0  0  0  0  0  0  0  0  0  0  0  0
    5.4708   36.8225    1.1360 N   0  0  0  0  0  0  0  0  0  0  0  0
    0.2307   31.5658   -2.8820 C   0  0  0  0  0  0  0  0  0  0  0  0
   -2.2144   36.1791    0.3635 C   0  0  0  0  0  0  0  0  0  0  0  0
    7.6827   33.6756   -1.2955 C   0  0  2  0  0  0  0  0  0  0  0  0
    8.8418   32.9902   -0.6044 N   0  0  0  0  0  0  0  0  0  0  0  0
    2.5433   34.1092   -2.1483 C   0  0  2  0  0  0  0  0  0  0  0  0
   -0.0448   36.6458   -2.0249 C   0  0  1  0  0  0  0  0  0  0  0  0
    1.0737   35.8582   -1.6602 O   0  0  0  0  0  0  0  0  0  0  0  0
    6.6313   34.1229   -0.2859 C   0  0  1  0  0  0  0  0  0  0  0  0
    7.3644   35.0239    0.6536 O   0  0  0  0  0  0  0  0  0  0  0  0
    1.4197   34.9988   -2.6484 C   0  0  2  0  0  0  0  0  0  0  0  0
   -0.4702   37.4645   -0.8303 C   0  0  1  0  0  0  0  0  0  0  0  0
   -0.8493   36.6030    0.2334 N   0  0  0  0  0  0  0  0  0  0  0  0
    5.4250   34.7943   -0.9391 C   0  0  2  0  0  0  0  0  0  0  0  0
    4.3965   35.2433   -0.0235 N   0  0  0  0  0  0  0  0  0  0  0  0
    0.3178   34.0190   -2.9529 C   0  0  1  0  0  0  0  0  0  0  0  0
   -0.4794   33.8009   -1.7842 O   0  0  0  0  0  0  0  0  0  0  0  0
    0.7118   38.3188   -0.4038 C   0  0  2  0  0  0  0  0  0  0  0  0
    0.3702   39.1001    0.7202 O   0  0  0  0  0  0  0  0  0  0  0  0
    4.8117   33.8129   -1.9039 C   0  0  1  0  0  0  0  0  0  0  0  0
    3.8023   34.5763   -2.6212 O   0  0  0  0  0  0  0  0  0  0  0  0
    1.0304   32.7680   -3.3130 C   0  0  1  0  0  0  0  0  0  0  0  0
    2.2881   32.7893   -2.6342 O   0  0  0  0  0  0  0  0  0  0  0  0
    1.0635   39.2168   -1.5900 C   0  0  1  0  0  0  0  0  0  0  0  0
    2.1696   40.0463   -1.2703 O   0  0  0  0  0  0  0  0  0  0  0  0
    5.8576   33.3870   -2.9692 C   0  0  2  0  0  0  0  0  0  0  0  0
    5.2561   32.4749   -3.8750 O   0  0  0  0  0  0  0  0  0  0  0  0
    1.4002   38.3373   -2.7946 C   0  0  1  0  0  0  0  0  0  0  0  0
    0.2874   37.5036   -3.1140 O   0  0  0  0  0  0  0  0  0  0  0  0
    7.0501   32.7046   -2.2717 C   0  0  1  0  0  0  0  0  0  0  0  0
    8.0252   32.3050   -3.2421 O   0  0  0  0  0  0  0  0  0  0  0  0
    1.7206   39.2350   -3.9900 C   0  0  0  0  0  0  0  0  0  0  0  0
    1.7655   38.4445   -5.1671 O   0  0  0  0  0  0  0  0  0  0  0  0
   10.7603   32.5834   -1.7638 N   0  0  0  0  0  0  0  0  0  0  0  0
    3.8744   37.2812   -0.2814 N   0  0  0  0  0  0  0  0  0  0  0  0
  1  2  1  0  0  0  0
  1 39  1  0  0  0  0
  3  4  1  0  0  0  0
  5  6  1  0  0  0  0
  5 40  1  0  0  0  0
  9 10  1  1  0  0  0
  9 14  1  0  0  0  0
  9 35  1  0  0  0  0
 10  1  1  0  0  0  0
 11 16  1  0  0  0  0
 11 28  1  0  0  0  0
 11 26  1  6  0  0  0
 12 17  1  0  0  0  0
 12 34  1  0  0  0  0
 12 13  1  1  0  0  0
 14 15  1  1  0  0  0
 14 19  1  0  0  0  0
 16 13  1  1  0  0  0
 16 21  1  0  0  0  0
 17 18  1  1  0  0  0
 17 23  1  0  0  0  0
 18  8  1  0  0  0  0
 19 20  1  1  0  0  0
 19 25  1  0  0  0  0
 20  5  1  0  0  0  0
 21  3  1  6  0  0  0
 21 22  1  0  0  0  0
 21 27  1  0  0  0  0
 23 24  1  1  0  0  0
 23 29  1  0  0  0  0
 25 26  1  6  0  0  0
 25 31  1  0  0  0  0
 27  7  1  1  0  0  0
 27 28  1  0  0  0  0
 29 30  1  1  0  0  0
 29 33  1  0  0  0  0
 31 32  1  6  0  0  0
 31 35  1  0  0  0  0
 33 34  1  0  0  0  0
 33 37  1  6  0  0  0
 35 36  1  6  0  0  0
 37 38  1  0  0  0  0
M  END
>  <CHROM.1>
-136.58412849,70.62323899,170.17111194,173.72336886,-175.23174049,-90.69017769
93.32168775,-79.35687508,60.00977172,-108.18521882,-168.22651417,3.31165563
35.31801403,-1.80424106,-0.31063089,-0.25983312,0.50541240

>  <Name>
1ntb_lig

>  <RI>
0

>  <Rbt.Current_Directory>
/home/itssahil/PROJECTS/Mol_Feturizer/New_Systems/rnas/1ntb

>  <Rbt.Executable>
rbdock ($Id: //depot/dev/client3/rdock/2013.1/src/exe/rbdock.cxx#4 $)

>  <Rbt.Library>
libRbt.so (2013.1, Build901 2013/11/27)

>  <Rbt.Parameter_File>
/export/apps/rDock/src/rDock_2013.1_src/data/scripts/dock_solv.prm

>  <Rbt.Receptor>
prm/pocket_docking_4.prm

>  <SCORE>
-21.9832

>  <SCORE.INTER>
-10.8048

>  <SCORE.INTER.CONST>
1

>  <SCORE.INTER.POLAR>
-1.14602

>  <SCORE.INTER.ROT>
11

>  <SCORE.INTER.SOLV>
23.4188

>  <SCORE.INTER.VDW>
-22.1227

>  <SCORE.INTER.norm>
-0.27012

>  <SCORE.INTRA>
-11.1784

>  <SCORE.INTRA.DIHEDRAL>
-3.72458

>  <SCORE.INTRA.DIHEDRAL.0>
15.4453

>  <SCORE.INTRA.POLAR>
0

>  <SCORE.INTRA.POLAR.0>
0

>  <SCORE.INTRA.REPUL>
-0.823958

>  <SCORE.INTRA.REPUL.0>
0.823958

>  <SCORE.INTRA.SOLV>
1.48587

>  <SCORE.INTRA.SOLV.lig_0>
-99.3069

>  <SCORE.INTRA.VDW>
-5.93925

>  <SCORE.INTRA.VDW.0>
0.946495

>  <SCORE.INTRA.norm>
-0.27946

>  <SCORE.RESTR>
0

>  <SCORE.RESTR.CAVITY>
0

>  <SCORE.RESTR.norm>
0

>  <SCORE.SYSTEM>
0

>  <SCORE.SYSTEM.CONST>
0

>  <SCORE.SYSTEM.DIHEDRAL>
0

>  <SCORE.SYSTEM.SOLV>
0

>  <SCORE.SYSTEM.norm>
0

>  <SCORE.heavy>
40

>  <SCORE.norm>
-0.54958

>  <RMSD>
0.937

$$$$
1ntb_lig
 OpenBabel11021811403D
libRbt.so/2013.1/901 2013/11/27
 40 42  0  0  0  0  0  0  0  0999 V2000
   10.1560   33.2126   -1.0558 C   0  0  0  0  0  0  0  0  0  0  0  0
   11.0268   32.8741   -0.1856 N   0  0  0  0  0  0  0  0  0  0  0  0
   -0.3369   34.4641   -4.2756 C   0  0  0  0  0  0  0  0  0  0  0  0
   -1.4051   33.5467   -4.4419 O   0  0  0  0  0  0  0  0  0  0  0  0
    5.0115   36.0429    0.3742 C   0  0  0  0  0  0  0  0  0  0  0  0
    5.7052   36.1307    1.4527 N   0  0  0  0  0  0  0  0  0  0  0  0
    0.3878   31.6002   -2.9143 C   0  0  0  0  0  0  0  0  0  0  0  0
   -2.1349   36.6143    0.4329 C   0  0  0  0  0  0  0  0  0  0  0  0
    7.8645   33.3747   -1.5929 C   0  0  2  0  0  0  0  0  0  0  0  0
    8.9996   32.5823   -0.9809 N   0  0  0  0  0  0  0  0  0  0  0  0
    2.7438   34.1335   -2.2921 C   0  0  2  0  0  0  0  0  0  0  0  0
    0.2163   36.7341   -2.3174 C   0  0  1  0  0  0  0  0  0  0  0  0
    1.3047   35.9312   -1.8992 O   0  0  0  0  0  0  0  0  0  0  0  0
    6.8441   33.7757   -0.5332 C   0  0  1  0  0  0  0  0  0  0  0  0
    7.6256   34.5583    0.4711 O   0  0  0  0  0  0  0  0  0  0  0  0
    1.6397   35.0181   -2.8420 C   0  0  2  0  0  0  0  0  0  0  0  0
   -0.3738   37.4174   -1.1077 C   0  0  1  0  0  0  0  0  0  0  0  0
   -0.8536   36.4441   -0.1913 N   0  0  0  0  0  0  0  0  0  0  0  0
    5.6617   34.5530   -1.1080 C   0  0  2  0  0  0  0  0  0  0  0  0
    4.6634   34.9630   -0.1422 N   0  0  0  0  0  0  0  0  0  0  0  0
    0.5212   34.0450   -3.1048 C   0  0  1  0  0  0  0  0  0  0  0  0
   -0.2860   33.8993   -1.9316 O   0  0  0  0  0  0  0  0  0  0  0  0
    0.7229   38.2418   -0.4548 C   0  0  2  0  0  0  0  0  0  0  0  0
    0.2256   38.8965    0.6918 O   0  0  0  0  0  0  0  0  0  0  0  0
    4.9961   33.6875   -2.1463 C   0  0  1  0  0  0  0  0  0  0  0  0
    4.0138   34.5535   -2.7797 O   0  0  0  0  0  0  0  0  0  0  0  0
    1.2121   32.7648   -3.3988 C   0  0  1  0  0  0  0  0  0  0  0  0
    2.4665   32.7963   -2.7142 O   0  0  0  0  0  0  0  0  0  0  0  0
    1.1894   39.2638   -1.4918 C   0  0  1  0  0  0  0  0  0  0  0  0
    2.2244   40.0734   -0.9561 O   0  0  0  0  0  0  0  0  0  0  0  0
    6.0114   33.3129   -3.2595 C   0  0  2  0  0  0  0  0  0  0  0  0
    5.3613   32.5107   -4.2331 O   0  0  0  0  0  0  0  0  0  0  0  0
    1.6943   38.5197   -2.7284 C   0  0  1  0  0  0  0  0  0  0  0  0
    0.6528   37.7056   -3.2650 O   0  0  0  0  0  0  0  0  0  0  0  0
    7.1800   32.5214   -2.6413 C   0  0  1  0  0  0  0  0  0  0  0  0
    8.1267   32.1677   -3.6567 O   0  0  0  0  0  0  0  0  0  0  0  0
    2.1309   39.5417   -3.7783 C   0  0  0  0  0  0  0  0  0  0  0  0
    1.0434   40.4055   -4.0676 O   0  0  0  0  0  0  0  0  0  0  0  0
   10.3938   34.0918   -1.9646 N   0  0  0  0  0  0  0  0  0  0  0  0
    4.6065   37.0814   -0.1774 N   0  0  0  0  0  0  0  0  0  0  0  0
  1  2  1  0  0  0  0
  1 39  1  0  0  0  0
  3  4  1  0  0  0  0
  5  6  1  0  0  0  0
  5 40  1  0  0  0  0
  9 10  1  1  0  0  0
  9 14  1  0  0  0  0
  9 35  1  0  0  0  0
 10  1  1  0  0  0  0
 11 16  1  0  0  0  0
 11 28  1  0  0  0  0
 11 26  1  6  0  0  0
 12 17  1  0  0  0  0
 12 34  1  0  0  0  0
 12 13  1  1  0  0  0
 14 15  1  1  0  0  0
 14 19  1  0  0  0  0
 16 13  1  1  0  0  0
 16 21  1  0  0  0  0
 17 18  1  1  0  0  0
 17 23  1  0  0  0  0
 18  8  1  0  0  0  0
 19 20  1  1  0  0  0
 19 25  1  0  0  0  0
 20  5  1  0  0  0  0
 21  3  1  6  0  0  0
 21 22  1  0  0  0  0
 21 27  1  0  0  0  0
 23 24  1  1  0  0  0
 23 29  1  0  0  0  0
 25 26  1  6  0  0  0
 25 31  1  0  0  0  0
 27  7  1  1  0  0  0
 27 28  1  0  0  0  0
 29 30  1  1  0  0  0
 29 33  1  0  0  0  0
 31 32  1  6  0  0  0
 31 35  1  0  0  0  0
 33 34  1  0  0  0  0
 33 37  1  6  0  0  0
 35 36  1  6  0  0  0
 37 38  1  0  0  0  0
M  END
>  <CHROM.1>
-114.88612230,155.87413737,177.34395863,162.85033412,-176.13958274,-135.56230958
85.18825689,-91.71590069,-177.48069942,-106.02262395,-56.66106940,3.42647926
35.26814618,-1.84884048,-0.36230173,-0.24735329,0.43142914

>  <Name>
1ntb_lig

>  <RI>
0

>  <Rbt.Current_Directory>
/home/itssahil/PROJECTS/Mol_Feturizer/New_Systems/rnas/1ntb

>  <Rbt.Executable>
rbdock ($Id: //depot/dev/client3/rdock/2013.1/src/exe/rbdock.cxx#4 $)

>  <Rbt.Library>
libRbt.so (2013.1, Build901 2013/11/27)

>  <Rbt.Parameter_File>
/export/apps/rDock/src/rDock_2013.1_src/data/scripts/dock_solv.prm

>  <Rbt.Receptor>
prm/pocket_docking_2.prm

>  <SCORE>
-19.5941

>  <SCORE.INTER>
-8.9775

>  <SCORE.INTER.CONST>
1

>  <SCORE.INTER.POLAR>
-0.880425

>  <SCORE.INTER.ROT>
11

>  <SCORE.INTER.SOLV>
26.2959

>  <SCORE.INTER.VDW>
-22.7489

>  <SCORE.INTER.norm>
-0.224438

>  <SCORE.INTRA>
-10.6166

>  <SCORE.INTRA.DIHEDRAL>
-3.56736

>  <SCORE.INTRA.DIHEDRAL.0>
15.4453

>  <SCORE.INTRA.POLAR>
0

>  <SCORE.INTRA.POLAR.0>
0

>  <SCORE.INTRA.REPUL>
-0.821678

>  <SCORE.INTRA.REPUL.0>
0.823958

>  <SCORE.INTRA.SOLV>
-0.726373

>  <SCORE.INTRA.SOLV.lig_0>
-99.3069

>  <SCORE.INTRA.VDW>
-4.3613

>  <SCORE.INTRA.VDW.0>
0.946495

>  <SCORE.INTRA.norm>
-0.265414

>  <SCORE.RESTR>
0

>  <SCORE.RESTR.CAVITY>
0

>  <SCORE.RESTR.norm>
0

>  <SCORE.SYSTEM>
0

>  <SCORE.SYSTEM.CONST>
0

>  <SCORE.SYSTEM.DIHEDRAL>
0

>  <SCORE.SYSTEM.SOLV>
0

>  <SCORE.SYSTEM.norm>
0

>  <SCORE.heavy>
40

>  <SCORE.norm>
-0.489851

>  <RMSD>
0.948

$$$$
1ntb_lig
 OpenBabel11021811403D
libRbt.so/2013.1/901 2013/11/27
 40 42  0  0  0  0  0  0  0  0999 V2000
   10.1141   33.3029   -1.0685 C   0  0  0  0  0  0  0  0  0  0  0  0
   10.9276   32.5543   -1.7073 N   0  0  0  0  0  0  0  0  0  0  0  0
   -0.4686   35.0060   -3.7052 C   0  0  0  0  0  0  0  0  0  0  0  0
    0.3177   35.6967   -4.6617 O   0  0  0  0  0  0  0  0  0  0  0  0
    5.2418   36.6171    0.5485 C   0  0  0  0  0  0  0  0  0  0  0  0
    5.9929   36.9549    1.5353 N   0  0  0  0  0  0  0  0  0  0  0  0
    0.5300   31.9128   -3.8281 C   0  0  0  0  0  0  0  0  0  0  0  0
   -2.4271   35.0328    0.8605 C   0  0  0  0  0  0  0  0  0  0  0  0
    7.7772   33.5184   -1.3104 C   0  0  2  0  0  0  0  0  0  0  0  0
    8.9576   32.7513   -0.7545 N   0  0  0  0  0  0  0  0  0  0  0  0
    2.6186   34.0324   -1.9571 C   0  0  2  0  0  0  0  0  0  0  0  0
   -0.0064   36.2850   -0.8742 C   0  0  1  0  0  0  0  0  0  0  0  0
    1.0055   35.2957   -0.8351 O   0  0  0  0  0  0  0  0  0  0  0  0
    6.9293   34.1059   -0.1875 C   0  0  1  0  0  0  0  0  0  0  0  0
    7.8704   34.9676    0.5895 O   0  0  0  0  0  0  0  0  0  0  0  0
    1.4350   34.9748   -2.0790 C   0  0  2  0  0  0  0  0  0  0  0  0
   -0.4910   36.5374    0.5329 C   0  0  1  0  0  0  0  0  0  0  0  0
   -1.0424   35.3452    1.0733 N   0  0  0  0  0  0  0  0  0  0  0  0
    5.7067   34.8653   -0.6984 C   0  0  2  0  0  0  0  0  0  0  0  0
    4.8678   35.4485    0.3281 N   0  0  0  0  0  0  0  0  0  0  0  0
    0.4203   34.1538   -2.8298 C   0  0  1  0  0  0  0  0  0  0  0  0
   -0.3748   33.3985   -1.9099 O   0  0  0  0  0  0  0  0  0  0  0  0
    0.7012   36.9763    1.3665 C   0  0  2  0  0  0  0  0  0  0  0  0
    0.3044   37.2168    2.6989 O   0  0  0  0  0  0  0  0  0  0  0  0
    4.8727   33.9109   -1.5131 C   0  0  1  0  0  0  0  0  0  0  0  0
    3.8431   34.7402   -2.1202 O   0  0  0  0  0  0  0  0  0  0  0  0
    1.2368   33.2327   -3.6589 C   0  0  1  0  0  0  0  0  0  0  0  0
    2.4781   33.0402   -2.9765 O   0  0  0  0  0  0  0  0  0  0  0  0
    1.2411   38.2580    0.7316 C   0  0  1  0  0  0  0  0  0  0  0  0
    2.3673   38.7305    1.4543 O   0  0  0  0  0  0  0  0  0  0  0  0
    5.7091   33.3432   -2.6914 C   0  0  2  0  0  0  0  0  0  0  0  0
    4.9016   32.4589   -3.4531 O   0  0  0  0  0  0  0  0  0  0  0  0
    1.6340   37.9660   -0.7169 C   0  0  1  0  0  0  0  0  0  0  0  0
    0.5009   37.4904   -1.4416 O   0  0  0  0  0  0  0  0  0  0  0  0
    6.9235   32.5758   -2.1341 C   0  0  1  0  0  0  0  0  0  0  0  0
    7.7064   32.0448   -3.2100 O   0  0  0  0  0  0  0  0  0  0  0  0
    2.1438   39.2550   -1.3620 C   0  0  0  0  0  0  0  0  0  0  0  0
    2.6864   38.9542   -2.6378 O   0  0  0  0  0  0  0  0  0  0  0  0
   10.3885   34.5241   -0.7701 N   0  0  0  0  0  0  0  0  0  0  0  0
    4.8060   37.4961   -0.2158 N   0  0  0  0  0  0  0  0  0  0  0  0
  1  2  1  0  0  0  0
  1 39  1  0  0  0  0
  3  4  1  0  0  0  0
  5  6  1  0  0  0  0
  5 40  1  0  0  0  0
  9 10  1  1  0  0  0
  9 14  1  0  0  0  0
  9 35  1  0  0  0  0
 10  1  1  0  0  0  0
 11 16  1  0  0  0  0
 11 28  1  0  0  0  0
 11 26  1  6  0  0  0
 12 17  1  0  0  0  0
 12 34  1  0  0  0  0
 12 13  1  1  0  0  0
 14 15  1  6  0  0  0
 14 19  1  0  0  0  0
 16 13  1  1  0  0  0
 16 21  1  0  0  0  0
 17 18  1  1  0  0  0
 17 23  1  0  0  0  0
 18  8  1  0  0  0  0
 19 20  1  1  0  0  0
 19 25  1  0  0  0  0
 20  5  1  0  0  0  0
 21  3  1  6  0  0  0
 21 22  1  0  0  0  0
 21 27  1  0  0  0  0
 23 24  1  1  0  0  0
 23 29  1  0  0  0  0
 25 26  1  6  0  0  0
 25 31  1  0  0  0  0
 27  7  1  1  0  0  0
 27 28  1  0  0  0  0
 29 30  1  1  0  0  0
 29 33  1  0  0  0  0
 31 32  1  1  0  0  0
 31 35  1  0  0  0  0
 33 34  1  0  0  0  0
 33 37  1  6  0  0  0
 35 36  1  6  0  0  0
 37 38  1  0  0  0  0
M  END
>  <CHROM.1>
-114.97742092,-122.24370112,159.39073300,176.86401594,173.69543787,-87.55492372
91.77421033,-99.41031850,60.32751395,-135.11155775,171.75181885,3.46385003
35.13336871,-1.15644398,-0.27548729,-0.16580509,0.73395879

>  <Name>
1ntb_lig

>  <RI>
0

>  <Rbt.Current_Directory>
/home/itssahil/PROJECTS/Mol_Feturizer/New_Systems/rnas/1ntb

>  <Rbt.Executable>
rbdock ($Id: //depot/dev/client3/rdock/2013.1/src/exe/rbdock.cxx#4 $)

>  <Rbt.Library>
libRbt.so (2013.1, Build901 2013/11/27)

>  <Rbt.Parameter_File>
/export/apps/rDock/src/rDock_2013.1_src/data/scripts/dock_solv.prm

>  <Rbt.Receptor>
prm/pocket_docking_5.prm

>  <SCORE>
-21.763

>  <SCORE.INTER>
-9.62127

>  <SCORE.INTER.CONST>
1

>  <SCORE.INTER.POLAR>
-1.49179

>  <SCORE.INTER.ROT>
11

>  <SCORE.INTER.SOLV>
24.9855

>  <SCORE.INTER.VDW>
-20.7034

>  <SCORE.INTER.norm>
-0.240532

>  <SCORE.INTRA>
-12.1418

>  <SCORE.INTRA.DIHEDRAL>
-3.50965

>  <SCORE.INTRA.DIHEDRAL.0>
15.4453

>  <SCORE.INTRA.POLAR>
0

>  <SCORE.INTRA.POLAR.0>
0

>  <SCORE.INTRA.REPUL>
-0.803071

>  <SCORE.INTRA.REPUL.0>
0.823958

>  <SCORE.INTRA.SOLV>
0.858478

>  <SCORE.INTRA.SOLV.lig_0>
-99.3069

>  <SCORE.INTRA.VDW>
-6.80082

>  <SCORE.INTRA.VDW.0>
0.946495

>  <SCORE.INTRA.norm>
-0.303544

>  <SCORE.RESTR>
0

>  <SCORE.RESTR.CAVITY>
0

>  <SCORE.RESTR.norm>
0

>  <SCORE.SYSTEM>
0

>  <SCORE.SYSTEM.CONST>
0

>  <SCORE.SYSTEM.DIHEDRAL>
0

>  <SCORE.SYSTEM.SOLV>
0

>  <SCORE.SYSTEM.norm>
0

>  <SCORE.heavy>
40

>  <SCORE.norm>
-0.544076

>  <RMSD>
0.964

$$$$
1ntb_lig
 OpenBabel11021811403D
libRbt.so/2013.1/901 2013/11/27
 40 42  0  0  0  0  0  0  0  0999 V2000
   10.0053   33.4158   -1.0311 C   0  0  0  0  0  0  0  0  0  0  0  0
   10.6955   32.6367   -1.7706 N   0  0  0  0  0  0  0  0  0  0  0  0
   -0.5112   34.4947   -4.2233 C   0  0  0  0  0  0  0  0  0  0  0  0
    0.2962   34.6352   -5.3803 O   0  0  0  0  0  0  0  0  0  0  0  0
    4.6654   36.5083    0.2083 C   0  0  0  0  0  0  0  0  0  0  0  0
    5.5424   36.9013    1.0619 N   0  0  0  0  0  0  0  0  0  0  0  0
    0.2706   31.5894   -2.9873 C   0  0  0  0  0  0  0  0  0  0  0  0
   -2.1919   35.9483    0.0050 C   0  0  0  0  0  0  0  0  0  0  0  0
    7.6792   33.6565   -1.3427 C   0  0  2  0  0  0  0  0  0  0  0  0
    8.8290   32.9520   -0.6552 N   0  0  0  0  0  0  0  0  0  0  0  0
    2.5420   34.1537   -2.1993 C   0  0  2  0  0  0  0  0  0  0  0  0
   -0.0617   36.6773   -2.1461 C   0  0  1  0  0  0  0  0  0  0  0  0
    1.0454   35.8897   -1.7483 O   0  0  0  0  0  0  0  0  0  0  0  0
    6.6477   34.1376   -0.3280 C   0  0  1  0  0  0  0  0  0  0  0  0
    7.4097   35.0311    0.5954 O   0  0  0  0  0  0  0  0  0  0  0  0
    1.4230   35.0330   -2.7272 C   0  0  2  0  0  0  0  0  0  0  0  0
   -0.5228   37.4956   -0.9644 C   0  0  1  0  0  0  0  0  0  0  0  0
   -0.9334   36.6337    0.0872 N   0  0  0  0  0  0  0  0  0  0  0  0
    5.4508   34.8296   -0.9770 C   0  0  2  0  0  0  0  0  0  0  0  0
    4.4414   35.3110   -0.0566 N   0  0  0  0  0  0  0  0  0  0  0  0
    0.3376   34.0432   -3.0577 C   0  0  1  0  0  0  0  0  0  0  0  0
   -0.4858   33.8186   -1.9085 O   0  0  0  0  0  0  0  0  0  0  0  0
    0.6458   38.3498   -0.5024 C   0  0  2  0  0  0  0  0  0  0  0  0
    0.2706   39.1306    0.6112 O   0  0  0  0  0  0  0  0  0  0  0  0
    4.8064   33.8528   -1.9261 C   0  0  1  0  0  0  0  0  0  0  0  0
    3.8079   34.6318   -2.6419 O   0  0  0  0  0  0  0  0  0  0  0  0
    1.0698   32.7984   -3.3995 C   0  0  1  0  0  0  0  0  0  0  0  0
    2.3104   32.8313   -2.6904 O   0  0  0  0  0  0  0  0  0  0  0  0
    1.0328   39.2483   -1.6772 C   0  0  1  0  0  0  0  0  0  0  0  0
    2.1288   40.0778   -1.3242 O   0  0  0  0  0  0  0  0  0  0  0  0
    5.8325   33.3928   -2.9965 C   0  0  2  0  0  0  0  0  0  0  0  0
    5.2020   32.4856   -3.8874 O   0  0  0  0  0  0  0  0  0  0  0  0
    1.4054   38.3693   -2.8715 C   0  0  1  0  0  0  0  0  0  0  0  0
    0.3029   37.5356   -3.2244 O   0  0  0  0  0  0  0  0  0  0  0  0
    7.0157   32.6904   -2.3031 C   0  0  1  0  0  0  0  0  0  0  0  0
    7.9724   32.2592   -3.2783 O   0  0  0  0  0  0  0  0  0  0  0  0
    1.7614   39.2674   -4.0564 C   0  0  0  0  0  0  0  0  0  0  0  0
    1.8120   38.4825   -5.2370 O   0  0  0  0  0  0  0  0  0  0  0  0
   10.4142   34.5880   -0.6926 N   0  0  0  0  0  0  0  0  0  0  0  0
    3.9487   37.3496   -0.3619 N   0  0  0  0  0  0  0  0  0  0  0  0
  1  2  1  0  0  0  0
  1 39  1  0  0  0  0
  3  4  1  0  0  0  0
  5  6  1  0  0  0  0
  5 40  1  0  0  0  0
  9 10  1  1  0  0  0
  9 14  1  0  0  0  0
  9 35  1  0  0  0  0
 10  1  1  0  0  0  0
 11 16  1  0  0  0  0
 11 28  1  0  0  0  0
 11 26  1  6  0  0  0
 12 17  1  0  0  0  0
 12 34  1  0  0  0  0
 12 13  1  1  0  0  0
 14 15  1  1  0  0  0
 14 19  1  0  0  0  0
 16 13  1  1  0  0  0
 16 21  1  0  0  0  0
 17 18  1  1  0  0  0
 17 23  1  0  0  0  0
 18  8  1  0  0  0  0
 19 20  1  1  0  0  0
 19 25  1  0  0  0  0
 20  5  1  0  0  0  0
 21  3  1  6  0  0  0
 21 22  1  0  0  0  0
 21 27  1  0  0  0  0
 23 24  1  1  0  0  0
 23 29  1  0  0  0  0
 25 26  1  6  0  0  0
 25 31  1  0  0  0  0
 27  7  1  1  0  0  0
 27 28  1  0  0  0  0
 29 30  1  1  0  0  0
 29 33  1  0  0  0  0
 31 32  1  6  0  0  0
 31 35  1  0  0  0  0
 33 34  1  0  0  0  0
 33 37  1  6  0  0  0
 35 36  1  6  0  0  0
 37 38  1  0  0  0  0
M  END
>  <CHROM.1>
-129.15533127,-108.59190749,171.65742957,173.87095610,-175.87216857,-75.37607314
94.27651247,-80.06595363,60.81673292,-110.88325282,-166.91989631,3.31354179
35.33849261,-1.87669576,-0.30469609,-0.26833383,0.49097380

>  <Name>
1ntb_lig

>  <RI>
0

>  <Rbt.Current_Directory>
/home/itssahil/PROJECTS/Mol_Feturizer/New_Systems/rnas/1ntb

>  <Rbt.Executable>
rbdock ($Id: //depot/dev/client3/rdock/2013.1/src/exe/rbdock.cxx#4 $)

>  <Rbt.Library>
libRbt.so (2013.1, Build901 2013/11/27)

>  <Rbt.Parameter_File>
/export/apps/rDock/src/rDock_2013.1_src/data/scripts/dock_solv.prm

>  <Rbt.Receptor>
prm/pocket_docking_5.prm

>  <SCORE>
-21.9807

>  <SCORE.INTER>
-10.3881

>  <SCORE.INTER.CONST>
1

>  <SCORE.INTER.POLAR>
-1.128

>  <SCORE.INTER.ROT>
11

>  <SCORE.INTER.SOLV>
24.1802

>  <SCORE.INTER.VDW>
-22.1588

>  <SCORE.INTER.norm>
-0.259702

>  <SCORE.INTRA>
-11.5926

>  <SCORE.INTRA.DIHEDRAL>
-4.10466

>  <SCORE.INTRA.DIHEDRAL.0>
15.4453

>  <SCORE.INTRA.POLAR>
0

>  <SCORE.INTRA.POLAR.0>
0

>  <SCORE.INTRA.REPUL>
-0.823958

>  <SCORE.INTRA.REPUL.0>
0.823958

>  <SCORE.INTRA.SOLV>
0.875099

>  <SCORE.INTRA.SOLV.lig_0>
-99.3069

>  <SCORE.INTRA.VDW>
-5.85807

>  <SCORE.INTRA.VDW.0>
0.946495

>  <SCORE.INTRA.norm>
-0.289816

>  <SCORE.RESTR>
0

>  <SCORE.RESTR.CAVITY>
0

>  <SCORE.RESTR.norm>
0

>  <SCORE.SYSTEM>
0

>  <SCORE.SYSTEM.CONST>
0

>  <SCORE.SYSTEM.DIHEDRAL>
0

>  <SCORE.SYSTEM.SOLV>
0

>  <SCORE.SYSTEM.norm>
0

>  <SCORE.heavy>
40

>  <SCORE.norm>
-0.549518

>  <RMSD>
0.971

$$$$
1ntb_lig
 OpenBabel11021811403D
libRbt.so/2013.1/901 2013/11/27
 40 42  0  0  0  0  0  0  0  0999 V2000
    9.9558   32.8365   -0.9561 C   0  0  0  0  0  0  0  0  0  0  0  0
   10.0242   32.9175   -2.2285 N   0  0  0  0  0  0  0  0  0  0  0  0
   -0.4914   34.5742   -3.9362 C   0  0  0  0  0  0  0  0  0  0  0  0
    0.3439   34.7950   -5.0604 O   0  0  0  0  0  0  0  0  0  0  0  0
    4.9259   36.3230    0.5692 C   0  0  0  0  0  0  0  0  0  0  0  0
    5.5831   36.6087    1.6362 N   0  0  0  0  0  0  0  0  0  0  0  0
    0.1978   31.5946   -2.8285 C   0  0  0  0  0  0  0  0  0  0  0  0
    0.2126   35.9858    1.2771 C   0  0  0  0  0  0  0  0  0  0  0  0
    7.6483   33.2990   -1.1211 C   0  0  2  0  0  0  0  0  0  0  0  0
    8.7714   32.5231   -0.4672 N   0  0  0  0  0  0  0  0  0  0  0  0
    2.5249   34.0578   -1.8942 C   0  0  2  0  0  0  0  0  0  0  0  0
   -0.0218   36.6347   -1.7489 C   0  0  1  0  0  0  0  0  0  0  0  0
    1.0684   35.8103   -1.3802 O   0  0  0  0  0  0  0  0  0  0  0  0
    6.6848   33.8513   -0.0763 C   0  0  1  0  0  0  0  0  0  0  0  0
    7.5342   34.6965    0.8160 O   0  0  0  0  0  0  0  0  0  0  0  0
    1.4363   34.9903   -2.3936 C   0  0  2  0  0  0  0  0  0  0  0  0
   -0.3826   37.5132   -0.5756 C   0  0  1  0  0  0  0  0  0  0  0  0
   -0.7751   36.7075    0.5263 N   0  0  0  0  0  0  0  0  0  0  0  0
    5.5152   34.6181   -0.6900 C   0  0  2  0  0  0  0  0  0  0  0  0
    4.5707   35.1688    0.2599 N   0  0  0  0  0  0  0  0  0  0  0  0
    0.3298   34.0464   -2.7831 C   0  0  1  0  0  0  0  0  0  0  0  0
   -0.5142   33.7906   -1.6555 O   0  0  0  0  0  0  0  0  0  0  0  0
    0.8459   38.3272   -0.2056 C   0  0  2  0  0  0  0  0  0  0  0  0
    0.5655   39.1620    0.8967 O   0  0  0  0  0  0  0  0  0  0  0  0
    4.7769   33.6819   -1.6112 C   0  0  1  0  0  0  0  0  0  0  0  0
    3.8086   34.5220   -2.2988 O   0  0  0  0  0  0  0  0  0  0  0  0
    1.0337   32.7997   -3.1741 C   0  0  1  0  0  0  0  0  0  0  0  0
    2.2653   32.7664   -2.4495 O   0  0  0  0  0  0  0  0  0  0  0  0
    1.2099   39.1663   -1.4306 C   0  0  1  0  0  0  0  0  0  0  0  0
    2.3591   39.9553   -1.1647 O   0  0  0  0  0  0  0  0  0  0  0  0
    5.7344   33.1506   -2.7117 C   0  0  2  0  0  0  0  0  0  0  0  0
    5.0164   32.2832   -3.5756 O   0  0  0  0  0  0  0  0  0  0  0  0
    1.4791   38.2309   -2.6097 C   0  0  1  0  0  0  0  0  0  0  0  0
    0.3231   37.4379   -2.8750 O   0  0  0  0  0  0  0  0  0  0  0  0
    6.8912   32.3747   -2.0530 C   0  0  1  0  0  0  0  0  0  0  0  0
    7.7846   31.8772   -3.0563 O   0  0  0  0  0  0  0  0  0  0  0  0
    1.8116   39.0707   -3.8432 C   0  0  0  0  0  0  0  0  0  0  0  0
    0.7374   39.9596   -4.1047 O   0  0  0  0  0  0  0  0  0  0  0  0
   10.9662   33.0695   -0.1942 N   0  0  0  0  0  0  0  0  0  0  0  0
    4.5654   37.2400   -0.1896 N   0  0  0  0  0  0  0  0  0  0  0  0
  1  2  1  0  0  0  0
  1 39  1  0  0  0  0
  3  4  1  0  0  0  0
  5  6  1  0  0  0  0
  5 40  1  0  0  0  0
  9 10  1  1  0  0  0
  9 14  1  0  0  0  0
  9 35  1  0  0  0  0
 10  1  1  0  0  0  0
 11 16  1  0  0  0  0
 11 28  1  0  0  0  0
 11 26  1  6  0  0  0
 12 17  1  0  0  0  0
 12 34  1  0  0  0  0
 12 13  1  1  0  0  0
 14 15  1  1  0  0  0
 14 19  1  0  0  0  0
 16 13  1  1  0  0  0
 16 21  1  0  0  0  0
 17 18  1  1  0  0  0
 17 23  1  0  0  0  0
 18  8  1  0  0  0  0
 19 20  1  1  0  0  0
 19 25  1  0  0  0  0
 20  5  1  0  0  0  0
 21  3  1  6  0  0  0
 21 22  1  0  0  0  0
 21 27  1  0  0  0  0
 23 24  1  1  0  0  0
 23 29  1  0  0  0  0
 25 26  1  6  0  0  0
 25 31  1  0  0  0  0
 27  7  1  1  0  0  0
 27 28  1  0  0  0  0
 29 30  1  1  0  0  0
 29 33  1  0  0  0  0
 31 32  1  6  0  0  0
 31 35  1  0  0  0  0
 33 34  1  0  0  0  0
 33 37  1  6  0  0  0
 35 36  1  6  0  0  0
 37 38  1  0  0  0  0
M  END
>  <CHROM.1>
-133.88244116,-44.91502417,171.80113041,179.68987619,-175.23165931,74.30306454
90.43752629,-98.22818168,58.60310275,-115.48418633,-57.43417641,3.38795694
35.22802524,-1.55659743,-0.37837068,-0.31500098,0.49504834

>  <Name>
1ntb_lig

>  <RI>
0

>  <Rbt.Current_Directory>
/home/itssahil/PROJECTS/Mol_Feturizer/New_Systems/rnas/1ntb

>  <Rbt.Executable>
rbdock ($Id: //depot/dev/client3/rdock/2013.1/src/exe/rbdock.cxx#4 $)

>  <Rbt.Library>
libRbt.so (2013.1, Build901 2013/11/27)

>  <Rbt.Parameter_File>
/export/apps/rDock/src/rDock_2013.1_src/data/scripts/dock_solv.prm

>  <Rbt.Receptor>
prm/pocket_docking_2.prm

>  <SCORE>
-15.1144

>  <SCORE.INTER>
-7.74156

>  <SCORE.INTER.CONST>
1

>  <SCORE.INTER.POLAR>
-0.755278

>  <SCORE.INTER.ROT>
11

>  <SCORE.INTER.SOLV>
24.1455

>  <SCORE.INTER.VDW>
-21.6253

>  <SCORE.INTER.norm>
-0.193539

>  <SCORE.INTRA>
-7.37757

>  <SCORE.INTRA.DIHEDRAL>
-4.67632

>  <SCORE.INTRA.DIHEDRAL.0>
15.4453

>  <SCORE.INTRA.POLAR>
0

>  <SCORE.INTRA.POLAR.0>
0

>  <SCORE.INTRA.REPUL>
-0.817874

>  <SCORE.INTRA.REPUL.0>
0.823958

>  <SCORE.INTRA.SOLV>
0.111711

>  <SCORE.INTRA.SOLV.lig_0>
-99.3069

>  <SCORE.INTRA.VDW>
-1.00589

>  <SCORE.INTRA.VDW.0>
0.946495

>  <SCORE.INTRA.norm>
-0.184439

>  <SCORE.RESTR>
0.00472871

>  <SCORE.RESTR.CAVITY>
0.00472871

>  <SCORE.RESTR.norm>
0.000118218

>  <SCORE.SYSTEM>
0

>  <SCORE.SYSTEM.CONST>
0

>  <SCORE.SYSTEM.DIHEDRAL>
0

>  <SCORE.SYSTEM.SOLV>
0

>  <SCORE.SYSTEM.norm>
0

>  <SCORE.heavy>
40

>  <SCORE.norm>
-0.37786

>  <RMSD>
0.974

$$$$
1ntb_lig
 OpenBabel11021811403D
libRbt.so/2013.1/901 2013/11/27
 40 42  0  0  0  0  0  0  0  0999 V2000
   10.0822   32.9579   -1.3587 C   0  0  0  0  0  0  0  0  0  0  0  0
   10.7292   31.8858   -1.6080 N   0  0  0  0  0  0  0  0  0  0  0  0
   -0.5008   34.3814   -3.9372 C   0  0  0  0  0  0  0  0  0  0  0  0
   -1.5828   33.4760   -4.0784 O   0  0  0  0  0  0  0  0  0  0  0  0
    4.7740   36.2682    0.3526 C   0  0  0  0  0  0  0  0  0  0  0  0
    4.3817   37.2815   -0.3338 N   0  0  0  0  0  0  0  0  0  0  0  0
    0.2900   31.4876   -2.6800 C   0  0  0  0  0  0  0  0  0  0  0  0
    0.5051   35.9702    1.1721 C   0  0  0  0  0  0  0  0  0  0  0  0
    7.7890   33.5117   -1.3403 C   0  0  2  0  0  0  0  0  0  0  0  0
    8.9565   32.8022   -0.6888 N   0  0  0  0  0  0  0  0  0  0  0  0
    2.6375   34.0269   -2.0505 C   0  0  2  0  0  0  0  0  0  0  0  0
    0.0012   36.5003   -1.8674 C   0  0  1  0  0  0  0  0  0  0  0  0
    1.1924   35.7972   -1.5659 O   0  0  0  0  0  0  0  0  0  0  0  0
    6.7647   33.9486   -0.2988 C   0  0  1  0  0  0  0  0  0  0  0  0
    7.5271   34.8240    0.6415 O   0  0  0  0  0  0  0  0  0  0  0  0
    1.5097   34.9150   -2.5436 C   0  0  2  0  0  0  0  0  0  0  0  0
   -0.3685   37.3570   -0.6808 C   0  0  1  0  0  0  0  0  0  0  0  0
   -0.6018   36.5341    0.4531 N   0  0  0  0  0  0  0  0  0  0  0  0
    5.5507   34.6439   -0.9115 C   0  0  2  0  0  0  0  0  0  0  0  0
    4.5472   35.0841    0.0355 N   0  0  0  0  0  0  0  0  0  0  0  0
    0.3939   33.9380   -2.8033 C   0  0  1  0  0  0  0  0  0  0  0  0
   -0.3785   33.7502   -1.6128 O   0  0  0  0  0  0  0  0  0  0  0  0
    0.7921   38.2976   -0.4034 C   0  0  2  0  0  0  0  0  0  0  0  0
    0.5020   39.1179    0.7073 O   0  0  0  0  0  0  0  0  0  0  0  0
    4.9067   33.6875   -1.8814 C   0  0  1  0  0  0  0  0  0  0  0  0
    3.8890   34.4742   -2.5609 O   0  0  0  0  0  0  0  0  0  0  0  0
    1.0888   32.6743   -3.1533 C   0  0  1  0  0  0  0  0  0  0  0  0
    2.3616   32.6994   -2.5032 O   0  0  0  0  0  0  0  0  0  0  0  0
    0.9855   39.1489   -1.6586 C   0  0  1  0  0  0  0  0  0  0  0  0
    2.0629   40.0549   -1.4794 O   0  0  0  0  0  0  0  0  0  0  0  0
    5.9246   33.2732   -2.9780 C   0  0  2  0  0  0  0  0  0  0  0  0
    5.2943   32.3848   -3.8877 O   0  0  0  0  0  0  0  0  0  0  0  0
    1.2696   38.2261   -2.8441 C   0  0  1  0  0  0  0  0  0  0  0  0
    0.1859   37.3155   -3.0222 O   0  0  0  0  0  0  0  0  0  0  0  0
    7.1256   32.5661   -2.3209 C   0  0  1  0  0  0  0  0  0  0  0  0
    8.0750   32.1769   -3.3205 O   0  0  0  0  0  0  0  0  0  0  0  0
    1.4311   39.0747   -4.1056 C   0  0  0  0  0  0  0  0  0  0  0  0
    2.6095   39.8565   -3.9931 O   0  0  0  0  0  0  0  0  0  0  0  0
   10.4838   34.1145   -1.7545 N   0  0  0  0  0  0  0  0  0  0  0  0
    5.4673   36.4507    1.3689 N   0  0  0  0  0  0  0  0  0  0  0  0
  1  2  1  0  0  0  0
  1 39  1  0  0  0  0
  3  4  1  0  0  0  0
  5  6  1  0  0  0  0
  5 40  1  0  0  0  0
  9 10  1  1  0  0  0
  9 14  1  0  0  0  0
  9 35  1  0  0  0  0
 10  1  1  0  0  0  0
 11 16  1  0  0  0  0
 11 28  1  0  0  0  0
 11 26  1  6  0  0  0
 12 17  1  0  0  0  0
 12 34  1  0  0  0  0
 12 13  1  1  0  0  0
 14 15  1  1  0  0  0
 14 19  1  0  0  0  0
 16 13  1  1  0  0  0
 16 21  1  0  0  0  0
 17 18  1  1  0  0  0
 17 23  1  0  0  0  0
 18  8  1  0  0  0  0
 19 20  1  1  0  0  0
 19 25  1  0  0  0  0
 20  5  1  0  0  0  0
 21  3  1  6  0  0  0
 21 22  1  0  0  0  0
 21 27  1  0  0  0  0
 23 24  1  1  0  0  0
 23 29  1  0  0  0  0
 25 26  1  6  0  0  0
 25 31  1  0  0  0  0
 27  7  1  1  0  0  0
 27 28  1  0  0  0  0
 29 30  1  1  0  0  0
 29 33  1  0  0  0  0
 31 32  1  6  0  0  0
 31 35  1  0  0  0  0
 33 34  1  0  0  0  0
 33 37  1  6  0  0  0
 35 36  1  6  0  0  0
 37 38  1  0  0  0  0
M  END
>  <CHROM.1>
-150.29407768,-129.92745325,171.93811468,174.26846862,-169.84312832,76.66621588
93.04203844,84.03472739,-176.02698804,-107.11425146,67.20420730,3.42195854
35.18743346,-1.70462945,-0.38195050,-0.21322703,0.38809713

>  <Name>
1ntb_lig

>  <RI>
0

>  <Rbt.Current_Directory>
/home/itssahil/PROJECTS/Mol_Feturizer/New_Systems/rnas/1ntb

>  <Rbt.Executable>
rbdock ($Id: //depot/dev/client3/rdock/2013.1/src/exe/rbdock.cxx#4 $)

>  <Rbt.Library>
libRbt.so (2013.1, Build901 2013/11/27)

>  <Rbt.Parameter_File>
/export/apps/rDock/src/rDock_2013.1_src/data/scripts/dock_solv.prm

>  <Rbt.Receptor>
prm/pocket_docking_2.prm

>  <SCORE>
-17.4391

>  <SCORE.INTER>
-10.3162

>  <SCORE.INTER.CONST>
1

>  <SCORE.INTER.POLAR>
-1.24159

>  <SCORE.INTER.ROT>
11

>  <SCORE.INTER.SOLV>
23.2067

>  <SCORE.INTER.VDW>
-21.4077

>  <SCORE.INTER.norm>
-0.257905

>  <SCORE.INTRA>
-7.15237

>  <SCORE.INTRA.DIHEDRAL>
-5.03818

>  <SCORE.INTRA.DIHEDRAL.0>
15.4453

>  <SCORE.INTRA.POLAR>
0

>  <SCORE.INTRA.POLAR.0>
0

>  <SCORE.INTRA.REPUL>
-0.823958

>  <SCORE.INTRA.REPUL.0>
0.823958

>  <SCORE.INTRA.SOLV>
0.787206

>  <SCORE.INTRA.SOLV.lig_0>
-99.3069

>  <SCORE.INTRA.VDW>
-0.907101

>  <SCORE.INTRA.VDW.0>
0.946495

>  <SCORE.INTRA.norm>
-0.178809

>  <SCORE.RESTR>
0.0295179

>  <SCORE.RESTR.CAVITY>
0.0295179

>  <SCORE.RESTR.norm>
0.000737948

>  <SCORE.SYSTEM>
0

>  <SCORE.SYSTEM.CONST>
0

>  <SCORE.SYSTEM.DIHEDRAL>
0

>  <SCORE.SYSTEM.SOLV>
0

>  <SCORE.SYSTEM.norm>
0

>  <SCORE.heavy>
40

>  <SCORE.norm>
-0.435977

>  <RMSD>
0.976

$$$$
1ntb_lig
 OpenBabel11021811403D
libRbt.so/2013.1/901 2013/11/27
 40 42  0  0  0  0  0  0  0  0999 V2000
   10.1100   32.9030   -1.7280 C   0  0  0  0  0  0  0  0  0  0  0  0
   10.4823   34.1202   -1.8276 N   0  0  0  0  0  0  0  0  0  0  0  0
   -0.5782   34.9666   -3.3622 C   0  0  0  0  0  0  0  0  0  0  0  0
    0.1302   35.6588   -4.3768 O   0  0  0  0  0  0  0  0  0  0  0  0
    5.3504   36.5051    0.4794 C   0  0  0  0  0  0  0  0  0  0  0  0
    6.1340   36.8196    1.4485 N   0  0  0  0  0  0  0  0  0  0  0  0
    0.3682   31.8658   -3.6251 C   0  0  0  0  0  0  0  0  0  0  0  0
   -1.8071   34.9191    1.7999 C   0  0  0  0  0  0  0  0  0  0  0  0
    7.8257   33.4475   -1.5013 C   0  0  2  0  0  0  0  0  0  0  0  0
    9.0353   32.6935   -0.9922 N   0  0  0  0  0  0  0  0  0  0  0  0
    2.6349   33.9274   -1.9026 C   0  0  2  0  0  0  0  0  0  0  0  0
    0.0494   36.0878   -0.5579 C   0  0  1  0  0  0  0  0  0  0  0  0
    1.1392   35.1867   -0.6242 O   0  0  0  0  0  0  0  0  0  0  0  0
    7.0152   34.0247   -0.3460 C   0  0  1  0  0  0  0  0  0  0  0  0
    7.9757   34.8966    0.3949 O   0  0  0  0  0  0  0  0  0  0  0  0
    1.4569   34.8845   -1.9059 C   0  0  2  0  0  0  0  0  0  0  0  0
   -0.1466   36.5051    0.8794 C   0  0  1  0  0  0  0  0  0  0  0  0
   -0.4494   35.3674    1.6740 N   0  0  0  0  0  0  0  0  0  0  0  0
    5.7652   34.7705   -0.8085 C   0  0  2  0  0  0  0  0  0  0  0  0
    4.9601   35.3435    0.2503 N   0  0  0  0  0  0  0  0  0  0  0  0
    0.3718   34.0887   -2.5815 C   0  0  1  0  0  0  0  0  0  0  0  0
   -0.3511   33.3248   -1.6104 O   0  0  0  0  0  0  0  0  0  0  0  0
    1.1463   37.1403    1.3625 C   0  0  2  0  0  0  0  0  0  0  0  0
    1.0208   37.5412    2.7094 O   0  0  0  0  0  0  0  0  0  0  0  0
    4.9112   33.8071   -1.5913 C   0  0  1  0  0  0  0  0  0  0  0  0
    3.8496   34.6250   -2.1573 O   0  0  0  0  0  0  0  0  0  0  0  0
    1.1031   33.1746   -3.4936 C   0  0  1  0  0  0  0  0  0  0  0  0
    2.3956   32.9561   -2.9236 O   0  0  0  0  0  0  0  0  0  0  0  0
    1.4088   38.3521    0.4681 C   0  0  1  0  0  0  0  0  0  0  0  0
    2.6107   38.9999    0.8547 O   0  0  0  0  0  0  0  0  0  0  0  0
    5.7078   33.2495   -2.8016 C   0  0  2  0  0  0  0  0  0  0  0  0
    4.8816   32.3566   -3.5324 O   0  0  0  0  0  0  0  0  0  0  0  0
    1.5109   37.8834   -0.9837 C   0  0  1  0  0  0  0  0  0  0  0  0
    0.3022   37.2316   -1.3704 O   0  0  0  0  0  0  0  0  0  0  0  0
    6.9515   32.4957   -2.2924 C   0  0  1  0  0  0  0  0  0  0  0  0
    7.6982   31.9743   -3.3983 O   0  0  0  0  0  0  0  0  0  0  0  0
    1.7412   39.0988   -1.8822 C   0  0  0  0  0  0  0  0  0  0  0  0
    2.3789   38.6796   -3.0781 O   0  0  0  0  0  0  0  0  0  0  0  0
   10.7517   31.9370   -2.2855 N   0  0  0  0  0  0  0  0  0  0  0  0
    4.8988   37.4008   -0.2558 N   0  0  0  0  0  0  0  0  0  0  0  0
  1  2  1  0  0  0  0
  1 39  1  0  0  0  0
  3  4  1  0  0  0  0
  5  6  1  0  0  0  0
  5 40  1  0  0  0  0
  9 10  1  1  0  0  0
  9 14  1  0  0  0  0
  9 35  1  0  0  0  0
 10  1  1  0  0  0  0
 11 16  1  0  0  0  0
 11 28  1  0  0  0  0
 11 26  1  6  0  0  0
 12 17  1  0  0  0  0
 12 34  1  0  0  0  0
 12 13  1  1  0  0  0
 14 15  1  6  0  0  0
 14 19  1  0  0  0  0
 16 13  1  1  0  0  0
 16 21  1  0  0  0  0
 17 18  1  1  0  0  0
 17 23  1  0  0  0  0
 18  8  1  0  0  0  0
 19 20  1  1  0  0  0
 19 25  1  0  0  0  0
 20  5  1  0  0  0  0
 21  3  1  6  0  0  0
 21 22  1  0  0  0  0
 21 27  1  0  0  0  0
 23 24  1  1  0  0  0
 23 29  1  0  0  0  0
 25 26  1  6  0  0  0
 25 31  1  0  0  0  0
 27  7  1  1  0  0  0
 27 28  1  0  0  0  0
 29 30  1  1  0  0  0
 29 33  1  0  0  0  0
 31 32  1  1  0  0  0
 31 35  1  0  0  0  0
 33 34  1  0  0  0  0
 33 37  1  6  0  0  0
 35 36  1  6  0  0  0
 37 38  1  0  0  0  0
M  END
>  <CHROM.1>
-139.74843194,58.54680959,156.41057177,-173.47791745,179.55242136,-86.49546014
90.18290727,-99.22392552,60.77473536,-132.95134616,155.72671722,3.52329979
35.04084767,-1.20210355,-0.35073032,-0.14226972,0.72289752

>  <Name>
1ntb_lig

>  <RI>
0

>  <Rbt.Current_Directory>
/home/itssahil/PROJECTS/Mol_Feturizer/New_Systems/rnas/1ntb

>  <Rbt.Executable>
rbdock ($Id: //depot/dev/client3/rdock/2013.1/src/exe/rbdock.cxx#4 $)

>  <Rbt.Library>
libRbt.so (2013.1, Build901 2013/11/27)

>  <Rbt.Parameter_File>
/export/apps/rDock/src/rDock_2013.1_src/data/scripts/dock_solv.prm

>  <Rbt.Receptor>
prm/pocket_docking_3.prm

>  <SCORE>
-22.788

>  <SCORE.INTER>
-12.9036

>  <SCORE.INTER.CONST>
1

>  <SCORE.INTER.POLAR>
-2.29128

>  <SCORE.INTER.ROT>
11

>  <SCORE.INTER.SOLV>
23.8985

>  <SCORE.INTER.VDW>
-19.8643

>  <SCORE.INTER.norm>
-0.32259

>  <SCORE.INTRA>
-9.88443

>  <SCORE.INTRA.DIHEDRAL>
-1.0833

>  <SCORE.INTRA.DIHEDRAL.0>
15.4453

>  <SCORE.INTRA.POLAR>
0

>  <SCORE.INTRA.POLAR.0>
0

>  <SCORE.INTRA.REPUL>
-0.75809

>  <SCORE.INTRA.REPUL.0>
0.823958

>  <SCORE.INTRA.SOLV>
0.829043

>  <SCORE.INTRA.SOLV.lig_0>
-99.3069

>  <SCORE.INTRA.VDW>
-5.96685

>  <SCORE.INTRA.VDW.0>
0.946495

>  <SCORE.INTRA.norm>
-0.247111

>  <SCORE.RESTR>
0

>  <SCORE.RESTR.CAVITY>
0

>  <SCORE.RESTR.norm>
0

>  <SCORE.SYSTEM>
0

>  <SCORE.SYSTEM.CONST>
0

>  <SCORE.SYSTEM.DIHEDRAL>
0

>  <SCORE.SYSTEM.SOLV>
0

>  <SCORE.SYSTEM.norm>
0

>  <SCORE.heavy>
40

>  <SCORE.norm>
-0.569701

>  <RMSD>
1.003

$$$$
1ntb_lig
 OpenBabel11021811403D
libRbt.so/2013.1/901 2013/11/27
 40 42  0  0  0  0  0  0  0  0999 V2000
    9.8812   33.3673   -0.9968 C   0  0  0  0  0  0  0  0  0  0  0  0
   10.5278   32.4854   -1.6559 N   0  0  0  0  0  0  0  0  0  0  0  0
   -0.5584   34.5107   -4.2366 C   0  0  0  0  0  0  0  0  0  0  0  0
   -1.6879   35.2486   -3.8006 O   0  0  0  0  0  0  0  0  0  0  0  0
    4.5879   36.6098    0.3445 C   0  0  0  0  0  0  0  0  0  0  0  0
    5.4558   37.0063    1.2057 N   0  0  0  0  0  0  0  0  0  0  0  0
    0.2532   31.6128   -3.0024 C   0  0  0  0  0  0  0  0  0  0  0  0
   -2.5134   36.2680    0.0405 C   0  0  0  0  0  0  0  0  0  0  0  0
    7.5577   33.7107   -1.2190 C   0  0  2  0  0  0  0  0  0  0  0  0
    8.7025   32.9888   -0.5413 N   0  0  0  0  0  0  0  0  0  0  0  0
    2.4222   34.2270   -2.0989 C   0  0  2  0  0  0  0  0  0  0  0  0
   -0.2063   36.7268   -2.1412 C   0  0  1  0  0  0  0  0  0  0  0  0
    0.8629   35.9172   -1.6879 O   0  0  0  0  0  0  0  0  0  0  0  0
    6.5414   34.2058   -0.1958 C   0  0  1  0  0  0  0  0  0  0  0  0
    7.3238   35.0871    0.7224 O   0  0  0  0  0  0  0  0  0  0  0  0
    1.3012   35.0825   -2.6605 C   0  0  2  0  0  0  0  0  0  0  0  0
   -0.6881   37.5797   -0.9927 C   0  0  1  0  0  0  0  0  0  0  0  0
   -1.1613   36.7494    0.0580 N   0  0  0  0  0  0  0  0  0  0  0  0
    5.3497   34.9159   -0.8346 C   0  0  2  0  0  0  0  0  0  0  0  0
    4.3548   35.4111    0.0942 N   0  0  0  0  0  0  0  0  0  0  0  0
    0.2565   34.0682   -3.0438 C   0  0  1  0  0  0  0  0  0  0  0  0
   -0.6044   33.8082   -1.9300 O   0  0  0  0  0  0  0  0  0  0  0  0
    0.4858   38.4105   -0.5025 C   0  0  2  0  0  0  0  0  0  0  0  0
    0.0913   39.2224    0.5819 O   0  0  0  0  0  0  0  0  0  0  0  0
    4.6836   33.9496   -1.7794 C   0  0  1  0  0  0  0  0  0  0  0  0
    3.6909   34.7438   -2.4865 O   0  0  0  0  0  0  0  0  0  0  0  0
    1.0347   32.8474   -3.3701 C   0  0  1  0  0  0  0  0  0  0  0  0
    2.2457   32.9049   -2.6128 O   0  0  0  0  0  0  0  0  0  0  0  0
    0.9410   39.2757   -1.6780 C   0  0  1  0  0  0  0  0  0  0  0  0
    2.0457   40.0817   -1.2989 O   0  0  0  0  0  0  0  0  0  0  0  0
    5.6943   33.4757   -2.8583 C   0  0  2  0  0  0  0  0  0  0  0  0
    5.0436   32.5787   -3.7450 O   0  0  0  0  0  0  0  0  0  0  0  0
    1.3332   38.3643   -2.8413 C   0  0  1  0  0  0  0  0  0  0  0  0
    0.2218   37.5541   -3.2204 O   0  0  0  0  0  0  0  0  0  0  0  0
    6.8726   32.7554   -2.1749 C   0  0  1  0  0  0  0  0  0  0  0  0
    7.8151   32.3112   -3.1581 O   0  0  0  0  0  0  0  0  0  0  0  0
    1.7578   39.2297   -4.0280 C   0  0  0  0  0  0  0  0  0  0  0  0
    1.7643   38.4364   -5.2041 O   0  0  0  0  0  0  0  0  0  0  0  0
   10.3333   34.5571   -0.8080 N   0  0  0  0  0  0  0  0  0  0  0  0
    3.8895   37.4500   -0.2496 N   0  0  0  0  0  0  0  0  0  0  0  0
  1  2  1  0  0  0  0
  1 39  1  0  0  0  0
  3  4  1  0  0  0  0
  5  6  1  0  0  0  0
  5 40  1  0  0  0  0
  9 10  1  1  0  0  0
  9 14  1  0  0  0  0
  9 35  1  0  0  0  0
 10  1  1  0  0  0  0
 11 16  1  0  0  0  0
 11 28  1  0  0  0  0
 11 26  1  6  0  0  0
 12 17  1  0  0  0  0
 12 34  1  0  0  0  0
 12 13  1  1  0  0  0
 14 15  1  1  0  0  0
 14 19  1  0  0  0  0
 16 13  1  1  0  0  0
 16 21  1  0  0  0  0
 17 18  1  1  0  0  0
 17 23  1  0  0  0  0
 18  8  1  0  0  0  0
 19 20  1  1  0  0  0
 19 25  1  0  0  0  0
 20  5  1  0  0  0  0
 21  3  1  6  0  0  0
 21 22  1  0  0  0  0
 21 27  1  0  0  0  0
 23 24  1  1  0  0  0
 23 29  1  0  0  0  0
 25 26  1  6  0  0  0
 25 31  1  0  0  0  0
 27  7  1  1  0  0  0
 27 28  1  0  0  0  0
 29 30  1  1  0  0  0
 29 33  1  0  0  0  0
 31 32  1  6  0  0  0
 31 35  1  0  0  0  0
 33 34  1  0  0  0  0
 33 37  1  6  0  0  0
 35 36  1  6  0  0  0
 37 38  1  0  0  0  0
M  END
>  <CHROM.1>
-133.78400346,-112.24783884,173.75885811,177.23601956,-178.78026313,-85.21719646
95.16248306,-81.78056767,-89.71445166,-114.48451855,-163.97062428,3.14703826
35.40540350,-1.77226995,-0.30714215,-0.25367134,0.44710183

>  <Name>
1ntb_lig

>  <RI>
0

>  <Rbt.Current_Directory>
/home/itssahil/PROJECTS/Mol_Feturizer/New_Systems/rnas/1ntb

>  <Rbt.Executable>
rbdock ($Id: //depot/dev/client3/rdock/2013.1/src/exe/rbdock.cxx#4 $)

>  <Rbt.Library>
libRbt.so (2013.1, Build901 2013/11/27)

>  <Rbt.Parameter_File>
/export/apps/rDock/src/rDock_2013.1_src/data/scripts/dock_solv.prm

>  <Rbt.Receptor>
prm/pocket_docking_4.prm

>  <SCORE>
-19.5839

>  <SCORE.INTER>
-9.4326

>  <SCORE.INTER.CONST>
1

>  <SCORE.INTER.POLAR>
-1.07769

>  <SCORE.INTER.ROT>
11

>  <SCORE.INTER.SOLV>
22.9231

>  <SCORE.INTER.VDW>
-21.2705

>  <SCORE.INTER.norm>
-0.235815

>  <SCORE.INTRA>
-10.1513

>  <SCORE.INTRA.DIHEDRAL>
-1.62606

>  <SCORE.INTRA.DIHEDRAL.0>
15.4453

>  <SCORE.INTRA.POLAR>
0

>  <SCORE.INTRA.POLAR.0>
0

>  <SCORE.INTRA.REPUL>
-0.823958

>  <SCORE.INTRA.REPUL.0>
0.823958

>  <SCORE.INTRA.SOLV>
0.806514

>  <SCORE.INTRA.SOLV.lig_0>
-99.3069

>  <SCORE.INTRA.VDW>
-5.6217

>  <SCORE.INTRA.VDW.0>
0.946495

>  <SCORE.INTRA.norm>
-0.253781

>  <SCORE.RESTR>
0

>  <SCORE.RESTR.CAVITY>
0

>  <SCORE.RESTR.norm>
0

>  <SCORE.SYSTEM>
0

>  <SCORE.SYSTEM.CONST>
0

>  <SCORE.SYSTEM.DIHEDRAL>
0

>  <SCORE.SYSTEM.SOLV>
0

>  <SCORE.SYSTEM.norm>
0

>  <SCORE.heavy>
40

>  <SCORE.norm>
-0.489596

>  <RMSD>
1.008

$$$$
1ntb_lig
 OpenBabel11021811403D
libRbt.so/2013.1/901 2013/11/27
 40 42  0  0  0  0  0  0  0  0999 V2000
   10.1605   33.2276   -1.1038 C   0  0  0  0  0  0  0  0  0  0  0  0
   10.3022   34.2374   -1.8721 N   0  0  0  0  0  0  0  0  0  0  0  0
   -0.4578   34.4811   -3.9450 C   0  0  0  0  0  0  0  0  0  0  0  0
    0.2249   34.5949   -5.1824 O   0  0  0  0  0  0  0  0  0  0  0  0
    5.1026   35.7750    0.3442 C   0  0  0  0  0  0  0  0  0  0  0  0
    4.9032   36.9388   -0.1635 N   0  0  0  0  0  0  0  0  0  0  0  0
    0.3254   31.5261   -2.8338 C   0  0  0  0  0  0  0  0  0  0  0  0
   -1.6017   35.7959    0.6897 C   0  0  0  0  0  0  0  0  0  0  0  0
    7.9280   33.2681   -1.8655 C   0  0  2  0  0  0  0  0  0  0  0  0
    9.1048   32.4732   -1.3417 N   0  0  0  0  0  0  0  0  0  0  0  0
    2.7746   33.9814   -2.2608 C   0  0  2  0  0  0  0  0  0  0  0  0
    0.2247   36.5163   -1.8414 C   0  0  1  0  0  0  0  0  0  0  0  0
    1.4094   35.7700   -1.6327 O   0  0  0  0  0  0  0  0  0  0  0  0
    6.9461   33.5933   -0.7452 C   0  0  1  0  0  0  0  0  0  0  0  0
    7.7535   34.3438    0.2631 O   0  0  0  0  0  0  0  0  0  0  0  0
    1.6447   34.9146   -2.6563 C   0  0  2  0  0  0  0  0  0  0  0  0
   -0.0906   37.2859   -0.5817 C   0  0  1  0  0  0  0  0  0  0  0  0
   -0.3066   36.3826    0.4930 N   0  0  0  0  0  0  0  0  0  0  0  0
    5.7239   34.3702   -1.2305 C   0  0  2  0  0  0  0  0  0  0  0  0
    4.7597   34.7095   -0.2044 N   0  0  0  0  0  0  0  0  0  0  0  0
    0.4891   33.9760   -2.8816 C   0  0  1  0  0  0  0  0  0  0  0  0
   -0.2172   33.7666   -1.6543 O   0  0  0  0  0  0  0  0  0  0  0  0
    1.0974   38.1805   -0.2704 C   0  0  2  0  0  0  0  0  0  0  0  0
    0.8586   38.9181    0.9083 O   0  0  0  0  0  0  0  0  0  0  0  0
    5.0326   33.5412   -2.2817 C   0  0  1  0  0  0  0  0  0  0  0  0
    4.0059   34.4142   -2.8295 O   0  0  0  0  0  0  0  0  0  0  0  0
    1.1274   32.7079   -3.3141 C   0  0  1  0  0  0  0  0  0  0  0  0
    2.4362   32.6780   -2.7403 O   0  0  0  0  0  0  0  0  0  0  0  0
    1.2704   39.1221   -1.4624 C   0  0  1  0  0  0  0  0  0  0  0  0
    2.3716   39.9914   -1.2491 O   0  0  0  0  0  0  0  0  0  0  0  0
    6.0066   33.2449   -3.4538 C   0  0  2  0  0  0  0  0  0  0  0  0
    5.3322   32.4763   -4.4379 O   0  0  0  0  0  0  0  0  0  0  0  0
    1.4989   38.2882   -2.7235 C   0  0  1  0  0  0  0  0  0  0  0  0
    0.3913   37.4145   -2.9358 O   0  0  0  0  0  0  0  0  0  0  0  0
    7.2171   32.4514   -2.9253 C   0  0  1  0  0  0  0  0  0  0  0  0
    8.1264   32.1695   -3.9959 O   0  0  0  0  0  0  0  0  0  0  0  0
    1.6397   39.2283   -3.9209 C   0  0  0  0  0  0  0  0  0  0  0  0
    1.7391   38.4583   -5.1082 O   0  0  0  0  0  0  0  0  0  0  0  0
   10.9767   32.9717   -0.1424 N   0  0  0  0  0  0  0  0  0  0  0  0
    5.7183   35.6757    1.4202 N   0  0  0  0  0  0  0  0  0  0  0  0
  1  2  1  0  0  0  0
  1 39  1  0  0  0  0
  3  4  1  0  0  0  0
  5  6  1  0  0  0  0
  5 40  1  0  0  0  0
  9 10  1  1  0  0  0
  9 14  1  0  0  0  0
  9 35  1  0  0  0  0
 10  1  1  0  0  0  0
 11 16  1  0  0  0  0
 11 28  1  0  0  0  0
 11 26  1  6  0  0  0
 12 17  1  0  0  0  0
 12 34  1  0  0  0  0
 12 13  1  1  0  0  0
 14 15  1  1  0  0  0
 14 19  1  0  0  0  0
 16 13  1  1  0  0  0
 16 21  1  0  0  0  0
 17 18  1  1  0  0  0
 17 23  1  0  0  0  0
 18  8  1  0  0  0  0
 19 20  1  1  0  0  0
 19 25  1  0  0  0  0
 20  5  1  0  0  0  0
 21  3  1  6  0  0  0
 21 22  1  0  0  0  0
 21 27  1  0  0  0  0
 23 24  1  1  0  0  0
 23 29  1  0  0  0  0
 25 26  1  6  0  0  0
 25 31  1  0  0  0  0
 27  7  1  1  0  0  0
 27 28  1  0  0  0  0
 29 30  1  1  0  0  0
 29 33  1  0  0  0  0
 31 32  1  6  0  0  0
 31 35  1  0  0  0  0
 33 34  1  0  0  0  0
 33 37  1  6  0  0  0
 35 36  1  6  0  0  0
 37 38  1  0  0  0  0
M  END
>  <CHROM.1>
-98.21381642,-32.30377427,174.30928203,171.39836950,-170.03052177,-84.69122441
85.59745574,79.12885020,61.37937528,-103.34185877,-175.13222874,3.55286953
35.11069853,-1.86714096,-0.32578208,-0.26767876,0.57676756

>  <Name>
1ntb_lig

>  <RI>
0

>  <Rbt.Current_Directory>
/home/itssahil/PROJECTS/Mol_Feturizer/New_Systems/rnas/1ntb

>  <Rbt.Executable>
rbdock ($Id: //depot/dev/client3/rdock/2013.1/src/exe/rbdock.cxx#4 $)

>  <Rbt.Library>
libRbt.so (2013.1, Build901 2013/11/27)

>  <Rbt.Parameter_File>
/export/apps/rDock/src/rDock_2013.1_src/data/scripts/dock_solv.prm

>  <Rbt.Receptor>
prm/pocket_docking_3.prm

>  <SCORE>
-19.2745

>  <SCORE.INTER>
-9.05208

>  <SCORE.INTER.CONST>
1

>  <SCORE.INTER.POLAR>
-0.891007

>  <SCORE.INTER.ROT>
11

>  <SCORE.INTER.SOLV>
28.2479

>  <SCORE.INTER.VDW>
-23.414

>  <SCORE.INTER.norm>
-0.226302

>  <SCORE.INTRA>
-10.2398

>  <SCORE.INTRA.DIHEDRAL>
-5.20253

>  <SCORE.INTRA.DIHEDRAL.0>
15.4453

>  <SCORE.INTRA.POLAR>
0

>  <SCORE.INTRA.POLAR.0>
0

>  <SCORE.INTRA.REPUL>
-0.823958

>  <SCORE.INTRA.REPUL.0>
0.823958

>  <SCORE.INTRA.SOLV>
-0.817416

>  <SCORE.INTRA.SOLV.lig_0>
-99.3069

>  <SCORE.INTRA.VDW>
-3.11002

>  <SCORE.INTRA.VDW.0>
0.946495

>  <SCORE.INTRA.norm>
-0.255995

>  <SCORE.RESTR>
0.0174124

>  <SCORE.RESTR.CAVITY>
0.0174124

>  <SCORE.RESTR.norm>
0.000435311

>  <SCORE.SYSTEM>
0

>  <SCORE.SYSTEM.CONST>
0

>  <SCORE.SYSTEM.DIHEDRAL>
0

>  <SCORE.SYSTEM.SOLV>
0

>  <SCORE.SYSTEM.norm>
0

>  <SCORE.heavy>
40

>  <SCORE.norm>
-0.481861

>  <RMSD>
1.009

$$$$
1ntb_lig
 OpenBabel11021811403D
libRbt.so/2013.1/901 2013/11/27
 40 42  0  0  0  0  0  0  0  0999 V2000
   10.0383   32.8414   -0.9830 C   0  0  0  0  0  0  0  0  0  0  0  0
   10.9475   32.7498   -0.0912 N   0  0  0  0  0  0  0  0  0  0  0  0
   -0.1220   34.6444   -4.7585 C   0  0  0  0  0  0  0  0  0  0  0  0
   -1.1852   33.7542   -5.0543 O   0  0  0  0  0  0  0  0  0  0  0  0
    4.8826   36.2303    0.3105 C   0  0  0  0  0  0  0  0  0  0  0  0
    4.7944   37.3470   -0.3198 N   0  0  0  0  0  0  0  0  0  0  0  0
    0.4165   31.7346   -3.4084 C   0  0  0  0  0  0  0  0  0  0  0  0
   -2.4589   36.0420   -0.9856 C   0  0  0  0  0  0  0  0  0  0  0  0
    7.7592   33.3554   -1.3105 C   0  0  2  0  0  0  0  0  0  0  0  0
    8.8152   32.5514   -0.5828 N   0  0  0  0  0  0  0  0  0  0  0  0
    2.7331   34.2097   -2.4795 C   0  0  2  0  0  0  0  0  0  0  0  0
    0.2600   36.8536   -2.6930 C   0  0  1  0  0  0  0  0  0  0  0  0
    1.2878   36.0216   -2.1875 O   0  0  0  0  0  0  0  0  0  0  0  0
    6.6850   33.8463   -0.3461 C   0  0  1  0  0  0  0  0  0  0  0  0
    7.4263   34.6470    0.6742 O   0  0  0  0  0  0  0  0  0  0  0  0
    1.7045   35.1271   -3.1154 C   0  0  2  0  0  0  0  0  0  0  0  0
   -0.4975   37.4476   -1.5302 C   0  0  1  0  0  0  0  0  0  0  0  0
   -1.0900   36.4106   -0.7615 N   0  0  0  0  0  0  0  0  0  0  0  0
    5.5786   34.6387   -1.0393 C   0  0  2  0  0  0  0  0  0  0  0  0
    4.5332   35.1332   -0.1673 N   0  0  0  0  0  0  0  0  0  0  0  0
    0.6048   34.1807   -3.5178 C   0  0  1  0  0  0  0  0  0  0  0  0
   -0.3209   34.0192   -2.4379 O   0  0  0  0  0  0  0  0  0  0  0  0
    0.4911   38.2215   -0.6744 C   0  0  2  0  0  0  0  0  0  0  0  0
   -0.1655   38.7916    0.4367 O   0  0  0  0  0  0  0  0  0  0  0  0
    4.9517   33.7492   -2.0814 C   0  0  1  0  0  0  0  0  0  0  0  0
    4.0525   34.6198   -2.8228 O   0  0  0  0  0  0  0  0  0  0  0  0
    1.3033   32.8966   -3.7741 C   0  0  1  0  0  0  0  0  0  0  0  0
    2.4809   32.8887   -2.9640 O   0  0  0  0  0  0  0  0  0  0  0  0
    1.0865   39.3158   -1.5606 C   0  0  1  0  0  0  0  0  0  0  0  0
    2.0302   40.0836   -0.8302 O   0  0  0  0  0  0  0  0  0  0  0  0
    6.0257   33.2823   -3.1006 C   0  0  2  0  0  0  0  0  0  0  0  0
    5.4123   32.4585   -4.0801 O   0  0  0  0  0  0  0  0  0  0  0  0
    1.7639   38.6632   -2.7661 C   0  0  1  0  0  0  0  0  0  0  0  0
    0.8138   37.8911   -3.4987 O   0  0  0  0  0  0  0  0  0  0  0  0
    7.1147   32.4783   -2.3646 C   0  0  1  0  0  0  0  0  0  0  0  0
    8.1144   32.0395   -3.2922 O   0  0  0  0  0  0  0  0  0  0  0  0
    2.3314   39.7585   -3.6692 C   0  0  0  0  0  0  0  0  0  0  0  0
    1.2808   40.6247   -4.0672 O   0  0  0  0  0  0  0  0  0  0  0  0
   10.2959   33.1696   -2.2003 N   0  0  0  0  0  0  0  0  0  0  0  0
    5.3914   36.2082    1.4451 N   0  0  0  0  0  0  0  0  0  0  0  0
  1  2  1  0  0  0  0
  1 39  1  0  0  0  0
  3  4  1  0  0  0  0
  5  6  1  0  0  0  0
  5 40  1  0  0  0  0
  9 10  1  1  0  0  0
  9 14  1  0  0  0  0
  9 35  1  0  0  0  0
 10  1  1  0  0  0  0
 11 16  1  0  0  0  0
 11 28  1  0  0  0  0
 11 26  1  6  0  0  0
 12 17  1  0  0  0  0
 12 34  1  0  0  0  0
 12 13  1  1  0  0  0
 14 15  1  1  0  0  0
 14 19  1  0  0  0  0
 16 13  1  1  0  0  0
 16 21  1  0  0  0  0
 17 18  1  1  0  0  0
 17 23  1  0  0  0  0
 18  8  1  0  0  0  0
 19 20  1  1  0  0  0
 19 25  1  0  0  0  0
 20  5  1  0  0  0  0
 21  3  1  6  0  0  0
 21 22  1  0  0  0  0
 21 27  1  0  0  0  0
 23 24  1  1  0  0  0
 23 29  1  0  0  0  0
 25 26  1  6  0  0  0
 25 31  1  0  0  0  0
 27  7  1  1  0  0  0
 27 28  1  0  0  0  0
 29 30  1  1  0  0  0
 29 33  1  0  0  0  0
 31 32  1  6  0  0  0
 31 35  1  0  0  0  0
 33 34  1  0  0  0  0
 33 37  1  6  0  0  0
 35 36  1  6  0  0  0
 37 38  1  0  0  0  0
M  END
>  <CHROM.1>
-137.61233588,147.81053994,175.51637383,159.30333623,-176.13026792,-96.16871583
85.91870432,80.27272907,-177.18067657,-110.00463009,-57.95681001,3.38571730
35.29022141,-1.98806976,-0.35440950,-0.31496156,0.44297774

>  <Name>
1ntb_lig

>  <RI>
0

>  <Rbt.Current_Directory>
/home/itssahil/PROJECTS/Mol_Feturizer/New_Systems/rnas/1ntb

>  <Rbt.Executable>
rbdock ($Id: //depot/dev/client3/rdock/2013.1/src/exe/rbdock.cxx#4 $)

>  <Rbt.Library>
libRbt.so (2013.1, Build901 2013/11/27)

>  <Rbt.Parameter_File>
/export/apps/rDock/src/rDock_2013.1_src/data/scripts/dock_solv.prm

>  <Rbt.Receptor>
prm/pocket_docking_2.prm

>  <SCORE>
-19.3392

>  <SCORE.INTER>
-8.77799

>  <SCORE.INTER.CONST>
1

>  <SCORE.INTER.POLAR>
-0.557075

>  <SCORE.INTER.ROT>
11

>  <SCORE.INTER.SOLV>
26.1101

>  <SCORE.INTER.VDW>
-23.6318

>  <SCORE.INTER.norm>
-0.21945

>  <SCORE.INTRA>
-10.5612

>  <SCORE.INTRA.DIHEDRAL>
-2.90995

>  <SCORE.INTRA.DIHEDRAL.0>
15.4453

>  <SCORE.INTRA.POLAR>
0

>  <SCORE.INTRA.POLAR.0>
0

>  <SCORE.INTRA.REPUL>
-0.80522

>  <SCORE.INTRA.REPUL.0>
0.823958

>  <SCORE.INTRA.SOLV>
-1.03749

>  <SCORE.INTRA.SOLV.lig_0>
-99.3069

>  <SCORE.INTRA.VDW>
-4.56141

>  <SCORE.INTRA.VDW.0>
0.946495

>  <SCORE.INTRA.norm>
-0.264031

>  <SCORE.RESTR>
0

>  <SCORE.RESTR.CAVITY>
0

>  <SCORE.RESTR.norm>
0

>  <SCORE.SYSTEM>
0

>  <SCORE.SYSTEM.CONST>
0

>  <SCORE.SYSTEM.DIHEDRAL>
0

>  <SCORE.SYSTEM.SOLV>
0

>  <SCORE.SYSTEM.norm>
0

>  <SCORE.heavy>
40

>  <SCORE.norm>
-0.483481

>  <RMSD>
1.014

$$$$
1ntb_lig
 OpenBabel11021811403D
libRbt.so/2013.1/901 2013/11/27
 40 42  0  0  0  0  0  0  0  0999 V2000
   10.2291   33.1265   -1.5105 C   0  0  0  0  0  0  0  0  0  0  0  0
   11.0777   32.4993   -2.2294 N   0  0  0  0  0  0  0  0  0  0  0  0
   -0.5259   35.0493   -3.5380 C   0  0  0  0  0  0  0  0  0  0  0  0
    0.1626   35.6194   -4.6386 O   0  0  0  0  0  0  0  0  0  0  0  0
    5.0543   35.8193    0.4655 C   0  0  0  0  0  0  0  0  0  0  0  0
    4.9158   36.9377   -0.1526 N   0  0  0  0  0  0  0  0  0  0  0  0
    0.1602   31.8700   -3.5009 C   0  0  0  0  0  0  0  0  0  0  0  0
   -1.5030   35.6669    2.0326 C   0  0  0  0  0  0  0  0  0  0  0  0
    7.8938   33.3112   -1.7895 C   0  0  2  0  0  0  0  0  0  0  0  0
    9.0823   32.5062   -1.3096 N   0  0  0  0  0  0  0  0  0  0  0  0
    2.7133   33.9144   -2.2134 C   0  0  2  0  0  0  0  0  0  0  0  0
    0.4240   36.4259   -0.9438 C   0  0  1  0  0  0  0  0  0  0  0  0
    1.4304   35.4310   -0.9842 O   0  0  0  0  0  0  0  0  0  0  0  0
    6.9367   33.6106   -0.6409 C   0  0  1  0  0  0  0  0  0  0  0  0
    7.7658   34.3395    0.3656 O   0  0  0  0  0  0  0  0  0  0  0  0
    1.6141   34.9608   -2.2411 C   0  0  2  0  0  0  0  0  0  0  0  0
    0.1136   36.7418    0.4992 C   0  0  1  0  0  0  0  0  0  0  0  0
   -0.3721   35.5782    1.1530 N   0  0  0  0  0  0  0  0  0  0  0  0
    5.7036   34.3966   -1.0818 C   0  0  2  0  0  0  0  0  0  0  0  0
    4.7622   34.7121   -0.0274 N   0  0  0  0  0  0  0  0  0  0  0  0
    0.4189   34.1881   -2.7327 C   0  0  1  0  0  0  0  0  0  0  0  0
   -0.2736   33.6020   -1.6254 O   0  0  0  0  0  0  0  0  0  0  0  0
    1.3989   37.2061    1.1634 C   0  0  2  0  0  0  0  0  0  0  0  0
    1.1664   37.5063    2.5222 O   0  0  0  0  0  0  0  0  0  0  0  0
    4.9896   33.5903   -2.1355 C   0  0  1  0  0  0  0  0  0  0  0  0
    3.9506   34.4740   -2.6410 O   0  0  0  0  0  0  0  0  0  0  0  0
    0.9994   33.1188   -3.5824 C   0  0  1  0  0  0  0  0  0  0  0  0
    2.3159   32.8578   -3.0904 O   0  0  0  0  0  0  0  0  0  0  0  0
    1.8619   38.4552    0.4134 C   0  0  1  0  0  0  0  0  0  0  0  0
    3.0685   38.9488    0.9741 O   0  0  0  0  0  0  0  0  0  0  0  0
    5.9377   33.3210   -3.3350 C   0  0  2  0  0  0  0  0  0  0  0  0
    5.2420   32.5736   -4.3207 O   0  0  0  0  0  0  0  0  0  0  0  0
    2.0764   38.0987   -1.0579 C   0  0  1  0  0  0  0  0  0  0  0  0
    0.8627   37.6019   -1.6197 O   0  0  0  0  0  0  0  0  0  0  0  0
    7.1600   32.5173   -2.8512 C   0  0  1  0  0  0  0  0  0  0  0  0
    8.0455   32.2601   -3.9476 O   0  0  0  0  0  0  0  0  0  0  0  0
    2.5083   39.3550   -1.8148 C   0  0  0  0  0  0  0  0  0  0  0  0
    1.5021   40.3463   -1.6842 O   0  0  0  0  0  0  0  0  0  0  0  0
   10.4618   34.2980   -1.0318 N   0  0  0  0  0  0  0  0  0  0  0  0
    5.5561   35.8087    1.6034 N   0  0  0  0  0  0  0  0  0  0  0  0
  1  2  1  0  0  0  0
  1 39  1  0  0  0  0
  3  4  1  0  0  0  0
  5  6  1  0  0  0  0
  5 40  1  0  0  0  0
  9 10  1  1  0  0  0
  9 14  1  0  0  0  0
  9 35  1  0  0  0  0
 10  1  1  0  0  0  0
 11 16  1  0  0  0  0
 11 28  1  0  0  0  0
 11 26  1  6  0  0  0
 12 17  1  0  0  0  0
 12 34  1  0  0  0  0
 12 13  1  1  0  0  0
 14 15  1  1  0  0  0
 14 19  1  0  0  0  0
 16 13  1  1  0  0  0
 16 21  1  0  0  0  0
 17 18  1  1  0  0  0
 17 23  1  0  0  0  0
 18  8  1  0  0  0  0
 19 20  1  1  0  0  0
 19 25  1  0  0  0  0
 20  5  1  0  0  0  0
 21  3  1  6  0  0  0
 21 22  1  0  0  0  0
 21 27  1  0  0  0  0
 23 24  1  1  0  0  0
 23 29  1  0  0  0  0
 25 26  1  6  0  0  0
 25 31  1  0  0  0  0
 27  7  1  1  0  0  0
 27 28  1  0  0  0  0
 29 30  1  1  0  0  0
 29 33  1  0  0  0  0
 31 32  1  6  0  0  0
 31 35  1  0  0  0  0
 33 34  1  0  0  0  0
 33 37  1  6  0  0  0
 35 36  1  6  0  0  0
 37 38  1  0  0  0  0
M  END
>  <CHROM.1>
-119.95311683,-121.78071050,159.95678308,170.88216139,179.33375951,-136.53385377
90.89578683,69.55511926,57.60926657,-111.54494448,-59.20208265,3.62572398
35.08561939,-1.33738838,-0.39653349,-0.17774258,0.73931568

>  <Name>
1ntb_lig

>  <RI>
0

>  <Rbt.Current_Directory>
/home/itssahil/PROJECTS/Mol_Feturizer/New_Systems/rnas/1ntb

>  <Rbt.Executable>
rbdock ($Id: //depot/dev/client3/rdock/2013.1/src/exe/rbdock.cxx#4 $)

>  <Rbt.Library>
libRbt.so (2013.1, Build901 2013/11/27)

>  <Rbt.Parameter_File>
/export/apps/rDock/src/rDock_2013.1_src/data/scripts/dock_solv.prm

>  <Rbt.Receptor>
prm/pocket_docking_4.prm

>  <SCORE>
-22.0647

>  <SCORE.INTER>
-11.127

>  <SCORE.INTER.CONST>
1

>  <SCORE.INTER.POLAR>
-1.67479

>  <SCORE.INTER.ROT>
11

>  <SCORE.INTER.SOLV>
24.402

>  <SCORE.INTER.VDW>
-20.9027

>  <SCORE.INTER.norm>
-0.278175

>  <SCORE.INTRA>
-10.9378

>  <SCORE.INTRA.DIHEDRAL>
-2.26271

>  <SCORE.INTRA.DIHEDRAL.0>
15.4453

>  <SCORE.INTRA.POLAR>
0

>  <SCORE.INTRA.POLAR.0>
0

>  <SCORE.INTRA.REPUL>
-0.76093

>  <SCORE.INTRA.REPUL.0>
0.823958

>  <SCORE.INTRA.SOLV>
2.04151

>  <SCORE.INTRA.SOLV.lig_0>
-99.3069

>  <SCORE.INTRA.VDW>
-7.02251

>  <SCORE.INTRA.VDW.0>
0.946495

>  <SCORE.INTRA.norm>
-0.273444

>  <SCORE.RESTR>
0

>  <SCORE.RESTR.CAVITY>
0

>  <SCORE.RESTR.norm>
0

>  <SCORE.SYSTEM>
0

>  <SCORE.SYSTEM.CONST>
0

>  <SCORE.SYSTEM.DIHEDRAL>
0

>  <SCORE.SYSTEM.SOLV>
0

>  <SCORE.SYSTEM.norm>
0

>  <SCORE.heavy>
40

>  <SCORE.norm>
-0.551619

>  <RMSD>
1.024

$$$$
1ntb_lig
 OpenBabel11021811403D
libRbt.so/2013.1/901 2013/11/27
 40 42  0  0  0  0  0  0  0  0999 V2000
   10.1828   33.2038   -1.1722 C   0  0  0  0  0  0  0  0  0  0  0  0
   10.4657   34.3941   -0.8070 N   0  0  0  0  0  0  0  0  0  0  0  0
   -0.4591   35.1188   -3.5683 C   0  0  0  0  0  0  0  0  0  0  0  0
   -1.5011   34.3504   -4.1464 O   0  0  0  0  0  0  0  0  0  0  0  0
    5.3392   36.5507    0.5370 C   0  0  0  0  0  0  0  0  0  0  0  0
    6.0257   36.7848    1.5982 N   0  0  0  0  0  0  0  0  0  0  0  0
    0.4301   31.9983   -3.7965 C   0  0  0  0  0  0  0  0  0  0  0  0
   -1.6879   35.6776    2.2509 C   0  0  0  0  0  0  0  0  0  0  0  0
    7.8475   33.4951   -1.3381 C   0  0  2  0  0  0  0  0  0  0  0  0
    9.0213   32.7394   -0.7533 N   0  0  0  0  0  0  0  0  0  0  0  0
    2.6869   34.0173   -2.0115 C   0  0  2  0  0  0  0  0  0  0  0  0
    0.1710   36.3028   -0.7484 C   0  0  1  0  0  0  0  0  0  0  0  0
    1.1803   35.3106   -0.7809 O   0  0  0  0  0  0  0  0  0  0  0  0
    6.9763   34.0890   -0.2366 C   0  0  1  0  0  0  0  0  0  0  0  0
    7.8987   34.9630    0.5490 O   0  0  0  0  0  0  0  0  0  0  0  0
    1.5296   34.9985   -2.0519 C   0  0  2  0  0  0  0  0  0  0  0  0
   -0.0681   36.7029    0.6873 C   0  0  1  0  0  0  0  0  0  0  0  0
   -0.5126   35.5787    1.4328 N   0  0  0  0  0  0  0  0  0  0  0  0
    5.7595   34.8372   -0.7772 C   0  0  2  0  0  0  0  0  0  0  0  0
    4.8991   35.4260    0.2282 N   0  0  0  0  0  0  0  0  0  0  0  0
    0.4488   34.2235   -2.7578 C   0  0  1  0  0  0  0  0  0  0  0  0
   -0.3183   33.4774   -1.8071 O   0  0  0  0  0  0  0  0  0  0  0  0
    1.2462   37.2103    1.2565 C   0  0  2  0  0  0  0  0  0  0  0  0
    1.0809   37.5900    2.6052 O   0  0  0  0  0  0  0  0  0  0  0  0
    4.9453   33.8708   -1.5976 C   0  0  1  0  0  0  0  0  0  0  0  0
    3.9229   34.6888   -2.2314 O   0  0  0  0  0  0  0  0  0  0  0  0
    1.1878   33.2920   -3.6459 C   0  0  1  0  0  0  0  0  0  0  0  0
    2.4580   33.0483   -3.0372 O   0  0  0  0  0  0  0  0  0  0  0  0
    1.6627   38.4141    0.4111 C   0  0  1  0  0  0  0  0  0  0  0  0
    2.8928   38.9443    0.8794 O   0  0  0  0  0  0  0  0  0  0  0  0
    5.8059   33.2960   -2.7548 C   0  0  2  0  0  0  0  0  0  0  0  0
    5.0168   32.4003   -3.5225 O   0  0  0  0  0  0  0  0  0  0  0  0
    1.8046   37.9714   -1.0455 C   0  0  1  0  0  0  0  0  0  0  0  0
    0.5673   37.4379   -1.5143 O   0  0  0  0  0  0  0  0  0  0  0  0
    7.0137   32.5402   -2.1681 C   0  0  1  0  0  0  0  0  0  0  0  0
    7.8187   32.0029   -3.2243 O   0  0  0  0  0  0  0  0  0  0  0  0
    2.1896   39.1818   -1.8965 C   0  0  0  0  0  0  0  0  0  0  0  0
    1.1606   40.1548   -1.8146 O   0  0  0  0  0  0  0  0  0  0  0  0
   10.9852   32.4901   -1.8811 N   0  0  0  0  0  0  0  0  0  0  0  0
    5.0379   37.4938   -0.2156 N   0  0  0  0  0  0  0  0  0  0  0  0
  1  2  1  0  0  0  0
  1 39  1  0  0  0  0
  3  4  1  0  0  0  0
  5  6  1  0  0  0  0
  5 40  1  0  0  0  0
  9 10  1  1  0  0  0
  9 14  1  0  0  0  0
  9 35  1  0  0  0  0
 10  1  1  0  0  0  0
 11 16  1  0  0  0  0
 11 28  1  0  0  0  0
 11 26  1  6  0  0  0
 12 17  1  0  0  0  0
 12 34  1  0  0  0  0
 12 13  1  1  0  0  0
 14 15  1  6  0  0  0
 14 19  1  0  0  0  0
 16 13  1  1  0  0  0
 16 21  1  0  0  0  0
 17 18  1  1  0  0  0
 17 23  1  0  0  0  0
 18  8  1  0  0  0  0
 19 20  1  1  0  0  0
 19 25  1  0  0  0  0
 20  5  1  0  0  0  0
 21  3  1  6  0  0  0
 21 22  1  0  0  0  0
 21 27  1  0  0  0  0
 23 24  1  1  0  0  0
 23 29  1  0  0  0  0
 25 26  1  6  0  0  0
 25 31  1  0  0  0  0
 27  7  1  1  0  0  0
 27 28  1  0  0  0  0
 29 30  1  1  0  0  0
 29 33  1  0  0  0  0
 31 32  1  1  0  0  0
 31 35  1  0  0  0  0
 33 34  1  0  0  0  0
 33 37  1  6  0  0  0
 35 36  1  6  0  0  0
 37 38  1  0  0  0  0
M  END
>  <CHROM.1>
-122.06702441,65.18738576,154.75574435,-174.26024428,175.50134814,-129.70737799
85.47828049,-100.77107244,-176.60290854,-131.59386102,-61.42250553,3.52378565
35.16704768,-1.13309576,-0.30775004,-0.17453737,0.69538538

>  <Name>
1ntb_lig

>  <RI>
0

>  <Rbt.Current_Directory>
/home/itssahil/PROJECTS/Mol_Feturizer/New_Systems/rnas/1ntb

>  <Rbt.Executable>
rbdock ($Id: //depot/dev/client3/rdock/2013.1/src/exe/rbdock.cxx#4 $)

>  <Rbt.Library>
libRbt.so (2013.1, Build901 2013/11/27)

>  <Rbt.Parameter_File>
/export/apps/rDock/src/rDock_2013.1_src/data/scripts/dock_solv.prm

>  <Rbt.Receptor>
prm/pocket_docking_5.prm

>  <SCORE>
-21.5736

>  <SCORE.INTER>
-11.4211

>  <SCORE.INTER.CONST>
1

>  <SCORE.INTER.POLAR>
-1.92165

>  <SCORE.INTER.ROT>
11

>  <SCORE.INTER.SOLV>
24.1788

>  <SCORE.INTER.VDW>
-20.2015

>  <SCORE.INTER.norm>
-0.285527

>  <SCORE.INTRA>
-10.1525

>  <SCORE.INTRA.DIHEDRAL>
-1.60569

>  <SCORE.INTRA.DIHEDRAL.0>
15.4453

>  <SCORE.INTRA.POLAR>
0

>  <SCORE.INTRA.POLAR.0>
0

>  <SCORE.INTRA.REPUL>
-0.747296

>  <SCORE.INTRA.REPUL.0>
0.823958

>  <SCORE.INTRA.SOLV>
1.19816

>  <SCORE.INTRA.SOLV.lig_0>
-99.3069

>  <SCORE.INTRA.VDW>
-6.21223

>  <SCORE.INTRA.VDW.0>
0.946495

>  <SCORE.INTRA.norm>
-0.253812

>  <SCORE.RESTR>
0

>  <SCORE.RESTR.CAVITY>
0

>  <SCORE.RESTR.norm>
0

>  <SCORE.SYSTEM>
0

>  <SCORE.SYSTEM.CONST>
0

>  <SCORE.SYSTEM.DIHEDRAL>
0

>  <SCORE.SYSTEM.SOLV>
0

>  <SCORE.SYSTEM.norm>
0

>  <SCORE.heavy>
40

>  <SCORE.norm>
-0.539339

>  <RMSD>
1.044

$$$$
1ntb_lig
 OpenBabel11021811403D
libRbt.so/2013.1/901 2013/11/27
 40 42  0  0  0  0  0  0  0  0999 V2000
   10.2229   32.8624   -1.8556 C   0  0  0  0  0  0  0  0  0  0  0  0
   10.4865   34.1117   -1.8511 N   0  0  0  0  0  0  0  0  0  0  0  0
   -0.6044   34.7103   -3.3285 C   0  0  0  0  0  0  0  0  0  0  0  0
   -1.7599   33.9252   -3.5709 O   0  0  0  0  0  0  0  0  0  0  0  0
    4.8971   35.5973    0.4922 C   0  0  0  0  0  0  0  0  0  0  0  0
    5.5253   35.7618    1.6014 N   0  0  0  0  0  0  0  0  0  0  0  0
    0.1043   31.5459   -3.0745 C   0  0  0  0  0  0  0  0  0  0  0  0
   -1.6500   35.0053    1.2716 C   0  0  0  0  0  0  0  0  0  0  0  0
    7.9004   33.2556   -1.7241 C   0  0  2  0  0  0  0  0  0  0  0  0
    9.1193   32.5099   -1.2248 N   0  0  0  0  0  0  0  0  0  0  0  0
    2.7130   33.6933   -2.1057 C   0  0  2  0  0  0  0  0  0  0  0  0
    0.4274   36.2335   -0.8898 C   0  0  1  0  0  0  0  0  0  0  0  0
    1.4924   35.3017   -0.9309 O   0  0  0  0  0  0  0  0  0  0  0  0
    6.9069   33.4985   -0.5932 C   0  0  1  0  0  0  0  0  0  0  0  0
    7.6776   34.2631    0.4331 O   0  0  0  0  0  0  0  0  0  0  0  0
    1.6070   34.7317   -2.1543 C   0  0  2  0  0  0  0  0  0  0  0  0
    0.1302   36.5653    0.5525 C   0  0  1  0  0  0  0  0  0  0  0  0
   -0.2675   35.3905    1.2446 N   0  0  0  0  0  0  0  0  0  0  0  0
    5.6439   34.2227   -1.0545 C   0  0  2  0  0  0  0  0  0  0  0  0
    4.6670   34.4831   -0.0174 N   0  0  0  0  0  0  0  0  0  0  0  0
    0.3909   33.9192   -2.5122 C   0  0  1  0  0  0  0  0  0  0  0  0
   -0.2330   33.4232   -1.3231 O   0  0  0  0  0  0  0  0  0  0  0  0
    1.3987   37.1241    1.1748 C   0  0  2  0  0  0  0  0  0  0  0  0
    1.1784   37.4430    2.5314 O   0  0  0  0  0  0  0  0  0  0  0  0
    4.9931   33.3870   -2.1261 C   0  0  1  0  0  0  0  0  0  0  0  0
    3.9199   34.2192   -2.6477 O   0  0  0  0  0  0  0  0  0  0  0  0
    0.9290   32.7858   -3.3049 C   0  0  1  0  0  0  0  0  0  0  0  0
    2.2732   32.5684   -2.8702 O   0  0  0  0  0  0  0  0  0  0  0  0
    1.7664   38.3805    0.3850 C   0  0  1  0  0  0  0  0  0  0  0  0
    2.9521   38.9612    0.9051 O   0  0  0  0  0  0  0  0  0  0  0  0
    5.9770   33.1739   -3.3080 C   0  0  2  0  0  0  0  0  0  0  0  0
    5.3401   32.3976   -4.3109 O   0  0  0  0  0  0  0  0  0  0  0  0
    1.9696   38.0015   -1.0823 C   0  0  1  0  0  0  0  0  0  0  0  0
    0.7769   37.4172   -1.6032 O   0  0  0  0  0  0  0  0  0  0  0  0
    7.2294   32.4313   -2.8040 C   0  0  1  0  0  0  0  0  0  0  0  0
    8.1482   32.2265   -3.8839 O   0  0  0  0  0  0  0  0  0  0  0  0
    2.3057   39.2628   -1.8783 C   0  0  0  0  0  0  0  0  0  0  0  0
    1.1999   40.1503   -1.8332 O   0  0  0  0  0  0  0  0  0  0  0  0
   10.9929   31.9964   -2.4150 N   0  0  0  0  0  0  0  0  0  0  0  0
    4.4355   36.5882   -0.1008 N   0  0  0  0  0  0  0  0  0  0  0  0
  1  2  1  0  0  0  0
  1 39  1  0  0  0  0
  3  4  1  0  0  0  0
  5  6  1  0  0  0  0
  5 40  1  0  0  0  0
  9 10  1  1  0  0  0
  9 14  1  0  0  0  0
  9 35  1  0  0  0  0
 10  1  1  0  0  0  0
 11 16  1  0  0  0  0
 11 28  1  0  0  0  0
 11 26  1  6  0  0  0
 12 17  1  0  0  0  0
 12 34  1  0  0  0  0
 12 13  1  1  0  0  0
 14 15  1  1  0  0  0
 14 19  1  0  0  0  0
 16 13  1  1  0  0  0
 16 21  1  0  0  0  0
 17 18  1  1  0  0  0
 17 23  1  0  0  0  0
 18  8  1  0  0  0  0
 19 20  1  1  0  0  0
 19 25  1  0  0  0  0
 20  5  1  0  0  0  0
 21  3  1  6  0  0  0
 21 22  1  0  0  0  0
 21 27  1  0  0  0  0
 23 24  1  1  0  0  0
 23 29  1  0  0  0  0
 25 26  1  6  0  0  0
 25 31  1  0  0  0  0
 27  7  1  1  0  0  0
 27 28  1  0  0  0  0
 29 30  1  1  0  0  0
 29 33  1  0  0  0  0
 31 32  1  6  0  0  0
 31 35  1  0  0  0  0
 33 34  1  0  0  0  0
 33 37  1  6  0  0  0
 35 36  1  6  0  0  0
 37 38  1  0  0  0  0
M  END
>  <CHROM.1>
-146.59066239,54.71233469,159.58180610,165.86963367,-176.92623268,-88.50643365
90.48941371,-99.39457862,-176.64198328,-104.28347458,-63.71678953,3.52690195
34.85328569,-1.30213767,-0.39482917,-0.11195667,0.64116052

>  <Name>
1ntb_lig

>  <RI>
0

>  <Rbt.Current_Directory>
/home/itssahil/PROJECTS/Mol_Feturizer/New_Systems/rnas/1ntb

>  <Rbt.Executable>
rbdock ($Id: //depot/dev/client3/rdock/2013.1/src/exe/rbdock.cxx#4 $)

>  <Rbt.Library>
libRbt.so (2013.1, Build901 2013/11/27)

>  <Rbt.Parameter_File>
/export/apps/rDock/src/rDock_2013.1_src/data/scripts/dock_solv.prm

>  <Rbt.Receptor>
prm/pocket_docking_6.prm

>  <SCORE>
-21.4918

>  <SCORE.INTER>
-11.3895

>  <SCORE.INTER.CONST>
1

>  <SCORE.INTER.POLAR>
-1.78598

>  <SCORE.INTER.ROT>
11

>  <SCORE.INTER.SOLV>
22.5299

>  <SCORE.INTER.VDW>
-20.083

>  <SCORE.INTER.norm>
-0.284737

>  <SCORE.INTRA>
-10.1023

>  <SCORE.INTRA.DIHEDRAL>
-3.07311

>  <SCORE.INTRA.DIHEDRAL.0>
15.4453

>  <SCORE.INTRA.POLAR>
0

>  <SCORE.INTRA.POLAR.0>
0

>  <SCORE.INTRA.REPUL>
-0.823958

>  <SCORE.INTRA.REPUL.0>
0.823958

>  <SCORE.INTRA.SOLV>
3.68846

>  <SCORE.INTRA.SOLV.lig_0>
-99.3069

>  <SCORE.INTRA.VDW>
-6.29023

>  <SCORE.INTRA.VDW.0>
0.946495

>  <SCORE.INTRA.norm>
-0.252559

>  <SCORE.RESTR>
0

>  <SCORE.RESTR.CAVITY>
0

>  <SCORE.RESTR.norm>
0

>  <SCORE.SYSTEM>
0

>  <SCORE.SYSTEM.CONST>
0

>  <SCORE.SYSTEM.DIHEDRAL>
0

>  <SCORE.SYSTEM.SOLV>
0

>  <SCORE.SYSTEM.norm>
0

>  <SCORE.heavy>
40

>  <SCORE.norm>
-0.537296

>  <RMSD>
1.047

$$$$
1ntb_lig
 OpenBabel11021811403D
libRbt.so/2013.1/901 2013/11/27
 40 42  0  0  0  0  0  0  0  0999 V2000
    9.8833   32.7669   -0.9839 C   0  0  0  0  0  0  0  0  0  0  0  0
    9.9990   32.6820   -2.2526 N   0  0  0  0  0  0  0  0  0  0  0  0
   -0.1980   34.8447   -4.5593 C   0  0  0  0  0  0  0  0  0  0  0  0
   -1.1603   33.9233   -5.0443 O   0  0  0  0  0  0  0  0  0  0  0  0
    5.0864   36.5915    0.4475 C   0  0  0  0  0  0  0  0  0  0  0  0
    5.9011   36.8220    1.4146 N   0  0  0  0  0  0  0  0  0  0  0  0
    0.4489   31.8261   -3.5347 C   0  0  0  0  0  0  0  0  0  0  0  0
   -2.4554   36.0740   -0.2272 C   0  0  0  0  0  0  0  0  0  0  0  0
    7.6096   33.3662   -1.1768 C   0  0  2  0  0  0  0  0  0  0  0  0
    8.6774   32.5308   -0.5038 N   0  0  0  0  0  0  0  0  0  0  0  0
    2.5544   34.2939   -2.1811 C   0  0  2  0  0  0  0  0  0  0  0  0
   -0.0835   36.7808   -2.2205 C   0  0  1  0  0  0  0  0  0  0  0  0
    0.9856   35.9735   -1.7630 O   0  0  0  0  0  0  0  0  0  0  0  0
    6.6810   33.9995   -0.1465 C   0  0  1  0  0  0  0  0  0  0  0  0
    7.5809   34.8036    0.7340 O   0  0  0  0  0  0  0  0  0  0  0  0
    1.5057   35.2236   -2.7639 C   0  0  2  0  0  0  0  0  0  0  0  0
   -0.6463   37.5479   -1.0486 C   0  0  1  0  0  0  0  0  0  0  0  0
   -1.1460   36.6420   -0.0754 N   0  0  0  0  0  0  0  0  0  0  0  0
    5.5660   34.8295   -0.7792 C   0  0  2  0  0  0  0  0  0  0  0  0
    4.6565   35.4582    0.1562 N   0  0  0  0  0  0  0  0  0  0  0  0
    0.4898   34.2738   -3.3411 C   0  0  1  0  0  0  0  0  0  0  0  0
   -0.4797   33.9305   -2.3454 O   0  0  0  0  0  0  0  0  0  0  0  0
    0.4768   38.3778   -0.4498 C   0  0  2  0  0  0  0  0  0  0  0  0
    0.0055   39.1102    0.6601 O   0  0  0  0  0  0  0  0  0  0  0  0
    4.7710   33.9267   -1.6865 C   0  0  1  0  0  0  0  0  0  0  0  0
    3.8620   34.8154   -2.3936 O   0  0  0  0  0  0  0  0  0  0  0  0
    1.2796   33.0715   -3.7059 C   0  0  1  0  0  0  0  0  0  0  0  0
    2.4110   33.0300   -2.8334 O   0  0  0  0  0  0  0  0  0  0  0  0
    0.9636   39.3258   -1.5461 C   0  0  1  0  0  0  0  0  0  0  0  0
    2.0239   40.1359   -1.0632 O   0  0  0  0  0  0  0  0  0  0  0  0
    5.6953   33.3138   -2.7729 C   0  0  2  0  0  0  0  0  0  0  0  0
    4.9250   32.4794   -3.6241 O   0  0  0  0  0  0  0  0  0  0  0  0
    1.4395   38.4988   -2.7408 C   0  0  1  0  0  0  0  0  0  0  0  0
    0.3726   37.6844   -3.2244 O   0  0  0  0  0  0  0  0  0  0  0  0
    6.7968   32.4763   -2.0950 C   0  0  1  0  0  0  0  0  0  0  0  0
    7.6590   31.9030   -3.0851 O   0  0  0  0  0  0  0  0  0  0  0  0
    1.8962   39.4469   -3.8499 C   0  0  0  0  0  0  0  0  0  0  0  0
    1.9309   38.7418   -5.0803 O   0  0  0  0  0  0  0  0  0  0  0  0
   10.8687   33.0866   -0.2206 N   0  0  0  0  0  0  0  0  0  0  0  0
    4.6449   37.5442   -0.2189 N   0  0  0  0  0  0  0  0  0  0  0  0
  1  2  1  0  0  0  0
  1 39  1  0  0  0  0
  3  4  1  0  0  0  0
  5  6  1  0  0  0  0
  5 40  1  0  0  0  0
  9 10  1  1  0  0  0
  9 14  1  0  0  0  0
  9 35  1  0  0  0  0
 10  1  1  0  0  0  0
 11 16  1  0  0  0  0
 11 28  1  0  0  0  0
 11 26  1  6  0  0  0
 12 17  1  0  0  0  0
 12 34  1  0  0  0  0
 12 13  1  1  0  0  0
 14 15  1  1  0  0  0
 14 19  1  0  0  0  0
 16 13  1  1  0  0  0
 16 21  1  0  0  0  0
 17 18  1  1  0  0  0
 17 23  1  0  0  0  0
 18  8  1  0  0  0  0
 19 20  1  1  0  0  0
 19 25  1  0  0  0  0
 20  5  1  0  0  0  0
 21  3  1  6  0  0  0
 21 22  1  0  0  0  0
 21 27  1  0  0  0  0
 23 24  1  1  0  0  0
 23 29  1  0  0  0  0
 25 26  1  6  0  0  0
 25 31  1  0  0  0  0
 27  7  1  1  0  0  0
 27 28  1  0  0  0  0
 29 30  1  1  0  0  0
 29 33  1  0  0  0  0
 31 32  1  6  0  0  0
 31 35  1  0  0  0  0
 33 34  1  0  0  0  0
 33 37  1  6  0  0  0
 35 36  1  6  0  0  0
 37 38  1  0  0  0  0
M  END
>  <CHROM.1>
-133.24448653,-52.44972695,174.42982309,177.93147175,-174.82553806,-82.03807620
90.34191179,-88.71096909,-178.82030342,-125.78959232,-161.58122466,3.28553688
35.31359972,-1.82942865,-0.30977436,-0.32631701,0.52016310

>  <Name>
1ntb_lig

>  <RI>
0

>  <Rbt.Current_Directory>
/home/itssahil/PROJECTS/Mol_Feturizer/New_Systems/rnas/1ntb

>  <Rbt.Executable>
rbdock ($Id: //depot/dev/client3/rdock/2013.1/src/exe/rbdock.cxx#4 $)

>  <Rbt.Library>
libRbt.so (2013.1, Build901 2013/11/27)

>  <Rbt.Parameter_File>
/export/apps/rDock/src/rDock_2013.1_src/data/scripts/dock_solv.prm

>  <Rbt.Receptor>
prm/pocket_docking_3.prm

>  <SCORE>
-18.3264

>  <SCORE.INTER>
-7.67686

>  <SCORE.INTER.CONST>
1

>  <SCORE.INTER.POLAR>
-0.649605

>  <SCORE.INTER.ROT>
11

>  <SCORE.INTER.SOLV>
24.4366

>  <SCORE.INTER.VDW>
-22.0314

>  <SCORE.INTER.norm>
-0.191921

>  <SCORE.INTRA>
-10.6495

>  <SCORE.INTRA.DIHEDRAL>
-3.37996

>  <SCORE.INTRA.DIHEDRAL.0>
15.4453

>  <SCORE.INTRA.POLAR>
0

>  <SCORE.INTRA.POLAR.0>
0

>  <SCORE.INTRA.REPUL>
-0.814363

>  <SCORE.INTRA.REPUL.0>
0.823958

>  <SCORE.INTRA.SOLV>
-1.49777

>  <SCORE.INTRA.SOLV.lig_0>
-99.3069

>  <SCORE.INTRA.VDW>
-4.13883

>  <SCORE.INTRA.VDW.0>
0.946495

>  <SCORE.INTRA.norm>
-0.266238

>  <SCORE.RESTR>
0

>  <SCORE.RESTR.CAVITY>
0

>  <SCORE.RESTR.norm>
0

>  <SCORE.SYSTEM>
0

>  <SCORE.SYSTEM.CONST>
0

>  <SCORE.SYSTEM.DIHEDRAL>
0

>  <SCORE.SYSTEM.SOLV>
0

>  <SCORE.SYSTEM.norm>
0

>  <SCORE.heavy>
40

>  <SCORE.norm>
-0.458159

>  <RMSD>
1.052

$$$$
1ntb_lig
 OpenBabel11021811403D
libRbt.so/2013.1/901 2013/11/27
 40 42  0  0  0  0  0  0  0  0999 V2000
   10.0022   33.2483   -1.1948 C   0  0  0  0  0  0  0  0  0  0  0  0
   10.7735   32.4349   -1.8061 N   0  0  0  0  0  0  0  0  0  0  0  0
   -0.5716   34.4750   -4.2689 C   0  0  0  0  0  0  0  0  0  0  0  0
   -1.6413   33.5646   -4.4613 O   0  0  0  0  0  0  0  0  0  0  0  0
    4.4448   36.0153    0.1266 C   0  0  0  0  0  0  0  0  0  0  0  0
    5.2237   36.3502    1.0926 N   0  0  0  0  0  0  0  0  0  0  0  0
    0.1283   31.5440   -3.0444 C   0  0  0  0  0  0  0  0  0  0  0  0
   -1.9630   35.9351    0.2159 C   0  0  0  0  0  0  0  0  0  0  0  0
    7.6778   33.4804   -1.5252 C   0  0  2  0  0  0  0  0  0  0  0  0
    8.8255   32.7652   -0.8452 N   0  0  0  0  0  0  0  0  0  0  0  0
    2.5727   33.9918   -2.4210 C   0  0  2  0  0  0  0  0  0  0  0  0
    0.0461   36.5770   -2.2013 C   0  0  1  0  0  0  0  0  0  0  0  0
    1.1978   35.8087   -1.9056 O   0  0  0  0  0  0  0  0  0  0  0  0
    6.5709   33.8081   -0.5290 C   0  0  1  0  0  0  0  0  0  0  0  0
    7.2358   34.6391    0.5194 O   0  0  0  0  0  0  0  0  0  0  0  0
    1.4723   34.9241   -2.8940 C   0  0  2  0  0  0  0  0  0  0  0  0
   -0.3355   37.3687   -0.9740 C   0  0  1  0  0  0  0  0  0  0  0  0
   -0.6422   36.4836    0.0937 N   0  0  0  0  0  0  0  0  0  0  0  0
    5.3749   34.5048   -1.1746 C   0  0  2  0  0  0  0  0  0  0  0  0
    4.2949   34.8432   -0.2708 N   0  0  0  0  0  0  0  0  0  0  0  0
    0.3191   33.9901   -3.1489 C   0  0  1  0  0  0  0  0  0  0  0  0
   -0.4463   33.8200   -1.9513 O   0  0  0  0  0  0  0  0  0  0  0  0
    0.8483   38.2421   -0.5940 C   0  0  2  0  0  0  0  0  0  0  0  0
    0.5476   38.9992    0.5580 O   0  0  0  0  0  0  0  0  0  0  0  0
    4.8331   33.5990   -2.2499 C   0  0  1  0  0  0  0  0  0  0  0  0
    3.8338   34.3982   -2.9420 O   0  0  0  0  0  0  0  0  0  0  0  0
    0.9640   32.7052   -3.5171 C   0  0  1  0  0  0  0  0  0  0  0  0
    2.2440   32.6790   -2.8814 O   0  0  0  0  0  0  0  0  0  0  0  0
    1.1208   39.1649   -1.7820 C   0  0  1  0  0  0  0  0  0  0  0  0
    2.2240   40.0134   -1.5052 O   0  0  0  0  0  0  0  0  0  0  0  0
    5.9363   33.2976   -3.2997 C   0  0  2  0  0  0  0  0  0  0  0  0
    5.4018   32.4558   -4.3096 O   0  0  0  0  0  0  0  0  0  0  0  0
    1.4146   38.3107   -3.0157 C   0  0  1  0  0  0  0  0  0  0  0  0
    0.3048   37.4578   -3.2920 O   0  0  0  0  0  0  0  0  0  0  0  0
    7.1170   32.5856   -2.6117 C   0  0  1  0  0  0  0  0  0  0  0  0
    8.1446   32.2999   -3.5681 O   0  0  0  0  0  0  0  0  0  0  0  0
    1.6553   39.2326   -4.2114 C   0  0  0  0  0  0  0  0  0  0  0  0
    1.6532   38.4613   -5.4019 O   0  0  0  0  0  0  0  0  0  0  0  0
   10.3353   34.4678   -0.9552 N   0  0  0  0  0  0  0  0  0  0  0  0
    3.7490   36.8852   -0.4263 N   0  0  0  0  0  0  0  0  0  0  0  0
  1  2  1  0  0  0  0
  1 39  1  0  0  0  0
  3  4  1  0  0  0  0
  5  6  1  0  0  0  0
  5 40  1  0  0  0  0
  9 10  1  1  0  0  0
  9 14  1  0  0  0  0
  9 35  1  0  0  0  0
 10  1  1  0  0  0  0
 11 16  1  0  0  0  0
 11 28  1  0  0  0  0
 11 26  1  6  0  0  0
 12 17  1  0  0  0  0
 12 34  1  0  0  0  0
 12 13  1  1  0  0  0
 14 15  1  1  0  0  0
 14 19  1  0  0  0  0
 16 13  1  1  0  0  0
 16 21  1  0  0  0  0
 17 18  1  1  0  0  0
 17 23  1  0  0  0  0
 18  8  1  0  0  0  0
 19 20  1  1  0  0  0
 19 25  1  0  0  0  0
 20  5  1  0  0  0  0
 21  3  1  6  0  0  0
 21 22  1  0  0  0  0
 21 27  1  0  0  0  0
 23 24  1  1  0  0  0
 23 29  1  0  0  0  0
 25 26  1  6  0  0  0
 25 31  1  0  0  0  0
 27  7  1  1  0  0  0
 27 28  1  0  0  0  0
 29 30  1  1  0  0  0
 29 33  1  0  0  0  0
 31 32  1  6  0  0  0
 31 35  1  0  0  0  0
 33 34  1  0  0  0  0
 33 37  1  6  0  0  0
 35 36  1  6  0  0  0
 37 38  1  0  0  0  0
M  END
>  <CHROM.1>
-134.51388677,-116.98892622,170.18359942,170.61993170,-171.12964298,-85.18583807
94.00264738,-82.27485565,-179.70703723,-99.78235770,-168.04560510,3.27307264
35.15565346,-1.98761030,-0.31368346,-0.24663566,0.46821686

>  <Name>
1ntb_lig

>  <RI>
0

>  <Rbt.Current_Directory>
/home/itssahil/PROJECTS/Mol_Feturizer/New_Systems/rnas/1ntb

>  <Rbt.Executable>
rbdock ($Id: //depot/dev/client3/rdock/2013.1/src/exe/rbdock.cxx#4 $)

>  <Rbt.Library>
libRbt.so (2013.1, Build901 2013/11/27)

>  <Rbt.Parameter_File>
/export/apps/rDock/src/rDock_2013.1_src/data/scripts/dock_solv.prm

>  <Rbt.Receptor>
prm/pocket_docking_6.prm

>  <SCORE>
-22.194

>  <SCORE.INTER>
-11.1331

>  <SCORE.INTER.CONST>
1

>  <SCORE.INTER.POLAR>
-1.03976

>  <SCORE.INTER.ROT>
11

>  <SCORE.INTER.SOLV>
22.8717

>  <SCORE.INTER.VDW>
-22.5134

>  <SCORE.INTER.norm>
-0.278328

>  <SCORE.INTRA>
-11.0609

>  <SCORE.INTRA.DIHEDRAL>
-4.86488

>  <SCORE.INTRA.DIHEDRAL.0>
15.4453

>  <SCORE.INTRA.POLAR>
0

>  <SCORE.INTRA.POLAR.0>
0

>  <SCORE.INTRA.REPUL>
-0.823958

>  <SCORE.INTRA.REPUL.0>
0.823958

>  <SCORE.INTRA.SOLV>
1.73648

>  <SCORE.INTRA.SOLV.lig_0>
-99.3069

>  <SCORE.INTRA.VDW>
-5.37694

>  <SCORE.INTRA.VDW.0>
0.946495

>  <SCORE.INTRA.norm>
-0.276523

>  <SCORE.RESTR>
0

>  <SCORE.RESTR.CAVITY>
0

>  <SCORE.RESTR.norm>
0

>  <SCORE.SYSTEM>
0

>  <SCORE.SYSTEM.CONST>
0

>  <SCORE.SYSTEM.DIHEDRAL>
0

>  <SCORE.SYSTEM.SOLV>
0

>  <SCORE.SYSTEM.norm>
0

>  <SCORE.heavy>
40

>  <SCORE.norm>
-0.554851

>  <RMSD>
1.061

$$$$
1ntb_lig
 OpenBabel11021811403D
libRbt.so/2013.1/901 2013/11/27
 40 42  0  0  0  0  0  0  0  0999 V2000
   10.0162   33.4155   -1.0177 C   0  0  0  0  0  0  0  0  0  0  0  0
   10.3533   34.6083   -0.7114 N   0  0  0  0  0  0  0  0  0  0  0  0
   -0.3625   34.2495   -4.5059 C   0  0  0  0  0  0  0  0  0  0  0  0
   -1.4936   35.0422   -4.1854 O   0  0  0  0  0  0  0  0  0  0  0  0
    4.5902   36.6131    0.0471 C   0  0  0  0  0  0  0  0  0  0  0  0
    5.5971   37.1104    0.6723 N   0  0  0  0  0  0  0  0  0  0  0  0
    0.4109   31.5307   -2.8967 C   0  0  0  0  0  0  0  0  0  0  0  0
   -2.5187   36.1052   -0.8511 C   0  0  0  0  0  0  0  0  0  0  0  0
    7.6972   33.7272   -1.3195 C   0  0  2  0  0  0  0  0  0  0  0  0
    8.8279   33.0314   -0.5927 N   0  0  0  0  0  0  0  0  0  0  0  0
    2.5852   34.2284   -2.3047 C   0  0  2  0  0  0  0  0  0  0  0  0
   -0.0119   36.7277   -2.7154 C   0  0  1  0  0  0  0  0  0  0  0  0
    1.0321   35.9654   -2.1384 O   0  0  0  0  0  0  0  0  0  0  0  0
    6.6375   34.2182   -0.3393 C   0  0  1  0  0  0  0  0  0  0  0  0
    7.3729   35.1224    0.5953 O   0  0  0  0  0  0  0  0  0  0  0  0
    1.4783   35.0100   -2.9886 C   0  0  2  0  0  0  0  0  0  0  0  0
   -0.6676   37.5487   -1.6316 C   0  0  1  0  0  0  0  0  0  0  0  0
   -1.2237   36.6896   -0.6468 N   0  0  0  0  0  0  0  0  0  0  0  0
    5.4587   34.9020   -1.0288 C   0  0  2  0  0  0  0  0  0  0  0  0
    4.4237   35.3922   -0.1421 N   0  0  0  0  0  0  0  0  0  0  0  0
    0.4321   33.9602   -3.2538 C   0  0  1  0  0  0  0  0  0  0  0  0
   -0.4464   33.8503   -2.1290 O   0  0  0  0  0  0  0  0  0  0  0  0
    0.3987   38.4297   -1.0025 C   0  0  2  0  0  0  0  0  0  0  0  0
   -0.1608   39.2143    0.0280 O   0  0  0  0  0  0  0  0  0  0  0  0
    4.8417   33.9142   -1.9847 C   0  0  1  0  0  0  0  0  0  0  0  0
    3.8629   34.6843   -2.7365 O   0  0  0  0  0  0  0  0  0  0  0  0
    1.2063   32.7036   -3.4085 C   0  0  1  0  0  0  0  0  0  0  0  0
    2.4067   32.8519   -2.6467 O   0  0  0  0  0  0  0  0  0  0  0  0
    0.9503   39.3237   -2.1133 C   0  0  1  0  0  0  0  0  0  0  0  0
    1.9624   40.1775   -1.6030 O   0  0  0  0  0  0  0  0  0  0  0  0
    5.8975   33.4436   -3.0211 C   0  0  2  0  0  0  0  0  0  0  0  0
    5.2927   32.5261   -3.9193 O   0  0  0  0  0  0  0  0  0  0  0  0
    1.5216   38.4401   -3.2227 C   0  0  1  0  0  0  0  0  0  0  0  0
    0.5030   37.5820   -3.7339 O   0  0  0  0  0  0  0  0  0  0  0  0
    7.0614   32.7501   -2.2874 C   0  0  1  0  0  0  0  0  0  0  0  0
    8.0452   32.3092   -3.2309 O   0  0  0  0  0  0  0  0  0  0  0  0
    2.0442   39.3331   -4.3483 C   0  0  0  0  0  0  0  0  0  0  0  0
    3.1682   40.0616   -3.8810 O   0  0  0  0  0  0  0  0  0  0  0  0
   10.7910   32.6265   -1.6757 N   0  0  0  0  0  0  0  0  0  0  0  0
    3.6887   37.3685   -0.3568 N   0  0  0  0  0  0  0  0  0  0  0  0
  1  2  1  0  0  0  0
  1 39  1  0  0  0  0
  3  4  1  0  0  0  0
  5  6  1  0  0  0  0
  5 40  1  0  0  0  0
  9 10  1  1  0  0  0
  9 14  1  0  0  0  0
  9 35  1  0  0  0  0
 10  1  1  0  0  0  0
 11 16  1  0  0  0  0
 11 28  1  0  0  0  0
 11 26  1  6  0  0  0
 12 17  1  0  0  0  0
 12 34  1  0  0  0  0
 12 13  1  1  0  0  0
 14 15  1  1  0  0  0
 14 19  1  0  0  0  0
 16 13  1  1  0  0  0
 16 21  1  0  0  0  0
 17 18  1  1  0  0  0
 17 23  1  0  0  0  0
 18  8  1  0  0  0  0
 19 20  1  1  0  0  0
 19 25  1  0  0  0  0
 20  5  1  0  0  0  0
 21  3  1  6  0  0  0
 21 22  1  0  0  0  0
 21 27  1  0  0  0  0
 23 24  1  1  0  0  0
 23 29  1  0  0  0  0
 25 26  1  6  0  0  0
 25 31  1  0  0  0  0
 27  7  1  1  0  0  0
 27 28  1  0  0  0  0
 29 30  1  1  0  0  0
 29 33  1  0  0  0  0
 31 32  1  6  0  0  0
 31 35  1  0  0  0  0
 33 34  1  0  0  0  0
 33 37  1  6  0  0  0
 35 36  1  6  0  0  0
 37 38  1  0  0  0  0
M  END
>  <CHROM.1>
-134.27507922,70.10519414,177.68117017,167.34931990,-179.61632550,-82.83725559
98.50926742,-66.35351347,-89.77244997,-109.75561092,67.20107713,3.29515453
35.43668939,-1.99875492,-0.33705397,-0.23009951,0.29760441

>  <Name>
1ntb_lig

>  <RI>
0

>  <Rbt.Current_Directory>
/home/itssahil/PROJECTS/Mol_Feturizer/New_Systems/rnas/1ntb

>  <Rbt.Executable>
rbdock ($Id: //depot/dev/client3/rdock/2013.1/src/exe/rbdock.cxx#4 $)

>  <Rbt.Library>
libRbt.so (2013.1, Build901 2013/11/27)

>  <Rbt.Parameter_File>
/export/apps/rDock/src/rDock_2013.1_src/data/scripts/dock_solv.prm

>  <Rbt.Receptor>
prm/pocket_docking_3.prm

>  <SCORE>
-20.0839

>  <SCORE.INTER>
-10.726

>  <SCORE.INTER.CONST>
1

>  <SCORE.INTER.POLAR>
-1.09747

>  <SCORE.INTER.ROT>
11

>  <SCORE.INTER.SOLV>
23.9087

>  <SCORE.INTER.VDW>
-22.3953

>  <SCORE.INTER.norm>
-0.268151

>  <SCORE.INTRA>
-9.35789

>  <SCORE.INTRA.DIHEDRAL>
-1.63348

>  <SCORE.INTRA.DIHEDRAL.0>
15.4453

>  <SCORE.INTRA.POLAR>
0

>  <SCORE.INTRA.POLAR.0>
0

>  <SCORE.INTRA.REPUL>
-0.823958

>  <SCORE.INTRA.REPUL.0>
0.823958

>  <SCORE.INTRA.SOLV>
1.74242

>  <SCORE.INTRA.SOLV.lig_0>
-99.3069

>  <SCORE.INTRA.VDW>
-5.29257

>  <SCORE.INTRA.VDW.0>
0.946495

>  <SCORE.INTRA.norm>
-0.233947

>  <SCORE.RESTR>
0

>  <SCORE.RESTR.CAVITY>
0

>  <SCORE.RESTR.norm>
0

>  <SCORE.SYSTEM>
0

>  <SCORE.SYSTEM.CONST>
0

>  <SCORE.SYSTEM.DIHEDRAL>
0

>  <SCORE.SYSTEM.SOLV>
0

>  <SCORE.SYSTEM.norm>
0

>  <SCORE.heavy>
40

>  <SCORE.norm>
-0.502098

>  <RMSD>
1.076

$$$$
1ntb_lig
 OpenBabel11021811403D
libRbt.so/2013.1/901 2013/11/27
 40 42  0  0  0  0  0  0  0  0999 V2000
    9.9457   33.3548   -1.1402 C   0  0  0  0  0  0  0  0  0  0  0  0
   10.2980   34.5507   -0.8645 N   0  0  0  0  0  0  0  0  0  0  0  0
   -0.5353   34.0356   -4.4632 C   0  0  0  0  0  0  0  0  0  0  0  0
   -1.6259   34.8875   -4.1545 O   0  0  0  0  0  0  0  0  0  0  0  0
    4.4387   36.1600    0.1642 C   0  0  0  0  0  0  0  0  0  0  0  0
    5.0574   36.3165    1.2800 N   0  0  0  0  0  0  0  0  0  0  0  0
    0.2210   31.4605   -2.6255 C   0  0  0  0  0  0  0  0  0  0  0  0
   -2.6081   36.1473   -0.8627 C   0  0  0  0  0  0  0  0  0  0  0  0
    7.6241   33.6513   -1.4365 C   0  0  2  0  0  0  0  0  0  0  0  0
    8.7614   32.9903   -0.6878 N   0  0  0  0  0  0  0  0  0  0  0  0
    2.5413   34.0948   -2.4469 C   0  0  2  0  0  0  0  0  0  0  0  0
   -0.0072   36.6287   -2.9363 C   0  0  1  0  0  0  0  0  0  0  0  0
    1.0773   35.9137   -2.3736 O   0  0  0  0  0  0  0  0  0  0  0  0
    6.4899   34.0252   -0.4886 C   0  0  1  0  0  0  0  0  0  0  0  0
    7.1208   34.9242    0.5242 O   0  0  0  0  0  0  0  0  0  0  0  0
    1.4280   34.8559   -3.1435 C   0  0  2  0  0  0  0  0  0  0  0  0
   -0.7056   37.3923   -1.8373 C   0  0  1  0  0  0  0  0  0  0  0  0
   -1.2133   36.4858   -0.8689 N   0  0  0  0  0  0  0  0  0  0  0  0
    5.3036   34.6693   -1.2030 C   0  0  2  0  0  0  0  0  0  0  0  0
    4.1985   35.0489   -0.3472 N   0  0  0  0  0  0  0  0  0  0  0  0
    0.3233   33.8370   -3.2360 C   0  0  1  0  0  0  0  0  0  0  0  0
   -0.4867   33.8856   -2.0567 O   0  0  0  0  0  0  0  0  0  0  0  0
    0.3117   38.3180   -1.1916 C   0  0  2  0  0  0  0  0  0  0  0  0
   -0.2886   39.0514   -0.1465 O   0  0  0  0  0  0  0  0  0  0  0  0
    4.7971   33.6955   -2.2352 C   0  0  1  0  0  0  0  0  0  0  0  0
    3.8076   34.4412   -2.9976 O   0  0  0  0  0  0  0  0  0  0  0  0
    1.0320   32.5347   -3.3028 C   0  0  1  0  0  0  0  0  0  0  0  0
    2.2831   32.7011   -2.6318 O   0  0  0  0  0  0  0  0  0  0  0  0
    0.8129   39.2615   -2.2852 C   0  0  1  0  0  0  0  0  0  0  0  0
    1.7775   40.1593   -1.7587 O   0  0  0  0  0  0  0  0  0  0  0  0
    5.9287   33.3445   -3.2385 C   0  0  2  0  0  0  0  0  0  0  0  0
    5.4273   32.4386   -4.2090 O   0  0  0  0  0  0  0  0  0  0  0  0
    1.4305   38.4313   -3.4110 C   0  0  1  0  0  0  0  0  0  0  0  0
    0.4596   37.5288   -3.9384 O   0  0  0  0  0  0  0  0  0  0  0  0
    7.0988   32.6875   -2.4811 C   0  0  1  0  0  0  0  0  0  0  0  0
    8.1523   32.3570   -3.3938 O   0  0  0  0  0  0  0  0  0  0  0  0
    1.9027   39.3725   -4.5195 C   0  0  0  0  0  0  0  0  0  0  0  0
    2.9701   40.1689   -4.0308 O   0  0  0  0  0  0  0  0  0  0  0  0
   10.7028   32.5455   -1.7940 N   0  0  0  0  0  0  0  0  0  0  0  0
    3.9973   37.1569   -0.4341 N   0  0  0  0  0  0  0  0  0  0  0  0
  1  2  1  0  0  0  0
  1 39  1  0  0  0  0
  3  4  1  0  0  0  0
  5  6  1  0  0  0  0
  5 40  1  0  0  0  0
  9 10  1  1  0  0  0
  9 14  1  0  0  0  0
  9 35  1  0  0  0  0
 10  1  1  0  0  0  0
 11 16  1  0  0  0  0
 11 28  1  0  0  0  0
 11 26  1  6  0  0  0
 12 17  1  0  0  0  0
 12 34  1  0  0  0  0
 12 13  1  1  0  0  0
 14 15  1  1  0  0  0
 14 19  1  0  0  0  0
 16 13  1  1  0  0  0
 16 21  1  0  0  0  0
 17 18  1  1  0  0  0
 17 23  1  0  0  0  0
 18  8  1  0  0  0  0
 19 20  1  1  0  0  0
 19 25  1  0  0  0  0
 20  5  1  0  0  0  0
 21  3  1  6  0  0  0
 21 22  1  0  0  0  0
 21 27  1  0  0  0  0
 23 24  1  1  0  0  0
 23 29  1  0  0  0  0
 25 26  1  6  0  0  0
 25 31  1  0  0  0  0
 27  7  1  1  0  0  0
 27 28  1  0  0  0  0
 29 30  1  1  0  0  0
 29 33  1  0  0  0  0
 31 32  1  6  0  0  0
 31 35  1  0  0  0  0
 33 34  1  0  0  0  0
 33 37  1  6  0  0  0
 35 36  1  6  0  0  0
 37 38  1  0  0  0  0
M  END
>  <CHROM.1>
-141.60549277,71.71867218,178.18175854,156.98707034,-176.99219655,-101.59245260
82.86201386,-89.57407347,-91.06208442,-97.43102697,66.17062728,3.20975878
35.30772771,-2.09791160,-0.35418524,-0.21778725,0.26292317

>  <Name>
1ntb_lig

>  <RI>
0

>  <Rbt.Current_Directory>
/home/itssahil/PROJECTS/Mol_Feturizer/New_Systems/rnas/1ntb

>  <Rbt.Executable>
rbdock ($Id: //depot/dev/client3/rdock/2013.1/src/exe/rbdock.cxx#4 $)

>  <Rbt.Library>
libRbt.so (2013.1, Build901 2013/11/27)

>  <Rbt.Parameter_File>
/export/apps/rDock/src/rDock_2013.1_src/data/scripts/dock_solv.prm

>  <Rbt.Receptor>
prm/pocket_docking_3.prm

>  <SCORE>
-21.0008

>  <SCORE.INTER>
-12.2139

>  <SCORE.INTER.CONST>
1

>  <SCORE.INTER.POLAR>
-1.06358

>  <SCORE.INTER.ROT>
11

>  <SCORE.INTER.SOLV>
23.547

>  <SCORE.INTER.VDW>
-23.3796

>  <SCORE.INTER.norm>
-0.305347

>  <SCORE.INTRA>
-8.78692

>  <SCORE.INTRA.DIHEDRAL>
-1.93085

>  <SCORE.INTRA.DIHEDRAL.0>
15.4453

>  <SCORE.INTRA.POLAR>
0

>  <SCORE.INTRA.POLAR.0>
0

>  <SCORE.INTRA.REPUL>
-0.823958

>  <SCORE.INTRA.REPUL.0>
0.823958

>  <SCORE.INTRA.SOLV>
1.12293

>  <SCORE.INTRA.SOLV.lig_0>
-99.3069

>  <SCORE.INTRA.VDW>
-4.26317

>  <SCORE.INTRA.VDW.0>
0.946495

>  <SCORE.INTRA.norm>
-0.219673

>  <SCORE.RESTR>
0

>  <SCORE.RESTR.CAVITY>
0

>  <SCORE.RESTR.norm>
0

>  <SCORE.SYSTEM>
0

>  <SCORE.SYSTEM.CONST>
0

>  <SCORE.SYSTEM.DIHEDRAL>
0

>  <SCORE.SYSTEM.SOLV>
0

>  <SCORE.SYSTEM.norm>
0

>  <SCORE.heavy>
40

>  <SCORE.norm>
-0.52502

>  <RMSD>
1.077

$$$$
1ntb_lig
 OpenBabel11021811403D
libRbt.so/2013.1/901 2013/11/27
 40 42  0  0  0  0  0  0  0  0999 V2000
   10.0197   33.2919   -1.1247 C   0  0  0  0  0  0  0  0  0  0  0  0
   10.7930   32.4797   -1.7352 N   0  0  0  0  0  0  0  0  0  0  0  0
   -0.4334   34.2074   -4.5530 C   0  0  0  0  0  0  0  0  0  0  0  0
    0.3528   34.0554   -5.7231 O   0  0  0  0  0  0  0  0  0  0  0  0
    4.6696   36.0905    0.1874 C   0  0  0  0  0  0  0  0  0  0  0  0
    4.6440   37.2514   -0.3638 N   0  0  0  0  0  0  0  0  0  0  0  0
    0.2598   31.5512   -2.8083 C   0  0  0  0  0  0  0  0  0  0  0  0
   -2.4037   36.5932   -0.3960 C   0  0  0  0  0  0  0  0  0  0  0  0
    7.7090   33.5278   -1.5380 C   0  0  2  0  0  0  0  0  0  0  0  0
    8.8297   32.8184   -0.8088 N   0  0  0  0  0  0  0  0  0  0  0  0
    2.6305   34.1301   -2.5181 C   0  0  2  0  0  0  0  0  0  0  0  0
    0.1044   36.7022   -2.9036 C   0  0  1  0  0  0  0  0  0  0  0  0
    1.2023   35.9740   -2.3855 O   0  0  0  0  0  0  0  0  0  0  0  0
    6.5995   33.9326   -0.5737 C   0  0  1  0  0  0  0  0  0  0  0  0
    7.2735   34.7976    0.4409 O   0  0  0  0  0  0  0  0  0  0  0  0
    1.5371   34.9386   -3.1923 C   0  0  2  0  0  0  0  0  0  0  0  0
   -0.5450   37.4664   -1.7754 C   0  0  1  0  0  0  0  0  0  0  0  0
   -1.0248   36.5595   -0.7932 N   0  0  0  0  0  0  0  0  0  0  0  0
    5.4296   34.6266   -1.2683 C   0  0  2  0  0  0  0  0  0  0  0  0
    4.3484   35.0369   -0.3964 N   0  0  0  0  0  0  0  0  0  0  0  0
    0.4131   33.9462   -3.3291 C   0  0  1  0  0  0  0  0  0  0  0  0
   -0.4035   33.9671   -2.1535 O   0  0  0  0  0  0  0  0  0  0  0  0
    0.5046   38.3789   -1.1636 C   0  0  2  0  0  0  0  0  0  0  0  0
   -0.0492   39.1123   -0.0930 O   0  0  0  0  0  0  0  0  0  0  0  0
    4.8770   33.6825   -2.3044 C   0  0  1  0  0  0  0  0  0  0  0  0
    3.9070   34.4714   -3.0481 O   0  0  0  0  0  0  0  0  0  0  0  0
    1.0962   32.6334   -3.4403 C   0  0  1  0  0  0  0  0  0  0  0  0
    2.3460   32.7496   -2.7563 O   0  0  0  0  0  0  0  0  0  0  0  0
    0.9735   39.3235   -2.2705 C   0  0  1  0  0  0  0  0  0  0  0  0
    1.9657   40.2094   -1.7760 O   0  0  0  0  0  0  0  0  0  0  0  0
    5.9842   33.3013   -3.3237 C   0  0  2  0  0  0  0  0  0  0  0  0
    5.4397   32.4242   -4.2976 O   0  0  0  0  0  0  0  0  0  0  0  0
    1.5405   38.4937   -3.4227 C   0  0  1  0  0  0  0  0  0  0  0  0
    0.5420   37.6032   -3.9180 O   0  0  0  0  0  0  0  0  0  0  0  0
    7.1378   32.5945   -2.5862 C   0  0  1  0  0  0  0  0  0  0  0  0
    8.1687   32.2357   -3.5139 O   0  0  0  0  0  0  0  0  0  0  0  0
    1.9799   39.4363   -4.5434 C   0  0  0  0  0  0  0  0  0  0  0  0
    3.0758   40.2164   -4.0928 O   0  0  0  0  0  0  0  0  0  0  0  0
   10.3638   34.5021   -0.8552 N   0  0  0  0  0  0  0  0  0  0  0  0
    5.0853   35.9777    1.3540 N   0  0  0  0  0  0  0  0  0  0  0  0
  1  2  1  0  0  0  0
  1 39  1  0  0  0  0
  3  4  1  0  0  0  0
  5  6  1  0  0  0  0
  5 40  1  0  0  0  0
  9 10  1  1  0  0  0
  9 14  1  0  0  0  0
  9 35  1  0  0  0  0
 10  1  1  0  0  0  0
 11 16  1  0  0  0  0
 11 28  1  0  0  0  0
 11 26  1  6  0  0  0
 12 17  1  0  0  0  0
 12 34  1  0  0  0  0
 12 13  1  1  0  0  0
 14 15  1  1  0  0  0
 14 19  1  0  0  0  0
 16 13  1  1  0  0  0
 16 21  1  0  0  0  0
 17 18  1  1  0  0  0
 17 23  1  0  0  0  0
 18  8  1  0  0  0  0
 19 20  1  1  0  0  0
 19 25  1  0  0  0  0
 20  5  1  0  0  0  0
 21  3  1  6  0  0  0
 21 22  1  0  0  0  0
 21 27  1  0  0  0  0
 23 24  1  1  0  0  0
 23 29  1  0  0  0  0
 25 26  1  6  0  0  0
 25 31  1  0  0  0  0
 27  7  1  1  0  0  0
 27 28  1  0  0  0  0
 29 30  1  1  0  0  0
 29 33  1  0  0  0  0
 31 32  1  6  0  0  0
 31 35  1  0  0  0  0
 33 34  1  0  0  0  0
 33 37  1  6  0  0  0
 35 36  1  6  0  0  0
 37 38  1  0  0  0  0
M  END
>  <CHROM.1>
-131.83285533,-114.85751843,177.94207514,158.66797058,-174.86578530,-124.58425079
78.74206133,77.41827892,62.91565917,-99.41284721,66.39602248,3.38273172,35.30065653
-2.16661694,-0.36777688,-0.26252052,0.35583083

>  <Name>
1ntb_lig

>  <RI>
0

>  <Rbt.Current_Directory>
/home/itssahil/PROJECTS/Mol_Feturizer/New_Systems/rnas/1ntb

>  <Rbt.Executable>
rbdock ($Id: //depot/dev/client3/rdock/2013.1/src/exe/rbdock.cxx#4 $)

>  <Rbt.Library>
libRbt.so (2013.1, Build901 2013/11/27)

>  <Rbt.Parameter_File>
/export/apps/rDock/src/rDock_2013.1_src/data/scripts/dock_solv.prm

>  <Rbt.Receptor>
prm/pocket_docking_3.prm

>  <SCORE>
-23.279

>  <SCORE.INTER>
-12.6816

>  <SCORE.INTER.CONST>
1

>  <SCORE.INTER.POLAR>
-1.05757

>  <SCORE.INTER.ROT>
11

>  <SCORE.INTER.SOLV>
26.0281

>  <SCORE.INTER.VDW>
-24.5386

>  <SCORE.INTER.norm>
-0.317041

>  <SCORE.INTRA>
-10.5973

>  <SCORE.INTRA.DIHEDRAL>
-3.92449

>  <SCORE.INTRA.DIHEDRAL.0>
15.4453

>  <SCORE.INTRA.POLAR>
0

>  <SCORE.INTRA.POLAR.0>
0

>  <SCORE.INTRA.REPUL>
-0.778839

>  <SCORE.INTRA.REPUL.0>
0.823958

>  <SCORE.INTRA.SOLV>
-1.0947

>  <SCORE.INTRA.SOLV.lig_0>
-99.3069

>  <SCORE.INTRA.VDW>
-4.19355

>  <SCORE.INTRA.VDW.0>
0.946495

>  <SCORE.INTRA.norm>
-0.264933

>  <SCORE.RESTR>
0

>  <SCORE.RESTR.CAVITY>
0

>  <SCORE.RESTR.norm>
0

>  <SCORE.SYSTEM>
0

>  <SCORE.SYSTEM.CONST>
0

>  <SCORE.SYSTEM.DIHEDRAL>
0

>  <SCORE.SYSTEM.SOLV>
0

>  <SCORE.SYSTEM.norm>
0

>  <SCORE.heavy>
40

>  <SCORE.norm>
-0.581975

>  <RMSD>
1.104

$$$$
1ntb_lig
 OpenBabel11021811403D
libRbt.so/2013.1/901 2013/11/27
 40 42  0  0  0  0  0  0  0  0999 V2000
   10.2526   33.1691   -1.2674 C   0  0  0  0  0  0  0  0  0  0  0  0
   10.5091   34.1187   -2.0814 N   0  0  0  0  0  0  0  0  0  0  0  0
   -0.4680   34.8327   -3.4487 C   0  0  0  0  0  0  0  0  0  0  0  0
   -1.5932   34.0516   -3.8149 O   0  0  0  0  0  0  0  0  0  0  0  0
    5.3567   35.9023    0.3755 C   0  0  0  0  0  0  0  0  0  0  0  0
    6.2512   36.1832    1.2547 N   0  0  0  0  0  0  0  0  0  0  0  0
    0.3574   31.6867   -3.4859 C   0  0  0  0  0  0  0  0  0  0  0  0
   -1.5649   34.6835    1.2330 C   0  0  0  0  0  0  0  0  0  0  0  0
    8.0032   33.2225   -1.9768 C   0  0  2  0  0  0  0  0  0  0  0  0
    9.2188   32.4121   -1.5814 N   0  0  0  0  0  0  0  0  0  0  0  0
    2.7987   33.8050   -2.1045 C   0  0  2  0  0  0  0  0  0  0  0  0
    0.3305   36.1163   -0.7924 C   0  0  1  0  0  0  0  0  0  0  0  0
    1.4323   35.2297   -0.8553 O   0  0  0  0  0  0  0  0  0  0  0  0
    7.1630   33.5790   -0.7553 C   0  0  1  0  0  0  0  0  0  0  0  0
    8.0943   34.3262    0.1426 O   0  0  0  0  0  0  0  0  0  0  0  0
    1.6548   34.8026   -2.1214 C   0  0  2  0  0  0  0  0  0  0  0  0
    0.0631   36.4539    0.6543 C   0  0  1  0  0  0  0  0  0  0  0  0
   -0.2634   35.2725    1.3720 N   0  0  0  0  0  0  0  0  0  0  0  0
    5.9064   34.3727   -1.1071 C   0  0  2  0  0  0  0  0  0  0  0  0
    5.0733   34.7419    0.0186 N   0  0  0  0  0  0  0  0  0  0  0  0
    0.5022   33.9920   -2.6521 C   0  0  1  0  0  0  0  0  0  0  0  0
   -0.1796   33.3460   -1.5718 O   0  0  0  0  0  0  0  0  0  0  0  0
    1.3250   37.0736    1.2309 C   0  0  2  0  0  0  0  0  0  0  0  0
    1.1324   37.4004    2.5898 O   0  0  0  0  0  0  0  0  0  0  0  0
    5.0841   33.5444   -2.0599 C   0  0  1  0  0  0  0  0  0  0  0  0
    4.0161   34.4299   -2.4975 O   0  0  0  0  0  0  0  0  0  0  0  0
    1.1417   32.9728   -3.5209 C   0  0  1  0  0  0  0  0  0  0  0  0
    2.4611   32.7565   -3.0155 O   0  0  0  0  0  0  0  0  0  0  0  0
    1.6150   38.3340    0.4156 C   0  0  1  0  0  0  0  0  0  0  0  0
    2.7902   38.9707    0.8923 O   0  0  0  0  0  0  0  0  0  0  0  0
    5.9109   33.2163   -3.3323 C   0  0  2  0  0  0  0  0  0  0  0  0
    5.1141   32.4489   -4.2213 O   0  0  0  0  0  0  0  0  0  0  0  0
    1.7898   37.9450   -1.0527 C   0  0  1  0  0  0  0  0  0  0  0  0
    0.6078   37.3043   -1.5299 O   0  0  0  0  0  0  0  0  0  0  0  0
    7.1606   32.4067   -2.9361 C   0  0  1  0  0  0  0  0  0  0  0  0
    7.9350   32.0954   -4.1005 O   0  0  0  0  0  0  0  0  0  0  0  0
    2.0479   39.2089   -1.8733 C   0  0  0  0  0  0  0  0  0  0  0  0
    2.1887   38.8560   -3.2401 O   0  0  0  0  0  0  0  0  0  0  0  0
   10.9382   32.9739   -0.1962 N   0  0  0  0  0  0  0  0  0  0  0  0
    4.6836   36.8202   -0.1255 N   0  0  0  0  0  0  0  0  0  0  0  0
  1  2  1  0  0  0  0
  1 39  1  0  0  0  0
  3  4  1  0  0  0  0
  5  6  1  0  0  0  0
  5 40  1  0  0  0  0
  9 10  1  1  0  0  0
  9 14  1  0  0  0  0
  9 35  1  0  0  0  0
 10  1  1  0  0  0  0
 11 16  1  0  0  0  0
 11 28  1  0  0  0  0
 11 26  1  6  0  0  0
 12 17  1  0  0  0  0
 12 34  1  0  0  0  0
 12 13  1  1  0  0  0
 14 15  1  1  0  0  0
 14 19  1  0  0  0  0
 16 13  1  1  0  0  0
 16 21  1  0  0  0  0
 17 18  1  1  0  0  0
 17 23  1  0  0  0  0
 18  8  1  0  0  0  0
 19 20  1  1  0  0  0
 19 25  1  0  0  0  0
 20  5  1  0  0  0  0
 21  3  1  6  0  0  0
 21 22  1  0  0  0  0
 21 27  1  0  0  0  0
 23 24  1  1  0  0  0
 23 29  1  0  0  0  0
 25 26  1  6  0  0  0
 25 31  1  0  0  0  0
 27  7  1  1  0  0  0
 27 28  1  0  0  0  0
 29 30  1  1  0  0  0
 29 33  1  0  0  0  0
 31 32  1  6  0  0  0
 31 35  1  0  0  0  0
 33 34  1  0  0  0  0
 33 37  1  6  0  0  0
 35 36  1  6  0  0  0
 37 38  1  0  0  0  0
M  END
>  <CHROM.1>
-87.95118041,-46.81438435,162.80286476,175.00547542,-177.11481274,-76.23288132
96.07219632,-90.26876463,-174.47206879,-119.85138203,-179.03813534,3.61938152
34.88497307,-1.34326657,-0.30207082,-0.14235087,0.72034540

>  <Name>
1ntb_lig

>  <RI>
0

>  <Rbt.Current_Directory>
/home/itssahil/PROJECTS/Mol_Feturizer/New_Systems/rnas/1ntb

>  <Rbt.Executable>
rbdock ($Id: //depot/dev/client3/rdock/2013.1/src/exe/rbdock.cxx#4 $)

>  <Rbt.Library>
libRbt.so (2013.1, Build901 2013/11/27)

>  <Rbt.Parameter_File>
/export/apps/rDock/src/rDock_2013.1_src/data/scripts/dock_solv.prm

>  <Rbt.Receptor>
prm/pocket_docking_5.prm

>  <SCORE>
-20.5127

>  <SCORE.INTER>
-9.94862

>  <SCORE.INTER.CONST>
1

>  <SCORE.INTER.POLAR>
-1.65563

>  <SCORE.INTER.ROT>
11

>  <SCORE.INTER.SOLV>
27.027

>  <SCORE.INTER.VDW>
-21.056

>  <SCORE.INTER.norm>
-0.248716

>  <SCORE.INTRA>
-10.5641

>  <SCORE.INTRA.DIHEDRAL>
-3.5066

>  <SCORE.INTRA.DIHEDRAL.0>
15.4453

>  <SCORE.INTRA.POLAR>
0

>  <SCORE.INTRA.POLAR.0>
0

>  <SCORE.INTRA.REPUL>
-0.815528

>  <SCORE.INTRA.REPUL.0>
0.823958

>  <SCORE.INTRA.SOLV>
1.69476

>  <SCORE.INTRA.SOLV.lig_0>
-99.3069

>  <SCORE.INTRA.VDW>
-5.58055

>  <SCORE.INTRA.VDW.0>
0.946495

>  <SCORE.INTRA.norm>
-0.264103

>  <SCORE.RESTR>
0

>  <SCORE.RESTR.CAVITY>
0

>  <SCORE.RESTR.norm>
0

>  <SCORE.SYSTEM>
0

>  <SCORE.SYSTEM.CONST>
0

>  <SCORE.SYSTEM.DIHEDRAL>
0

>  <SCORE.SYSTEM.SOLV>
0

>  <SCORE.SYSTEM.norm>
0

>  <SCORE.heavy>
40

>  <SCORE.norm>
-0.512818

>  <RMSD>
1.106

$$$$
1ntb_lig
 OpenBabel11021811403D
libRbt.so/2013.1/901 2013/11/27
 40 42  0  0  0  0  0  0  0  0999 V2000
    9.9876   33.2748   -1.2371 C   0  0  0  0  0  0  0  0  0  0  0  0
   10.3412   34.4651   -0.9399 N   0  0  0  0  0  0  0  0  0  0  0  0
   -0.5369   34.2229   -4.4465 C   0  0  0  0  0  0  0  0  0  0  0  0
    0.2451   34.2416   -5.6290 O   0  0  0  0  0  0  0  0  0  0  0  0
    4.4987   36.0442    0.1676 C   0  0  0  0  0  0  0  0  0  0  0  0
    4.3971   37.1842   -0.4174 N   0  0  0  0  0  0  0  0  0  0  0  0
    0.1868   31.4899   -2.8382 C   0  0  0  0  0  0  0  0  0  0  0  0
   -2.1080   36.8692    0.1830 C   0  0  0  0  0  0  0  0  0  0  0  0
    7.6648   33.5786   -1.5169 C   0  0  2  0  0  0  0  0  0  0  0  0
    8.8050   32.9016   -0.7870 N   0  0  0  0  0  0  0  0  0  0  0  0
    2.5777   34.0438   -2.4968 C   0  0  2  0  0  0  0  0  0  0  0  0
    0.0321   36.6164   -2.6843 C   0  0  1  0  0  0  0  0  0  0  0  0
    1.1631   35.8859   -2.2468 O   0  0  0  0  0  0  0  0  0  0  0  0
    6.5351   33.9335   -0.5563 C   0  0  1  0  0  0  0  0  0  0  0  0
    7.1711   34.8110    0.4720 O   0  0  0  0  0  0  0  0  0  0  0  0
    1.4716   34.8856   -3.1065 C   0  0  2  0  0  0  0  0  0  0  0  0
   -0.4519   37.4849   -1.5485 C   0  0  1  0  0  0  0  0  0  0  0  0
   -0.8348   36.6708   -0.4495 N   0  0  0  0  0  0  0  0  0  0  0  0
    5.3460   34.5929   -1.2520 C   0  0  2  0  0  0  0  0  0  0  0  0
    4.2450   34.9553   -0.3837 N   0  0  0  0  0  0  0  0  0  0  0  0
    0.3393   33.9047   -3.2575 C   0  0  1  0  0  0  0  0  0  0  0  0
   -0.4468   33.8775   -2.0614 O   0  0  0  0  0  0  0  0  0  0  0  0
    0.6909   38.3983   -1.1383 C   0  0  2  0  0  0  0  0  0  0  0  0
    0.2937   39.2282   -0.0687 O   0  0  0  0  0  0  0  0  0  0  0  0
    4.8344   33.6409   -2.3018 C   0  0  1  0  0  0  0  0  0  0  0  0
    3.8420   34.4027   -3.0442 O   0  0  0  0  0  0  0  0  0  0  0  0
    1.0125   32.5953   -3.4437 C   0  0  1  0  0  0  0  0  0  0  0  0
    2.2799   32.6762   -2.7877 O   0  0  0  0  0  0  0  0  0  0  0  0
    1.0489   39.2413   -2.3624 C   0  0  1  0  0  0  0  0  0  0  0  0
    2.1197   40.1218   -2.0594 O   0  0  0  0  0  0  0  0  0  0  0  0
    5.9613   33.3100   -3.3171 C   0  0  2  0  0  0  0  0  0  0  0  0
    5.4549   32.4246   -4.3039 O   0  0  0  0  0  0  0  0  0  0  0  0
    1.4464   38.3089   -3.5071 C   0  0  1  0  0  0  0  0  0  0  0  0
    0.3691   37.4239   -3.8098 O   0  0  0  0  0  0  0  0  0  0  0  0
    7.1343   32.6369   -2.5787 C   0  0  1  0  0  0  0  0  0  0  0  0
    8.1835   32.3247   -3.5027 O   0  0  0  0  0  0  0  0  0  0  0  0
    1.7734   39.1501   -4.7412 C   0  0  0  0  0  0  0  0  0  0  0  0
    2.8788   39.9909   -4.4520 O   0  0  0  0  0  0  0  0  0  0  0  0
   10.7419   32.4781   -1.9094 N   0  0  0  0  0  0  0  0  0  0  0  0
    4.9232   35.9930    1.3354 N   0  0  0  0  0  0  0  0  0  0  0  0
  1  2  1  0  0  0  0
  1 39  1  0  0  0  0
  3  4  1  0  0  0  0
  5  6  1  0  0  0  0
  5 40  1  0  0  0  0
  9 10  1  1  0  0  0
  9 14  1  0  0  0  0
  9 35  1  0  0  0  0
 10  1  1  0  0  0  0
 11 16  1  0  0  0  0
 11 28  1  0  0  0  0
 11 26  1  6  0  0  0
 12 17  1  0  0  0  0
 12 34  1  0  0  0  0
 12 13  1  1  0  0  0
 14 15  1  1  0  0  0
 14 19  1  0  0  0  0
 16 13  1  1  0  0  0
 16 21  1  0  0  0  0
 17 18  1  1  0  0  0
 17 23  1  0  0  0  0
 18  8  1  0  0  0  0
 19 20  1  1  0  0  0
 19 25  1  0  0  0  0
 20  5  1  0  0  0  0
 21  3  1  6  0  0  0
 21 22  1  0  0  0  0
 21 27  1  0  0  0  0
 23 24  1  1  0  0  0
 23 29  1  0  0  0  0
 25 26  1  6  0  0  0
 25 31  1  0  0  0  0
 27  7  1  1  0  0  0
 27 28  1  0  0  0  0
 29 30  1  1  0  0  0
 29 33  1  0  0  0  0
 31 32  1  6  0  0  0
 31 35  1  0  0  0  0
 33 34  1  0  0  0  0
 33 37  1  6  0  0  0
 35 36  1  6  0  0  0
 37 38  1  0  0  0  0
M  END
>  <CHROM.1>
-141.60786835,71.63090409,174.38464591,166.78216323,-173.15260381,-130.21701548
81.70761606,77.15980542,57.49898550,-97.53671993,62.10829733,3.35058537,35.27576312
-2.14891054,-0.36682491,-0.25919007,0.37596918

>  <Name>
1ntb_lig

>  <RI>
0

>  <Rbt.Current_Directory>
/home/itssahil/PROJECTS/Mol_Feturizer/New_Systems/rnas/1ntb

>  <Rbt.Executable>
rbdock ($Id: //depot/dev/client3/rdock/2013.1/src/exe/rbdock.cxx#4 $)

>  <Rbt.Library>
libRbt.so (2013.1, Build901 2013/11/27)

>  <Rbt.Parameter_File>
/export/apps/rDock/src/rDock_2013.1_src/data/scripts/dock_solv.prm

>  <Rbt.Receptor>
prm/pocket_docking_7.prm

>  <SCORE>
-22.9757

>  <SCORE.INTER>
-12.1296

>  <SCORE.INTER.CONST>
1

>  <SCORE.INTER.POLAR>
-1.06662

>  <SCORE.INTER.ROT>
11

>  <SCORE.INTER.SOLV>
25.108

>  <SCORE.INTER.VDW>
-23.8337

>  <SCORE.INTER.norm>
-0.30324

>  <SCORE.INTRA>
-10.8461

>  <SCORE.INTRA.DIHEDRAL>
-5.28877

>  <SCORE.INTRA.DIHEDRAL.0>
15.4453

>  <SCORE.INTRA.POLAR>
0

>  <SCORE.INTRA.POLAR.0>
0

>  <SCORE.INTRA.REPUL>
-0.823958

>  <SCORE.INTRA.REPUL.0>
0.823958

>  <SCORE.INTRA.SOLV>
-0.2299

>  <SCORE.INTRA.SOLV.lig_0>
-99.3069

>  <SCORE.INTRA.VDW>
-3.96696

>  <SCORE.INTRA.VDW.0>
0.946495

>  <SCORE.INTRA.norm>
-0.271152

>  <SCORE.RESTR>
0

>  <SCORE.RESTR.CAVITY>
0

>  <SCORE.RESTR.norm>
0

>  <SCORE.SYSTEM>
0

>  <SCORE.SYSTEM.CONST>
0

>  <SCORE.SYSTEM.DIHEDRAL>
0

>  <SCORE.SYSTEM.SOLV>
0

>  <SCORE.SYSTEM.norm>
0

>  <SCORE.heavy>
40

>  <SCORE.norm>
-0.574392

>  <RMSD>
1.106

$$$$
1ntb_lig
 OpenBabel11021811403D
libRbt.so/2013.1/901 2013/11/27
 40 42  0  0  0  0  0  0  0  0999 V2000
   10.1742   32.9123   -1.8168 C   0  0  0  0  0  0  0  0  0  0  0  0
   10.8060   31.8811   -2.2263 N   0  0  0  0  0  0  0  0  0  0  0  0
   -0.5615   34.8820   -3.2836 C   0  0  0  0  0  0  0  0  0  0  0  0
   -1.5706   34.0733   -3.8650 O   0  0  0  0  0  0  0  0  0  0  0  0
    5.2544   36.4805    0.3512 C   0  0  0  0  0  0  0  0  0  0  0  0
    4.5660   37.3964   -0.2313 N   0  0  0  0  0  0  0  0  0  0  0  0
    0.3878   31.7801   -3.5226 C   0  0  0  0  0  0  0  0  0  0  0  0
   -1.2550   35.3578    2.8484 C   0  0  0  0  0  0  0  0  0  0  0  0
    7.8845   33.4213   -1.5644 C   0  0  2  0  0  0  0  0  0  0  0  0
    9.1070   32.6722   -1.0795 N   0  0  0  0  0  0  0  0  0  0  0  0
    2.6822   33.8706   -1.8730 C   0  0  2  0  0  0  0  0  0  0  0  0
    0.0785   35.9929   -0.5042 C   0  0  1  0  0  0  0  0  0  0  0  0
    1.2084   35.1437   -0.5830 O   0  0  0  0  0  0  0  0  0  0  0  0
    7.0804   33.9725   -0.3920 C   0  0  1  0  0  0  0  0  0  0  0  0
    8.0398   34.8430    0.3520 O   0  0  0  0  0  0  0  0  0  0  0  0
    1.5018   34.8247   -1.8664 C   0  0  2  0  0  0  0  0  0  0  0  0
   -0.1067   36.4198    0.9318 C   0  0  1  0  0  0  0  0  0  0  0  0
   -0.3381   35.2799    1.7468 N   0  0  0  0  0  0  0  0  0  0  0  0
    5.8181   34.7123   -0.8301 C   0  0  2  0  0  0  0  0  0  0  0  0
    5.0185   35.2609    0.2456 N   0  0  0  0  0  0  0  0  0  0  0  0
    0.4059   34.0171   -2.5097 C   0  0  1  0  0  0  0  0  0  0  0  0
   -0.2959   33.2649   -1.5143 O   0  0  0  0  0  0  0  0  0  0  0  0
    1.1644   37.1220    1.3787 C   0  0  2  0  0  0  0  0  0  0  0  0
    1.0485   37.5347    2.7229 O   0  0  0  0  0  0  0  0  0  0  0  0
    4.9657   33.7521   -1.6185 C   0  0  1  0  0  0  0  0  0  0  0  0
    3.8899   34.5674   -2.1609 O   0  0  0  0  0  0  0  0  0  0  0  0
    1.1217   33.0923   -3.4234 C   0  0  1  0  0  0  0  0  0  0  0  0
    2.4257   32.8847   -2.8759 O   0  0  0  0  0  0  0  0  0  0  0  0
    1.3499   38.3327    0.4636 C   0  0  1  0  0  0  0  0  0  0  0  0
    2.5275   39.0419    0.8159 O   0  0  0  0  0  0  0  0  0  0  0  0
    5.7551   33.2211   -2.8454 C   0  0  2  0  0  0  0  0  0  0  0  0
    4.9303   32.3308   -3.5810 O   0  0  0  0  0  0  0  0  0  0  0  0
    1.4435   37.8498   -0.9841 C   0  0  1  0  0  0  0  0  0  0  0  0
    0.2593   37.1364   -1.3362 O   0  0  0  0  0  0  0  0  0  0  0  0
    7.0117   32.4726   -2.3607 C   0  0  1  0  0  0  0  0  0  0  0  0
    7.7518   31.9757   -3.4821 O   0  0  0  0  0  0  0  0  0  0  0  0
    1.5966   39.0625   -1.9025 C   0  0  0  0  0  0  0  0  0  0  0  0
    2.2604   38.6652   -3.0916 O   0  0  0  0  0  0  0  0  0  0  0  0
   10.5354   34.1092   -2.1212 N   0  0  0  0  0  0  0  0  0  0  0  0
    6.2511   36.8000    1.0228 N   0  0  0  0  0  0  0  0  0  0  0  0
  1  2  1  0  0  0  0
  1 39  1  0  0  0  0
  3  4  1  0  0  0  0
  5  6  1  0  0  0  0
  5 40  1  0  0  0  0
  9 10  1  1  0  0  0
  9 14  1  0  0  0  0
  9 35  1  0  0  0  0
 10  1  1  0  0  0  0
 11 16  1  0  0  0  0
 11 28  1  0  0  0  0
 11 26  1  6  0  0  0
 12 17  1  0  0  0  0
 12 34  1  0  0  0  0
 12 13  1  1  0  0  0
 14 15  1  6  0  0  0
 14 19  1  0  0  0  0
 16 13  1  1  0  0  0
 16 21  1  0  0  0  0
 17 18  1  1  0  0  0
 17 23  1  0  0  0  0
 18  8  1  0  0  0  0
 19 20  1  1  0  0  0
 19 25  1  0  0  0  0
 20  5  1  0  0  0  0
 21  3  1  6  0  0  0
 21 22  1  0  0  0  0
 21 27  1  0  0  0  0
 23 24  1  1  0  0  0
 23 29  1  0  0  0  0
 25 26  1  6  0  0  0
 25 31  1  0  0  0  0
 27  7  1  1  0  0  0
 27 28  1  0  0  0  0
 29 30  1  1  0  0  0
 29 33  1  0  0  0  0
 31 32  1  1  0  0  0
 31 35  1  0  0  0  0
 33 34  1  0  0  0  0
 33 37  1  6  0  0  0
 35 36  1  6  0  0  0
 37 38  1  0  0  0  0
M  END
>  <CHROM.1>
-139.23644452,-129.58353047,157.06507122,-174.32487719,-177.67776823,-143.43474160
100.30317772,93.33625136,-179.91003130,-131.46017629,154.17393677,3.50412876
34.96706994,-1.17567173,-0.35531866,-0.11540963,0.71513550

>  <Name>
1ntb_lig

>  <RI>
0

>  <Rbt.Current_Directory>
/home/itssahil/PROJECTS/Mol_Feturizer/New_Systems/rnas/1ntb

>  <Rbt.Executable>
rbdock ($Id: //depot/dev/client3/rdock/2013.1/src/exe/rbdock.cxx#4 $)

>  <Rbt.Library>
libRbt.so (2013.1, Build901 2013/11/27)

>  <Rbt.Parameter_File>
/export/apps/rDock/src/rDock_2013.1_src/data/scripts/dock_solv.prm

>  <Rbt.Receptor>
prm/pocket_docking_7.prm

>  <SCORE>
-22.1518

>  <SCORE.INTER>
-12.7747

>  <SCORE.INTER.CONST>
1

>  <SCORE.INTER.POLAR>
-2.28649

>  <SCORE.INTER.ROT>
11

>  <SCORE.INTER.SOLV>
23.5187

>  <SCORE.INTER.VDW>
-19.6678

>  <SCORE.INTER.norm>
-0.319369

>  <SCORE.INTRA>
-9.37706

>  <SCORE.INTRA.DIHEDRAL>
-0.553697

>  <SCORE.INTRA.DIHEDRAL.0>
15.4453

>  <SCORE.INTRA.POLAR>
0

>  <SCORE.INTRA.POLAR.0>
0

>  <SCORE.INTRA.REPUL>
-0.808209

>  <SCORE.INTRA.REPUL.0>
0.823958

>  <SCORE.INTRA.SOLV>
1.41332

>  <SCORE.INTRA.SOLV.lig_0>
-99.3069

>  <SCORE.INTRA.VDW>
-5.76582

>  <SCORE.INTRA.VDW.0>
0.946495

>  <SCORE.INTRA.norm>
-0.234426

>  <SCORE.RESTR>
0

>  <SCORE.RESTR.CAVITY>
0

>  <SCORE.RESTR.norm>
0

>  <SCORE.SYSTEM>
0

>  <SCORE.SYSTEM.CONST>
0

>  <SCORE.SYSTEM.DIHEDRAL>
0

>  <SCORE.SYSTEM.SOLV>
0

>  <SCORE.SYSTEM.norm>
0

>  <SCORE.heavy>
40

>  <SCORE.norm>
-0.553795

>  <RMSD>
1.130

$$$$
1ntb_lig
 OpenBabel11021811403D
libRbt.so/2013.1/901 2013/11/27
 40 42  0  0  0  0  0  0  0  0999 V2000
   10.0174   33.2537   -1.1081 C   0  0  0  0  0  0  0  0  0  0  0  0
   10.7485   32.4122   -1.7305 N   0  0  0  0  0  0  0  0  0  0  0  0
   -0.4841   34.1869   -4.3754 C   0  0  0  0  0  0  0  0  0  0  0  0
    0.3133   34.1961   -5.5478 O   0  0  0  0  0  0  0  0  0  0  0  0
    4.6002   36.0302    0.2864 C   0  0  0  0  0  0  0  0  0  0  0  0
    4.5300   37.1794   -0.2850 N   0  0  0  0  0  0  0  0  0  0  0  0
    0.2364   31.5122   -2.6705 C   0  0  0  0  0  0  0  0  0  0  0  0
   -2.2170   36.2157   -0.4255 C   0  0  0  0  0  0  0  0  0  0  0  0
    7.6984   33.5195   -1.4510 C   0  0  2  0  0  0  0  0  0  0  0  0
    8.8306   32.8135   -0.7365 N   0  0  0  0  0  0  0  0  0  0  0  0
    2.6127   34.0872   -2.3919 C   0  0  2  0  0  0  0  0  0  0  0  0
    0.0649   36.6473   -2.6946 C   0  0  1  0  0  0  0  0  0  0  0  0
    1.1878   35.9300   -2.2165 O   0  0  0  0  0  0  0  0  0  0  0  0
    6.5840   33.8890   -0.4780 C   0  0  1  0  0  0  0  0  0  0  0  0
    7.2461   34.7446    0.5522 O   0  0  0  0  0  0  0  0  0  0  0  0
    1.5088   34.9031   -3.0395 C   0  0  2  0  0  0  0  0  0  0  0  0
   -0.4615   37.5202   -1.5813 C   0  0  1  0  0  0  0  0  0  0  0  0
   -0.8715   36.7114   -0.4882 N   0  0  0  0  0  0  0  0  0  0  0  0
    5.4029   34.5781   -1.1582 C   0  0  2  0  0  0  0  0  0  0  0  0
    4.3166   34.9552   -0.2776 N   0  0  0  0  0  0  0  0  0  0  0  0
    0.3823   33.9125   -3.1684 C   0  0  1  0  0  0  0  0  0  0  0  0
   -0.4149   33.9212   -1.9795 O   0  0  0  0  0  0  0  0  0  0  0  0
    0.6604   38.4466   -1.1432 C   0  0  2  0  0  0  0  0  0  0  0  0
    0.2233   39.2813   -0.0930 O   0  0  0  0  0  0  0  0  0  0  0  0
    4.8634   33.6457   -2.2116 C   0  0  1  0  0  0  0  0  0  0  0  0
    3.8806   34.4337   -2.9392 O   0  0  0  0  0  0  0  0  0  0  0  0
    1.0629   32.6008   -3.3047 C   0  0  1  0  0  0  0  0  0  0  0  0
    2.3237   32.7094   -2.6400 O   0  0  0  0  0  0  0  0  0  0  0  0
    1.0491   39.2833   -2.3623 C   0  0  1  0  0  0  0  0  0  0  0  0
    2.1026   40.1753   -2.0333 O   0  0  0  0  0  0  0  0  0  0  0  0
    5.9750   33.3008   -3.2391 C   0  0  2  0  0  0  0  0  0  0  0  0
    5.4427   32.4342   -4.2289 O   0  0  0  0  0  0  0  0  0  0  0  0
    1.4897   38.3455   -3.4867 C   0  0  1  0  0  0  0  0  0  0  0  0
    0.4298   37.4490   -3.8155 O   0  0  0  0  0  0  0  0  0  0  0  0
    7.1401   32.5978   -2.5162 C   0  0  1  0  0  0  0  0  0  0  0  0
    8.1752   32.2724   -3.4516 O   0  0  0  0  0  0  0  0  0  0  0  0
    1.8478   39.1799   -4.7167 C   0  0  0  0  0  0  0  0  0  0  0  0
    0.7178   39.9442   -5.1060 O   0  0  0  0  0  0  0  0  0  0  0  0
   10.3976   34.4613   -0.8779 N   0  0  0  0  0  0  0  0  0  0  0  0
    5.0232   35.9535    1.4534 N   0  0  0  0  0  0  0  0  0  0  0  0
  1  2  1  0  0  0  0
  1 39  1  0  0  0  0
  3  4  1  0  0  0  0
  5  6  1  0  0  0  0
  5 40  1  0  0  0  0
  9 10  1  1  0  0  0
  9 14  1  0  0  0  0
  9 35  1  0  0  0  0
 10  1  1  0  0  0  0
 11 16  1  0  0  0  0
 11 28  1  0  0  0  0
 11 26  1  6  0  0  0
 12 17  1  0  0  0  0
 12 34  1  0  0  0  0
 12 13  1  1  0  0  0
 14 15  1  1  0  0  0
 14 19  1  0  0  0  0
 16 13  1  1  0  0  0
 16 21  1  0  0  0  0
 17 18  1  1  0  0  0
 17 23  1  0  0  0  0
 18  8  1  0  0  0  0
 19 20  1  1  0  0  0
 19 25  1  0  0  0  0
 20  5  1  0  0  0  0
 21  3  1  6  0  0  0
 21 22  1  0  0  0  0
 21 27  1  0  0  0  0
 23 24  1  1  0  0  0
 23 29  1  0  0  0  0
 25 26  1  6  0  0  0
 25 31  1  0  0  0  0
 27  7  1  1  0  0  0
 27 28  1  0  0  0  0
 29 30  1  1  0  0  0
 29 33  1  0  0  0  0
 31 32  1  6  0  0  0
 31 35  1  0  0  0  0
 33 34  1  0  0  0  0
 33 37  1  6  0  0  0
 35 36  1  6  0  0  0
 37 38  1  0  0  0  0
M  END
>  <CHROM.1>
-135.86669641,-114.06966525,177.43976098,165.10403224,-173.66003429,-89.26782256
81.33145979,76.73603750,56.35662798,-98.02070758,-58.66621612,3.31858058
35.25885713,-2.11856717,-0.36217464,-0.29162381,0.36799634

>  <Name>
1ntb_lig

>  <RI>
0

>  <Rbt.Current_Directory>
/home/itssahil/PROJECTS/Mol_Feturizer/New_Systems/rnas/1ntb

>  <Rbt.Executable>
rbdock ($Id: //depot/dev/client3/rdock/2013.1/src/exe/rbdock.cxx#4 $)

>  <Rbt.Library>
libRbt.so (2013.1, Build901 2013/11/27)

>  <Rbt.Parameter_File>
/export/apps/rDock/src/rDock_2013.1_src/data/scripts/dock_solv.prm

>  <Rbt.Receptor>
prm/pocket_docking_3.prm

>  <SCORE>
-23.8867

>  <SCORE.INTER>
-11.9927

>  <SCORE.INTER.CONST>
1

>  <SCORE.INTER.POLAR>
-1.10801

>  <SCORE.INTER.ROT>
11

>  <SCORE.INTER.SOLV>
24.9381

>  <SCORE.INTER.VDW>
-23.5478

>  <SCORE.INTER.norm>
-0.299817

>  <SCORE.INTRA>
-11.9229

>  <SCORE.INTRA.DIHEDRAL>
-5.89938

>  <SCORE.INTRA.DIHEDRAL.0>
15.4453

>  <SCORE.INTRA.POLAR>
0

>  <SCORE.INTRA.POLAR.0>
0

>  <SCORE.INTRA.REPUL>
-0.823217

>  <SCORE.INTRA.REPUL.0>
0.823958

>  <SCORE.INTRA.SOLV>
-0.852963

>  <SCORE.INTRA.SOLV.lig_0>
-99.3069

>  <SCORE.INTRA.VDW>
-4.43064

>  <SCORE.INTRA.VDW.0>
0.946495

>  <SCORE.INTRA.norm>
-0.298073

>  <SCORE.RESTR>
0.0288892

>  <SCORE.RESTR.CAVITY>
0.0288892

>  <SCORE.RESTR.norm>
0.00072223

>  <SCORE.SYSTEM>
0

>  <SCORE.SYSTEM.CONST>
0

>  <SCORE.SYSTEM.DIHEDRAL>
0

>  <SCORE.SYSTEM.SOLV>
0

>  <SCORE.SYSTEM.norm>
0

>  <SCORE.heavy>
40

>  <SCORE.norm>
-0.597167

>  <RMSD>
1.140

$$$$
1ntb_lig
 OpenBabel11021811403D
libRbt.so/2013.1/901 2013/11/27
 40 42  0  0  0  0  0  0  0  0999 V2000
    9.9140   33.3423   -1.1438 C   0  0  0  0  0  0  0  0  0  0  0  0
   10.6345   32.5236   -1.8077 N   0  0  0  0  0  0  0  0  0  0  0  0
   -0.6374   33.9943   -4.4199 C   0  0  0  0  0  0  0  0  0  0  0  0
    0.0919   33.8666   -5.6290 O   0  0  0  0  0  0  0  0  0  0  0  0
    4.1656   35.8692   -0.0184 C   0  0  0  0  0  0  0  0  0  0  0  0
    4.8890   36.2103    0.9878 N   0  0  0  0  0  0  0  0  0  0  0  0
    0.1085   31.2998   -2.7576 C   0  0  0  0  0  0  0  0  0  0  0  0
   -2.0624   36.5891    0.2752 C   0  0  0  0  0  0  0  0  0  0  0  0
    7.5890   33.5176   -1.5036 C   0  0  2  0  0  0  0  0  0  0  0  0
    8.7405   32.8831   -0.7537 N   0  0  0  0  0  0  0  0  0  0  0  0
    2.5212   33.8467   -2.5395 C   0  0  2  0  0  0  0  0  0  0  0  0
   -0.0548   36.3850   -2.6947 C   0  0  1  0  0  0  0  0  0  0  0  0
    1.1233   35.7036   -2.3050 O   0  0  0  0  0  0  0  0  0  0  0  0
    6.4164   33.7972   -0.5698 C   0  0  1  0  0  0  0  0  0  0  0  0
    6.9788   34.6840    0.4928 O   0  0  0  0  0  0  0  0  0  0  0  0
    1.4058   34.6792   -3.1451 C   0  0  2  0  0  0  0  0  0  0  0  0
   -0.5196   37.2445   -1.5441 C   0  0  1  0  0  0  0  0  0  0  0  0
   -0.8184   36.4264   -0.4221 N   0  0  0  0  0  0  0  0  0  0  0  0
    5.2160   34.4111   -1.2873 C   0  0  2  0  0  0  0  0  0  0  0  0
    4.0744   34.7013   -0.4446 N   0  0  0  0  0  0  0  0  0  0  0  0
    0.2647   33.7019   -3.2437 C   0  0  1  0  0  0  0  0  0  0  0  0
   -0.4931   33.7108   -2.0293 O   0  0  0  0  0  0  0  0  0  0  0  0
    0.6039   38.2059   -1.1948 C   0  0  2  0  0  0  0  0  0  0  0  0
    0.2244   39.0297   -0.1141 O   0  0  0  0  0  0  0  0  0  0  0  0
    4.7821   33.4564   -2.3691 C   0  0  1  0  0  0  0  0  0  0  0  0
    3.7743   34.1832   -3.1256 O   0  0  0  0  0  0  0  0  0  0  0  0
    0.9259   32.3838   -3.4111 C   0  0  1  0  0  0  0  0  0  0  0  0
    2.2089   32.4739   -2.7873 O   0  0  0  0  0  0  0  0  0  0  0  0
    0.8710   39.0507   -2.4407 C   0  0  1  0  0  0  0  0  0  0  0  0
    1.9190   39.9753   -2.1949 O   0  0  0  0  0  0  0  0  0  0  0  0
    5.9521   33.2019   -3.3572 C   0  0  2  0  0  0  0  0  0  0  0  0
    5.5183   32.3126   -4.3747 O   0  0  0  0  0  0  0  0  0  0  0  0
    1.2515   38.1238   -3.5957 C   0  0  1  0  0  0  0  0  0  0  0  0
    0.1972   37.1944   -3.8408 O   0  0  0  0  0  0  0  0  0  0  0  0
    7.1359   32.5725   -2.5978 C   0  0  1  0  0  0  0  0  0  0  0  0
    8.2250   32.3310   -3.4966 O   0  0  0  0  0  0  0  0  0  0  0  0
    1.4872   38.9654   -4.8501 C   0  0  0  0  0  0  0  0  0  0  0  0
    2.5907   39.8293   -4.6306 O   0  0  0  0  0  0  0  0  0  0  0  0
   10.2917   34.5461   -0.8908 N   0  0  0  0  0  0  0  0  0  0  0  0
    3.4650   36.7264   -0.5850 N   0  0  0  0  0  0  0  0  0  0  0  0
  1  2  1  0  0  0  0
  1 39  1  0  0  0  0
  3  4  1  0  0  0  0
  5  6  1  0  0  0  0
  5 40  1  0  0  0  0
  9 10  1  1  0  0  0
  9 14  1  0  0  0  0
  9 35  1  0  0  0  0
 10  1  1  0  0  0  0
 11 16  1  0  0  0  0
 11 28  1  0  0  0  0
 11 26  1  6  0  0  0
 12 17  1  0  0  0  0
 12 34  1  0  0  0  0
 12 13  1  1  0  0  0
 14 15  1  1  0  0  0
 14 19  1  0  0  0  0
 16 13  1  1  0  0  0
 16 21  1  0  0  0  0
 17 18  1  1  0  0  0
 17 23  1  0  0  0  0
 18  8  1  0  0  0  0
 19 20  1  1  0  0  0
 19 25  1  0  0  0  0
 20  5  1  0  0  0  0
 21  3  1  6  0  0  0
 21 22  1  0  0  0  0
 21 27  1  0  0  0  0
 23 24  1  1  0  0  0
 23 29  1  0  0  0  0
 25 26  1  6  0  0  0
 25 31  1  0  0  0  0
 27  7  1  1  0  0  0
 27 28  1  0  0  0  0
 29 30  1  1  0  0  0
 29 33  1  0  0  0  0
 31 32  1  6  0  0  0
 31 35  1  0  0  0  0
 33 34  1  0  0  0  0
 33 37  1  6  0  0  0
 35 36  1  6  0  0  0
 37 38  1  0  0  0  0
M  END
>  <CHROM.1>
-140.34852899,-109.24170861,173.23657504,164.69301033,-169.98010504,-130.78909691
91.21133972,-81.31559958,62.38220545,-92.25547148,63.47921741,3.23493074
35.11657542,-2.18250209,-0.35437287,-0.24940451,0.35846531

>  <Name>
1ntb_lig

>  <RI>
0

>  <Rbt.Current_Directory>
/home/itssahil/PROJECTS/Mol_Feturizer/New_Systems/rnas/1ntb

>  <Rbt.Executable>
rbdock ($Id: //depot/dev/client3/rdock/2013.1/src/exe/rbdock.cxx#4 $)

>  <Rbt.Library>
libRbt.so (2013.1, Build901 2013/11/27)

>  <Rbt.Parameter_File>
/export/apps/rDock/src/rDock_2013.1_src/data/scripts/dock_solv.prm

>  <Rbt.Receptor>
prm/pocket_docking_3.prm

>  <SCORE>
-23.0763

>  <SCORE.INTER>
-13.1653

>  <SCORE.INTER.CONST>
1

>  <SCORE.INTER.POLAR>
-1.12427

>  <SCORE.INTER.ROT>
11

>  <SCORE.INTER.SOLV>
23.3299

>  <SCORE.INTER.VDW>
-23.7393

>  <SCORE.INTER.norm>
-0.329133

>  <SCORE.INTRA>
-9.91094

>  <SCORE.INTRA.DIHEDRAL>
-5.60561

>  <SCORE.INTRA.DIHEDRAL.0>
15.4453

>  <SCORE.INTRA.POLAR>
0

>  <SCORE.INTRA.POLAR.0>
0

>  <SCORE.INTRA.REPUL>
-0.823958

>  <SCORE.INTRA.REPUL.0>
0.823958

>  <SCORE.INTRA.SOLV>
2.34632

>  <SCORE.INTRA.SOLV.lig_0>
-99.3069

>  <SCORE.INTRA.VDW>
-4.1615

>  <SCORE.INTRA.VDW.0>
0.946495

>  <SCORE.INTRA.norm>
-0.247773

>  <SCORE.RESTR>
0

>  <SCORE.RESTR.CAVITY>
0

>  <SCORE.RESTR.norm>
0

>  <SCORE.SYSTEM>
0

>  <SCORE.SYSTEM.CONST>
0

>  <SCORE.SYSTEM.DIHEDRAL>
0

>  <SCORE.SYSTEM.SOLV>
0

>  <SCORE.SYSTEM.norm>
0

>  <SCORE.heavy>
40

>  <SCORE.norm>
-0.576906

>  <RMSD>
1.143

$$$$
1ntb_lig
 OpenBabel11021811403D
libRbt.so/2013.1/901 2013/11/27
 40 42  0  0  0  0  0  0  0  0999 V2000
    9.9622   33.2101   -1.2776 C   0  0  0  0  0  0  0  0  0  0  0  0
   10.3315   34.4112   -1.0511 N   0  0  0  0  0  0  0  0  0  0  0  0
   -0.5577   34.3473   -4.4399 C   0  0  0  0  0  0  0  0  0  0  0  0
   -1.6743   33.4752   -4.4943 O   0  0  0  0  0  0  0  0  0  0  0  0
    4.4847   36.1133    0.1064 C   0  0  0  0  0  0  0  0  0  0  0  0
    5.2256   36.3011    1.1397 N   0  0  0  0  0  0  0  0  0  0  0  0
    0.1326   31.5663   -2.9007 C   0  0  0  0  0  0  0  0  0  0  0  0
   -2.2285   36.1214   -0.2942 C   0  0  0  0  0  0  0  0  0  0  0  0
    7.6436   33.5669   -1.5276 C   0  0  2  0  0  0  0  0  0  0  0  0
    8.7781   32.8776   -0.8006 N   0  0  0  0  0  0  0  0  0  0  0  0
    2.5569   34.0799   -2.5003 C   0  0  2  0  0  0  0  0  0  0  0  0
    0.0308   36.6744   -2.6086 C   0  0  1  0  0  0  0  0  0  0  0  0
    1.1666   35.9334   -2.2027 O   0  0  0  0  0  0  0  0  0  0  0  0
    6.5230   33.9399   -0.5633 C   0  0  1  0  0  0  0  0  0  0  0  0
    7.1750   34.8124    0.4591 O   0  0  0  0  0  0  0  0  0  0  0  0
    1.4610   34.9507   -3.0872 C   0  0  2  0  0  0  0  0  0  0  0  0
   -0.4826   37.4596   -1.4260 C   0  0  1  0  0  0  0  0  0  0  0  0
   -0.8683   36.5699   -0.3882 N   0  0  0  0  0  0  0  0  0  0  0  0
    5.3395   34.6123   -1.2560 C   0  0  2  0  0  0  0  0  0  0  0  0
    4.2472   34.9921   -0.3839 N   0  0  0  0  0  0  0  0  0  0  0  0
    0.3159   33.9886   -3.2605 C   0  0  1  0  0  0  0  0  0  0  0  0
   -0.4689   33.9420   -2.0642 O   0  0  0  0  0  0  0  0  0  0  0  0
    0.6400   38.3608   -0.9399 C   0  0  2  0  0  0  0  0  0  0  0  0
    0.2151   39.1131    0.1754 O   0  0  0  0  0  0  0  0  0  0  0  0
    4.8107   33.6636   -2.3002 C   0  0  1  0  0  0  0  0  0  0  0  0
    3.8250   34.4358   -3.0407 O   0  0  0  0  0  0  0  0  0  0  0  0
    0.9718   32.6756   -3.4800 C   0  0  1  0  0  0  0  0  0  0  0  0
    2.2410   32.7239   -2.8244 O   0  0  0  0  0  0  0  0  0  0  0  0
    1.0021   39.2872   -2.1010 C   0  0  1  0  0  0  0  0  0  0  0  0
    2.0548   40.1615   -1.7252 O   0  0  0  0  0  0  0  0  0  0  0  0
    5.9286   33.3146   -3.3194 C   0  0  2  0  0  0  0  0  0  0  0  0
    5.4063   32.4325   -4.3008 O   0  0  0  0  0  0  0  0  0  0  0  0
    1.4300   38.4375   -3.2980 C   0  0  1  0  0  0  0  0  0  0  0  0
    0.3709   37.5587   -3.6738 O   0  0  0  0  0  0  0  0  0  0  0  0
    7.0960   32.6286   -2.5839 C   0  0  1  0  0  0  0  0  0  0  0  0
    8.1369   32.2996   -3.5115 O   0  0  0  0  0  0  0  0  0  0  0  0
    1.7612   39.3622   -4.4695 C   0  0  0  0  0  0  0  0  0  0  0  0
    1.8323   38.5964   -5.6616 O   0  0  0  0  0  0  0  0  0  0  0  0
   10.7031   32.3672   -1.9072 N   0  0  0  0  0  0  0  0  0  0  0  0
    3.9171   37.0853   -0.4226 N   0  0  0  0  0  0  0  0  0  0  0  0
  1  2  1  0  0  0  0
  1 39  1  0  0  0  0
  3  4  1  0  0  0  0
  5  6  1  0  0  0  0
  5 40  1  0  0  0  0
  9 10  1  1  0  0  0
  9 14  1  0  0  0  0
  9 35  1  0  0  0  0
 10  1  1  0  0  0  0
 11 16  1  0  0  0  0
 11 28  1  0  0  0  0
 11 26  1  6  0  0  0
 12 17  1  0  0  0  0
 12 34  1  0  0  0  0
 12 13  1  1  0  0  0
 14 15  1  1  0  0  0
 14 19  1  0  0  0  0
 16 13  1  1  0  0  0
 16 21  1  0  0  0  0
 17 18  1  1  0  0  0
 17 23  1  0  0  0  0
 18  8  1  0  0  0  0
 19 20  1  1  0  0  0
 19 25  1  0  0  0  0
 20  5  1  0  0  0  0
 21  3  1  6  0  0  0
 21 22  1  0  0  0  0
 21 27  1  0  0  0  0
 23 24  1  1  0  0  0
 23 29  1  0  0  0  0
 25 26  1  6  0  0  0
 25 31  1  0  0  0  0
 27  7  1  1  0  0  0
 27 28  1  0  0  0  0
 29 30  1  1  0  0  0
 29 33  1  0  0  0  0
 31 32  1  6  0  0  0
 31 35  1  0  0  0  0
 33 34  1  0  0  0  0
 33 37  1  6  0  0  0
 35 36  1  6  0  0  0
 37 38  1  0  0  0  0
M  END
>  <CHROM.1>
-143.07769350,69.41673503,173.24143413,163.59025382,-172.13950616,-92.90610114
85.27470539,-82.98589169,-175.45800692,-98.40818902,-165.57409140,3.23654681
35.22175646,-2.12871892,-0.32683087,-0.25073978,0.39678734

>  <Name>
1ntb_lig

>  <RI>
0

>  <Rbt.Current_Directory>
/home/itssahil/PROJECTS/Mol_Feturizer/New_Systems/rnas/1ntb

>  <Rbt.Executable>
rbdock ($Id: //depot/dev/client3/rdock/2013.1/src/exe/rbdock.cxx#4 $)

>  <Rbt.Library>
libRbt.so (2013.1, Build901 2013/11/27)

>  <Rbt.Parameter_File>
/export/apps/rDock/src/rDock_2013.1_src/data/scripts/dock_solv.prm

>  <Rbt.Receptor>
prm/pocket_docking_4.prm

>  <SCORE>
-22.2788

>  <SCORE.INTER>
-11.8955

>  <SCORE.INTER.CONST>
1

>  <SCORE.INTER.POLAR>
-1.06403

>  <SCORE.INTER.ROT>
11

>  <SCORE.INTER.SOLV>
23.0381

>  <SCORE.INTER.VDW>
-22.9963

>  <SCORE.INTER.norm>
-0.297387

>  <SCORE.INTRA>
-10.3833

>  <SCORE.INTRA.DIHEDRAL>
-4.1226

>  <SCORE.INTRA.DIHEDRAL.0>
15.4453

>  <SCORE.INTRA.POLAR>
0

>  <SCORE.INTRA.POLAR.0>
0

>  <SCORE.INTRA.REPUL>
-0.823958

>  <SCORE.INTRA.REPUL.0>
0.823958

>  <SCORE.INTRA.SOLV>
0.799193

>  <SCORE.INTRA.SOLV.lig_0>
-99.3069

>  <SCORE.INTRA.VDW>
-4.60183

>  <SCORE.INTRA.VDW.0>
0.946495

>  <SCORE.INTRA.norm>
-0.259583

>  <SCORE.RESTR>
0

>  <SCORE.RESTR.CAVITY>
0

>  <SCORE.RESTR.norm>
0

>  <SCORE.SYSTEM>
0

>  <SCORE.SYSTEM.CONST>
0

>  <SCORE.SYSTEM.DIHEDRAL>
0

>  <SCORE.SYSTEM.SOLV>
0

>  <SCORE.SYSTEM.norm>
0

>  <SCORE.heavy>
40

>  <SCORE.norm>
-0.55697

>  <RMSD>
1.162

$$$$
1ntb_lig
 OpenBabel11021811403D
libRbt.so/2013.1/901 2013/11/27
 40 42  0  0  0  0  0  0  0  0999 V2000
    9.8847   33.3542   -1.1079 C   0  0  0  0  0  0  0  0  0  0  0  0
   10.5332   32.5086   -1.8112 N   0  0  0  0  0  0  0  0  0  0  0  0
   -0.6021   34.1242   -4.4968 C   0  0  0  0  0  0  0  0  0  0  0  0
    0.1878   34.1100   -5.6741 O   0  0  0  0  0  0  0  0  0  0  0  0
    4.2003   36.0922    0.0058 C   0  0  0  0  0  0  0  0  0  0  0  0
    4.9747   36.4677    0.9605 N   0  0  0  0  0  0  0  0  0  0  0  0
    0.1306   31.4135   -2.8550 C   0  0  0  0  0  0  0  0  0  0  0  0
   -2.4004   36.1830   -0.5352 C   0  0  0  0  0  0  0  0  0  0  0  0
    7.5629   33.6114   -1.4372 C   0  0  2  0  0  0  0  0  0  0  0  0
    8.7006   32.9556   -0.6846 N   0  0  0  0  0  0  0  0  0  0  0  0
    2.4917   33.9946   -2.5103 C   0  0  2  0  0  0  0  0  0  0  0  0
   -0.0433   36.5737   -2.7781 C   0  0  1  0  0  0  0  0  0  0  0  0
    1.0559   35.8245   -2.2935 O   0  0  0  0  0  0  0  0  0  0  0  0
    6.4047   33.9382   -0.5008 C   0  0  1  0  0  0  0  0  0  0  0  0
    6.9987   34.8243    0.5449 O   0  0  0  0  0  0  0  0  0  0  0  0
    1.3842   34.8195   -3.1403 C   0  0  2  0  0  0  0  0  0  0  0  0
   -0.5793   37.4279   -1.6549 C   0  0  1  0  0  0  0  0  0  0  0  0
   -1.0280   36.5995   -0.5920 N   0  0  0  0  0  0  0  0  0  0  0  0
    5.2177   34.5753   -1.2204 C   0  0  2  0  0  0  0  0  0  0  0  0
    4.0901   34.9105   -0.3756 N   0  0  0  0  0  0  0  0  0  0  0  0
    0.2636   33.8259   -3.2950 C   0  0  1  0  0  0  0  0  0  0  0  0
   -0.5358   33.8016   -2.1078 O   0  0  0  0  0  0  0  0  0  0  0  0
    0.5483   38.3227   -1.1686 C   0  0  2  0  0  0  0  0  0  0  0  0
    0.1022   39.1386   -0.1075 O   0  0  0  0  0  0  0  0  0  0  0  0
    4.7500   33.6173   -2.2852 C   0  0  1  0  0  0  0  0  0  0  0  0
    3.7585   34.3613   -3.0466 O   0  0  0  0  0  0  0  0  0  0  0  0
    0.9520   32.5217   -3.4614 C   0  0  1  0  0  0  0  0  0  0  0  0
    2.2110   32.6215   -2.7919 O   0  0  0  0  0  0  0  0  0  0  0  0
    0.9791   39.1824   -2.3572 C   0  0  1  0  0  0  0  0  0  0  0  0
    2.0402   40.0468   -1.9824 O   0  0  0  0  0  0  0  0  0  0  0  0
    5.9061   33.3149   -3.2763 C   0  0  2  0  0  0  0  0  0  0  0  0
    5.4408   32.4233   -4.2777 O   0  0  0  0  0  0  0  0  0  0  0  0
    1.4285   38.2652   -3.4950 C   0  0  1  0  0  0  0  0  0  0  0  0
    0.3608   37.3964   -3.8699 O   0  0  0  0  0  0  0  0  0  0  0  0
    7.0763   32.6634   -2.5144 C   0  0  1  0  0  0  0  0  0  0  0  0
    8.1523   32.3776   -3.4159 O   0  0  0  0  0  0  0  0  0  0  0  0
    1.8288   39.1235   -4.6952 C   0  0  0  0  0  0  0  0  0  0  0  0
    0.7088   39.8849   -5.1174 O   0  0  0  0  0  0  0  0  0  0  0  0
   10.3403   34.5290   -0.8471 N   0  0  0  0  0  0  0  0  0  0  0  0
    3.4685   36.9290   -0.5517 N   0  0  0  0  0  0  0  0  0  0  0  0
  1  2  1  0  0  0  0
  1 39  1  0  0  0  0
  3  4  1  0  0  0  0
  5  6  1  0  0  0  0
  5 40  1  0  0  0  0
  9 10  1  1  0  0  0
  9 14  1  0  0  0  0
  9 35  1  0  0  0  0
 10  1  1  0  0  0  0
 11 16  1  0  0  0  0
 11 28  1  0  0  0  0
 11 26  1  6  0  0  0
 12 17  1  0  0  0  0
 12 34  1  0  0  0  0
 12 13  1  1  0  0  0
 14 15  1  1  0  0  0
 14 19  1  0  0  0  0
 16 13  1  1  0  0  0
 16 21  1  0  0  0  0
 17 18  1  1  0  0  0
 17 23  1  0  0  0  0
 18  8  1  0  0  0  0
 19 20  1  1  0  0  0
 19 25  1  0  0  0  0
 20  5  1  0  0  0  0
 21  3  1  6  0  0  0
 21 22  1  0  0  0  0
 21 27  1  0  0  0  0
 23 24  1  1  0  0  0
 23 29  1  0  0  0  0
 25 26  1  6  0  0  0
 25 31  1  0  0  0  0
 27  7  1  1  0  0  0
 27 28  1  0  0  0  0
 29 30  1  1  0  0  0
 29 33  1  0  0  0  0
 31 32  1  6  0  0  0
 31 35  1  0  0  0  0
 33 34  1  0  0  0  0
 33 37  1  6  0  0  0
 35 36  1  6  0  0  0
 37 38  1  0  0  0  0
M  END
>  <CHROM.1>
-141.69866193,-105.94203782,174.33511946,165.59611979,-175.56811332,-92.46277257
92.83249917,-78.85820809,58.81751795,-96.34270054,-60.56848111,3.17786709
35.23307100,-2.19657506,-0.34485721,-0.28186769,0.37041088

>  <Name>
1ntb_lig

>  <RI>
0

>  <Rbt.Current_Directory>
/home/itssahil/PROJECTS/Mol_Feturizer/New_Systems/rnas/1ntb

>  <Rbt.Executable>
rbdock ($Id: //depot/dev/client3/rdock/2013.1/src/exe/rbdock.cxx#4 $)

>  <Rbt.Library>
libRbt.so (2013.1, Build901 2013/11/27)

>  <Rbt.Parameter_File>
/export/apps/rDock/src/rDock_2013.1_src/data/scripts/dock_solv.prm

>  <Rbt.Receptor>
prm/pocket_docking_3.prm

>  <SCORE>
-24.0525

>  <SCORE.INTER>
-12.6112

>  <SCORE.INTER.CONST>
1

>  <SCORE.INTER.POLAR>
-1.10375

>  <SCORE.INTER.ROT>
11

>  <SCORE.INTER.SOLV>
22.5697

>  <SCORE.INTER.VDW>
-23.1848

>  <SCORE.INTER.norm>
-0.31528

>  <SCORE.INTRA>
-11.4587

>  <SCORE.INTRA.DIHEDRAL>
-5.90863

>  <SCORE.INTRA.DIHEDRAL.0>
15.4453

>  <SCORE.INTRA.POLAR>
0

>  <SCORE.INTRA.POLAR.0>
0

>  <SCORE.INTRA.REPUL>
-0.823958

>  <SCORE.INTRA.REPUL.0>
0.823958

>  <SCORE.INTRA.SOLV>
2.26794

>  <SCORE.INTRA.SOLV.lig_0>
-99.3069

>  <SCORE.INTRA.VDW>
-5.51859

>  <SCORE.INTRA.VDW.0>
0.946495

>  <SCORE.INTRA.norm>
-0.286468

>  <SCORE.RESTR>
0.0174116

>  <SCORE.RESTR.CAVITY>
0.0174116

>  <SCORE.RESTR.norm>
0.00043529

>  <SCORE.SYSTEM>
0

>  <SCORE.SYSTEM.CONST>
0

>  <SCORE.SYSTEM.DIHEDRAL>
0

>  <SCORE.SYSTEM.SOLV>
0

>  <SCORE.SYSTEM.norm>
0

>  <SCORE.heavy>
40

>  <SCORE.norm>
-0.601313

>  <RMSD>
1.164

$$$$
1ntb_lig
 OpenBabel11021811403D
libRbt.so/2013.1/901 2013/11/27
 40 42  0  0  0  0  0  0  0  0999 V2000
    9.9569   33.3274   -1.2625 C   0  0  0  0  0  0  0  0  0  0  0  0
   10.3339   34.4955   -0.9107 N   0  0  0  0  0  0  0  0  0  0  0  0
   -0.6212   34.2080   -4.3526 C   0  0  0  0  0  0  0  0  0  0  0  0
    0.1246   34.1802   -5.5582 O   0  0  0  0  0  0  0  0  0  0  0  0
    4.4340   35.9684    0.1987 C   0  0  0  0  0  0  0  0  0  0  0  0
    4.3680   37.1294   -0.3488 N   0  0  0  0  0  0  0  0  0  0  0  0
    0.1174   31.4778   -2.7461 C   0  0  0  0  0  0  0  0  0  0  0  0
   -2.0279   37.0196    0.2888 C   0  0  0  0  0  0  0  0  0  0  0  0
    7.6291   33.6015   -1.5309 C   0  0  2  0  0  0  0  0  0  0  0  0
    8.7815   32.9444   -0.8021 N   0  0  0  0  0  0  0  0  0  0  0  0
    2.5395   34.0112   -2.4803 C   0  0  2  0  0  0  0  0  0  0  0  0
    0.0336   36.6264   -2.6370 C   0  0  1  0  0  0  0  0  0  0  0  0
    1.1487   35.8679   -2.2064 O   0  0  0  0  0  0  0  0  0  0  0  0
    6.4908   33.9291   -0.5708 C   0  0  1  0  0  0  0  0  0  0  0  0
    7.1071   34.8146    0.4626 O   0  0  0  0  0  0  0  0  0  0  0  0
    1.4263   34.8597   -3.0673 C   0  0  2  0  0  0  0  0  0  0  0  0
   -0.4044   37.5269   -1.5075 C   0  0  1  0  0  0  0  0  0  0  0  0
   -0.7938   36.7421   -0.3895 N   0  0  0  0  0  0  0  0  0  0  0  0
    5.2898   34.5674   -1.2657 C   0  0  2  0  0  0  0  0  0  0  0  0
    4.1802   34.9035   -0.3976 N   0  0  0  0  0  0  0  0  0  0  0  0
    0.2816   33.8886   -3.1839 C   0  0  1  0  0  0  0  0  0  0  0  0
   -0.4745   33.8758   -1.9685 O   0  0  0  0  0  0  0  0  0  0  0  0
    0.7727   38.4105   -1.1304 C   0  0  2  0  0  0  0  0  0  0  0  0
    0.4192   39.2688   -0.0678 O   0  0  0  0  0  0  0  0  0  0  0  0
    4.7993   33.6101   -2.3207 C   0  0  1  0  0  0  0  0  0  0  0  0
    3.7930   34.3550   -3.0614 O   0  0  0  0  0  0  0  0  0  0  0  0
    0.9378   32.5719   -3.3788 C   0  0  1  0  0  0  0  0  0  0  0  0
    2.2220   32.6448   -2.7553 O   0  0  0  0  0  0  0  0  0  0  0  0
    1.1360   39.2231   -2.3734 C   0  0  1  0  0  0  0  0  0  0  0  0
    2.2383   40.0745   -2.1018 O   0  0  0  0  0  0  0  0  0  0  0  0
    5.9344   33.3067   -3.3354 C   0  0  2  0  0  0  0  0  0  0  0  0
    5.4477   32.4157   -4.3271 O   0  0  0  0  0  0  0  0  0  0  0  0
    1.4854   38.2613   -3.5095 C   0  0  1  0  0  0  0  0  0  0  0  0
    0.3764   37.4057   -3.7805 O   0  0  0  0  0  0  0  0  0  0  0  0
    7.1195   32.6541   -2.5979 C   0  0  1  0  0  0  0  0  0  0  0  0
    8.1765   32.3674   -3.5215 O   0  0  0  0  0  0  0  0  0  0  0  0
    1.8175   39.0728   -4.7619 C   0  0  0  0  0  0  0  0  0  0  0  0
    0.7063   39.8889   -5.0961 O   0  0  0  0  0  0  0  0  0  0  0  0
   10.6829   32.5597   -1.9969 N   0  0  0  0  0  0  0  0  0  0  0  0
    4.8218   35.8699    1.3762 N   0  0  0  0  0  0  0  0  0  0  0  0
  1  2  1  0  0  0  0
  1 39  1  0  0  0  0
  3  4  1  0  0  0  0
  5  6  1  0  0  0  0
  5 40  1  0  0  0  0
  9 10  1  1  0  0  0
  9 14  1  0  0  0  0
  9 35  1  0  0  0  0
 10  1  1  0  0  0  0
 11 16  1  0  0  0  0
 11 28  1  0  0  0  0
 11 26  1  6  0  0  0
 12 17  1  0  0  0  0
 12 34  1  0  0  0  0
 12 13  1  1  0  0  0
 14 15  1  1  0  0  0
 14 19  1  0  0  0  0
 16 13  1  1  0  0  0
 16 21  1  0  0  0  0
 17 18  1  1  0  0  0
 17 23  1  0  0  0  0
 18  8  1  0  0  0  0
 19 20  1  1  0  0  0
 19 25  1  0  0  0  0
 20  5  1  0  0  0  0
 21  3  1  6  0  0  0
 21 22  1  0  0  0  0
 21 27  1  0  0  0  0
 23 24  1  1  0  0  0
 23 29  1  0  0  0  0
 25 26  1  6  0  0  0
 25 31  1  0  0  0  0
 27  7  1  1  0  0  0
 27 28  1  0  0  0  0
 29 30  1  1  0  0  0
 29 33  1  0  0  0  0
 31 32  1  6  0  0  0
 31 35  1  0  0  0  0
 33 34  1  0  0  0  0
 33 37  1  6  0  0  0
 35 36  1  6  0  0  0
 37 38  1  0  0  0  0
M  END
>  <CHROM.1>
-142.61473292,75.68317630,173.20425979,167.86662134,-174.58312190,-132.36671569
79.12636825,75.99544443,58.91889662,-95.13635821,-58.08825669,3.27398722
35.26670857,-2.14950647,-0.35840357,-0.28299628,0.40960438

>  <Name>
1ntb_lig

>  <RI>
0

>  <Rbt.Current_Directory>
/home/itssahil/PROJECTS/Mol_Feturizer/New_Systems/rnas/1ntb

>  <Rbt.Executable>
rbdock ($Id: //depot/dev/client3/rdock/2013.1/src/exe/rbdock.cxx#4 $)

>  <Rbt.Library>
libRbt.so (2013.1, Build901 2013/11/27)

>  <Rbt.Parameter_File>
/export/apps/rDock/src/rDock_2013.1_src/data/scripts/dock_solv.prm

>  <Rbt.Receptor>
prm/pocket_docking_3.prm

>  <SCORE>
-23.3936

>  <SCORE.INTER>
-11.8374

>  <SCORE.INTER.CONST>
1

>  <SCORE.INTER.POLAR>
-1.07793

>  <SCORE.INTER.ROT>
11

>  <SCORE.INTER.SOLV>
24.0153

>  <SCORE.INTER.VDW>
-23.237

>  <SCORE.INTER.norm>
-0.295935

>  <SCORE.INTRA>
-11.5562

>  <SCORE.INTRA.DIHEDRAL>
-6.00158

>  <SCORE.INTRA.DIHEDRAL.0>
15.4453

>  <SCORE.INTRA.POLAR>
0

>  <SCORE.INTRA.POLAR.0>
0

>  <SCORE.INTRA.REPUL>
-0.804568

>  <SCORE.INTRA.REPUL.0>
0.823958

>  <SCORE.INTRA.SOLV>
-0.0889065

>  <SCORE.INTRA.SOLV.lig_0>
-99.3069

>  <SCORE.INTRA.VDW>
-4.48811

>  <SCORE.INTRA.VDW.0>
0.946495

>  <SCORE.INTRA.norm>
-0.288905

>  <SCORE.RESTR>
0

>  <SCORE.RESTR.CAVITY>
0

>  <SCORE.RESTR.norm>
0

>  <SCORE.SYSTEM>
0

>  <SCORE.SYSTEM.CONST>
0

>  <SCORE.SYSTEM.DIHEDRAL>
0

>  <SCORE.SYSTEM.SOLV>
0

>  <SCORE.SYSTEM.norm>
0

>  <SCORE.heavy>
40

>  <SCORE.norm>
-0.58484

>  <RMSD>
1.166

$$$$
1ntb_lig
 OpenBabel11021811403D
libRbt.so/2013.1/901 2013/11/27
 40 42  0  0  0  0  0  0  0  0999 V2000
   10.0761   33.2728   -1.1344 C   0  0  0  0  0  0  0  0  0  0  0  0
   10.4121   34.4624   -0.8148 N   0  0  0  0  0  0  0  0  0  0  0  0
   -0.4340   34.3497   -4.3804 C   0  0  0  0  0  0  0  0  0  0  0  0
   -1.5395   33.4634   -4.4330 O   0  0  0  0  0  0  0  0  0  0  0  0
    4.6830   36.2002    0.1677 C   0  0  0  0  0  0  0  0  0  0  0  0
    4.4280   37.3244   -0.4008 N   0  0  0  0  0  0  0  0  0  0  0  0
    0.2409   31.6061   -2.7689 C   0  0  0  0  0  0  0  0  0  0  0  0
   -2.0885   36.0609   -0.3614 C   0  0  0  0  0  0  0  0  0  0  0  0
    7.7579   33.5713   -1.4547 C   0  0  2  0  0  0  0  0  0  0  0  0
    8.8867   32.8842   -0.7167 N   0  0  0  0  0  0  0  0  0  0  0  0
    2.6696   34.1228   -2.4182 C   0  0  2  0  0  0  0  0  0  0  0  0
    0.1416   36.7105   -2.5963 C   0  0  1  0  0  0  0  0  0  0  0  0
    1.2827   35.9866   -2.1741 O   0  0  0  0  0  0  0  0  0  0  0  0
    6.6529   33.9936   -0.4926 C   0  0  1  0  0  0  0  0  0  0  0  0
    7.3297   34.8851    0.4969 O   0  0  0  0  0  0  0  0  0  0  0  0
    1.5791   34.9815   -3.0324 C   0  0  2  0  0  0  0  0  0  0  0  0
   -0.3867   37.5058   -1.4271 C   0  0  1  0  0  0  0  0  0  0  0  0
   -0.7692   36.6259   -0.3798 N   0  0  0  0  0  0  0  0  0  0  0  0
    5.4752   34.6658   -1.1953 C   0  0  2  0  0  0  0  0  0  0  0  0
    4.3979   35.0915   -0.3259 N   0  0  0  0  0  0  0  0  0  0  0  0
    0.4324   34.0182   -3.1879 C   0  0  1  0  0  0  0  0  0  0  0  0
   -0.3588   34.0033   -1.9950 O   0  0  0  0  0  0  0  0  0  0  0  0
    0.7238   38.4249   -0.9467 C   0  0  2  0  0  0  0  0  0  0  0  0
    0.2848   39.1874    0.1562 O   0  0  0  0  0  0  0  0  0  0  0  0
    4.9201   33.6952   -2.2053 C   0  0  1  0  0  0  0  0  0  0  0  0
    3.9415   34.4621   -2.9606 O   0  0  0  0  0  0  0  0  0  0  0  0
    1.0860   32.6985   -3.3712 C   0  0  1  0  0  0  0  0  0  0  0  0
    2.3519   32.7600   -2.7102 O   0  0  0  0  0  0  0  0  0  0  0  0
    1.0831   39.3396   -2.1179 C   0  0  1  0  0  0  0  0  0  0  0  0
    2.1245   40.2296   -1.7477 O   0  0  0  0  0  0  0  0  0  0  0  0
    6.0222   33.2952   -3.2229 C   0  0  2  0  0  0  0  0  0  0  0  0
    5.4753   32.3932   -4.1723 O   0  0  0  0  0  0  0  0  0  0  0  0
    1.5266   38.4786   -3.3010 C   0  0  1  0  0  0  0  0  0  0  0  0
    0.4788   37.5840   -3.6712 O   0  0  0  0  0  0  0  0  0  0  0  0
    7.1840   32.6112   -2.4769 C   0  0  1  0  0  0  0  0  0  0  0  0
    8.2104   32.2353   -3.4029 O   0  0  0  0  0  0  0  0  0  0  0  0
    1.8551   39.3912   -4.4829 C   0  0  0  0  0  0  0  0  0  0  0  0
    1.8714   38.6220   -5.6747 O   0  0  0  0  0  0  0  0  0  0  0  0
   10.8529   32.4908   -1.7983 N   0  0  0  0  0  0  0  0  0  0  0  0
    5.2965   36.1883    1.2495 N   0  0  0  0  0  0  0  0  0  0  0  0
  1  2  1  0  0  0  0
  1 39  1  0  0  0  0
  3  4  1  0  0  0  0
  5  6  1  0  0  0  0
  5 40  1  0  0  0  0
  9 10  1  1  0  0  0
  9 14  1  0  0  0  0
  9 35  1  0  0  0  0
 10  1  1  0  0  0  0
 11 16  1  0  0  0  0
 11 28  1  0  0  0  0
 11 26  1  6  0  0  0
 12 17  1  0  0  0  0
 12 34  1  0  0  0  0
 12 13  1  1  0  0  0
 14 15  1  1  0  0  0
 14 19  1  0  0  0  0
 16 13  1  1  0  0  0
 16 21  1  0  0  0  0
 17 18  1  1  0  0  0
 17 23  1  0  0  0  0
 18  8  1  0  0  0  0
 19 20  1  1  0  0  0
 19 25  1  0  0  0  0
 20  5  1  0  0  0  0
 21  3  1  6  0  0  0
 21 22  1  0  0  0  0
 21 27  1  0  0  0  0
 23 24  1  1  0  0  0
 23 29  1  0  0  0  0
 25 26  1  6  0  0  0
 25 31  1  0  0  0  0
 27  7  1  1  0  0  0
 27 28  1  0  0  0  0
 29 30  1  1  0  0  0
 29 33  1  0  0  0  0
 31 32  1  6  0  0  0
 31 35  1  0  0  0  0
 33 34  1  0  0  0  0
 33 37  1  6  0  0  0
 35 36  1  6  0  0  0
 37 38  1  0  0  0  0
M  END
>  <CHROM.1>
-137.34134610,71.01242491,173.83310186,162.57549880,-171.45741756,-86.78708916
82.76985186,86.77009794,-176.52494193,-99.67670920,-162.53129329,3.35391692
35.25680435,-2.07120276,-0.32617475,-0.25683716,0.37196349

>  <Name>
1ntb_lig

>  <RI>
0

>  <Rbt.Current_Directory>
/home/itssahil/PROJECTS/Mol_Feturizer/New_Systems/rnas/1ntb

>  <Rbt.Executable>
rbdock ($Id: //depot/dev/client3/rdock/2013.1/src/exe/rbdock.cxx#4 $)

>  <Rbt.Library>
libRbt.so (2013.1, Build901 2013/11/27)

>  <Rbt.Parameter_File>
/export/apps/rDock/src/rDock_2013.1_src/data/scripts/dock_solv.prm

>  <Rbt.Receptor>
prm/pocket_docking_4.prm

>  <SCORE>
-22.0561

>  <SCORE.INTER>
-11.8685

>  <SCORE.INTER.CONST>
1

>  <SCORE.INTER.POLAR>
-1.15214

>  <SCORE.INTER.ROT>
11

>  <SCORE.INTER.SOLV>
24.6404

>  <SCORE.INTER.VDW>
-23.2186

>  <SCORE.INTER.norm>
-0.296712

>  <SCORE.INTRA>
-10.1876

>  <SCORE.INTRA.DIHEDRAL>
-3.63915

>  <SCORE.INTRA.DIHEDRAL.0>
15.4453

>  <SCORE.INTRA.POLAR>
0

>  <SCORE.INTRA.POLAR.0>
0

>  <SCORE.INTRA.REPUL>
-0.821387

>  <SCORE.INTRA.REPUL.0>
0.823958

>  <SCORE.INTRA.SOLV>
-0.27359

>  <SCORE.INTRA.SOLV.lig_0>
-99.3069

>  <SCORE.INTRA.VDW>
-4.12433

>  <SCORE.INTRA.VDW.0>
0.946495

>  <SCORE.INTRA.norm>
-0.254691

>  <SCORE.RESTR>
0

>  <SCORE.RESTR.CAVITY>
0

>  <SCORE.RESTR.norm>
0

>  <SCORE.SYSTEM>
0

>  <SCORE.SYSTEM.CONST>
0

>  <SCORE.SYSTEM.DIHEDRAL>
0

>  <SCORE.SYSTEM.SOLV>
0

>  <SCORE.SYSTEM.norm>
0

>  <SCORE.heavy>
40

>  <SCORE.norm>
-0.551403

>  <RMSD>
1.177

$$$$
1ntb_lig
 OpenBabel11021811403D
libRbt.so/2013.1/901 2013/11/27
 40 42  0  0  0  0  0  0  0  0999 V2000
    9.9796   33.3169   -1.1207 C   0  0  0  0  0  0  0  0  0  0  0  0
   10.7403   32.5106   -1.7543 N   0  0  0  0  0  0  0  0  0  0  0  0
   -0.5598   34.2925   -4.3688 C   0  0  0  0  0  0  0  0  0  0  0  0
   -1.6922   33.4394   -4.3833 O   0  0  0  0  0  0  0  0  0  0  0  0
    4.4159   36.0323    0.0824 C   0  0  0  0  0  0  0  0  0  0  0  0
    5.1943   36.3015    1.0692 N   0  0  0  0  0  0  0  0  0  0  0  0
    0.1302   31.5313   -2.7941 C   0  0  0  0  0  0  0  0  0  0  0  0
   -2.1446   36.0850   -0.2360 C   0  0  0  0  0  0  0  0  0  0  0  0
    7.6611   33.5240   -1.5047 C   0  0  2  0  0  0  0  0  0  0  0  0
    8.7988   32.8381   -0.7793 N   0  0  0  0  0  0  0  0  0  0  0  0
    2.5812   34.0301   -2.4715 C   0  0  2  0  0  0  0  0  0  0  0  0
    0.0679   36.6362   -2.5784 C   0  0  1  0  0  0  0  0  0  0  0  0
    1.2111   35.9003   -2.1841 O   0  0  0  0  0  0  0  0  0  0  0  0
    6.5273   33.8656   -0.5441 C   0  0  1  0  0  0  0  0  0  0  0  0
    7.1585   34.7297    0.4983 O   0  0  0  0  0  0  0  0  0  0  0  0
    1.4840   34.9006   -3.0565 C   0  0  2  0  0  0  0  0  0  0  0  0
   -0.4256   37.4340   -1.3959 C   0  0  1  0  0  0  0  0  0  0  0  0
   -0.7927   36.5555   -0.3419 N   0  0  0  0  0  0  0  0  0  0  0  0
    5.3406   34.5334   -1.2359 C   0  0  2  0  0  0  0  0  0  0  0  0
    4.2359   34.8837   -0.3673 N   0  0  0  0  0  0  0  0  0  0  0  0
    0.3283   33.9457   -3.1968 C   0  0  1  0  0  0  0  0  0  0  0  0
   -0.4388   33.9256   -1.9884 O   0  0  0  0  0  0  0  0  0  0  0  0
    0.7046   38.3410   -0.9391 C   0  0  2  0  0  0  0  0  0  0  0  0
    0.2984   39.1054    0.1751 O   0  0  0  0  0  0  0  0  0  0  0  0
    4.8338   33.5951   -2.3003 C   0  0  1  0  0  0  0  0  0  0  0  0
    3.8440   34.3662   -3.0365 O   0  0  0  0  0  0  0  0  0  0  0  0
    0.9699   32.6236   -3.4042 C   0  0  1  0  0  0  0  0  0  0  0  0
    2.2491   32.6718   -2.7683 O   0  0  0  0  0  0  0  0  0  0  0  0
    1.0459   39.2549   -2.1164 C   0  0  1  0  0  0  0  0  0  0  0  0
    2.1043   40.1338   -1.7683 O   0  0  0  0  0  0  0  0  0  0  0  0
    5.9651   33.2784   -3.3153 C   0  0  2  0  0  0  0  0  0  0  0  0
    5.4633   32.4058   -4.3158 O   0  0  0  0  0  0  0  0  0  0  0  0
    1.4537   38.3923   -3.3111 C   0  0  1  0  0  0  0  0  0  0  0  0
    0.3890   37.5088   -3.6590 O   0  0  0  0  0  0  0  0  0  0  0  0
    7.1354   32.5962   -2.5811 C   0  0  1  0  0  0  0  0  0  0  0  0
    8.1887   32.2969   -3.5049 O   0  0  0  0  0  0  0  0  0  0  0  0
    1.7641   39.3043   -4.4983 C   0  0  0  0  0  0  0  0  0  0  0  0
    1.7741   38.5323   -5.6884 O   0  0  0  0  0  0  0  0  0  0  0  0
   10.3267   34.5266   -0.8523 N   0  0  0  0  0  0  0  0  0  0  0  0
    3.7517   36.9459   -0.4381 N   0  0  0  0  0  0  0  0  0  0  0  0
  1  2  1  0  0  0  0
  1 39  1  0  0  0  0
  3  4  1  0  0  0  0
  5  6  1  0  0  0  0
  5 40  1  0  0  0  0
  9 10  1  1  0  0  0
  9 14  1  0  0  0  0
  9 35  1  0  0  0  0
 10  1  1  0  0  0  0
 11 16  1  0  0  0  0
 11 28  1  0  0  0  0
 11 26  1  6  0  0  0
 12 17  1  0  0  0  0
 12 34  1  0  0  0  0
 12 13  1  1  0  0  0
 14 15  1  1  0  0  0
 14 19  1  0  0  0  0
 16 13  1  1  0  0  0
 16 21  1  0  0  0  0
 17 18  1  1  0  0  0
 17 23  1  0  0  0  0
 18  8  1  0  0  0  0
 19 20  1  1  0  0  0
 19 25  1  0  0  0  0
 20  5  1  0  0  0  0
 21  3  1  6  0  0  0
 21 22  1  0  0  0  0
 21 27  1  0  0  0  0
 23 24  1  1  0  0  0
 23 29  1  0  0  0  0
 25 26  1  6  0  0  0
 25 31  1  0  0  0  0
 27  7  1  1  0  0  0
 27 28  1  0  0  0  0
 29 30  1  1  0  0  0
 29 33  1  0  0  0  0
 31 32  1  6  0  0  0
 31 35  1  0  0  0  0
 33 34  1  0  0  0  0
 33 37  1  6  0  0  0
 35 36  1  6  0  0  0
 37 38  1  0  0  0  0
M  END
>  <CHROM.1>
-135.01884353,-113.34995936,173.38607537,163.04629242,-171.56965082,-91.59517790
89.12062922,-80.14148790,-174.78515435,-95.79764857,-163.78110041,3.25242652
35.18773501,-2.09808907,-0.32381506,-0.24843156,0.38053053

>  <Name>
1ntb_lig

>  <RI>
0

>  <Rbt.Current_Directory>
/home/itssahil/PROJECTS/Mol_Feturizer/New_Systems/rnas/1ntb

>  <Rbt.Executable>
rbdock ($Id: //depot/dev/client3/rdock/2013.1/src/exe/rbdock.cxx#4 $)

>  <Rbt.Library>
libRbt.so (2013.1, Build901 2013/11/27)

>  <Rbt.Parameter_File>
/export/apps/rDock/src/rDock_2013.1_src/data/scripts/dock_solv.prm

>  <Rbt.Receptor>
prm/pocket_docking_6.prm

>  <SCORE>
-22.7293

>  <SCORE.INTER>
-12.1614

>  <SCORE.INTER.CONST>
1

>  <SCORE.INTER.POLAR>
-1.04967

>  <SCORE.INTER.ROT>
11

>  <SCORE.INTER.SOLV>
23.368

>  <SCORE.INTER.VDW>
-23.3314

>  <SCORE.INTER.norm>
-0.304035

>  <SCORE.INTRA>
-10.5679

>  <SCORE.INTRA.DIHEDRAL>
-4.2998

>  <SCORE.INTRA.DIHEDRAL.0>
15.4453

>  <SCORE.INTRA.POLAR>
0

>  <SCORE.INTRA.POLAR.0>
0

>  <SCORE.INTRA.REPUL>
-0.823958

>  <SCORE.INTRA.REPUL.0>
0.823958

>  <SCORE.INTRA.SOLV>
1.33182

>  <SCORE.INTRA.SOLV.lig_0>
-99.3069

>  <SCORE.INTRA.VDW>
-4.96412

>  <SCORE.INTRA.VDW.0>
0.946495

>  <SCORE.INTRA.norm>
-0.264197

>  <SCORE.RESTR>
0

>  <SCORE.RESTR.CAVITY>
0

>  <SCORE.RESTR.norm>
0

>  <SCORE.SYSTEM>
0

>  <SCORE.SYSTEM.CONST>
0

>  <SCORE.SYSTEM.DIHEDRAL>
0

>  <SCORE.SYSTEM.SOLV>
0

>  <SCORE.SYSTEM.norm>
0

>  <SCORE.heavy>
40

>  <SCORE.norm>
-0.568233

>  <RMSD>
1.184

$$$$
1ntb_lig
 OpenBabel11021811403D
libRbt.so/2013.1/901 2013/11/27
 40 42  0  0  0  0  0  0  0  0999 V2000
   10.0259   32.7263   -1.0039 C   0  0  0  0  0  0  0  0  0  0  0  0
   10.2547   32.7772   -2.2590 N   0  0  0  0  0  0  0  0  0  0  0  0
   -0.0771   34.6076   -4.8485 C   0  0  0  0  0  0  0  0  0  0  0  0
   -1.1774   33.7493   -5.0995 O   0  0  0  0  0  0  0  0  0  0  0  0
    4.9450   36.1438    0.3069 C   0  0  0  0  0  0  0  0  0  0  0  0
    4.9124   37.2732   -0.3057 N   0  0  0  0  0  0  0  0  0  0  0  0
    0.4172   31.7388   -3.3973 C   0  0  0  0  0  0  0  0  0  0  0  0
   -2.1791   36.0759   -0.8328 C   0  0  0  0  0  0  0  0  0  0  0  0
    7.7537   33.2420   -1.3742 C   0  0  2  0  0  0  0  0  0  0  0  0
    8.7934   32.4043   -0.6612 N   0  0  0  0  0  0  0  0  0  0  0  0
    2.7455   34.2220   -2.5207 C   0  0  2  0  0  0  0  0  0  0  0  0
    0.2225   36.8038   -2.8093 C   0  0  1  0  0  0  0  0  0  0  0  0
    1.3139   36.0555   -2.3063 O   0  0  0  0  0  0  0  0  0  0  0  0
    6.6911   33.7396   -0.4005 C   0  0  1  0  0  0  0  0  0  0  0  0
    7.4501   34.5078    0.6318 O   0  0  0  0  0  0  0  0  0  0  0  0
    1.7336   35.1273   -3.1991 C   0  0  2  0  0  0  0  0  0  0  0  0
   -0.3999   37.5762   -1.6714 C   0  0  1  0  0  0  0  0  0  0  0  0
   -0.8832   36.6752   -0.6855 N   0  0  0  0  0  0  0  0  0  0  0  0
    5.6008   34.5663   -1.0792 C   0  0  2  0  0  0  0  0  0  0  0  0
    4.5670   35.0684   -0.1978 N   0  0  0  0  0  0  0  0  0  0  0  0
    0.6299   34.1782   -3.5842 C   0  0  1  0  0  0  0  0  0  0  0  0
   -0.3104   34.0607   -2.5114 O   0  0  0  0  0  0  0  0  0  0  0  0
    0.6726   38.4690   -1.0704 C   0  0  2  0  0  0  0  0  0  0  0  0
    0.1447   39.2092    0.0085 O   0  0  0  0  0  0  0  0  0  0  0  0
    4.9543   33.7073   -2.1348 C   0  0  1  0  0  0  0  0  0  0  0  0
    4.0728   34.6086   -2.8606 O   0  0  0  0  0  0  0  0  0  0  0  0
    1.3193   32.8801   -3.7896 C   0  0  1  0  0  0  0  0  0  0  0  0
    2.4868   32.8881   -2.9649 O   0  0  0  0  0  0  0  0  0  0  0  0
    1.1442   39.4082   -2.1808 C   0  0  1  0  0  0  0  0  0  0  0  0
    2.1575   40.2757   -1.6965 O   0  0  0  0  0  0  0  0  0  0  0  0
    6.0172   33.2346   -3.1629 C   0  0  2  0  0  0  0  0  0  0  0  0
    5.3856   32.4400   -4.1548 O   0  0  0  0  0  0  0  0  0  0  0  0
    1.6828   38.5717   -3.3418 C   0  0  1  0  0  0  0  0  0  0  0  0
    0.6631   37.6997   -3.8268 O   0  0  0  0  0  0  0  0  0  0  0  0
    7.0899   32.3960   -2.4416 C   0  0  1  0  0  0  0  0  0  0  0  0
    8.0791   31.9515   -3.3777 O   0  0  0  0  0  0  0  0  0  0  0  0
    2.1247   39.5094   -4.4656 C   0  0  0  0  0  0  0  0  0  0  0  0
    3.2512   40.2555   -4.0336 O   0  0  0  0  0  0  0  0  0  0  0  0
   10.9277   32.9953   -0.1263 N   0  0  0  0  0  0  0  0  0  0  0  0
    5.4259   36.0841    1.4522 N   0  0  0  0  0  0  0  0  0  0  0  0
  1  2  1  0  0  0  0
  1 39  1  0  0  0  0
  3  4  1  0  0  0  0
  5  6  1  0  0  0  0
  5 40  1  0  0  0  0
  9 10  1  1  0  0  0
  9 14  1  0  0  0  0
  9 35  1  0  0  0  0
 10  1  1  0  0  0  0
 11 16  1  0  0  0  0
 11 28  1  0  0  0  0
 11 26  1  6  0  0  0
 12 17  1  0  0  0  0
 12 34  1  0  0  0  0
 12 13  1  1  0  0  0
 14 15  1  1  0  0  0
 14 19  1  0  0  0  0
 16 13  1  1  0  0  0
 16 21  1  0  0  0  0
 17 18  1  1  0  0  0
 17 23  1  0  0  0  0
 18  8  1  0  0  0  0
 19 20  1  1  0  0  0
 19 25  1  0  0  0  0
 20  5  1  0  0  0  0
 21  3  1  6  0  0  0
 21 22  1  0  0  0  0
 21 27  1  0  0  0  0
 23 24  1  1  0  0  0
 23 29  1  0  0  0  0
 25 26  1  6  0  0  0
 25 31  1  0  0  0  0
 27  7  1  1  0  0  0
 27 28  1  0  0  0  0
 29 30  1  1  0  0  0
 29 33  1  0  0  0  0
 31 32  1  6  0  0  0
 31 35  1  0  0  0  0
 33 34  1  0  0  0  0
 33 37  1  6  0  0  0
 35 36  1  6  0  0  0
 37 38  1  0  0  0  0
M  END
>  <CHROM.1>
-134.08675759,-50.60890521,178.48856822,166.71712225,-171.04702884,-83.75783278
85.31464303,78.91256044,-174.87383167,-109.92453083,67.22973847,3.46904243
35.26520097,-2.12197670,-0.37183077,-0.31917791,0.38212651

>  <Name>
1ntb_lig

>  <RI>
0

>  <Rbt.Current_Directory>
/home/itssahil/PROJECTS/Mol_Feturizer/New_Systems/rnas/1ntb

>  <Rbt.Executable>
rbdock ($Id: //depot/dev/client3/rdock/2013.1/src/exe/rbdock.cxx#4 $)

>  <Rbt.Library>
libRbt.so (2013.1, Build901 2013/11/27)

>  <Rbt.Parameter_File>
/export/apps/rDock/src/rDock_2013.1_src/data/scripts/dock_solv.prm

>  <Rbt.Receptor>
prm/pocket_docking_3.prm

>  <SCORE>
-19.4973

>  <SCORE.INTER>
-9.61432

>  <SCORE.INTER.CONST>
1

>  <SCORE.INTER.POLAR>
-0.503366

>  <SCORE.INTER.ROT>
11

>  <SCORE.INTER.SOLV>
26.9497

>  <SCORE.INTER.VDW>
-24.6482

>  <SCORE.INTER.norm>
-0.240358

>  <SCORE.INTRA>
-9.88301

>  <SCORE.INTRA.DIHEDRAL>
-3.62062

>  <SCORE.INTRA.DIHEDRAL.0>
15.4453

>  <SCORE.INTRA.POLAR>
0

>  <SCORE.INTRA.POLAR.0>
0

>  <SCORE.INTRA.REPUL>
-0.810959

>  <SCORE.INTRA.REPUL.0>
0.823958

>  <SCORE.INTRA.SOLV>
-1.70091

>  <SCORE.INTRA.SOLV.lig_0>
-99.3069

>  <SCORE.INTRA.VDW>
-3.16745

>  <SCORE.INTRA.VDW.0>
0.946495

>  <SCORE.INTRA.norm>
-0.247075

>  <SCORE.RESTR>
0

>  <SCORE.RESTR.CAVITY>
0

>  <SCORE.RESTR.norm>
0

>  <SCORE.SYSTEM>
0

>  <SCORE.SYSTEM.CONST>
0

>  <SCORE.SYSTEM.DIHEDRAL>
0

>  <SCORE.SYSTEM.SOLV>
0

>  <SCORE.SYSTEM.norm>
0

>  <SCORE.heavy>
40

>  <SCORE.norm>
-0.487433

>  <RMSD>
1.190

$$$$
1ntb_lig
 OpenBabel11021811403D
libRbt.so/2013.1/901 2013/11/27
 40 42  0  0  0  0  0  0  0  0999 V2000
    9.9544   33.1409   -1.3451 C   0  0  0  0  0  0  0  0  0  0  0  0
   10.3429   34.3401   -1.1417 N   0  0  0  0  0  0  0  0  0  0  0  0
   -0.6518   34.8010   -3.8314 C   0  0  0  0  0  0  0  0  0  0  0  0
    0.0916   35.7509   -4.5766 O   0  0  0  0  0  0  0  0  0  0  0  0
    5.0648   36.4267    0.6079 C   0  0  0  0  0  0  0  0  0  0  0  0
    5.7446   36.5634    1.6901 N   0  0  0  0  0  0  0  0  0  0  0  0
    0.5436   31.8292   -4.3962 C   0  0  0  0  0  0  0  0  0  0  0  0
   -2.6233   34.0511    0.2365 C   0  0  0  0  0  0  0  0  0  0  0  0
    7.6256   33.5183   -1.3485 C   0  0  2  0  0  0  0  0  0  0  0  0
    8.8218   32.8011   -0.7604 N   0  0  0  0  0  0  0  0  0  0  0  0
    2.4901   33.7790   -2.2134 C   0  0  2  0  0  0  0  0  0  0  0  0
   -0.2240   35.7320   -0.8254 C   0  0  1  0  0  0  0  0  0  0  0  0
    0.7982   34.7587   -0.9349 O   0  0  0  0  0  0  0  0  0  0  0  0
    6.7285   34.0769   -0.2494 C   0  0  1  0  0  0  0  0  0  0  0  0
    7.6158   34.9789    0.5449 O   0  0  0  0  0  0  0  0  0  0  0  0
    1.2485   34.6520   -2.2079 C   0  0  2  0  0  0  0  0  0  0  0  0
   -0.7929   35.6811    0.5719 C   0  0  1  0  0  0  0  0  0  0  0  0
   -1.3573   34.4007    0.8155 N   0  0  0  0  0  0  0  0  0  0  0  0
    5.4894   34.7849   -0.7935 C   0  0  2  0  0  0  0  0  0  0  0  0
    4.6037   35.3391    0.2096 N   0  0  0  0  0  0  0  0  0  0  0  0
    0.2894   33.8876   -3.0813 C   0  0  1  0  0  0  0  0  0  0  0  0
   -0.4564   32.9564   -2.2903 O   0  0  0  0  0  0  0  0  0  0  0  0
    0.3425   35.9368    1.5487 C   0  0  2  0  0  0  0  0  0  0  0  0
   -0.1344   35.8903    2.8758 O   0  0  0  0  0  0  0  0  0  0  0  0
    4.7135   33.7944   -1.6224 C   0  0  1  0  0  0  0  0  0  0  0  0
    3.6668   34.5793   -2.2584 O   0  0  0  0  0  0  0  0  0  0  0  0
    1.1640   33.1520   -4.0280 C   0  0  1  0  0  0  0  0  0  0  0  0
    2.4145   32.9405   -3.3686 O   0  0  0  0  0  0  0  0  0  0  0  0
    0.8995   37.3247    1.2310 C   0  0  1  0  0  0  0  0  0  0  0  0
    1.9749   37.6364    2.1028 O   0  0  0  0  0  0  0  0  0  0  0  0
    5.5997   33.2547   -2.7772 C   0  0  2  0  0  0  0  0  0  0  0  0
    4.8463   32.3356   -3.5529 O   0  0  0  0  0  0  0  0  0  0  0  0
    1.3799   37.3454   -0.2204 C   0  0  1  0  0  0  0  0  0  0  0  0
    0.2978   37.0309   -1.0953 O   0  0  0  0  0  0  0  0  0  0  0  0
    6.8298   32.5388   -2.1870 C   0  0  1  0  0  0  0  0  0  0  0  0
    7.6586   32.0342   -3.2410 O   0  0  0  0  0  0  0  0  0  0  0  0
    1.9074   38.7424   -0.5484 C   0  0  0  0  0  0  0  0  0  0  0  0
    2.6218   38.6947   -1.7730 O   0  0  0  0  0  0  0  0  0  0  0  0
   10.6321   32.3063   -2.0521 N   0  0  0  0  0  0  0  0  0  0  0  0
    4.7921   37.4312   -0.0728 N   0  0  0  0  0  0  0  0  0  0  0  0
  1  2  1  0  0  0  0
  1 39  1  0  0  0  0
  3  4  1  0  0  0  0
  5  6  1  0  0  0  0
  5 40  1  0  0  0  0
  9 10  1  1  0  0  0
  9 14  1  0  0  0  0
  9 35  1  0  0  0  0
 10  1  1  0  0  0  0
 11 16  1  0  0  0  0
 11 28  1  0  0  0  0
 11 26  1  6  0  0  0
 12 17  1  0  0  0  0
 12 34  1  0  0  0  0
 12 13  1  1  0  0  0
 14 15  1  6  0  0  0
 14 19  1  0  0  0  0
 16 13  1  1  0  0  0
 16 21  1  0  0  0  0
 17 18  1  1  0  0  0
 17 23  1  0  0  0  0
 18  8  1  0  0  0  0
 19 20  1  1  0  0  0
 19 25  1  0  0  0  0
 20  5  1  0  0  0  0
 21  3  1  6  0  0  0
 21 22  1  0  0  0  0
 21 27  1  0  0  0  0
 23 24  1  1  0  0  0
 23 29  1  0  0  0  0
 25 26  1  6  0  0  0
 25 31  1  0  0  0  0
 27  7  1  1  0  0  0
 27 28  1  0  0  0  0
 29 30  1  1  0  0  0
 29 33  1  0  0  0  0
 31 32  1  1  0  0  0
 31 35  1  0  0  0  0
 33 34  1  0  0  0  0
 33 37  1  6  0  0  0
 35 36  1  6  0  0  0
 37 38  1  0  0  0  0
M  END
>  <CHROM.1>
-133.43557855,68.21783778,152.78816043,173.19756292,170.37068442,-75.59712298
79.89596035,-98.58308017,55.16953309,-139.54388244,167.04741884,3.27950455
34.78721180,-1.17311772,-0.21737239,-0.12432103,0.84483309

>  <Name>
1ntb_lig

>  <RI>
0

>  <Rbt.Current_Directory>
/home/itssahil/PROJECTS/Mol_Feturizer/New_Systems/rnas/1ntb

>  <Rbt.Executable>
rbdock ($Id: //depot/dev/client3/rdock/2013.1/src/exe/rbdock.cxx#4 $)

>  <Rbt.Library>
libRbt.so (2013.1, Build901 2013/11/27)

>  <Rbt.Parameter_File>
/export/apps/rDock/src/rDock_2013.1_src/data/scripts/dock_solv.prm

>  <Rbt.Receptor>
prm/pocket_docking_3.prm

>  <SCORE>
-23.0726

>  <SCORE.INTER>
-11.9895

>  <SCORE.INTER.CONST>
1

>  <SCORE.INTER.POLAR>
-2.0875

>  <SCORE.INTER.ROT>
11

>  <SCORE.INTER.SOLV>
23.9057

>  <SCORE.INTER.VDW>
-19.9366

>  <SCORE.INTER.norm>
-0.299738

>  <SCORE.INTRA>
-11.0831

>  <SCORE.INTRA.DIHEDRAL>
-2.65155

>  <SCORE.INTRA.DIHEDRAL.0>
15.4453

>  <SCORE.INTRA.POLAR>
0

>  <SCORE.INTRA.POLAR.0>
0

>  <SCORE.INTRA.REPUL>
-0.823958

>  <SCORE.INTRA.REPUL.0>
0.823958

>  <SCORE.INTRA.SOLV>
1.64734

>  <SCORE.INTRA.SOLV.lig_0>
-99.3069

>  <SCORE.INTRA.VDW>
-6.46122

>  <SCORE.INTRA.VDW.0>
0.946495

>  <SCORE.INTRA.norm>
-0.277078

>  <SCORE.RESTR>
0

>  <SCORE.RESTR.CAVITY>
0

>  <SCORE.RESTR.norm>
0

>  <SCORE.SYSTEM>
0

>  <SCORE.SYSTEM.CONST>
0

>  <SCORE.SYSTEM.DIHEDRAL>
0

>  <SCORE.SYSTEM.SOLV>
0

>  <SCORE.SYSTEM.norm>
0

>  <SCORE.heavy>
40

>  <SCORE.norm>
-0.576815

>  <RMSD>
1.204

$$$$
1ntb_lig
 OpenBabel11021811403D
libRbt.so/2013.1/901 2013/11/27
 40 42  0  0  0  0  0  0  0  0999 V2000
    9.9740   33.1687   -1.1307 C   0  0  0  0  0  0  0  0  0  0  0  0
   10.7194   32.2866   -1.6754 N   0  0  0  0  0  0  0  0  0  0  0  0
   -0.4587   34.2499   -4.5649 C   0  0  0  0  0  0  0  0  0  0  0  0
   -1.5111   33.3065   -4.6771 O   0  0  0  0  0  0  0  0  0  0  0  0
    4.5520   35.9959    0.2122 C   0  0  0  0  0  0  0  0  0  0  0  0
    4.4953   37.1494   -0.3518 N   0  0  0  0  0  0  0  0  0  0  0  0
    0.2102   31.5270   -2.9161 C   0  0  0  0  0  0  0  0  0  0  0  0
   -2.1615   36.9352    0.0424 C   0  0  0  0  0  0  0  0  0  0  0  0
    7.6625   33.4750   -1.4898 C   0  0  2  0  0  0  0  0  0  0  0  0
    8.7770   32.7550   -0.7615 N   0  0  0  0  0  0  0  0  0  0  0  0
    2.5971   34.0774   -2.5235 C   0  0  2  0  0  0  0  0  0  0  0  0
    0.0774   36.6671   -2.8141 C   0  0  1  0  0  0  0  0  0  0  0  0
    1.1808   35.9249   -2.3286 O   0  0  0  0  0  0  0  0  0  0  0  0
    6.5342   33.8450   -0.5333 C   0  0  1  0  0  0  0  0  0  0  0  0
    7.1844   34.6875    0.5151 O   0  0  0  0  0  0  0  0  0  0  0  0
    1.5116   34.9175   -3.1715 C   0  0  2  0  0  0  0  0  0  0  0  0
   -0.4817   37.4977   -1.6844 C   0  0  1  0  0  0  0  0  0  0  0  0
   -0.9311   36.6480   -0.6388 N   0  0  0  0  0  0  0  0  0  0  0  0
    5.3700   34.5482   -1.2282 C   0  0  2  0  0  0  0  0  0  0  0  0
    4.2714   34.9263   -0.3635 N   0  0  0  0  0  0  0  0  0  0  0  0
    0.3815   33.9384   -3.3484 C   0  0  1  0  0  0  0  0  0  0  0  0
   -0.4393   33.9219   -2.1757 O   0  0  0  0  0  0  0  0  0  0  0  0
    0.6290   38.3994   -1.1726 C   0  0  2  0  0  0  0  0  0  0  0  0
    0.1610   39.1937   -0.1046 O   0  0  0  0  0  0  0  0  0  0  0  0
    4.8421   33.6281   -2.2982 C   0  0  1  0  0  0  0  0  0  0  0  0
    3.8778   34.4291   -3.0363 O   0  0  0  0  0  0  0  0  0  0  0  0
    1.0563   32.6259   -3.5052 C   0  0  1  0  0  0  0  0  0  0  0  0
    2.3042   32.7085   -2.8131 O   0  0  0  0  0  0  0  0  0  0  0  0
    1.0615   39.2821   -2.3436 C   0  0  1  0  0  0  0  0  0  0  0  0
    2.1074   40.1542   -1.9445 O   0  0  0  0  0  0  0  0  0  0  0  0
    5.9688   33.2832   -3.3091 C   0  0  2  0  0  0  0  0  0  0  0  0
    5.4475   32.4285   -4.3149 O   0  0  0  0  0  0  0  0  0  0  0  0
    1.5350   38.3877   -3.4898 C   0  0  1  0  0  0  0  0  0  0  0  0
    0.4827   37.5111   -3.8891 O   0  0  0  0  0  0  0  0  0  0  0  0
    7.1161   32.5659   -2.5718 C   0  0  1  0  0  0  0  0  0  0  0  0
    8.1649   32.2403   -3.4918 O   0  0  0  0  0  0  0  0  0  0  0  0
    1.9372   39.2688   -4.6728 C   0  0  0  0  0  0  0  0  0  0  0  0
    0.8215   40.0478   -5.0736 O   0  0  0  0  0  0  0  0  0  0  0  0
   10.3507   34.3889   -0.9729 N   0  0  0  0  0  0  0  0  0  0  0  0
    4.9579   35.9088    1.3845 N   0  0  0  0  0  0  0  0  0  0  0  0
  1  2  1  0  0  0  0
  1 39  1  0  0  0  0
  3  4  1  0  0  0  0
  5  6  1  0  0  0  0
  5 40  1  0  0  0  0
  9 10  1  1  0  0  0
  9 14  1  0  0  0  0
  9 35  1  0  0  0  0
 10  1  1  0  0  0  0
 11 16  1  0  0  0  0
 11 28  1  0  0  0  0
 11 26  1  6  0  0  0
 12 17  1  0  0  0  0
 12 34  1  0  0  0  0
 12 13  1  1  0  0  0
 14 15  1  1  0  0  0
 14 19  1  0  0  0  0
 16 13  1  1  0  0  0
 16 21  1  0  0  0  0
 17 18  1  1  0  0  0
 17 23  1  0  0  0  0
 18  8  1  0  0  0  0
 19 20  1  1  0  0  0
 19 25  1  0  0  0  0
 20  5  1  0  0  0  0
 21  3  1  6  0  0  0
 21 22  1  0  0  0  0
 21 27  1  0  0  0  0
 23 24  1  1  0  0  0
 23 29  1  0  0  0  0
 25 26  1  6  0  0  0
 25 31  1  0  0  0  0
 27  7  1  1  0  0  0
 27 28  1  0  0  0  0
 29 30  1  1  0  0  0
 29 33  1  0  0  0  0
 31 32  1  6  0  0  0
 31 35  1  0  0  0  0
 33 34  1  0  0  0  0
 33 37  1  6  0  0  0
 35 36  1  6  0  0  0
 37 38  1  0  0  0  0
M  END
>  <CHROM.1>
-137.28335341,-117.70674905,176.73342202,164.17265619,-174.01719841,-138.83263765
81.44373278,76.90939876,-179.53304268,-98.61303520,-59.05458453,3.25596248
35.23925454,-2.15309643,-0.36379445,-0.27867526,0.35623502

>  <Name>
1ntb_lig

>  <RI>
0

>  <Rbt.Current_Directory>
/home/itssahil/PROJECTS/Mol_Feturizer/New_Systems/rnas/1ntb

>  <Rbt.Executable>
rbdock ($Id: //depot/dev/client3/rdock/2013.1/src/exe/rbdock.cxx#4 $)

>  <Rbt.Library>
libRbt.so (2013.1, Build901 2013/11/27)

>  <Rbt.Parameter_File>
/export/apps/rDock/src/rDock_2013.1_src/data/scripts/dock_solv.prm

>  <Rbt.Receptor>
prm/pocket_docking_3.prm

>  <SCORE>
-23.0233

>  <SCORE.INTER>
-11.554

>  <SCORE.INTER.CONST>
1

>  <SCORE.INTER.POLAR>
-1.00787

>  <SCORE.INTER.ROT>
11

>  <SCORE.INTER.SOLV>
24.3891

>  <SCORE.INTER.VDW>
-23.4061

>  <SCORE.INTER.norm>
-0.288849

>  <SCORE.INTRA>
-11.4693

>  <SCORE.INTRA.DIHEDRAL>
-5.34278

>  <SCORE.INTRA.DIHEDRAL.0>
15.4453

>  <SCORE.INTRA.POLAR>
0

>  <SCORE.INTRA.POLAR.0>
0

>  <SCORE.INTRA.REPUL>
-0.818475

>  <SCORE.INTRA.REPUL.0>
0.823958

>  <SCORE.INTRA.SOLV>
-0.878914

>  <SCORE.INTRA.SOLV.lig_0>
-99.3069

>  <SCORE.INTRA.VDW>
-4.26611

>  <SCORE.INTRA.VDW.0>
0.946495

>  <SCORE.INTRA.norm>
-0.286733

>  <SCORE.RESTR>
0

>  <SCORE.RESTR.CAVITY>
0

>  <SCORE.RESTR.norm>
0

>  <SCORE.SYSTEM>
0

>  <SCORE.SYSTEM.CONST>
0

>  <SCORE.SYSTEM.DIHEDRAL>
0

>  <SCORE.SYSTEM.SOLV>
0

>  <SCORE.SYSTEM.norm>
0

>  <SCORE.heavy>
40

>  <SCORE.norm>
-0.575583

>  <RMSD>
1.207

$$$$
1ntb_lig
 OpenBabel11021811403D
libRbt.so/2013.1/901 2013/11/27
 40 42  0  0  0  0  0  0  0  0999 V2000
    9.8801   33.3583   -1.2331 C   0  0  0  0  0  0  0  0  0  0  0  0
   10.3010   34.5164   -0.8988 N   0  0  0  0  0  0  0  0  0  0  0  0
   -0.6563   34.1615   -4.4489 C   0  0  0  0  0  0  0  0  0  0  0  0
   -1.7454   33.2544   -4.4866 O   0  0  0  0  0  0  0  0  0  0  0  0
    4.2002   36.1100   -0.0142 C   0  0  0  0  0  0  0  0  0  0  0  0
    4.9900   36.4666    0.9351 N   0  0  0  0  0  0  0  0  0  0  0  0
    0.0915   31.4349   -2.8406 C   0  0  0  0  0  0  0  0  0  0  0  0
   -2.2891   36.1318   -0.4387 C   0  0  0  0  0  0  0  0  0  0  0  0
    7.5544   33.6572   -1.4931 C   0  0  2  0  0  0  0  0  0  0  0  0
    8.7034   33.0160   -0.7449 N   0  0  0  0  0  0  0  0  0  0  0  0
    2.4728   34.0006   -2.5207 C   0  0  2  0  0  0  0  0  0  0  0  0
   -0.0632   36.5845   -2.7144 C   0  0  1  0  0  0  0  0  0  0  0  0
    1.0513   35.8366   -2.2643 O   0  0  0  0  0  0  0  0  0  0  0  0
    6.4009   33.9810   -0.5499 C   0  0  1  0  0  0  0  0  0  0  0  0
    6.9958   34.8794    0.4849 O   0  0  0  0  0  0  0  0  0  0  0  0
    1.3585   34.8361   -3.1242 C   0  0  2  0  0  0  0  0  0  0  0  0
   -0.5457   37.4614   -1.5844 C   0  0  1  0  0  0  0  0  0  0  0  0
   -0.9532   36.6543   -0.4890 N   0  0  0  0  0  0  0  0  0  0  0  0
    5.2031   34.6032   -1.2646 C   0  0  2  0  0  0  0  0  0  0  0  0
    4.0795   34.9351   -0.4132 N   0  0  0  0  0  0  0  0  0  0  0  0
    0.2297   33.8497   -3.2654 C   0  0  1  0  0  0  0  0  0  0  0  0
   -0.5478   33.8210   -2.0639 O   0  0  0  0  0  0  0  0  0  0  0  0
    0.6069   38.3570   -1.1625 C   0  0  2  0  0  0  0  0  0  0  0  0
    0.2115   39.1939   -0.0977 O   0  0  0  0  0  0  0  0  0  0  0  0
    4.7350   33.6340   -2.3189 C   0  0  1  0  0  0  0  0  0  0  0  0
    3.7315   34.3644   -3.0777 O   0  0  0  0  0  0  0  0  0  0  0  0
    0.9077   32.5431   -3.4539 C   0  0  1  0  0  0  0  0  0  0  0  0
    2.1794   32.6312   -2.8070 O   0  0  0  0  0  0  0  0  0  0  0  0
    0.9913   39.1933   -2.3832 C   0  0  1  0  0  0  0  0  0  0  0  0
    2.0726   40.0571   -2.0692 O   0  0  0  0  0  0  0  0  0  0  0  0
    5.8858   33.3341   -3.3169 C   0  0  2  0  0  0  0  0  0  0  0  0
    5.4201   32.4317   -4.3083 O   0  0  0  0  0  0  0  0  0  0  0  0
    1.3863   38.2538   -3.5230 C   0  0  1  0  0  0  0  0  0  0  0  0
    0.2985   37.3857   -3.8367 O   0  0  0  0  0  0  0  0  0  0  0  0
    7.0673   32.6976   -2.5597 C   0  0  1  0  0  0  0  0  0  0  0  0
    8.1386   32.4143   -3.4676 O   0  0  0  0  0  0  0  0  0  0  0  0
    1.7398   39.0887   -4.7540 C   0  0  0  0  0  0  0  0  0  0  0  0
    0.6627   39.9640   -5.0479 O   0  0  0  0  0  0  0  0  0  0  0  0
   10.5658   32.5625   -1.9763 N   0  0  0  0  0  0  0  0  0  0  0  0
    3.4638   36.9588   -0.5469 N   0  0  0  0  0  0  0  0  0  0  0  0
  1  2  1  0  0  0  0
  1 39  1  0  0  0  0
  3  4  1  0  0  0  0
  5  6  1  0  0  0  0
  5 40  1  0  0  0  0
  9 10  1  1  0  0  0
  9 14  1  0  0  0  0
  9 35  1  0  0  0  0
 10  1  1  0  0  0  0
 11 16  1  0  0  0  0
 11 28  1  0  0  0  0
 11 26  1  6  0  0  0
 12 17  1  0  0  0  0
 12 34  1  0  0  0  0
 12 13  1  1  0  0  0
 14 15  1  1  0  0  0
 14 19  1  0  0  0  0
 16 13  1  1  0  0  0
 16 21  1  0  0  0  0
 17 18  1  1  0  0  0
 17 23  1  0  0  0  0
 18  8  1  0  0  0  0
 19 20  1  1  0  0  0
 19 25  1  0  0  0  0
 20  5  1  0  0  0  0
 21  3  1  6  0  0  0
 21 22  1  0  0  0  0
 21 27  1  0  0  0  0
 23 24  1  1  0  0  0
 23 29  1  0  0  0  0
 25 26  1  6  0  0  0
 25 31  1  0  0  0  0
 27  7  1  1  0  0  0
 27 28  1  0  0  0  0
 29 30  1  1  0  0  0
 29 33  1  0  0  0  0
 31 32  1  6  0  0  0
 31 35  1  0  0  0  0
 33 34  1  0  0  0  0
 33 37  1  6  0  0  0
 35 36  1  6  0  0  0
 37 38  1  0  0  0  0
M  END
>  <CHROM.1>
-145.56954790,78.15644522,173.00471707,167.17186655,-174.80612395,-85.95070077
91.19467706,-78.04396045,-176.43155600,-95.81965283,-53.83527376,3.11783073
35.22934415,-2.17532260,-0.34111920,-0.23804322,0.30691470

>  <Name>
1ntb_lig

>  <RI>
0

>  <Rbt.Current_Directory>
/home/itssahil/PROJECTS/Mol_Feturizer/New_Systems/rnas/1ntb

>  <Rbt.Executable>
rbdock ($Id: //depot/dev/client3/rdock/2013.1/src/exe/rbdock.cxx#4 $)

>  <Rbt.Library>
libRbt.so (2013.1, Build901 2013/11/27)

>  <Rbt.Parameter_File>
/export/apps/rDock/src/rDock_2013.1_src/data/scripts/dock_solv.prm

>  <Rbt.Receptor>
prm/pocket_docking_3.prm

>  <SCORE>
-23.2225

>  <SCORE.INTER>
-12.3152

>  <SCORE.INTER.CONST>
1

>  <SCORE.INTER.POLAR>
-1.07745

>  <SCORE.INTER.ROT>
11

>  <SCORE.INTER.SOLV>
21.5282

>  <SCORE.INTER.VDW>
-22.728

>  <SCORE.INTER.norm>
-0.30788

>  <SCORE.INTRA>
-10.9073

>  <SCORE.INTRA.DIHEDRAL>
-5.92972

>  <SCORE.INTRA.DIHEDRAL.0>
15.4453

>  <SCORE.INTRA.POLAR>
0

>  <SCORE.INTRA.POLAR.0>
0

>  <SCORE.INTRA.REPUL>
-0.821844

>  <SCORE.INTRA.REPUL.0>
0.823958

>  <SCORE.INTRA.SOLV>
2.33289

>  <SCORE.INTRA.SOLV.lig_0>
-99.3069

>  <SCORE.INTRA.VDW>
-4.99968

>  <SCORE.INTRA.VDW.0>
0.946495

>  <SCORE.INTRA.norm>
-0.272683

>  <SCORE.RESTR>
0

>  <SCORE.RESTR.CAVITY>
0

>  <SCORE.RESTR.norm>
0

>  <SCORE.SYSTEM>
0

>  <SCORE.SYSTEM.CONST>
0

>  <SCORE.SYSTEM.DIHEDRAL>
0

>  <SCORE.SYSTEM.SOLV>
0

>  <SCORE.SYSTEM.norm>
0

>  <SCORE.heavy>
40

>  <SCORE.norm>
-0.580563

>  <RMSD>
1.208

$$$$
1ntb_lig
 OpenBabel11021811403D
libRbt.so/2013.1/901 2013/11/27
 40 42  0  0  0  0  0  0  0  0999 V2000
    9.8116   33.3438   -1.0769 C   0  0  0  0  0  0  0  0  0  0  0  0
   10.4603   32.4593   -1.7304 N   0  0  0  0  0  0  0  0  0  0  0  0
   -0.6778   34.0016   -4.4839 C   0  0  0  0  0  0  0  0  0  0  0  0
   -1.7842   33.1150   -4.4713 O   0  0  0  0  0  0  0  0  0  0  0  0
    3.9295   36.0233   -0.1871 C   0  0  0  0  0  0  0  0  0  0  0  0
    3.1941   36.8563   -0.8332 N   0  0  0  0  0  0  0  0  0  0  0  0
    0.0493   31.3517   -2.7434 C   0  0  0  0  0  0  0  0  0  0  0  0
   -2.4170   36.0697   -0.5306 C   0  0  0  0  0  0  0  0  0  0  0  0
    7.4895   33.5982   -1.4069 C   0  0  2  0  0  0  0  0  0  0  0  0
    8.6275   32.9701   -0.6315 N   0  0  0  0  0  0  0  0  0  0  0  0
    2.4395   33.9203   -2.5320 C   0  0  2  0  0  0  0  0  0  0  0  0
   -0.1074   36.4795   -2.8430 C   0  0  1  0  0  0  0  0  0  0  0  0
    1.0245   35.7720   -2.3715 O   0  0  0  0  0  0  0  0  0  0  0  0
    6.3023   33.8897   -0.4955 C   0  0  1  0  0  0  0  0  0  0  0  0
    6.8488   34.7871    0.5665 O   0  0  0  0  0  0  0  0  0  0  0  0
    1.3323   34.7305   -3.1811 C   0  0  2  0  0  0  0  0  0  0  0  0
   -0.6500   37.3286   -1.7191 C   0  0  1  0  0  0  0  0  0  0  0  0
   -1.0514   36.4983   -0.6390 N   0  0  0  0  0  0  0  0  0  0  0  0
    5.1149   34.4976   -1.2391 C   0  0  2  0  0  0  0  0  0  0  0  0
    3.9601   34.7988   -0.4184 N   0  0  0  0  0  0  0  0  0  0  0  0
    0.2001   33.7430   -3.2818 C   0  0  1  0  0  0  0  0  0  0  0  0
   -0.5843   33.7746   -2.0848 O   0  0  0  0  0  0  0  0  0  0  0  0
    0.4567   38.2651   -1.2641 C   0  0  2  0  0  0  0  0  0  0  0  0
    0.0041   39.0781   -0.2036 O   0  0  0  0  0  0  0  0  0  0  0  0
    4.6970   33.5320   -2.3175 C   0  0  1  0  0  0  0  0  0  0  0  0
    3.7029   34.2522   -3.0982 O   0  0  0  0  0  0  0  0  0  0  0  0
    0.8737   32.4262   -3.4039 C   0  0  1  0  0  0  0  0  0  0  0  0
    2.1419   32.5400   -2.7545 O   0  0  0  0  0  0  0  0  0  0  0  0
    0.8368   39.1247   -2.4699 C   0  0  1  0  0  0  0  0  0  0  0  0
    1.8760   40.0273   -2.1247 O   0  0  0  0  0  0  0  0  0  0  0  0
    5.8826   33.2650   -3.2836 C   0  0  2  0  0  0  0  0  0  0  0  0
    5.4640   32.3655   -4.2983 O   0  0  0  0  0  0  0  0  0  0  0  0
    1.2946   38.2097   -3.6061 C   0  0  1  0  0  0  0  0  0  0  0  0
    0.2490   37.3025   -3.9512 O   0  0  0  0  0  0  0  0  0  0  0  0
    7.0527   32.6420   -2.4981 C   0  0  1  0  0  0  0  0  0  0  0  0
    8.1559   32.3891   -3.3764 O   0  0  0  0  0  0  0  0  0  0  0  0
    1.6442   39.0668   -4.8230 C   0  0  0  0  0  0  0  0  0  0  0  0
    2.7899   39.8494   -4.5276 O   0  0  0  0  0  0  0  0  0  0  0  0
   10.2669   34.5318   -0.8843 N   0  0  0  0  0  0  0  0  0  0  0  0
    4.7039   36.4452    0.6897 N   0  0  0  0  0  0  0  0  0  0  0  0
  1  2  1  0  0  0  0
  1 39  1  0  0  0  0
  3  4  1  0  0  0  0
  5  6  1  0  0  0  0
  5 40  1  0  0  0  0
  9 10  1  1  0  0  0
  9 14  1  0  0  0  0
  9 35  1  0  0  0  0
 10  1  1  0  0  0  0
 11 16  1  0  0  0  0
 11 28  1  0  0  0  0
 11 26  1  6  0  0  0
 12 17  1  0  0  0  0
 12 34  1  0  0  0  0
 12 13  1  1  0  0  0
 14 15  1  1  0  0  0
 14 19  1  0  0  0  0
 16 13  1  1  0  0  0
 16 21  1  0  0  0  0
 17 18  1  1  0  0  0
 17 23  1  0  0  0  0
 18  8  1  0  0  0  0
 19 20  1  1  0  0  0
 19 25  1  0  0  0  0
 20  5  1  0  0  0  0
 21  3  1  6  0  0  0
 21 22  1  0  0  0  0
 21 27  1  0  0  0  0
 23 24  1  1  0  0  0
 23 29  1  0  0  0  0
 25 26  1  6  0  0  0
 25 31  1  0  0  0  0
 27  7  1  1  0  0  0
 27 28  1  0  0  0  0
 29 30  1  1  0  0  0
 29 33  1  0  0  0  0
 31 32  1  6  0  0  0
 31 35  1  0  0  0  0
 33 34  1  0  0  0  0
 33 37  1  6  0  0  0
 35 36  1  6  0  0  0
 37 38  1  0  0  0  0
M  END
>  <CHROM.1>
-145.32187053,-106.83912836,174.19443932,162.75725503,-173.14995725,-94.25769262
102.12764022,99.00328762,-175.32944617,-92.45091216,66.97380862,3.09597361
35.14717830,-2.18308693,-0.34323783,-0.21255890,0.24387692

>  <Name>
1ntb_lig

>  <RI>
0

>  <Rbt.Current_Directory>
/home/itssahil/PROJECTS/Mol_Feturizer/New_Systems/rnas/1ntb

>  <Rbt.Executable>
rbdock ($Id: //depot/dev/client3/rdock/2013.1/src/exe/rbdock.cxx#4 $)

>  <Rbt.Library>
libRbt.so (2013.1, Build901 2013/11/27)

>  <Rbt.Parameter_File>
/export/apps/rDock/src/rDock_2013.1_src/data/scripts/dock_solv.prm

>  <Rbt.Receptor>
prm/pocket_docking_5.prm

>  <SCORE>
-22.8111

>  <SCORE.INTER>
-12.6002

>  <SCORE.INTER.CONST>
1

>  <SCORE.INTER.POLAR>
-1.18344

>  <SCORE.INTER.ROT>
11

>  <SCORE.INTER.SOLV>
22.8888

>  <SCORE.INTER.VDW>
-23.0183

>  <SCORE.INTER.norm>
-0.315004

>  <SCORE.INTRA>
-10.211

>  <SCORE.INTRA.DIHEDRAL>
-5.73807

>  <SCORE.INTRA.DIHEDRAL.0>
15.4453

>  <SCORE.INTRA.POLAR>
0

>  <SCORE.INTRA.POLAR.0>
0

>  <SCORE.INTRA.REPUL>
-0.823958

>  <SCORE.INTRA.REPUL.0>
0.823958

>  <SCORE.INTRA.SOLV>
3.45054

>  <SCORE.INTRA.SOLV.lig_0>
-99.3069

>  <SCORE.INTRA.VDW>
-4.94742

>  <SCORE.INTRA.VDW.0>
0.946495

>  <SCORE.INTRA.norm>
-0.255274

>  <SCORE.RESTR>
0

>  <SCORE.RESTR.CAVITY>
0

>  <SCORE.RESTR.norm>
0

>  <SCORE.SYSTEM>
0

>  <SCORE.SYSTEM.CONST>
0

>  <SCORE.SYSTEM.DIHEDRAL>
0

>  <SCORE.SYSTEM.SOLV>
0

>  <SCORE.SYSTEM.norm>
0

>  <SCORE.heavy>
40

>  <SCORE.norm>
-0.570279

>  <RMSD>
1.219

$$$$
1ntb_lig
 OpenBabel11021811403D
libRbt.so/2013.1/901 2013/11/27
 40 42  0  0  0  0  0  0  0  0999 V2000
    9.8208   33.4277   -0.9760 C   0  0  0  0  0  0  0  0  0  0  0  0
   10.4737   32.5560   -1.6423 N   0  0  0  0  0  0  0  0  0  0  0  0
   -0.6579   34.0397   -4.4514 C   0  0  0  0  0  0  0  0  0  0  0  0
   -1.8124   33.2175   -4.4129 O   0  0  0  0  0  0  0  0  0  0  0  0
    3.9805   36.0403   -0.0389 C   0  0  0  0  0  0  0  0  0  0  0  0
    4.6367   36.4968    0.9676 N   0  0  0  0  0  0  0  0  0  0  0  0
    0.0698   31.3483   -2.7759 C   0  0  0  0  0  0  0  0  0  0  0  0
   -2.3006   36.8035    0.0821 C   0  0  0  0  0  0  0  0  0  0  0  0
    7.4987   33.6559   -1.3247 C   0  0  2  0  0  0  0  0  0  0  0  0
    8.6374   33.0426   -0.5385 N   0  0  0  0  0  0  0  0  0  0  0  0
    2.4514   33.9176   -2.4886 C   0  0  2  0  0  0  0  0  0  0  0  0
   -0.0701   36.5080   -2.7718 C   0  0  1  0  0  0  0  0  0  0  0  0
    1.0300   35.7605   -2.2870 O   0  0  0  0  0  0  0  0  0  0  0  0
    6.3046   33.9454   -0.4218 C   0  0  1  0  0  0  0  0  0  0  0  0
    6.8386   34.8553    0.6359 O   0  0  0  0  0  0  0  0  0  0  0  0
    1.3444   34.7409   -3.1216 C   0  0  2  0  0  0  0  0  0  0  0  0
   -0.6163   37.3511   -1.6451 C   0  0  1  0  0  0  0  0  0  0  0  0
   -1.0667   36.5124   -0.5910 N   0  0  0  0  0  0  0  0  0  0  0  0
    5.1164   34.5384   -1.1763 C   0  0  2  0  0  0  0  0  0  0  0  0
    3.9551   34.8371   -0.3640 N   0  0  0  0  0  0  0  0  0  0  0  0
    0.2157   33.7530   -3.2524 C   0  0  1  0  0  0  0  0  0  0  0  0
   -0.5739   33.7517   -2.0584 O   0  0  0  0  0  0  0  0  0  0  0  0
    0.5044   38.2475   -1.1459 C   0  0  2  0  0  0  0  0  0  0  0  0
    0.0486   39.0532   -0.0811 O   0  0  0  0  0  0  0  0  0  0  0  0
    4.7116   33.5611   -2.2492 C   0  0  1  0  0  0  0  0  0  0  0  0
    3.7162   34.2675   -3.0407 O   0  0  0  0  0  0  0  0  0  0  0  0
    0.8938   32.4417   -3.4052 C   0  0  1  0  0  0  0  0  0  0  0  0
    2.1589   32.5425   -2.7476 O   0  0  0  0  0  0  0  0  0  0  0  0
    0.9374   39.1183   -2.3255 C   0  0  1  0  0  0  0  0  0  0  0  0
    1.9923   39.9849   -1.9384 O   0  0  0  0  0  0  0  0  0  0  0  0
    5.9042   33.2956   -3.2070 C   0  0  2  0  0  0  0  0  0  0  0  0
    5.4978   32.3850   -4.2168 O   0  0  0  0  0  0  0  0  0  0  0  0
    1.3974   38.2120   -3.4678 C   0  0  1  0  0  0  0  0  0  0  0  0
    0.3359   37.3411   -3.8551 O   0  0  0  0  0  0  0  0  0  0  0  0
    7.0750   32.6879   -2.4106 C   0  0  1  0  0  0  0  0  0  0  0  0
    8.1846   32.4365   -3.2811 O   0  0  0  0  0  0  0  0  0  0  0  0
    1.8000   39.0814   -4.6593 C   0  0  0  0  0  0  0  0  0  0  0  0
    0.6812   39.8480   -5.0755 O   0  0  0  0  0  0  0  0  0  0  0  0
   10.2714   34.6142   -0.7638 N   0  0  0  0  0  0  0  0  0  0  0  0
    3.2796   36.8155   -0.7131 N   0  0  0  0  0  0  0  0  0  0  0  0
  1  2  1  0  0  0  0
  1 39  1  0  0  0  0
  3  4  1  0  0  0  0
  5  6  1  0  0  0  0
  5 40  1  0  0  0  0
  9 10  1  1  0  0  0
  9 14  1  0  0  0  0
  9 35  1  0  0  0  0
 10  1  1  0  0  0  0
 11 16  1  0  0  0  0
 11 28  1  0  0  0  0
 11 26  1  6  0  0  0
 12 17  1  0  0  0  0
 12 34  1  0  0  0  0
 12 13  1  1  0  0  0
 14 15  1  1  0  0  0
 14 19  1  0  0  0  0
 16 13  1  1  0  0  0
 16 21  1  0  0  0  0
 17 18  1  1  0  0  0
 17 23  1  0  0  0  0
 18  8  1  0  0  0  0
 19 20  1  1  0  0  0
 19 25  1  0  0  0  0
 20  5  1  0  0  0  0
 21  3  1  6  0  0  0
 21 22  1  0  0  0  0
 21 27  1  0  0  0  0
 23 24  1  1  0  0  0
 23 29  1  0  0  0  0
 25 26  1  6  0  0  0
 25 31  1  0  0  0  0
 27  7  1  1  0  0  0
 27 28  1  0  0  0  0
 29 30  1  1  0  0  0
 29 33  1  0  0  0  0
 31 32  1  6  0  0  0
 31 35  1  0  0  0  0
 33 34  1  0  0  0  0
 33 37  1  6  0  0  0
 35 36  1  6  0  0  0
 37 38  1  0  0  0  0
M  END
>  <CHROM.1>
-144.97152754,-105.61873463,172.56737139,163.90295849,-175.41875635,-137.93982808
96.02635234,-84.12481562,-171.03355971,-93.13851479,-60.14160040,3.06590517
35.19059933,-2.10216860,-0.33666864,-0.24910743,0.31582859

>  <Name>
1ntb_lig

>  <RI>
0

>  <Rbt.Current_Directory>
/home/itssahil/PROJECTS/Mol_Feturizer/New_Systems/rnas/1ntb

>  <Rbt.Executable>
rbdock ($Id: //depot/dev/client3/rdock/2013.1/src/exe/rbdock.cxx#4 $)

>  <Rbt.Library>
libRbt.so (2013.1, Build901 2013/11/27)

>  <Rbt.Parameter_File>
/export/apps/rDock/src/rDock_2013.1_src/data/scripts/dock_solv.prm

>  <Rbt.Receptor>
prm/pocket_docking_3.prm

>  <SCORE>
-23.2034

>  <SCORE.INTER>
-12.1587

>  <SCORE.INTER.CONST>
1

>  <SCORE.INTER.POLAR>
-1.17639

>  <SCORE.INTER.ROT>
11

>  <SCORE.INTER.SOLV>
22.3199

>  <SCORE.INTER.VDW>
-22.5578

>  <SCORE.INTER.norm>
-0.303969

>  <SCORE.INTRA>
-11.0447

>  <SCORE.INTRA.DIHEDRAL>
-5.48941

>  <SCORE.INTRA.DIHEDRAL.0>
15.4453

>  <SCORE.INTRA.POLAR>
0

>  <SCORE.INTRA.POLAR.0>
0

>  <SCORE.INTRA.REPUL>
-0.823958

>  <SCORE.INTRA.REPUL.0>
0.823958

>  <SCORE.INTRA.SOLV>
2.93089

>  <SCORE.INTRA.SOLV.lig_0>
-99.3069

>  <SCORE.INTRA.VDW>
-5.64564

>  <SCORE.INTRA.VDW.0>
0.946495

>  <SCORE.INTRA.norm>
-0.276117

>  <SCORE.RESTR>
0

>  <SCORE.RESTR.CAVITY>
0

>  <SCORE.RESTR.norm>
0

>  <SCORE.SYSTEM>
0

>  <SCORE.SYSTEM.CONST>
0

>  <SCORE.SYSTEM.DIHEDRAL>
0

>  <SCORE.SYSTEM.SOLV>
0

>  <SCORE.SYSTEM.norm>
0

>  <SCORE.heavy>
40

>  <SCORE.norm>
-0.580086

>  <RMSD>
1.221

$$$$
1ntb_lig
 OpenBabel11021811403D
libRbt.so/2013.1/901 2013/11/27
 40 42  0  0  0  0  0  0  0  0999 V2000
   10.2328   32.8886   -2.7482 C   0  0  0  0  0  0  0  0  0  0  0  0
   10.7894   33.9799   -2.3883 N   0  0  0  0  0  0  0  0  0  0  0  0
   -0.5570   34.8006   -3.3595 C   0  0  0  0  0  0  0  0  0  0  0  0
   -1.6429   33.9694   -3.7340 O   0  0  0  0  0  0  0  0  0  0  0  0
    5.5506   36.0276    0.2777 C   0  0  0  0  0  0  0  0  0  0  0  0
    6.5830   36.3188    0.9858 N   0  0  0  0  0  0  0  0  0  0  0  0
    0.3782   31.6853   -3.3801 C   0  0  0  0  0  0  0  0  0  0  0  0
   -1.6901   34.9540    1.2943 C   0  0  0  0  0  0  0  0  0  0  0  0
    7.9579   33.3280   -2.3033 C   0  0  2  0  0  0  0  0  0  0  0  0
    9.1992   32.5088   -2.0218 N   0  0  0  0  0  0  0  0  0  0  0  0
    2.7580   33.8997   -2.0427 C   0  0  2  0  0  0  0  0  0  0  0  0
    0.3098   36.2391   -0.7432 C   0  0  1  0  0  0  0  0  0  0  0  0
    1.3557   35.2861   -0.7904 O   0  0  0  0  0  0  0  0  0  0  0  0
    7.2364   33.6893   -1.0095 C   0  0  1  0  0  0  0  0  0  0  0  0
    8.2517   34.4291   -0.2010 O   0  0  0  0  0  0  0  0  0  0  0  0
    1.5796   34.8563   -2.0552 C   0  0  2  0  0  0  0  0  0  0  0  0
    0.0534   36.6049    0.6987 C   0  0  1  0  0  0  0  0  0  0  0  0
   -0.3501   35.4520    1.4235 N   0  0  0  0  0  0  0  0  0  0  0  0
    5.9583   34.4919   -1.2438 C   0  0  2  0  0  0  0  0  0  0  0  0
    5.2351   34.8659   -0.0460 N   0  0  0  0  0  0  0  0  0  0  0  0
    0.4507   34.0013   -2.5667 C   0  0  1  0  0  0  0  0  0  0  0  0
   -0.1965   33.3410   -1.4739 O   0  0  0  0  0  0  0  0  0  0  0  0
    1.3467   37.1511    1.2798 C   0  0  2  0  0  0  0  0  0  0  0  0
    1.1648   37.5009    2.6345 O   0  0  0  0  0  0  0  0  0  0  0  0
    5.0459   33.6703   -2.1170 C   0  0  1  0  0  0  0  0  0  0  0  0
    3.9484   34.5635   -2.4541 O   0  0  0  0  0  0  0  0  0  0  0  0
    1.1163   32.9978   -3.4341 C   0  0  1  0  0  0  0  0  0  0  0  0
    2.4479   32.8322   -2.9414 O   0  0  0  0  0  0  0  0  0  0  0  0
    1.7193   38.3843    0.4564 C   0  0  1  0  0  0  0  0  0  0  0  0
    2.9279   38.9519    0.9369 O   0  0  0  0  0  0  0  0  0  0  0  0
    5.7497   33.3376   -3.4602 C   0  0  2  0  0  0  0  0  0  0  0  0
    4.8690   32.5765   -4.2723 O   0  0  0  0  0  0  0  0  0  0  0  0
    1.8803   37.9726   -1.0072 C   0  0  1  0  0  0  0  0  0  0  0  0
    0.6647   37.4014   -1.4883 O   0  0  0  0  0  0  0  0  0  0  0  0
    7.0249   32.5190   -3.1812 C   0  0  1  0  0  0  0  0  0  0  0  0
    7.6866   32.2034   -4.4120 O   0  0  0  0  0  0  0  0  0  0  0  0
    2.2213   39.2112   -1.8362 C   0  0  0  0  0  0  0  0  0  0  0  0
    1.1580   40.1450   -1.7370 O   0  0  0  0  0  0  0  0  0  0  0  0
   10.6630   32.1878   -3.7378 N   0  0  0  0  0  0  0  0  0  0  0  0
    4.7756   36.9347   -0.0734 N   0  0  0  0  0  0  0  0  0  0  0  0
  1  2  1  0  0  0  0
  1 39  1  0  0  0  0
  3  4  1  0  0  0  0
  5  6  1  0  0  0  0
  5 40  1  0  0  0  0
  9 10  1  1  0  0  0
  9 14  1  0  0  0  0
  9 35  1  0  0  0  0
 10  1  1  0  0  0  0
 11 16  1  0  0  0  0
 11 28  1  0  0  0  0
 11 26  1  6  0  0  0
 12 17  1  0  0  0  0
 12 34  1  0  0  0  0
 12 13  1  1  0  0  0
 14 15  1  1  0  0  0
 14 19  1  0  0  0  0
 16 13  1  1  0  0  0
 16 21  1  0  0  0  0
 17 18  1  1  0  0  0
 17 23  1  0  0  0  0
 18  8  1  0  0  0  0
 19 20  1  1  0  0  0
 19 25  1  0  0  0  0
 20  5  1  0  0  0  0
 21  3  1  6  0  0  0
 21 22  1  0  0  0  0
 21 27  1  0  0  0  0
 23 24  1  1  0  0  0
 23 29  1  0  0  0  0
 25 26  1  6  0  0  0
 25 31  1  0  0  0  0
 27  7  1  1  0  0  0
 27 28  1  0  0  0  0
 29 30  1  1  0  0  0
 29 33  1  0  0  0  0
 31 32  1  6  0  0  0
 31 35  1  0  0  0  0
 33 34  1  0  0  0  0
 33 37  1  6  0  0  0
 35 36  1  6  0  0  0
 37 38  1  0  0  0  0
M  END
>  <CHROM.1>
-137.16272790,74.75506807,167.24100802,176.30753059,176.91438929,-77.13987365
96.57475383,-84.84086749,-175.83989470,-124.20028071,-61.26123314,3.59033465
34.96680583,-1.46125693,-0.42711934,-0.05697954,0.67500494

>  <Name>
1ntb_lig

>  <RI>
0

>  <Rbt.Current_Directory>
/home/itssahil/PROJECTS/Mol_Feturizer/New_Systems/rnas/1ntb

>  <Rbt.Executable>
rbdock ($Id: //depot/dev/client3/rdock/2013.1/src/exe/rbdock.cxx#4 $)

>  <Rbt.Library>
libRbt.so (2013.1, Build901 2013/11/27)

>  <Rbt.Parameter_File>
/export/apps/rDock/src/rDock_2013.1_src/data/scripts/dock_solv.prm

>  <Rbt.Receptor>
prm/pocket_docking_6.prm

>  <SCORE>
-25.2988

>  <SCORE.INTER>
-13.4829

>  <SCORE.INTER.CONST>
1

>  <SCORE.INTER.POLAR>
-2.54329

>  <SCORE.INTER.ROT>
11

>  <SCORE.INTER.SOLV>
25.3988

>  <SCORE.INTER.VDW>
-19.9106

>  <SCORE.INTER.norm>
-0.337072

>  <SCORE.INTRA>
-11.8159

>  <SCORE.INTRA.DIHEDRAL>
-3.77503

>  <SCORE.INTRA.DIHEDRAL.0>
15.4453

>  <SCORE.INTRA.POLAR>
0

>  <SCORE.INTRA.POLAR.0>
0

>  <SCORE.INTRA.REPUL>
-0.823958

>  <SCORE.INTRA.REPUL.0>
0.823958

>  <SCORE.INTRA.SOLV>
1.46262

>  <SCORE.INTRA.SOLV.lig_0>
-99.3069

>  <SCORE.INTRA.VDW>
-6.53992

>  <SCORE.INTRA.VDW.0>
0.946495

>  <SCORE.INTRA.norm>
-0.295398

>  <SCORE.RESTR>
0

>  <SCORE.RESTR.CAVITY>
0

>  <SCORE.RESTR.norm>
0

>  <SCORE.SYSTEM>
0

>  <SCORE.SYSTEM.CONST>
0

>  <SCORE.SYSTEM.DIHEDRAL>
0

>  <SCORE.SYSTEM.SOLV>
0

>  <SCORE.SYSTEM.norm>
0

>  <SCORE.heavy>
40

>  <SCORE.norm>
-0.63247

>  <RMSD>
1.229

$$$$
1ntb_lig
 OpenBabel11021811403D
libRbt.so/2013.1/901 2013/11/27
 40 42  0  0  0  0  0  0  0  0999 V2000
    9.3534   34.3465   -0.7610 C   0  0  0  0  0  0  0  0  0  0  0  0
    9.2444   35.2900    0.0924 N   0  0  0  0  0  0  0  0  0  0  0  0
   -1.0934   33.9009   -4.4590 C   0  0  0  0  0  0  0  0  0  0  0  0
   -0.3839   34.0192   -5.6809 O   0  0  0  0  0  0  0  0  0  0  0  0
    3.4029   35.8785   -0.2692 C   0  0  0  0  0  0  0  0  0  0  0  0
    2.9336   36.8162   -1.0126 N   0  0  0  0  0  0  0  0  0  0  0  0
   -0.2130   31.0975   -3.0640 C   0  0  0  0  0  0  0  0  0  0  0  0
   -2.7419   35.5154   -0.6182 C   0  0  0  0  0  0  0  0  0  0  0  0
    7.1716   33.9458   -1.5640 C   0  0  2  0  0  0  0  0  0  0  0  0
    8.3686   33.4688   -0.7700 N   0  0  0  0  0  0  0  0  0  0  0  0
    2.1377   33.6872   -2.7129 C   0  0  2  0  0  0  0  0  0  0  0  0
   -0.3847   36.2940   -2.6617 C   0  0  1  0  0  0  0  0  0  0  0  0
    0.7010   35.4748   -2.2687 O   0  0  0  0  0  0  0  0  0  0  0  0
    5.9437   34.0857   -0.6709 C   0  0  1  0  0  0  0  0  0  0  0  0
    6.3560   35.0474    0.3954 O   0  0  0  0  0  0  0  0  0  0  0  0
    0.9783   34.5348   -3.2038 C   0  0  2  0  0  0  0  0  0  0  0  0
   -0.9330   36.9897   -1.4395 C   0  0  1  0  0  0  0  0  0  0  0  0
   -1.4051   36.0266   -0.5085 N   0  0  0  0  0  0  0  0  0  0  0  0
    4.6997   34.5363   -1.4339 C   0  0  2  0  0  0  0  0  0  0  0  0
    3.5041   34.6898   -0.6311 N   0  0  0  0  0  0  0  0  0  0  0  0
   -0.1394   33.5360   -3.3457 C   0  0  1  0  0  0  0  0  0  0  0  0
   -0.8501   33.4185   -2.1087 O   0  0  0  0  0  0  0  0  0  0  0  0
    0.1928   37.7981   -0.8169 C   0  0  2  0  0  0  0  0  0  0  0  0
   -0.2649   38.4637    0.3399 O   0  0  0  0  0  0  0  0  0  0  0  0
    4.4239   33.5233   -2.5145 C   0  0  1  0  0  0  0  0  0  0  0  0
    3.3580   34.1098   -3.3122 O   0  0  0  0  0  0  0  0  0  0  0  0
    0.5497   32.2573   -3.6501 C   0  0  1  0  0  0  0  0  0  0  0  0
    1.8528   32.3320   -3.0672 O   0  0  0  0  0  0  0  0  0  0  0  0
    0.6492   38.8098   -1.8683 C   0  0  1  0  0  0  0  0  0  0  0  0
    1.7102   39.6041   -1.3613 O   0  0  0  0  0  0  0  0  0  0  0  0
    5.6480   33.4073   -3.4624 C   0  0  2  0  0  0  0  0  0  0  0  0
    5.3621   32.4599   -4.4797 O   0  0  0  0  0  0  0  0  0  0  0  0
    1.1108   38.0545   -3.1150 C   0  0  1  0  0  0  0  0  0  0  0  0
    0.0432   37.2560   -3.6228 O   0  0  0  0  0  0  0  0  0  0  0  0
    6.8761   32.9397   -2.6578 C   0  0  1  0  0  0  0  0  0  0  0  0
    8.0153   32.8273   -3.5191 O   0  0  0  0  0  0  0  0  0  0  0  0
    1.5370   39.0667   -4.1787 C   0  0  0  0  0  0  0  0  0  0  0  0
    1.7580   38.3885   -5.4049 O   0  0  0  0  0  0  0  0  0  0  0  0
   10.3674   34.2393   -1.5458 N   0  0  0  0  0  0  0  0  0  0  0  0
    3.8368   36.1562    0.8627 N   0  0  0  0  0  0  0  0  0  0  0  0
  1  2  1  0  0  0  0
  1 39  1  0  0  0  0
  3  4  1  0  0  0  0
  5  6  1  0  0  0  0
  5 40  1  0  0  0  0
  9 10  1  1  0  0  0
  9 14  1  0  0  0  0
  9 35  1  0  0  0  0
 10  1  1  0  0  0  0
 11 16  1  0  0  0  0
 11 28  1  0  0  0  0
 11 26  1  6  0  0  0
 12 17  1  0  0  0  0
 12 34  1  0  0  0  0
 12 13  1  1  0  0  0
 14 15  1  1  0  0  0
 14 19  1  0  0  0  0
 16 13  1  1  0  0  0
 16 21  1  0  0  0  0
 17 18  1  1  0  0  0
 17 23  1  0  0  0  0
 18  8  1  0  0  0  0
 19 20  1  1  0  0  0
 19 25  1  0  0  0  0
 20  5  1  0  0  0  0
 21  3  1  6  0  0  0
 21 22  1  0  0  0  0
 21 27  1  0  0  0  0
 23 24  1  1  0  0  0
 23 29  1  0  0  0  0
 25 26  1  6  0  0  0
 25 31  1  0  0  0  0
 27  7  1  1  0  0  0
 27 28  1  0  0  0  0
 29 30  1  1  0  0  0
 29 33  1  0  0  0  0
 31 32  1  6  0  0  0
 31 35  1  0  0  0  0
 33 34  1  0  0  0  0
 33 37  1  6  0  0  0
 35 36  1  6  0  0  0
 37 38  1  0  0  0  0
M  END
>  <CHROM.1>
-117.52614462,81.99441699,164.03133237,161.48348673,-179.42353795,-85.95300752
94.16925023,80.80516925,57.04501715,-88.97661054,-170.60299900,2.80295180
35.11492441,-2.17841624,-0.18275202,-0.22554856,0.47645344

>  <Name>
1ntb_lig

>  <RI>
0

>  <Rbt.Current_Directory>
/home/itssahil/PROJECTS/Mol_Feturizer/New_Systems/rnas/1ntb

>  <Rbt.Executable>
rbdock ($Id: //depot/dev/client3/rdock/2013.1/src/exe/rbdock.cxx#4 $)

>  <Rbt.Library>
libRbt.so (2013.1, Build901 2013/11/27)

>  <Rbt.Parameter_File>
/export/apps/rDock/src/rDock_2013.1_src/data/scripts/dock_solv.prm

>  <Rbt.Receptor>
prm/pocket_docking_5.prm

>  <SCORE>
-20.4371

>  <SCORE.INTER>
-9.74539

>  <SCORE.INTER.CONST>
1

>  <SCORE.INTER.POLAR>
-1.38816

>  <SCORE.INTER.ROT>
11

>  <SCORE.INTER.SOLV>
24.6055

>  <SCORE.INTER.VDW>
-21.0049

>  <SCORE.INTER.norm>
-0.243635

>  <SCORE.INTRA>
-10.6917

>  <SCORE.INTRA.DIHEDRAL>
-5.035

>  <SCORE.INTRA.DIHEDRAL.0>
15.4453

>  <SCORE.INTRA.POLAR>
0

>  <SCORE.INTRA.POLAR.0>
0

>  <SCORE.INTRA.REPUL>
-0.823958

>  <SCORE.INTRA.REPUL.0>
0.823958

>  <SCORE.INTRA.SOLV>
4.47017

>  <SCORE.INTRA.SOLV.lig_0>
-99.3069

>  <SCORE.INTRA.VDW>
-6.28949

>  <SCORE.INTRA.VDW.0>
0.946495

>  <SCORE.INTRA.norm>
-0.267292

>  <SCORE.RESTR>
0

>  <SCORE.RESTR.CAVITY>
0

>  <SCORE.RESTR.norm>
0

>  <SCORE.SYSTEM>
0

>  <SCORE.SYSTEM.CONST>
0

>  <SCORE.SYSTEM.DIHEDRAL>
0

>  <SCORE.SYSTEM.SOLV>
0

>  <SCORE.SYSTEM.norm>
0

>  <SCORE.heavy>
40

>  <SCORE.norm>
-0.510927

>  <RMSD>
1.251

$$$$
1ntb_lig
 OpenBabel11021811403D
libRbt.so/2013.1/901 2013/11/27
 40 42  0  0  0  0  0  0  0  0999 V2000
    9.9742   33.3687   -1.1259 C   0  0  0  0  0  0  0  0  0  0  0  0
   10.7451   32.5803   -1.7695 N   0  0  0  0  0  0  0  0  0  0  0  0
   -0.5332   34.1446   -4.4532 C   0  0  0  0  0  0  0  0  0  0  0  0
   -1.6146   33.2287   -4.4967 O   0  0  0  0  0  0  0  0  0  0  0  0
    4.4366   36.0910    0.1023 C   0  0  0  0  0  0  0  0  0  0  0  0
    5.2095   36.3601    1.0934 N   0  0  0  0  0  0  0  0  0  0  0  0
    0.2212   31.4437   -2.8051 C   0  0  0  0  0  0  0  0  0  0  0  0
   -2.1367   36.2142   -0.3711 C   0  0  0  0  0  0  0  0  0  0  0  0
    7.6547   33.5627   -1.5113 C   0  0  2  0  0  0  0  0  0  0  0  0
    8.7969   32.8729   -0.7967 N   0  0  0  0  0  0  0  0  0  0  0  0
    2.5616   34.0444   -2.4664 C   0  0  2  0  0  0  0  0  0  0  0  0
   -0.0223   36.5736   -2.7171 C   0  0  1  0  0  0  0  0  0  0  0  0
    1.1112   35.8632   -2.2539 O   0  0  0  0  0  0  0  0  0  0  0  0
    6.5329   33.9115   -0.5393 C   0  0  1  0  0  0  0  0  0  0  0  0
    7.1794   34.7747    0.4946 O   0  0  0  0  0  0  0  0  0  0  0  0
    1.4476   34.8589   -3.0983 C   0  0  2  0  0  0  0  0  0  0  0  0
   -0.4682   37.5301   -1.6378 C   0  0  1  0  0  0  0  0  0  0  0  0
   -0.8324   36.8047   -0.4722 N   0  0  0  0  0  0  0  0  0  0  0  0
    5.3421   34.5836   -1.2196 C   0  0  2  0  0  0  0  0  0  0  0  0
    4.2484   34.9408   -0.3398 N   0  0  0  0  0  0  0  0  0  0  0  0
    0.3349   33.8560   -3.2507 C   0  0  1  0  0  0  0  0  0  0  0  0
   -0.4642   33.8281   -2.0634 O   0  0  0  0  0  0  0  0  0  0  0  0
    0.6944   38.4567   -1.3245 C   0  0  2  0  0  0  0  0  0  0  0  0
    0.3333   39.3688   -0.3104 O   0  0  0  0  0  0  0  0  0  0  0  0
    4.8194   33.6457   -2.2766 C   0  0  1  0  0  0  0  0  0  0  0  0
    3.8254   34.4199   -3.0037 O   0  0  0  0  0  0  0  0  0  0  0  0
    1.0337   32.5570   -3.4141 C   0  0  1  0  0  0  0  0  0  0  0  0
    2.2919   32.6684   -2.7448 O   0  0  0  0  0  0  0  0  0  0  0  0
    1.0309   39.2020   -2.6163 C   0  0  1  0  0  0  0  0  0  0  0  0
    2.1185   40.0888   -2.4057 O   0  0  0  0  0  0  0  0  0  0  0  0
    5.9382   33.3216   -3.3030 C   0  0  2  0  0  0  0  0  0  0  0  0
    5.4216   32.4495   -4.2963 O   0  0  0  0  0  0  0  0  0  0  0  0
    1.3893   38.1822   -3.6976 C   0  0  1  0  0  0  0  0  0  0  0  0
    0.2951   37.2911   -3.9074 O   0  0  0  0  0  0  0  0  0  0  0  0
    7.1132   32.6353   -2.5801 C   0  0  1  0  0  0  0  0  0  0  0  0
    8.1550   32.3292   -3.5145 O   0  0  0  0  0  0  0  0  0  0  0  0
    1.6945   38.9252   -4.9985 C   0  0  0  0  0  0  0  0  0  0  0  0
    0.5514   39.6691   -5.3890 O   0  0  0  0  0  0  0  0  0  0  0  0
   10.3082   34.5772   -0.8368 N   0  0  0  0  0  0  0  0  0  0  0  0
    3.7862   37.0072   -0.4309 N   0  0  0  0  0  0  0  0  0  0  0  0
  1  2  1  0  0  0  0
  1 39  1  0  0  0  0
  3  4  1  0  0  0  0
  5  6  1  0  0  0  0
  5 40  1  0  0  0  0
  9 10  1  1  0  0  0
  9 14  1  0  0  0  0
  9 35  1  0  0  0  0
 10  1  1  0  0  0  0
 11 16  1  0  0  0  0
 11 28  1  0  0  0  0
 11 26  1  6  0  0  0
 12 17  1  0  0  0  0
 12 34  1  0  0  0  0
 12 13  1  1  0  0  0
 14 15  1  1  0  0  0
 14 19  1  0  0  0  0
 16 13  1  1  0  0  0
 16 21  1  0  0  0  0
 17 18  1  1  0  0  0
 17 23  1  0  0  0  0
 18  8  1  0  0  0  0
 19 20  1  1  0  0  0
 19 25  1  0  0  0  0
 20  5  1  0  0  0  0
 21  3  1  6  0  0  0
 21 22  1  0  0  0  0
 21 27  1  0  0  0  0
 23 24  1  1  0  0  0
 23 29  1  0  0  0  0
 25 26  1  6  0  0  0
 25 31  1  0  0  0  0
 27  7  1  1  0  0  0
 27 28  1  0  0  0  0
 29 30  1  1  0  0  0
 29 33  1  0  0  0  0
 31 32  1  6  0  0  0
 31 35  1  0  0  0  0
 33 34  1  0  0  0  0
 33 37  1  6  0  0  0
 35 36  1  6  0  0  0
 37 38  1  0  0  0  0
M  END
>  <CHROM.1>
-133.37718142,-113.57425160,176.54730639,171.40657493,-173.54439090,-82.12030014
89.32558625,-81.38317342,-176.00703621,-98.43757016,-59.72412567,3.21041767
35.21927618,-2.19277457,-0.33687061,-0.26223523,0.30693733

>  <Name>
1ntb_lig

>  <RI>
0

>  <Rbt.Current_Directory>
/home/itssahil/PROJECTS/Mol_Feturizer/New_Systems/rnas/1ntb

>  <Rbt.Executable>
rbdock ($Id: //depot/dev/client3/rdock/2013.1/src/exe/rbdock.cxx#4 $)

>  <Rbt.Library>
libRbt.so (2013.1, Build901 2013/11/27)

>  <Rbt.Parameter_File>
/export/apps/rDock/src/rDock_2013.1_src/data/scripts/dock_solv.prm

>  <Rbt.Receptor>
prm/pocket_docking_6.prm

>  <SCORE>
-23.7075

>  <SCORE.INTER>
-12.0352

>  <SCORE.INTER.CONST>
1

>  <SCORE.INTER.POLAR>
-1.01091

>  <SCORE.INTER.ROT>
11

>  <SCORE.INTER.SOLV>
22.8282

>  <SCORE.INTER.VDW>
-23.1965

>  <SCORE.INTER.norm>
-0.300879

>  <SCORE.INTRA>
-11.6724

>  <SCORE.INTRA.DIHEDRAL>
-6.31382

>  <SCORE.INTRA.DIHEDRAL.0>
15.4453

>  <SCORE.INTRA.POLAR>
0

>  <SCORE.INTRA.POLAR.0>
0

>  <SCORE.INTRA.REPUL>
-0.823958

>  <SCORE.INTRA.REPUL.0>
0.823958

>  <SCORE.INTRA.SOLV>
0.598011

>  <SCORE.INTRA.SOLV.lig_0>
-99.3069

>  <SCORE.INTRA.VDW>
-4.69467

>  <SCORE.INTRA.VDW.0>
0.946495

>  <SCORE.INTRA.norm>
-0.291809

>  <SCORE.RESTR>
0

>  <SCORE.RESTR.CAVITY>
0

>  <SCORE.RESTR.norm>
0

>  <SCORE.SYSTEM>
0

>  <SCORE.SYSTEM.CONST>
0

>  <SCORE.SYSTEM.DIHEDRAL>
0

>  <SCORE.SYSTEM.SOLV>
0

>  <SCORE.SYSTEM.norm>
0

>  <SCORE.heavy>
40

>  <SCORE.norm>
-0.592688

>  <RMSD>
1.296

$$$$
1ntb_lig
 OpenBabel11021811403D
libRbt.so/2013.1/901 2013/11/27
 40 42  0  0  0  0  0  0  0  0999 V2000
   10.1250   32.9116   -1.1605 C   0  0  0  0  0  0  0  0  0  0  0  0
   10.9416   31.9381   -1.2851 N   0  0  0  0  0  0  0  0  0  0  0  0
   -0.3976   34.4690   -4.2691 C   0  0  0  0  0  0  0  0  0  0  0  0
    0.3837   34.6830   -5.4327 O   0  0  0  0  0  0  0  0  0  0  0  0
    4.8416   35.8483    0.3277 C   0  0  0  0  0  0  0  0  0  0  0  0
    5.3243   36.9054   -0.2215 N   0  0  0  0  0  0  0  0  0  0  0  0
    0.1875   31.4713   -3.1504 C   0  0  0  0  0  0  0  0  0  0  0  0
   -2.5978   36.8132   -2.5309 C   0  0  0  0  0  0  0  0  0  0  0  0
    7.8105   33.2853   -1.4240 C   0  0  2  0  0  0  0  0  0  0  0  0
    8.9367   32.6015   -0.6789 N   0  0  0  0  0  0  0  0  0  0  0  0
    2.7185   33.8020   -2.4306 C   0  0  2  0  0  0  0  0  0  0  0  0
    1.0532   36.9333   -2.3299 C   0  0  1  0  0  0  0  0  0  0  0  0
    1.4098   35.6489   -1.8533 O   0  0  0  0  0  0  0  0  0  0  0  0
    6.7112   33.7294   -0.4652 C   0  0  1  0  0  0  0  0  0  0  0  0
    7.3967   34.6308    0.5090 O   0  0  0  0  0  0  0  0  0  0  0  0
    1.6555   34.7912   -2.8726 C   0  0  2  0  0  0  0  0  0  0  0  0
   -0.2970   37.3016   -1.7643 C   0  0  1  0  0  0  0  0  0  0  0  0
   -1.2734   36.3678   -2.2025 N   0  0  0  0  0  0  0  0  0  0  0  0
    5.5361   34.3991   -1.1747 C   0  0  2  0  0  0  0  0  0  0  0  0
    4.4642   34.8451   -0.3088 N   0  0  0  0  0  0  0  0  0  0  0  0
    0.4696   33.9108   -3.1649 C   0  0  1  0  0  0  0  0  0  0  0  0
   -0.3069   33.7259   -1.9766 O   0  0  0  0  0  0  0  0  0  0  0  0
   -0.1949   37.2657   -0.2488 C   0  0  2  0  0  0  0  0  0  0  0  0
   -1.4377   37.5939    0.3330 O   0  0  0  0  0  0  0  0  0  0  0  0
    4.9716   33.4175   -2.1686 C   0  0  1  0  0  0  0  0  0  0  0  0
    3.9961   34.1797   -2.9326 O   0  0  0  0  0  0  0  0  0  0  0  0
    1.0679   32.6170   -3.5779 C   0  0  1  0  0  0  0  0  0  0  0  0
    2.3433   32.5200   -2.9397 O   0  0  0  0  0  0  0  0  0  0  0  0
    0.8675   38.2900    0.1506 C   0  0  1  0  0  0  0  0  0  0  0  0
    1.0267   38.3120    1.5605 O   0  0  0  0  0  0  0  0  0  0  0  0
    6.0681   32.9949   -3.1832 C   0  0  2  0  0  0  0  0  0  0  0  0
    5.5124   32.0825   -4.1175 O   0  0  0  0  0  0  0  0  0  0  0  0
    2.1907   37.9183   -0.5195 C   0  0  1  0  0  0  0  0  0  0  0  0
    2.0285   37.8959   -1.9367 O   0  0  0  0  0  0  0  0  0  0  0  0
    7.2273   32.3140   -2.4301 C   0  0  1  0  0  0  0  0  0  0  0  0
    8.2484   31.9175   -3.3533 O   0  0  0  0  0  0  0  0  0  0  0  0
    3.2454   38.9604   -0.1464 C   0  0  0  0  0  0  0  0  0  0  0  0
    2.7929   40.2444   -0.5451 O   0  0  0  0  0  0  0  0  0  0  0  0
   10.4269   34.1143   -1.5043 N   0  0  0  0  0  0  0  0  0  0  0  0
    4.7858   35.7759    1.5680 N   0  0  0  0  0  0  0  0  0  0  0  0
  1  2  1  0  0  0  0
  1 39  1  0  0  0  0
  3  4  1  0  0  0  0
  5  6  1  0  0  0  0
  5 40  1  0  0  0  0
  9 10  1  1  0  0  0
  9 14  1  0  0  0  0
  9 35  1  0  0  0  0
 10  1  1  0  0  0  0
 11 16  1  0  0  0  0
 11 28  1  0  0  0  0
 11 26  1  6  0  0  0
 12 17  1  0  0  0  0
 12 34  1  0  0  0  0
 12 13  1  1  0  0  0
 14 15  1  1  0  0  0
 14 19  1  0  0  0  0
 16 13  1  1  0  0  0
 16 21  1  0  0  0  0
 17 18  1  6  0  0  0
 17 23  1  0  0  0  0
 18  8  1  0  0  0  0
 19 20  1  1  0  0  0
 19 25  1  0  0  0  0
 20  5  1  0  0  0  0
 21  3  1  6  0  0  0
 21 22  1  0  0  0  0
 21 27  1  0  0  0  0
 23 24  1  1  0  0  0
 23 29  1  0  0  0  0
 25 26  1  6  0  0  0
 25 31  1  0  0  0  0
 27  7  1  1  0  0  0
 27 28  1  0  0  0  0
 29 30  1  1  0  0  0
 29 33  1  0  0  0  0
 31 32  1  6  0  0  0
 31 35  1  0  0  0  0
 33 34  1  0  0  0  0
 33 37  1  6  0  0  0
 35 36  1  6  0  0  0
 37 38  1  0  0  0  0
M  END
>  <CHROM.1>
-141.31691204,-136.72508065,164.46368193,123.08634904,148.10607135,-142.45040755
72.44587891,53.75350841,55.67374714,-102.77461033,-57.55659493,3.45866739
35.00253902,-1.65743713,-0.31878746,-0.25645661,0.63461203

>  <Name>
1ntb_lig

>  <RI>
0

>  <Rbt.Current_Directory>
/home/itssahil/PROJECTS/Mol_Feturizer/New_Systems/rnas/1ntb

>  <Rbt.Executable>
rbdock ($Id: //depot/dev/client3/rdock/2013.1/src/exe/rbdock.cxx#4 $)

>  <Rbt.Library>
libRbt.so (2013.1, Build901 2013/11/27)

>  <Rbt.Parameter_File>
/export/apps/rDock/src/rDock_2013.1_src/data/scripts/dock_solv.prm

>  <Rbt.Receptor>
prm/pocket_docking_2.prm

>  <SCORE>
-18.295

>  <SCORE.INTER>
-13.8121

>  <SCORE.INTER.CONST>
1

>  <SCORE.INTER.POLAR>
-1.98676

>  <SCORE.INTER.ROT>
11

>  <SCORE.INTER.SOLV>
26.7286

>  <SCORE.INTER.VDW>
-22.4284

>  <SCORE.INTER.norm>
-0.345302

>  <SCORE.INTRA>
-5.83652

>  <SCORE.INTRA.DIHEDRAL>
5.70583

>  <SCORE.INTRA.DIHEDRAL.0>
15.4453

>  <SCORE.INTRA.POLAR>
0

>  <SCORE.INTRA.POLAR.0>
0

>  <SCORE.INTRA.REPUL>
-0.78622

>  <SCORE.INTRA.REPUL.0>
0.823958

>  <SCORE.INTRA.SOLV>
2.79153

>  <SCORE.INTRA.SOLV.lig_0>
-99.3069

>  <SCORE.INTRA.VDW>
-6.1541

>  <SCORE.INTRA.VDW.0>
0.946495

>  <SCORE.INTRA.norm>
-0.145913

>  <SCORE.RESTR>
1.3536

>  <SCORE.RESTR.CAVITY>
1.3536

>  <SCORE.RESTR.norm>
0.0338401

>  <SCORE.SYSTEM>
0

>  <SCORE.SYSTEM.CONST>
0

>  <SCORE.SYSTEM.DIHEDRAL>
0

>  <SCORE.SYSTEM.SOLV>
0

>  <SCORE.SYSTEM.norm>
0

>  <SCORE.heavy>
40

>  <SCORE.norm>
-0.457375

>  <RMSD>
1.303

$$$$
1ntb_lig
 OpenBabel11021811403D
libRbt.so/2013.1/901 2013/11/27
 40 42  0  0  0  0  0  0  0  0999 V2000
   10.1252   33.0262   -2.6328 C   0  0  0  0  0  0  0  0  0  0  0  0
   10.5349   34.0853   -2.0492 N   0  0  0  0  0  0  0  0  0  0  0  0
   -0.5670   34.8288   -4.6466 C   0  0  0  0  0  0  0  0  0  0  0  0
    0.1255   35.0295   -5.8675 O   0  0  0  0  0  0  0  0  0  0  0  0
    4.8510   34.5943   -0.0810 C   0  0  0  0  0  0  0  0  0  0  0  0
    5.7113   34.3947    0.8528 N   0  0  0  0  0  0  0  0  0  0  0  0
    0.2291   31.7511   -3.9580 C   0  0  0  0  0  0  0  0  0  0  0  0
   -1.7511   35.5238    0.0849 C   0  0  0  0  0  0  0  0  0  0  0  0
    7.7884   33.3354   -2.7299 C   0  0  2  0  0  0  0  0  0  0  0  0
    8.9713   32.5498   -2.2062 N   0  0  0  0  0  0  0  0  0  0  0  0
    2.6146   34.1233   -2.9394 C   0  0  2  0  0  0  0  0  0  0  0  0
    0.0255   36.5609   -2.2520 C   0  0  1  0  0  0  0  0  0  0  0  0
    1.1981   35.7820   -2.1030 O   0  0  0  0  0  0  0  0  0  0  0  0
    7.0119   33.9810   -1.5874 C   0  0  1  0  0  0  0  0  0  0  0  0
    8.0132   34.8366   -0.8822 O   0  0  0  0  0  0  0  0  0  0  0  0
    1.4828   35.0912   -3.2328 C   0  0  2  0  0  0  0  0  0  0  0  0
   -0.2803   37.2318   -0.9348 C   0  0  1  0  0  0  0  0  0  0  0  0
   -0.5124   36.2487    0.0638 N   0  0  0  0  0  0  0  0  0  0  0  0
    5.7887   34.7615   -2.0640 C   0  0  2  0  0  0  0  0  0  0  0  0
    5.0166   35.3997   -1.0180 N   0  0  0  0  0  0  0  0  0  0  0  0
    0.3520   34.1826   -3.6363 C   0  0  1  0  0  0  0  0  0  0  0  0
   -0.3919   33.7846   -2.4799 O   0  0  0  0  0  0  0  0  0  0  0  0
    0.9207   38.0801   -0.5519 C   0  0  2  0  0  0  0  0  0  0  0  0
    0.6909   38.7244    0.6820 O   0  0  0  0  0  0  0  0  0  0  0  0
    4.8899   33.8091   -2.8091 C   0  0  1  0  0  0  0  0  0  0  0  0
    3.8568   34.6507   -3.3928 O   0  0  0  0  0  0  0  0  0  0  0  0
    1.0264   33.0007   -4.2286 C   0  0  1  0  0  0  0  0  0  0  0  0
    2.3153   32.9016   -3.6186 O   0  0  0  0  0  0  0  0  0  0  0  0
    1.1105   39.1114   -1.6644 C   0  0  1  0  0  0  0  0  0  0  0  0
    2.2246   39.9435   -1.3812 O   0  0  0  0  0  0  0  0  0  0  0  0
    5.6528   33.1819   -4.0069 C   0  0  2  0  0  0  0  0  0  0  0  0
    4.7850   32.3002   -4.7025 O   0  0  0  0  0  0  0  0  0  0  0  0
    1.3286   38.3779   -2.9881 C   0  0  1  0  0  0  0  0  0  0  0  0
    0.2081   37.5413   -3.2707 O   0  0  0  0  0  0  0  0  0  0  0  0
    6.8698   32.3951   -3.4835 C   0  0  1  0  0  0  0  0  0  0  0  0
    7.5851   31.8092   -4.5778 O   0  0  0  0  0  0  0  0  0  0  0  0
    1.4863   39.4087   -4.1062 C   0  0  0  0  0  0  0  0  0  0  0  0
    2.5990   40.2405   -3.8190 O   0  0  0  0  0  0  0  0  0  0  0  0
   10.8013   32.4428   -3.5592 N   0  0  0  0  0  0  0  0  0  0  0  0
    3.8068   33.9192   -0.1035 N   0  0  0  0  0  0  0  0  0  0  0  0
  1  2  1  0  0  0  0
  1 39  1  0  0  0  0
  3  4  1  0  0  0  0
  5  6  1  0  0  0  0
  5 40  1  0  0  0  0
  9 10  1  1  0  0  0
  9 14  1  0  0  0  0
  9 35  1  0  0  0  0
 10  1  1  0  0  0  0
 11 16  1  0  0  0  0
 11 28  1  0  0  0  0
 11 26  1  6  0  0  0
 12 17  1  0  0  0  0
 12 34  1  0  0  0  0
 12 13  1  1  0  0  0
 14 15  1  6  0  0  0
 14 19  1  0  0  0  0
 16 13  1  1  0  0  0
 16 21  1  0  0  0  0
 17 18  1  1  0  0  0
 17 23  1  0  0  0  0
 18  8  1  0  0  0  0
 19 20  1  1  0  0  0
 19 25  1  0  0  0  0
 20  5  1  0  0  0  0
 21  3  1  6  0  0  0
 21 22  1  0  0  0  0
 21 27  1  0  0  0  0
 23 24  1  1  0  0  0
 23 29  1  0  0  0  0
 25 26  1  6  0  0  0
 25 31  1  0  0  0  0
 27  7  1  1  0  0  0
 27 28  1  0  0  0  0
 29 30  1  1  0  0  0
 29 33  1  0  0  0  0
 31 32  1  1  0  0  0
 31 35  1  0  0  0  0
 33 34  1  0  0  0  0
 33 37  1  6  0  0  0
 35 36  1  6  0  0  0
 37 38  1  0  0  0  0
M  END
>  <CHROM.1>
-117.42683490,76.95730293,167.63387942,176.44323879,-171.39949530,-75.30967489
-45.49072231,83.85720051,66.32805923,-124.50614356,59.67203847,3.41849135
35.09585820,-2.46403765,-0.41485338,-0.19181163,0.53040824

>  <Name>
1ntb_lig

>  <RI>
0

>  <Rbt.Current_Directory>
/home/itssahil/PROJECTS/Mol_Feturizer/New_Systems/rnas/1ntb

>  <Rbt.Executable>
rbdock ($Id: //depot/dev/client3/rdock/2013.1/src/exe/rbdock.cxx#4 $)

>  <Rbt.Library>
libRbt.so (2013.1, Build901 2013/11/27)

>  <Rbt.Parameter_File>
/export/apps/rDock/src/rDock_2013.1_src/data/scripts/dock_solv.prm

>  <Rbt.Receptor>
prm/pocket_docking_2.prm

>  <SCORE>
-12.5396

>  <SCORE.INTER>
-6.95203

>  <SCORE.INTER.CONST>
1

>  <SCORE.INTER.POLAR>
-1.59535

>  <SCORE.INTER.ROT>
11

>  <SCORE.INTER.SOLV>
27.2481

>  <SCORE.INTER.VDW>
-19.3329

>  <SCORE.INTER.norm>
-0.173801

>  <SCORE.INTRA>
-6.20766

>  <SCORE.INTRA.DIHEDRAL>
-3.90055

>  <SCORE.INTRA.DIHEDRAL.0>
15.4453

>  <SCORE.INTRA.POLAR>
0

>  <SCORE.INTRA.POLAR.0>
0

>  <SCORE.INTRA.REPUL>
-0.823958

>  <SCORE.INTRA.REPUL.0>
0.823958

>  <SCORE.INTRA.SOLV>
1.34227

>  <SCORE.INTRA.SOLV.lig_0>
-99.3069

>  <SCORE.INTRA.VDW>
-0.808726

>  <SCORE.INTRA.VDW.0>
0.946495

>  <SCORE.INTRA.norm>
-0.155191

>  <SCORE.RESTR>
0.620083

>  <SCORE.RESTR.CAVITY>
0.620083

>  <SCORE.RESTR.norm>
0.0155021

>  <SCORE.SYSTEM>
0

>  <SCORE.SYSTEM.CONST>
0

>  <SCORE.SYSTEM.DIHEDRAL>
0

>  <SCORE.SYSTEM.SOLV>
0

>  <SCORE.SYSTEM.norm>
0

>  <SCORE.heavy>
40

>  <SCORE.norm>
-0.31349

>  <RMSD>
1.340

$$$$
1ntb_lig
 OpenBabel11021811403D
libRbt.so/2013.1/901 2013/11/27
 40 42  0  0  0  0  0  0  0  0999 V2000
   10.0669   32.0477   -2.9973 C   0  0  0  0  0  0  0  0  0  0  0  0
   10.0562   30.8627   -3.4726 N   0  0  0  0  0  0  0  0  0  0  0  0
   -0.2557   35.0602   -3.5739 C   0  0  0  0  0  0  0  0  0  0  0  0
    0.4729   35.7290   -4.5899 O   0  0  0  0  0  0  0  0  0  0  0  0
    5.7984   35.8811    0.3659 C   0  0  0  0  0  0  0  0  0  0  0  0
    5.3264   36.9895   -0.0820 N   0  0  0  0  0  0  0  0  0  0  0  0
    0.5419   31.9082   -3.6695 C   0  0  0  0  0  0  0  0  0  0  0  0
   -1.5656   34.9801    1.1496 C   0  0  0  0  0  0  0  0  0  0  0  0
    8.1179   33.1352   -2.2327 C   0  0  2  0  0  0  0  0  0  0  0  0
    9.3057   32.2445   -1.9380 N   0  0  0  0  0  0  0  0  0  0  0  0
    2.9475   33.9617   -2.1361 C   0  0  2  0  0  0  0  0  0  0  0  0
    0.4864   36.3010   -0.8590 C   0  0  1  0  0  0  0  0  0  0  0  0
    1.5472   35.3645   -0.8997 O   0  0  0  0  0  0  0  0  0  0  0  0
    7.3780   33.5014   -0.9508 C   0  0  1  0  0  0  0  0  0  0  0  0
    8.4060   34.1658   -0.0942 O   0  0  0  0  0  0  0  0  0  0  0  0
    1.8143   34.9710   -2.1681 C   0  0  2  0  0  0  0  0  0  0  0  0
    0.1875   36.6310    0.5833 C   0  0  1  0  0  0  0  0  0  0  0  0
   -0.2172   35.4566    1.2720 N   0  0  0  0  0  0  0  0  0  0  0  0
    6.1512   34.3764   -1.1997 C   0  0  2  0  0  0  0  0  0  0  0  0
    5.4131   34.7578   -0.0134 N   0  0  0  0  0  0  0  0  0  0  0  0
    0.6756   34.1875   -2.7652 C   0  0  1  0  0  0  0  0  0  0  0  0
   -0.0531   33.5183   -1.7307 O   0  0  0  0  0  0  0  0  0  0  0  0
    1.4571   37.1826    1.2098 C   0  0  2  0  0  0  0  0  0  0  0  0
    1.2352   37.4995    2.5666 O   0  0  0  0  0  0  0  0  0  0  0  0
    5.2236   33.6266   -2.1202 C   0  0  1  0  0  0  0  0  0  0  0  0
    4.1847   34.5850   -2.4644 O   0  0  0  0  0  0  0  0  0  0  0  0
    1.3386   33.1868   -3.6378 C   0  0  1  0  0  0  0  0  0  0  0  0
    2.6357   32.9428   -3.0889 O   0  0  0  0  0  0  0  0  0  0  0  0
    1.8324   38.4390    0.4236 C   0  0  1  0  0  0  0  0  0  0  0  0
    3.0196   39.0131    0.9477 O   0  0  0  0  0  0  0  0  0  0  0  0
    5.9487   33.2911   -3.4513 C   0  0  2  0  0  0  0  0  0  0  0  0
    5.0541   32.5985   -4.3082 O   0  0  0  0  0  0  0  0  0  0  0  0
    2.0372   38.0623   -1.0441 C   0  0  1  0  0  0  0  0  0  0  0  0
    0.8430   37.4847   -1.5690 O   0  0  0  0  0  0  0  0  0  0  0  0
    7.1705   32.3991   -3.1581 C   0  0  1  0  0  0  0  0  0  0  0  0
    7.8512   32.0801   -4.3776 O   0  0  0  0  0  0  0  0  0  0  0  0
    2.3809   39.3239   -1.8365 C   0  0  0  0  0  0  0  0  0  0  0  0
    3.7146   39.7085   -1.5441 O   0  0  0  0  0  0  0  0  0  0  0  0
   10.7534   32.9980   -3.5276 N   0  0  0  0  0  0  0  0  0  0  0  0
    6.7314   35.9027    1.1879 N   0  0  0  0  0  0  0  0  0  0  0  0
  1  2  1  0  0  0  0
  1 39  1  0  0  0  0
  3  4  1  0  0  0  0
  5  6  1  0  0  0  0
  5 40  1  0  0  0  0
  9 10  1  1  0  0  0
  9 14  1  0  0  0  0
  9 35  1  0  0  0  0
 10  1  1  0  0  0  0
 11 16  1  0  0  0  0
 11 28  1  0  0  0  0
 11 26  1  6  0  0  0
 12 17  1  0  0  0  0
 12 34  1  0  0  0  0
 12 13  1  1  0  0  0
 14 15  1  1  0  0  0
 14 19  1  0  0  0  0
 16 13  1  1  0  0  0
 16 21  1  0  0  0  0
 17 18  1  1  0  0  0
 17 23  1  0  0  0  0
 18  8  1  0  0  0  0
 19 20  1  1  0  0  0
 19 25  1  0  0  0  0
 20  5  1  0  0  0  0
 21  3  1  6  0  0  0
 21 22  1  0  0  0  0
 21 27  1  0  0  0  0
 23 24  1  1  0  0  0
 23 29  1  0  0  0  0
 25 26  1  6  0  0  0
 25 31  1  0  0  0  0
 27  7  1  1  0  0  0
 27 28  1  0  0  0  0
 29 30  1  1  0  0  0
 29 33  1  0  0  0  0
 31 32  1  6  0  0  0
 31 35  1  0  0  0  0
 33 34  1  0  0  0  0
 33 37  1  6  0  0  0
 35 36  1  6  0  0  0
 37 38  1  0  0  0  0
M  END
>  <CHROM.1>
-171.86062851,-111.18743497,167.70188523,176.60138452,-179.45622904,-80.25733836
95.23216612,86.01301413,56.70669993,-125.62009824,74.07114331,3.85817800
34.92924121,-1.55111731,-0.51389085,-0.12256782,0.71922913

>  <Name>
1ntb_lig

>  <RI>
0

>  <Rbt.Current_Directory>
/home/itssahil/PROJECTS/Mol_Feturizer/New_Systems/rnas/1ntb

>  <Rbt.Executable>
rbdock ($Id: //depot/dev/client3/rdock/2013.1/src/exe/rbdock.cxx#4 $)

>  <Rbt.Library>
libRbt.so (2013.1, Build901 2013/11/27)

>  <Rbt.Parameter_File>
/export/apps/rDock/src/rDock_2013.1_src/data/scripts/dock_solv.prm

>  <Rbt.Receptor>
prm/pocket_docking_5.prm

>  <SCORE>
-20.7767

>  <SCORE.INTER>
-10.9521

>  <SCORE.INTER.CONST>
1

>  <SCORE.INTER.POLAR>
-1.94332

>  <SCORE.INTER.ROT>
11

>  <SCORE.INTER.SOLV>
28.8898

>  <SCORE.INTER.VDW>
-21.3869

>  <SCORE.INTER.norm>
-0.273802

>  <SCORE.INTRA>
-9.82465

>  <SCORE.INTRA.DIHEDRAL>
-4.62168

>  <SCORE.INTRA.DIHEDRAL.0>
15.4453

>  <SCORE.INTRA.POLAR>
0

>  <SCORE.INTRA.POLAR.0>
0

>  <SCORE.INTRA.REPUL>
-0.821172

>  <SCORE.INTRA.REPUL.0>
0.823958

>  <SCORE.INTRA.SOLV>
1.59636

>  <SCORE.INTRA.SOLV.lig_0>
-99.3069

>  <SCORE.INTRA.VDW>
-4.20613

>  <SCORE.INTRA.VDW.0>
0.946495

>  <SCORE.INTRA.norm>
-0.245616

>  <SCORE.RESTR>
0

>  <SCORE.RESTR.CAVITY>
0

>  <SCORE.RESTR.norm>
0

>  <SCORE.SYSTEM>
0

>  <SCORE.SYSTEM.CONST>
0

>  <SCORE.SYSTEM.DIHEDRAL>
0

>  <SCORE.SYSTEM.SOLV>
0

>  <SCORE.SYSTEM.norm>
0

>  <SCORE.heavy>
40

>  <SCORE.norm>
-0.519419

>  <RMSD>
1.344

$$$$
1ntb_lig
 OpenBabel11021811403D
libRbt.so/2013.1/901 2013/11/27
 40 42  0  0  0  0  0  0  0  0999 V2000
    9.9477   33.3006   -1.1303 C   0  0  0  0  0  0  0  0  0  0  0  0
   10.3595   34.4796   -0.8648 N   0  0  0  0  0  0  0  0  0  0  0  0
   -0.6154   34.9620   -3.7719 C   0  0  0  0  0  0  0  0  0  0  0  0
    0.1227   35.9315   -4.4969 O   0  0  0  0  0  0  0  0  0  0  0  0
    4.8859   36.6439    0.6276 C   0  0  0  0  0  0  0  0  0  0  0  0
    5.7240   36.9862    1.5400 N   0  0  0  0  0  0  0  0  0  0  0  0
    0.6712   32.0691   -4.5174 C   0  0  0  0  0  0  0  0  0  0  0  0
   -2.6153   33.5492    0.1749 C   0  0  0  0  0  0  0  0  0  0  0  0
    7.6183   33.6735   -1.1577 C   0  0  2  0  0  0  0  0  0  0  0  0
    8.8089   32.9526   -0.5628 N   0  0  0  0  0  0  0  0  0  0  0  0
    2.5127   33.9030   -2.1507 C   0  0  2  0  0  0  0  0  0  0  0  0
   -0.3791   35.5707   -0.7327 C   0  0  1  0  0  0  0  0  0  0  0  0
    0.7654   34.7458   -0.8493 O   0  0  0  0  0  0  0  0  0  0  0  0
    6.7043   34.2144   -0.0637 C   0  0  1  0  0  0  0  0  0  0  0  0
    7.5775   35.1088    0.7545 O   0  0  0  0  0  0  0  0  0  0  0  0
    1.2487   34.7426   -2.1147 C   0  0  2  0  0  0  0  0  0  0  0  0
   -0.9913   35.3588    0.6308 C   0  0  1  0  0  0  0  0  0  0  0  0
   -1.3922   34.0037    0.7731 N   0  0  0  0  0  0  0  0  0  0  0  0
    5.4702   34.9254   -0.6154 C   0  0  2  0  0  0  0  0  0  0  0  0
    4.5690   35.4633    0.3827 N   0  0  0  0  0  0  0  0  0  0  0  0
    0.3313   34.0201   -3.0652 C   0  0  1  0  0  0  0  0  0  0  0  0
   -0.4084   33.0160   -2.3626 O   0  0  0  0  0  0  0  0  0  0  0  0
    0.0611   35.6959    1.6736 C   0  0  2  0  0  0  0  0  0  0  0  0
   -0.4578   35.5045    2.9716 O   0  0  0  0  0  0  0  0  0  0  0  0
    4.7093   33.9433   -1.4678 C   0  0  1  0  0  0  0  0  0  0  0  0
    3.6686   34.7331   -2.1077 O   0  0  0  0  0  0  0  0  0  0  0  0
    1.2476   33.3766   -4.0394 C   0  0  1  0  0  0  0  0  0  0  0  0
    2.4870   33.1487   -3.3647 O   0  0  0  0  0  0  0  0  0  0  0  0
    0.4435   37.1611    1.4632 C   0  0  1  0  0  0  0  0  0  0  0  0
    1.4334   37.5526    2.4016 O   0  0  0  0  0  0  0  0  0  0  0  0
    5.6131   33.4220   -2.6174 C   0  0  2  0  0  0  0  0  0  0  0  0
    4.8736   32.5107   -3.4154 O   0  0  0  0  0  0  0  0  0  0  0  0
    0.9742   37.3352    0.0398 C   0  0  1  0  0  0  0  0  0  0  0  0
   -0.0219   36.9404   -0.9021 O   0  0  0  0  0  0  0  0  0  0  0  0
    6.8376   32.7024   -2.0199 C   0  0  1  0  0  0  0  0  0  0  0  0
    7.6824   32.2147   -3.0689 O   0  0  0  0  0  0  0  0  0  0  0  0
    1.3265   38.8064   -0.1816 C   0  0  0  0  0  0  0  0  0  0  0  0
    1.7138   38.9940   -1.5334 O   0  0  0  0  0  0  0  0  0  0  0  0
   10.6088   32.4913   -1.8811 N   0  0  0  0  0  0  0  0  0  0  0  0
    4.3034   37.5256   -0.0281 N   0  0  0  0  0  0  0  0  0  0  0  0
  1  2  1  0  0  0  0
  1 39  1  0  0  0  0
  3  4  1  0  0  0  0
  5  6  1  0  0  0  0
  5 40  1  0  0  0  0
  9 10  1  1  0  0  0
  9 14  1  0  0  0  0
  9 35  1  0  0  0  0
 10  1  1  0  0  0  0
 11 16  1  0  0  0  0
 11 28  1  0  0  0  0
 11 26  1  6  0  0  0
 12 17  1  0  0  0  0
 12 34  1  0  0  0  0
 12 13  1  1  0  0  0
 14 15  1  6  0  0  0
 14 19  1  0  0  0  0
 16 13  1  1  0  0  0
 16 21  1  0  0  0  0
 17 18  1  6  0  0  0
 17 23  1  0  0  0  0
 18  8  1  0  0  0  0
 19 20  1  1  0  0  0
 19 25  1  0  0  0  0
 20  5  1  0  0  0  0
 21  3  1  6  0  0  0
 21 22  1  0  0  0  0
 21 27  1  0  0  0  0
 23 24  1  1  0  0  0
 23 29  1  0  0  0  0
 25 26  1  6  0  0  0
 25 31  1  0  0  0  0
 27  7  1  1  0  0  0
 27 28  1  0  0  0  0
 29 30  1  1  0  0  0
 29 33  1  0  0  0  0
 31 32  1  6  0  0  0
 31 35  1  0  0  0  0
 33 34  1  0  0  0  0
 33 37  1  6  0  0  0
 35 36  1  6  0  0  0
 37 38  1  0  0  0  0
M  END
>  <CHROM.1>
-133.64718066,71.02963248,151.19122521,171.08748787,176.95479364,-78.94387498
91.61690137,-89.92503298,58.83699217,-142.42749935,-175.19299158,3.16378741
34.84831811,-1.05569027,-0.19996314,-0.11991533,0.87559311

>  <Name>
1ntb_lig

>  <RI>
0

>  <Rbt.Current_Directory>
/home/itssahil/PROJECTS/Mol_Feturizer/New_Systems/rnas/1ntb

>  <Rbt.Executable>
rbdock ($Id: //depot/dev/client3/rdock/2013.1/src/exe/rbdock.cxx#4 $)

>  <Rbt.Library>
libRbt.so (2013.1, Build901 2013/11/27)

>  <Rbt.Parameter_File>
/export/apps/rDock/src/rDock_2013.1_src/data/scripts/dock_solv.prm

>  <Rbt.Receptor>
prm/pocket_docking_3.prm

>  <SCORE>
-22.0704

>  <SCORE.INTER>
-10.5114

>  <SCORE.INTER.CONST>
1

>  <SCORE.INTER.POLAR>
-1.79453

>  <SCORE.INTER.ROT>
11

>  <SCORE.INTER.SOLV>
22.968

>  <SCORE.INTER.VDW>
-19.6151

>  <SCORE.INTER.norm>
-0.262785

>  <SCORE.INTRA>
-11.559

>  <SCORE.INTRA.DIHEDRAL>
-3.07417

>  <SCORE.INTRA.DIHEDRAL.0>
15.4453

>  <SCORE.INTRA.POLAR>
0

>  <SCORE.INTRA.POLAR.0>
0

>  <SCORE.INTRA.REPUL>
-0.813967

>  <SCORE.INTRA.REPUL.0>
0.823958

>  <SCORE.INTRA.SOLV>
0.563555

>  <SCORE.INTRA.SOLV.lig_0>
-99.3069

>  <SCORE.INTRA.VDW>
-6.2339

>  <SCORE.INTRA.VDW.0>
0.946495

>  <SCORE.INTRA.norm>
-0.288976

>  <SCORE.RESTR>
0

>  <SCORE.RESTR.CAVITY>
0

>  <SCORE.RESTR.norm>
0

>  <SCORE.SYSTEM>
0

>  <SCORE.SYSTEM.CONST>
0

>  <SCORE.SYSTEM.DIHEDRAL>
0

>  <SCORE.SYSTEM.SOLV>
0

>  <SCORE.SYSTEM.norm>
0

>  <SCORE.heavy>
40

>  <SCORE.norm>
-0.551761

>  <RMSD>
1.354

$$$$
1ntb_lig
 OpenBabel11021811403D
libRbt.so/2013.1/901 2013/11/27
 40 42  0  0  0  0  0  0  0  0999 V2000
    9.9869   33.3393   -1.1492 C   0  0  0  0  0  0  0  0  0  0  0  0
   10.7525   32.5409   -1.7870 N   0  0  0  0  0  0  0  0  0  0  0  0
   -0.5372   34.2580   -4.4389 C   0  0  0  0  0  0  0  0  0  0  0  0
    0.2310   34.2165   -5.6299 O   0  0  0  0  0  0  0  0  0  0  0  0
    4.5327   36.0280    0.1388 C   0  0  0  0  0  0  0  0  0  0  0  0
    4.3698   37.1823   -0.4026 N   0  0  0  0  0  0  0  0  0  0  0  0
    0.1530   31.5669   -2.7472 C   0  0  0  0  0  0  0  0  0  0  0  0
   -1.9021   36.4594   -0.2647 C   0  0  0  0  0  0  0  0  0  0  0  0
    7.6715   33.5429   -1.5535 C   0  0  2  0  0  0  0  0  0  0  0  0
    8.8042   32.8557   -0.8214 N   0  0  0  0  0  0  0  0  0  0  0  0
    2.5945   34.0850   -2.5162 C   0  0  2  0  0  0  0  0  0  0  0  0
    0.0715   36.6737   -2.7421 C   0  0  1  0  0  0  0  0  0  0  0  0
    1.2172   35.9610   -2.3138 O   0  0  0  0  0  0  0  0  0  0  0  0
    6.5432   33.9082   -0.5951 C   0  0  1  0  0  0  0  0  0  0  0  0
    7.1852   34.7800    0.4343 O   0  0  0  0  0  0  0  0  0  0  0  0
    1.4977   34.9269   -3.1425 C   0  0  2  0  0  0  0  0  0  0  0  0
   -0.2910   37.6877   -1.6843 C   0  0  1  0  0  0  0  0  0  0  0  0
   -0.5981   37.0243   -0.4666 N   0  0  0  0  0  0  0  0  0  0  0  0
    5.3615   34.5782   -1.2932 C   0  0  2  0  0  0  0  0  0  0  0  0
    4.2622   34.9507   -0.4270 N   0  0  0  0  0  0  0  0  0  0  0  0
    0.3458   33.9631   -3.2489 C   0  0  1  0  0  0  0  0  0  0  0  0
   -0.4276   33.9907   -2.0447 O   0  0  0  0  0  0  0  0  0  0  0  0
    0.9055   38.6025   -1.4838 C   0  0  2  0  0  0  0  0  0  0  0  0
    0.6229   39.5674   -0.4940 O   0  0  0  0  0  0  0  0  0  0  0  0
    4.8433   33.6308   -2.3439 C   0  0  1  0  0  0  0  0  0  0  0  0
    3.8593   34.4015   -3.0882 O   0  0  0  0  0  0  0  0  0  0  0  0
    0.9925   32.6357   -3.3979 C   0  0  1  0  0  0  0  0  0  0  0  0
    2.2682   32.7145   -2.7580 O   0  0  0  0  0  0  0  0  0  0  0  0
    1.1778   39.2807   -2.8267 C   0  0  1  0  0  0  0  0  0  0  0  0
    2.2925   40.1526   -2.7224 O   0  0  0  0  0  0  0  0  0  0  0  0
    5.9691   33.2896   -3.3570 C   0  0  2  0  0  0  0  0  0  0  0  0
    5.4566   32.4087   -4.3446 O   0  0  0  0  0  0  0  0  0  0  0  0
    1.4516   38.2052   -3.8784 C   0  0  1  0  0  0  0  0  0  0  0  0
    0.3304   37.3291   -3.9813 O   0  0  0  0  0  0  0  0  0  0  0  0
    7.1345   32.6059   -2.6163 C   0  0  1  0  0  0  0  0  0  0  0  0
    8.1827   32.2841   -3.5382 O   0  0  0  0  0  0  0  0  0  0  0  0
    1.6921   38.8814   -5.2284 C   0  0  0  0  0  0  0  0  0  0  0  0
    0.5250   39.5934   -5.6070 O   0  0  0  0  0  0  0  0  0  0  0  0
   10.3312   34.5460   -0.8645 N   0  0  0  0  0  0  0  0  0  0  0  0
    5.0374   35.9514    1.2729 N   0  0  0  0  0  0  0  0  0  0  0  0
  1  2  1  0  0  0  0
  1 39  1  0  0  0  0
  3  4  1  0  0  0  0
  5  6  1  0  0  0  0
  5 40  1  0  0  0  0
  9 10  1  1  0  0  0
  9 14  1  0  0  0  0
  9 35  1  0  0  0  0
 10  1  1  0  0  0  0
 11 16  1  0  0  0  0
 11 28  1  0  0  0  0
 11 26  1  6  0  0  0
 12 17  1  0  0  0  0
 12 34  1  0  0  0  0
 12 13  1  1  0  0  0
 14 15  1  1  0  0  0
 14 19  1  0  0  0  0
 16 13  1  1  0  0  0
 16 21  1  0  0  0  0
 17 18  1  1  0  0  0
 17 23  1  0  0  0  0
 18  8  1  0  0  0  0
 19 20  1  1  0  0  0
 19 25  1  0  0  0  0
 20  5  1  0  0  0  0
 21  3  1  6  0  0  0
 21 22  1  0  0  0  0
 21 27  1  0  0  0  0
 23 24  1  1  0  0  0
 23 29  1  0  0  0  0
 25 26  1  6  0  0  0
 25 31  1  0  0  0  0
 27  7  1  1  0  0  0
 27 28  1  0  0  0  0
 29 30  1  1  0  0  0
 29 33  1  0  0  0  0
 31 32  1  6  0  0  0
 31 35  1  0  0  0  0
 33 34  1  0  0  0  0
 33 37  1  6  0  0  0
 35 36  1  6  0  0  0
 37 38  1  0  0  0  0
M  END
>  <CHROM.1>
-133.57451238,-112.96369281,175.21704945,172.52515080,-171.39483780,-81.70772734
80.79464446,82.07202694,57.75967924,-95.80835758,-61.72457664,3.32562729
35.28203685,-2.27739913,-0.35280454,-0.31373800,0.36312205

>  <Name>
1ntb_lig

>  <RI>
0

>  <Rbt.Current_Directory>
/home/itssahil/PROJECTS/Mol_Feturizer/New_Systems/rnas/1ntb

>  <Rbt.Executable>
rbdock ($Id: //depot/dev/client3/rdock/2013.1/src/exe/rbdock.cxx#4 $)

>  <Rbt.Library>
libRbt.so (2013.1, Build901 2013/11/27)

>  <Rbt.Parameter_File>
/export/apps/rDock/src/rDock_2013.1_src/data/scripts/dock_solv.prm

>  <Rbt.Receptor>
prm/pocket_docking_6.prm

>  <SCORE>
-24.2259

>  <SCORE.INTER>
-12.3878

>  <SCORE.INTER.CONST>
1

>  <SCORE.INTER.POLAR>
-1.03114

>  <SCORE.INTER.ROT>
11

>  <SCORE.INTER.SOLV>
24.7585

>  <SCORE.INTER.VDW>
-24.0075

>  <SCORE.INTER.norm>
-0.309694

>  <SCORE.INTRA>
-11.8381

>  <SCORE.INTRA.DIHEDRAL>
-7.05446

>  <SCORE.INTRA.DIHEDRAL.0>
15.4453

>  <SCORE.INTRA.POLAR>
0

>  <SCORE.INTRA.POLAR.0>
0

>  <SCORE.INTRA.REPUL>
-0.823958

>  <SCORE.INTRA.REPUL.0>
0.823958

>  <SCORE.INTRA.SOLV>
-0.601156

>  <SCORE.INTRA.SOLV.lig_0>
-99.3069

>  <SCORE.INTRA.VDW>
-3.89052

>  <SCORE.INTRA.VDW.0>
0.946495

>  <SCORE.INTRA.norm>
-0.295953

>  <SCORE.RESTR>
0

>  <SCORE.RESTR.CAVITY>
0

>  <SCORE.RESTR.norm>
0

>  <SCORE.SYSTEM>
0

>  <SCORE.SYSTEM.CONST>
0

>  <SCORE.SYSTEM.DIHEDRAL>
0

>  <SCORE.SYSTEM.SOLV>
0

>  <SCORE.SYSTEM.norm>
0

>  <SCORE.heavy>
40

>  <SCORE.norm>
-0.605647

>  <RMSD>
1.358

$$$$
1ntb_lig
 OpenBabel11021811403D
libRbt.so/2013.1/901 2013/11/27
 40 42  0  0  0  0  0  0  0  0999 V2000
    9.9750   33.3198   -1.0856 C   0  0  0  0  0  0  0  0  0  0  0  0
   10.7002   32.5112   -1.7567 N   0  0  0  0  0  0  0  0  0  0  0  0
   -0.6295   34.9228   -3.7584 C   0  0  0  0  0  0  0  0  0  0  0  0
    0.1145   35.8431   -4.5393 O   0  0  0  0  0  0  0  0  0  0  0  0
    4.9383   36.5581    0.5371 C   0  0  0  0  0  0  0  0  0  0  0  0
    4.6167   37.5616   -0.1989 N   0  0  0  0  0  0  0  0  0  0  0  0
    0.5638   31.9696   -4.4175 C   0  0  0  0  0  0  0  0  0  0  0  0
   -2.6277   33.7643    0.1452 C   0  0  0  0  0  0  0  0  0  0  0  0
    7.6345   33.5631   -1.2550 C   0  0  2  0  0  0  0  0  0  0  0  0
    8.8228   32.8363   -0.6627 N   0  0  0  0  0  0  0  0  0  0  0  0
    2.5104   33.8466   -2.1719 C   0  0  2  0  0  0  0  0  0  0  0  0
   -0.2818   35.6694   -0.7471 C   0  0  1  0  0  0  0  0  0  0  0  0
    0.8185   34.7863   -0.8637 O   0  0  0  0  0  0  0  0  0  0  0  0
    6.7298   34.1156   -0.1590 C   0  0  1  0  0  0  0  0  0  0  0  0
    7.6135   35.0074    0.6507 O   0  0  0  0  0  0  0  0  0  0  0  0
    1.2696   34.7201   -2.1392 C   0  0  2  0  0  0  0  0  0  0  0  0
   -0.9103   35.4824    0.6125 C   0  0  1  0  0  0  0  0  0  0  0  0
   -1.3821   34.1494    0.7456 N   0  0  0  0  0  0  0  0  0  0  0  0
    5.4982   34.8329   -0.7078 C   0  0  2  0  0  0  0  0  0  0  0  0
    4.6059   35.3819    0.2922 N   0  0  0  0  0  0  0  0  0  0  0  0
    0.3104   33.9850   -3.0374 C   0  0  1  0  0  0  0  0  0  0  0  0
   -0.4367   33.0294   -2.2772 O   0  0  0  0  0  0  0  0  0  0  0  0
    0.1537   35.7583    1.6616 C   0  0  2  0  0  0  0  0  0  0  0  0
   -0.3802   35.5874    2.9563 O   0  0  0  0  0  0  0  0  0  0  0  0
    4.7260   33.8525   -1.5520 C   0  0  1  0  0  0  0  0  0  0  0  0
    3.6878   34.6468   -2.1903 O   0  0  0  0  0  0  0  0  0  0  0  0
    1.1851   33.2793   -4.0066 C   0  0  1  0  0  0  0  0  0  0  0  0
    2.4349   33.0456   -3.3535 O   0  0  0  0  0  0  0  0  0  0  0  0
    0.6132   37.2026    1.4610 C   0  0  1  0  0  0  0  0  0  0  0  0
    1.6180   37.5367    2.4057 O   0  0  0  0  0  0  0  0  0  0  0  0
    5.6202   33.3194   -2.7036 C   0  0  2  0  0  0  0  0  0  0  0  0
    4.8703   32.4098   -3.4938 O   0  0  0  0  0  0  0  0  0  0  0  0
    1.1585   37.3564    0.0409 C   0  0  1  0  0  0  0  0  0  0  0  0
    0.1473   37.0193   -0.9074 O   0  0  0  0  0  0  0  0  0  0  0  0
    6.8425   32.5938   -2.1088 C   0  0  1  0  0  0  0  0  0  0  0  0
    7.6786   32.0952   -3.1598 O   0  0  0  0  0  0  0  0  0  0  0  0
    1.5883   38.8083   -0.1709 C   0  0  0  0  0  0  0  0  0  0  0  0
    0.4649   39.6567    0.0045 O   0  0  0  0  0  0  0  0  0  0  0  0
   10.3282   34.5355   -0.8555 N   0  0  0  0  0  0  0  0  0  0  0  0
    5.6674   36.7371    1.5286 N   0  0  0  0  0  0  0  0  0  0  0  0
  1  2  1  0  0  0  0
  1 39  1  0  0  0  0
  3  4  1  0  0  0  0
  5  6  1  0  0  0  0
  5 40  1  0  0  0  0
  9 10  1  1  0  0  0
  9 14  1  0  0  0  0
  9 35  1  0  0  0  0
 10  1  1  0  0  0  0
 11 16  1  0  0  0  0
 11 28  1  0  0  0  0
 11 26  1  6  0  0  0
 12 17  1  0  0  0  0
 12 34  1  0  0  0  0
 12 13  1  1  0  0  0
 14 15  1  6  0  0  0
 14 19  1  0  0  0  0
 16 13  1  1  0  0  0
 16 21  1  0  0  0  0
 17 18  1  6  0  0  0
 17 23  1  0  0  0  0
 18  8  1  0  0  0  0
 19 20  1  1  0  0  0
 19 25  1  0  0  0  0
 20  5  1  0  0  0  0
 21  3  1  6  0  0  0
 21 22  1  0  0  0  0
 21 27  1  0  0  0  0
 23 24  1  1  0  0  0
 23 29  1  0  0  0  0
 25 26  1  6  0  0  0
 25 31  1  0  0  0  0
 27  7  1  1  0  0  0
 27 28  1  0  0  0  0
 29 30  1  1  0  0  0
 29 33  1  0  0  0  0
 31 32  1  1  0  0  0
 31 35  1  0  0  0  0
 33 34  1  0  0  0  0
 33 37  1  6  0  0  0
 35 36  1  6  0  0  0
 37 38  1  0  0  0  0
M  END
>  <CHROM.1>
-123.69208321,-117.01250101,151.54018736,168.39531686,175.58273103,-79.23984009
91.14891403,80.55430063,58.82728371,-139.98493854,-60.23373340,3.17033083
34.84102827,-1.04013293,-0.23763084,-0.12520050,0.84341765

>  <Name>
1ntb_lig

>  <RI>
0

>  <Rbt.Current_Directory>
/home/itssahil/PROJECTS/Mol_Feturizer/New_Systems/rnas/1ntb

>  <Rbt.Executable>
rbdock ($Id: //depot/dev/client3/rdock/2013.1/src/exe/rbdock.cxx#4 $)

>  <Rbt.Library>
libRbt.so (2013.1, Build901 2013/11/27)

>  <Rbt.Parameter_File>
/export/apps/rDock/src/rDock_2013.1_src/data/scripts/dock_solv.prm

>  <Rbt.Receptor>
prm/pocket_docking_3.prm

>  <SCORE>
-22.1401

>  <SCORE.INTER>
-10.4759

>  <SCORE.INTER.CONST>
1

>  <SCORE.INTER.POLAR>
-1.81518

>  <SCORE.INTER.ROT>
11

>  <SCORE.INTER.SOLV>
23.9771

>  <SCORE.INTER.VDW>
-19.8591

>  <SCORE.INTER.norm>
-0.261899

>  <SCORE.INTRA>
-11.6642

>  <SCORE.INTRA.DIHEDRAL>
-2.65045

>  <SCORE.INTRA.DIHEDRAL.0>
15.4453

>  <SCORE.INTRA.POLAR>
0

>  <SCORE.INTRA.POLAR.0>
0

>  <SCORE.INTRA.REPUL>
-0.810723

>  <SCORE.INTRA.REPUL.0>
0.823958

>  <SCORE.INTRA.SOLV>
0.117346

>  <SCORE.INTRA.SOLV.lig_0>
-99.3069

>  <SCORE.INTRA.VDW>
-6.34399

>  <SCORE.INTRA.VDW.0>
0.946495

>  <SCORE.INTRA.norm>
-0.291604

>  <SCORE.RESTR>
0

>  <SCORE.RESTR.CAVITY>
0

>  <SCORE.RESTR.norm>
0

>  <SCORE.SYSTEM>
0

>  <SCORE.SYSTEM.CONST>
0

>  <SCORE.SYSTEM.DIHEDRAL>
0

>  <SCORE.SYSTEM.SOLV>
0

>  <SCORE.SYSTEM.norm>
0

>  <SCORE.heavy>
40

>  <SCORE.norm>
-0.553502

>  <RMSD>
1.363

$$$$
1ntb_lig
 OpenBabel11021811403D
libRbt.so/2013.1/901 2013/11/27
 40 42  0  0  0  0  0  0  0  0999 V2000
    9.9707   33.2980   -1.0811 C   0  0  0  0  0  0  0  0  0  0  0  0
   10.7060   32.4716   -1.7189 N   0  0  0  0  0  0  0  0  0  0  0  0
   -0.5394   34.1626   -4.4346 C   0  0  0  0  0  0  0  0  0  0  0  0
    0.2371   34.1599   -5.6209 O   0  0  0  0  0  0  0  0  0  0  0  0
    4.4464   35.9053    0.1773 C   0  0  0  0  0  0  0  0  0  0  0  0
    4.3835   37.0723   -0.3578 N   0  0  0  0  0  0  0  0  0  0  0  0
    0.1342   31.4977   -2.6954 C   0  0  0  0  0  0  0  0  0  0  0  0
   -1.8592   37.1229    0.1498 C   0  0  0  0  0  0  0  0  0  0  0  0
    7.6552   33.5115   -1.4794 C   0  0  2  0  0  0  0  0  0  0  0  0
    8.7844   32.8466   -0.7218 N   0  0  0  0  0  0  0  0  0  0  0  0
    2.5975   33.9990   -2.5195 C   0  0  2  0  0  0  0  0  0  0  0  0
    0.0818   36.5903   -2.7716 C   0  0  1  0  0  0  0  0  0  0  0  0
    1.2367   35.8899   -2.3474 O   0  0  0  0  0  0  0  0  0  0  0  0
    6.4977   33.8521   -0.5472 C   0  0  1  0  0  0  0  0  0  0  0  0
    7.0974   34.7353    0.4979 O   0  0  0  0  0  0  0  0  0  0  0  0
    1.5056   34.8383   -3.1576 C   0  0  2  0  0  0  0  0  0  0  0  0
   -0.2941   37.5928   -1.7075 C   0  0  1  0  0  0  0  0  0  0  0  0
   -0.5929   36.9177   -0.4941 N   0  0  0  0  0  0  0  0  0  0  0  0
    5.3190   34.4988   -1.2718 C   0  0  2  0  0  0  0  0  0  0  0  0
    4.1924   34.8473   -0.4311 N   0  0  0  0  0  0  0  0  0  0  0  0
    0.3453   33.8825   -3.2422 C   0  0  1  0  0  0  0  0  0  0  0  0
   -0.4236   33.9389   -2.0361 O   0  0  0  0  0  0  0  0  0  0  0  0
    0.8903   38.5218   -1.5007 C   0  0  2  0  0  0  0  0  0  0  0  0
    0.5949   39.4766   -0.5049 O   0  0  0  0  0  0  0  0  0  0  0  0
    4.8449   33.5426   -2.3353 C   0  0  1  0  0  0  0  0  0  0  0  0
    3.8628   34.2941   -3.1016 O   0  0  0  0  0  0  0  0  0  0  0  0
    0.9803   32.5471   -3.3687 C   0  0  1  0  0  0  0  0  0  0  0  0
    2.2589   32.6270   -2.7346 O   0  0  0  0  0  0  0  0  0  0  0  0
    1.1541   39.2121   -2.8392 C   0  0  1  0  0  0  0  0  0  0  0  0
    2.2573   40.0978   -2.7288 O   0  0  0  0  0  0  0  0  0  0  0  0
    6.0007   33.2262   -3.3223 C   0  0  2  0  0  0  0  0  0  0  0  0
    5.5296   32.3364   -4.3226 O   0  0  0  0  0  0  0  0  0  0  0  0
    1.4422   38.1469   -3.8976 C   0  0  1  0  0  0  0  0  0  0  0  0
    0.3325   37.2570   -4.0065 O   0  0  0  0  0  0  0  0  0  0  0  0
    7.1624   32.5654   -2.5554 C   0  0  1  0  0  0  0  0  0  0  0  0
    8.2381   32.2666   -3.4530 O   0  0  0  0  0  0  0  0  0  0  0  0
    1.6743   38.8348   -5.2431 C   0  0  0  0  0  0  0  0  0  0  0  0
    0.4970   39.5313   -5.6192 O   0  0  0  0  0  0  0  0  0  0  0  0
   10.3468   34.5016   -0.8251 N   0  0  0  0  0  0  0  0  0  0  0  0
    4.8314   35.7935    1.3546 N   0  0  0  0  0  0  0  0  0  0  0  0
  1  2  1  0  0  0  0
  1 39  1  0  0  0  0
  3  4  1  0  0  0  0
  5  6  1  0  0  0  0
  5 40  1  0  0  0  0
  9 10  1  1  0  0  0
  9 14  1  0  0  0  0
  9 35  1  0  0  0  0
 10  1  1  0  0  0  0
 11 16  1  0  0  0  0
 11 28  1  0  0  0  0
 11 26  1  6  0  0  0
 12 17  1  0  0  0  0
 12 34  1  0  0  0  0
 12 13  1  1  0  0  0
 14 15  1  1  0  0  0
 14 19  1  0  0  0  0
 16 13  1  1  0  0  0
 16 21  1  0  0  0  0
 17 18  1  1  0  0  0
 17 23  1  0  0  0  0
 18  8  1  0  0  0  0
 19 20  1  1  0  0  0
 19 25  1  0  0  0  0
 20  5  1  0  0  0  0
 21  3  1  6  0  0  0
 21 22  1  0  0  0  0
 21 27  1  0  0  0  0
 23 24  1  1  0  0  0
 23 29  1  0  0  0  0
 25 26  1  6  0  0  0
 25 31  1  0  0  0  0
 27  7  1  1  0  0  0
 27 28  1  0  0  0  0
 29 30  1  1  0  0  0
 29 33  1  0  0  0  0
 31 32  1  6  0  0  0
 31 35  1  0  0  0  0
 33 34  1  0  0  0  0
 33 37  1  6  0  0  0
 35 36  1  6  0  0  0
 37 38  1  0  0  0  0
M  END
>  <CHROM.1>
-137.46436524,-110.95659304,174.49883807,170.50880173,-170.36967373,-124.49535271
78.52667265,77.58723736,54.80004399,-93.17695677,-61.86295516,3.31318258
35.22870988,-2.24860834,-0.35077118,-0.32807068,0.39193714

>  <Name>
1ntb_lig

>  <RI>
0

>  <Rbt.Current_Directory>
/home/itssahil/PROJECTS/Mol_Feturizer/New_Systems/rnas/1ntb

>  <Rbt.Executable>
rbdock ($Id: //depot/dev/client3/rdock/2013.1/src/exe/rbdock.cxx#4 $)

>  <Rbt.Library>
libRbt.so (2013.1, Build901 2013/11/27)

>  <Rbt.Parameter_File>
/export/apps/rDock/src/rDock_2013.1_src/data/scripts/dock_solv.prm

>  <Rbt.Receptor>
prm/pocket_docking_4.prm

>  <SCORE>
-24.046

>  <SCORE.INTER>
-12.5515

>  <SCORE.INTER.CONST>
1

>  <SCORE.INTER.POLAR>
-1.09232

>  <SCORE.INTER.ROT>
11

>  <SCORE.INTER.SOLV>
25.2118

>  <SCORE.INTER.VDW>
-24.0639

>  <SCORE.INTER.norm>
-0.313787

>  <SCORE.INTRA>
-11.4945

>  <SCORE.INTRA.DIHEDRAL>
-6.48354

>  <SCORE.INTRA.DIHEDRAL.0>
15.4453

>  <SCORE.INTRA.POLAR>
0

>  <SCORE.INTRA.POLAR.0>
0

>  <SCORE.INTRA.REPUL>
-0.820451

>  <SCORE.INTRA.REPUL.0>
0.823958

>  <SCORE.INTRA.SOLV>
-0.593134

>  <SCORE.INTRA.SOLV.lig_0>
-99.3069

>  <SCORE.INTRA.VDW>
-3.85395

>  <SCORE.INTRA.VDW.0>
0.946495

>  <SCORE.INTRA.norm>
-0.287364

>  <SCORE.RESTR>
0

>  <SCORE.RESTR.CAVITY>
0

>  <SCORE.RESTR.norm>
0

>  <SCORE.SYSTEM>
0

>  <SCORE.SYSTEM.CONST>
0

>  <SCORE.SYSTEM.DIHEDRAL>
0

>  <SCORE.SYSTEM.SOLV>
0

>  <SCORE.SYSTEM.norm>
0

>  <SCORE.heavy>
40

>  <SCORE.norm>
-0.601151

>  <RMSD>
1.375

$$$$
1ntb_lig
 OpenBabel11021811403D
libRbt.so/2013.1/901 2013/11/27
 40 42  0  0  0  0  0  0  0  0999 V2000
    9.9176   33.3485   -1.1970 C   0  0  0  0  0  0  0  0  0  0  0  0
   10.2832   34.5333   -0.8926 N   0  0  0  0  0  0  0  0  0  0  0  0
   -0.5892   34.1252   -4.5035 C   0  0  0  0  0  0  0  0  0  0  0  0
   -1.6830   33.2230   -4.5076 O   0  0  0  0  0  0  0  0  0  0  0  0
    4.3605   36.1042    0.0630 C   0  0  0  0  0  0  0  0  0  0  0  0
    5.0671   36.2849    1.1213 N   0  0  0  0  0  0  0  0  0  0  0  0
    0.1355   31.4739   -2.7642 C   0  0  0  0  0  0  0  0  0  0  0  0
   -2.1342   36.3091   -0.5012 C   0  0  0  0  0  0  0  0  0  0  0  0
    7.5957   33.6323   -1.5037 C   0  0  2  0  0  0  0  0  0  0  0  0
    8.7333   32.9830   -0.7452 N   0  0  0  0  0  0  0  0  0  0  0  0
    2.5207   34.0460   -2.5397 C   0  0  2  0  0  0  0  0  0  0  0  0
   -0.0275   36.6033   -2.8583 C   0  0  1  0  0  0  0  0  0  0  0  0
    1.1020   35.8952   -2.3818 O   0  0  0  0  0  0  0  0  0  0  0  0
    6.4478   33.9906   -0.5661 C   0  0  1  0  0  0  0  0  0  0  0  0
    7.0580   34.8945    0.4549 O   0  0  0  0  0  0  0  0  0  0  0  0
    1.4146   34.8554   -3.1918 C   0  0  2  0  0  0  0  0  0  0  0  0
   -0.4624   37.5885   -1.8005 C   0  0  1  0  0  0  0  0  0  0  0  0
   -0.8284   36.8938   -0.6170 N   0  0  0  0  0  0  0  0  0  0  0  0
    5.2611   34.6223   -1.2908 C   0  0  2  0  0  0  0  0  0  0  0  0
    4.1432   34.9867   -0.4450 N   0  0  0  0  0  0  0  0  0  0  0  0
    0.2845   33.8662   -3.2984 C   0  0  1  0  0  0  0  0  0  0  0  0
   -0.5046   33.8947   -2.1044 O   0  0  0  0  0  0  0  0  0  0  0  0
    0.7084   38.5131   -1.5127 C   0  0  2  0  0  0  0  0  0  0  0  0
    0.3577   39.4516   -0.5194 O   0  0  0  0  0  0  0  0  0  0  0  0
    4.7764   33.6450   -2.3301 C   0  0  1  0  0  0  0  0  0  0  0  0
    3.7857   34.3808   -3.1005 O   0  0  0  0  0  0  0  0  0  0  0  0
    0.9606   32.5507   -3.4199 C   0  0  1  0  0  0  0  0  0  0  0  0
    2.2262   32.6655   -2.7654 O   0  0  0  0  0  0  0  0  0  0  0  0
    1.0465   39.2250   -2.8228 C   0  0  1  0  0  0  0  0  0  0  0  0
    2.1417   40.1079   -2.6365 O   0  0  0  0  0  0  0  0  0  0  0  0
    5.9219   33.3098   -3.3229 C   0  0  2  0  0  0  0  0  0  0  0  0
    5.4408   32.4003   -4.3004 O   0  0  0  0  0  0  0  0  0  0  0  0
    1.3935   38.1772   -3.8809 C   0  0  1  0  0  0  0  0  0  0  0  0
    0.2917   37.2900   -4.0662 O   0  0  0  0  0  0  0  0  0  0  0  0
    7.0921   32.6649   -2.5555 C   0  0  1  0  0  0  0  0  0  0  0  0
    8.1585   32.3490   -3.4585 O   0  0  0  0  0  0  0  0  0  0  0  0
    1.7002   38.8869   -5.1999 C   0  0  0  0  0  0  0  0  0  0  0  0
    0.5195   39.5108   -5.6784 O   0  0  0  0  0  0  0  0  0  0  0  0
   10.6621   32.5498   -1.8779 N   0  0  0  0  0  0  0  0  0  0  0  0
    3.8065   37.0790   -0.4751 N   0  0  0  0  0  0  0  0  0  0  0  0
  1  2  1  0  0  0  0
  1 39  1  0  0  0  0
  3  4  1  0  0  0  0
  5  6  1  0  0  0  0
  5 40  1  0  0  0  0
  9 10  1  1  0  0  0
  9 14  1  0  0  0  0
  9 35  1  0  0  0  0
 10  1  1  0  0  0  0
 11 16  1  0  0  0  0
 11 28  1  0  0  0  0
 11 26  1  6  0  0  0
 12 17  1  0  0  0  0
 12 34  1  0  0  0  0
 12 13  1  1  0  0  0
 14 15  1  1  0  0  0
 14 19  1  0  0  0  0
 16 13  1  1  0  0  0
 16 21  1  0  0  0  0
 17 18  1  1  0  0  0
 17 23  1  0  0  0  0
 18  8  1  0  0  0  0
 19 20  1  1  0  0  0
 19 25  1  0  0  0  0
 20  5  1  0  0  0  0
 21  3  1  6  0  0  0
 21 22  1  0  0  0  0
 21 27  1  0  0  0  0
 23 24  1  1  0  0  0
 23 29  1  0  0  0  0
 25 26  1  6  0  0  0
 25 31  1  0  0  0  0
 27  7  1  1  0  0  0
 27 28  1  0  0  0  0
 29 30  1  1  0  0  0
 29 33  1  0  0  0  0
 31 32  1  6  0  0  0
 31 35  1  0  0  0  0
 33 34  1  0  0  0  0
 33 37  1  6  0  0  0
 35 36  1  6  0  0  0
 37 38  1  0  0  0  0
M  END
>  <CHROM.1>
-142.47603481,73.98889965,175.04382373,170.40790458,-173.28072914,-81.74119381
83.38363059,-83.29628313,-176.22895740,-95.90052394,-66.00482487,3.17484911
35.23591031,-2.27456636,-0.33856328,-0.26769970,0.28112696

>  <Name>
1ntb_lig

>  <RI>
0

>  <Rbt.Current_Directory>
/home/itssahil/PROJECTS/Mol_Feturizer/New_Systems/rnas/1ntb

>  <Rbt.Executable>
rbdock ($Id: //depot/dev/client3/rdock/2013.1/src/exe/rbdock.cxx#4 $)

>  <Rbt.Library>
libRbt.so (2013.1, Build901 2013/11/27)

>  <Rbt.Parameter_File>
/export/apps/rDock/src/rDock_2013.1_src/data/scripts/dock_solv.prm

>  <Rbt.Receptor>
prm/pocket_docking_4.prm

>  <SCORE>
-23.4827

>  <SCORE.INTER>
-12.2883

>  <SCORE.INTER.CONST>
1

>  <SCORE.INTER.POLAR>
-1.04271

>  <SCORE.INTER.ROT>
11

>  <SCORE.INTER.SOLV>
22.6912

>  <SCORE.INTER.VDW>
-23.2136

>  <SCORE.INTER.norm>
-0.307209

>  <SCORE.INTRA>
-11.1944

>  <SCORE.INTRA.DIHEDRAL>
-6.57257

>  <SCORE.INTRA.DIHEDRAL.0>
15.4453

>  <SCORE.INTRA.POLAR>
0

>  <SCORE.INTRA.POLAR.0>
0

>  <SCORE.INTRA.REPUL>
-0.823958

>  <SCORE.INTRA.REPUL.0>
0.823958

>  <SCORE.INTRA.SOLV>
0.62768

>  <SCORE.INTRA.SOLV.lig_0>
-99.3069

>  <SCORE.INTRA.VDW>
-4.10212

>  <SCORE.INTRA.VDW.0>
0.946495

>  <SCORE.INTRA.norm>
-0.279859

>  <SCORE.RESTR>
0

>  <SCORE.RESTR.CAVITY>
0

>  <SCORE.RESTR.norm>
0

>  <SCORE.SYSTEM>
0

>  <SCORE.SYSTEM.CONST>
0

>  <SCORE.SYSTEM.DIHEDRAL>
0

>  <SCORE.SYSTEM.SOLV>
0

>  <SCORE.SYSTEM.norm>
0

>  <SCORE.heavy>
40

>  <SCORE.norm>
-0.587068

>  <RMSD>
1.390

$$$$
1ntb_lig
 OpenBabel11021811403D
libRbt.so/2013.1/901 2013/11/27
 40 42  0  0  0  0  0  0  0  0999 V2000
    9.9951   33.2606   -1.2335 C   0  0  0  0  0  0  0  0  0  0  0  0
   10.3413   34.4501   -0.9249 N   0  0  0  0  0  0  0  0  0  0  0  0
   -0.5468   34.1410   -4.4280 C   0  0  0  0  0  0  0  0  0  0  0  0
    0.1949   33.9959   -5.6277 O   0  0  0  0  0  0  0  0  0  0  0  0
    4.4740   35.9538    0.1174 C   0  0  0  0  0  0  0  0  0  0  0  0
    5.1068   36.0281    1.2337 N   0  0  0  0  0  0  0  0  0  0  0  0
    0.1536   31.5116   -2.6459 C   0  0  0  0  0  0  0  0  0  0  0  0
   -1.8778   36.3276   -0.3539 C   0  0  0  0  0  0  0  0  0  0  0  0
    7.6736   33.5414   -1.5456 C   0  0  2  0  0  0  0  0  0  0  0  0
    8.8102   32.8796   -0.7966 N   0  0  0  0  0  0  0  0  0  0  0  0
    2.6061   34.0274   -2.5355 C   0  0  2  0  0  0  0  0  0  0  0  0
    0.0785   36.6044   -2.8173 C   0  0  1  0  0  0  0  0  0  0  0  0
    1.2374   35.9146   -2.3870 O   0  0  0  0  0  0  0  0  0  0  0  0
    6.5256   33.8865   -0.6034 C   0  0  1  0  0  0  0  0  0  0  0  0
    7.1360   34.7742    0.4316 O   0  0  0  0  0  0  0  0  0  0  0  0
    1.5050   34.8496   -3.1801 C   0  0  2  0  0  0  0  0  0  0  0  0
   -0.3031   37.6144   -1.7625 C   0  0  1  0  0  0  0  0  0  0  0  0
   -0.5977   36.9488   -0.5428 N   0  0  0  0  0  0  0  0  0  0  0  0
    5.3398   34.5302   -1.3190 C   0  0  2  0  0  0  0  0  0  0  0  0
    4.2218   34.8828   -0.4685 N   0  0  0  0  0  0  0  0  0  0  0  0
    0.3487   33.8870   -3.2379 C   0  0  1  0  0  0  0  0  0  0  0  0
   -0.4108   33.9618   -2.0268 O   0  0  0  0  0  0  0  0  0  0  0  0
    0.8760   38.5522   -1.5646 C   0  0  2  0  0  0  0  0  0  0  0  0
    0.5752   39.5144   -0.5775 O   0  0  0  0  0  0  0  0  0  0  0  0
    4.8548   33.5694   -2.3734 C   0  0  1  0  0  0  0  0  0  0  0  0
    3.8653   34.3177   -3.1330 O   0  0  0  0  0  0  0  0  0  0  0  0
    0.9892   32.5525   -3.3450 C   0  0  1  0  0  0  0  0  0  0  0  0
    2.2724   32.6500   -2.7228 O   0  0  0  0  0  0  0  0  0  0  0  0
    1.1355   39.2315   -2.9095 C   0  0  1  0  0  0  0  0  0  0  0  0
    2.2336   40.1246   -2.8076 O   0  0  0  0  0  0  0  0  0  0  0  0
    6.0006   33.2482   -3.3705 C   0  0  2  0  0  0  0  0  0  0  0  0
    5.5192   32.3542   -4.3620 O   0  0  0  0  0  0  0  0  0  0  0  0
    1.4296   38.1583   -3.9581 C   0  0  1  0  0  0  0  0  0  0  0  0
    0.3250   37.2610   -4.0584 O   0  0  0  0  0  0  0  0  0  0  0  0
    7.1698   32.5906   -2.6124 C   0  0  1  0  0  0  0  0  0  0  0  0
    8.2363   32.2875   -3.5195 O   0  0  0  0  0  0  0  0  0  0  0  0
    1.6573   38.8351   -5.3100 C   0  0  0  0  0  0  0  0  0  0  0  0
    0.4785   39.5277   -5.6885 O   0  0  0  0  0  0  0  0  0  0  0  0
   10.7586   32.4716   -1.9048 N   0  0  0  0  0  0  0  0  0  0  0  0
    4.0307   36.9926   -0.4033 N   0  0  0  0  0  0  0  0  0  0  0  0
  1  2  1  0  0  0  0
  1 39  1  0  0  0  0
  3  4  1  0  0  0  0
  5  6  1  0  0  0  0
  5 40  1  0  0  0  0
  9 10  1  1  0  0  0
  9 14  1  0  0  0  0
  9 35  1  0  0  0  0
 10  1  1  0  0  0  0
 11 16  1  0  0  0  0
 11 28  1  0  0  0  0
 11 26  1  6  0  0  0
 12 17  1  0  0  0  0
 12 34  1  0  0  0  0
 12 13  1  1  0  0  0
 14 15  1  1  0  0  0
 14 19  1  0  0  0  0
 16 13  1  1  0  0  0
 16 21  1  0  0  0  0
 17 18  1  1  0  0  0
 17 23  1  0  0  0  0
 18  8  1  0  0  0  0
 19 20  1  1  0  0  0
 19 25  1  0  0  0  0
 20  5  1  0  0  0  0
 21  3  1  6  0  0  0
 21 22  1  0  0  0  0
 21 27  1  0  0  0  0
 23 24  1  1  0  0  0
 23 29  1  0  0  0  0
 25 26  1  6  0  0  0
 25 31  1  0  0  0  0
 27  7  1  1  0  0  0
 27 28  1  0  0  0  0
 29 30  1  1  0  0  0
 29 33  1  0  0  0  0
 31 32  1  6  0  0  0
 31 35  1  0  0  0  0
 33 34  1  0  0  0  0
 33 37  1  6  0  0  0
 35 36  1  6  0  0  0
 37 38  1  0  0  0  0
M  END
>  <CHROM.1>
-141.86600936,72.49365029,175.31761862,169.92497308,-170.57091865,-79.95765720
79.50691063,-87.12334311,60.26407398,-93.08155070,-61.52780061,3.31379237
35.22206661,-2.31036301,-0.35654891,-0.30755984,0.34379663

>  <Name>
1ntb_lig

>  <RI>
0

>  <Rbt.Current_Directory>
/home/itssahil/PROJECTS/Mol_Feturizer/New_Systems/rnas/1ntb

>  <Rbt.Executable>
rbdock ($Id: //depot/dev/client3/rdock/2013.1/src/exe/rbdock.cxx#4 $)

>  <Rbt.Library>
libRbt.so (2013.1, Build901 2013/11/27)

>  <Rbt.Parameter_File>
/export/apps/rDock/src/rDock_2013.1_src/data/scripts/dock_solv.prm

>  <Rbt.Receptor>
prm/pocket_docking_4.prm

>  <SCORE>
-23.9119

>  <SCORE.INTER>
-12.9413

>  <SCORE.INTER.CONST>
1

>  <SCORE.INTER.POLAR>
-1.0742

>  <SCORE.INTER.ROT>
11

>  <SCORE.INTER.SOLV>
23.7791

>  <SCORE.INTER.VDW>
-23.9066

>  <SCORE.INTER.norm>
-0.323533

>  <SCORE.INTRA>
-10.9706

>  <SCORE.INTRA.DIHEDRAL>
-7.24414

>  <SCORE.INTRA.DIHEDRAL.0>
15.4453

>  <SCORE.INTRA.POLAR>
0

>  <SCORE.INTRA.POLAR.0>
0

>  <SCORE.INTRA.REPUL>
-0.823958

>  <SCORE.INTRA.REPUL.0>
0.823958

>  <SCORE.INTRA.SOLV>
0.243548

>  <SCORE.INTRA.SOLV.lig_0>
-99.3069

>  <SCORE.INTRA.VDW>
-3.35054

>  <SCORE.INTRA.VDW.0>
0.946495

>  <SCORE.INTRA.norm>
-0.274265

>  <SCORE.RESTR>
0

>  <SCORE.RESTR.CAVITY>
0

>  <SCORE.RESTR.norm>
0

>  <SCORE.SYSTEM>
0

>  <SCORE.SYSTEM.CONST>
0

>  <SCORE.SYSTEM.DIHEDRAL>
0

>  <SCORE.SYSTEM.SOLV>
0

>  <SCORE.SYSTEM.norm>
0

>  <SCORE.heavy>
40

>  <SCORE.norm>
-0.597798

>  <RMSD>
1.392

$$$$
1ntb_lig
 OpenBabel11021811403D
libRbt.so/2013.1/901 2013/11/27
 40 42  0  0  0  0  0  0  0  0999 V2000
   10.0878   32.5077   -2.5200 C   0  0  0  0  0  0  0  0  0  0  0  0
   11.1160   32.7548   -1.8045 N   0  0  0  0  0  0  0  0  0  0  0  0
   -0.4364   34.4151   -4.4189 C   0  0  0  0  0  0  0  0  0  0  0  0
   -1.4664   33.4504   -4.5560 O   0  0  0  0  0  0  0  0  0  0  0  0
    5.3089   35.9166   -0.0052 C   0  0  0  0  0  0  0  0  0  0  0  0
    6.2620   35.9859    0.8544 N   0  0  0  0  0  0  0  0  0  0  0  0
    0.3592   31.6082   -2.9807 C   0  0  0  0  0  0  0  0  0  0  0  0
   -2.0040   36.3885   -0.1037 C   0  0  0  0  0  0  0  0  0  0  0  0
    7.8297   33.1602   -2.3167 C   0  0  2  0  0  0  0  0  0  0  0  0
    8.9714   32.2801   -1.8551 N   0  0  0  0  0  0  0  0  0  0  0  0
    2.7061   34.1840   -2.5200 C   0  0  2  0  0  0  0  0  0  0  0  0
    0.1297   36.7345   -2.5428 C   0  0  1  0  0  0  0  0  0  0  0  0
    1.2607   35.9808   -2.1467 O   0  0  0  0  0  0  0  0  0  0  0  0
    6.9432   33.5653   -1.1441 C   0  0  1  0  0  0  0  0  0  0  0  0
    7.8635   34.2568   -0.1919 O   0  0  0  0  0  0  0  0  0  0  0  0
    1.5767   35.0381   -3.0666 C   0  0  2  0  0  0  0  0  0  0  0  0
   -0.2889   37.6192   -1.3936 C   0  0  1  0  0  0  0  0  0  0  0  0
   -0.6456   36.8193   -0.2754 N   0  0  0  0  0  0  0  0  0  0  0  0
    5.7573   34.4310   -1.5645 C   0  0  2  0  0  0  0  0  0  0  0  0
    4.8840   34.8483   -0.4871 N   0  0  0  0  0  0  0  0  0  0  0  0
    0.4610   34.0458   -3.2608 C   0  0  1  0  0  0  0  0  0  0  0  0
   -0.3088   33.9341   -2.0592 O   0  0  0  0  0  0  0  0  0  0  0  0
    0.8896   38.5085   -1.0346 C   0  0  2  0  0  0  0  0  0  0  0  0
    0.5543   39.3523    0.0453 O   0  0  0  0  0  0  0  0  0  0  0  0
    4.9440   33.6521   -2.5655 C   0  0  1  0  0  0  0  0  0  0  0  0
    3.9563   34.5985   -3.0606 O   0  0  0  0  0  0  0  0  0  0  0  0
    1.1561   32.7626   -3.5308 C   0  0  1  0  0  0  0  0  0  0  0  0
    2.4302   32.8301   -2.8863 O   0  0  0  0  0  0  0  0  0  0  0  0
    1.2171   39.3373   -2.2768 C   0  0  1  0  0  0  0  0  0  0  0  0
    2.3186   40.1949   -2.0218 O   0  0  0  0  0  0  0  0  0  0  0  0
    5.8217   33.2763   -3.7896 C   0  0  2  0  0  0  0  0  0  0  0  0
    5.0338   32.5567   -4.7253 O   0  0  0  0  0  0  0  0  0  0  0  0
    1.5474   38.3906   -3.4311 C   0  0  1  0  0  0  0  0  0  0  0  0
    0.4393   37.5288   -3.6854 O   0  0  0  0  0  0  0  0  0  0  0  0
    6.9973   32.3950   -3.3254 C   0  0  1  0  0  0  0  0  0  0  0  0
    7.8177   32.0389   -4.4445 O   0  0  0  0  0  0  0  0  0  0  0  0
    1.8434   39.2182   -4.6821 C   0  0  0  0  0  0  0  0  0  0  0  0
    0.6657   39.9038   -5.0763 O   0  0  0  0  0  0  0  0  0  0  0  0
   10.1366   32.4573   -3.8048 N   0  0  0  0  0  0  0  0  0  0  0  0
    4.7242   36.9575   -0.3537 N   0  0  0  0  0  0  0  0  0  0  0  0
  1  2  1  0  0  0  0
  1 39  1  0  0  0  0
  3  4  1  0  0  0  0
  5  6  1  0  0  0  0
  5 40  1  0  0  0  0
  9 10  1  1  0  0  0
  9 14  1  0  0  0  0
  9 35  1  0  0  0  0
 10  1  1  0  0  0  0
 11 16  1  0  0  0  0
 11 28  1  0  0  0  0
 11 26  1  6  0  0  0
 12 17  1  0  0  0  0
 12 34  1  0  0  0  0
 12 13  1  1  0  0  0
 14 15  1  1  0  0  0
 14 19  1  0  0  0  0
 16 13  1  1  0  0  0
 16 21  1  0  0  0  0
 17 18  1  1  0  0  0
 17 23  1  0  0  0  0
 18  8  1  0  0  0  0
 19 20  1  1  0  0  0
 19 25  1  0  0  0  0
 20  5  1  0  0  0  0
 21  3  1  6  0  0  0
 21 22  1  0  0  0  0
 21 27  1  0  0  0  0
 23 24  1  1  0  0  0
 23 29  1  0  0  0  0
 25 26  1  6  0  0  0
 25 31  1  0  0  0  0
 27  7  1  1  0  0  0
 27 28  1  0  0  0  0
 29 30  1  1  0  0  0
 29 33  1  0  0  0  0
 31 32  1  6  0  0  0
 31 35  1  0  0  0  0
 33 34  1  0  0  0  0
 33 37  1  6  0  0  0
 35 36  1  6  0  0  0
 37 38  1  0  0  0  0
M  END
>  <CHROM.1>
-143.86272081,126.87876046,-175.29336153,171.72639354,-174.56241537,-90.55721350
88.27762680,-81.38219741,-179.98343988,-108.91652478,-65.16680155,3.41516277
35.16548733,-2.39304572,-0.43816641,-0.20601696,0.40185330

>  <Name>
1ntb_lig

>  <RI>
0

>  <Rbt.Current_Directory>
/home/itssahil/PROJECTS/Mol_Feturizer/New_Systems/rnas/1ntb

>  <Rbt.Executable>
rbdock ($Id: //depot/dev/client3/rdock/2013.1/src/exe/rbdock.cxx#4 $)

>  <Rbt.Library>
libRbt.so (2013.1, Build901 2013/11/27)

>  <Rbt.Parameter_File>
/export/apps/rDock/src/rDock_2013.1_src/data/scripts/dock_solv.prm

>  <Rbt.Receptor>
prm/pocket_docking_3.prm

>  <SCORE>
-21.6816

>  <SCORE.INTER>
-11.3063

>  <SCORE.INTER.CONST>
1

>  <SCORE.INTER.POLAR>
-1.22305

>  <SCORE.INTER.ROT>
11

>  <SCORE.INTER.SOLV>
23.1915

>  <SCORE.INTER.VDW>
-22.1245

>  <SCORE.INTER.norm>
-0.282658

>  <SCORE.INTRA>
-10.3753

>  <SCORE.INTRA.DIHEDRAL>
-4.95536

>  <SCORE.INTRA.DIHEDRAL.0>
15.4453

>  <SCORE.INTRA.POLAR>
0

>  <SCORE.INTRA.POLAR.0>
0

>  <SCORE.INTRA.REPUL>
-0.823958

>  <SCORE.INTRA.REPUL.0>
0.823958

>  <SCORE.INTRA.SOLV>
-1.39052

>  <SCORE.INTRA.SOLV.lig_0>
-99.3069

>  <SCORE.INTRA.VDW>
-3.08253

>  <SCORE.INTRA.VDW.0>
0.946495

>  <SCORE.INTRA.norm>
-0.259382

>  <SCORE.RESTR>
0

>  <SCORE.RESTR.CAVITY>
0

>  <SCORE.RESTR.norm>
0

>  <SCORE.SYSTEM>
0

>  <SCORE.SYSTEM.CONST>
0

>  <SCORE.SYSTEM.DIHEDRAL>
0

>  <SCORE.SYSTEM.SOLV>
0

>  <SCORE.SYSTEM.norm>
0

>  <SCORE.heavy>
40

>  <SCORE.norm>
-0.542039

>  <RMSD>
1.394

$$$$
1ntb_lig
 OpenBabel11021811403D
libRbt.so/2013.1/901 2013/11/27
 40 42  0  0  0  0  0  0  0  0999 V2000
    9.9695   33.3153   -1.1093 C   0  0  0  0  0  0  0  0  0  0  0  0
   10.7254   32.5421   -1.7882 N   0  0  0  0  0  0  0  0  0  0  0  0
   -0.6453   34.9164   -3.7324 C   0  0  0  0  0  0  0  0  0  0  0  0
    0.0975   35.8841   -4.4551 O   0  0  0  0  0  0  0  0  0  0  0  0
    5.0231   36.4910    0.6207 C   0  0  0  0  0  0  0  0  0  0  0  0
    4.8611   37.5325   -0.1148 N   0  0  0  0  0  0  0  0  0  0  0  0
    0.5550   31.9720   -4.4182 C   0  0  0  0  0  0  0  0  0  0  0  0
   -2.6679   33.5943    0.3332 C   0  0  0  0  0  0  0  0  0  0  0  0
    7.6274   33.5304   -1.2936 C   0  0  2  0  0  0  0  0  0  0  0  0
    8.8207   32.7949   -0.7226 N   0  0  0  0  0  0  0  0  0  0  0  0
    2.4972   33.8333   -2.1557 C   0  0  2  0  0  0  0  0  0  0  0  0
   -0.3438   35.5796   -0.7279 C   0  0  1  0  0  0  0  0  0  0  0  0
    0.8031   34.7571   -0.8391 O   0  0  0  0  0  0  0  0  0  0  0  0
    6.7402   34.0791   -0.1815 C   0  0  1  0  0  0  0  0  0  0  0  0
    7.6387   34.9618    0.6220 O   0  0  0  0  0  0  0  0  0  0  0  0
    1.2543   34.7035   -2.1152 C   0  0  2  0  0  0  0  0  0  0  0  0
   -0.9644   35.3632    0.6310 C   0  0  1  0  0  0  0  0  0  0  0  0
   -1.3636   34.0070    0.7675 N   0  0  0  0  0  0  0  0  0  0  0  0
    5.5041   34.8052   -0.7083 C   0  0  2  0  0  0  0  0  0  0  0  0
    4.6279   35.3509    0.3076 N   0  0  0  0  0  0  0  0  0  0  0  0
    0.2968   33.9743   -3.0199 C   0  0  1  0  0  0  0  0  0  0  0  0
   -0.4480   33.0102   -2.2684 O   0  0  0  0  0  0  0  0  0  0  0  0
    0.0806   35.6999    1.6814 C   0  0  2  0  0  0  0  0  0  0  0  0
   -0.4463   35.5044    2.9756 O   0  0  0  0  0  0  0  0  0  0  0  0
    4.7163   33.8337   -1.5484 C   0  0  1  0  0  0  0  0  0  0  0  0
    3.6727   34.6365   -2.1669 O   0  0  0  0  0  0  0  0  0  0  0  0
    1.1732   33.2795   -3.9955 C   0  0  1  0  0  0  0  0  0  0  0  0
    2.4236   33.0429   -3.3445 O   0  0  0  0  0  0  0  0  0  0  0  0
    0.4615   37.1663    1.4770 C   0  0  1  0  0  0  0  0  0  0  0  0
    1.4444   37.5575    2.4228 O   0  0  0  0  0  0  0  0  0  0  0  0
    5.5924   33.3049   -2.7159 C   0  0  2  0  0  0  0  0  0  0  0  0
    4.8278   32.4037   -3.5017 O   0  0  0  0  0  0  0  0  0  0  0  0
    1.0010   37.3448    0.0576 C   0  0  1  0  0  0  0  0  0  0  0  0
    0.0119   36.9504   -0.8918 O   0  0  0  0  0  0  0  0  0  0  0  0
    6.8197   32.5702   -2.1429 C   0  0  1  0  0  0  0  0  0  0  0  0
    7.6392   32.0754   -3.2087 O   0  0  0  0  0  0  0  0  0  0  0  0
    1.3519   38.8172   -0.1581 C   0  0  0  0  0  0  0  0  0  0  0  0
    2.4553   39.1584    0.6656 O   0  0  0  0  0  0  0  0  0  0  0  0
   10.2907   34.5316   -0.8388 N   0  0  0  0  0  0  0  0  0  0  0  0
    5.6541   36.5894    1.6878 N   0  0  0  0  0  0  0  0  0  0  0  0
  1  2  1  0  0  0  0
  1 39  1  0  0  0  0
  3  4  1  0  0  0  0
  5  6  1  0  0  0  0
  5 40  1  0  0  0  0
  9 10  1  1  0  0  0
  9 14  1  0  0  0  0
  9 35  1  0  0  0  0
 10  1  1  0  0  0  0
 11 16  1  0  0  0  0
 11 28  1  0  0  0  0
 11 26  1  6  0  0  0
 12 17  1  0  0  0  0
 12 34  1  0  0  0  0
 12 13  1  1  0  0  0
 14 15  1  6  0  0  0
 14 19  1  0  0  0  0
 16 13  1  1  0  0  0
 16 21  1  0  0  0  0
 17 18  1  6  0  0  0
 17 23  1  0  0  0  0
 18  8  1  0  0  0  0
 19 20  1  1  0  0  0
 19 25  1  0  0  0  0
 20  5  1  0  0  0  0
 21  3  1  6  0  0  0
 21 22  1  0  0  0  0
 21 27  1  0  0  0  0
 23 24  1  1  0  0  0
 23 29  1  0  0  0  0
 25 26  1  6  0  0  0
 25 31  1  0  0  0  0
 27  7  1  1  0  0  0
 27 28  1  0  0  0  0
 29 30  1  1  0  0  0
 29 33  1  0  0  0  0
 31 32  1  1  0  0  0
 31 35  1  0  0  0  0
 33 34  1  0  0  0  0
 33 37  1  6  0  0  0
 35 36  1  6  0  0  0
 37 38  1  0  0  0  0
M  END
>  <CHROM.1>
-120.75969679,-118.27393422,152.11852306,167.94367516,178.77795564,-88.07956679
86.72230042,74.97916243,56.11100676,-140.83029836,67.42936478,3.19906064
34.79408486,-1.00467668,-0.22147650,-0.10450418,0.85607996

>  <Name>
1ntb_lig

>  <RI>
0

>  <Rbt.Current_Directory>
/home/itssahil/PROJECTS/Mol_Feturizer/New_Systems/rnas/1ntb

>  <Rbt.Executable>
rbdock ($Id: //depot/dev/client3/rdock/2013.1/src/exe/rbdock.cxx#4 $)

>  <Rbt.Library>
libRbt.so (2013.1, Build901 2013/11/27)

>  <Rbt.Parameter_File>
/export/apps/rDock/src/rDock_2013.1_src/data/scripts/dock_solv.prm

>  <Rbt.Receptor>
prm/pocket_docking_3.prm

>  <SCORE>
-21.5812

>  <SCORE.INTER>
-10.5504

>  <SCORE.INTER.CONST>
1

>  <SCORE.INTER.POLAR>
-1.75998

>  <SCORE.INTER.ROT>
11

>  <SCORE.INTER.SOLV>
24.3213

>  <SCORE.INTER.VDW>
-20.2074

>  <SCORE.INTER.norm>
-0.263759

>  <SCORE.INTRA>
-11.0308

>  <SCORE.INTRA.DIHEDRAL>
-2.5555

>  <SCORE.INTRA.DIHEDRAL.0>
15.4453

>  <SCORE.INTRA.POLAR>
0

>  <SCORE.INTRA.POLAR.0>
0

>  <SCORE.INTRA.REPUL>
-0.791856

>  <SCORE.INTRA.REPUL.0>
0.823958

>  <SCORE.INTRA.SOLV>
0.116524

>  <SCORE.INTRA.SOLV.lig_0>
-99.3069

>  <SCORE.INTRA.VDW>
-5.85204

>  <SCORE.INTRA.VDW.0>
0.946495

>  <SCORE.INTRA.norm>
-0.27577

>  <SCORE.RESTR>
0

>  <SCORE.RESTR.CAVITY>
0

>  <SCORE.RESTR.norm>
0

>  <SCORE.SYSTEM>
0

>  <SCORE.SYSTEM.CONST>
0

>  <SCORE.SYSTEM.DIHEDRAL>
0

>  <SCORE.SYSTEM.SOLV>
0

>  <SCORE.SYSTEM.norm>
0

>  <SCORE.heavy>
40

>  <SCORE.norm>
-0.539529

>  <RMSD>
1.404

$$$$
1ntb_lig
 OpenBabel11021811403D
libRbt.so/2013.1/901 2013/11/27
 40 42  0  0  0  0  0  0  0  0999 V2000
   10.3272   32.3576   -2.8859 C   0  0  0  0  0  0  0  0  0  0  0  0
   11.4120   32.5986   -2.2571 N   0  0  0  0  0  0  0  0  0  0  0  0
   -0.1450   35.2611   -3.6684 C   0  0  0  0  0  0  0  0  0  0  0  0
   -1.2825   34.5519   -4.1303 O   0  0  0  0  0  0  0  0  0  0  0  0
    5.9671   35.7444    0.3953 C   0  0  0  0  0  0  0  0  0  0  0  0
    6.9792   35.8517    1.1804 N   0  0  0  0  0  0  0  0  0  0  0  0
    0.5834   32.0966   -3.8565 C   0  0  0  0  0  0  0  0  0  0  0  0
   -1.1684   35.5355    2.2709 C   0  0  0  0  0  0  0  0  0  0  0  0
    8.1258   33.0275   -2.3656 C   0  0  2  0  0  0  0  0  0  0  0  0
    9.2811   32.0778   -2.1326 N   0  0  0  0  0  0  0  0  0  0  0  0
    2.9921   34.0372   -2.1869 C   0  0  2  0  0  0  0  0  0  0  0  0
    0.5283   36.3622   -0.8900 C   0  0  1  0  0  0  0  0  0  0  0  0
    1.5907   35.4279   -0.9382 O   0  0  0  0  0  0  0  0  0  0  0  0
    7.4234   33.3658   -1.0552 C   0  0  1  0  0  0  0  0  0  0  0  0
    8.4921   33.9499   -0.1900 O   0  0  0  0  0  0  0  0  0  0  0  0
    1.8833   35.0734   -2.2124 C   0  0  2  0  0  0  0  0  0  0  0  0
    0.2129   36.6621    0.5554 C   0  0  1  0  0  0  0  0  0  0  0  0
   -0.1978   35.4732    1.2152 N   0  0  0  0  0  0  0  0  0  0  0  0
    6.2292   34.2994   -1.2426 C   0  0  2  0  0  0  0  0  0  0  0  0
    5.5276   34.6570   -0.0271 N   0  0  0  0  0  0  0  0  0  0  0  0
    0.7439   34.3386   -2.8674 C   0  0  1  0  0  0  0  0  0  0  0  0
   -0.0277   33.6505   -1.8773 O   0  0  0  0  0  0  0  0  0  0  0  0
    1.4748   37.2020    1.2071 C   0  0  2  0  0  0  0  0  0  0  0  0
    1.2374   37.4906    2.5677 O   0  0  0  0  0  0  0  0  0  0  0  0
    5.2562   33.6288   -2.1773 C   0  0  1  0  0  0  0  0  0  0  0  0
    4.2516   34.6423   -2.4598 O   0  0  0  0  0  0  0  0  0  0  0  0
    1.4076   33.3541   -3.7577 C   0  0  1  0  0  0  0  0  0  0  0  0
    2.6834   33.0603   -3.1838 O   0  0  0  0  0  0  0  0  0  0  0  0
    1.8571   38.4748    0.4512 C   0  0  1  0  0  0  0  0  0  0  0  0
    3.0376   39.0392    1.0002 O   0  0  0  0  0  0  0  0  0  0  0  0
    5.9442   33.3240   -3.5352 C   0  0  2  0  0  0  0  0  0  0  0  0
    5.0076   32.7064   -4.4045 O   0  0  0  0  0  0  0  0  0  0  0  0
    2.0787   38.1287   -1.0215 C   0  0  1  0  0  0  0  0  0  0  0  0
    0.8912   37.5606   -1.5715 O   0  0  0  0  0  0  0  0  0  0  0  0
    7.1334   32.3718   -3.3043 C   0  0  1  0  0  0  0  0  0  0  0  0
    7.7796   32.0802   -4.5491 O   0  0  0  0  0  0  0  0  0  0  0  0
    2.4294   39.4066   -1.7839 C   0  0  0  0  0  0  0  0  0  0  0  0
    1.3375   40.3090   -1.7074 O   0  0  0  0  0  0  0  0  0  0  0  0
   10.2589   32.3607   -4.1708 N   0  0  0  0  0  0  0  0  0  0  0  0
    5.3397   36.7661    0.0649 N   0  0  0  0  0  0  0  0  0  0  0  0
  1  2  1  0  0  0  0
  1 39  1  0  0  0  0
  3  4  1  0  0  0  0
  5  6  1  0  0  0  0
  5 40  1  0  0  0  0
  9 10  1  1  0  0  0
  9 14  1  0  0  0  0
  9 35  1  0  0  0  0
 10  1  1  0  0  0  0
 11 16  1  0  0  0  0
 11 28  1  0  0  0  0
 11 26  1  6  0  0  0
 12 17  1  0  0  0  0
 12 34  1  0  0  0  0
 12 13  1  1  0  0  0
 14 15  1  1  0  0  0
 14 19  1  0  0  0  0
 16 13  1  1  0  0  0
 16 21  1  0  0  0  0
 17 18  1  1  0  0  0
 17 23  1  0  0  0  0
 18  8  1  0  0  0  0
 19 20  1  1  0  0  0
 19 25  1  0  0  0  0
 20  5  1  0  0  0  0
 21  3  1  6  0  0  0
 21 22  1  0  0  0  0
 21 27  1  0  0  0  0
 23 24  1  1  0  0  0
 23 29  1  0  0  0  0
 25 26  1  6  0  0  0
 25 31  1  0  0  0  0
 27  7  1  1  0  0  0
 27 28  1  0  0  0  0
 29 30  1  1  0  0  0
 29 33  1  0  0  0  0
 31 32  1  6  0  0  0
 31 35  1  0  0  0  0
 33 34  1  0  0  0  0
 33 37  1  6  0  0  0
 35 36  1  6  0  0  0
 37 38  1  0  0  0  0
M  END
>  <CHROM.1>
-141.15828299,121.88096035,170.06801933,177.35803303,-177.99626320,-147.18713816
95.07394498,-87.68934599,-173.14988705,-127.90042035,-62.40063122,3.81565864
34.97663635,-1.54176946,-0.48028158,-0.16132386,0.78220890

>  <Name>
1ntb_lig

>  <RI>
0

>  <Rbt.Current_Directory>
/home/itssahil/PROJECTS/Mol_Feturizer/New_Systems/rnas/1ntb

>  <Rbt.Executable>
rbdock ($Id: //depot/dev/client3/rdock/2013.1/src/exe/rbdock.cxx#4 $)

>  <Rbt.Library>
libRbt.so (2013.1, Build901 2013/11/27)

>  <Rbt.Parameter_File>
/export/apps/rDock/src/rDock_2013.1_src/data/scripts/dock_solv.prm

>  <Rbt.Receptor>
prm/pocket_docking_8.prm

>  <SCORE>
-23.4125

>  <SCORE.INTER>
-12.2322

>  <SCORE.INTER.CONST>
1

>  <SCORE.INTER.POLAR>
-2.04076

>  <SCORE.INTER.ROT>
11

>  <SCORE.INTER.SOLV>
25.5465

>  <SCORE.INTER.VDW>
-20.8011

>  <SCORE.INTER.norm>
-0.305804

>  <SCORE.INTRA>
-11.1803

>  <SCORE.INTRA.DIHEDRAL>
-4.2484

>  <SCORE.INTRA.DIHEDRAL.0>
15.4453

>  <SCORE.INTRA.POLAR>
0

>  <SCORE.INTRA.POLAR.0>
0

>  <SCORE.INTRA.REPUL>
-0.823958

>  <SCORE.INTRA.REPUL.0>
0.823958

>  <SCORE.INTRA.SOLV>
-0.0812401

>  <SCORE.INTRA.SOLV.lig_0>
-99.3069

>  <SCORE.INTRA.VDW>
-4.89573

>  <SCORE.INTRA.VDW.0>
0.946495

>  <SCORE.INTRA.norm>
-0.279509

>  <SCORE.RESTR>
0

>  <SCORE.RESTR.CAVITY>
0

>  <SCORE.RESTR.norm>
0

>  <SCORE.SYSTEM>
0

>  <SCORE.SYSTEM.CONST>
0

>  <SCORE.SYSTEM.DIHEDRAL>
0

>  <SCORE.SYSTEM.SOLV>
0

>  <SCORE.SYSTEM.norm>
0

>  <SCORE.heavy>
40

>  <SCORE.norm>
-0.585312

>  <RMSD>
1.425

$$$$
1ntb_lig
 OpenBabel11021811403D
libRbt.so/2013.1/901 2013/11/27
 40 42  0  0  0  0  0  0  0  0999 V2000
   10.3628   32.3745   -2.8581 C   0  0  0  0  0  0  0  0  0  0  0  0
   11.4240   32.7116   -2.2334 N   0  0  0  0  0  0  0  0  0  0  0  0
   -0.1322   35.2041   -3.6106 C   0  0  0  0  0  0  0  0  0  0  0  0
   -1.2757   34.4788   -4.0308 O   0  0  0  0  0  0  0  0  0  0  0  0
    5.9809   35.8043    0.3768 C   0  0  0  0  0  0  0  0  0  0  0  0
    5.5236   36.9239   -0.0584 N   0  0  0  0  0  0  0  0  0  0  0  0
    0.6052   32.0374   -3.7038 C   0  0  0  0  0  0  0  0  0  0  0  0
   -1.2645   35.6593    2.1659 C   0  0  0  0  0  0  0  0  0  0  0  0
    8.1591   33.0381   -2.3390 C   0  0  2  0  0  0  0  0  0  0  0  0
    9.3192   32.0955   -2.1009 N   0  0  0  0  0  0  0  0  0  0  0  0
    3.0244   34.0386   -2.1233 C   0  0  2  0  0  0  0  0  0  0  0  0
    0.5970   36.4308   -0.8803 C   0  0  1  0  0  0  0  0  0  0  0  0
    1.6313   35.4646   -0.9056 O   0  0  0  0  0  0  0  0  0  0  0  0
    7.4645   33.3919   -1.0286 C   0  0  1  0  0  0  0  0  0  0  0  0
    8.5370   33.9913   -0.1788 O   0  0  0  0  0  0  0  0  0  0  0  0
    1.9118   35.0699   -2.1707 C   0  0  2  0  0  0  0  0  0  0  0  0
    0.2674   36.7492    0.5579 C   0  0  1  0  0  0  0  0  0  0  0  0
   -0.1899   35.5775    1.2177 N   0  0  0  0  0  0  0  0  0  0  0  0
    6.2659   34.3188   -1.2206 C   0  0  2  0  0  0  0  0  0  0  0  0
    5.5713   34.6907   -0.0053 N   0  0  0  0  0  0  0  0  0  0  0  0
    0.7682   34.3108   -2.7895 C   0  0  1  0  0  0  0  0  0  0  0  0
    0.0094   33.6527   -1.7696 O   0  0  0  0  0  0  0  0  0  0  0  0
    1.5342   37.2549    1.2272 C   0  0  2  0  0  0  0  0  0  0  0  0
    1.2836   37.5591    2.5820 O   0  0  0  0  0  0  0  0  0  0  0  0
    5.2888   33.6323   -2.1394 C   0  0  1  0  0  0  0  0  0  0  0  0
    4.2789   34.6385   -2.4288 O   0  0  0  0  0  0  0  0  0  0  0  0
    1.4260   33.3000   -3.6544 C   0  0  1  0  0  0  0  0  0  0  0  0
    2.7087   33.0289   -3.0847 O   0  0  0  0  0  0  0  0  0  0  0  0
    1.9671   38.5107    0.4704 C   0  0  1  0  0  0  0  0  0  0  0  0
    3.1551   39.0427    1.0355 O   0  0  0  0  0  0  0  0  0  0  0  0
    5.9687   33.3112   -3.4977 C   0  0  2  0  0  0  0  0  0  0  0  0
    5.0284   32.6787   -4.3520 O   0  0  0  0  0  0  0  0  0  0  0  0
    2.2021   38.1488   -0.9965 C   0  0  1  0  0  0  0  0  0  0  0  0
    1.0071   37.6134   -1.5626 O   0  0  0  0  0  0  0  0  0  0  0  0
    7.1627   32.3662   -3.2619 C   0  0  1  0  0  0  0  0  0  0  0  0
    7.8015   32.0598   -4.5070 O   0  0  0  0  0  0  0  0  0  0  0  0
    2.6038   39.4108   -1.7604 C   0  0  0  0  0  0  0  0  0  0  0  0
    1.5399   40.3476   -1.7042 O   0  0  0  0  0  0  0  0  0  0  0  0
   10.3155   32.2861   -4.1409 N   0  0  0  0  0  0  0  0  0  0  0  0
    6.9235   35.8039    1.1881 N   0  0  0  0  0  0  0  0  0  0  0  0
  1  2  1  0  0  0  0
  1 39  1  0  0  0  0
  3  4  1  0  0  0  0
  5  6  1  0  0  0  0
  5 40  1  0  0  0  0
  9 10  1  1  0  0  0
  9 14  1  0  0  0  0
  9 35  1  0  0  0  0
 10  1  1  0  0  0  0
 11 16  1  0  0  0  0
 11 28  1  0  0  0  0
 11 26  1  6  0  0  0
 12 17  1  0  0  0  0
 12 34  1  0  0  0  0
 12 13  1  1  0  0  0
 14 15  1  1  0  0  0
 14 19  1  0  0  0  0
 16 13  1  1  0  0  0
 16 21  1  0  0  0  0
 17 18  1  1  0  0  0
 17 23  1  0  0  0  0
 18  8  1  0  0  0  0
 19 20  1  1  0  0  0
 19 25  1  0  0  0  0
 20  5  1  0  0  0  0
 21  3  1  6  0  0  0
 21 22  1  0  0  0  0
 21 27  1  0  0  0  0
 23 24  1  1  0  0  0
 23 29  1  0  0  0  0
 25 26  1  6  0  0  0
 25 31  1  0  0  0  0
 27  7  1  1  0  0  0
 27 28  1  0  0  0  0
 29 30  1  1  0  0  0
 29 33  1  0  0  0  0
 31 32  1  6  0  0  0
 31 35  1  0  0  0  0
 33 34  1  0  0  0  0
 33 37  1  6  0  0  0
 35 36  1  6  0  0  0
 37 38  1  0  0  0  0
M  END
>  <CHROM.1>
-140.69242668,117.42537285,170.72898569,175.89443278,179.99371609,-141.25565006
97.08361824,84.64276644,-172.81475079,-127.19379648,-62.24943517,3.86276641
34.99387220,-1.51071420,-0.48632148,-0.14420627,0.75042153

>  <Name>
1ntb_lig

>  <RI>
0

>  <Rbt.Current_Directory>
/home/itssahil/PROJECTS/Mol_Feturizer/New_Systems/rnas/1ntb

>  <Rbt.Executable>
rbdock ($Id: //depot/dev/client3/rdock/2013.1/src/exe/rbdock.cxx#4 $)

>  <Rbt.Library>
libRbt.so (2013.1, Build901 2013/11/27)

>  <Rbt.Parameter_File>
/export/apps/rDock/src/rDock_2013.1_src/data/scripts/dock_solv.prm

>  <Rbt.Receptor>
prm/pocket_docking_5.prm

>  <SCORE>
-23.1413

>  <SCORE.INTER>
-11.6155

>  <SCORE.INTER.CONST>
1

>  <SCORE.INTER.POLAR>
-2.05288

>  <SCORE.INTER.ROT>
11

>  <SCORE.INTER.SOLV>
26.3021

>  <SCORE.INTER.VDW>
-20.6014

>  <SCORE.INTER.norm>
-0.290388

>  <SCORE.INTRA>
-11.5258

>  <SCORE.INTRA.DIHEDRAL>
-3.92904

>  <SCORE.INTRA.DIHEDRAL.0>
15.4453

>  <SCORE.INTRA.POLAR>
0

>  <SCORE.INTRA.POLAR.0>
0

>  <SCORE.INTRA.REPUL>
-0.823958

>  <SCORE.INTRA.REPUL.0>
0.823958

>  <SCORE.INTRA.SOLV>
-0.12693

>  <SCORE.INTRA.SOLV.lig_0>
-99.3069

>  <SCORE.INTRA.VDW>
-5.37804

>  <SCORE.INTRA.VDW.0>
0.946495

>  <SCORE.INTRA.norm>
-0.288145

>  <SCORE.RESTR>
0

>  <SCORE.RESTR.CAVITY>
0

>  <SCORE.RESTR.norm>
0

>  <SCORE.SYSTEM>
0

>  <SCORE.SYSTEM.CONST>
0

>  <SCORE.SYSTEM.DIHEDRAL>
0

>  <SCORE.SYSTEM.SOLV>
0

>  <SCORE.SYSTEM.norm>
0

>  <SCORE.heavy>
40

>  <SCORE.norm>
-0.578533

>  <RMSD>
1.439

$$$$
1ntb_lig
 OpenBabel11021811403D
libRbt.so/2013.1/901 2013/11/27
 40 42  0  0  0  0  0  0  0  0999 V2000
   10.3375   32.3099   -2.8659 C   0  0  0  0  0  0  0  0  0  0  0  0
   10.2105   32.2985   -4.1364 N   0  0  0  0  0  0  0  0  0  0  0  0
   -0.0706   35.3343   -3.6147 C   0  0  0  0  0  0  0  0  0  0  0  0
    0.7309   36.0402   -4.5472 O   0  0  0  0  0  0  0  0  0  0  0  0
    6.0697   35.6890    0.4868 C   0  0  0  0  0  0  0  0  0  0  0  0
    7.1239   35.8230    1.2098 N   0  0  0  0  0  0  0  0  0  0  0  0
    0.6414   32.1695   -3.8538 C   0  0  0  0  0  0  0  0  0  0  0  0
   -1.2440   35.5353    2.2845 C   0  0  0  0  0  0  0  0  0  0  0  0
    8.1238   32.9503   -2.3608 C   0  0  2  0  0  0  0  0  0  0  0  0
    9.2622   31.9690   -2.1820 N   0  0  0  0  0  0  0  0  0  0  0  0
    3.0183   34.0554   -2.0791 C   0  0  2  0  0  0  0  0  0  0  0  0
    0.5157   36.3449   -0.7950 C   0  0  1  0  0  0  0  0  0  0  0  0
    1.5938   35.4284   -0.8370 O   0  0  0  0  0  0  0  0  0  0  0  0
    7.4688   33.2773   -1.0232 C   0  0  1  0  0  0  0  0  0  0  0  0
    8.5763   33.8177   -0.1788 O   0  0  0  0  0  0  0  0  0  0  0  0
    1.9174   35.0999   -2.1106 C   0  0  2  0  0  0  0  0  0  0  0  0
    0.2182   36.6761    0.6474 C   0  0  1  0  0  0  0  0  0  0  0  0
   -0.1605   35.4976    1.3438 N   0  0  0  0  0  0  0  0  0  0  0  0
    6.2924   34.2423   -1.1555 C   0  0  2  0  0  0  0  0  0  0  0  0
    5.6359   34.5906    0.0876 N   0  0  0  0  0  0  0  0  0  0  0  0
    0.7908   34.3880   -2.8113 C   0  0  1  0  0  0  0  0  0  0  0  0
   -0.0111   33.6839   -1.8572 O   0  0  0  0  0  0  0  0  0  0  0  0
    1.4805   37.2547    1.2643 C   0  0  2  0  0  0  0  0  0  0  0  0
    1.2599   37.5739    2.6208 O   0  0  0  0  0  0  0  0  0  0  0  0
    5.2763   33.6147   -2.0741 C   0  0  1  0  0  0  0  0  0  0  0  0
    4.2885   34.6572   -2.3054 O   0  0  0  0  0  0  0  0  0  0  0  0
    1.4711   33.4185   -3.7055 C   0  0  1  0  0  0  0  0  0  0  0  0
    2.7294   33.1029   -3.1051 O   0  0  0  0  0  0  0  0  0  0  0  0
    1.8278   38.5141    0.4702 C   0  0  1  0  0  0  0  0  0  0  0  0
    3.0067   39.1130    0.9852 O   0  0  0  0  0  0  0  0  0  0  0  0
    5.9163   33.3225   -3.4580 C   0  0  2  0  0  0  0  0  0  0  0  0
    4.9398   32.7456   -4.3111 O   0  0  0  0  0  0  0  0  0  0  0  0
    2.0319   38.1343   -0.9967 C   0  0  1  0  0  0  0  0  0  0  0  0
    0.8461   37.5316   -1.5125 O   0  0  0  0  0  0  0  0  0  0  0  0
    7.0886   32.3380   -3.2823 C   0  0  1  0  0  0  0  0  0  0  0  0
    7.6905   32.0576   -4.5518 O   0  0  0  0  0  0  0  0  0  0  0  0
    2.3474   39.3982   -1.7970 C   0  0  0  0  0  0  0  0  0  0  0  0
    1.2696   40.3116   -1.6689 O   0  0  0  0  0  0  0  0  0  0  0  0
   11.4323   32.6551   -2.2847 N   0  0  0  0  0  0  0  0  0  0  0  0
    5.3953   36.6934    0.1986 N   0  0  0  0  0  0  0  0  0  0  0  0
  1  2  1  0  0  0  0
  1 39  1  0  0  0  0
  3  4  1  0  0  0  0
  5  6  1  0  0  0  0
  5 40  1  0  0  0  0
  9 10  1  1  0  0  0
  9 14  1  0  0  0  0
  9 35  1  0  0  0  0
 10  1  1  0  0  0  0
 11 16  1  0  0  0  0
 11 28  1  0  0  0  0
 11 26  1  6  0  0  0
 12 17  1  0  0  0  0
 12 34  1  0  0  0  0
 12 13  1  1  0  0  0
 14 15  1  1  0  0  0
 14 19  1  0  0  0  0
 16 13  1  1  0  0  0
 16 21  1  0  0  0  0
 17 18  1  1  0  0  0
 17 23  1  0  0  0  0
 18  8  1  0  0  0  0
 19 20  1  1  0  0  0
 19 25  1  0  0  0  0
 20  5  1  0  0  0  0
 21  3  1  6  0  0  0
 21 22  1  0  0  0  0
 21 27  1  0  0  0  0
 23 24  1  1  0  0  0
 23 29  1  0  0  0  0
 25 26  1  6  0  0  0
 25 31  1  0  0  0  0
 27  7  1  1  0  0  0
 27 28  1  0  0  0  0
 29 30  1  1  0  0  0
 29 33  1  0  0  0  0
 31 32  1  6  0  0  0
 31 35  1  0  0  0  0
 33 34  1  0  0  0  0
 33 37  1  6  0  0  0
 35 36  1  6  0  0  0
 37 38  1  0  0  0  0
M  END
>  <CHROM.1>
-135.22354921,-64.92340993,172.40462269,-179.45521216,-176.60171214,-138.61752949
98.11660232,-86.53939487,56.51503074,-131.04226201,-59.42532961,3.88232017
35.01578552,-1.50264255,-0.50519066,-0.19651905,0.82047866

>  <Name>
1ntb_lig

>  <RI>
0

>  <Rbt.Current_Directory>
/home/itssahil/PROJECTS/Mol_Feturizer/New_Systems/rnas/1ntb

>  <Rbt.Executable>
rbdock ($Id: //depot/dev/client3/rdock/2013.1/src/exe/rbdock.cxx#4 $)

>  <Rbt.Library>
libRbt.so (2013.1, Build901 2013/11/27)

>  <Rbt.Parameter_File>
/export/apps/rDock/src/rDock_2013.1_src/data/scripts/dock_solv.prm

>  <Rbt.Receptor>
prm/pocket_docking_3.prm

>  <SCORE>
-22.5892

>  <SCORE.INTER>
-11.5925

>  <SCORE.INTER.CONST>
1

>  <SCORE.INTER.POLAR>
-1.97594

>  <SCORE.INTER.ROT>
11

>  <SCORE.INTER.SOLV>
26.2911

>  <SCORE.INTER.VDW>
-20.8389

>  <SCORE.INTER.norm>
-0.289814

>  <SCORE.INTRA>
-10.9966

>  <SCORE.INTRA.DIHEDRAL>
-4.12533

>  <SCORE.INTRA.DIHEDRAL.0>
15.4453

>  <SCORE.INTRA.POLAR>
0

>  <SCORE.INTRA.POLAR.0>
0

>  <SCORE.INTRA.REPUL>
-0.823958

>  <SCORE.INTRA.REPUL.0>
0.823958

>  <SCORE.INTRA.SOLV>
-0.182411

>  <SCORE.INTRA.SOLV.lig_0>
-99.3069

>  <SCORE.INTRA.VDW>
-4.72295

>  <SCORE.INTRA.VDW.0>
0.946495

>  <SCORE.INTRA.norm>
-0.274915

>  <SCORE.RESTR>
0

>  <SCORE.RESTR.CAVITY>
0

>  <SCORE.RESTR.norm>
0

>  <SCORE.SYSTEM>
0

>  <SCORE.SYSTEM.CONST>
0

>  <SCORE.SYSTEM.DIHEDRAL>
0

>  <SCORE.SYSTEM.SOLV>
0

>  <SCORE.SYSTEM.norm>
0

>  <SCORE.heavy>
40

>  <SCORE.norm>
-0.564729

>  <RMSD>
1.461

$$$$
1ntb_lig
 OpenBabel11021811403D
libRbt.so/2013.1/901 2013/11/27
 40 42  0  0  0  0  0  0  0  0999 V2000
   10.3062   33.0173   -1.3095 C   0  0  0  0  0  0  0  0  0  0  0  0
   10.4552   34.2718   -1.1248 N   0  0  0  0  0  0  0  0  0  0  0  0
   -0.1990   34.8930   -4.3706 C   0  0  0  0  0  0  0  0  0  0  0  0
   -1.2883   34.0759   -4.7656 O   0  0  0  0  0  0  0  0  0  0  0  0
    5.2380   35.8264    0.3661 C   0  0  0  0  0  0  0  0  0  0  0  0
    5.7258   36.9339   -0.0668 N   0  0  0  0  0  0  0  0  0  0  0  0
    0.3994   31.7524   -3.7716 C   0  0  0  0  0  0  0  0  0  0  0  0
   -2.2615   36.6945   -2.3384 C   0  0  0  0  0  0  0  0  0  0  0  0
    7.9933   33.2968   -1.6815 C   0  0  2  0  0  0  0  0  0  0  0  0
    9.1156   32.5341   -1.0108 N   0  0  0  0  0  0  0  0  0  0  0  0
    2.8848   33.9457   -2.6022 C   0  0  2  0  0  0  0  0  0  0  0  0
    1.0693   36.9627   -2.0084 C   0  0  1  0  0  0  0  0  0  0  0  0
    1.5410   35.6540   -1.7461 O   0  0  0  0  0  0  0  0  0  0  0  0
    6.9501   33.7424   -0.6627 C   0  0  1  0  0  0  0  0  0  0  0  0
    7.7091   34.5699    0.3226 O   0  0  0  0  0  0  0  0  0  0  0  0
    1.8193   34.9872   -2.8918 C   0  0  2  0  0  0  0  0  0  0  0  0
   -0.1514   37.2167   -1.1575 C   0  0  1  0  0  0  0  0  0  0  0  0
   -1.1738   36.2899   -1.4937 N   0  0  0  0  0  0  0  0  0  0  0  0
    5.7797   34.4915   -1.2965 C   0  0  2  0  0  0  0  0  0  0  0  0
    4.7605   34.9420   -0.3714 N   0  0  0  0  0  0  0  0  0  0  0  0
    0.6511   34.1601   -3.3591 C   0  0  1  0  0  0  0  0  0  0  0  0
   -0.1484   33.7664   -2.2389 O   0  0  0  0  0  0  0  0  0  0  0  0
    0.2472   37.0371    0.2977 C   0  0  2  0  0  0  0  0  0  0  0  0
   -0.8641   37.2541    1.1394 O   0  0  0  0  0  0  0  0  0  0  0  0
    5.1373   33.5798   -2.3096 C   0  0  1  0  0  0  0  0  0  0  0  0
    4.1681   34.4154   -3.0016 O   0  0  0  0  0  0  0  0  0  0  0  0
    1.2744   32.9622   -3.9746 C   0  0  1  0  0  0  0  0  0  0  0  0
    2.5368   32.7676   -3.3331 O   0  0  0  0  0  0  0  0  0  0  0  0
    1.3443   38.0612    0.5888 C   0  0  1  0  0  0  0  0  0  0  0  0
    1.7769   37.9519    1.9359 O   0  0  0  0  0  0  0  0  0  0  0  0
    6.1766   33.1582   -3.3831 C   0  0  2  0  0  0  0  0  0  0  0  0
    5.5482   32.3127   -4.3340 O   0  0  0  0  0  0  0  0  0  0  0  0
    2.5180   37.8130   -0.3592 C   0  0  1  0  0  0  0  0  0  0  0  0
    2.0812   37.9225   -1.7129 O   0  0  0  0  0  0  0  0  0  0  0  0
    7.3322   32.3968   -2.7057 C   0  0  1  0  0  0  0  0  0  0  0  0
    8.3008   32.0002   -3.6839 O   0  0  0  0  0  0  0  0  0  0  0  0
    3.6021   38.8571   -0.0904 C   0  0  0  0  0  0  0  0  0  0  0  0
    4.0903   38.6917    1.2313 O   0  0  0  0  0  0  0  0  0  0  0  0
   11.2589   32.2641   -1.7346 N   0  0  0  0  0  0  0  0  0  0  0  0
    5.2807   35.5749    1.5833 N   0  0  0  0  0  0  0  0  0  0  0  0
  1  2  1  0  0  0  0
  1 39  1  0  0  0  0
  3  4  1  0  0  0  0
  5  6  1  0  0  0  0
  5 40  1  0  0  0  0
  9 10  1  1  0  0  0
  9 14  1  0  0  0  0
  9 35  1  0  0  0  0
 10  1  1  0  0  0  0
 11 16  1  0  0  0  0
 11 28  1  0  0  0  0
 11 26  1  6  0  0  0
 12 17  1  0  0  0  0
 12 34  1  0  0  0  0
 12 13  1  1  0  0  0
 14 15  1  1  0  0  0
 14 19  1  0  0  0  0
 16 13  1  1  0  0  0
 16 21  1  0  0  0  0
 17 18  1  6  0  0  0
 17 23  1  0  0  0  0
 18  8  1  0  0  0  0
 19 20  1  1  0  0  0
 19 25  1  0  0  0  0
 20  5  1  0  0  0  0
 21  3  1  6  0  0  0
 21 22  1  0  0  0  0
 21 27  1  0  0  0  0
 23 24  1  1  0  0  0
 23 29  1  0  0  0  0
 25 26  1  6  0  0  0
 25 31  1  0  0  0  0
 27  7  1  1  0  0  0
 27 28  1  0  0  0  0
 29 30  1  1  0  0  0
 29 33  1  0  0  0  0
 31 32  1  6  0  0  0
 31 35  1  0  0  0  0
 33 34  1  0  0  0  0
 33 37  1  1  0  0  0
 35 36  1  6  0  0  0
 37 38  1  0  0  0  0
M  END
>  <CHROM.1>
-127.44275875,52.16169504,161.93584423,133.64424246,153.11875879,-101.23988692
67.15434465,59.53400490,-179.44298624,-110.42850880,63.33228881,3.67505497
34.98420268,-1.58931975,-0.24601750,-0.23081207,0.75974868

>  <Name>
1ntb_lig

>  <RI>
0

>  <Rbt.Current_Directory>
/home/itssahil/PROJECTS/Mol_Feturizer/New_Systems/rnas/1ntb

>  <Rbt.Executable>
rbdock ($Id: //depot/dev/client3/rdock/2013.1/src/exe/rbdock.cxx#4 $)

>  <Rbt.Library>
libRbt.so (2013.1, Build901 2013/11/27)

>  <Rbt.Parameter_File>
/export/apps/rDock/src/rDock_2013.1_src/data/scripts/dock_solv.prm

>  <Rbt.Receptor>
prm/pocket_docking_6.prm

>  <SCORE>
-19.5618

>  <SCORE.INTER>
-14.8797

>  <SCORE.INTER.CONST>
1

>  <SCORE.INTER.POLAR>
-2.09844

>  <SCORE.INTER.ROT>
11

>  <SCORE.INTER.SOLV>
26.5303

>  <SCORE.INTER.VDW>
-22.7018

>  <SCORE.INTER.norm>
-0.371993

>  <SCORE.INTRA>
-4.68206

>  <SCORE.INTRA.DIHEDRAL>
5.91581

>  <SCORE.INTRA.DIHEDRAL.0>
15.4453

>  <SCORE.INTRA.POLAR>
0

>  <SCORE.INTRA.POLAR.0>
0

>  <SCORE.INTRA.REPUL>
-0.764586

>  <SCORE.INTRA.REPUL.0>
0.823958

>  <SCORE.INTRA.SOLV>
4.15178

>  <SCORE.INTRA.SOLV.lig_0>
-99.3069

>  <SCORE.INTRA.VDW>
-5.89293

>  <SCORE.INTRA.VDW.0>
0.946495

>  <SCORE.INTRA.norm>
-0.117051

>  <SCORE.RESTR>
0

>  <SCORE.RESTR.CAVITY>
0

>  <SCORE.RESTR.norm>
0

>  <SCORE.SYSTEM>
0

>  <SCORE.SYSTEM.CONST>
0

>  <SCORE.SYSTEM.DIHEDRAL>
0

>  <SCORE.SYSTEM.SOLV>
0

>  <SCORE.SYSTEM.norm>
0

>  <SCORE.heavy>
40

>  <SCORE.norm>
-0.489045

>  <RMSD>
1.522

$$$$
1ntb_lig
 OpenBabel11021811403D
libRbt.so/2013.1/901 2013/11/27
 40 42  0  0  0  0  0  0  0  0999 V2000
    8.0307   32.6808   -1.4963 C   0  0  0  0  0  0  0  0  0  0  0  0
    7.2493   32.0449   -0.7120 N   0  0  0  0  0  0  0  0  0  0  0  0
   -2.0277   33.9161   -3.3839 C   0  0  0  0  0  0  0  0  0  0  0  0
   -1.5169   34.7498   -4.4108 O   0  0  0  0  0  0  0  0  0  0  0  0
    3.7475   36.5657    0.6602 C   0  0  0  0  0  0  0  0  0  0  0  0
    3.7402   37.6875    0.0329 N   0  0  0  0  0  0  0  0  0  0  0  0
   -0.3745   31.1175   -3.5052 C   0  0  0  0  0  0  0  0  0  0  0  0
   -3.3385   34.3273    1.3152 C   0  0  0  0  0  0  0  0  0  0  0  0
    6.5401   34.4717   -1.8660 C   0  0  2  0  0  0  0  0  0  0  0  0
    7.9208   33.9951   -1.4691 N   0  0  0  0  0  0  0  0  0  0  0  0
    1.3566   33.7523   -1.9506 C   0  0  2  0  0  0  0  0  0  0  0  0
   -1.4253   35.6482   -0.6706 C   0  0  1  0  0  0  0  0  0  0  0  0
   -0.3810   34.6930   -0.7045 O   0  0  0  0  0  0  0  0  0  0  0  0
    5.6820   34.7462   -0.6359 C   0  0  1  0  0  0  0  0  0  0  0  0
    6.4482   35.7649    0.1433 O   0  0  0  0  0  0  0  0  0  0  0  0
   -0.0151   34.4016   -1.9757 C   0  0  2  0  0  0  0  0  0  0  0  0
   -1.6596   36.0582    0.7631 C   0  0  1  0  0  0  0  0  0  0  0  0
   -2.0528   34.9285    1.5289 N   0  0  0  0  0  0  0  0  0  0  0  0
    4.2668   35.2015   -0.9857 C   0  0  2  0  0  0  0  0  0  0  0  0
    3.4094   35.4808    0.1477 N   0  0  0  0  0  0  0  0  0  0  0  0
   -0.8875   33.3343   -2.5813 C   0  0  1  0  0  0  0  0  0  0  0  0
   -1.3971   32.4780   -1.5536 O   0  0  0  0  0  0  0  0  0  0  0  0
   -0.3572   36.6204    1.3076 C   0  0  2  0  0  0  0  0  0  0  0  0
   -0.5182   37.0116    2.6535 O   0  0  0  0  0  0  0  0  0  0  0  0
    3.6233   34.1233   -1.8185 C   0  0  1  0  0  0  0  0  0  0  0  0
    2.3678   34.7016   -2.2718 O   0  0  0  0  0  0  0  0  0  0  0  0
    0.0297   32.5684   -3.4614 C   0  0  1  0  0  0  0  0  0  0  0  0
    1.3435   32.6950   -2.9126 O   0  0  0  0  0  0  0  0  0  0  0  0
    0.0038   37.8274    0.4413 C   0  0  1  0  0  0  0  0  0  0  0  0
    1.2199   38.4080    0.8859 O   0  0  0  0  0  0  0  0  0  0  0  0
    4.4602   33.8685   -3.1010 C   0  0  2  0  0  0  0  0  0  0  0  0
    3.8298   32.8611   -3.8769 O   0  0  0  0  0  0  0  0  0  0  0  0
    0.1423   37.3710   -1.0114 C   0  0  1  0  0  0  0  0  0  0  0  0
   -1.0809   36.7868   -1.4562 O   0  0  0  0  0  0  0  0  0  0  0  0
    5.8739   33.4004   -2.7053 C   0  0  1  0  0  0  0  0  0  0  0  0
    6.6596   33.1605   -3.8789 O   0  0  0  0  0  0  0  0  0  0  0  0
    0.4715   38.5832   -1.8829 C   0  0  0  0  0  0  0  0  0  0  0  0
    0.5640   38.1716   -3.2373 O   0  0  0  0  0  0  0  0  0  0  0  0
    8.8556   32.0833   -2.2827 N   0  0  0  0  0  0  0  0  0  0  0  0
    4.1616   36.5243    1.8321 N   0  0  0  0  0  0  0  0  0  0  0  0
  1  2  1  0  0  0  0
  1 39  1  0  0  0  0
  3  4  1  0  0  0  0
  5  6  1  0  0  0  0
  5 40  1  0  0  0  0
  9 10  1  1  0  0  0
  9 14  1  0  0  0  0
  9 35  1  0  0  0  0
 10  1  1  0  0  0  0
 11 16  1  0  0  0  0
 11 28  1  0  0  0  0
 11 26  1  6  0  0  0
 12 17  1  0  0  0  0
 12 34  1  0  0  0  0
 12 13  1  1  0  0  0
 14 15  1  1  0  0  0
 14 19  1  0  0  0  0
 16 13  1  1  0  0  0
 16 21  1  0  0  0  0
 17 18  1  1  0  0  0
 17 23  1  0  0  0  0
 18  8  1  0  0  0  0
 19 20  1  1  0  0  0
 19 25  1  0  0  0  0
 20  5  1  0  0  0  0
 21  3  1  6  0  0  0
 21 22  1  0  0  0  0
 21 27  1  0  0  0  0
 23 24  1  1  0  0  0
 23 29  1  0  0  0  0
 25 26  1  6  0  0  0
 25 31  1  0  0  0  0
 27  7  1  1  0  0  0
 27 28  1  0  0  0  0
 29 30  1  1  0  0  0
 29 33  1  0  0  0  0
 31 32  1  6  0  0  0
 31 35  1  0  0  0  0
 33 34  1  0  0  0  0
 33 37  1  6  0  0  0
 35 36  1  6  0  0  0
 37 38  1  0  0  0  0
M  END
>  <CHROM.1>
97.00858662,-60.75864004,162.48384536,-172.74790014,161.84502323,-69.44115867
74.62787022,59.85736469,57.92658221,-129.02401392,-178.37719103,2.08127477
34.87623560,-1.26928305,0.27873393,0.06079066,-2.40093516

>  <Name>
1ntb_lig

>  <RI>
0

>  <Rbt.Current_Directory>
/home/itssahil/PROJECTS/Mol_Feturizer/New_Systems/rnas/1ntb

>  <Rbt.Executable>
rbdock ($Id: //depot/dev/client3/rdock/2013.1/src/exe/rbdock.cxx#4 $)

>  <Rbt.Library>
libRbt.so (2013.1, Build901 2013/11/27)

>  <Rbt.Parameter_File>
/export/apps/rDock/src/rDock_2013.1_src/data/scripts/dock_solv.prm

>  <Rbt.Receptor>
prm/pocket_docking_2.prm

>  <SCORE>
3.35706

>  <SCORE.INTER>
7.61488

>  <SCORE.INTER.CONST>
1

>  <SCORE.INTER.POLAR>
-0.146766

>  <SCORE.INTER.ROT>
11

>  <SCORE.INTER.SOLV>
21.2933

>  <SCORE.INTER.VDW>
-12.4653

>  <SCORE.INTER.norm>
0.190372

>  <SCORE.INTRA>
-4.36697

>  <SCORE.INTRA.DIHEDRAL>
-2.73903

>  <SCORE.INTRA.DIHEDRAL.0>
15.4453

>  <SCORE.INTRA.POLAR>
0

>  <SCORE.INTRA.POLAR.0>
0

>  <SCORE.INTRA.REPUL>
-0.822437

>  <SCORE.INTRA.REPUL.0>
0.823958

>  <SCORE.INTRA.SOLV>
4.06291

>  <SCORE.INTRA.SOLV.lig_0>
-99.3069

>  <SCORE.INTRA.VDW>
-0.916723

>  <SCORE.INTRA.VDW.0>
0.946495

>  <SCORE.INTRA.norm>
-0.109174

>  <SCORE.RESTR>
0.109146

>  <SCORE.RESTR.CAVITY>
0.109146

>  <SCORE.RESTR.norm>
0.00272865

>  <SCORE.SYSTEM>
0

>  <SCORE.SYSTEM.CONST>
0

>  <SCORE.SYSTEM.DIHEDRAL>
0

>  <SCORE.SYSTEM.SOLV>
0

>  <SCORE.SYSTEM.norm>
0

>  <SCORE.heavy>
40

>  <SCORE.norm>
0.0839265

>  <RMSD>
1.523

$$$$
1ntb_lig
 OpenBabel11021811403D
libRbt.so/2013.1/901 2013/11/27
 40 42  0  0  0  0  0  0  0  0999 V2000
    9.9052   33.3487   -1.1680 C   0  0  0  0  0  0  0  0  0  0  0  0
   10.5288   32.5786   -1.9732 N   0  0  0  0  0  0  0  0  0  0  0  0
   -0.7877   34.8577   -3.5839 C   0  0  0  0  0  0  0  0  0  0  0  0
   -1.6995   34.1818   -4.4337 O   0  0  0  0  0  0  0  0  0  0  0  0
    4.8846   36.4833    0.6213 C   0  0  0  0  0  0  0  0  0  0  0  0
    4.7598   37.5195   -0.1289 N   0  0  0  0  0  0  0  0  0  0  0  0
    0.5350   32.1056   -4.7050 C   0  0  0  0  0  0  0  0  0  0  0  0
   -2.1242   33.0074    1.9953 C   0  0  0  0  0  0  0  0  0  0  0  0
    7.5605   33.5855   -1.2781 C   0  0  2  0  0  0  0  0  0  0  0  0
    8.7662   32.8793   -0.6963 N   0  0  0  0  0  0  0  0  0  0  0  0
    2.4550   33.7382   -2.2548 C   0  0  2  0  0  0  0  0  0  0  0  0
   -0.4532   35.0661   -0.5406 C   0  0  1  0  0  0  0  0  0  0  0  0
    0.7609   34.3783   -0.7792 O   0  0  0  0  0  0  0  0  0  0  0  0
    6.6527   34.1165   -0.1741 C   0  0  1  0  0  0  0  0  0  0  0  0
    7.5245   35.0218    0.6335 O   0  0  0  0  0  0  0  0  0  0  0  0
    1.1722   34.5261   -2.0613 C   0  0  2  0  0  0  0  0  0  0  0  0
   -0.8692   34.8310    0.8913 C   0  0  1  0  0  0  0  0  0  0  0  0
   -1.0830   33.4438    1.1090 N   0  0  0  0  0  0  0  0  0  0  0  0
    5.4041   34.8124   -0.7121 C   0  0  2  0  0  0  0  0  0  0  0  0
    4.5080   35.3404    0.2959 N   0  0  0  0  0  0  0  0  0  0  0  0
    0.2232   33.8784   -3.0344 C   0  0  1  0  0  0  0  0  0  0  0  0
   -0.4476   32.7808   -2.4063 O   0  0  0  0  0  0  0  0  0  0  0  0
    0.2508   35.3260    1.7909 C   0  0  2  0  0  0  0  0  0  0  0  0
   -0.0834   35.1201    3.1461 O   0  0  0  0  0  0  0  0  0  0  0  0
    4.6451   33.8207   -1.5551 C   0  0  1  0  0  0  0  0  0  0  0  0
    3.5879   34.5976   -2.1836 O   0  0  0  0  0  0  0  0  0  0  0  0
    1.1007   33.3735   -4.1196 C   0  0  1  0  0  0  0  0  0  0  0  0
    2.3820   33.1171   -3.5402 O   0  0  0  0  0  0  0  0  0  0  0  0
    0.4250   36.8179    1.5057 C   0  0  1  0  0  0  0  0  0  0  0  0
    1.4643   37.3558    2.3083 O   0  0  0  0  0  0  0  0  0  0  0  0
    5.5418   33.3092   -2.7146 C   0  0  2  0  0  0  0  0  0  0  0  0
    4.8042   32.3886   -3.5036 O   0  0  0  0  0  0  0  0  0  0  0  0
    0.7581   37.0036    0.0251 C   0  0  1  0  0  0  0  0  0  0  0  0
   -0.2874   36.4615   -0.7802 O   0  0  0  0  0  0  0  0  0  0  0  0
    6.7815   32.6046   -2.1306 C   0  0  1  0  0  0  0  0  0  0  0  0
    7.6201   32.1261   -3.1890 O   0  0  0  0  0  0  0  0  0  0  0  0
    0.9006   38.4975   -0.2676 C   0  0  0  0  0  0  0  0  0  0  0  0
   -0.3272   39.1474    0.0195 O   0  0  0  0  0  0  0  0  0  0  0  0
   10.3415   34.5177   -0.8535 N   0  0  0  0  0  0  0  0  0  0  0  0
    5.4587   36.5902    1.7193 N   0  0  0  0  0  0  0  0  0  0  0  0
  1  2  1  0  0  0  0
  1 39  1  0  0  0  0
  3  4  1  0  0  0  0
  5  6  1  0  0  0  0
  5 40  1  0  0  0  0
  9 10  1  1  0  0  0
  9 14  1  0  0  0  0
  9 35  1  0  0  0  0
 10  1  1  0  0  0  0
 11 16  1  0  0  0  0
 11 28  1  0  0  0  0
 11 26  1  6  0  0  0
 12 17  1  0  0  0  0
 12 34  1  0  0  0  0
 12 13  1  1  0  0  0
 14 15  1  6  0  0  0
 14 19  1  0  0  0  0
 16 13  1  1  0  0  0
 16 21  1  0  0  0  0
 17 18  1  6  0  0  0
 17 23  1  0  0  0  0
 18  8  1  0  0  0  0
 19 20  1  1  0  0  0
 19 25  1  0  0  0  0
 20  5  1  0  0  0  0
 21  3  1  6  0  0  0
 21 22  1  0  0  0  0
 21 27  1  0  0  0  0
 23 24  1  1  0  0  0
 23 29  1  0  0  0  0
 25 26  1  6  0  0  0
 25 31  1  0  0  0  0
 27  7  1  1  0  0  0
 27 28  1  0  0  0  0
 29 30  1  1  0  0  0
 29 33  1  0  0  0  0
 31 32  1  1  0  0  0
 31 35  1  0  0  0  0
 33 34  1  0  0  0  0
 33 37  1  1  0  0  0
 35 36  1  6  0  0  0
 37 38  1  0  0  0  0
M  END
>  <CHROM.1>
-126.38768017,-108.33835774,145.22957255,178.60012316,-178.61255865,-144.53819509
85.86498223,72.51078478,-176.74309475,-144.38509474,-60.84308085,3.03126205
34.61808574,-0.97551651,-0.19849513,-0.08767817,0.92537083

>  <Name>
1ntb_lig

>  <RI>
0

>  <Rbt.Current_Directory>
/home/itssahil/PROJECTS/Mol_Feturizer/New_Systems/rnas/1ntb

>  <Rbt.Executable>
rbdock ($Id: //depot/dev/client3/rdock/2013.1/src/exe/rbdock.cxx#4 $)

>  <Rbt.Library>
libRbt.so (2013.1, Build901 2013/11/27)

>  <Rbt.Parameter_File>
/export/apps/rDock/src/rDock_2013.1_src/data/scripts/dock_solv.prm

>  <Rbt.Receptor>
prm/pocket_docking_6.prm

>  <SCORE>
-21.637

>  <SCORE.INTER>
-10.6133

>  <SCORE.INTER.CONST>
1

>  <SCORE.INTER.POLAR>
-1.86999

>  <SCORE.INTER.ROT>
11

>  <SCORE.INTER.SOLV>
24.3213

>  <SCORE.INTER.VDW>
-19.8827

>  <SCORE.INTER.norm>
-0.265333

>  <SCORE.INTRA>
-11.0237

>  <SCORE.INTRA.DIHEDRAL>
-2.4387

>  <SCORE.INTRA.DIHEDRAL.0>
15.4453

>  <SCORE.INTRA.POLAR>
0

>  <SCORE.INTRA.POLAR.0>
0

>  <SCORE.INTRA.REPUL>
-0.803481

>  <SCORE.INTRA.REPUL.0>
0.823958

>  <SCORE.INTRA.SOLV>
-1.0401

>  <SCORE.INTRA.SOLV.lig_0>
-99.3069

>  <SCORE.INTRA.VDW>
-5.26686

>  <SCORE.INTRA.VDW.0>
0.946495

>  <SCORE.INTRA.norm>
-0.275592

>  <SCORE.RESTR>
0

>  <SCORE.RESTR.CAVITY>
0

>  <SCORE.RESTR.norm>
0

>  <SCORE.SYSTEM>
0

>  <SCORE.SYSTEM.CONST>
0

>  <SCORE.SYSTEM.DIHEDRAL>
0

>  <SCORE.SYSTEM.SOLV>
0

>  <SCORE.SYSTEM.norm>
0

>  <SCORE.heavy>
40

>  <SCORE.norm>
-0.540925

>  <RMSD>
1.612

$$$$
1ntb_lig
 OpenBabel11021811403D
libRbt.so/2013.1/901 2013/11/27
 40 42  0  0  0  0  0  0  0  0999 V2000
   10.2280   33.1571   -1.0967 C   0  0  0  0  0  0  0  0  0  0  0  0
   10.9853   32.8388   -0.1193 N   0  0  0  0  0  0  0  0  0  0  0  0
   -0.3814   34.8028   -3.7454 C   0  0  0  0  0  0  0  0  0  0  0  0
    0.1847   34.6127   -5.0313 O   0  0  0  0  0  0  0  0  0  0  0  0
    5.2189   35.7950    0.1884 C   0  0  0  0  0  0  0  0  0  0  0  0
    5.8256   35.6788    1.3155 N   0  0  0  0  0  0  0  0  0  0  0  0
    0.1958   32.1639   -1.9335 C   0  0  0  0  0  0  0  0  0  0  0  0
   -0.3101   37.9331    1.1369 C   0  0  0  0  0  0  0  0  0  0  0  0
    7.9965   33.2187   -1.8600 C   0  0  2  0  0  0  0  0  0  0  0  0
    9.1276   32.4405   -1.2229 N   0  0  0  0  0  0  0  0  0  0  0  0
    2.9694   34.2890   -2.3162 C   0  0  2  0  0  0  0  0  0  0  0  0
    0.7306   37.1122   -2.2505 C   0  0  1  0  0  0  0  0  0  0  0  0
    1.9201   36.3630   -2.0830 O   0  0  0  0  0  0  0  0  0  0  0  0
    6.9666   33.6388   -0.8170 C   0  0  1  0  0  0  0  0  0  0  0  0
    7.7384   34.4424    0.1782 O   0  0  0  0  0  0  0  0  0  0  0  0
    1.9128   35.2424   -2.8439 C   0  0  2  0  0  0  0  0  0  0  0  0
    0.6391   38.1296   -1.1391 C   0  0  1  0  0  0  0  0  0  0  0  0
    0.5854   37.4676    0.1163 N   0  0  0  0  0  0  0  0  0  0  0  0
    5.7878   34.4025   -1.4169 C   0  0  2  0  0  0  0  0  0  0  0  0
    4.7808   34.8297   -0.4677 N   0  0  0  0  0  0  0  0  0  0  0  0
    0.6359   34.4610   -2.6819 C   0  0  1  0  0  0  0  0  0  0  0  0
    0.0834   34.6913   -1.3816 O   0  0  0  0  0  0  0  0  0  0  0  0
    1.8777   39.0071   -1.2051 C   0  0  2  0  0  0  0  0  0  0  0  0
    1.8478   39.9734   -0.1775 O   0  0  0  0  0  0  0  0  0  0  0  0
    5.1324   33.5155   -2.4434 C   0  0  1  0  0  0  0  0  0  0  0  0
    4.1540   34.3672   -3.1020 O   0  0  0  0  0  0  0  0  0  0  0  0
    1.0573   33.0432   -2.8024 C   0  0  1  0  0  0  0  0  0  0  0  0
    2.4195   32.9708   -2.3753 O   0  0  0  0  0  0  0  0  0  0  0  0
    1.8705   39.6858   -2.5751 C   0  0  1  0  0  0  0  0  0  0  0  0
    3.0071   40.5235   -2.7170 O   0  0  0  0  0  0  0  0  0  0  0  0
    6.1576   33.1208   -3.5404 C   0  0  2  0  0  0  0  0  0  0  0  0
    5.5169   32.2984   -4.5034 O   0  0  0  0  0  0  0  0  0  0  0  0
    1.8751   38.6095   -3.6611 C   0  0  1  0  0  0  0  0  0  0  0  0
    0.7323   37.7678   -3.5164 O   0  0  0  0  0  0  0  0  0  0  0  0
    7.3222   32.3437   -2.8971 C   0  0  1  0  0  0  0  0  0  0  0  0
    8.2779   31.9716   -3.8973 O   0  0  0  0  0  0  0  0  0  0  0  0
    1.8353   39.2872   -5.0311 C   0  0  0  0  0  0  0  0  0  0  0  0
    0.6877   40.1177   -5.1065 O   0  0  0  0  0  0  0  0  0  0  0  0
   10.5258   34.0976   -1.9229 N   0  0  0  0  0  0  0  0  0  0  0  0
    4.9965   36.9290   -0.2712 N   0  0  0  0  0  0  0  0  0  0  0  0
  1  2  1  0  0  0  0
  1 39  1  0  0  0  0
  3  4  1  0  0  0  0
  5  6  1  0  0  0  0
  5 40  1  0  0  0  0
  9 10  1  1  0  0  0
  9 14  1  0  0  0  0
  9 35  1  0  0  0  0
 10  1  1  0  0  0  0
 11 16  1  0  0  0  0
 11 28  1  0  0  0  0
 11 26  1  6  0  0  0
 12 17  1  0  0  0  0
 12 34  1  0  0  0  0
 12 13  1  1  0  0  0
 14 15  1  1  0  0  0
 14 19  1  0  0  0  0
 16 13  1  1  0  0  0
 16 21  1  0  0  0  0
 17 18  1  1  0  0  0
 17 23  1  0  0  0  0
 18  8  1  0  0  0  0
 19 20  1  1  0  0  0
 19 25  1  0  0  0  0
 20  5  1  0  0  0  0
 21  3  1  6  0  0  0
 21 22  1  0  0  0  0
 21 27  1  0  0  0  0
 23 24  1  1  0  0  0
 23 29  1  0  0  0  0
 25 26  1  6  0  0  0
 25 31  1  0  0  0  0
 27  7  1  1  0  0  0
 27 28  1  0  0  0  0
 29 30  1  6  0  0  0
 29 33  1  0  0  0  0
 31 32  1  6  0  0  0
 31 35  1  0  0  0  0
 33 34  1  0  0  0  0
 33 37  1  6  0  0  0
 35 36  1  6  0  0  0
 37 38  1  0  0  0  0
M  END
>  <CHROM.1>
-104.13655190,150.91828650,174.90136541,165.52960356,-162.59574462,-138.53223185
74.29456027,-92.66336306,55.37991417,-86.73492771,-57.26179562,3.78069403
35.45738809,-2.05483183,-0.47161284,-0.31397077,0.36410965

>  <Name>
1ntb_lig

>  <RI>
0

>  <Rbt.Current_Directory>
/home/itssahil/PROJECTS/Mol_Feturizer/New_Systems/rnas/1ntb

>  <Rbt.Executable>
rbdock ($Id: //depot/dev/client3/rdock/2013.1/src/exe/rbdock.cxx#4 $)

>  <Rbt.Library>
libRbt.so (2013.1, Build901 2013/11/27)

>  <Rbt.Parameter_File>
/export/apps/rDock/src/rDock_2013.1_src/data/scripts/dock_solv.prm

>  <Rbt.Receptor>
prm/pocket_docking_3.prm

>  <SCORE>
-23.0992

>  <SCORE.INTER>
-14.7236

>  <SCORE.INTER.CONST>
1

>  <SCORE.INTER.POLAR>
-1.79414

>  <SCORE.INTER.ROT>
11

>  <SCORE.INTER.SOLV>
28.3881

>  <SCORE.INTER.VDW>
-24.2313

>  <SCORE.INTER.norm>
-0.36809

>  <SCORE.INTRA>
-8.38209

>  <SCORE.INTRA.DIHEDRAL>
-6.50317

>  <SCORE.INTRA.DIHEDRAL.0>
15.4453

>  <SCORE.INTRA.POLAR>
0

>  <SCORE.INTRA.POLAR.0>
0

>  <SCORE.INTRA.REPUL>
-0.823531

>  <SCORE.INTRA.REPUL.0>
0.823958

>  <SCORE.INTRA.SOLV>
-0.073509

>  <SCORE.INTRA.SOLV.lig_0>
-99.3069

>  <SCORE.INTRA.VDW>
-0.976092

>  <SCORE.INTRA.VDW.0>
0.946495

>  <SCORE.INTRA.norm>
-0.209552

>  <SCORE.RESTR>
0.00649458

>  <SCORE.RESTR.CAVITY>
0.00649458

>  <SCORE.RESTR.norm>
0.000162365

>  <SCORE.SYSTEM>
0

>  <SCORE.SYSTEM.CONST>
0

>  <SCORE.SYSTEM.DIHEDRAL>
0

>  <SCORE.SYSTEM.SOLV>
0

>  <SCORE.SYSTEM.norm>
0

>  <SCORE.heavy>
40

>  <SCORE.norm>
-0.57748

>  <RMSD>
1.639

$$$$
1ntb_lig
 OpenBabel11021811403D
libRbt.so/2013.1/901 2013/11/27
 40 42  0  0  0  0  0  0  0  0999 V2000
   10.3683   32.3019   -2.7476 C   0  0  0  0  0  0  0  0  0  0  0  0
   10.2849   32.2784   -4.0214 N   0  0  0  0  0  0  0  0  0  0  0  0
   -0.0996   34.8159   -3.7166 C   0  0  0  0  0  0  0  0  0  0  0  0
   -0.8463   35.9019   -3.1938 O   0  0  0  0  0  0  0  0  0  0  0  0
    6.1369   35.7630    0.4192 C   0  0  0  0  0  0  0  0  0  0  0  0
    7.1184   35.7688    1.2491 N   0  0  0  0  0  0  0  0  0  0  0  0
    0.6640   31.8108   -2.7333 C   0  0  0  0  0  0  0  0  0  0  0  0
   -2.2598   37.1201   -0.5186 C   0  0  0  0  0  0  0  0  0  0  0  0
    8.1416   32.9686   -2.3434 C   0  0  2  0  0  0  0  0  0  0  0  0
    9.2651   31.9845   -2.0976 N   0  0  0  0  0  0  0  0  0  0  0  0
    3.0765   34.2443   -1.9502 C   0  0  2  0  0  0  0  0  0  0  0  0
    1.0924   37.2125   -1.6892 C   0  0  1  0  0  0  0  0  0  0  0  0
    1.6794   35.9917   -1.2780 O   0  0  0  0  0  0  0  0  0  0  0  0
    7.4560   33.3529   -1.0368 C   0  0  1  0  0  0  0  0  0  0  0  0
    8.5470   33.9153   -0.1852 O   0  0  0  0  0  0  0  0  0  0  0  0
    1.9549   35.1916   -2.3357 C   0  0  2  0  0  0  0  0  0  0  0  0
    0.1475   37.6827   -0.6101 C   0  0  1  0  0  0  0  0  0  0  0  0
   -0.8836   36.7241   -0.4218 N   0  0  0  0  0  0  0  0  0  0  0  0
    6.2933   34.3230   -1.2365 C   0  0  2  0  0  0  0  0  0  0  0  0
    5.6087   34.7249   -0.0251 N   0  0  0  0  0  0  0  0  0  0  0  0
    0.8137   34.2606   -2.6488 C   0  0  1  0  0  0  0  0  0  0  0  0
    0.0673   33.9846   -1.4589 O   0  0  0  0  0  0  0  0  0  0  0  0
    0.9446   37.8393    0.6740 C   0  0  2  0  0  0  0  0  0  0  0  0
    0.1038   38.2693    1.7222 O   0  0  0  0  0  0  0  0  0  0  0  0
    5.2947   33.6697   -2.1564 C   0  0  1  0  0  0  0  0  0  0  0  0
    4.3238   34.7116   -2.4531 O   0  0  0  0  0  0  0  0  0  0  0  0
    1.4744   33.0195   -3.1240 C   0  0  1  0  0  0  0  0  0  0  0  0
    2.7631   32.9659   -2.5078 O   0  0  0  0  0  0  0  0  0  0  0  0
    2.0301   38.8806    0.4003 C   0  0  1  0  0  0  0  0  0  0  0  0
    2.8263   39.0796    1.5579 O   0  0  0  0  0  0  0  0  0  0  0  0
    5.9669   33.3185   -3.5110 C   0  0  2  0  0  0  0  0  0  0  0  0
    5.0068   32.7182   -4.3664 O   0  0  0  0  0  0  0  0  0  0  0  0
    2.9026   38.3942   -0.7573 C   0  0  1  0  0  0  0  0  0  0  0  0
    2.1004   38.1938   -1.9199 O   0  0  0  0  0  0  0  0  0  0  0  0
    7.1242   32.3308   -3.2674 C   0  0  1  0  0  0  0  0  0  0  0  0
    7.7555   31.9961   -4.5091 O   0  0  0  0  0  0  0  0  0  0  0  0
    3.9684   39.4498   -1.0526 C   0  0  0  0  0  0  0  0  0  0  0  0
    4.9105   39.4696    0.0077 O   0  0  0  0  0  0  0  0  0  0  0  0
   11.4476   32.6372   -2.1325 N   0  0  0  0  0  0  0  0  0  0  0  0
    5.6318   36.8424    0.0636 N   0  0  0  0  0  0  0  0  0  0  0  0
  1  2  1  0  0  0  0
  1 39  1  0  0  0  0
  3  4  1  0  0  0  0
  5  6  1  0  0  0  0
  5 40  1  0  0  0  0
  9 10  1  1  0  0  0
  9 14  1  0  0  0  0
  9 35  1  0  0  0  0
 10  1  1  0  0  0  0
 11 16  1  0  0  0  0
 11 28  1  0  0  0  0
 11 26  1  6  0  0  0
 12 17  1  0  0  0  0
 12 34  1  0  0  0  0
 12 13  1  1  0  0  0
 14 15  1  1  0  0  0
 14 19  1  0  0  0  0
 16 13  1  1  0  0  0
 16 21  1  0  0  0  0
 17 18  1  1  0  0  0
 17 23  1  0  0  0  0
 18  8  1  0  0  0  0
 19 20  1  1  0  0  0
 19 25  1  0  0  0  0
 20  5  1  0  0  0  0
 21  3  1  6  0  0  0
 21 22  1  0  0  0  0
 21 27  1  0  0  0  0
 23 24  1  1  0  0  0
 23 29  1  0  0  0  0
 25 26  1  6  0  0  0
 25 31  1  0  0  0  0
 27  7  1  1  0  0  0
 27 28  1  0  0  0  0
 29 30  1  1  0  0  0
 29 33  1  0  0  0  0
 31 32  1  6  0  0  0
 31 35  1  0  0  0  0
 33 34  1  0  0  0  0
 33 37  1  6  0  0  0
 35 36  1  6  0  0  0
 37 38  1  0  0  0  0
M  END
>  <CHROM.1>
-134.10716155,-64.01093311,-174.00986480,148.57797927,155.32710890,-125.09704670
91.29657625,-89.77266147,-71.29421468,-118.01442800,70.53072119,3.98144742
35.17569579,-1.54343128,-0.49926078,-0.13879989,0.62435315

>  <Name>
1ntb_lig

>  <RI>
0

>  <Rbt.Current_Directory>
/home/itssahil/PROJECTS/Mol_Feturizer/New_Systems/rnas/1ntb

>  <Rbt.Executable>
rbdock ($Id: //depot/dev/client3/rdock/2013.1/src/exe/rbdock.cxx#4 $)

>  <Rbt.Library>
libRbt.so (2013.1, Build901 2013/11/27)

>  <Rbt.Parameter_File>
/export/apps/rDock/src/rDock_2013.1_src/data/scripts/dock_solv.prm

>  <Rbt.Receptor>
prm/pocket_docking_3.prm

>  <SCORE>
-17.9848

>  <SCORE.INTER>
-10.1519

>  <SCORE.INTER.CONST>
1

>  <SCORE.INTER.POLAR>
-1.74429

>  <SCORE.INTER.ROT>
11

>  <SCORE.INTER.SOLV>
25.7699

>  <SCORE.INTER.VDW>
-20.4769

>  <SCORE.INTER.norm>
-0.253797

>  <SCORE.INTRA>
-7.83291

>  <SCORE.INTRA.DIHEDRAL>
3.32521

>  <SCORE.INTRA.DIHEDRAL.0>
15.4453

>  <SCORE.INTRA.POLAR>
0

>  <SCORE.INTRA.POLAR.0>
0

>  <SCORE.INTRA.REPUL>
-0.823958

>  <SCORE.INTRA.REPUL.0>
0.823958

>  <SCORE.INTRA.SOLV>
2.5008

>  <SCORE.INTRA.SOLV.lig_0>
-99.3069

>  <SCORE.INTRA.VDW>
-6.62612

>  <SCORE.INTRA.VDW.0>
0.946495

>  <SCORE.INTRA.norm>
-0.195823

>  <SCORE.RESTR>
0

>  <SCORE.RESTR.CAVITY>
0

>  <SCORE.RESTR.norm>
0

>  <SCORE.SYSTEM>
0

>  <SCORE.SYSTEM.CONST>
0

>  <SCORE.SYSTEM.DIHEDRAL>
0

>  <SCORE.SYSTEM.SOLV>
0

>  <SCORE.SYSTEM.norm>
0

>  <SCORE.heavy>
40

>  <SCORE.norm>
-0.44962

>  <RMSD>
1.671

$$$$
1ntb_lig
 OpenBabel11021811403D
libRbt.so/2013.1/901 2013/11/27
 40 42  0  0  0  0  0  0  0  0999 V2000
    9.9605   33.3089   -1.1354 C   0  0  0  0  0  0  0  0  0  0  0  0
   10.6049   32.5358   -1.9210 N   0  0  0  0  0  0  0  0  0  0  0  0
   -0.7676   34.6904   -3.5007 C   0  0  0  0  0  0  0  0  0  0  0  0
   -0.1275   35.8165   -4.0774 O   0  0  0  0  0  0  0  0  0  0  0  0
    4.6825   36.3953    0.5053 C   0  0  0  0  0  0  0  0  0  0  0  0
    4.0994   37.2975   -0.2004 N   0  0  0  0  0  0  0  0  0  0  0  0
    0.5997   32.0149   -4.7466 C   0  0  0  0  0  0  0  0  0  0  0  0
   -2.1416   32.6784    1.8129 C   0  0  0  0  0  0  0  0  0  0  0  0
    7.6129   33.5191   -1.2373 C   0  0  2  0  0  0  0  0  0  0  0  0
    8.8285   32.8256   -0.6609 N   0  0  0  0  0  0  0  0  0  0  0  0
    2.5118   33.5867   -2.2509 C   0  0  2  0  0  0  0  0  0  0  0  0
   -0.4004   34.7886   -0.4525 C   0  0  1  0  0  0  0  0  0  0  0  0
    0.8209   34.1302   -0.7335 O   0  0  0  0  0  0  0  0  0  0  0  0
    6.6841   34.0046   -0.1298 C   0  0  1  0  0  0  0  0  0  0  0  0
    7.5291   34.9094    0.7064 O   0  0  0  0  0  0  0  0  0  0  0  0
    1.2150   34.3387   -2.0126 C   0  0  2  0  0  0  0  0  0  0  0  0
   -0.7532   34.5562    0.9967 C   0  0  1  0  0  0  0  0  0  0  0  0
   -0.9220   33.1660    1.2340 N   0  0  0  0  0  0  0  0  0  0  0  0
    5.4255   34.6858   -0.6631 C   0  0  2  0  0  0  0  0  0  0  0  0
    4.5094   35.1708    0.3484 N   0  0  0  0  0  0  0  0  0  0  0  0
    0.2692   33.7112   -3.0019 C   0  0  1  0  0  0  0  0  0  0  0  0
   -0.3717   32.5750   -2.4125 O   0  0  0  0  0  0  0  0  0  0  0  0
    0.3882   35.0881    1.8470 C   0  0  2  0  0  0  0  0  0  0  0  0
    0.1133   34.8862    3.2160 O   0  0  0  0  0  0  0  0  0  0  0  0
    4.6956   33.6979   -1.5358 C   0  0  1  0  0  0  0  0  0  0  0  0
    3.6273   34.4662   -2.1559 O   0  0  0  0  0  0  0  0  0  0  0  0
    1.1452   33.2697   -4.1155 C   0  0  1  0  0  0  0  0  0  0  0  0
    2.4378   33.0170   -3.5598 O   0  0  0  0  0  0  0  0  0  0  0  0
    0.5120   36.5813    1.5428 C   0  0  1  0  0  0  0  0  0  0  0  0
    1.5678   37.1532    2.2990 O   0  0  0  0  0  0  0  0  0  0  0  0
    5.6133   33.2329   -2.6984 C   0  0  2  0  0  0  0  0  0  0  0  0
    4.9027   32.3152   -3.5151 O   0  0  0  0  0  0  0  0  0  0  0  0
    0.7813   36.7619    0.0486 C   0  0  1  0  0  0  0  0  0  0  0  0
   -0.2807   36.1856   -0.7100 O   0  0  0  0  0  0  0  0  0  0  0  0
    6.8628   32.5417   -2.1194 C   0  0  1  0  0  0  0  0  0  0  0  0
    7.7208   32.1061   -3.1807 O   0  0  0  0  0  0  0  0  0  0  0  0
    0.8731   38.2561   -0.2617 C   0  0  0  0  0  0  0  0  0  0  0  0
   -0.3695   38.8712    0.0385 O   0  0  0  0  0  0  0  0  0  0  0  0
   10.3706   34.4928   -0.8423 N   0  0  0  0  0  0  0  0  0  0  0  0
    5.5127   36.7358    1.3665 N   0  0  0  0  0  0  0  0  0  0  0  0
  1  2  1  0  0  0  0
  1 39  1  0  0  0  0
  3  4  1  0  0  0  0
  5  6  1  0  0  0  0
  5 40  1  0  0  0  0
  9 10  1  1  0  0  0
  9 14  1  0  0  0  0
  9 35  1  0  0  0  0
 10  1  1  0  0  0  0
 11 16  1  0  0  0  0
 11 28  1  0  0  0  0
 11 26  1  6  0  0  0
 12 17  1  0  0  0  0
 12 34  1  0  0  0  0
 12 13  1  1  0  0  0
 14 15  1  1  0  0  0
 14 19  1  0  0  0  0
 16 13  1  1  0  0  0
 16 21  1  0  0  0  0
 17 18  1  6  0  0  0
 17 23  1  0  0  0  0
 18  8  1  0  0  0  0
 19 20  1  1  0  0  0
 19 25  1  0  0  0  0
 20  5  1  0  0  0  0
 21  3  1  6  0  0  0
 21 22  1  0  0  0  0
 21 27  1  0  0  0  0
 23 24  1  1  0  0  0
 23 29  1  0  0  0  0
 25 26  1  6  0  0  0
 25 31  1  0  0  0  0
 27  7  1  1  0  0  0
 27 28  1  0  0  0  0
 29 30  1  1  0  0  0
 29 33  1  0  0  0  0
 31 32  1  6  0  0  0
 31 35  1  0  0  0  0
 33 34  1  0  0  0  0
 33 37  1  1  0  0  0
 35 36  1  6  0  0  0
 37 38  1  0  0  0  0
M  END
>  <CHROM.1>
-127.90766874,-109.82206968,143.67125138,-177.97373504,-178.97638564,-125.10506449
99.38995585,86.72535725,56.90494073,-144.08778559,-62.22968338,3.10696536
34.51548519,-0.95402493,-0.21809488,-0.08465968,0.94508619

>  <Name>
1ntb_lig

>  <RI>
0

>  <Rbt.Current_Directory>
/home/itssahil/PROJECTS/Mol_Feturizer/New_Systems/rnas/1ntb

>  <Rbt.Executable>
rbdock ($Id: //depot/dev/client3/rdock/2013.1/src/exe/rbdock.cxx#4 $)

>  <Rbt.Library>
libRbt.so (2013.1, Build901 2013/11/27)

>  <Rbt.Parameter_File>
/export/apps/rDock/src/rDock_2013.1_src/data/scripts/dock_solv.prm

>  <Rbt.Receptor>
prm/pocket_docking_8.prm

>  <SCORE>
-22.2568

>  <SCORE.INTER>
-11.3965

>  <SCORE.INTER.CONST>
1

>  <SCORE.INTER.POLAR>
-1.97559

>  <SCORE.INTER.ROT>
11

>  <SCORE.INTER.SOLV>
23.5354

>  <SCORE.INTER.VDW>
-19.7908

>  <SCORE.INTER.norm>
-0.284912

>  <SCORE.INTRA>
-10.8604

>  <SCORE.INTRA.DIHEDRAL>
-1.51414

>  <SCORE.INTRA.DIHEDRAL.0>
15.4453

>  <SCORE.INTRA.POLAR>
0

>  <SCORE.INTRA.POLAR.0>
0

>  <SCORE.INTRA.REPUL>
-0.817361

>  <SCORE.INTRA.REPUL.0>
0.823958

>  <SCORE.INTRA.SOLV>
0.65356

>  <SCORE.INTRA.SOLV.lig_0>
-99.3069

>  <SCORE.INTRA.VDW>
-6.34326

>  <SCORE.INTRA.VDW.0>
0.946495

>  <SCORE.INTRA.norm>
-0.271509

>  <SCORE.RESTR>
0

>  <SCORE.RESTR.CAVITY>
0

>  <SCORE.RESTR.norm>
0

>  <SCORE.SYSTEM>
0

>  <SCORE.SYSTEM.CONST>
0

>  <SCORE.SYSTEM.DIHEDRAL>
0

>  <SCORE.SYSTEM.SOLV>
0

>  <SCORE.SYSTEM.norm>
0

>  <SCORE.heavy>
40

>  <SCORE.norm>
-0.556421

>  <RMSD>
1.702

$$$$
1ntb_lig
 OpenBabel11021811403D
libRbt.so/2013.1/901 2013/11/27
 40 42  0  0  0  0  0  0  0  0999 V2000
   10.0065   33.3136   -1.0728 C   0  0  0  0  0  0  0  0  0  0  0  0
   10.7013   32.5182   -1.7903 N   0  0  0  0  0  0  0  0  0  0  0  0
   -0.7898   35.3327   -2.6730 C   0  0  0  0  0  0  0  0  0  0  0  0
   -0.3061   35.1109   -3.9872 O   0  0  0  0  0  0  0  0  0  0  0  0
    5.1012   36.6191    0.5990 C   0  0  0  0  0  0  0  0  0  0  0  0
    4.9619   37.6664   -0.1330 N   0  0  0  0  0  0  0  0  0  0  0  0
   -0.2111   32.5812   -1.0377 C   0  0  0  0  0  0  0  0  0  0  0  0
   -0.8266   37.9640    1.6577 C   0  0  0  0  0  0  0  0  0  0  0  0
    7.6722   33.5995   -1.2606 C   0  0  2  0  0  0  0  0  0  0  0  0
    8.8422   32.8454   -0.6660 N   0  0  0  0  0  0  0  0  0  0  0  0
    2.5926   34.6726   -1.3855 C   0  0  2  0  0  0  0  0  0  0  0  0
    0.5126   37.6332   -1.2254 C   0  0  1  0  0  0  0  0  0  0  0  0
    1.5942   36.7486   -0.9980 O   0  0  0  0  0  0  0  0  0  0  0  0
    6.7786   34.1730   -0.1664 C   0  0  1  0  0  0  0  0  0  0  0  0
    7.6812   35.0441    0.6450 O   0  0  0  0  0  0  0  0  0  0  0  0
    1.5400   35.6751   -1.8222 C   0  0  2  0  0  0  0  0  0  0  0  0
    0.5830   38.7532   -0.2158 C   0  0  1  0  0  0  0  0  0  0  0  0
    0.4690   38.2251    1.0978 N   0  0  0  0  0  0  0  0  0  0  0  0
    5.5650   34.9187   -0.7175 C   0  0  2  0  0  0  0  0  0  0  0  0
    4.6838   35.4884    0.2808 N   0  0  0  0  0  0  0  0  0  0  0  0
    0.2529   34.9098   -1.6648 C   0  0  1  0  0  0  0  0  0  0  0  0
   -0.2539   35.0734   -0.3361 O   0  0  0  0  0  0  0  0  0  0  0  0
    1.9263   39.4446   -0.3772 C   0  0  2  0  0  0  0  0  0  0  0  0
    2.0491   40.4980    0.5533 O   0  0  0  0  0  0  0  0  0  0  0  0
    4.7717   33.9564   -1.5630 C   0  0  1  0  0  0  0  0  0  0  0  0
    3.7535   34.7746   -2.2034 O   0  0  0  0  0  0  0  0  0  0  0  0
    0.6409   33.4938   -1.8813 C   0  0  1  0  0  0  0  0  0  0  0  0
    2.0140   33.3708   -1.5035 O   0  0  0  0  0  0  0  0  0  0  0  0
    1.9797   39.9866   -1.8058 C   0  0  1  0  0  0  0  0  0  0  0  0
    3.2149   40.6454   -2.0380 O   0  0  0  0  0  0  0  0  0  0  0  0
    5.6555   33.4026   -2.7130 C   0  0  2  0  0  0  0  0  0  0  0  0
    4.8861   32.5106   -3.5045 O   0  0  0  0  0  0  0  0  0  0  0  0
    1.8158   38.8227   -2.7837 C   0  0  1  0  0  0  0  0  0  0  0  0
    0.5740   38.1610   -2.5482 O   0  0  0  0  0  0  0  0  0  0  0  0
    6.8595   32.6488   -2.1159 C   0  0  1  0  0  0  0  0  0  0  0  0
    7.6857   32.1308   -3.1653 O   0  0  0  0  0  0  0  0  0  0  0  0
    1.8367   39.3681   -4.2118 C   0  0  0  0  0  0  0  0  0  0  0  0
    1.3759   38.3632   -5.1008 O   0  0  0  0  0  0  0  0  0  0  0  0
   10.3996   34.5042   -0.7834 N   0  0  0  0  0  0  0  0  0  0  0  0
    5.7315   36.7009    1.6680 N   0  0  0  0  0  0  0  0  0  0  0  0
  1  2  1  0  0  0  0
  1 39  1  0  0  0  0
  3  4  1  0  0  0  0
  5  6  1  0  0  0  0
  5 40  1  0  0  0  0
  9 10  1  1  0  0  0
  9 14  1  0  0  0  0
  9 35  1  0  0  0  0
 10  1  1  0  0  0  0
 11 16  1  0  0  0  0
 11 28  1  0  0  0  0
 11 26  1  6  0  0  0
 12 17  1  0  0  0  0
 12 34  1  0  0  0  0
 12 13  1  1  0  0  0
 14 15  1  6  0  0  0
 14 19  1  0  0  0  0
 16 13  1  1  0  0  0
 16 21  1  0  0  0  0
 17 18  1  1  0  0  0
 17 23  1  0  0  0  0
 18  8  1  0  0  0  0
 19 20  1  1  0  0  0
 19 25  1  0  0  0  0
 20  5  1  0  0  0  0
 21  3  1  6  0  0  0
 21 22  1  0  0  0  0
 21 27  1  0  0  0  0
 23 24  1  1  0  0  0
 23 29  1  0  0  0  0
 25 26  1  6  0  0  0
 25 31  1  0  0  0  0
 27  7  1  1  0  0  0
 27 28  1  0  0  0  0
 29 30  1  6  0  0  0
 29 33  1  0  0  0  0
 31 32  1  1  0  0  0
 31 35  1  0  0  0  0
 33 34  1  0  0  0  0
 33 37  1  6  0  0  0
 35 36  1  6  0  0  0
 37 38  1  0  0  0  0
M  END
>  <CHROM.1>
-122.83400170,-114.41097016,170.12918503,176.23451037,-171.36441674,-83.94341721
86.26095986,76.00889276,59.86231884,-95.03659204,-166.37351474,3.56211096
35.80554236,-1.34704615,-0.48776428,-0.20549042,0.32654284

>  <Name>
1ntb_lig

>  <RI>
0

>  <Rbt.Current_Directory>
/home/itssahil/PROJECTS/Mol_Feturizer/New_Systems/rnas/1ntb

>  <Rbt.Executable>
rbdock ($Id: //depot/dev/client3/rdock/2013.1/src/exe/rbdock.cxx#4 $)

>  <Rbt.Library>
libRbt.so (2013.1, Build901 2013/11/27)

>  <Rbt.Parameter_File>
/export/apps/rDock/src/rDock_2013.1_src/data/scripts/dock_solv.prm

>  <Rbt.Receptor>
prm/pocket_docking_3.prm

>  <SCORE>
-18.8652

>  <SCORE.INTER>
-7.03966

>  <SCORE.INTER.CONST>
1

>  <SCORE.INTER.POLAR>
-1.20634

>  <SCORE.INTER.ROT>
11

>  <SCORE.INTER.SOLV>
23.6446

>  <SCORE.INTER.VDW>
-19.4868

>  <SCORE.INTER.norm>
-0.175992

>  <SCORE.INTRA>
-11.8256

>  <SCORE.INTRA.DIHEDRAL>
-5.97452

>  <SCORE.INTRA.DIHEDRAL.0>
15.4453

>  <SCORE.INTRA.POLAR>
0

>  <SCORE.INTRA.POLAR.0>
0

>  <SCORE.INTRA.REPUL>
-0.823958

>  <SCORE.INTRA.REPUL.0>
0.823958

>  <SCORE.INTRA.SOLV>
0.316453

>  <SCORE.INTRA.SOLV.lig_0>
-99.3069

>  <SCORE.INTRA.VDW>
-4.87676

>  <SCORE.INTRA.VDW.0>
0.946495

>  <SCORE.INTRA.norm>
-0.29564

>  <SCORE.RESTR>
0

>  <SCORE.RESTR.CAVITY>
0

>  <SCORE.RESTR.norm>
0

>  <SCORE.SYSTEM>
0

>  <SCORE.SYSTEM.CONST>
0

>  <SCORE.SYSTEM.DIHEDRAL>
0

>  <SCORE.SYSTEM.SOLV>
0

>  <SCORE.SYSTEM.norm>
0

>  <SCORE.heavy>
40

>  <SCORE.norm>
-0.471631

>  <RMSD>
1.722

$$$$
1ntb_lig
 OpenBabel11021811403D
libRbt.so/2013.1/901 2013/11/27
 40 42  0  0  0  0  0  0  0  0999 V2000
   10.1179   32.9314   -2.7392 C   0  0  0  0  0  0  0  0  0  0  0  0
   10.4163   32.2296   -3.7633 N   0  0  0  0  0  0  0  0  0  0  0  0
   -0.7032   34.6545   -3.5199 C   0  0  0  0  0  0  0  0  0  0  0  0
   -1.6950   33.9840   -4.2796 O   0  0  0  0  0  0  0  0  0  0  0  0
    5.3579   35.7512    0.3775 C   0  0  0  0  0  0  0  0  0  0  0  0
    6.2682   35.9334    1.2664 N   0  0  0  0  0  0  0  0  0  0  0  0
    0.4762   31.8641   -4.7041 C   0  0  0  0  0  0  0  0  0  0  0  0
   -1.7432   32.5245    1.8049 C   0  0  0  0  0  0  0  0  0  0  0  0
    7.8237   33.2673   -2.3038 C   0  0  2  0  0  0  0  0  0  0  0  0
    9.0963   32.4960   -2.0273 N   0  0  0  0  0  0  0  0  0  0  0  0
    2.6162   33.4924   -2.4403 C   0  0  2  0  0  0  0  0  0  0  0  0
   -0.2006   34.7598   -0.5484 C   0  0  1  0  0  0  0  0  0  0  0  0
    1.0583   34.1828   -0.8424 O   0  0  0  0  0  0  0  0  0  0  0  0
    7.0730   33.5651   -1.0105 C   0  0  1  0  0  0  0  0  0  0  0  0
    8.0461   34.3281   -0.1722 O   0  0  0  0  0  0  0  0  0  0  0  0
    1.3671   34.3063   -2.1555 C   0  0  2  0  0  0  0  0  0  0  0  0
   -0.5340   34.4826    0.8974 C   0  0  1  0  0  0  0  0  0  0  0  0
   -0.6158   33.0810    1.1125 N   0  0  0  0  0  0  0  0  0  0  0  0
    5.7638   34.3172   -1.2407 C   0  0  2  0  0  0  0  0  0  0  0  0
    5.0118   34.6299   -0.0430 N   0  0  0  0  0  0  0  0  0  0  0  0
    0.3314   33.6638   -3.0395 C   0  0  1  0  0  0  0  0  0  0  0  0
   -0.3054   32.5871   -2.3437 O   0  0  0  0  0  0  0  0  0  0  0  0
    0.5746   35.0704    1.7542 C   0  0  2  0  0  0  0  0  0  0  0  0
    0.3168   34.8298    3.1203 O   0  0  0  0  0  0  0  0  0  0  0  0
    4.8977   33.4785   -2.1443 C   0  0  1  0  0  0  0  0  0  0  0  0
    3.7660   34.3314   -2.4730 O   0  0  0  0  0  0  0  0  0  0  0  0
    1.1095   33.1288   -4.1845 C   0  0  1  0  0  0  0  0  0  0  0  0
    2.4287   32.8561   -3.7066 O   0  0  0  0  0  0  0  0  0  0  0  0
    0.6049   36.5731    1.4741 C   0  0  1  0  0  0  0  0  0  0  0  0
    1.6255   37.1970    2.2375 O   0  0  0  0  0  0  0  0  0  0  0  0
    5.6299   33.2098   -3.4867 C   0  0  2  0  0  0  0  0  0  0  0  0
    4.7922   32.4315   -4.3273 O   0  0  0  0  0  0  0  0  0  0  0  0
    0.8582   36.7941   -0.0175 C   0  0  1  0  0  0  0  0  0  0  0  0
   -0.1682   36.1655   -0.7833 O   0  0  0  0  0  0  0  0  0  0  0  0
    6.9365   32.4405   -3.2121 C   0  0  1  0  0  0  0  0  0  0  0  0
    7.6247   32.1842   -4.4421 O   0  0  0  0  0  0  0  0  0  0  0  0
    0.8564   38.2960   -0.3036 C   0  0  0  0  0  0  0  0  0  0  0  0
    2.0497   38.8687    0.2070 O   0  0  0  0  0  0  0  0  0  0  0  0
   10.7521   34.0077   -2.4313 N   0  0  0  0  0  0  0  0  0  0  0  0
    4.7339   36.7309   -0.0670 N   0  0  0  0  0  0  0  0  0  0  0  0
  1  2  1  0  0  0  0
  1 39  1  0  0  0  0
  3  4  1  0  0  0  0
  5  6  1  0  0  0  0
  5 40  1  0  0  0  0
  9 10  1  1  0  0  0
  9 14  1  0  0  0  0
  9 35  1  0  0  0  0
 10  1  1  0  0  0  0
 11 16  1  0  0  0  0
 11 28  1  0  0  0  0
 11 26  1  6  0  0  0
 12 17  1  0  0  0  0
 12 34  1  0  0  0  0
 12 13  1  1  0  0  0
 14 15  1  1  0  0  0
 14 19  1  0  0  0  0
 16 13  1  1  0  0  0
 16 21  1  0  0  0  0
 17 18  1  6  0  0  0
 17 23  1  0  0  0  0
 18  8  1  0  0  0  0
 19 20  1  1  0  0  0
 19 25  1  0  0  0  0
 20  5  1  0  0  0  0
 21  3  1  6  0  0  0
 21 22  1  0  0  0  0
 21 27  1  0  0  0  0
 23 24  1  1  0  0  0
 23 29  1  0  0  0  0
 25 26  1  6  0  0  0
 25 31  1  0  0  0  0
 27  7  1  1  0  0  0
 27 28  1  0  0  0  0
 29 30  1  1  0  0  0
 29 33  1  0  0  0  0
 31 32  1  6  0  0  0
 31 35  1  0  0  0  0
 33 34  1  0  0  0  0
 33 37  1  1  0  0  0
 35 36  1  6  0  0  0
 37 38  1  0  0  0  0
M  END
>  <CHROM.1>
-137.64391257,-101.35341869,154.93518570,175.15772124,-171.59103701,-131.26019589
90.92205256,-93.75790774,-176.53386604,-139.61513526,73.08776963,3.30772037
34.29591296,-1.36351297,-0.32952062,-0.01296527,0.96156048

>  <Name>
1ntb_lig

>  <RI>
0

>  <Rbt.Current_Directory>
/home/itssahil/PROJECTS/Mol_Feturizer/New_Systems/rnas/1ntb

>  <Rbt.Executable>
rbdock ($Id: //depot/dev/client3/rdock/2013.1/src/exe/rbdock.cxx#4 $)

>  <Rbt.Library>
libRbt.so (2013.1, Build901 2013/11/27)

>  <Rbt.Parameter_File>
/export/apps/rDock/src/rDock_2013.1_src/data/scripts/dock_solv.prm

>  <Rbt.Receptor>
prm/pocket_docking_7.prm

>  <SCORE>
-23.5386

>  <SCORE.INTER>
-13.5681

>  <SCORE.INTER.CONST>
1

>  <SCORE.INTER.POLAR>
-2.56278

>  <SCORE.INTER.ROT>
11

>  <SCORE.INTER.SOLV>
25.913

>  <SCORE.INTER.VDW>
-20.0738

>  <SCORE.INTER.norm>
-0.339203

>  <SCORE.INTRA>
-9.97049

>  <SCORE.INTRA.DIHEDRAL>
-2.26956

>  <SCORE.INTRA.DIHEDRAL.0>
15.4453

>  <SCORE.INTRA.POLAR>
0

>  <SCORE.INTRA.POLAR.0>
0

>  <SCORE.INTRA.REPUL>
-0.762011

>  <SCORE.INTRA.REPUL.0>
0.823958

>  <SCORE.INTRA.SOLV>
-0.635306

>  <SCORE.INTRA.SOLV.lig_0>
-99.3069

>  <SCORE.INTRA.VDW>
-4.708

>  <SCORE.INTRA.VDW.0>
0.946495

>  <SCORE.INTRA.norm>
-0.249262

>  <SCORE.RESTR>
0

>  <SCORE.RESTR.CAVITY>
0

>  <SCORE.RESTR.norm>
0

>  <SCORE.SYSTEM>
0

>  <SCORE.SYSTEM.CONST>
0

>  <SCORE.SYSTEM.DIHEDRAL>
0

>  <SCORE.SYSTEM.SOLV>
0

>  <SCORE.SYSTEM.norm>
0

>  <SCORE.heavy>
40

>  <SCORE.norm>
-0.588465

>  <RMSD>
1.813

$$$$
1ntb_lig
 OpenBabel11021811403D
libRbt.so/2013.1/901 2013/11/27
 40 42  0  0  0  0  0  0  0  0999 V2000
   10.1245   32.9605   -2.7126 C   0  0  0  0  0  0  0  0  0  0  0  0
   10.4338   32.2610   -3.7350 N   0  0  0  0  0  0  0  0  0  0  0  0
   -0.7156   34.6301   -3.4654 C   0  0  0  0  0  0  0  0  0  0  0  0
   -1.6674   33.9812   -4.2919 O   0  0  0  0  0  0  0  0  0  0  0  0
    5.1339   35.8041    0.2694 C   0  0  0  0  0  0  0  0  0  0  0  0
    4.4240   36.7477   -0.2383 N   0  0  0  0  0  0  0  0  0  0  0  0
    0.4709   31.8662   -4.7037 C   0  0  0  0  0  0  0  0  0  0  0  0
   -1.7177   32.4217    1.7698 C   0  0  0  0  0  0  0  0  0  0  0  0
    7.8276   33.2800   -2.2789 C   0  0  2  0  0  0  0  0  0  0  0  0
    9.1046   32.5153   -2.0041 N   0  0  0  0  0  0  0  0  0  0  0  0
    2.6182   33.4697   -2.4291 C   0  0  2  0  0  0  0  0  0  0  0  0
   -0.1972   34.6788   -0.4988 C   0  0  1  0  0  0  0  0  0  0  0  0
    1.0682   34.1249   -0.8088 O   0  0  0  0  0  0  0  0  0  0  0  0
    7.0688   33.5592   -0.9861 C   0  0  1  0  0  0  0  0  0  0  0  0
    8.0323   34.3209   -0.1358 O   0  0  0  0  0  0  0  0  0  0  0  0
    1.3667   34.2717   -2.1219 C   0  0  2  0  0  0  0  0  0  0  0  0
   -0.4977   34.4142    0.9566 C   0  0  1  0  0  0  0  0  0  0  0  0
   -0.5452   33.0142    1.1915 N   0  0  0  0  0  0  0  0  0  0  0  0
    5.7551   34.3039   -1.2149 C   0  0  2  0  0  0  0  0  0  0  0  0
    4.9953   34.5989   -0.0177 N   0  0  0  0  0  0  0  0  0  0  0  0
    0.3282   33.6377   -3.0089 C   0  0  1  0  0  0  0  0  0  0  0  0
   -0.2975   32.5461   -2.3261 O   0  0  0  0  0  0  0  0  0  0  0  0
    0.6137   35.0370    1.7845 C   0  0  2  0  0  0  0  0  0  0  0  0
    0.3865   34.8095    3.1582 O   0  0  0  0  0  0  0  0  0  0  0  0
    4.8994   33.4679   -2.1310 C   0  0  1  0  0  0  0  0  0  0  0  0
    3.7629   34.3157   -2.4564 O   0  0  0  0  0  0  0  0  0  0  0  0
    1.1008   33.1259   -4.1680 C   0  0  1  0  0  0  0  0  0  0  0  0
    2.4250   32.8530   -3.7042 O   0  0  0  0  0  0  0  0  0  0  0  0
    0.6064   36.5361    1.4843 C   0  0  1  0  0  0  0  0  0  0  0  0
    1.6273   37.1919    2.2201 O   0  0  0  0  0  0  0  0  0  0  0  0
    5.6398   33.2181   -3.4725 C   0  0  2  0  0  0  0  0  0  0  0  0
    4.8118   32.4422   -4.3248 O   0  0  0  0  0  0  0  0  0  0  0  0
    0.8271   36.7423   -0.0146 C   0  0  1  0  0  0  0  0  0  0  0  0
   -0.1995   36.0816   -0.7527 O   0  0  0  0  0  0  0  0  0  0  0  0
    6.9508   32.4558   -3.1995 C   0  0  1  0  0  0  0  0  0  0  0  0
    7.6465   32.2170   -4.4288 O   0  0  0  0  0  0  0  0  0  0  0  0
    0.7877   38.2398   -0.3203 C   0  0  0  0  0  0  0  0  0  0  0  0
   -0.4849   38.7546    0.0372 O   0  0  0  0  0  0  0  0  0  0  0  0
   10.7468   34.0434   -2.4030 N   0  0  0  0  0  0  0  0  0  0  0  0
    6.0544   36.0882    1.0558 N   0  0  0  0  0  0  0  0  0  0  0  0
  1  2  1  0  0  0  0
  1 39  1  0  0  0  0
  3  4  1  0  0  0  0
  5  6  1  0  0  0  0
  5 40  1  0  0  0  0
  9 10  1  1  0  0  0
  9 14  1  0  0  0  0
  9 35  1  0  0  0  0
 10  1  1  0  0  0  0
 11 16  1  0  0  0  0
 11 28  1  0  0  0  0
 11 26  1  6  0  0  0
 12 17  1  0  0  0  0
 12 34  1  0  0  0  0
 12 13  1  1  0  0  0
 14 15  1  1  0  0  0
 14 19  1  0  0  0  0
 16 13  1  1  0  0  0
 16 21  1  0  0  0  0
 17 18  1  6  0  0  0
 17 23  1  0  0  0  0
 18  8  1  0  0  0  0
 19 20  1  1  0  0  0
 19 25  1  0  0  0  0
 20  5  1  0  0  0  0
 21  3  1  6  0  0  0
 21 22  1  0  0  0  0
 21 27  1  0  0  0  0
 23 24  1  1  0  0  0
 23 29  1  0  0  0  0
 25 26  1  6  0  0  0
 25 31  1  0  0  0  0
 27  7  1  1  0  0  0
 27 28  1  0  0  0  0
 29 30  1  1  0  0  0
 29 33  1  0  0  0  0
 31 32  1  6  0  0  0
 31 35  1  0  0  0  0
 33 34  1  0  0  0  0
 33 37  1  1  0  0  0
 35 36  1  6  0  0  0
 37 38  1  0  0  0  0
M  END
>  <CHROM.1>
-138.00824998,-101.75574816,154.13722606,176.92777187,-171.04995969,-123.85867133
103.60513996,84.83523238,-179.84325914,-139.25366593,-60.93067224,3.22314810
34.28044479,-1.36230675,-0.33855182,-0.02805671,0.97636384

>  <Name>
1ntb_lig

>  <RI>
0

>  <Rbt.Current_Directory>
/home/itssahil/PROJECTS/Mol_Feturizer/New_Systems/rnas/1ntb

>  <Rbt.Executable>
rbdock ($Id: //depot/dev/client3/rdock/2013.1/src/exe/rbdock.cxx#4 $)

>  <Rbt.Library>
libRbt.so (2013.1, Build901 2013/11/27)

>  <Rbt.Parameter_File>
/export/apps/rDock/src/rDock_2013.1_src/data/scripts/dock_solv.prm

>  <Rbt.Receptor>
prm/pocket_docking_8.prm

>  <SCORE>
-23.8317

>  <SCORE.INTER>
-13.4509

>  <SCORE.INTER.CONST>
1

>  <SCORE.INTER.POLAR>
-2.59368

>  <SCORE.INTER.ROT>
11

>  <SCORE.INTER.SOLV>
25.698

>  <SCORE.INTER.VDW>
-19.821

>  <SCORE.INTER.norm>
-0.336272

>  <SCORE.INTRA>
-10.3809

>  <SCORE.INTRA.DIHEDRAL>
-2.24781

>  <SCORE.INTRA.DIHEDRAL.0>
15.4453

>  <SCORE.INTRA.POLAR>
0

>  <SCORE.INTRA.POLAR.0>
0

>  <SCORE.INTRA.REPUL>
-0.818688

>  <SCORE.INTRA.REPUL.0>
0.823958

>  <SCORE.INTRA.SOLV>
-0.397353

>  <SCORE.INTRA.SOLV.lig_0>
-99.3069

>  <SCORE.INTRA.VDW>
-4.96485

>  <SCORE.INTRA.VDW.0>
0.946495

>  <SCORE.INTRA.norm>
-0.259522

>  <SCORE.RESTR>
0

>  <SCORE.RESTR.CAVITY>
0

>  <SCORE.RESTR.norm>
0

>  <SCORE.SYSTEM>
0

>  <SCORE.SYSTEM.CONST>
0

>  <SCORE.SYSTEM.DIHEDRAL>
0

>  <SCORE.SYSTEM.SOLV>
0

>  <SCORE.SYSTEM.norm>
0

>  <SCORE.heavy>
40

>  <SCORE.norm>
-0.595794

>  <RMSD>
1.868

$$$$
1ntb_lig
 OpenBabel11021811403D
libRbt.so/2013.1/901 2013/11/27
 40 42  0  0  0  0  0  0  0  0999 V2000
   10.1138   32.9528   -2.7654 C   0  0  0  0  0  0  0  0  0  0  0  0
   10.3735   32.2188   -3.7773 N   0  0  0  0  0  0  0  0  0  0  0  0
   -0.7370   34.5739   -3.3619 C   0  0  0  0  0  0  0  0  0  0  0  0
   -0.1347   35.7090   -3.9611 O   0  0  0  0  0  0  0  0  0  0  0  0
    5.4293   35.7300    0.4570 C   0  0  0  0  0  0  0  0  0  0  0  0
    5.0855   36.8763   -0.0120 N   0  0  0  0  0  0  0  0  0  0  0  0
    0.4833   31.8864   -4.7288 C   0  0  0  0  0  0  0  0  0  0  0  0
   -1.5492   32.2292    1.9745 C   0  0  0  0  0  0  0  0  0  0  0  0
    7.8311   33.2920   -2.2753 C   0  0  2  0  0  0  0  0  0  0  0  0
    9.1179   32.5427   -2.0037 N   0  0  0  0  0  0  0  0  0  0  0  0
    2.6269   33.4289   -2.4090 C   0  0  2  0  0  0  0  0  0  0  0  0
   -0.1871   34.5073   -0.4006 C   0  0  1  0  0  0  0  0  0  0  0  0
    1.0832   33.9874   -0.7471 O   0  0  0  0  0  0  0  0  0  0  0  0
    7.0908   33.5955   -0.9774 C   0  0  1  0  0  0  0  0  0  0  0  0
    8.0621   34.3832   -0.1601 O   0  0  0  0  0  0  0  0  0  0  0  0
    1.3652   34.1950   -2.0555 C   0  0  2  0  0  0  0  0  0  0  0  0
   -0.4354   34.2419    1.0644 C   0  0  1  0  0  0  0  0  0  0  0  0
   -0.4364   32.8424    1.3068 N   0  0  0  0  0  0  0  0  0  0  0  0
    5.7683   34.3256   -1.2020 C   0  0  2  0  0  0  0  0  0  0  0  0
    5.0254   34.6428    0.0002 N   0  0  0  0  0  0  0  0  0  0  0  0
    0.3283   33.5813   -2.9585 C   0  0  1  0  0  0  0  0  0  0  0  0
   -0.2713   32.4509   -2.3169 O   0  0  0  0  0  0  0  0  0  0  0  0
    0.6830   34.8998    1.8551 C   0  0  2  0  0  0  0  0  0  0  0  0
    0.5044   34.6731    3.2361 O   0  0  0  0  0  0  0  0  0  0  0  0
    4.9043   33.4630   -2.0850 C   0  0  1  0  0  0  0  0  0  0  0  0
    3.7567   34.2952   -2.4114 O   0  0  0  0  0  0  0  0  0  0  0  0
    1.0972   33.1329   -4.1460 C   0  0  1  0  0  0  0  0  0  0  0  0
    2.4308   32.8638   -3.7074 O   0  0  0  0  0  0  0  0  0  0  0  0
    0.6244   36.3965    1.5487 C   0  0  1  0  0  0  0  0  0  0  0  0
    1.6486   37.0844    2.2500 O   0  0  0  0  0  0  0  0  0  0  0  0
    5.6252   33.1877   -3.4321 C   0  0  2  0  0  0  0  0  0  0  0  0
    4.7895   32.3867   -4.2532 O   0  0  0  0  0  0  0  0  0  0  0  0
    0.7933   36.6010    0.0429 C   0  0  1  0  0  0  0  0  0  0  0  0
   -0.2366   35.9082   -0.6604 O   0  0  0  0  0  0  0  0  0  0  0  0
    6.9459   32.4409   -3.1628 C   0  0  1  0  0  0  0  0  0  0  0  0
    7.6238   32.1789   -4.3973 O   0  0  0  0  0  0  0  0  0  0  0  0
    0.7025   38.0952   -0.2679 C   0  0  0  0  0  0  0  0  0  0  0  0
    1.8316   38.7547    0.2824 O   0  0  0  0  0  0  0  0  0  0  0  0
   10.7610   34.0362   -2.5141 N   0  0  0  0  0  0  0  0  0  0  0  0
    6.2529   35.6731    1.3871 N   0  0  0  0  0  0  0  0  0  0  0  0
  1  2  1  0  0  0  0
  1 39  1  0  0  0  0
  3  4  1  0  0  0  0
  5  6  1  0  0  0  0
  5 40  1  0  0  0  0
  9 10  1  1  0  0  0
  9 14  1  0  0  0  0
  9 35  1  0  0  0  0
 10  1  1  0  0  0  0
 11 16  1  0  0  0  0
 11 28  1  0  0  0  0
 11 26  1  6  0  0  0
 12 17  1  0  0  0  0
 12 34  1  0  0  0  0
 12 13  1  1  0  0  0
 14 15  1  1  0  0  0
 14 19  1  0  0  0  0
 16 13  1  1  0  0  0
 16 21  1  0  0  0  0
 17 18  1  6  0  0  0
 17 23  1  0  0  0  0
 18  8  1  0  0  0  0
 19 20  1  1  0  0  0
 19 25  1  0  0  0  0
 20  5  1  0  0  0  0
 21  3  1  6  0  0  0
 21 22  1  0  0  0  0
 21 27  1  0  0  0  0
 23 24  1  1  0  0  0
 23 29  1  0  0  0  0
 25 26  1  6  0  0  0
 25 31  1  0  0  0  0
 27  7  1  1  0  0  0
 27 28  1  0  0  0  0
 29 30  1  1  0  0  0
 29 33  1  0  0  0  0
 31 32  1  6  0  0  0
 31 35  1  0  0  0  0
 33 34  1  0  0  0  0
 33 37  1  1  0  0  0
 35 36  1  6  0  0  0
 37 38  1  0  0  0  0
M  END
>  <CHROM.1>
-139.82133427,-100.31435623,152.08787403,179.98466652,-171.14934365,-126.50122763
86.11192749,78.68833153,55.47399337,-141.95095194,67.74478050,3.37109456
34.26676335,-1.29406662,-0.35236683,-0.00816953,0.99251415

>  <Name>
1ntb_lig

>  <RI>
0

>  <Rbt.Current_Directory>
/home/itssahil/PROJECTS/Mol_Feturizer/New_Systems/rnas/1ntb

>  <Rbt.Executable>
rbdock ($Id: //depot/dev/client3/rdock/2013.1/src/exe/rbdock.cxx#4 $)

>  <Rbt.Library>
libRbt.so (2013.1, Build901 2013/11/27)

>  <Rbt.Parameter_File>
/export/apps/rDock/src/rDock_2013.1_src/data/scripts/dock_solv.prm

>  <Rbt.Receptor>
prm/pocket_docking_5.prm

>  <SCORE>
-23.8939

>  <SCORE.INTER>
-14.3509

>  <SCORE.INTER.CONST>
1

>  <SCORE.INTER.POLAR>
-2.63604

>  <SCORE.INTER.ROT>
11

>  <SCORE.INTER.SOLV>
27.2487

>  <SCORE.INTER.VDW>
-20.7967

>  <SCORE.INTER.norm>
-0.358773

>  <SCORE.INTRA>
-9.54303

>  <SCORE.INTRA.DIHEDRAL>
-2.67119

>  <SCORE.INTRA.DIHEDRAL.0>
15.4453

>  <SCORE.INTRA.POLAR>
0

>  <SCORE.INTRA.POLAR.0>
0

>  <SCORE.INTRA.REPUL>
-0.745925

>  <SCORE.INTRA.REPUL.0>
0.823958

>  <SCORE.INTRA.SOLV>
-1.08866

>  <SCORE.INTRA.SOLV.lig_0>
-99.3069

>  <SCORE.INTRA.VDW>
-3.93348

>  <SCORE.INTRA.VDW.0>
0.946495

>  <SCORE.INTRA.norm>
-0.238576

>  <SCORE.RESTR>
0

>  <SCORE.RESTR.CAVITY>
0

>  <SCORE.RESTR.norm>
0

>  <SCORE.SYSTEM>
0

>  <SCORE.SYSTEM.CONST>
0

>  <SCORE.SYSTEM.DIHEDRAL>
0

>  <SCORE.SYSTEM.SOLV>
0

>  <SCORE.SYSTEM.norm>
0

>  <SCORE.heavy>
40

>  <SCORE.norm>
-0.597348

>  <RMSD>
1.895

$$$$
1ntb_lig
 OpenBabel11021811403D
libRbt.so/2013.1/901 2013/11/27
 40 42  0  0  0  0  0  0  0  0999 V2000
   10.0572   32.9842   -2.6545 C   0  0  0  0  0  0  0  0  0  0  0  0
   10.3771   32.3440   -3.7119 N   0  0  0  0  0  0  0  0  0  0  0  0
   -0.6944   35.4919   -1.5574 C   0  0  0  0  0  0  0  0  0  0  0  0
   -0.4301   35.6318   -2.9434 O   0  0  0  0  0  0  0  0  0  0  0  0
    5.7397   36.1437    0.5674 C   0  0  0  0  0  0  0  0  0  0  0  0
    5.4420   37.2697    0.0235 N   0  0  0  0  0  0  0  0  0  0  0  0
    0.0669   32.4971   -0.5416 C   0  0  0  0  0  0  0  0  0  0  0  0
    0.0563   37.4469    2.8495 C   0  0  0  0  0  0  0  0  0  0  0  0
    7.7768   33.4011   -2.2166 C   0  0  2  0  0  0  0  0  0  0  0  0
    8.9982   32.5310   -2.0115 N   0  0  0  0  0  0  0  0  0  0  0  0
    2.8413   34.5794   -1.1096 C   0  0  2  0  0  0  0  0  0  0  0  0
    1.0401   37.5760   -0.1442 C   0  0  1  0  0  0  0  0  0  0  0  0
    2.0388   36.5740   -0.1961 O   0  0  0  0  0  0  0  0  0  0  0  0
    7.1532   33.7913   -0.8810 C   0  0  1  0  0  0  0  0  0  0  0  0
    8.2468   34.4881   -0.1392 O   0  0  0  0  0  0  0  0  0  0  0  0
    1.7714   35.6551   -1.1547 C   0  0  2  0  0  0  0  0  0  0  0  0
    1.3389   38.4974    1.0135 C   0  0  1  0  0  0  0  0  0  0  0  0
    1.3115   37.7658    2.2306 N   0  0  0  0  0  0  0  0  0  0  0  0
    5.8973   34.6464   -1.0366 C   0  0  2  0  0  0  0  0  0  0  0  0
    5.2665   35.0495    0.2032 N   0  0  0  0  0  0  0  0  0  0  0  0
    0.5065   34.8915   -0.8646 C   0  0  1  0  0  0  0  0  0  0  0  0
    0.2819   34.8363    0.5480 O   0  0  0  0  0  0  0  0  0  0  0  0
    2.7234   39.0853    0.7980 C   0  0  2  0  0  0  0  0  0  0  0  0
    3.0582   39.9502    1.8612 O   0  0  0  0  0  0  0  0  0  0  0  0
    4.8988   33.8637   -1.8494 C   0  0  1  0  0  0  0  0  0  0  0  0
    3.8202   34.8018   -2.1191 O   0  0  0  0  0  0  0  0  0  0  0  0
    0.7766   33.5270   -1.3819 C   0  0  1  0  0  0  0  0  0  0  0  0
    2.1900   33.3238   -1.3165 O   0  0  0  0  0  0  0  0  0  0  0  0
    2.6800   39.8554   -0.5220 C   0  0  1  0  0  0  0  0  0  0  0  0
    3.9464   40.4329   -0.7985 O   0  0  0  0  0  0  0  0  0  0  0  0
    5.5028   33.5028   -3.2333 C   0  0  2  0  0  0  0  0  0  0  0  0
    4.5423   32.7792   -3.9870 O   0  0  0  0  0  0  0  0  0  0  0  0
    2.2874   38.8937   -1.6440 C   0  0  1  0  0  0  0  0  0  0  0  0
    1.0145   38.3135   -1.3639 O   0  0  0  0  0  0  0  0  0  0  0  0
    6.7580   32.6318   -3.0327 C   0  0  1  0  0  0  0  0  0  0  0  0
    7.3277   32.2897   -4.3018 O   0  0  0  0  0  0  0  0  0  0  0  0
    2.2124   39.6700   -2.9590 C   0  0  0  0  0  0  0  0  0  0  0  0
    1.1462   40.6032   -2.8886 O   0  0  0  0  0  0  0  0  0  0  0  0
   10.7062   34.0196   -2.2515 N   0  0  0  0  0  0  0  0  0  0  0  0
    6.5866   36.1103    1.4775 N   0  0  0  0  0  0  0  0  0  0  0  0
  1  2  1  0  0  0  0
  1 39  1  0  0  0  0
  3  4  1  0  0  0  0
  5  6  1  0  0  0  0
  5 40  1  0  0  0  0
  9 10  1  1  0  0  0
  9 14  1  0  0  0  0
  9 35  1  0  0  0  0
 10  1  1  0  0  0  0
 11 16  1  0  0  0  0
 11 28  1  0  0  0  0
 11 26  1  6  0  0  0
 12 17  1  0  0  0  0
 12 34  1  0  0  0  0
 12 13  1  6  0  0  0
 14 15  1  1  0  0  0
 14 19  1  0  0  0  0
 16 13  1  1  0  0  0
 16 21  1  0  0  0  0
 17 18  1  1  0  0  0
 17 23  1  0  0  0  0
 18  8  1  0  0  0  0
 19 20  1  1  0  0  0
 19 25  1  0  0  0  0
 20  5  1  0  0  0  0
 21  3  1  6  0  0  0
 21 22  1  0  0  0  0
 21 27  1  0  0  0  0
 23 24  1  1  0  0  0
 23 29  1  0  0  0  0
 25 26  1  6  0  0  0
 25 31  1  0  0  0  0
 27  7  1  1  0  0  0
 27 28  1  0  0  0  0
 29 30  1  6  0  0  0
 29 33  1  0  0  0  0
 31 32  1  6  0  0  0
 31 35  1  0  0  0  0
 33 34  1  0  0  0  0
 33 37  1  6  0  0  0
 35 36  1  6  0  0  0
 37 38  1  0  0  0  0
M  END
>  <CHROM.1>
-127.91197149,-104.75152486,170.75217343,175.39698368,-177.28297718,-79.53689139
90.61198442,75.14877491,53.07946917,-95.14082606,-65.98313888,3.88328901
35.71826026,-1.08807474,-0.63095603,0.02711065,0.39701070

>  <Name>
1ntb_lig

>  <RI>
0

>  <Rbt.Current_Directory>
/home/itssahil/PROJECTS/Mol_Feturizer/New_Systems/rnas/1ntb

>  <Rbt.Executable>
rbdock ($Id: //depot/dev/client3/rdock/2013.1/src/exe/rbdock.cxx#4 $)

>  <Rbt.Library>
libRbt.so (2013.1, Build901 2013/11/27)

>  <Rbt.Parameter_File>
/export/apps/rDock/src/rDock_2013.1_src/data/scripts/dock_solv.prm

>  <Rbt.Receptor>
prm/pocket_docking_3.prm

>  <SCORE>
-21.4085

>  <SCORE.INTER>
-8.97428

>  <SCORE.INTER.CONST>
1

>  <SCORE.INTER.POLAR>
-2.21857

>  <SCORE.INTER.ROT>
11

>  <SCORE.INTER.SOLV>
26.3125

>  <SCORE.INTER.VDW>
-18.2918

>  <SCORE.INTER.norm>
-0.224357

>  <SCORE.INTRA>
-12.442

>  <SCORE.INTRA.DIHEDRAL>
-6.72313

>  <SCORE.INTRA.DIHEDRAL.0>
15.4453

>  <SCORE.INTRA.POLAR>
0

>  <SCORE.INTRA.POLAR.0>
0

>  <SCORE.INTRA.REPUL>
-0.823958

>  <SCORE.INTRA.REPUL.0>
0.823958

>  <SCORE.INTRA.SOLV>
1.47302

>  <SCORE.INTRA.SOLV.lig_0>
-99.3069

>  <SCORE.INTRA.VDW>
-5.69712

>  <SCORE.INTRA.VDW.0>
0.946495

>  <SCORE.INTRA.norm>
-0.311049

>  <SCORE.RESTR>
0.00773314

>  <SCORE.RESTR.CAVITY>
0.00773314

>  <SCORE.RESTR.norm>
0.000193328

>  <SCORE.SYSTEM>
0

>  <SCORE.SYSTEM.CONST>
0

>  <SCORE.SYSTEM.DIHEDRAL>
0

>  <SCORE.SYSTEM.SOLV>
0

>  <SCORE.SYSTEM.norm>
0

>  <SCORE.heavy>
40

>  <SCORE.norm>
-0.535213

>  <RMSD>
2.052

$$$$
1ntb_lig
 OpenBabel11021811403D
libRbt.so/2013.1/901 2013/11/27
 40 42  0  0  0  0  0  0  0  0999 V2000
    9.4676   32.0664   -3.3227 C   0  0  0  0  0  0  0  0  0  0  0  0
   10.4848   32.3137   -2.5917 N   0  0  0  0  0  0  0  0  0  0  0  0
    0.2410   34.4121   -4.1589 C   0  0  0  0  0  0  0  0  0  0  0  0
   -0.5423   35.5938   -4.1778 O   0  0  0  0  0  0  0  0  0  0  0  0
    6.2448   35.3722    1.0000 C   0  0  0  0  0  0  0  0  0  0  0  0
    7.5228   35.4889    1.0734 N   0  0  0  0  0  0  0  0  0  0  0  0
    0.6729   31.7113   -2.3984 C   0  0  0  0  0  0  0  0  0  0  0  0
   -1.8825   38.0706   -3.2660 C   0  0  0  0  0  0  0  0  0  0  0  0
    7.3871   32.8124   -2.4974 C   0  0  2  0  0  0  0  0  0  0  0  0
    8.3812   31.6855   -2.6785 N   0  0  0  0  0  0  0  0  0  0  0  0
    2.5895   34.4563   -1.3274 C   0  0  2  0  0  0  0  0  0  0  0  0
    1.1077   37.4339   -2.1460 C   0  0  1  0  0  0  0  0  0  0  0  0
    1.0041   36.1589   -1.5396 O   0  0  0  0  0  0  0  0  0  0  0  0
    7.0452   33.0083   -1.0245 C   0  0  1  0  0  0  0  0  0  0  0  0
    8.3569   33.2765   -0.3615 O   0  0  0  0  0  0  0  0  0  0  0  0
    1.6577   35.2133   -2.2562 C   0  0  2  0  0  0  0  0  0  0  0  0
   -0.0246   38.2995   -1.6487 C   0  0  1  0  0  0  0  0  0  0  0  0
   -1.2692   37.7220   -2.0160 N   0  0  0  0  0  0  0  0  0  0  0  0
    6.0205   34.1168   -0.7925 C   0  0  2  0  0  0  0  0  0  0  0  0
    5.6629   34.3482    0.5917 N   0  0  0  0  0  0  0  0  0  0  0  0
    0.7255   34.1406   -2.7538 C   0  0  1  0  0  0  0  0  0  0  0  0
   -0.3900   34.0118   -1.8659 O   0  0  0  0  0  0  0  0  0  0  0  0
    0.0781   38.3800   -0.1349 C   0  0  2  0  0  0  0  0  0  0  0  0
   -0.9670   39.1727    0.3847 O   0  0  0  0  0  0  0  0  0  0  0  0
    4.7712   33.7633   -1.5570 C   0  0  1  0  0  0  0  0  0  0  0  0
    3.9228   34.9402   -1.4498 O   0  0  0  0  0  0  0  0  0  0  0  0
    1.5410   32.9013   -2.7156 C   0  0  1  0  0  0  0  0  0  0  0  0
    2.5256   33.0762   -1.6943 O   0  0  0  0  0  0  0  0  0  0  0  0
    1.4342   39.0084    0.1869 C   0  0  1  0  0  0  0  0  0  0  0  0
    1.6091   39.1127    1.5913 O   0  0  0  0  0  0  0  0  0  0  0  0
    5.0951   33.6103   -3.0676 C   0  0  2  0  0  0  0  0  0  0  0  0
    3.9038   33.2919   -3.7702 O   0  0  0  0  0  0  0  0  0  0  0  0
    2.5385   38.1386   -0.4146 C   0  0  1  0  0  0  0  0  0  0  0  0
    2.3605   38.0342   -1.8263 O   0  0  0  0  0  0  0  0  0  0  0  0
    6.1209   32.4767   -3.2590 C   0  0  1  0  0  0  0  0  0  0  0  0
    6.4306   32.3225   -4.6492 O   0  0  0  0  0  0  0  0  0  0  0  0
    3.8932   38.7837   -0.1208 C   0  0  0  0  0  0  0  0  0  0  0  0
    4.9258   37.9352   -0.5964 O   0  0  0  0  0  0  0  0  0  0  0  0
    9.5012   32.1564   -4.6058 N   0  0  0  0  0  0  0  0  0  0  0  0
    5.5229   36.3013    1.4029 N   0  0  0  0  0  0  0  0  0  0  0  0
  1  2  1  0  0  0  0
  1 39  1  0  0  0  0
  3  4  1  0  0  0  0
  5  6  1  0  0  0  0
  5 40  1  0  0  0  0
  9 10  1  1  0  0  0
  9 14  1  0  0  0  0
  9 35  1  0  0  0  0
 10  1  1  0  0  0  0
 11 16  1  0  0  0  0
 11 28  1  0  0  0  0
 11 26  1  6  0  0  0
 12 17  1  0  0  0  0
 12 34  1  0  0  0  0
 12 13  1  1  0  0  0
 14 15  1  1  0  0  0
 14 19  1  0  0  0  0
 16 13  1  1  0  0  0
 16 21  1  0  0  0  0
 17 18  1  1  0  0  0
 17 23  1  0  0  0  0
 18  8  1  0  0  0  0
 19 20  1  1  0  0  0
 19 25  1  0  0  0  0
 20  5  1  0  0  0  0
 21  3  1  6  0  0  0
 21 22  1  0  0  0  0
 21 27  1  0  0  0  0
 23 24  1  6  0  0  0
 23 29  1  0  0  0  0
 25 26  1  6  0  0  0
 25 31  1  0  0  0  0
 27  7  1  1  0  0  0
 27 28  1  0  0  0  0
 29 30  1  1  0  0  0
 29 33  1  0  0  0  0
 31 32  1  6  0  0  0
 31 35  1  0  0  0  0
 33 34  1  0  0  0  0
 33 37  1  6  0  0  0
 35 36  1  6  0  0  0
 37 38  1  0  0  0  0
M  END
>  <CHROM.1>
-123.96114827,99.98733634,-133.47111790,158.32818802,128.51515960,-90.22076708
103.01232142,-62.68795495,-64.45870092,-142.98978846,176.04588900,3.59115920
35.15129623,-1.66464138,0.48530880,0.28068589,-2.45867462

>  <Name>
1ntb_lig

>  <RI>
0

>  <Rbt.Current_Directory>
/home/itssahil/PROJECTS/Mol_Feturizer/New_Systems/rnas/1ntb

>  <Rbt.Executable>
rbdock ($Id: //depot/dev/client3/rdock/2013.1/src/exe/rbdock.cxx#4 $)

>  <Rbt.Library>
libRbt.so (2013.1, Build901 2013/11/27)

>  <Rbt.Parameter_File>
/export/apps/rDock/src/rDock_2013.1_src/data/scripts/dock_solv.prm

>  <Rbt.Receptor>
prm/pocket_docking_2.prm

>  <SCORE>
-10.3423

>  <SCORE.INTER>
-11.2372

>  <SCORE.INTER.CONST>
1

>  <SCORE.INTER.POLAR>
-1.80652

>  <SCORE.INTER.ROT>
11

>  <SCORE.INTER.SOLV>
26.4368

>  <SCORE.INTER.VDW>
-21.2154

>  <SCORE.INTER.norm>
-0.280931

>  <SCORE.INTRA>
-0.672511

>  <SCORE.INTRA.DIHEDRAL>
8.71007

>  <SCORE.INTRA.DIHEDRAL.0>
15.4453

>  <SCORE.INTRA.POLAR>
0

>  <SCORE.INTRA.POLAR.0>
0

>  <SCORE.INTRA.REPUL>
-0.823958

>  <SCORE.INTRA.REPUL.0>
0.823958

>  <SCORE.INTRA.SOLV>
1.73624

>  <SCORE.INTRA.SOLV.lig_0>
-99.3069

>  <SCORE.INTRA.VDW>
-1.77588

>  <SCORE.INTRA.VDW.0>
0.946495

>  <SCORE.INTRA.norm>
-0.0168128

>  <SCORE.RESTR>
1.56749

>  <SCORE.RESTR.CAVITY>
1.56749

>  <SCORE.RESTR.norm>
0.0391873

>  <SCORE.SYSTEM>
0

>  <SCORE.SYSTEM.CONST>
0

>  <SCORE.SYSTEM.DIHEDRAL>
0

>  <SCORE.SYSTEM.SOLV>
0

>  <SCORE.SYSTEM.norm>
0

>  <SCORE.heavy>
40

>  <SCORE.norm>
-0.258557

>  <RMSD>
2.083

$$$$
1ntb_lig
 OpenBabel11021811403D
libRbt.so/2013.1/901 2013/11/27
 40 42  0  0  0  0  0  0  0  0999 V2000
   10.1572   32.9901   -2.7392 C   0  0  0  0  0  0  0  0  0  0  0  0
   10.8414   34.0403   -2.4958 N   0  0  0  0  0  0  0  0  0  0  0  0
   -0.6016   34.8066   -1.0485 C   0  0  0  0  0  0  0  0  0  0  0  0
   -0.5064   34.4869   -2.4266 O   0  0  0  0  0  0  0  0  0  0  0  0
    5.8891   36.1818    0.5891 C   0  0  0  0  0  0  0  0  0  0  0  0
    6.8095   36.2353    1.4847 N   0  0  0  0  0  0  0  0  0  0  0  0
    0.7790   32.4864    0.7654 C   0  0  0  0  0  0  0  0  0  0  0  0
   -1.9953   37.9825   -0.3726 C   0  0  0  0  0  0  0  0  0  0  0  0
    7.9328   33.4604   -2.1092 C   0  0  2  0  0  0  0  0  0  0  0  0
    9.2190   32.7033   -1.8573 N   0  0  0  0  0  0  0  0  0  0  0  0
    3.0669   34.5875   -0.8797 C   0  0  2  0  0  0  0  0  0  0  0  0
    1.5208   37.6790   -1.3970 C   0  0  1  0  0  0  0  0  0  0  0  0
    2.0173   36.6500   -0.5611 O   0  0  0  0  0  0  0  0  0  0  0  0
    7.3026   33.9187   -0.7986 C   0  0  1  0  0  0  0  0  0  0  0  0
    8.3524   34.7557   -0.1434 O   0  0  0  0  0  0  0  0  0  0  0  0
    1.8234   35.4269   -1.1099 C   0  0  2  0  0  0  0  0  0  0  0  0
    0.4237   38.4113   -0.6631 C   0  0  1  0  0  0  0  0  0  0  0  0
   -0.6380   37.5157   -0.3663 N   0  0  0  0  0  0  0  0  0  0  0  0
    5.9840   34.6627   -0.9993 C   0  0  2  0  0  0  0  0  0  0  0  0
    5.3441   35.1249    0.2151 N   0  0  0  0  0  0  0  0  0  0  0  0
    0.7504   34.6521   -0.3920 C   0  0  1  0  0  0  0  0  0  0  0  0
    0.6817   35.0654    0.9768 O   0  0  0  0  0  0  0  0  0  0  0  0
    1.0093   38.9600    0.6271 C   0  0  2  0  0  0  0  0  0  0  0  0
    0.0193   39.6483    1.3597 O   0  0  0  0  0  0  0  0  0  0  0  0
    5.0344   33.7411   -1.7198 C   0  0  1  0  0  0  0  0  0  0  0  0
    3.8845   34.5707   -2.0451 O   0  0  0  0  0  0  0  0  0  0  0  0
    1.2061   33.2417   -0.4664 C   0  0  1  0  0  0  0  0  0  0  0  0
    2.6324   33.2642   -0.5580 O   0  0  0  0  0  0  0  0  0  0  0  0
    2.1396   39.9116    0.2341 C   0  0  1  0  0  0  0  0  0  0  0  0
    2.7450   40.4641    1.3925 O   0  0  0  0  0  0  0  0  0  0  0  0
    5.6420   33.3063   -3.0806 C   0  0  2  0  0  0  0  0  0  0  0  0
    4.7268   32.4515   -3.7483 O   0  0  0  0  0  0  0  0  0  0  0  0
    3.1773   39.1386   -0.5804 C   0  0  1  0  0  0  0  0  0  0  0  0
    2.5668   38.5832   -1.7441 O   0  0  0  0  0  0  0  0  0  0  0  0
    6.9619   32.5504   -2.8339 C   0  0  1  0  0  0  0  0  0  0  0  0
    7.5358   32.1418   -4.0812 O   0  0  0  0  0  0  0  0  0  0  0  0
    4.2917   40.0971   -1.0011 C   0  0  0  0  0  0  0  0  0  0  0  0
    5.3657   39.3502   -1.5499 O   0  0  0  0  0  0  0  0  0  0  0  0
   10.3805   32.2425   -3.7624 N   0  0  0  0  0  0  0  0  0  0  0  0
    5.4622   37.2372    0.0886 N   0  0  0  0  0  0  0  0  0  0  0  0
  1  2  1  0  0  0  0
  1 39  1  0  0  0  0
  3  4  1  0  0  0  0
  5  6  1  0  0  0  0
  5 40  1  0  0  0  0
  9 10  1  1  0  0  0
  9 14  1  0  0  0  0
  9 35  1  0  0  0  0
 10  1  1  0  0  0  0
 11 16  1  0  0  0  0
 11 28  1  0  0  0  0
 11 26  1  6  0  0  0
 12 17  1  0  0  0  0
 12 34  1  0  0  0  0
 12 13  1  1  0  0  0
 14 15  1  6  0  0  0
 14 19  1  0  0  0  0
 16 13  1  1  0  0  0
 16 21  1  0  0  0  0
 17 18  1  1  0  0  0
 17 23  1  0  0  0  0
 18  8  1  0  0  0  0
 19 20  1  1  0  0  0
 19 25  1  0  0  0  0
 20  5  1  0  0  0  0
 21  3  1  6  0  0  0
 21 22  1  0  0  0  0
 21 27  1  0  0  0  0
 23 24  1  6  0  0  0
 23 29  1  0  0  0  0
 25 26  1  6  0  0  0
 25 31  1  0  0  0  0
 27  7  1  1  0  0  0
 27 28  1  0  0  0  0
 29 30  1  1  0  0  0
 29 33  1  0  0  0  0
 31 32  1  1  0  0  0
 31 35  1  0  0  0  0
 33 34  1  0  0  0  0
 33 37  1  6  0  0  0
 35 36  1  6  0  0  0
 37 38  1  0  0  0  0
M  END
>  <CHROM.1>
-140.54464318,83.75253323,-179.74663732,117.98009689,138.62496796,-145.76405044
80.27700310,-97.15958672,53.05834492,-83.32694277,169.87339091,3.95586961
35.63729867,-0.99343820,-0.56959612,0.10014357,0.30334386

>  <Name>
1ntb_lig

>  <RI>
0

>  <Rbt.Current_Directory>
/home/itssahil/PROJECTS/Mol_Feturizer/New_Systems/rnas/1ntb

>  <Rbt.Executable>
rbdock ($Id: //depot/dev/client3/rdock/2013.1/src/exe/rbdock.cxx#4 $)

>  <Rbt.Library>
libRbt.so (2013.1, Build901 2013/11/27)

>  <Rbt.Parameter_File>
/export/apps/rDock/src/rDock_2013.1_src/data/scripts/dock_solv.prm

>  <Rbt.Receptor>
prm/pocket_docking_7.prm

>  <SCORE>
-17.3324

>  <SCORE.INTER>
-11.9241

>  <SCORE.INTER.CONST>
1

>  <SCORE.INTER.POLAR>
-2.553

>  <SCORE.INTER.ROT>
11

>  <SCORE.INTER.SOLV>
26.3457

>  <SCORE.INTER.VDW>
-19.1546

>  <SCORE.INTER.norm>
-0.298102

>  <SCORE.INTRA>
-5.40833

>  <SCORE.INTRA.DIHEDRAL>
3.22115

>  <SCORE.INTRA.DIHEDRAL.0>
15.4453

>  <SCORE.INTRA.POLAR>
0

>  <SCORE.INTRA.POLAR.0>
0

>  <SCORE.INTRA.REPUL>
-0.823958

>  <SCORE.INTRA.REPUL.0>
0.823958

>  <SCORE.INTRA.SOLV>
3.58679

>  <SCORE.INTRA.SOLV.lig_0>
-99.3069

>  <SCORE.INTRA.VDW>
-4.69252

>  <SCORE.INTRA.VDW.0>
0.946495

>  <SCORE.INTRA.norm>
-0.135208

>  <SCORE.RESTR>
0

>  <SCORE.RESTR.CAVITY>
0

>  <SCORE.RESTR.norm>
0

>  <SCORE.SYSTEM>
0

>  <SCORE.SYSTEM.CONST>
0

>  <SCORE.SYSTEM.DIHEDRAL>
0

>  <SCORE.SYSTEM.SOLV>
0

>  <SCORE.SYSTEM.norm>
0

>  <SCORE.heavy>
40

>  <SCORE.norm>
-0.43331

>  <RMSD>
2.150

$$$$
1ntb_lig
 OpenBabel11021811403D
libRbt.so/2013.1/901 2013/11/27
 40 42  0  0  0  0  0  0  0  0999 V2000
    9.9860   33.2929   -1.5683 C   0  0  0  0  0  0  0  0  0  0  0  0
   10.3614   34.3896   -1.0330 N   0  0  0  0  0  0  0  0  0  0  0  0
   -0.8542   35.7135   -1.4584 C   0  0  0  0  0  0  0  0  0  0  0  0
   -2.0718   35.0766   -1.1092 O   0  0  0  0  0  0  0  0  0  0  0  0
    5.4315   36.6128    0.8113 C   0  0  0  0  0  0  0  0  0  0  0  0
    5.2703   37.6176    0.0262 N   0  0  0  0  0  0  0  0  0  0  0  0
   -0.2580   32.7453   -0.2691 C   0  0  0  0  0  0  0  0  0  0  0  0
   -0.1500   37.8588    2.9746 C   0  0  0  0  0  0  0  0  0  0  0  0
    7.6448   33.5650   -1.4643 C   0  0  2  0  0  0  0  0  0  0  0  0
    8.8759   32.7715   -1.0824 N   0  0  0  0  0  0  0  0  0  0  0  0
    2.6170   34.7029   -0.7770 C   0  0  2  0  0  0  0  0  0  0  0  0
    0.8536   37.7790   -0.0180 C   0  0  1  0  0  0  0  0  0  0  0  0
    1.8405   36.7642    0.0008 O   0  0  0  0  0  0  0  0  0  0  0  0
    6.9512   34.1265   -0.2280 C   0  0  1  0  0  0  0  0  0  0  0  0
    7.9926   34.9568    0.4488 O   0  0  0  0  0  0  0  0  0  0  0  0
    1.5911   35.8112   -0.9289 C   0  0  2  0  0  0  0  0  0  0  0  0
    1.1562   38.7686    1.0809 C   0  0  1  0  0  0  0  0  0  0  0  0
    1.1123   38.1162    2.3418 N   0  0  0  0  0  0  0  0  0  0  0  0
    5.6838   34.9114   -0.5602 C   0  0  2  0  0  0  0  0  0  0  0  0
    4.9871   35.4714    0.5793 N   0  0  0  0  0  0  0  0  0  0  0  0
    0.2855   35.1056   -0.6746 C   0  0  1  0  0  0  0  0  0  0  0  0
   -0.0159   35.1242    0.7247 O   0  0  0  0  0  0  0  0  0  0  0  0
    2.5488   39.3256    0.8383 C   0  0  2  0  0  0  0  0  0  0  0  0
    2.8874   40.2524    1.8468 O   0  0  0  0  0  0  0  0  0  0  0  0
    4.7428   33.9886   -1.2904 C   0  0  1  0  0  0  0  0  0  0  0  0
    3.6557   34.8443   -1.7402 O   0  0  0  0  0  0  0  0  0  0  0  0
    0.5325   33.7100   -1.1146 C   0  0  1  0  0  0  0  0  0  0  0  0
    1.9321   33.4620   -0.9627 O   0  0  0  0  0  0  0  0  0  0  0  0
    2.5229   40.0107   -0.5282 C   0  0  1  0  0  0  0  0  0  0  0  0
    3.7978   40.5549   -0.8319 O   0  0  0  0  0  0  0  0  0  0  0  0
    5.4183   33.4484   -2.5797 C   0  0  2  0  0  0  0  0  0  0  0  0
    4.5111   32.5940   -3.2587 O   0  0  0  0  0  0  0  0  0  0  0  0
    2.1259   38.9843   -1.5896 C   0  0  1  0  0  0  0  0  0  0  0  0
    0.8444   38.4378   -1.2822 O   0  0  0  0  0  0  0  0  0  0  0  0
    6.6833   32.6545   -2.2007 C   0  0  1  0  0  0  0  0  0  0  0  0
    7.3189   32.1485   -3.3807 O   0  0  0  0  0  0  0  0  0  0  0  0
    2.0684   39.6763   -2.9517 C   0  0  0  0  0  0  0  0  0  0  0  0
    1.7061   38.7267   -3.9414 O   0  0  0  0  0  0  0  0  0  0  0  0
   10.6561   32.7161   -2.5032 N   0  0  0  0  0  0  0  0  0  0  0  0
    6.1115   36.7477    1.8438 N   0  0  0  0  0  0  0  0  0  0  0  0
  1  2  1  0  0  0  0
  1 39  1  0  0  0  0
  3  4  1  0  0  0  0
  5  6  1  0  0  0  0
  5 40  1  0  0  0  0
  9 10  1  1  0  0  0
  9 14  1  0  0  0  0
  9 35  1  0  0  0  0
 10  1  1  0  0  0  0
 11 16  1  0  0  0  0
 11 28  1  0  0  0  0
 11 26  1  6  0  0  0
 12 17  1  0  0  0  0
 12 34  1  0  0  0  0
 12 13  1  6  0  0  0
 14 15  1  6  0  0  0
 14 19  1  0  0  0  0
 16 13  1  1  0  0  0
 16 21  1  0  0  0  0
 17 18  1  1  0  0  0
 17 23  1  0  0  0  0
 18  8  1  0  0  0  0
 19 20  1  1  0  0  0
 19 25  1  0  0  0  0
 20  5  1  0  0  0  0
 21  3  1  6  0  0  0
 21 22  1  0  0  0  0
 21 27  1  0  0  0  0
 23 24  1  1  0  0  0
 23 29  1  0  0  0  0
 25 26  1  6  0  0  0
 25 31  1  0  0  0  0
 27  7  1  1  0  0  0
 27 28  1  0  0  0  0
 29 30  1  6  0  0  0
 29 33  1  0  0  0  0
 31 32  1  1  0  0  0
 31 35  1  0  0  0  0
 33 34  1  0  0  0  0
 33 37  1  6  0  0  0
 35 36  1  6  0  0  0
 37 38  1  0  0  0  0
M  END
>  <CHROM.1>
-117.51024619,70.95800292,164.82516800,177.35802441,-175.37324834,-79.90702211
89.58193692,67.39673068,-175.78175779,-97.26728783,179.74184638,3.68329934
35.85296029,-0.70432586,-0.53970030,-0.00479247,0.33948253

>  <Name>
1ntb_lig

>  <RI>
0

>  <Rbt.Current_Directory>
/home/itssahil/PROJECTS/Mol_Feturizer/New_Systems/rnas/1ntb

>  <Rbt.Executable>
rbdock ($Id: //depot/dev/client3/rdock/2013.1/src/exe/rbdock.cxx#4 $)

>  <Rbt.Library>
libRbt.so (2013.1, Build901 2013/11/27)

>  <Rbt.Parameter_File>
/export/apps/rDock/src/rDock_2013.1_src/data/scripts/dock_solv.prm

>  <Rbt.Receptor>
prm/pocket_docking_3.prm

>  <SCORE>
-19.4869

>  <SCORE.INTER>
-7.60897

>  <SCORE.INTER.CONST>
1

>  <SCORE.INTER.POLAR>
-1.50111

>  <SCORE.INTER.ROT>
11

>  <SCORE.INTER.SOLV>
24.5794

>  <SCORE.INTER.VDW>
-19.1954

>  <SCORE.INTER.norm>
-0.190224

>  <SCORE.INTRA>
-11.878

>  <SCORE.INTRA.DIHEDRAL>
-5.37152

>  <SCORE.INTRA.DIHEDRAL.0>
15.4453

>  <SCORE.INTRA.POLAR>
0

>  <SCORE.INTRA.POLAR.0>
0

>  <SCORE.INTRA.REPUL>
-0.823958

>  <SCORE.INTRA.REPUL.0>
0.823958

>  <SCORE.INTRA.SOLV>
1.12285

>  <SCORE.INTRA.SOLV.lig_0>
-99.3069

>  <SCORE.INTRA.VDW>
-5.63383

>  <SCORE.INTRA.VDW.0>
0.946495

>  <SCORE.INTRA.norm>
-0.296949

>  <SCORE.RESTR>
0

>  <SCORE.RESTR.CAVITY>
0

>  <SCORE.RESTR.norm>
0

>  <SCORE.SYSTEM>
0

>  <SCORE.SYSTEM.CONST>
0

>  <SCORE.SYSTEM.DIHEDRAL>
0

>  <SCORE.SYSTEM.SOLV>
0

>  <SCORE.SYSTEM.norm>
0

>  <SCORE.heavy>
40

>  <SCORE.norm>
-0.487173

>  <RMSD>
2.177

$$$$
1ntb_lig
 OpenBabel11021811403D
libRbt.so/2013.1/901 2013/11/27
 40 42  0  0  0  0  0  0  0  0999 V2000
    9.1199   32.5335   -2.0785 C   0  0  0  0  0  0  0  0  0  0  0  0
   10.0627   33.3874   -1.9678 N   0  0  0  0  0  0  0  0  0  0  0  0
   -0.4196   33.9314   -4.6380 C   0  0  0  0  0  0  0  0  0  0  0  0
    0.5506   34.5038   -5.4990 O   0  0  0  0  0  0  0  0  0  0  0  0
    5.1422   36.5206    0.8292 C   0  0  0  0  0  0  0  0  0  0  0  0
    5.4645   37.6191    0.2449 N   0  0  0  0  0  0  0  0  0  0  0  0
    0.2701   31.5832   -2.4955 C   0  0  0  0  0  0  0  0  0  0  0  0
    0.1729   38.5055   -4.7973 C   0  0  0  0  0  0  0  0  0  0  0  0
    7.0372   33.5404   -1.6156 C   0  0  2  0  0  0  0  0  0  0  0  0
    8.1597   32.6239   -1.1785 N   0  0  0  0  0  0  0  0  0  0  0  0
    1.9310   34.6221   -1.8935 C   0  0  2  0  0  0  0  0  0  0  0  0
    0.9368   37.3199   -2.2051 C   0  0  1  0  0  0  0  0  0  0  0  0
    0.1939   36.1214   -2.3310 O   0  0  0  0  0  0  0  0  0  0  0  0
    6.3151   34.1334   -0.4107 C   0  0  1  0  0  0  0  0  0  0  0  0
    7.3799   34.8432    0.3601 O   0  0  0  0  0  0  0  0  0  0  0  0
    0.9279   35.1400   -2.9080 C   0  0  2  0  0  0  0  0  0  0  0  0
   -0.0082   38.4903   -2.3302 C   0  0  1  0  0  0  0  0  0  0  0  0
   -0.6292   38.4733   -3.6074 N   0  0  0  0  0  0  0  0  0  0  0  0
    5.1523   35.0434   -0.8010 C   0  0  2  0  0  0  0  0  0  0  0  0
    4.4336   35.6377    0.3072 N   0  0  0  0  0  0  0  0  0  0  0  0
    0.0960   33.9239   -3.2178 C   0  0  1  0  0  0  0  0  0  0  0  0
   -0.9977   33.8325   -2.2987 O   0  0  0  0  0  0  0  0  0  0  0  0
   -1.0625   38.3583   -1.2440 C   0  0  2  0  0  0  0  0  0  0  0  0
   -1.9813   39.4262   -1.3220 O   0  0  0  0  0  0  0  0  0  0  0  0
    4.1822   34.2335   -1.6213 C   0  0  1  0  0  0  0  0  0  0  0  0
    3.2132   35.1999   -2.1146 O   0  0  0  0  0  0  0  0  0  0  0  0
    1.0227   32.7840   -3.0075 C   0  0  1  0  0  0  0  0  0  0  0  0
    1.9928   33.2019   -2.0444 O   0  0  0  0  0  0  0  0  0  0  0  0
   -0.3273   38.3847    0.0961 C   0  0  1  0  0  0  0  0  0  0  0  0
   -1.2493   38.2593    1.1676 O   0  0  0  0  0  0  0  0  0  0  0  0
    4.8919   33.6648   -2.8795 C   0  0  2  0  0  0  0  0  0  0  0  0
    3.9582   32.9183   -3.6444 O   0  0  0  0  0  0  0  0  0  0  0  0
    0.6773   37.2326    0.1329 C   0  0  1  0  0  0  0  0  0  0  0  0
    1.6028   37.3599   -0.9453 O   0  0  0  0  0  0  0  0  0  0  0  0
    6.0483   32.7447   -2.4431 C   0  0  1  0  0  0  0  0  0  0  0  0
    6.7141   32.2111   -3.5939 O   0  0  0  0  0  0  0  0  0  0  0  0
    1.4355   37.2779    1.4598 C   0  0  0  0  0  0  0  0  0  0  0  0
    2.1691   38.4897    1.5357 O   0  0  0  0  0  0  0  0  0  0  0  0
    9.1143   31.6258   -2.9904 N   0  0  0  0  0  0  0  0  0  0  0  0
    5.5937   36.2764    1.9620 N   0  0  0  0  0  0  0  0  0  0  0  0
  1  2  1  0  0  0  0
  1 39  1  0  0  0  0
  3  4  1  0  0  0  0
  5  6  1  0  0  0  0
  5 40  1  0  0  0  0
  9 10  1  1  0  0  0
  9 14  1  0  0  0  0
  9 35  1  0  0  0  0
 10  1  1  0  0  0  0
 11 16  1  0  0  0  0
 11 28  1  0  0  0  0
 11 26  1  6  0  0  0
 12 17  1  0  0  0  0
 12 34  1  0  0  0  0
 12 13  1  1  0  0  0
 14 15  1  6  0  0  0
 14 19  1  0  0  0  0
 16 13  1  1  0  0  0
 16 21  1  0  0  0  0
 17 18  1  6  0  0  0
 17 23  1  0  0  0  0
 18  8  1  0  0  0  0
 19 20  1  1  0  0  0
 19 25  1  0  0  0  0
 20  5  1  0  0  0  0
 21  3  1  6  0  0  0
 21 22  1  0  0  0  0
 21 27  1  0  0  0  0
 23 24  1  1  0  0  0
 23 29  1  0  0  0  0
 25 26  1  6  0  0  0
 25 31  1  0  0  0  0
 27  7  1  1  0  0  0
 27 28  1  0  0  0  0
 29 30  1  1  0  0  0
 29 33  1  0  0  0  0
 31 32  1  1  0  0  0
 31 35  1  0  0  0  0
 33 34  1  0  0  0  0
 33 37  1  1  0  0  0
 35 36  1  6  0  0  0
 37 38  1  0  0  0  0
M  END
>  <CHROM.1>
-153.71371264,90.09844425,-152.26322651,148.10282871,74.53516610,-57.82598783
72.40630341,67.10373650,35.68363090,-133.76850091,-62.75178946,2.93182129
35.31320600,-1.65918676,0.34727996,0.34611354,-2.38294386

>  <Name>
1ntb_lig

>  <RI>
0

>  <Rbt.Current_Directory>
/home/itssahil/PROJECTS/Mol_Feturizer/New_Systems/rnas/1ntb

>  <Rbt.Executable>
rbdock ($Id: //depot/dev/client3/rdock/2013.1/src/exe/rbdock.cxx#4 $)

>  <Rbt.Library>
libRbt.so (2013.1, Build901 2013/11/27)

>  <Rbt.Parameter_File>
/export/apps/rDock/src/rDock_2013.1_src/data/scripts/dock_solv.prm

>  <Rbt.Receptor>
prm/pocket_docking_2.prm

>  <SCORE>
-4.44557

>  <SCORE.INTER>
-3.39174

>  <SCORE.INTER.CONST>
1

>  <SCORE.INTER.POLAR>
-0.334281

>  <SCORE.INTER.ROT>
11

>  <SCORE.INTER.SOLV>
23.5178

>  <SCORE.INTER.VDW>
-19.9195

>  <SCORE.INTER.norm>
-0.0847935

>  <SCORE.INTRA>
-3.91843

>  <SCORE.INTRA.DIHEDRAL>
2.58072

>  <SCORE.INTRA.DIHEDRAL.0>
15.4453

>  <SCORE.INTRA.POLAR>
0

>  <SCORE.INTRA.POLAR.0>
0

>  <SCORE.INTRA.REPUL>
-0.815846

>  <SCORE.INTRA.REPUL.0>
0.823958

>  <SCORE.INTRA.SOLV>
0.607991

>  <SCORE.INTRA.SOLV.lig_0>
-99.3069

>  <SCORE.INTRA.VDW>
-1.43356

>  <SCORE.INTRA.VDW.0>
0.946495

>  <SCORE.INTRA.norm>
-0.0979608

>  <SCORE.RESTR>
2.8646

>  <SCORE.RESTR.CAVITY>
2.8646

>  <SCORE.RESTR.norm>
0.071615

>  <SCORE.SYSTEM>
0

>  <SCORE.SYSTEM.CONST>
0

>  <SCORE.SYSTEM.DIHEDRAL>
0

>  <SCORE.SYSTEM.SOLV>
0

>  <SCORE.SYSTEM.norm>
0

>  <SCORE.heavy>
40

>  <SCORE.norm>
-0.111139

>  <RMSD>
2.199

$$$$
1ntb_lig
 OpenBabel11021811403D
libRbt.so/2013.1/901 2013/11/27
 40 42  0  0  0  0  0  0  0  0999 V2000
   10.0078   33.4097   -1.0213 C   0  0  0  0  0  0  0  0  0  0  0  0
   10.4109   34.5773   -0.6983 N   0  0  0  0  0  0  0  0  0  0  0  0
   -0.5629   34.5727   -3.8392 C   0  0  0  0  0  0  0  0  0  0  0  0
   -1.3170   35.6823   -3.3806 O   0  0  0  0  0  0  0  0  0  0  0  0
    4.9392   36.6574    0.6155 C   0  0  0  0  0  0  0  0  0  0  0  0
    4.7736   37.7123   -0.1000 N   0  0  0  0  0  0  0  0  0  0  0  0
    0.3440   31.5950   -2.8950 C   0  0  0  0  0  0  0  0  0  0  0  0
    1.4021   38.5696   -4.3619 C   0  0  0  0  0  0  0  0  0  0  0  0
    7.6746   33.7377   -1.1427 C   0  0  2  0  0  0  0  0  0  0  0  0
    8.8539   33.0399   -0.4997 N   0  0  0  0  0  0  0  0  0  0  0  0
    2.5007   34.1639   -1.8438 C   0  0  2  0  0  0  0  0  0  0  0  0
    1.6804   36.9731   -1.1018 C   0  0  1  0  0  0  0  0  0  0  0  0
    0.9295   35.7797   -1.2296 O   0  0  0  0  0  0  0  0  0  0  0  0
    6.7220   34.2869   -0.0863 C   0  0  1  0  0  0  0  0  0  0  0  0
    7.5605   35.2043    0.7427 O   0  0  0  0  0  0  0  0  0  0  0  0
    1.3449   35.0421   -2.2871 C   0  0  2  0  0  0  0  0  0  0  0  0
    1.0529   38.0350   -1.9719 C   0  0  1  0  0  0  0  0  0  0  0  0
    1.0828   37.6234   -3.3310 N   0  0  0  0  0  0  0  0  0  0  0  0
    5.4981   34.9750   -0.6872 C   0  0  2  0  0  0  0  0  0  0  0  0
    4.5612   35.5196    0.2737 N   0  0  0  0  0  0  0  0  0  0  0  0
    0.3038   34.0442   -2.7201 C   0  0  1  0  0  0  0  0  0  0  0  0
   -0.5098   33.6706   -1.6033 O   0  0  0  0  0  0  0  0  0  0  0  0
   -0.3867   38.2182   -1.5217 C   0  0  2  0  0  0  0  0  0  0  0  0
   -1.0254   39.1970   -2.3120 O   0  0  0  0  0  0  0  0  0  0  0  0
    4.7737   33.9706   -1.5455 C   0  0  1  0  0  0  0  0  0  0  0  0
    3.7449   34.7381   -2.2301 O   0  0  0  0  0  0  0  0  0  0  0  0
    1.0899   32.8727   -3.1806 C   0  0  1  0  0  0  0  0  0  0  0  0
    2.3274   32.8883   -2.4654 O   0  0  0  0  0  0  0  0  0  0  0  0
   -0.3432   38.6597   -0.0586 C   0  0  1  0  0  0  0  0  0  0  0  0
   -1.6586   38.8470    0.4398 O   0  0  0  0  0  0  0  0  0  0  0  0
    5.7176   33.4401   -2.6581 C   0  0  2  0  0  0  0  0  0  0  0  0
    5.0124   32.5075   -3.4626 O   0  0  0  0  0  0  0  0  0  0  0  0
    0.3792   37.5897    0.7605 C   0  0  1  0  0  0  0  0  0  0  0  0
    1.7010   37.4022    0.2575 O   0  0  0  0  0  0  0  0  0  0  0  0
    6.9307   32.7440   -2.0115 C   0  0  1  0  0  0  0  0  0  0  0  0
    7.8123   32.2480   -3.0260 O   0  0  0  0  0  0  0  0  0  0  0  0
    0.4514   38.0456    2.2181 C   0  0  0  0  0  0  0  0  0  0  0  0
    1.1748   39.2638    2.2896 O   0  0  0  0  0  0  0  0  0  0  0  0
   10.6902   32.6303   -1.7846 N   0  0  0  0  0  0  0  0  0  0  0  0
    5.5561   36.7405    1.6921 N   0  0  0  0  0  0  0  0  0  0  0  0
  1  2  1  0  0  0  0
  1 39  1  0  0  0  0
  3  4  1  0  0  0  0
  5  6  1  0  0  0  0
  5 40  1  0  0  0  0
  9 10  1  1  0  0  0
  9 14  1  0  0  0  0
  9 35  1  0  0  0  0
 10  1  1  0  0  0  0
 11 16  1  0  0  0  0
 11 28  1  0  0  0  0
 11 26  1  6  0  0  0
 12 17  1  0  0  0  0
 12 34  1  0  0  0  0
 12 13  1  1  0  0  0
 14 15  1  6  0  0  0
 14 19  1  0  0  0  0
 16 13  1  1  0  0  0
 16 21  1  0  0  0  0
 17 18  1  6  0  0  0
 17 23  1  0  0  0  0
 18  8  1  0  0  0  0
 19 20  1  1  0  0  0
 19 25  1  0  0  0  0
 20  5  1  0  0  0  0
 21  3  1  6  0  0  0
 21 22  1  0  0  0  0
 21 27  1  0  0  0  0
 23 24  1  6  0  0  0
 23 29  1  0  0  0  0
 25 26  1  6  0  0  0
 25 31  1  0  0  0  0
 27  7  1  1  0  0  0
 27 28  1  0  0  0  0
 29 30  1  1  0  0  0
 29 33  1  0  0  0  0
 31 32  1  6  0  0  0
 31 35  1  0  0  0  0
 33 34  1  0  0  0  0
 33 37  1  1  0  0  0
 35 36  1  6  0  0  0
 37 38  1  0  0  0  0
M  END
>  <CHROM.1>
-132.44913272,73.64816935,169.32062923,86.28618131,86.08816911,-139.11114266
84.62554707,78.16918347,-64.69908375,-119.92762339,-60.53390200,3.27075850
35.43727700,-1.30086303,-0.32466107,-0.27888950,0.67866219

>  <Name>
1ntb_lig

>  <RI>
0

>  <Rbt.Current_Directory>
/home/itssahil/PROJECTS/Mol_Feturizer/New_Systems/rnas/1ntb

>  <Rbt.Executable>
rbdock ($Id: //depot/dev/client3/rdock/2013.1/src/exe/rbdock.cxx#4 $)

>  <Rbt.Library>
libRbt.so (2013.1, Build901 2013/11/27)

>  <Rbt.Parameter_File>
/export/apps/rDock/src/rDock_2013.1_src/data/scripts/dock_solv.prm

>  <Rbt.Receptor>
prm/pocket_docking_3.prm

>  <SCORE>
-19.5348

>  <SCORE.INTER>
-9.76278

>  <SCORE.INTER.CONST>
1

>  <SCORE.INTER.POLAR>
-1.24537

>  <SCORE.INTER.ROT>
11

>  <SCORE.INTER.SOLV>
24.4615

>  <SCORE.INTER.VDW>
-21.4445

>  <SCORE.INTER.norm>
-0.24407

>  <SCORE.INTRA>
-9.77201

>  <SCORE.INTRA.DIHEDRAL>
1.99792

>  <SCORE.INTRA.DIHEDRAL.0>
15.4453

>  <SCORE.INTRA.POLAR>
0

>  <SCORE.INTRA.POLAR.0>
0

>  <SCORE.INTRA.REPUL>
-0.823958

>  <SCORE.INTRA.REPUL.0>
0.823958

>  <SCORE.INTRA.SOLV>
1.66524

>  <SCORE.INTRA.SOLV.lig_0>
-99.3069

>  <SCORE.INTRA.VDW>
-7.4838

>  <SCORE.INTRA.VDW.0>
0.946495

>  <SCORE.INTRA.norm>
-0.2443

>  <SCORE.RESTR>
0

>  <SCORE.RESTR.CAVITY>
0

>  <SCORE.RESTR.norm>
0

>  <SCORE.SYSTEM>
0

>  <SCORE.SYSTEM.CONST>
0

>  <SCORE.SYSTEM.DIHEDRAL>
0

>  <SCORE.SYSTEM.SOLV>
0

>  <SCORE.SYSTEM.norm>
0

>  <SCORE.heavy>
40

>  <SCORE.norm>
-0.48837

>  <RMSD>
2.249

$$$$
1ntb_lig
 OpenBabel11021811403D
libRbt.so/2013.1/901 2013/11/27
 40 42  0  0  0  0  0  0  0  0999 V2000
    9.9645   33.3165   -1.0385 C   0  0  0  0  0  0  0  0  0  0  0  0
   10.4408   34.4694   -0.7661 N   0  0  0  0  0  0  0  0  0  0  0  0
   -0.5483   34.4790   -3.9442 C   0  0  0  0  0  0  0  0  0  0  0  0
   -1.5706   33.5368   -4.2227 O   0  0  0  0  0  0  0  0  0  0  0  0
    4.8449   36.6119    0.6178 C   0  0  0  0  0  0  0  0  0  0  0  0
    4.6986   37.6577   -0.1151 N   0  0  0  0  0  0  0  0  0  0  0  0
    0.3531   31.5379   -2.8872 C   0  0  0  0  0  0  0  0  0  0  0  0
    1.4162   38.6163   -4.4297 C   0  0  0  0  0  0  0  0  0  0  0  0
    7.6421   33.7244   -1.1158 C   0  0  2  0  0  0  0  0  0  0  0  0
    8.8142   33.0239   -0.4628 N   0  0  0  0  0  0  0  0  0  0  0  0
    2.4770   34.1501   -1.8768 C   0  0  2  0  0  0  0  0  0  0  0  0
    1.6759   36.9422   -1.1952 C   0  0  1  0  0  0  0  0  0  0  0  0
    0.8866   35.7767   -1.3458 O   0  0  0  0  0  0  0  0  0  0  0  0
    6.6680   34.2520   -0.0682 C   0  0  1  0  0  0  0  0  0  0  0  0
    7.4863   35.1617    0.7889 O   0  0  0  0  0  0  0  0  0  0  0  0
    1.3262   35.0078   -2.3707 C   0  0  2  0  0  0  0  0  0  0  0  0
    1.0855   38.0398   -2.0468 C   0  0  1  0  0  0  0  0  0  0  0  0
    1.1047   37.6521   -3.4131 N   0  0  0  0  0  0  0  0  0  0  0  0
    5.4505   34.9420   -0.6801 C   0  0  2  0  0  0  0  0  0  0  0  0
    4.4938   35.4667    0.2724 N   0  0  0  0  0  0  0  0  0  0  0  0
    0.2985   33.9912   -2.7919 C   0  0  1  0  0  0  0  0  0  0  0  0
   -0.5355   33.6493   -1.6799 O   0  0  0  0  0  0  0  0  0  0  0  0
   -0.3482   38.2621   -1.5955 C   0  0  2  0  0  0  0  0  0  0  0  0
   -0.9528   39.2755   -2.3688 O   0  0  0  0  0  0  0  0  0  0  0  0
    4.7473   33.9464   -1.5658 C   0  0  1  0  0  0  0  0  0  0  0  0
    3.7259   34.7182   -2.2567 O   0  0  0  0  0  0  0  0  0  0  0  0
    1.0988   32.8096   -3.1990 C   0  0  1  0  0  0  0  0  0  0  0  0
    2.3218   32.8545   -2.4604 O   0  0  0  0  0  0  0  0  0  0  0  0
   -0.2932   38.6753   -0.1246 C   0  0  1  0  0  0  0  0  0  0  0  0
   -1.6028   38.8967    0.3753 O   0  0  0  0  0  0  0  0  0  0  0  0
    5.7136   33.4381   -2.6695 C   0  0  2  0  0  0  0  0  0  0  0  0
    5.0282   32.5137   -3.5000 O   0  0  0  0  0  0  0  0  0  0  0  0
    0.3919   37.5674    0.6761 C   0  0  1  0  0  0  0  0  0  0  0  0
    1.7078   37.3457    0.1717 O   0  0  0  0  0  0  0  0  0  0  0  0
    6.9195   32.7395   -2.0122 C   0  0  1  0  0  0  0  0  0  0  0  0
    7.8215   32.2640   -3.0184 O   0  0  0  0  0  0  0  0  0  0  0  0
    0.4761   37.9942    2.1418 C   0  0  0  0  0  0  0  0  0  0  0  0
    1.2449   39.1826    2.2373 O   0  0  0  0  0  0  0  0  0  0  0  0
   10.5745   32.4806   -1.8033 N   0  0  0  0  0  0  0  0  0  0  0  0
    5.4148   36.7127    1.7185 N   0  0  0  0  0  0  0  0  0  0  0  0
  1  2  1  0  0  0  0
  1 39  1  0  0  0  0
  3  4  1  0  0  0  0
  5  6  1  0  0  0  0
  5 40  1  0  0  0  0
  9 10  1  1  0  0  0
  9 14  1  0  0  0  0
  9 35  1  0  0  0  0
 10  1  1  0  0  0  0
 11 16  1  0  0  0  0
 11 28  1  0  0  0  0
 11 26  1  6  0  0  0
 12 17  1  0  0  0  0
 12 34  1  0  0  0  0
 12 13  1  1  0  0  0
 14 15  1  1  0  0  0
 14 19  1  0  0  0  0
 16 13  1  1  0  0  0
 16 21  1  0  0  0  0
 17 18  1  6  0  0  0
 17 23  1  0  0  0  0
 18  8  1  0  0  0  0
 19 20  1  1  0  0  0
 19 25  1  0  0  0  0
 20  5  1  0  0  0  0
 21  3  1  6  0  0  0
 21 22  1  0  0  0  0
 21 27  1  0  0  0  0
 23 24  1  6  0  0  0
 23 29  1  0  0  0  0
 25 26  1  6  0  0  0
 25 31  1  0  0  0  0
 27  7  1  1  0  0  0
 27 28  1  0  0  0  0
 29 30  1  1  0  0  0
 29 33  1  0  0  0  0
 31 32  1  6  0  0  0
 31 35  1  0  0  0  0
 33 34  1  0  0  0  0
 33 37  1  1  0  0  0
 35 36  1  6  0  0  0
 37 38  1  0  0  0  0
M  END
>  <CHROM.1>
-138.19149923,75.87081739,171.35880748,89.69192352,82.84115392,-141.06052747
85.91329280,76.09698532,-174.92429789,-118.63511158,-60.84237854,3.25234410
35.35147591,-1.35998246,-0.31327613,-0.27812650,0.65909404

>  <Name>
1ntb_lig

>  <RI>
0

>  <Rbt.Current_Directory>
/home/itssahil/PROJECTS/Mol_Feturizer/New_Systems/rnas/1ntb

>  <Rbt.Executable>
rbdock ($Id: //depot/dev/client3/rdock/2013.1/src/exe/rbdock.cxx#4 $)

>  <Rbt.Library>
libRbt.so (2013.1, Build901 2013/11/27)

>  <Rbt.Parameter_File>
/export/apps/rDock/src/rDock_2013.1_src/data/scripts/dock_solv.prm

>  <Rbt.Receptor>
prm/pocket_docking_3.prm

>  <SCORE>
-19.0219

>  <SCORE.INTER>
-9.53448

>  <SCORE.INTER.CONST>
1

>  <SCORE.INTER.POLAR>
-1.276

>  <SCORE.INTER.ROT>
11

>  <SCORE.INTER.SOLV>
24.5725

>  <SCORE.INTER.VDW>
-21.2272

>  <SCORE.INTER.norm>
-0.238362

>  <SCORE.INTRA>
-9.48741

>  <SCORE.INTRA.DIHEDRAL>
1.90336

>  <SCORE.INTRA.DIHEDRAL.0>
15.4453

>  <SCORE.INTRA.POLAR>
0

>  <SCORE.INTRA.POLAR.0>
0

>  <SCORE.INTRA.REPUL>
-0.823958

>  <SCORE.INTRA.REPUL.0>
0.823958

>  <SCORE.INTRA.SOLV>
0.966809

>  <SCORE.INTRA.SOLV.lig_0>
-99.3069

>  <SCORE.INTRA.VDW>
-6.8027

>  <SCORE.INTRA.VDW.0>
0.946495

>  <SCORE.INTRA.norm>
-0.237185

>  <SCORE.RESTR>
0

>  <SCORE.RESTR.CAVITY>
0

>  <SCORE.RESTR.norm>
0

>  <SCORE.SYSTEM>
0

>  <SCORE.SYSTEM.CONST>
0

>  <SCORE.SYSTEM.DIHEDRAL>
0

>  <SCORE.SYSTEM.SOLV>
0

>  <SCORE.SYSTEM.norm>
0

>  <SCORE.heavy>
40

>  <SCORE.norm>
-0.475547

>  <RMSD>
2.255

$$$$
1ntb_lig
 OpenBabel11021811403D
libRbt.so/2013.1/901 2013/11/27
 40 42  0  0  0  0  0  0  0  0999 V2000
   10.2473   32.9483   -2.7429 C   0  0  0  0  0  0  0  0  0  0  0  0
   10.8604   34.0378   -2.4835 N   0  0  0  0  0  0  0  0  0  0  0  0
   -0.4616   35.0429   -0.9049 C   0  0  0  0  0  0  0  0  0  0  0  0
   -0.4344   34.6629   -2.2706 O   0  0  0  0  0  0  0  0  0  0  0  0
    6.0329   36.2108    0.5506 C   0  0  0  0  0  0  0  0  0  0  0  0
    6.9905   36.3243    1.4004 N   0  0  0  0  0  0  0  0  0  0  0  0
    0.8062   32.5950    0.8215 C   0  0  0  0  0  0  0  0  0  0  0  0
   -1.3198   38.1336    1.2716 C   0  0  0  0  0  0  0  0  0  0  0  0
    8.0135   33.3916   -2.1270 C   0  0  2  0  0  0  0  0  0  0  0  0
    9.2922   32.6154   -1.8960 N   0  0  0  0  0  0  0  0  0  0  0  0
    3.1896   34.6033   -0.8040 C   0  0  2  0  0  0  0  0  0  0  0  0
    1.4923   37.7552   -0.9742 C   0  0  1  0  0  0  0  0  0  0  0  0
    2.2692   36.7142   -0.4114 O   0  0  0  0  0  0  0  0  0  0  0  0
    7.4214   33.8747   -0.8076 C   0  0  1  0  0  0  0  0  0  0  0  0
    8.4998   34.7007   -0.1859 O   0  0  0  0  0  0  0  0  0  0  0  0
    1.9947   35.5206   -0.9901 C   0  0  2  0  0  0  0  0  0  0  0  0
    0.8454   38.5352    0.1446 C   0  0  1  0  0  0  0  0  0  0  0  0
   -0.0105   37.6838    0.8928 N   0  0  0  0  0  0  0  0  0  0  0  0
    6.1111   34.6388   -0.9864 C   0  0  2  0  0  0  0  0  0  0  0  0
    5.5072   35.1249    0.2370 N   0  0  0  0  0  0  0  0  0  0  0  0
    0.8886   34.7905   -0.2756 C   0  0  1  0  0  0  0  0  0  0  0  0
    0.8654   35.1683    1.1049 O   0  0  0  0  0  0  0  0  0  0  0  0
    1.9494   39.0707    1.0407 C   0  0  2  0  0  0  0  0  0  0  0  0
    1.3971   39.8025    2.1130 O   0  0  0  0  0  0  0  0  0  0  0  0
    5.1299   33.7258   -1.6747 C   0  0  1  0  0  0  0  0  0  0  0  0
    3.9869   34.5713   -1.9830 O   0  0  0  0  0  0  0  0  0  0  0  0
    1.2586   33.3584   -0.3963 C   0  0  1  0  0  0  0  0  0  0  0  0
    2.6822   33.2993   -0.5112 O   0  0  0  0  0  0  0  0  0  0  0  0
    2.8271   39.9746    0.1747 C   0  0  1  0  0  0  0  0  0  0  0  0
    3.8919   40.5122    0.9434 O   0  0  0  0  0  0  0  0  0  0  0  0
    5.6987   33.2661   -3.0441 C   0  0  2  0  0  0  0  0  0  0  0  0
    4.7542   32.4198   -3.6812 O   0  0  0  0  0  0  0  0  0  0  0  0
    3.3843   39.1557   -0.9901 C   0  0  1  0  0  0  0  0  0  0  0  0
    2.3125   38.6155   -1.7613 O   0  0  0  0  0  0  0  0  0  0  0  0
    7.0110   32.4905   -2.8191 C   0  0  1  0  0  0  0  0  0  0  0  0
    7.5492   32.0587   -4.0745 O   0  0  0  0  0  0  0  0  0  0  0  0
    4.2359   40.0670   -1.8744 C   0  0  0  0  0  0  0  0  0  0  0  0
    5.4668   40.3320   -1.2209 O   0  0  0  0  0  0  0  0  0  0  0  0
   10.5537   32.2064   -3.7486 N   0  0  0  0  0  0  0  0  0  0  0  0
    5.5490   37.2344    0.0359 N   0  0  0  0  0  0  0  0  0  0  0  0
  1  2  1  0  0  0  0
  1 39  1  0  0  0  0
  3  4  1  0  0  0  0
  5  6  1  0  0  0  0
  5 40  1  0  0  0  0
  9 10  1  1  0  0  0
  9 14  1  0  0  0  0
  9 35  1  0  0  0  0
 10  1  1  0  0  0  0
 11 16  1  0  0  0  0
 11 28  1  0  0  0  0
 11 26  1  6  0  0  0
 12 17  1  0  0  0  0
 12 34  1  0  0  0  0
 12 13  1  1  0  0  0
 14 15  1  6  0  0  0
 14 19  1  0  0  0  0
 16 13  1  1  0  0  0
 16 21  1  0  0  0  0
 17 18  1  1  0  0  0
 17 23  1  0  0  0  0
 18  8  1  0  0  0  0
 19 20  1  1  0  0  0
 19 25  1  0  0  0  0
 20  5  1  0  0  0  0
 21  3  1  6  0  0  0
 21 22  1  0  0  0  0
 21 27  1  0  0  0  0
 23 24  1  1  0  0  0
 23 29  1  0  0  0  0
 25 26  1  6  0  0  0
 25 31  1  0  0  0  0
 27  7  1  1  0  0  0
 27 28  1  0  0  0  0
 29 30  1  1  0  0  0
 29 33  1  0  0  0  0
 31 32  1  1  0  0  0
 31 35  1  0  0  0  0
 33 34  1  0  0  0  0
 33 37  1  6  0  0  0
 35 36  1  6  0  0  0
 37 38  1  0  0  0  0
M  END
>  <CHROM.1>
-135.90592801,78.41767896,177.15473633,130.09349723,156.42350979,-135.28870855
83.55719500,-96.89187154,57.38628213,-83.91756944,74.33331077,4.17907268
35.70350509,-0.86872200,-0.61922310,0.15987246,0.29075275

>  <Name>
1ntb_lig

>  <RI>
0

>  <Rbt.Current_Directory>
/home/itssahil/PROJECTS/Mol_Feturizer/New_Systems/rnas/1ntb

>  <Rbt.Executable>
rbdock ($Id: //depot/dev/client3/rdock/2013.1/src/exe/rbdock.cxx#4 $)

>  <Rbt.Library>
libRbt.so (2013.1, Build901 2013/11/27)

>  <Rbt.Parameter_File>
/export/apps/rDock/src/rDock_2013.1_src/data/scripts/dock_solv.prm

>  <Rbt.Receptor>
prm/pocket_docking_4.prm

>  <SCORE>
-19.0261

>  <SCORE.INTER>
-11.3189

>  <SCORE.INTER.CONST>
1

>  <SCORE.INTER.POLAR>
-2.32728

>  <SCORE.INTER.ROT>
11

>  <SCORE.INTER.SOLV>
27.1672

>  <SCORE.INTER.VDW>
-19.7774

>  <SCORE.INTER.norm>
-0.282972

>  <SCORE.INTRA>
-7.70722

>  <SCORE.INTRA.DIHEDRAL>
0.640674

>  <SCORE.INTRA.DIHEDRAL.0>
15.4453

>  <SCORE.INTRA.POLAR>
0

>  <SCORE.INTRA.POLAR.0>
0

>  <SCORE.INTRA.REPUL>
-0.823958

>  <SCORE.INTRA.REPUL.0>
0.823958

>  <SCORE.INTRA.SOLV>
3.54873

>  <SCORE.INTRA.SOLV.lig_0>
-99.3069

>  <SCORE.INTRA.VDW>
-5.68214

>  <SCORE.INTRA.VDW.0>
0.946495

>  <SCORE.INTRA.norm>
-0.192681

>  <SCORE.RESTR>
0

>  <SCORE.RESTR.CAVITY>
0

>  <SCORE.RESTR.norm>
0

>  <SCORE.SYSTEM>
0

>  <SCORE.SYSTEM.CONST>
0

>  <SCORE.SYSTEM.DIHEDRAL>
0

>  <SCORE.SYSTEM.SOLV>
0

>  <SCORE.SYSTEM.norm>
0

>  <SCORE.heavy>
40

>  <SCORE.norm>
-0.475653

>  <RMSD>
2.296

$$$$
1ntb_lig
 OpenBabel11021811403D
libRbt.so/2013.1/901 2013/11/27
 40 42  0  0  0  0  0  0  0  0999 V2000
    9.9226   33.0768   -2.6604 C   0  0  0  0  0  0  0  0  0  0  0  0
   10.6215   34.0626   -2.2483 N   0  0  0  0  0  0  0  0  0  0  0  0
   -0.7608   35.3335   -0.7712 C   0  0  0  0  0  0  0  0  0  0  0  0
   -0.6673   35.1886   -2.1786 O   0  0  0  0  0  0  0  0  0  0  0  0
    5.8937   36.4528    0.6777 C   0  0  0  0  0  0  0  0  0  0  0  0
    5.6225   37.5282    0.0281 N   0  0  0  0  0  0  0  0  0  0  0  0
    0.3096   32.5836    0.5971 C   0  0  0  0  0  0  0  0  0  0  0  0
   -0.0513   37.7502    2.9991 C   0  0  0  0  0  0  0  0  0  0  0  0
    7.6904   33.5063   -2.0290 C   0  0  2  0  0  0  0  0  0  0  0  0
    8.9524   32.6889   -1.8551 N   0  0  0  0  0  0  0  0  0  0  0  0
    2.8585   34.7074   -0.5639 C   0  0  2  0  0  0  0  0  0  0  0  0
    0.9739   37.7422    0.0674 C   0  0  1  0  0  0  0  0  0  0  0  0
    2.0025   36.7709    0.1189 O   0  0  0  0  0  0  0  0  0  0  0  0
    7.1838   34.0219   -0.6864 C   0  0  1  0  0  0  0  0  0  0  0  0
    8.3202   34.8162   -0.1300 O   0  0  0  0  0  0  0  0  0  0  0  0
    1.7135   35.6994   -0.6577 C   0  0  2  0  0  0  0  0  0  0  0  0
    1.2258   38.7712    1.1427 C   0  0  1  0  0  0  0  0  0  0  0  0
    1.1996   38.1496    2.4195 N   0  0  0  0  0  0  0  0  0  0  0  0
    5.8926   34.8289   -0.8064 C   0  0  2  0  0  0  0  0  0  0  0  0
    5.3694   35.3469    0.4408 N   0  0  0  0  0  0  0  0  0  0  0  0
    0.5408   34.9192   -0.1256 C   0  0  1  0  0  0  0  0  0  0  0  0
    0.4553   35.0730    1.2950 O   0  0  0  0  0  0  0  0  0  0  0  0
    2.5957   39.3803    0.8954 C   0  0  2  0  0  0  0  0  0  0  0  0
    2.8869   40.3458    1.8821 O   0  0  0  0  0  0  0  0  0  0  0  0
    4.8469   33.9437   -1.4334 C   0  0  1  0  0  0  0  0  0  0  0  0
    3.7188   34.8250   -1.6922 O   0  0  0  0  0  0  0  0  0  0  0  0
    0.8596   33.5083   -0.4578 C   0  0  1  0  0  0  0  0  0  0  0  0
    2.2839   33.3995   -0.5109 O   0  0  0  0  0  0  0  0  0  0  0  0
    2.5517   40.0289   -0.4883 C   0  0  1  0  0  0  0  0  0  0  0  0
    3.8049   40.6186   -0.7971 O   0  0  0  0  0  0  0  0  0  0  0  0
    5.3285   33.4518   -2.8249 C   0  0  2  0  0  0  0  0  0  0  0  0
    4.3243   32.6325   -3.4033 O   0  0  0  0  0  0  0  0  0  0  0  0
    2.2067   38.9601   -1.5258 C   0  0  1  0  0  0  0  0  0  0  0  0
    0.9470   38.3678   -1.2133 O   0  0  0  0  0  0  0  0  0  0  0  0
    6.6237   32.6338   -2.6587 C   0  0  1  0  0  0  0  0  0  0  0  0
    7.0815   32.1719   -3.9352 O   0  0  0  0  0  0  0  0  0  0  0  0
    2.1308   39.6144   -2.9055 C   0  0  0  0  0  0  0  0  0  0  0  0
    3.3985   40.1610   -3.2320 O   0  0  0  0  0  0  0  0  0  0  0  0
   10.1604   32.4802   -3.7755 N   0  0  0  0  0  0  0  0  0  0  0  0
    6.7652   36.4786    1.5646 N   0  0  0  0  0  0  0  0  0  0  0  0
  1  2  1  0  0  0  0
  1 39  1  0  0  0  0
  3  4  1  0  0  0  0
  5  6  1  0  0  0  0
  5 40  1  0  0  0  0
  9 10  1  1  0  0  0
  9 14  1  0  0  0  0
  9 35  1  0  0  0  0
 10  1  1  0  0  0  0
 11 16  1  0  0  0  0
 11 28  1  0  0  0  0
 11 26  1  6  0  0  0
 12 17  1  0  0  0  0
 12 34  1  0  0  0  0
 12 13  1  6  0  0  0
 14 15  1  6  0  0  0
 14 19  1  0  0  0  0
 16 13  1  1  0  0  0
 16 21  1  0  0  0  0
 17 18  1  1  0  0  0
 17 23  1  0  0  0  0
 18  8  1  0  0  0  0
 19 20  1  1  0  0  0
 19 25  1  0  0  0  0
 20  5  1  0  0  0  0
 21  3  1  6  0  0  0
 21 22  1  0  0  0  0
 21 27  1  0  0  0  0
 23 24  1  1  0  0  0
 23 29  1  0  0  0  0
 25 26  1  6  0  0  0
 25 31  1  0  0  0  0
 27  7  1  1  0  0  0
 27 28  1  0  0  0  0
 29 30  1  6  0  0  0
 29 33  1  0  0  0  0
 31 32  1  1  0  0  0
 31 35  1  0  0  0  0
 33 34  1  0  0  0  0
 33 37  1  6  0  0  0
 35 36  1  6  0  0  0
 37 38  1  0  0  0  0
M  END
>  <CHROM.1>
-129.20023020,83.81201233,173.98158871,169.23937030,179.56621516,-74.52367498
87.16731399,71.93630679,56.76031936,-94.13885700,61.86681963,3.90262022,35.82177383
-0.79181476,-0.61726619,0.18797902,0.23900895

>  <Name>
1ntb_lig

>  <RI>
0

>  <Rbt.Current_Directory>
/home/itssahil/PROJECTS/Mol_Feturizer/New_Systems/rnas/1ntb

>  <Rbt.Executable>
rbdock ($Id: //depot/dev/client3/rdock/2013.1/src/exe/rbdock.cxx#4 $)

>  <Rbt.Library>
libRbt.so (2013.1, Build901 2013/11/27)

>  <Rbt.Parameter_File>
/export/apps/rDock/src/rDock_2013.1_src/data/scripts/dock_solv.prm

>  <Rbt.Receptor>
prm/pocket_docking_3.prm

>  <SCORE>
-22.4258

>  <SCORE.INTER>
-10.268

>  <SCORE.INTER.CONST>
1

>  <SCORE.INTER.POLAR>
-2.28695

>  <SCORE.INTER.ROT>
11

>  <SCORE.INTER.SOLV>
27.2411

>  <SCORE.INTER.VDW>
-19.2359

>  <SCORE.INTER.norm>
-0.2567

>  <SCORE.INTRA>
-12.1764

>  <SCORE.INTRA.DIHEDRAL>
-6.93189

>  <SCORE.INTRA.DIHEDRAL.0>
15.4453

>  <SCORE.INTRA.POLAR>
0

>  <SCORE.INTRA.POLAR.0>
0

>  <SCORE.INTRA.REPUL>
-0.823958

>  <SCORE.INTRA.REPUL.0>
0.823958

>  <SCORE.INTRA.SOLV>
0.606599

>  <SCORE.INTRA.SOLV.lig_0>
-99.3069

>  <SCORE.INTRA.VDW>
-4.89398

>  <SCORE.INTRA.VDW.0>
0.946495

>  <SCORE.INTRA.norm>
-0.30441

>  <SCORE.RESTR>
0.0186407

>  <SCORE.RESTR.CAVITY>
0.0186407

>  <SCORE.RESTR.norm>
0.000466018

>  <SCORE.SYSTEM>
0

>  <SCORE.SYSTEM.CONST>
0

>  <SCORE.SYSTEM.DIHEDRAL>
0

>  <SCORE.SYSTEM.SOLV>
0

>  <SCORE.SYSTEM.norm>
0

>  <SCORE.heavy>
40

>  <SCORE.norm>
-0.560644

>  <RMSD>
2.317

$$$$
1ntb_lig
 OpenBabel11021811403D
libRbt.so/2013.1/901 2013/11/27
 40 42  0  0  0  0  0  0  0  0999 V2000
   10.1089   33.1018   -0.8708 C   0  0  0  0  0  0  0  0  0  0  0  0
   10.9228   32.1528   -1.1301 N   0  0  0  0  0  0  0  0  0  0  0  0
   -0.2394   35.0145   -4.1021 C   0  0  0  0  0  0  0  0  0  0  0  0
   -1.2522   34.1668   -4.6179 O   0  0  0  0  0  0  0  0  0  0  0  0
    5.1641   36.5940    0.6113 C   0  0  0  0  0  0  0  0  0  0  0  0
    5.8623   36.8439    1.6611 N   0  0  0  0  0  0  0  0  0  0  0  0
    0.5553   31.8976   -3.6191 C   0  0  0  0  0  0  0  0  0  0  0  0
    1.6732   38.8957   -3.9740 C   0  0  0  0  0  0  0  0  0  0  0  0
    7.7979   33.5177   -1.0991 C   0  0  2  0  0  0  0  0  0  0  0  0
    8.9154   32.7306   -0.4490 N   0  0  0  0  0  0  0  0  0  0  0  0
    2.6904   34.1958   -2.0332 C   0  0  2  0  0  0  0  0  0  0  0  0
    1.9007   36.8415   -0.8586 C   0  0  1  0  0  0  0  0  0  0  0  0
    1.1142   35.7304   -1.2473 O   0  0  0  0  0  0  0  0  0  0  0  0
    6.8561   34.0983   -0.0499 C   0  0  1  0  0  0  0  0  0  0  0  0
    7.7298   34.9393    0.8226 O   0  0  0  0  0  0  0  0  0  0  0  0
    1.5793   35.1671   -2.3880 C   0  0  2  0  0  0  0  0  0  0  0  0
    1.4676   38.0450   -1.6602 C   0  0  1  0  0  0  0  0  0  0  0  0
    1.6772   37.8025   -3.0439 N   0  0  0  0  0  0  0  0  0  0  0  0
    5.6923   34.8774   -0.6592 C   0  0  2  0  0  0  0  0  0  0  0  0
    4.7683   35.4550    0.2949 N   0  0  0  0  0  0  0  0  0  0  0  0
    0.5486   34.2840   -3.0399 C   0  0  1  0  0  0  0  0  0  0  0  0
   -0.3375   33.7531   -2.0490 O   0  0  0  0  0  0  0  0  0  0  0  0
   -0.0110   38.2751   -1.3967 C   0  0  2  0  0  0  0  0  0  0  0  0
   -0.4715   39.3873   -2.1326 O   0  0  0  0  0  0  0  0  0  0  0  0
    4.9278   33.9432   -1.5607 C   0  0  1  0  0  0  0  0  0  0  0  0
    3.9657   34.7915   -2.2471 O   0  0  0  0  0  0  0  0  0  0  0  0
    1.3399   33.1837   -3.6446 C   0  0  1  0  0  0  0  0  0  0  0  0
    2.5321   33.0463   -2.8680 O   0  0  0  0  0  0  0  0  0  0  0  0
   -0.1620   38.5290    0.1033 C   0  0  1  0  0  0  0  0  0  0  0  0
   -1.5249   38.7483    0.4321 O   0  0  0  0  0  0  0  0  0  0  0  0
    5.8634   33.3832   -2.6658 C   0  0  2  0  0  0  0  0  0  0  0  0
    5.1210   32.5180   -3.5112 O   0  0  0  0  0  0  0  0  0  0  0  0
    0.3719   37.3169    0.8672 C   0  0  1  0  0  0  0  0  0  0  0  0
    1.7418   37.0975    0.5348 O   0  0  0  0  0  0  0  0  0  0  0  0
    7.0147   32.5956   -2.0113 C   0  0  1  0  0  0  0  0  0  0  0  0
    7.8879   32.0715   -3.0188 O   0  0  0  0  0  0  0  0  0  0  0  0
    0.2509   37.5837    2.3678 C   0  0  0  0  0  0  0  0  0  0  0  0
    0.9661   38.7658    2.6897 O   0  0  0  0  0  0  0  0  0  0  0  0
   10.4183   34.3402   -1.0329 N   0  0  0  0  0  0  0  0  0  0  0  0
    4.8044   37.5330   -0.1204 N   0  0  0  0  0  0  0  0  0  0  0  0
  1  2  1  0  0  0  0
  1 39  1  0  0  0  0
  3  4  1  0  0  0  0
  5  6  1  0  0  0  0
  5 40  1  0  0  0  0
  9 10  1  1  0  0  0
  9 14  1  0  0  0  0
  9 35  1  0  0  0  0
 10  1  1  0  0  0  0
 11 16  1  0  0  0  0
 11 28  1  0  0  0  0
 11 26  1  6  0  0  0
 12 17  1  0  0  0  0
 12 34  1  0  0  0  0
 12 13  1  6  0  0  0
 14 15  1  1  0  0  0
 14 19  1  0  0  0  0
 16 13  1  1  0  0  0
 16 21  1  0  0  0  0
 17 18  1  6  0  0  0
 17 23  1  0  0  0  0
 18  8  1  0  0  0  0
 19 20  1  1  0  0  0
 19 25  1  0  0  0  0
 20  5  1  0  0  0  0
 21  3  1  6  0  0  0
 21 22  1  0  0  0  0
 21 27  1  0  0  0  0
 23 24  1  6  0  0  0
 23 29  1  0  0  0  0
 25 26  1  6  0  0  0
 25 31  1  0  0  0  0
 27  7  1  1  0  0  0
 27 28  1  0  0  0  0
 29 30  1  6  0  0  0
 29 33  1  0  0  0  0
 31 32  1  6  0  0  0
 31 35  1  0  0  0  0
 33 34  1  0  0  0  0
 33 37  1  1  0  0  0
 35 36  1  6  0  0  0
 37 38  1  0  0  0  0
M  END
>  <CHROM.1>
-128.28502493,-136.49419817,165.33260701,81.20525750,84.38126957,-163.91109740
88.82970059,-96.26822877,-176.07105122,-126.54258912,-57.68465336,3.44479191
35.34084953,-1.32877688,-0.30597744,-0.31865764,0.75958608

>  <Name>
1ntb_lig

>  <RI>
0

>  <Rbt.Current_Directory>
/home/itssahil/PROJECTS/Mol_Feturizer/New_Systems/rnas/1ntb

>  <Rbt.Executable>
rbdock ($Id: //depot/dev/client3/rdock/2013.1/src/exe/rbdock.cxx#4 $)

>  <Rbt.Library>
libRbt.so (2013.1, Build901 2013/11/27)

>  <Rbt.Parameter_File>
/export/apps/rDock/src/rDock_2013.1_src/data/scripts/dock_solv.prm

>  <Rbt.Receptor>
prm/pocket_docking_6.prm

>  <SCORE>
-20.331

>  <SCORE.INTER>
-12.5551

>  <SCORE.INTER.CONST>
1

>  <SCORE.INTER.POLAR>
-1.85686

>  <SCORE.INTER.ROT>
11

>  <SCORE.INTER.SOLV>
26.7165

>  <SCORE.INTER.VDW>
-22.0194

>  <SCORE.INTER.norm>
-0.313877

>  <SCORE.INTRA>
-7.77592

>  <SCORE.INTRA.DIHEDRAL>
0.200714

>  <SCORE.INTRA.DIHEDRAL.0>
15.4453

>  <SCORE.INTRA.POLAR>
0

>  <SCORE.INTRA.POLAR.0>
0

>  <SCORE.INTRA.REPUL>
-0.620877

>  <SCORE.INTRA.REPUL.0>
0.823958

>  <SCORE.INTRA.SOLV>
0.999497

>  <SCORE.INTRA.SOLV.lig_0>
-99.3069

>  <SCORE.INTRA.VDW>
-5.27164

>  <SCORE.INTRA.VDW.0>
0.946495

>  <SCORE.INTRA.norm>
-0.194398

>  <SCORE.RESTR>
0

>  <SCORE.RESTR.CAVITY>
0

>  <SCORE.RESTR.norm>
0

>  <SCORE.SYSTEM>
0

>  <SCORE.SYSTEM.CONST>
0

>  <SCORE.SYSTEM.DIHEDRAL>
0

>  <SCORE.SYSTEM.SOLV>
0

>  <SCORE.SYSTEM.norm>
0

>  <SCORE.heavy>
40

>  <SCORE.norm>
-0.508275

>  <RMSD>
2.338

$$$$
1ntb_lig
 OpenBabel11021811403D
libRbt.so/2013.1/901 2013/11/27
 40 42  0  0  0  0  0  0  0  0999 V2000
    9.7552   32.8708   -1.3916 C   0  0  0  0  0  0  0  0  0  0  0  0
   10.4742   31.8871   -1.7731 N   0  0  0  0  0  0  0  0  0  0  0  0
   -0.4884   34.7783   -4.9121 C   0  0  0  0  0  0  0  0  0  0  0  0
   -1.1502   35.8866   -4.3258 O   0  0  0  0  0  0  0  0  0  0  0  0
    4.4685   35.8424    0.3876 C   0  0  0  0  0  0  0  0  0  0  0  0
    4.9135   35.8108    1.5930 N   0  0  0  0  0  0  0  0  0  0  0  0
    0.3249   31.6544   -4.5120 C   0  0  0  0  0  0  0  0  0  0  0  0
    1.7312   39.0490   -3.9385 C   0  0  0  0  0  0  0  0  0  0  0  0
    7.4542   33.3599   -1.5700 C   0  0  2  0  0  0  0  0  0  0  0  0
    8.5626   32.5578   -0.9227 N   0  0  0  0  0  0  0  0  0  0  0  0
    2.3910   33.9175   -2.7901 C   0  0  2  0  0  0  0  0  0  0  0  0
    1.6591   36.3598   -1.4282 C   0  0  1  0  0  0  0  0  0  0  0  0
    0.7777   35.4097   -1.9978 O   0  0  0  0  0  0  0  0  0  0  0  0
    6.3611   33.6951   -0.5612 C   0  0  1  0  0  0  0  0  0  0  0  0
    7.0623   34.4423    0.5259 O   0  0  0  0  0  0  0  0  0  0  0  0
    1.2802   34.8898   -3.1432 C   0  0  2  0  0  0  0  0  0  0  0  0
    1.2545   37.7367   -1.8964 C   0  0  1  0  0  0  0  0  0  0  0  0
    1.3568   37.8136   -3.3109 N   0  0  0  0  0  0  0  0  0  0  0  0
    5.2034   34.4796   -1.1751 C   0  0  2  0  0  0  0  0  0  0  0  0
    4.1381   34.8285   -0.2580 N   0  0  0  0  0  0  0  0  0  0  0  0
    0.2773   34.0197   -3.8533 C   0  0  1  0  0  0  0  0  0  0  0  0
   -0.6305   33.4471   -2.9062 O   0  0  0  0  0  0  0  0  0  0  0  0
   -0.1855   37.9708   -1.4716 C   0  0  2  0  0  0  0  0  0  0  0  0
   -0.6191   39.2450   -1.8947 O   0  0  0  0  0  0  0  0  0  0  0  0
    4.6215   33.6530   -2.2924 C   0  0  1  0  0  0  0  0  0  0  0  0
    3.6655   34.5321   -2.9478 O   0  0  0  0  0  0  0  0  0  0  0  0
    1.0965   32.9480   -4.4721 C   0  0  1  0  0  0  0  0  0  0  0  0
    2.2680   32.7955   -3.6672 O   0  0  0  0  0  0  0  0  0  0  0  0
   -0.2212   37.8751    0.0538 C   0  0  1  0  0  0  0  0  0  0  0  0
   -1.5424   38.0777    0.5304 O   0  0  0  0  0  0  0  0  0  0  0  0
    5.7125   33.3467   -3.3537 C   0  0  2  0  0  0  0  0  0  0  0  0
    5.1407   32.5805   -4.4026 O   0  0  0  0  0  0  0  0  0  0  0  0
    0.2808   36.4937    0.4755 C   0  0  1  0  0  0  0  0  0  0  0  0
    1.6087   36.2914   -0.0051 O   0  0  0  0  0  0  0  0  0  0  0  0
    6.8539   32.5457   -2.6981 C   0  0  1  0  0  0  0  0  0  0  0  0
    7.8697   32.2545   -3.6654 O   0  0  0  0  0  0  0  0  0  0  0  0
    0.2759   36.4089    2.0020 C   0  0  0  0  0  0  0  0  0  0  0  0
    1.1932   37.3568    2.5240 O   0  0  0  0  0  0  0  0  0  0  0  0
   10.1525   34.0915   -1.4801 N   0  0  0  0  0  0  0  0  0  0  0  0
    4.2983   36.9401   -0.1717 N   0  0  0  0  0  0  0  0  0  0  0  0
  1  2  1  0  0  0  0
  1 39  1  0  0  0  0
  3  4  1  0  0  0  0
  5  6  1  0  0  0  0
  5 40  1  0  0  0  0
  9 10  1  1  0  0  0
  9 14  1  0  0  0  0
  9 35  1  0  0  0  0
 10  1  1  0  0  0  0
 11 16  1  0  0  0  0
 11 28  1  0  0  0  0
 11 26  1  6  0  0  0
 12 17  1  0  0  0  0
 12 34  1  0  0  0  0
 12 13  1  6  0  0  0
 14 15  1  1  0  0  0
 14 19  1  0  0  0  0
 16 13  1  1  0  0  0
 16 21  1  0  0  0  0
 17 18  1  6  0  0  0
 17 23  1  0  0  0  0
 18  8  1  0  0  0  0
 19 20  1  1  0  0  0
 19 25  1  0  0  0  0
 20  5  1  0  0  0  0
 21  3  1  6  0  0  0
 21 22  1  0  0  0  0
 21 27  1  0  0  0  0
 23 24  1  1  0  0  0
 23 29  1  0  0  0  0
 25 26  1  6  0  0  0
 25 31  1  0  0  0  0
 27  7  1  1  0  0  0
 27 28  1  0  0  0  0
 29 30  1  6  0  0  0
 29 33  1  0  0  0  0
 31 32  1  6  0  0  0
 31 35  1  0  0  0  0
 33 34  1  0  0  0  0
 33 37  1  1  0  0  0
 35 36  1  6  0  0  0
 37 38  1  0  0  0  0
M  END
>  <CHROM.1>
-143.56394608,-129.25279007,166.72286844,94.53467313,74.40167624,-146.75259672
81.13027600,-101.01846826,-57.80773348,-117.53165965,-63.67070865,3.18622352
35.01992641,-1.78405145,-0.27380131,-0.34415714,0.91621045

>  <Name>
1ntb_lig

>  <RI>
0

>  <Rbt.Current_Directory>
/home/itssahil/PROJECTS/Mol_Feturizer/New_Systems/rnas/1ntb

>  <Rbt.Executable>
rbdock ($Id: //depot/dev/client3/rdock/2013.1/src/exe/rbdock.cxx#4 $)

>  <Rbt.Library>
libRbt.so (2013.1, Build901 2013/11/27)

>  <Rbt.Parameter_File>
/export/apps/rDock/src/rDock_2013.1_src/data/scripts/dock_solv.prm

>  <Rbt.Receptor>
prm/pocket_docking_2.prm

>  <SCORE>
-16.5848

>  <SCORE.INTER>
-9.58956

>  <SCORE.INTER.CONST>
1

>  <SCORE.INTER.POLAR>
-1.18493

>  <SCORE.INTER.ROT>
11

>  <SCORE.INTER.SOLV>
25.0062

>  <SCORE.INTER.VDW>
-21.712

>  <SCORE.INTER.norm>
-0.239739

>  <SCORE.INTRA>
-8.35793

>  <SCORE.INTRA.DIHEDRAL>
0.931134

>  <SCORE.INTRA.DIHEDRAL.0>
15.4453

>  <SCORE.INTRA.POLAR>
0

>  <SCORE.INTRA.POLAR.0>
0

>  <SCORE.INTRA.REPUL>
-0.738924

>  <SCORE.INTRA.REPUL.0>
0.823958

>  <SCORE.INTRA.SOLV>
3.35039

>  <SCORE.INTRA.SOLV.lig_0>
-99.3069

>  <SCORE.INTRA.VDW>
-6.80407

>  <SCORE.INTRA.VDW.0>
0.946495

>  <SCORE.INTRA.norm>
-0.208948

>  <SCORE.RESTR>
1.36269

>  <SCORE.RESTR.CAVITY>
1.36269

>  <SCORE.RESTR.norm>
0.0340673

>  <SCORE.SYSTEM>
0

>  <SCORE.SYSTEM.CONST>
0

>  <SCORE.SYSTEM.DIHEDRAL>
0

>  <SCORE.SYSTEM.SOLV>
0

>  <SCORE.SYSTEM.norm>
0

>  <SCORE.heavy>
40

>  <SCORE.norm>
-0.41462

>  <RMSD>
2.362

$$$$
1ntb_lig
 OpenBabel11021811403D
libRbt.so/2013.1/901 2013/11/27
 40 42  0  0  0  0  0  0  0  0999 V2000
    7.1892   32.6622   -2.1099 C   0  0  0  0  0  0  0  0  0  0  0  0
    7.4152   31.9853   -3.1686 N   0  0  0  0  0  0  0  0  0  0  0  0
   -2.5187   34.0352   -2.7008 C   0  0  0  0  0  0  0  0  0  0  0  0
   -3.5363   34.6949   -1.9663 O   0  0  0  0  0  0  0  0  0  0  0  0
    3.5720   36.4200    1.2434 C   0  0  0  0  0  0  0  0  0  0  0  0
    2.6052   37.1036    1.7435 N   0  0  0  0  0  0  0  0  0  0  0  0
   -0.7618   31.3110   -2.4323 C   0  0  0  0  0  0  0  0  0  0  0  0
   -4.5450   34.9827    1.5191 C   0  0  0  0  0  0  0  0  0  0  0  0
    5.8345   34.5932   -2.1520 C   0  0  2  0  0  0  0  0  0  0  0  0
    7.2114   33.9732   -2.2552 N   0  0  0  0  0  0  0  0  0  0  0  0
    0.7480   34.1500   -1.0125 C   0  0  2  0  0  0  0  0  0  0  0  0
   -2.0977   36.1356   -0.1241 C   0  0  1  0  0  0  0  0  0  0  0  0
   -1.1136   35.1262    0.0066 O   0  0  0  0  0  0  0  0  0  0  0  0
    5.3533   34.6182   -0.7053 C   0  0  1  0  0  0  0  0  0  0  0  0
    6.3977   35.3930    0.0301 O   0  0  0  0  0  0  0  0  0  0  0  0
   -0.6400   34.7347   -1.2006 C   0  0  2  0  0  0  0  0  0  0  0  0
   -2.6065   36.4960    1.2506 C   0  0  1  0  0  0  0  0  0  0  0  0
   -3.2015   35.3579    1.8574 N   0  0  0  0  0  0  0  0  0  0  0  0
    3.9530   35.2084   -0.5529 C   0  0  2  0  0  0  0  0  0  0  0  0
    3.4484   35.2601    0.8037 N   0  0  0  0  0  0  0  0  0  0  0  0
   -1.4241   33.5795   -1.7644 C   0  0  1  0  0  0  0  0  0  0  0  0
   -1.9808   32.8006   -0.7002 O   0  0  0  0  0  0  0  0  0  0  0  0
   -1.4220   36.9611    2.0807 C   0  0  2  0  0  0  0  0  0  0  0  0
   -1.8418   37.3024    3.3837 O   0  0  0  0  0  0  0  0  0  0  0  0
    3.0064   34.3822   -1.3845 C   0  0  1  0  0  0  0  0  0  0  0  0
    1.7463   35.1082   -1.3472 O   0  0  0  0  0  0  0  0  0  0  0  0
   -0.4145   32.7757   -2.4973 C   0  0  1  0  0  0  0  0  0  0  0  0
    0.8474   33.0088   -1.8676 O   0  0  0  0  0  0  0  0  0  0  0  0
   -0.8341   38.1822    1.3733 C   0  0  1  0  0  0  0  0  0  0  0  0
    0.2879   38.6748    2.0890 O   0  0  0  0  0  0  0  0  0  0  0  0
    3.4560   34.3895   -2.8705 C   0  0  2  0  0  0  0  0  0  0  0  0
    2.5442   33.6185   -3.6375 O   0  0  0  0  0  0  0  0  0  0  0  0
   -0.4169   37.7817   -0.0421 C   0  0  1  0  0  0  0  0  0  0  0  0
   -1.5458   37.2860   -0.7598 O   0  0  0  0  0  0  0  0  0  0  0  0
    4.8652   33.7764   -2.9821 C   0  0  1  0  0  0  0  0  0  0  0  0
    5.2949   33.7756   -4.3487 O   0  0  0  0  0  0  0  0  0  0  0  0
    0.1413   39.0102   -0.7610 C   0  0  0  0  0  0  0  0  0  0  0  0
    0.5886   38.6306   -2.0526 O   0  0  0  0  0  0  0  0  0  0  0  0
    6.9784   32.1079   -0.9680 N   0  0  0  0  0  0  0  0  0  0  0  0
    4.6952   36.9423    1.1318 N   0  0  0  0  0  0  0  0  0  0  0  0
  1  2  1  0  0  0  0
  1 39  1  0  0  0  0
  3  4  1  0  0  0  0
  5  6  1  0  0  0  0
  5 40  1  0  0  0  0
  9 10  1  1  0  0  0
  9 14  1  0  0  0  0
  9 35  1  0  0  0  0
 10  1  1  0  0  0  0
 11 16  1  0  0  0  0
 11 28  1  0  0  0  0
 11 26  1  6  0  0  0
 12 17  1  0  0  0  0
 12 34  1  0  0  0  0
 12 13  1  1  0  0  0
 14 15  1  1  0  0  0
 14 19  1  0  0  0  0
 16 13  1  1  0  0  0
 16 21  1  0  0  0  0
 17 18  1  1  0  0  0
 17 23  1  0  0  0  0
 18  8  1  0  0  0  0
 19 20  1  1  0  0  0
 19 25  1  0  0  0  0
 20  5  1  0  0  0  0
 21  3  1  6  0  0  0
 21 22  1  0  0  0  0
 21 27  1  0  0  0  0
 23 24  1  1  0  0  0
 23 29  1  0  0  0  0
 25 26  1  6  0  0  0
 25 31  1  0  0  0  0
 27  7  1  1  0  0  0
 27 28  1  0  0  0  0
 29 30  1  1  0  0  0
 29 33  1  0  0  0  0
 31 32  1  6  0  0  0
 31 35  1  0  0  0  0
 33 34  1  0  0  0  0
 33 37  1  6  0  0  0
 35 36  1  6  0  0  0
 37 38  1  0  0  0  0
M  END
>  <CHROM.1>
74.42801088,108.82100221,-169.27983815,178.46933725,155.85988992,-80.72152950
101.03121000,126.11604522,-69.47197906,-130.95681742,177.25608659,1.38221094
35.11854079,-0.74993311,0.40162527,-0.04589732,-2.43776358

>  <Name>
1ntb_lig

>  <RI>
0

>  <Rbt.Current_Directory>
/home/itssahil/PROJECTS/Mol_Feturizer/New_Systems/rnas/1ntb

>  <Rbt.Executable>
rbdock ($Id: //depot/dev/client3/rdock/2013.1/src/exe/rbdock.cxx#4 $)

>  <Rbt.Library>
libRbt.so (2013.1, Build901 2013/11/27)

>  <Rbt.Parameter_File>
/export/apps/rDock/src/rDock_2013.1_src/data/scripts/dock_solv.prm

>  <Rbt.Receptor>
prm/pocket_docking_3.prm

>  <SCORE>
-1.35098

>  <SCORE.INTER>
4.72148

>  <SCORE.INTER.CONST>
1

>  <SCORE.INTER.POLAR>
-0.520538

>  <SCORE.INTER.ROT>
11

>  <SCORE.INTER.SOLV>
22.2904

>  <SCORE.INTER.VDW>
-13.4807

>  <SCORE.INTER.norm>
0.118037

>  <SCORE.INTRA>
-6.07617

>  <SCORE.INTRA.DIHEDRAL>
-3.25622

>  <SCORE.INTRA.DIHEDRAL.0>
15.4453

>  <SCORE.INTRA.POLAR>
0

>  <SCORE.INTRA.POLAR.0>
0

>  <SCORE.INTRA.REPUL>
-0.823958

>  <SCORE.INTRA.REPUL.0>
0.823958

>  <SCORE.INTRA.SOLV>
3.11223

>  <SCORE.INTRA.SOLV.lig_0>
-99.3069

>  <SCORE.INTRA.VDW>
-1.88438

>  <SCORE.INTRA.VDW.0>
0.946495

>  <SCORE.INTRA.norm>
-0.151904

>  <SCORE.RESTR>
0.00370508

>  <SCORE.RESTR.CAVITY>
0.00370508

>  <SCORE.RESTR.norm>
9.26269e-05

>  <SCORE.SYSTEM>
0

>  <SCORE.SYSTEM.CONST>
0

>  <SCORE.SYSTEM.DIHEDRAL>
0

>  <SCORE.SYSTEM.SOLV>
0

>  <SCORE.SYSTEM.norm>
0

>  <SCORE.heavy>
40

>  <SCORE.norm>
-0.0337745

>  <RMSD>
2.383

$$$$
1ntb_lig
 OpenBabel11021811403D
libRbt.so/2013.1/901 2013/11/27
 40 42  0  0  0  0  0  0  0  0999 V2000
   10.1127   33.1983   -1.0553 C   0  0  0  0  0  0  0  0  0  0  0  0
   10.8902   32.3860   -1.6603 N   0  0  0  0  0  0  0  0  0  0  0  0
   -0.4117   34.8351   -3.8647 C   0  0  0  0  0  0  0  0  0  0  0  0
    0.4097   35.2767   -4.9327 O   0  0  0  0  0  0  0  0  0  0  0  0
    5.2614   36.5856    0.5328 C   0  0  0  0  0  0  0  0  0  0  0  0
    6.0879   36.8408    1.4835 N   0  0  0  0  0  0  0  0  0  0  0  0
    0.4418   31.7479   -3.2984 C   0  0  0  0  0  0  0  0  0  0  0  0
    1.6288   38.7223   -3.9673 C   0  0  0  0  0  0  0  0  0  0  0  0
    7.7821   33.4807   -1.2887 C   0  0  2  0  0  0  0  0  0  0  0  0
    8.9416   32.7078   -0.6976 N   0  0  0  0  0  0  0  0  0  0  0  0
    2.6237   34.1283   -1.9099 C   0  0  2  0  0  0  0  0  0  0  0  0
    1.8883   36.7840   -0.7791 C   0  0  1  0  0  0  0  0  0  0  0  0
    1.0693   35.6776   -1.1095 O   0  0  0  0  0  0  0  0  0  0  0  0
    6.9095   34.0810   -0.1918 C   0  0  1  0  0  0  0  0  0  0  0  0
    7.8364   34.9400    0.6049 O   0  0  0  0  0  0  0  0  0  0  0  0
    1.4856   35.0738   -2.2483 C   0  0  2  0  0  0  0  0  0  0  0  0
    1.4660   37.9661   -1.6175 C   0  0  1  0  0  0  0  0  0  0  0  0
    1.6417   37.6667   -2.9948 N   0  0  0  0  0  0  0  0  0  0  0  0
    5.7066   34.8467   -0.7391 C   0  0  2  0  0  0  0  0  0  0  0  0
    4.8456   35.4421    0.2618 N   0  0  0  0  0  0  0  0  0  0  0  0
    0.4351   34.1554   -2.8141 C   0  0  1  0  0  0  0  0  0  0  0  0
   -0.3960   33.6557   -1.7611 O   0  0  0  0  0  0  0  0  0  0  0  0
   -0.0013   38.2402   -1.3340 C   0  0  2  0  0  0  0  0  0  0  0  0
   -0.4518   39.3342   -2.1027 O   0  0  0  0  0  0  0  0  0  0  0  0
    4.8870   33.8939   -1.5701 C   0  0  1  0  0  0  0  0  0  0  0  0
    3.8802   34.7274   -2.2088 O   0  0  0  0  0  0  0  0  0  0  0  0
    1.2092   33.0396   -3.4126 C   0  0  1  0  0  0  0  0  0  0  0  0
    2.4389   32.9449   -2.6901 O   0  0  0  0  0  0  0  0  0  0  0  0
   -0.1158   38.5541    0.1579 C   0  0  1  0  0  0  0  0  0  0  0  0
   -1.4664   38.8172    0.5048 O   0  0  0  0  0  0  0  0  0  0  0  0
    5.7498   33.3130   -2.7227 C   0  0  2  0  0  0  0  0  0  0  0  0
    4.9559   32.4305   -3.5005 O   0  0  0  0  0  0  0  0  0  0  0  0
    0.4064   37.3597    0.9570 C   0  0  1  0  0  0  0  0  0  0  0  0
    1.7639   37.0962    0.6063 O   0  0  0  0  0  0  0  0  0  0  0  0
    6.9432   32.5398   -2.1294 C   0  0  1  0  0  0  0  0  0  0  0  0
    7.7500   31.9967   -3.1812 O   0  0  0  0  0  0  0  0  0  0  0  0
    0.3222   37.6858    2.4483 C   0  0  0  0  0  0  0  0  0  0  0  0
   -1.0356   37.6479    2.8573 O   0  0  0  0  0  0  0  0  0  0  0  0
   10.4349   34.4234   -0.8293 N   0  0  0  0  0  0  0  0  0  0  0  0
    4.7935   37.5230   -0.1374 N   0  0  0  0  0  0  0  0  0  0  0  0
  1  2  1  0  0  0  0
  1 39  1  0  0  0  0
  3  4  1  0  0  0  0
  5  6  1  0  0  0  0
  5 40  1  0  0  0  0
  9 10  1  1  0  0  0
  9 14  1  0  0  0  0
  9 35  1  0  0  0  0
 10  1  1  0  0  0  0
 11 16  1  0  0  0  0
 11 28  1  0  0  0  0
 11 26  1  6  0  0  0
 12 17  1  0  0  0  0
 12 34  1  0  0  0  0
 12 13  1  6  0  0  0
 14 15  1  6  0  0  0
 14 19  1  0  0  0  0
 16 13  1  1  0  0  0
 16 21  1  0  0  0  0
 17 18  1  6  0  0  0
 17 23  1  0  0  0  0
 18  8  1  0  0  0  0
 19 20  1  1  0  0  0
 19 25  1  0  0  0  0
 20  5  1  0  0  0  0
 21  3  1  6  0  0  0
 21 22  1  0  0  0  0
 21 27  1  0  0  0  0
 23 24  1  6  0  0  0
 23 29  1  0  0  0  0
 25 26  1  6  0  0  0
 25 31  1  0  0  0  0
 27  7  1  1  0  0  0
 27 28  1  0  0  0  0
 29 30  1  1  0  0  0
 29 33  1  0  0  0  0
 31 32  1  1  0  0  0
 31 35  1  0  0  0  0
 33 34  1  0  0  0  0
 33 37  1  1  0  0  0
 35 36  1  6  0  0  0
 37 38  1  0  0  0  0
M  END
>  <CHROM.1>
-119.09205474,-121.91267114,166.98191632,80.22938473,82.39272154,-164.57989955
88.58278430,-91.98171058,59.70789791,-127.02764782,72.96343485,3.41550314
35.30437641,-1.31844407,-0.33585915,-0.28758398,0.78585514

>  <Name>
1ntb_lig

>  <RI>
0

>  <Rbt.Current_Directory>
/home/itssahil/PROJECTS/Mol_Feturizer/New_Systems/rnas/1ntb

>  <Rbt.Executable>
rbdock ($Id: //depot/dev/client3/rdock/2013.1/src/exe/rbdock.cxx#4 $)

>  <Rbt.Library>
libRbt.so (2013.1, Build901 2013/11/27)

>  <Rbt.Parameter_File>
/export/apps/rDock/src/rDock_2013.1_src/data/scripts/dock_solv.prm

>  <Rbt.Receptor>
prm/pocket_docking_8.prm

>  <SCORE>
-20.2577

>  <SCORE.INTER>
-12.6002

>  <SCORE.INTER.CONST>
1

>  <SCORE.INTER.POLAR>
-1.81144

>  <SCORE.INTER.ROT>
11

>  <SCORE.INTER.SOLV>
25.1037

>  <SCORE.INTER.VDW>
-21.6632

>  <SCORE.INTER.norm>
-0.315006

>  <SCORE.INTRA>
-7.65749

>  <SCORE.INTRA.DIHEDRAL>
-0.0845375

>  <SCORE.INTRA.DIHEDRAL.0>
15.4453

>  <SCORE.INTRA.POLAR>
0

>  <SCORE.INTRA.POLAR.0>
0

>  <SCORE.INTRA.REPUL>
-0.570495

>  <SCORE.INTRA.REPUL.0>
0.823958

>  <SCORE.INTRA.SOLV>
1.43639

>  <SCORE.INTRA.SOLV.lig_0>
-99.3069

>  <SCORE.INTRA.VDW>
-5.48094

>  <SCORE.INTRA.VDW.0>
0.946495

>  <SCORE.INTRA.norm>
-0.191437

>  <SCORE.RESTR>
0

>  <SCORE.RESTR.CAVITY>
0

>  <SCORE.RESTR.norm>
0

>  <SCORE.SYSTEM>
0

>  <SCORE.SYSTEM.CONST>
0

>  <SCORE.SYSTEM.DIHEDRAL>
0

>  <SCORE.SYSTEM.SOLV>
0

>  <SCORE.SYSTEM.norm>
0

>  <SCORE.heavy>
40

>  <SCORE.norm>
-0.506443

>  <RMSD>
2.387

$$$$
1ntb_lig
 OpenBabel11021811403D
libRbt.so/2013.1/901 2013/11/27
 40 42  0  0  0  0  0  0  0  0999 V2000
   10.0127   33.2136   -0.8576 C   0  0  0  0  0  0  0  0  0  0  0  0
   10.7389   32.2761   -1.3309 N   0  0  0  0  0  0  0  0  0  0  0  0
   -0.1942   34.9813   -4.3464 C   0  0  0  0  0  0  0  0  0  0  0  0
   -1.1141   34.0960   -4.9632 O   0  0  0  0  0  0  0  0  0  0  0  0
    4.9916   36.7159    0.6306 C   0  0  0  0  0  0  0  0  0  0  0  0
    4.6514   37.7249   -0.0892 N   0  0  0  0  0  0  0  0  0  0  0  0
    0.7252   31.8968   -3.8768 C   0  0  0  0  0  0  0  0  0  0  0  0
    1.8765   39.2141   -3.4711 C   0  0  0  0  0  0  0  0  0  0  0  0
    7.7014   33.6430   -1.0551 C   0  0  2  0  0  0  0  0  0  0  0  0
    8.8228   32.8485   -0.4209 N   0  0  0  0  0  0  0  0  0  0  0  0
    2.6083   34.2562   -2.0760 C   0  0  2  0  0  0  0  0  0  0  0  0
    1.7253   36.6508   -0.7557 C   0  0  1  0  0  0  0  0  0  0  0  0
    0.8976   35.6862   -1.3790 O   0  0  0  0  0  0  0  0  0  0  0  0
    6.7578   34.1992    0.0057 C   0  0  1  0  0  0  0  0  0  0  0  0
    7.6284   35.0271    0.8935 O   0  0  0  0  0  0  0  0  0  0  0  0
    1.4777   35.1790   -2.4931 C   0  0  2  0  0  0  0  0  0  0  0  0
    1.4327   38.0026   -1.3604 C   0  0  1  0  0  0  0  0  0  0  0  0
    1.7265   37.9822   -2.7499 N   0  0  0  0  0  0  0  0  0  0  0  0
    5.5902   34.9848   -0.5878 C   0  0  2  0  0  0  0  0  0  0  0  0
    4.6644   35.5399    0.3777 N   0  0  0  0  0  0  0  0  0  0  0  0
    0.5480   34.2629   -3.2437 C   0  0  1  0  0  0  0  0  0  0  0  0
   -0.3819   33.6603   -2.3375 O   0  0  0  0  0  0  0  0  0  0  0  0
   -0.0427   38.2992   -1.1511 C   0  0  2  0  0  0  0  0  0  0  0  0
   -0.3736   39.5522   -1.7088 O   0  0  0  0  0  0  0  0  0  0  0  0
    4.8291   34.0647   -1.5067 C   0  0  1  0  0  0  0  0  0  0  0  0
    3.8629   34.9217   -2.1761 O   0  0  0  0  0  0  0  0  0  0  0  0
    1.4403   33.2215   -3.8109 C   0  0  1  0  0  0  0  0  0  0  0  0
    2.5753   33.1236   -2.9475 O   0  0  0  0  0  0  0  0  0  0  0  0
   -0.2860   38.3066    0.3582 C   0  0  1  0  0  0  0  0  0  0  0  0
   -1.6518   38.5724    0.6368 O   0  0  0  0  0  0  0  0  0  0  0  0
    5.7664   33.5301   -2.6229 C   0  0  2  0  0  0  0  0  0  0  0  0
    5.0272   32.6780   -3.4842 O   0  0  0  0  0  0  0  0  0  0  0  0
    0.1092   36.9449    0.9304 C   0  0  1  0  0  0  0  0  0  0  0  0
    1.4822   36.6790    0.6487 O   0  0  0  0  0  0  0  0  0  0  0  0
    6.9215   32.7351   -1.9843 C   0  0  1  0  0  0  0  0  0  0  0  0
    7.7963   32.2342   -3.0022 O   0  0  0  0  0  0  0  0  0  0  0  0
   -0.1035   36.9625    2.4444 C   0  0  0  0  0  0  0  0  0  0  0  0
    0.9508   37.6899    3.0542 O   0  0  0  0  0  0  0  0  0  0  0  0
   10.4008   34.4401   -0.8294 N   0  0  0  0  0  0  0  0  0  0  0  0
    5.7343   36.8895    1.6129 N   0  0  0  0  0  0  0  0  0  0  0  0
  1  2  1  0  0  0  0
  1 39  1  0  0  0  0
  3  4  1  0  0  0  0
  5  6  1  0  0  0  0
  5 40  1  0  0  0  0
  9 10  1  1  0  0  0
  9 14  1  0  0  0  0
  9 35  1  0  0  0  0
 10  1  1  0  0  0  0
 11 16  1  0  0  0  0
 11 28  1  0  0  0  0
 11 26  1  6  0  0  0
 12 17  1  0  0  0  0
 12 34  1  0  0  0  0
 12 13  1  6  0  0  0
 14 15  1  1  0  0  0
 14 19  1  0  0  0  0
 16 13  1  1  0  0  0
 16 21  1  0  0  0  0
 17 18  1  6  0  0  0
 17 23  1  0  0  0  0
 18  8  1  0  0  0  0
 19 20  1  1  0  0  0
 19 25  1  0  0  0  0
 20  5  1  0  0  0  0
 21  3  1  6  0  0  0
 21 22  1  0  0  0  0
 21 27  1  0  0  0  0
 23 24  1  1  0  0  0
 23 29  1  0  0  0  0
 25 26  1  6  0  0  0
 25 31  1  0  0  0  0
 27  7  1  1  0  0  0
 27 28  1  0  0  0  0
 29 30  1  6  0  0  0
 29 33  1  0  0  0  0
 31 32  1  6  0  0  0
 31 35  1  0  0  0  0
 33 34  1  0  0  0  0
 33 37  1  1  0  0  0
 35 36  1  6  0  0  0
 37 38  1  0  0  0  0
M  END
>  <CHROM.1>
-129.64128027,-125.65897833,168.68745868,88.12855479,72.85202401,-163.27792761
94.38660609,83.65403991,-176.33526585,-131.60729400,-76.39489579,3.37387513
35.32907214,-1.28608481,-0.27812163,-0.30486804,0.81244550

>  <Name>
1ntb_lig

>  <RI>
0

>  <Rbt.Current_Directory>
/home/itssahil/PROJECTS/Mol_Feturizer/New_Systems/rnas/1ntb

>  <Rbt.Executable>
rbdock ($Id: //depot/dev/client3/rdock/2013.1/src/exe/rbdock.cxx#4 $)

>  <Rbt.Library>
libRbt.so (2013.1, Build901 2013/11/27)

>  <Rbt.Parameter_File>
/export/apps/rDock/src/rDock_2013.1_src/data/scripts/dock_solv.prm

>  <Rbt.Receptor>
prm/pocket_docking_3.prm

>  <SCORE>
-21.1953

>  <SCORE.INTER>
-13.9193

>  <SCORE.INTER.CONST>
1

>  <SCORE.INTER.POLAR>
-2.33521

>  <SCORE.INTER.ROT>
11

>  <SCORE.INTER.SOLV>
25.9665

>  <SCORE.INTER.VDW>
-21.0843

>  <SCORE.INTER.norm>
-0.347981

>  <SCORE.INTRA>
-7.27606

>  <SCORE.INTRA.DIHEDRAL>
0.0420188

>  <SCORE.INTRA.DIHEDRAL.0>
15.4453

>  <SCORE.INTRA.POLAR>
0

>  <SCORE.INTRA.POLAR.0>
0

>  <SCORE.INTRA.REPUL>
-0.528897

>  <SCORE.INTRA.REPUL.0>
0.823958

>  <SCORE.INTRA.SOLV>
1.15084

>  <SCORE.INTRA.SOLV.lig_0>
-99.3069

>  <SCORE.INTRA.VDW>
-5.22801

>  <SCORE.INTRA.VDW.0>
0.946495

>  <SCORE.INTRA.norm>
-0.181902

>  <SCORE.RESTR>
0

>  <SCORE.RESTR.CAVITY>
0

>  <SCORE.RESTR.norm>
0

>  <SCORE.SYSTEM>
0

>  <SCORE.SYSTEM.CONST>
0

>  <SCORE.SYSTEM.DIHEDRAL>
0

>  <SCORE.SYSTEM.SOLV>
0

>  <SCORE.SYSTEM.norm>
0

>  <SCORE.heavy>
40

>  <SCORE.norm>
-0.529883

>  <RMSD>
2.403

$$$$
1ntb_lig
 OpenBabel11021811403D
libRbt.so/2013.1/901 2013/11/27
 40 42  0  0  0  0  0  0  0  0999 V2000
    9.9601   33.0763   -2.6955 C   0  0  0  0  0  0  0  0  0  0  0  0
   10.6963   34.0592   -2.3461 N   0  0  0  0  0  0  0  0  0  0  0  0
   -0.6453   35.1756   -0.3925 C   0  0  0  0  0  0  0  0  0  0  0  0
   -0.5981   34.9352   -1.7890 O   0  0  0  0  0  0  0  0  0  0  0  0
    5.8716   36.6326    0.6592 C   0  0  0  0  0  0  0  0  0  0  0  0
    5.1822   37.5751    0.1220 N   0  0  0  0  0  0  0  0  0  0  0  0
    0.6409   32.5812    1.0889 C   0  0  0  0  0  0  0  0  0  0  0  0
   -0.2608   37.9223    3.0642 C   0  0  0  0  0  0  0  0  0  0  0  0
    7.7689   33.5400   -1.9543 C   0  0  2  0  0  0  0  0  0  0  0  0
    9.0343   32.7195   -1.8261 N   0  0  0  0  0  0  0  0  0  0  0  0
    3.0108   34.7799   -0.2911 C   0  0  2  0  0  0  0  0  0  0  0  0
    1.0081   37.7690    0.1586 C   0  0  1  0  0  0  0  0  0  0  0  0
    2.0537   36.8259    0.3048 O   0  0  0  0  0  0  0  0  0  0  0  0
    7.3255   34.0765   -0.5976 C   0  0  1  0  0  0  0  0  0  0  0  0
    8.4889   34.8733   -0.1044 O   0  0  0  0  0  0  0  0  0  0  0  0
    1.8041   35.6945   -0.3970 C   0  0  2  0  0  0  0  0  0  0  0  0
    1.1469   38.8162    1.2369 C   0  0  1  0  0  0  0  0  0  0  0  0
    1.0344   38.2084    2.5157 N   0  0  0  0  0  0  0  0  0  0  0  0
    6.0333   34.8875   -0.6705 C   0  0  2  0  0  0  0  0  0  0  0  0
    5.5690   35.4251    0.5916 N   0  0  0  0  0  0  0  0  0  0  0  0
    0.7015   34.8790    0.2245 C   0  0  1  0  0  0  0  0  0  0  0  0
    0.6571   35.1121    1.6362 O   0  0  0  0  0  0  0  0  0  0  0  0
    2.5162   39.4585    1.0916 C   0  0  2  0  0  0  0  0  0  0  0  0
    2.7029   40.4423    2.0855 O   0  0  0  0  0  0  0  0  0  0  0  0
    4.9569   33.9983   -1.2370 C   0  0  1  0  0  0  0  0  0  0  0  0
    3.8216   34.8809   -1.4570 O   0  0  0  0  0  0  0  0  0  0  0  0
    1.0949   33.4723   -0.0381 C   0  0  1  0  0  0  0  0  0  0  0  0
    2.5204   33.4457   -0.1404 O   0  0  0  0  0  0  0  0  0  0  0  0
    2.5667   40.0903   -0.2997 C   0  0  1  0  0  0  0  0  0  0  0  0
    3.8252   40.7094   -0.5154 O   0  0  0  0  0  0  0  0  0  0  0  0
    5.3732   33.4850   -2.6418 C   0  0  2  0  0  0  0  0  0  0  0  0
    4.3407   32.6622   -3.1626 O   0  0  0  0  0  0  0  0  0  0  0  0
    2.3331   39.0012   -1.3472 C   0  0  1  0  0  0  0  0  0  0  0  0
    1.0679   38.3794   -1.1283 O   0  0  0  0  0  0  0  0  0  0  0  0
    6.6714   32.6636   -2.5228 C   0  0  1  0  0  0  0  0  0  0  0  0
    7.0692   32.1820   -3.8120 O   0  0  0  0  0  0  0  0  0  0  0  0
    2.3513   39.6379   -2.7371 C   0  0  0  0  0  0  0  0  0  0  0  0
    1.3045   40.5912   -2.8263 O   0  0  0  0  0  0  0  0  0  0  0  0
   10.1224   32.4542   -3.8101 N   0  0  0  0  0  0  0  0  0  0  0  0
    6.9351   36.9096    1.2413 N   0  0  0  0  0  0  0  0  0  0  0  0
  1  2  1  0  0  0  0
  1 39  1  0  0  0  0
  3  4  1  0  0  0  0
  5  6  1  0  0  0  0
  5 40  1  0  0  0  0
  9 10  1  1  0  0  0
  9 14  1  0  0  0  0
  9 35  1  0  0  0  0
 10  1  1  0  0  0  0
 11 16  1  0  0  0  0
 11 28  1  0  0  0  0
 11 26  1  6  0  0  0
 12 17  1  0  0  0  0
 12 34  1  0  0  0  0
 12 13  1  6  0  0  0
 14 15  1  6  0  0  0
 14 19  1  0  0  0  0
 16 13  1  1  0  0  0
 16 21  1  0  0  0  0
 17 18  1  1  0  0  0
 17 23  1  0  0  0  0
 18  8  1  0  0  0  0
 19 20  1  1  0  0  0
 19 25  1  0  0  0  0
 20  5  1  0  0  0  0
 21  3  1  6  0  0  0
 21 22  1  0  0  0  0
 21 27  1  0  0  0  0
 23 24  1  1  0  0  0
 23 29  1  0  0  0  0
 25 26  1  6  0  0  0
 25 31  1  0  0  0  0
 27  7  1  1  0  0  0
 27 28  1  0  0  0  0
 29 30  1  6  0  0  0
 29 33  1  0  0  0  0
 31 32  1  1  0  0  0
 31 35  1  0  0  0  0
 33 34  1  0  0  0  0
 33 37  1  6  0  0  0
 35 36  1  6  0  0  0
 37 38  1  0  0  0  0
M  END
>  <CHROM.1>
-130.31033046,84.60264171,178.56564728,164.44154489,175.29683102,-81.66311261
101.20652190,82.41994438,57.54688192,-94.30222254,-61.28115804,3.90258217
35.87277329,-0.62062374,-0.62484948,0.22365930,0.19416587

>  <Name>
1ntb_lig

>  <RI>
0

>  <Rbt.Current_Directory>
/home/itssahil/PROJECTS/Mol_Feturizer/New_Systems/rnas/1ntb

>  <Rbt.Executable>
rbdock ($Id: //depot/dev/client3/rdock/2013.1/src/exe/rbdock.cxx#4 $)

>  <Rbt.Library>
libRbt.so (2013.1, Build901 2013/11/27)

>  <Rbt.Parameter_File>
/export/apps/rDock/src/rDock_2013.1_src/data/scripts/dock_solv.prm

>  <Rbt.Receptor>
prm/pocket_docking_5.prm

>  <SCORE>
-23.5998

>  <SCORE.INTER>
-11.2773

>  <SCORE.INTER.CONST>
1

>  <SCORE.INTER.POLAR>
-2.40597

>  <SCORE.INTER.ROT>
11

>  <SCORE.INTER.SOLV>
25.8487

>  <SCORE.INTER.VDW>
-19.0479

>  <SCORE.INTER.norm>
-0.281933

>  <SCORE.INTRA>
-12.3225

>  <SCORE.INTRA.DIHEDRAL>
-5.90894

>  <SCORE.INTRA.DIHEDRAL.0>
15.4453

>  <SCORE.INTRA.POLAR>
0

>  <SCORE.INTRA.POLAR.0>
0

>  <SCORE.INTRA.REPUL>
-0.823958

>  <SCORE.INTRA.REPUL.0>
0.823958

>  <SCORE.INTRA.SOLV>
2.23566

>  <SCORE.INTRA.SOLV.lig_0>
-99.3069

>  <SCORE.INTRA.VDW>
-6.36604

>  <SCORE.INTRA.VDW.0>
0.946495

>  <SCORE.INTRA.norm>
-0.308062

>  <SCORE.RESTR>
0

>  <SCORE.RESTR.CAVITY>
0

>  <SCORE.RESTR.norm>
0

>  <SCORE.SYSTEM>
0

>  <SCORE.SYSTEM.CONST>
0

>  <SCORE.SYSTEM.DIHEDRAL>
0

>  <SCORE.SYSTEM.SOLV>
0

>  <SCORE.SYSTEM.norm>
0

>  <SCORE.heavy>
40

>  <SCORE.norm>
-0.589995

>  <RMSD>
2.454

$$$$
1ntb_lig
 OpenBabel11021811403D
libRbt.so/2013.1/901 2013/11/27
 40 42  0  0  0  0  0  0  0  0999 V2000
    9.2914   32.6162   -1.3659 C   0  0  0  0  0  0  0  0  0  0  0  0
   10.2283   33.3378   -0.8846 N   0  0  0  0  0  0  0  0  0  0  0  0
   -0.0217   34.0516   -4.8084 C   0  0  0  0  0  0  0  0  0  0  0  0
   -0.9850   33.0566   -5.1122 O   0  0  0  0  0  0  0  0  0  0  0  0
    4.9600   36.5250    1.1210 C   0  0  0  0  0  0  0  0  0  0  0  0
    5.5614   36.5145    2.2569 N   0  0  0  0  0  0  0  0  0  0  0  0
    0.4734   31.5952   -2.7345 C   0  0  0  0  0  0  0  0  0  0  0  0
    1.0935   39.1764   -4.3345 C   0  0  0  0  0  0  0  0  0  0  0  0
    7.1115   33.4887   -1.1364 C   0  0  2  0  0  0  0  0  0  0  0  0
    8.1914   32.5511   -0.6407 N   0  0  0  0  0  0  0  0  0  0  0  0
    2.0526   34.5993   -1.8198 C   0  0  2  0  0  0  0  0  0  0  0  0
    1.1156   37.2187   -1.8756 C   0  0  1  0  0  0  0  0  0  0  0  0
    0.3569   36.1186   -2.3429 O   0  0  0  0  0  0  0  0  0  0  0  0
    6.2966   34.0468    0.0253 C   0  0  1  0  0  0  0  0  0  0  0  0
    7.2984   34.7240    0.9026 O   0  0  0  0  0  0  0  0  0  0  0  0
    1.1480   35.1690   -2.8973 C   0  0  2  0  0  0  0  0  0  0  0  0
    0.3183   38.4823   -2.0902 C   0  0  1  0  0  0  0  0  0  0  0  0
    0.0646   38.6619   -3.4761 N   0  0  0  0  0  0  0  0  0  0  0  0
    5.1727   34.9767   -0.4272 C   0  0  2  0  0  0  0  0  0  0  0  0
    4.3692   35.5391    0.6384 N   0  0  0  0  0  0  0  0  0  0  0  0
    0.3561   33.9703   -3.3478 C   0  0  1  0  0  0  0  0  0  0  0  0
   -0.8197   33.8305   -2.5433 O   0  0  0  0  0  0  0  0  0  0  0  0
   -0.9959   38.3391   -1.3413 C   0  0  2  0  0  0  0  0  0  0  0  0
   -1.7875   39.4937   -1.5173 O   0  0  0  0  0  0  0  0  0  0  0  0
    4.2690   34.2003   -1.3495 C   0  0  1  0  0  0  0  0  0  0  0  0
    3.3469   35.1886   -1.8871 O   0  0  0  0  0  0  0  0  0  0  0  0
    1.2648   32.8214   -3.1093 C   0  0  1  0  0  0  0  0  0  0  0  0
    2.1363   33.1890   -2.0376 O   0  0  0  0  0  0  0  0  0  0  0  0
   -0.6489   38.1509    0.1357 C   0  0  1  0  0  0  0  0  0  0  0  0
   -1.8316   38.0028    0.9057 O   0  0  0  0  0  0  0  0  0  0  0  0
    5.0760   33.6684   -2.5644 C   0  0  2  0  0  0  0  0  0  0  0  0
    4.2043   32.9533   -3.4264 O   0  0  0  0  0  0  0  0  0  0  0  0
    0.2306   36.9090    0.2837 C   0  0  1  0  0  0  0  0  0  0  0  0
    1.4187   37.0593   -0.4917 O   0  0  0  0  0  0  0  0  0  0  0  0
    6.1896   32.7269   -2.0668 C   0  0  1  0  0  0  0  0  0  0  0  0
    6.9442   32.2268   -3.1771 O   0  0  0  0  0  0  0  0  0  0  0  0
    0.6046   36.7387    1.7563 C   0  0  0  0  0  0  0  0  0  0  0  0
    1.2335   35.4797    1.9344 O   0  0  0  0  0  0  0  0  0  0  0  0
    9.4155   31.9718   -2.4727 N   0  0  0  0  0  0  0  0  0  0  0  0
    4.9047   37.5828    0.4693 N   0  0  0  0  0  0  0  0  0  0  0  0
  1  2  1  0  0  0  0
  1 39  1  0  0  0  0
  3  4  1  0  0  0  0
  5  6  1  0  0  0  0
  5 40  1  0  0  0  0
  9 10  1  1  0  0  0
  9 14  1  0  0  0  0
  9 35  1  0  0  0  0
 10  1  1  0  0  0  0
 11 16  1  0  0  0  0
 11 28  1  0  0  0  0
 11 26  1  6  0  0  0
 12 17  1  0  0  0  0
 12 34  1  0  0  0  0
 12 13  1  1  0  0  0
 14 15  1  1  0  0  0
 14 19  1  0  0  0  0
 16 13  1  1  0  0  0
 16 21  1  0  0  0  0
 17 18  1  6  0  0  0
 17 23  1  0  0  0  0
 18  8  1  0  0  0  0
 19 20  1  1  0  0  0
 19 25  1  0  0  0  0
 20  5  1  0  0  0  0
 21  3  1  6  0  0  0
 21 22  1  0  0  0  0
 21 27  1  0  0  0  0
 23 24  1  1  0  0  0
 23 29  1  0  0  0  0
 25 26  1  6  0  0  0
 25 31  1  0  0  0  0
 27  7  1  1  0  0  0
 27 28  1  0  0  0  0
 29 30  1  1  0  0  0
 29 33  1  0  0  0  0
 31 32  1  6  0  0  0
 31 35  1  0  0  0  0
 33 34  1  0  0  0  0
 33 37  1  1  0  0  0
 35 36  1  6  0  0  0
 37 38  1  0  0  0  0
M  END
>  <CHROM.1>
-145.31151103,99.03308097,-152.48001829,144.73898722,64.47627703,-78.43349118
81.76220554,-105.08735339,-168.01604235,-135.16086067,170.62437521,2.93221751
35.17414491,-1.43213950,0.26375890,0.36279122,-2.36731021

>  <Name>
1ntb_lig

>  <RI>
0

>  <Rbt.Current_Directory>
/home/itssahil/PROJECTS/Mol_Feturizer/New_Systems/rnas/1ntb

>  <Rbt.Executable>
rbdock ($Id: //depot/dev/client3/rdock/2013.1/src/exe/rbdock.cxx#4 $)

>  <Rbt.Library>
libRbt.so (2013.1, Build901 2013/11/27)

>  <Rbt.Parameter_File>
/export/apps/rDock/src/rDock_2013.1_src/data/scripts/dock_solv.prm

>  <Rbt.Receptor>
prm/pocket_docking_2.prm

>  <SCORE>
-7.60292

>  <SCORE.INTER>
-4.30716

>  <SCORE.INTER.CONST>
1

>  <SCORE.INTER.POLAR>
-0.2874

>  <SCORE.INTER.ROT>
11

>  <SCORE.INTER.SOLV>
23.4352

>  <SCORE.INTER.VDW>
-20.6585

>  <SCORE.INTER.norm>
-0.107679

>  <SCORE.INTRA>
-6.0062

>  <SCORE.INTRA.DIHEDRAL>
1.9239

>  <SCORE.INTRA.DIHEDRAL.0>
15.4453

>  <SCORE.INTRA.POLAR>
0

>  <SCORE.INTRA.POLAR.0>
0

>  <SCORE.INTRA.REPUL>
-0.799801

>  <SCORE.INTRA.REPUL.0>
0.823958

>  <SCORE.INTRA.SOLV>
-1.05011

>  <SCORE.INTRA.SOLV.lig_0>
-99.3069

>  <SCORE.INTRA.VDW>
-2.44409

>  <SCORE.INTRA.VDW.0>
0.946495

>  <SCORE.INTRA.norm>
-0.150155

>  <SCORE.RESTR>
2.71044

>  <SCORE.RESTR.CAVITY>
2.71044

>  <SCORE.RESTR.norm>
0.0677611

>  <SCORE.SYSTEM>
0

>  <SCORE.SYSTEM.CONST>
0

>  <SCORE.SYSTEM.DIHEDRAL>
0

>  <SCORE.SYSTEM.SOLV>
0

>  <SCORE.SYSTEM.norm>
0

>  <SCORE.heavy>
40

>  <SCORE.norm>
-0.190073

>  <RMSD>
2.459

$$$$
1ntb_lig
 OpenBabel11021811403D
libRbt.so/2013.1/901 2013/11/27
 40 42  0  0  0  0  0  0  0  0999 V2000
    9.9800   32.7572   -0.8647 C   0  0  0  0  0  0  0  0  0  0  0  0
   10.0358   32.8116   -2.1391 N   0  0  0  0  0  0  0  0  0  0  0  0
   -0.1384   35.2290   -4.2973 C   0  0  0  0  0  0  0  0  0  0  0  0
   -1.0769   34.4020   -4.9647 O   0  0  0  0  0  0  0  0  0  0  0  0
    5.1139   36.6638    0.4796 C   0  0  0  0  0  0  0  0  0  0  0  0
    4.7910   37.6394   -0.2925 N   0  0  0  0  0  0  0  0  0  0  0  0
    0.5786   32.0773   -3.9336 C   0  0  0  0  0  0  0  0  0  0  0  0
    1.7711   39.1291   -3.8133 C   0  0  0  0  0  0  0  0  0  0  0  0
    7.7129   33.3887   -1.0305 C   0  0  2  0  0  0  0  0  0  0  0  0
    8.7804   32.5555   -0.3542 N   0  0  0  0  0  0  0  0  0  0  0  0
    2.6717   34.2526   -2.1329 C   0  0  2  0  0  0  0  0  0  0  0  0
    1.8775   36.8431   -0.8592 C   0  0  1  0  0  0  0  0  0  0  0  0
    1.0849   35.7768   -1.3481 O   0  0  0  0  0  0  0  0  0  0  0  0
    6.7832   34.0246   -0.0028 C   0  0  1  0  0  0  0  0  0  0  0  0
    7.6821   34.8316    0.8762 O   0  0  0  0  0  0  0  0  0  0  0  0
    1.5961   35.2616   -2.4918 C   0  0  2  0  0  0  0  0  0  0  0  0
    1.4808   38.1098   -1.5780 C   0  0  1  0  0  0  0  0  0  0  0  0
    1.7200   37.9681   -2.9708 N   0  0  0  0  0  0  0  0  0  0  0  0
    5.6685   34.8525   -0.6389 C   0  0  2  0  0  0  0  0  0  0  0  0
    4.7580   35.4836    0.2940 N   0  0  0  0  0  0  0  0  0  0  0  0
    0.5839   34.4319   -3.2363 C   0  0  1  0  0  0  0  0  0  0  0  0
   -0.3589   33.8700   -2.3173 O   0  0  0  0  0  0  0  0  0  0  0  0
   -0.0003   38.3431   -1.3318 C   0  0  2  0  0  0  0  0  0  0  0  0
   -0.4273   39.5143   -1.9924 O   0  0  0  0  0  0  0  0  0  0  0  0
    4.8746   33.9468   -1.5443 C   0  0  1  0  0  0  0  0  0  0  0  0
    3.9659   34.8332   -2.2547 O   0  0  0  0  0  0  0  0  0  0  0  0
    1.3852   33.3476   -3.8565 C   0  0  1  0  0  0  0  0  0  0  0  0
    2.5352   33.1489   -3.0311 O   0  0  0  0  0  0  0  0  0  0  0  0
   -0.1836   38.4867    0.1792 C   0  0  1  0  0  0  0  0  0  0  0  0
   -1.5508   38.7024    0.4924 O   0  0  0  0  0  0  0  0  0  0  0  0
    5.8000   33.3311   -2.6281 C   0  0  2  0  0  0  0  0  0  0  0  0
    5.0307   32.4940   -3.4776 O   0  0  0  0  0  0  0  0  0  0  0  0
    0.3147   37.2126    0.8620 C   0  0  1  0  0  0  0  0  0  0  0  0
    1.6889   36.9969    0.5455 O   0  0  0  0  0  0  0  0  0  0  0  0
    6.9012   32.4959   -1.9469 C   0  0  1  0  0  0  0  0  0  0  0  0
    7.7644   31.9200   -2.9345 O   0  0  0  0  0  0  0  0  0  0  0  0
    0.1615   37.3684    2.3752 C   0  0  0  0  0  0  0  0  0  0  0  0
   -1.2169   37.3391    2.7092 O   0  0  0  0  0  0  0  0  0  0  0  0
   11.0183   32.9136   -0.1209 N   0  0  0  0  0  0  0  0  0  0  0  0
    5.8680   36.8739    1.4460 N   0  0  0  0  0  0  0  0  0  0  0  0
  1  2  1  0  0  0  0
  1 39  1  0  0  0  0
  3  4  1  0  0  0  0
  5  6  1  0  0  0  0
  5 40  1  0  0  0  0
  9 10  1  1  0  0  0
  9 14  1  0  0  0  0
  9 35  1  0  0  0  0
 10  1  1  0  0  0  0
 11 16  1  0  0  0  0
 11 28  1  0  0  0  0
 11 26  1  6  0  0  0
 12 17  1  0  0  0  0
 12 34  1  0  0  0  0
 12 13  1  6  0  0  0
 14 15  1  1  0  0  0
 14 19  1  0  0  0  0
 16 13  1  1  0  0  0
 16 21  1  0  0  0  0
 17 18  1  6  0  0  0
 17 23  1  0  0  0  0
 18  8  1  0  0  0  0
 19 20  1  1  0  0  0
 19 25  1  0  0  0  0
 20  5  1  0  0  0  0
 21  3  1  6  0  0  0
 21 22  1  0  0  0  0
 21 27  1  0  0  0  0
 23 24  1  6  0  0  0
 23 29  1  0  0  0  0
 25 26  1  6  0  0  0
 25 31  1  0  0  0  0
 27  7  1  1  0  0  0
 27 28  1  0  0  0  0
 29 30  1  6  0  0  0
 29 33  1  0  0  0  0
 31 32  1  6  0  0  0
 31 35  1  0  0  0  0
 33 34  1  0  0  0  0
 33 37  1  1  0  0  0
 35 36  1  6  0  0  0
 37 38  1  0  0  0  0
M  END
>  <CHROM.1>
-135.40755523,-43.40097315,164.27286147,83.40119228,83.79046556,-163.10022213
96.88694593,84.02293636,-179.97617867,-130.37707781,70.32835680,3.35875197
35.29843521,-1.36466817,-0.29718848,-0.34470676,0.83197266

>  <Name>
1ntb_lig

>  <RI>
0

>  <Rbt.Current_Directory>
/home/itssahil/PROJECTS/Mol_Feturizer/New_Systems/rnas/1ntb

>  <Rbt.Executable>
rbdock ($Id: //depot/dev/client3/rdock/2013.1/src/exe/rbdock.cxx#4 $)

>  <Rbt.Library>
libRbt.so (2013.1, Build901 2013/11/27)

>  <Rbt.Parameter_File>
/export/apps/rDock/src/rDock_2013.1_src/data/scripts/dock_solv.prm

>  <Rbt.Receptor>
prm/pocket_docking_3.prm

>  <SCORE>
-17.4371

>  <SCORE.INTER>
-11.0763

>  <SCORE.INTER.CONST>
1

>  <SCORE.INTER.POLAR>
-1.34674

>  <SCORE.INTER.ROT>
11

>  <SCORE.INTER.SOLV>
25.1489

>  <SCORE.INTER.VDW>
-22.2114

>  <SCORE.INTER.norm>
-0.276907

>  <SCORE.INTRA>
-6.36081

>  <SCORE.INTRA.DIHEDRAL>
1.07814

>  <SCORE.INTRA.DIHEDRAL.0>
15.4453

>  <SCORE.INTRA.POLAR>
0

>  <SCORE.INTRA.POLAR.0>
0

>  <SCORE.INTRA.REPUL>
-0.640506

>  <SCORE.INTRA.REPUL.0>
0.823958

>  <SCORE.INTRA.SOLV>
1.32608

>  <SCORE.INTRA.SOLV.lig_0>
-99.3069

>  <SCORE.INTRA.VDW>
-4.3604

>  <SCORE.INTRA.VDW.0>
0.946495

>  <SCORE.INTRA.norm>
-0.15902

>  <SCORE.RESTR>
0

>  <SCORE.RESTR.CAVITY>
0

>  <SCORE.RESTR.norm>
0

>  <SCORE.SYSTEM>
0

>  <SCORE.SYSTEM.CONST>
0

>  <SCORE.SYSTEM.DIHEDRAL>
0

>  <SCORE.SYSTEM.SOLV>
0

>  <SCORE.SYSTEM.norm>
0

>  <SCORE.heavy>
40

>  <SCORE.norm>
-0.435927

>  <RMSD>
2.465

$$$$
1ntb_lig
 OpenBabel11021811403D
libRbt.so/2013.1/901 2013/11/27
 40 42  0  0  0  0  0  0  0  0999 V2000
    9.5965   33.4927   -1.3922 C   0  0  0  0  0  0  0  0  0  0  0  0
   10.1973   34.5634   -1.0418 N   0  0  0  0  0  0  0  0  0  0  0  0
   -1.1407   34.2872   -3.7596 C   0  0  0  0  0  0  0  0  0  0  0  0
   -2.2806   34.0220   -2.9592 O   0  0  0  0  0  0  0  0  0  0  0  0
    3.8669   36.4589    0.1093 C   0  0  0  0  0  0  0  0  0  0  0  0
    4.4425   37.2793    0.9142 N   0  0  0  0  0  0  0  0  0  0  0  0
    0.5421   31.9333   -5.2455 C   0  0  0  0  0  0  0  0  0  0  0  0
   -2.7010   31.4369   -0.5668 C   0  0  0  0  0  0  0  0  0  0  0  0
    7.2578   33.7957   -1.3227 C   0  0  2  0  0  0  0  0  0  0  0  0
    8.5067   33.2002   -0.7089 N   0  0  0  0  0  0  0  0  0  0  0  0
    2.2339   33.4451   -2.5607 C   0  0  2  0  0  0  0  0  0  0  0  0
   -0.8156   34.1065   -0.7106 C   0  0  1  0  0  0  0  0  0  0  0  0
    0.4772   33.6271   -1.0318 O   0  0  0  0  0  0  0  0  0  0  0  0
    6.2665   34.2181   -0.2439 C   0  0  1  0  0  0  0  0  0  0  0  0
    7.0188   35.1903    0.6050 O   0  0  0  0  0  0  0  0  0  0  0  0
    0.8559   34.0129   -2.2738 C   0  0  2  0  0  0  0  0  0  0  0  0
   -1.3726   33.2757    0.4199 C   0  0  1  0  0  0  0  0  0  0  0  0
   -1.4798   31.9191    0.0130 N   0  0  0  0  0  0  0  0  0  0  0  0
    4.9746   34.7985   -0.8156 C   0  0  2  0  0  0  0  0  0  0  0  0
    3.9985   35.2207    0.1675 N   0  0  0  0  0  0  0  0  0  0  0  0
   -0.0008   33.3875   -3.3425 C   0  0  1  0  0  0  0  0  0  0  0  0
   -0.5096   32.1293   -2.8873 O   0  0  0  0  0  0  0  0  0  0  0  0
   -0.4171   33.3857    1.5962 C   0  0  2  0  0  0  0  0  0  0  0  0
   -0.8870   32.6166    2.6816 O   0  0  0  0  0  0  0  0  0  0  0  0
    4.3442   33.7519   -1.6972 C   0  0  1  0  0  0  0  0  0  0  0  0
    3.2377   34.4328   -2.3517 O   0  0  0  0  0  0  0  0  0  0  0  0
    0.9310   33.1695   -4.4767 C   0  0  1  0  0  0  0  0  0  0  0  0
    2.2392   33.0111   -3.9227 O   0  0  0  0  0  0  0  0  0  0  0  0
   -0.3510   34.8642    1.9797 C   0  0  1  0  0  0  0  0  0  0  0  0
    0.5322   35.0511    3.0746 O   0  0  0  0  0  0  0  0  0  0  0  0
    5.3244   33.3486   -2.8317 C   0  0  2  0  0  0  0  0  0  0  0  0
    4.7064   32.3738   -3.6575 O   0  0  0  0  0  0  0  0  0  0  0  0
    0.1345   35.6679    0.7730 C   0  0  1  0  0  0  0  0  0  0  0  0
   -0.7540   35.4781   -0.3269 O   0  0  0  0  0  0  0  0  0  0  0  0
    6.6067   32.7580   -2.2144 C   0  0  1  0  0  0  0  0  0  0  0  0
    7.5225   32.3803   -3.2493 O   0  0  0  0  0  0  0  0  0  0  0  0
    0.1700   37.1502    1.1460 C   0  0  0  0  0  0  0  0  0  0  0  0
    0.5298   37.9095    0.0031 O   0  0  0  0  0  0  0  0  0  0  0  0
   10.0346   32.7313   -2.3325 N   0  0  0  0  0  0  0  0  0  0  0  0
    3.0864   36.8972   -0.7541 N   0  0  0  0  0  0  0  0  0  0  0  0
  1  2  1  0  0  0  0
  1 39  1  0  0  0  0
  3  4  1  0  0  0  0
  5  6  1  0  0  0  0
  5 40  1  0  0  0  0
  9 10  1  1  0  0  0
  9 14  1  0  0  0  0
  9 35  1  0  0  0  0
 10  1  1  0  0  0  0
 11 16  1  0  0  0  0
 11 28  1  0  0  0  0
 11 26  1  6  0  0  0
 12 17  1  0  0  0  0
 12 34  1  0  0  0  0
 12 13  1  1  0  0  0
 14 15  1  1  0  0  0
 14 19  1  0  0  0  0
 16 13  1  1  0  0  0
 16 21  1  0  0  0  0
 17 18  1  6  0  0  0
 17 23  1  0  0  0  0
 18  8  1  0  0  0  0
 19 20  1  1  0  0  0
 19 25  1  0  0  0  0
 20  5  1  0  0  0  0
 21  3  1  6  0  0  0
 21 22  1  0  0  0  0
 21 27  1  0  0  0  0
 23 24  1  1  0  0  0
 23 29  1  0  0  0  0
 25 26  1  6  0  0  0
 25 31  1  0  0  0  0
 27  7  1  1  0  0  0
 27 28  1  0  0  0  0
 29 30  1  1  0  0  0
 29 33  1  0  0  0  0
 31 32  1  6  0  0  0
 31 35  1  0  0  0  0
 33 34  1  0  0  0  0
 33 37  1  1  0  0  0
 35 36  1  6  0  0  0
 37 38  1  0  0  0  0
M  END
>  <CHROM.1>
-144.81828780,90.23350837,139.41402584,160.18886803,-178.96116683,-91.87202131
113.74126041,-99.24434162,-90.40907596,-148.49111716,-175.96960259,2.62121762
34.06217589,-1.13436017,-0.09510224,0.05036003,1.00745966

>  <Name>
1ntb_lig

>  <RI>
0

>  <Rbt.Current_Directory>
/home/itssahil/PROJECTS/Mol_Feturizer/New_Systems/rnas/1ntb

>  <Rbt.Executable>
rbdock ($Id: //depot/dev/client3/rdock/2013.1/src/exe/rbdock.cxx#4 $)

>  <Rbt.Library>
libRbt.so (2013.1, Build901 2013/11/27)

>  <Rbt.Parameter_File>
/export/apps/rDock/src/rDock_2013.1_src/data/scripts/dock_solv.prm

>  <Rbt.Receptor>
prm/pocket_docking_4.prm

>  <SCORE>
-15.0934

>  <SCORE.INTER>
-6.54345

>  <SCORE.INTER.CONST>
1

>  <SCORE.INTER.POLAR>
-1.27519

>  <SCORE.INTER.ROT>
11

>  <SCORE.INTER.SOLV>
22.4374

>  <SCORE.INTER.VDW>
-18.5241

>  <SCORE.INTER.norm>
-0.163586

>  <SCORE.INTRA>
-8.55099

>  <SCORE.INTRA.DIHEDRAL>
1.87326

>  <SCORE.INTRA.DIHEDRAL.0>
15.4453

>  <SCORE.INTRA.POLAR>
0

>  <SCORE.INTRA.POLAR.0>
0

>  <SCORE.INTRA.REPUL>
-0.823958

>  <SCORE.INTRA.REPUL.0>
0.823958

>  <SCORE.INTRA.SOLV>
2.05173

>  <SCORE.INTRA.SOLV.lig_0>
-99.3069

>  <SCORE.INTRA.VDW>
-6.3937

>  <SCORE.INTRA.VDW.0>
0.946495

>  <SCORE.INTRA.norm>
-0.213775

>  <SCORE.RESTR>
0.0010127

>  <SCORE.RESTR.CAVITY>
0.0010127

>  <SCORE.RESTR.norm>
2.53174e-05

>  <SCORE.SYSTEM>
0

>  <SCORE.SYSTEM.CONST>
0

>  <SCORE.SYSTEM.DIHEDRAL>
0

>  <SCORE.SYSTEM.SOLV>
0

>  <SCORE.SYSTEM.norm>
0

>  <SCORE.heavy>
40

>  <SCORE.norm>
-0.377336

>  <RMSD>
2.481

$$$$
1ntb_lig
 OpenBabel11021811403D
libRbt.so/2013.1/901 2013/11/27
 40 42  0  0  0  0  0  0  0  0999 V2000
   10.0122   33.0339   -2.6579 C   0  0  0  0  0  0  0  0  0  0  0  0
   10.6604   34.0676   -2.2820 N   0  0  0  0  0  0  0  0  0  0  0  0
   -0.6001   35.3454   -0.5090 C   0  0  0  0  0  0  0  0  0  0  0  0
   -0.5728   35.0850   -1.9025 O   0  0  0  0  0  0  0  0  0  0  0  0
    5.9639   36.5129    0.6598 C   0  0  0  0  0  0  0  0  0  0  0  0
    5.4116   37.5541    0.1470 N   0  0  0  0  0  0  0  0  0  0  0  0
    0.5906   32.7216    1.0002 C   0  0  0  0  0  0  0  0  0  0  0  0
   -0.0153   38.3729    3.2478 C   0  0  0  0  0  0  0  0  0  0  0  0
    7.7894   33.4796   -2.0050 C   0  0  2  0  0  0  0  0  0  0  0  0
    9.0425   32.6444   -1.8527 N   0  0  0  0  0  0  0  0  0  0  0  0
    3.0376   34.8024   -0.4274 C   0  0  2  0  0  0  0  0  0  0  0  0
    1.1326   37.8528    0.0458 C   0  0  1  0  0  0  0  0  0  0  0  0
    2.1691   36.8938    0.1459 O   0  0  0  0  0  0  0  0  0  0  0  0
    7.3131   34.0019   -0.6539 C   0  0  1  0  0  0  0  0  0  0  0  0
    8.4700   34.7799   -0.1171 O   0  0  0  0  0  0  0  0  0  0  0  0
    1.8684   35.7639   -0.5379 C   0  0  2  0  0  0  0  0  0  0  0  0
    1.2696   38.8340    1.1847 C   0  0  1  0  0  0  0  0  0  0  0  0
    1.1399   38.1535    2.4246 N   0  0  0  0  0  0  0  0  0  0  0  0
    6.0316   34.8270   -0.7518 C   0  0  2  0  0  0  0  0  0  0  0  0
    5.5371   35.3521    0.5042 N   0  0  0  0  0  0  0  0  0  0  0  0
    0.7382   35.0027    0.1028 C   0  0  1  0  0  0  0  0  0  0  0  0
    0.7140   35.2571    1.5112 O   0  0  0  0  0  0  0  0  0  0  0  0
    2.6453   39.4718    1.0897 C   0  0  2  0  0  0  0  0  0  0  0  0
    2.8304   40.3942    2.1411 O   0  0  0  0  0  0  0  0  0  0  0  0
    4.9629   33.9568   -1.3608 C   0  0  1  0  0  0  0  0  0  0  0  0
    3.8431   34.8540   -1.6002 O   0  0  0  0  0  0  0  0  0  0  0  0
    1.0721   33.5777   -0.1425 C   0  0  1  0  0  0  0  0  0  0  0  0
    2.4945   33.4915   -0.2543 O   0  0  0  0  0  0  0  0  0  0  0  0
    2.7142   40.1834   -0.2617 C   0  0  1  0  0  0  0  0  0  0  0  0
    3.9796   40.8032   -0.4294 O   0  0  0  0  0  0  0  0  0  0  0  0
    5.4137   33.4585   -2.7603 C   0  0  2  0  0  0  0  0  0  0  0  0
    4.3883   32.6536   -3.3214 O   0  0  0  0  0  0  0  0  0  0  0  0
    2.4818   39.1595   -1.3732 C   0  0  1  0  0  0  0  0  0  0  0  0
    1.2096   38.5369   -1.2026 O   0  0  0  0  0  0  0  0  0  0  0  0
    6.6998   32.6223   -2.6163 C   0  0  1  0  0  0  0  0  0  0  0  0
    7.1292   32.1543   -3.9004 O   0  0  0  0  0  0  0  0  0  0  0  0
    2.5184   39.8762   -2.7233 C   0  0  0  0  0  0  0  0  0  0  0  0
    3.8412   40.3205   -2.9789 O   0  0  0  0  0  0  0  0  0  0  0  0
   10.2980   32.3946   -3.7374 N   0  0  0  0  0  0  0  0  0  0  0  0
    7.0167   36.6380    1.3101 N   0  0  0  0  0  0  0  0  0  0  0  0
  1  2  1  0  0  0  0
  1 39  1  0  0  0  0
  3  4  1  0  0  0  0
  5  6  1  0  0  0  0
  5 40  1  0  0  0  0
  9 10  1  1  0  0  0
  9 14  1  0  0  0  0
  9 35  1  0  0  0  0
 10  1  1  0  0  0  0
 11 16  1  0  0  0  0
 11 28  1  0  0  0  0
 11 26  1  6  0  0  0
 12 17  1  0  0  0  0
 12 34  1  0  0  0  0
 12 13  1  6  0  0  0
 14 15  1  6  0  0  0
 14 19  1  0  0  0  0
 16 13  1  1  0  0  0
 16 21  1  0  0  0  0
 17 18  1  1  0  0  0
 17 23  1  0  0  0  0
 18  8  1  0  0  0  0
 19 20  1  1  0  0  0
 19 25  1  0  0  0  0
 20  5  1  0  0  0  0
 21  3  1  6  0  0  0
 21 22  1  0  0  0  0
 21 27  1  0  0  0  0
 23 24  1  1  0  0  0
 23 29  1  0  0  0  0
 25 26  1  6  0  0  0
 25 31  1  0  0  0  0
 27  7  1  1  0  0  0
 27 28  1  0  0  0  0
 29 30  1  6  0  0  0
 29 33  1  0  0  0  0
 31 32  1  1  0  0  0
 31 35  1  0  0  0  0
 33 34  1  0  0  0  0
 33 37  1  6  0  0  0
 35 36  1  6  0  0  0
 37 38  1  0  0  0  0
M  END
>  <CHROM.1>
-128.07683150,78.70722574,177.03690864,159.55526825,178.09403683,-110.81007218
94.52766119,83.48282003,57.49514908,-91.11673327,68.53873387,4.04026205,35.89502292
-0.67413436,-0.64625021,0.23110147,0.21589421

>  <Name>
1ntb_lig

>  <RI>
0

>  <Rbt.Current_Directory>
/home/itssahil/PROJECTS/Mol_Feturizer/New_Systems/rnas/1ntb

>  <Rbt.Executable>
rbdock ($Id: //depot/dev/client3/rdock/2013.1/src/exe/rbdock.cxx#4 $)

>  <Rbt.Library>
libRbt.so (2013.1, Build901 2013/11/27)

>  <Rbt.Parameter_File>
/export/apps/rDock/src/rDock_2013.1_src/data/scripts/dock_solv.prm

>  <Rbt.Receptor>
prm/pocket_docking_5.prm

>  <SCORE>
-23.4263

>  <SCORE.INTER>
-12.0358

>  <SCORE.INTER.CONST>
1

>  <SCORE.INTER.POLAR>
-2.39267

>  <SCORE.INTER.ROT>
11

>  <SCORE.INTER.SOLV>
27.2145

>  <SCORE.INTER.VDW>
-20.0531

>  <SCORE.INTER.norm>
-0.300895

>  <SCORE.INTRA>
-11.3905

>  <SCORE.INTRA.DIHEDRAL>
-4.88318

>  <SCORE.INTRA.DIHEDRAL.0>
15.4453

>  <SCORE.INTRA.POLAR>
0

>  <SCORE.INTRA.POLAR.0>
0

>  <SCORE.INTRA.REPUL>
-0.823958

>  <SCORE.INTRA.REPUL.0>
0.823958

>  <SCORE.INTRA.SOLV>
1.83662

>  <SCORE.INTRA.SOLV.lig_0>
-99.3069

>  <SCORE.INTRA.VDW>
-5.74746

>  <SCORE.INTRA.VDW.0>
0.946495

>  <SCORE.INTRA.norm>
-0.284763

>  <SCORE.RESTR>
0

>  <SCORE.RESTR.CAVITY>
0

>  <SCORE.RESTR.norm>
0

>  <SCORE.SYSTEM>
0

>  <SCORE.SYSTEM.CONST>
0

>  <SCORE.SYSTEM.DIHEDRAL>
0

>  <SCORE.SYSTEM.SOLV>
0

>  <SCORE.SYSTEM.norm>
0

>  <SCORE.heavy>
40

>  <SCORE.norm>
-0.585658

>  <RMSD>
2.493

$$$$
1ntb_lig
 OpenBabel11021811403D
libRbt.so/2013.1/901 2013/11/27
 40 42  0  0  0  0  0  0  0  0999 V2000
    9.4545   32.7990   -1.0148 C   0  0  0  0  0  0  0  0  0  0  0  0
   10.1006   31.8274   -1.5333 N   0  0  0  0  0  0  0  0  0  0  0  0
   -0.3126   35.2426   -5.0737 C   0  0  0  0  0  0  0  0  0  0  0  0
   -1.3513   34.4623   -5.6418 O   0  0  0  0  0  0  0  0  0  0  0  0
    4.7252   36.5799    0.4837 C   0  0  0  0  0  0  0  0  0  0  0  0
    5.4219   36.6878    1.5583 N   0  0  0  0  0  0  0  0  0  0  0  0
    0.3574   32.1273   -4.4210 C   0  0  0  0  0  0  0  0  0  0  0  0
    2.6054   39.6606   -2.4255 C   0  0  0  0  0  0  0  0  0  0  0  0
    7.1943   33.4181   -1.2870 C   0  0  2  0  0  0  0  0  0  0  0  0
    8.2233   32.5242   -0.6290 N   0  0  0  0  0  0  0  0  0  0  0  0
    2.2177   34.4327   -2.5289 C   0  0  2  0  0  0  0  0  0  0  0  0
    1.4514   36.4003   -1.0319 C   0  0  1  0  0  0  0  0  0  0  0  0
    0.5472   35.9912   -2.0415 O   0  0  0  0  0  0  0  0  0  0  0  0
    6.2492   34.0178   -0.2517 C   0  0  1  0  0  0  0  0  0  0  0  0
    7.1395   34.7539    0.6956 O   0  0  0  0  0  0  0  0  0  0  0  0
    1.1923   35.4071   -3.0794 C   0  0  2  0  0  0  0  0  0  0  0  0
    1.5401   37.9071   -1.0434 C   0  0  1  0  0  0  0  0  0  0  0  0
    2.0316   38.3509   -2.2999 N   0  0  0  0  0  0  0  0  0  0  0  0
    5.1717   34.9054   -0.8714 C   0  0  2  0  0  0  0  0  0  0  0  0
    4.2484   35.5051    0.0696 N   0  0  0  0  0  0  0  0  0  0  0  0
    0.2774   34.5223   -3.8839 C   0  0  1  0  0  0  0  0  0  0  0  0
   -0.7686   34.0133   -3.0496 O   0  0  0  0  0  0  0  0  0  0  0  0
    0.1435   38.4596   -0.8134 C   0  0  2  0  0  0  0  0  0  0  0  0
    0.1676   39.8702   -0.8247 O   0  0  0  0  0  0  0  0  0  0  0  0
    4.3850   34.0699   -1.8477 C   0  0  1  0  0  0  0  0  0  0  0  0
    3.5168   35.0151   -2.5325 O   0  0  0  0  0  0  0  0  0  0  0  0
    1.1481   33.4068   -4.3311 C   0  0  1  0  0  0  0  0  0  0  0  0
    2.1908   33.2719   -3.3627 O   0  0  0  0  0  0  0  0  0  0  0  0
   -0.3202   37.9455    0.5496 C   0  0  1  0  0  0  0  0  0  0  0  0
   -1.6278   38.4164    0.8362 O   0  0  0  0  0  0  0  0  0  0  0  0
    5.3279   33.4935   -2.9381 C   0  0  2  0  0  0  0  0  0  0  0  0
    4.5656   32.7227   -3.8540 O   0  0  0  0  0  0  0  0  0  0  0  0
   -0.3068   36.4166    0.5332 C   0  0  1  0  0  0  0  0  0  0  0  0
    1.0082   35.9450    0.2442 O   0  0  0  0  0  0  0  0  0  0  0  0
    6.3903   32.5965   -2.2741 C   0  0  1  0  0  0  0  0  0  0  0  0
    7.2692   32.0561   -3.2680 O   0  0  0  0  0  0  0  0  0  0  0  0
   -0.7395   35.9021    1.9064 C   0  0  0  0  0  0  0  0  0  0  0  0
   -1.4825   34.7049    1.7421 O   0  0  0  0  0  0  0  0  0  0  0  0
    9.9572   33.9776   -0.8972 N   0  0  0  0  0  0  0  0  0  0  0  0
    4.4519   37.6009   -0.1718 N   0  0  0  0  0  0  0  0  0  0  0  0
  1  2  1  0  0  0  0
  1 39  1  0  0  0  0
  3  4  1  0  0  0  0
  5  6  1  0  0  0  0
  5 40  1  0  0  0  0
  9 10  1  1  0  0  0
  9 14  1  0  0  0  0
  9 35  1  0  0  0  0
 10  1  1  0  0  0  0
 11 16  1  0  0  0  0
 11 28  1  0  0  0  0
 11 26  1  6  0  0  0
 12 17  1  0  0  0  0
 12 34  1  0  0  0  0
 12 13  1  6  0  0  0
 14 15  1  1  0  0  0
 14 19  1  0  0  0  0
 16 13  1  1  0  0  0
 16 21  1  0  0  0  0
 17 18  1  6  0  0  0
 17 23  1  0  0  0  0
 18  8  1  0  0  0  0
 19 20  1  1  0  0  0
 19 25  1  0  0  0  0
 20  5  1  0  0  0  0
 21  3  1  6  0  0  0
 21 22  1  0  0  0  0
 21 27  1  0  0  0  0
 23 24  1  1  0  0  0
 23 29  1  0  0  0  0
 25 26  1  6  0  0  0
 25 31  1  0  0  0  0
 27  7  1  1  0  0  0
 27 28  1  0  0  0  0
 29 30  1  6  0  0  0
 29 33  1  0  0  0  0
 31 32  1  6  0  0  0
 31 35  1  0  0  0  0
 33 34  1  0  0  0  0
 33 37  1  1  0  0  0
 35 36  1  6  0  0  0
 37 38  1  0  0  0  0
M  END
>  <CHROM.1>
-130.29946828,-122.77799757,173.47795779,108.46601018,45.07421111,-160.00589396
87.05218904,-93.58391066,-168.80589259,-132.76597258,145.23792380,3.03068647
35.18783438,-1.52811019,-0.27729282,-0.30058172,0.82544341

>  <Name>
1ntb_lig

>  <RI>
0

>  <Rbt.Current_Directory>
/home/itssahil/PROJECTS/Mol_Feturizer/New_Systems/rnas/1ntb

>  <Rbt.Executable>
rbdock ($Id: //depot/dev/client3/rdock/2013.1/src/exe/rbdock.cxx#4 $)

>  <Rbt.Library>
libRbt.so (2013.1, Build901 2013/11/27)

>  <Rbt.Parameter_File>
/export/apps/rDock/src/rDock_2013.1_src/data/scripts/dock_solv.prm

>  <Rbt.Receptor>
prm/pocket_docking_2.prm

>  <SCORE>
-8.73102

>  <SCORE.INTER>
-7.99422

>  <SCORE.INTER.CONST>
1

>  <SCORE.INTER.POLAR>
-1.13966

>  <SCORE.INTER.ROT>
11

>  <SCORE.INTER.SOLV>
24.1475

>  <SCORE.INTER.VDW>
-20.5131

>  <SCORE.INTER.norm>
-0.199855

>  <SCORE.INTRA>
-1.70653

>  <SCORE.INTRA.DIHEDRAL>
5.66663

>  <SCORE.INTRA.DIHEDRAL.0>
15.4453

>  <SCORE.INTRA.POLAR>
0

>  <SCORE.INTRA.POLAR.0>
0

>  <SCORE.INTRA.REPUL>
-0.573765

>  <SCORE.INTRA.REPUL.0>
0.823958

>  <SCORE.INTRA.SOLV>
1.88433

>  <SCORE.INTRA.SOLV.lig_0>
-99.3069

>  <SCORE.INTRA.VDW>
-2.61318

>  <SCORE.INTRA.VDW.0>
0.946495

>  <SCORE.INTRA.norm>
-0.0426632

>  <SCORE.RESTR>
0.969726

>  <SCORE.RESTR.CAVITY>
0.969726

>  <SCORE.RESTR.norm>
0.0242432

>  <SCORE.SYSTEM>
0

>  <SCORE.SYSTEM.CONST>
0

>  <SCORE.SYSTEM.DIHEDRAL>
0

>  <SCORE.SYSTEM.SOLV>
0

>  <SCORE.SYSTEM.norm>
0

>  <SCORE.heavy>
40

>  <SCORE.norm>
-0.218275

>  <RMSD>
2.569

$$$$
1ntb_lig
 OpenBabel11021811403D
libRbt.so/2013.1/901 2013/11/27
 40 42  0  0  0  0  0  0  0  0999 V2000
   10.1556   32.8545   -2.7356 C   0  0  0  0  0  0  0  0  0  0  0  0
   10.7549   33.9341   -2.4107 N   0  0  0  0  0  0  0  0  0  0  0  0
   -0.2110   35.0739   -0.8405 C   0  0  0  0  0  0  0  0  0  0  0  0
    0.1280   35.0458   -2.2170 O   0  0  0  0  0  0  0  0  0  0  0  0
    6.8696   36.6900    0.9603 C   0  0  0  0  0  0  0  0  0  0  0  0
    8.1306   36.9360    0.9222 N   0  0  0  0  0  0  0  0  0  0  0  0
    1.0476   32.3838    0.4859 C   0  0  0  0  0  0  0  0  0  0  0  0
   -0.0694   38.4699    3.8326 C   0  0  0  0  0  0  0  0  0  0  0  0
    8.0332   33.4716   -1.9107 C   0  0  2  0  0  0  0  0  0  0  0  0
    9.1776   32.4812   -1.9330 N   0  0  0  0  0  0  0  0  0  0  0  0
    3.3768   34.9645   -0.0342 C   0  0  2  0  0  0  0  0  0  0  0  0
    0.9480   37.6103    0.4768 C   0  0  1  0  0  0  0  0  0  0  0  0
    2.0976   36.8000    0.6378 O   0  0  0  0  0  0  0  0  0  0  0  0
    7.8061   34.0129   -0.5035 C   0  0  1  0  0  0  0  0  0  0  0  0
    9.1129   34.6239   -0.1150 O   0  0  0  0  0  0  0  0  0  0  0  0
    2.1183   35.7832   -0.2569 C   0  0  2  0  0  0  0  0  0  0  0  0
    0.9277   38.6452    1.5754 C   0  0  1  0  0  0  0  0  0  0  0  0
    0.8568   38.0032    2.8404 N   0  0  0  0  0  0  0  0  0  0  0  0
    6.6396   34.9955   -0.4237 C   0  0  2  0  0  0  0  0  0  0  0  0
    6.3827   35.5444    0.8917 N   0  0  0  0  0  0  0  0  0  0  0  0
    1.0152   34.7899   -0.0048 C   0  0  1  0  0  0  0  0  0  0  0  0
    0.6717   34.7830    1.3849 O   0  0  0  0  0  0  0  0  0  0  0  0
    2.2108   39.4535    1.4803 C   0  0  2  0  0  0  0  0  0  0  0  0
    2.2480   40.4331    2.4951 O   0  0  0  0  0  0  0  0  0  0  0  0
    5.3984   34.2840   -0.8962 C   0  0  1  0  0  0  0  0  0  0  0  0
    4.3818   35.3215   -0.9773 O   0  0  0  0  0  0  0  0  0  0  0  0
    1.6083   33.4822   -0.3800 C   0  0  1  0  0  0  0  0  0  0  0  0
    3.0202   33.5884   -0.1843 O   0  0  0  0  0  0  0  0  0  0  0  0
    2.2201   40.1140    0.1015 C   0  0  1  0  0  0  0  0  0  0  0  0
    3.3980   40.8871   -0.0676 O   0  0  0  0  0  0  0  0  0  0  0  0
    5.5972   33.7710   -2.3480 C   0  0  2  0  0  0  0  0  0  0  0  0
    4.4131   33.1175   -2.7780 O   0  0  0  0  0  0  0  0  0  0  0  0
    2.1507   39.0253   -0.9698 C   0  0  1  0  0  0  0  0  0  0  0  0
    0.9665   38.2486   -0.7978 O   0  0  0  0  0  0  0  0  0  0  0  0
    6.7728   32.7756   -2.3828 C   0  0  1  0  0  0  0  0  0  0  0  0
    6.9694   32.2922   -3.7169 O   0  0  0  0  0  0  0  0  0  0  0  0
    2.1274   39.6866   -2.3481 C   0  0  0  0  0  0  0  0  0  0  0  0
    2.3283   38.6958   -3.3434 O   0  0  0  0  0  0  0  0  0  0  0  0
   10.4957   32.1585   -3.7630 N   0  0  0  0  0  0  0  0  0  0  0  0
    6.0696   37.6273    1.1277 N   0  0  0  0  0  0  0  0  0  0  0  0
  1  2  1  0  0  0  0
  1 39  1  0  0  0  0
  3  4  1  0  0  0  0
  5  6  1  0  0  0  0
  5 40  1  0  0  0  0
  9 10  1  1  0  0  0
  9 14  1  0  0  0  0
  9 35  1  0  0  0  0
 10  1  1  0  0  0  0
 11 16  1  0  0  0  0
 11 28  1  0  0  0  0
 11 26  1  6  0  0  0
 12 17  1  0  0  0  0
 12 34  1  0  0  0  0
 12 13  1  1  0  0  0
 14 15  1  6  0  0  0
 14 19  1  0  0  0  0
 16 13  1  1  0  0  0
 16 21  1  0  0  0  0
 17 18  1  1  0  0  0
 17 23  1  0  0  0  0
 18  8  1  0  0  0  0
 19 20  1  1  0  0  0
 19 25  1  0  0  0  0
 20  5  1  0  0  0  0
 21  3  1  6  0  0  0
 21 22  1  0  0  0  0
 21 27  1  0  0  0  0
 23 24  1  1  0  0  0
 23 29  1  0  0  0  0
 25 26  1  6  0  0  0
 25 31  1  0  0  0  0
 27  7  1  1  0  0  0
 27 28  1  0  0  0  0
 29 30  1  6  0  0  0
 29 33  1  0  0  0  0
 31 32  1  1  0  0  0
 31 35  1  0  0  0  0
 33 34  1  0  0  0  0
 33 37  1  6  0  0  0
 35 36  1  6  0  0  0
 37 38  1  0  0  0  0
M  END
>  <CHROM.1>
-120.21057025,63.72968423,-166.56668020,175.14466330,179.61911008,-133.93543187
100.48046133,-66.56669413,58.67503629,-116.96293721,168.62320867,4.15889277
35.83982753,-0.48314488,-0.64081712,0.09702738,0.39571169

>  <Name>
1ntb_lig

>  <RI>
0

>  <Rbt.Current_Directory>
/home/itssahil/PROJECTS/Mol_Feturizer/New_Systems/rnas/1ntb

>  <Rbt.Executable>
rbdock ($Id: //depot/dev/client3/rdock/2013.1/src/exe/rbdock.cxx#4 $)

>  <Rbt.Library>
libRbt.so (2013.1, Build901 2013/11/27)

>  <Rbt.Parameter_File>
/export/apps/rDock/src/rDock_2013.1_src/data/scripts/dock_solv.prm

>  <Rbt.Receptor>
prm/pocket_docking_4.prm

>  <SCORE>
-23.2403

>  <SCORE.INTER>
-12.246

>  <SCORE.INTER.CONST>
1

>  <SCORE.INTER.POLAR>
-3.01949

>  <SCORE.INTER.ROT>
11

>  <SCORE.INTER.SOLV>
29.3317

>  <SCORE.INTER.VDW>
-18.8096

>  <SCORE.INTER.norm>
-0.306149

>  <SCORE.INTRA>
-10.9943

>  <SCORE.INTRA.DIHEDRAL>
-1.99849

>  <SCORE.INTRA.DIHEDRAL.0>
15.4453

>  <SCORE.INTRA.POLAR>
0

>  <SCORE.INTRA.POLAR.0>
0

>  <SCORE.INTRA.REPUL>
-0.823958

>  <SCORE.INTRA.REPUL.0>
0.823958

>  <SCORE.INTRA.SOLV>
-2.12729

>  <SCORE.INTRA.SOLV.lig_0>
-99.3069

>  <SCORE.INTRA.VDW>
-4.81166

>  <SCORE.INTRA.VDW.0>
0.946495

>  <SCORE.INTRA.norm>
-0.274858

>  <SCORE.RESTR>
0

>  <SCORE.RESTR.CAVITY>
0

>  <SCORE.RESTR.norm>
0

>  <SCORE.SYSTEM>
0

>  <SCORE.SYSTEM.CONST>
0

>  <SCORE.SYSTEM.DIHEDRAL>
0

>  <SCORE.SYSTEM.SOLV>
0

>  <SCORE.SYSTEM.norm>
0

>  <SCORE.heavy>
40

>  <SCORE.norm>
-0.581008

>  <RMSD>
2.584

$$$$
1ntb_lig
 OpenBabel11021811403D
libRbt.so/2013.1/901 2013/11/27
 40 42  0  0  0  0  0  0  0  0999 V2000
   10.0599   32.2107   -3.0579 C   0  0  0  0  0  0  0  0  0  0  0  0
    9.9138   32.2504   -4.3257 N   0  0  0  0  0  0  0  0  0  0  0  0
    0.0750   35.1098   -3.7984 C   0  0  0  0  0  0  0  0  0  0  0  0
   -0.9228   34.2436   -4.3126 O   0  0  0  0  0  0  0  0  0  0  0  0
    6.3513   35.6208    0.7970 C   0  0  0  0  0  0  0  0  0  0  0  0
    5.9351   36.8058    0.5239 N   0  0  0  0  0  0  0  0  0  0  0  0
    0.7672   32.0068   -3.1110 C   0  0  0  0  0  0  0  0  0  0  0  0
    1.5031   38.4103   -4.3994 C   0  0  0  0  0  0  0  0  0  0  0  0
    7.9147   32.9234   -2.3826 C   0  0  2  0  0  0  0  0  0  0  0  0
    8.9901   31.8583   -2.3711 N   0  0  0  0  0  0  0  0  0  0  0  0
    2.9420   34.3355   -1.6268 C   0  0  2  0  0  0  0  0  0  0  0  0
    1.9310   37.2687   -0.8682 C   0  0  1  0  0  0  0  0  0  0  0  0
    1.3990   35.9604   -0.9668 O   0  0  0  0  0  0  0  0  0  0  0  0
    7.4178   33.2137   -0.9706 C   0  0  1  0  0  0  0  0  0  0  0  0
    8.6385   33.6266   -0.2147 O   0  0  0  0  0  0  0  0  0  0  0  0
    1.8670   35.3148   -2.0617 C   0  0  2  0  0  0  0  0  0  0  0  0
    1.3158   38.1238   -1.9494 C   0  0  1  0  0  0  0  0  0  0  0  0
    1.6441   37.5954   -3.2262 N   0  0  0  0  0  0  0  0  0  0  0  0
    6.3081   34.2623   -0.9329 C   0  0  2  0  0  0  0  0  0  0  0  0
    5.8021   34.5796    0.3866 N   0  0  0  0  0  0  0  0  0  0  0  0
    0.8219   34.4235   -2.6785 C   0  0  1  0  0  0  0  0  0  0  0  0
   -0.0971   33.9804   -1.6745 O   0  0  0  0  0  0  0  0  0  0  0  0
   -0.1914   38.1072   -1.7581 C   0  0  2  0  0  0  0  0  0  0  0  0
   -0.8192   38.8864   -2.7526 O   0  0  0  0  0  0  0  0  0  0  0  0
    5.1647   33.7608   -1.7762 C   0  0  1  0  0  0  0  0  0  0  0  0
    4.2382   34.8798   -1.8518 O   0  0  0  0  0  0  0  0  0  0  0  0
    1.5904   33.2657   -3.1995 C   0  0  1  0  0  0  0  0  0  0  0  0
    2.7640   33.1419   -2.3930 O   0  0  0  0  0  0  0  0  0  0  0  0
   -0.4709   38.6870   -0.3713 C   0  0  1  0  0  0  0  0  0  0  0  0
   -1.8663   38.6996   -0.1136 O   0  0  0  0  0  0  0  0  0  0  0  0
    5.6448   33.5089   -3.2309 C   0  0  2  0  0  0  0  0  0  0  0  0
    4.5507   33.0513   -4.0105 O   0  0  0  0  0  0  0  0  0  0  0  0
    0.2467   37.8348    0.6759 C   0  0  1  0  0  0  0  0  0  0  0  0
    1.6492   37.8226    0.4147 O   0  0  0  0  0  0  0  0  0  0  0  0
    6.7532   32.4385   -3.2262 C   0  0  1  0  0  0  0  0  0  0  0  0
    7.2073   32.1942   -4.5627 O   0  0  0  0  0  0  0  0  0  0  0  0
   -0.0060   38.4331    2.0600 C   0  0  0  0  0  0  0  0  0  0  0  0
    0.9350   37.8985    2.9772 O   0  0  0  0  0  0  0  0  0  0  0  0
   11.1681   32.5178   -2.4808 N   0  0  0  0  0  0  0  0  0  0  0  0
    7.3909   35.4776    1.4643 N   0  0  0  0  0  0  0  0  0  0  0  0
  1  2  1  0  0  0  0
  1 39  1  0  0  0  0
  3  4  1  0  0  0  0
  5  6  1  0  0  0  0
  5 40  1  0  0  0  0
  9 10  1  1  0  0  0
  9 14  1  0  0  0  0
  9 35  1  0  0  0  0
 10  1  1  0  0  0  0
 11 16  1  0  0  0  0
 11 28  1  0  0  0  0
 11 26  1  6  0  0  0
 12 17  1  0  0  0  0
 12 34  1  0  0  0  0
 12 13  1  1  0  0  0
 14 15  1  1  0  0  0
 14 19  1  0  0  0  0
 16 13  1  1  0  0  0
 16 21  1  0  0  0  0
 17 18  1  6  0  0  0
 17 23  1  0  0  0  0
 18  8  1  0  0  0  0
 19 20  1  1  0  0  0
 19 25  1  0  0  0  0
 20  5  1  0  0  0  0
 21  3  1  6  0  0  0
 21 22  1  0  0  0  0
 21 27  1  0  0  0  0
 23 24  1  6  0  0  0
 23 29  1  0  0  0  0
 25 26  1  6  0  0  0
 25 31  1  0  0  0  0
 27  7  1  1  0  0  0
 27 28  1  0  0  0  0
 29 30  1  1  0  0  0
 29 33  1  0  0  0  0
 31 32  1  6  0  0  0
 31 35  1  0  0  0  0
 33 34  1  0  0  0  0
 33 37  1  1  0  0  0
 35 36  1  6  0  0  0
 37 38  1  0  0  0  0
M  END
>  <CHROM.1>
-130.32920156,-70.56792799,-164.05365091,71.07796127,102.62100992,-162.66271501
98.15255409,85.47336723,-178.11133565,-135.17190745,-163.71745408,3.59583938
35.13329787,-1.68699040,0.41113105,0.32301963,-2.23945908

>  <Name>
1ntb_lig

>  <RI>
0

>  <Rbt.Current_Directory>
/home/itssahil/PROJECTS/Mol_Feturizer/New_Systems/rnas/1ntb

>  <Rbt.Executable>
rbdock ($Id: //depot/dev/client3/rdock/2013.1/src/exe/rbdock.cxx#4 $)

>  <Rbt.Library>
libRbt.so (2013.1, Build901 2013/11/27)

>  <Rbt.Parameter_File>
/export/apps/rDock/src/rDock_2013.1_src/data/scripts/dock_solv.prm

>  <Rbt.Receptor>
prm/pocket_docking_4.prm

>  <SCORE>
-17.2187

>  <SCORE.INTER>
-12.4711

>  <SCORE.INTER.CONST>
1

>  <SCORE.INTER.POLAR>
-2.19716

>  <SCORE.INTER.ROT>
11

>  <SCORE.INTER.SOLV>
27.7248

>  <SCORE.INTER.VDW>
-21.1652

>  <SCORE.INTER.norm>
-0.311779

>  <SCORE.INTRA>
-4.74755

>  <SCORE.INTRA.DIHEDRAL>
2.72676

>  <SCORE.INTRA.DIHEDRAL.0>
15.4453

>  <SCORE.INTRA.POLAR>
0

>  <SCORE.INTRA.POLAR.0>
0

>  <SCORE.INTRA.REPUL>
-0.746378

>  <SCORE.INTRA.REPUL.0>
0.823958

>  <SCORE.INTRA.SOLV>
-1.34328

>  <SCORE.INTRA.SOLV.lig_0>
-99.3069

>  <SCORE.INTRA.VDW>
-1.7074

>  <SCORE.INTRA.VDW.0>
0.946495

>  <SCORE.INTRA.norm>
-0.118689

>  <SCORE.RESTR>
0

>  <SCORE.RESTR.CAVITY>
0

>  <SCORE.RESTR.norm>
0

>  <SCORE.SYSTEM>
0

>  <SCORE.SYSTEM.CONST>
0

>  <SCORE.SYSTEM.DIHEDRAL>
0

>  <SCORE.SYSTEM.SOLV>
0

>  <SCORE.SYSTEM.norm>
0

>  <SCORE.heavy>
40

>  <SCORE.norm>
-0.430468

>  <RMSD>
2.616

$$$$
1ntb_lig
 OpenBabel11021811403D
libRbt.so/2013.1/901 2013/11/27
 40 42  0  0  0  0  0  0  0  0999 V2000
    7.8094   35.2397    0.5159 C   0  0  0  0  0  0  0  0  0  0  0  0
    7.7388   36.2174    1.3340 N   0  0  0  0  0  0  0  0  0  0  0  0
   -1.1476   33.2292   -5.7125 C   0  0  0  0  0  0  0  0  0  0  0  0
   -0.0870   33.1424   -6.6495 O   0  0  0  0  0  0  0  0  0  0  0  0
    1.7923   36.4689   -0.6414 C   0  0  0  0  0  0  0  0  0  0  0  0
    1.3514   36.9198    0.4786 N   0  0  0  0  0  0  0  0  0  0  0  0
   -0.5875   30.9658   -3.4445 C   0  0  0  0  0  0  0  0  0  0  0  0
   -4.4812   35.5064   -3.4952 C   0  0  0  0  0  0  0  0  0  0  0  0
    5.8266   34.7018   -0.6438 C   0  0  2  0  0  0  0  0  0  0  0  0
    6.7704   34.4269    0.5071 N   0  0  0  0  0  0  0  0  0  0  0  0
    1.3375   33.8842   -3.0801 C   0  0  2  0  0  0  0  0  0  0  0  0
   -1.0928   36.1502   -4.5244 C   0  0  1  0  0  0  0  0  0  0  0  0
   -0.2823   35.4958   -3.5658 O   0  0  0  0  0  0  0  0  0  0  0  0
    4.3923   34.8558   -0.1497 C   0  0  1  0  0  0  0  0  0  0  0  0
    4.4479   35.9752    0.8381 O   0  0  0  0  0  0  0  0  0  0  0  0
    0.3493   34.4225   -4.0986 C   0  0  2  0  0  0  0  0  0  0  0  0
   -2.3283   36.6765   -3.8350 C   0  0  1  0  0  0  0  0  0  0  0  0
   -3.0653   35.5976   -3.2781 N   0  0  0  0  0  0  0  0  0  0  0  0
    3.3958   35.1048   -1.2800 C   0  0  2  0  0  0  0  0  0  0  0  0
    2.0173   35.2633   -0.8649 N   0  0  0  0  0  0  0  0  0  0  0  0
   -0.5899   33.2645   -4.3087 C   0  0  1  0  0  0  0  0  0  0  0  0
   -1.6578   33.3222   -3.3572 O   0  0  0  0  0  0  0  0  0  0  0  0
   -1.8817   37.6188   -2.7299 C   0  0  2  0  0  0  0  0  0  0  0  0
   -3.0019   38.1337   -2.0439 O   0  0  0  0  0  0  0  0  0  0  0  0
    3.4772   33.9437   -2.2367 C   0  0  1  0  0  0  0  0  0  0  0  0
    2.6556   34.3369   -3.3710 O   0  0  0  0  0  0  0  0  0  0  0  0
    0.2454   32.0652   -4.0512 C   0  0  1  0  0  0  0  0  0  0  0  0
    1.2767   32.4573   -3.1424 O   0  0  0  0  0  0  0  0  0  0  0  0
   -1.0995   38.7499   -3.3978 C   0  0  1  0  0  0  0  0  0  0  0  0
   -0.6403   39.6745   -2.4242 O   0  0  0  0  0  0  0  0  0  0  0  0
    4.9222   33.8061   -2.7874 C   0  0  2  0  0  0  0  0  0  0  0  0
    4.9734   32.7172   -3.6961 O   0  0  0  0  0  0  0  0  0  0  0  0
    0.0882   38.1523   -4.1529 C   0  0  1  0  0  0  0  0  0  0  0  0
   -0.3753   37.2225   -5.1306 O   0  0  0  0  0  0  0  0  0  0  0  0
    5.8925   33.5443   -1.6194 C   0  0  1  0  0  0  0  0  0  0  0  0
    7.2316   33.4145   -2.1114 O   0  0  0  0  0  0  0  0  0  0  0  0
    0.8522   39.2798   -4.8476 C   0  0  0  0  0  0  0  0  0  0  0  0
    1.8794   38.7204   -5.6504 O   0  0  0  0  0  0  0  0  0  0  0  0
    8.8352   35.0405   -0.2350 N   0  0  0  0  0  0  0  0  0  0  0  0
    1.9630   37.2538   -1.5908 N   0  0  0  0  0  0  0  0  0  0  0  0
  1  2  1  0  0  0  0
  1 39  1  0  0  0  0
  3  4  1  0  0  0  0
  5  6  1  0  0  0  0
  5 40  1  0  0  0  0
  9 10  1  1  0  0  0
  9 14  1  0  0  0  0
  9 35  1  0  0  0  0
 10  1  1  0  0  0  0
 11 16  1  0  0  0  0
 11 28  1  0  0  0  0
 11 26  1  6  0  0  0
 12 17  1  0  0  0  0
 12 34  1  0  0  0  0
 12 13  1  1  0  0  0
 14 15  1  1  0  0  0
 14 19  1  0  0  0  0
 16 13  1  1  0  0  0
 16 21  1  0  0  0  0
 17 18  1  1  0  0  0
 17 23  1  0  0  0  0
 18  8  1  0  0  0  0
 19 20  1  1  0  0  0
 19 25  1  0  0  0  0
 20  5  1  0  0  0  0
 21  3  1  6  0  0  0
 21 22  1  0  0  0  0
 21 27  1  0  0  0  0
 23 24  1  6  0  0  0
 23 29  1  0  0  0  0
 25 26  1  6  0  0  0
 25 31  1  0  0  0  0
 27  7  1  1  0  0  0
 27 28  1  0  0  0  0
 29 30  1  1  0  0  0
 29 33  1  0  0  0  0
 31 32  1  6  0  0  0
 31 35  1  0  0  0  0
 33 34  1  0  0  0  0
 33 37  1  6  0  0  0
 35 36  1  6  0  0  0
 37 38  1  0  0  0  0
M  END
>  <CHROM.1>
-128.68587401,100.20401284,171.42691050,144.78880870,172.42873760,-132.14257484
90.15974908,-123.37167886,58.46854695,-89.63821941,-174.59300512,1.69799421
35.32599008,-2.64595814,-0.00930430,-0.43387297,0.36331852

>  <Name>
1ntb_lig

>  <RI>
0

>  <Rbt.Current_Directory>
/home/itssahil/PROJECTS/Mol_Feturizer/New_Systems/rnas/1ntb

>  <Rbt.Executable>
rbdock ($Id: //depot/dev/client3/rdock/2013.1/src/exe/rbdock.cxx#4 $)

>  <Rbt.Library>
libRbt.so (2013.1, Build901 2013/11/27)

>  <Rbt.Parameter_File>
/export/apps/rDock/src/rDock_2013.1_src/data/scripts/dock_solv.prm

>  <Rbt.Receptor>
prm/pocket_docking_8.prm

>  <SCORE>
-17.8313

>  <SCORE.INTER>
-7.39275

>  <SCORE.INTER.CONST>
1

>  <SCORE.INTER.POLAR>
-1.49177

>  <SCORE.INTER.ROT>
11

>  <SCORE.INTER.SOLV>
19.9552

>  <SCORE.INTER.VDW>
-17.541

>  <SCORE.INTER.norm>
-0.184819

>  <SCORE.INTRA>
-10.4386

>  <SCORE.INTRA.DIHEDRAL>
-2.71507

>  <SCORE.INTRA.DIHEDRAL.0>
15.4453

>  <SCORE.INTRA.POLAR>
0

>  <SCORE.INTRA.POLAR.0>
0

>  <SCORE.INTRA.REPUL>
-0.823958

>  <SCORE.INTRA.REPUL.0>
0.823958

>  <SCORE.INTRA.SOLV>
1.62909

>  <SCORE.INTRA.SOLV.lig_0>
-99.3069

>  <SCORE.INTRA.VDW>
-5.7758

>  <SCORE.INTRA.VDW.0>
0.946495

>  <SCORE.INTRA.norm>
-0.260965

>  <SCORE.RESTR>
0

>  <SCORE.RESTR.CAVITY>
0

>  <SCORE.RESTR.norm>
0

>  <SCORE.SYSTEM>
0

>  <SCORE.SYSTEM.CONST>
0

>  <SCORE.SYSTEM.DIHEDRAL>
0

>  <SCORE.SYSTEM.SOLV>
0

>  <SCORE.SYSTEM.norm>
0

>  <SCORE.heavy>
40

>  <SCORE.norm>
-0.445783

>  <RMSD>
2.740

$$$$
1ntb_lig
 OpenBabel11021811403D
libRbt.so/2013.1/901 2013/11/27
 40 42  0  0  0  0  0  0  0  0999 V2000
    8.9063   33.2458   -1.2088 C   0  0  0  0  0  0  0  0  0  0  0  0
    9.3681   32.7146   -2.2741 N   0  0  0  0  0  0  0  0  0  0  0  0
    0.9818   32.9142   -4.7297 C   0  0  0  0  0  0  0  0  0  0  0  0
    0.2597   33.5254   -5.7857 O   0  0  0  0  0  0  0  0  0  0  0  0
    4.0616   36.6743    1.3077 C   0  0  0  0  0  0  0  0  0  0  0  0
    5.2256   37.2196    1.3071 N   0  0  0  0  0  0  0  0  0  0  0  0
    0.1716   31.8919   -1.7500 C   0  0  0  0  0  0  0  0  0  0  0  0
   -0.1601   37.9749   -7.2834 C   0  0  0  0  0  0  0  0  0  0  0  0
    6.6320   33.8706   -1.1520 C   0  0  2  0  0  0  0  0  0  0  0  0
    7.7026   32.8451   -0.8470 N   0  0  0  0  0  0  0  0  0  0  0  0
    1.6152   35.0957   -1.8358 C   0  0  2  0  0  0  0  0  0  0  0  0
    1.2993   37.0667   -4.2033 C   0  0  1  0  0  0  0  0  0  0  0  0
    0.5512   35.9639   -3.7255 O   0  0  0  0  0  0  0  0  0  0  0  0
    5.7902   34.1663    0.0845 C   0  0  1  0  0  0  0  0  0  0  0  0
    6.7707   34.6351    1.1096 O   0  0  0  0  0  0  0  0  0  0  0  0
    1.3580   34.9523   -3.3248 C   0  0  2  0  0  0  0  0  0  0  0  0
    0.3554   38.0415   -4.8648 C   0  0  1  0  0  0  0  0  0  0  0  0
   -0.2869   37.4170   -5.9670 N   0  0  0  0  0  0  0  0  0  0  0  0
    4.6746   35.1751   -0.1810 C   0  0  2  0  0  0  0  0  0  0  0  0
    3.8462   35.4958    0.9629 N   0  0  0  0  0  0  0  0  0  0  0  0
    0.6749   33.6144   -3.4264 C   0  0  1  0  0  0  0  0  0  0  0  0
   -0.7396   33.7748   -3.2763 O   0  0  0  0  0  0  0  0  0  0  0  0
   -0.6809   38.4606   -3.8358 C   0  0  2  0  0  0  0  0  0  0  0  0
   -1.5981   39.3680   -4.4069 O   0  0  0  0  0  0  0  0  0  0  0  0
    3.7934   34.6190   -1.2693 C   0  0  1  0  0  0  0  0  0  0  0  0
    2.8813   35.7028   -1.6008 O   0  0  0  0  0  0  0  0  0  0  0  0
    1.2150   32.8404   -2.2811 C   0  0  1  0  0  0  0  0  0  0  0  0
    1.5804   33.7831   -1.2706 O   0  0  0  0  0  0  0  0  0  0  0  0
    0.0766   39.1224   -2.6845 C   0  0  1  0  0  0  0  0  0  0  0  0
   -0.8276   39.5389   -1.6733 O   0  0  0  0  0  0  0  0  0  0  0  0
    4.6285   34.3604   -2.5523 C   0  0  2  0  0  0  0  0  0  0  0  0
    3.7778   33.8511   -3.5678 O   0  0  0  0  0  0  0  0  0  0  0  0
    1.0786   38.1206   -2.1100 C   0  0  1  0  0  0  0  0  0  0  0  0
    1.9863   37.7024   -3.1281 O   0  0  0  0  0  0  0  0  0  0  0  0
    5.7328   33.3306   -2.2455 C   0  0  1  0  0  0  0  0  0  0  0  0
    6.5131   33.0806   -3.4206 O   0  0  0  0  0  0  0  0  0  0  0  0
    1.8591   38.7923   -0.9798 C   0  0  0  0  0  0  0  0  0  0  0  0
    2.6527   39.8372   -1.5190 O   0  0  0  0  0  0  0  0  0  0  0  0
    9.5569   34.1332   -0.5418 N   0  0  0  0  0  0  0  0  0  0  0  0
    3.0842   37.3221    1.7218 N   0  0  0  0  0  0  0  0  0  0  0  0
  1  2  1  0  0  0  0
  1 39  1  0  0  0  0
  3  4  1  0  0  0  0
  5  6  1  0  0  0  0
  5 40  1  0  0  0  0
  9 10  1  1  0  0  0
  9 14  1  0  0  0  0
  9 35  1  0  0  0  0
 10  1  1  0  0  0  0
 11 16  1  0  0  0  0
 11 28  1  0  0  0  0
 11 26  1  6  0  0  0
 12 17  1  0  0  0  0
 12 34  1  0  0  0  0
 12 13  1  1  0  0  0
 14 15  1  1  0  0  0
 14 19  1  0  0  0  0
 16 13  1  1  0  0  0
 16 21  1  0  0  0  0
 17 18  1  6  0  0  0
 17 23  1  0  0  0  0
 18  8  1  0  0  0  0
 19 20  1  1  0  0  0
 19 25  1  0  0  0  0
 20  5  1  0  0  0  0
 21  3  1  6  0  0  0
 21 22  1  0  0  0  0
 21 27  1  0  0  0  0
 23 24  1  6  0  0  0
 23 29  1  0  0  0  0
 25 26  1  6  0  0  0
 25 31  1  0  0  0  0
 27  7  1  1  0  0  0
 27 28  1  0  0  0  0
 29 30  1  1  0  0  0
 29 33  1  0  0  0  0
 31 32  1  6  0  0  0
 31 35  1  0  0  0  0
 33 34  1  0  0  0  0
 33 37  1  1  0  0  0
 35 36  1  6  0  0  0
 37 38  1  0  0  0  0
M  END
>  <CHROM.1>
-127.90642199,-104.14431924,-100.34632987,169.60559914,93.27787235,-121.69831753
111.26174540,-39.18476041,-74.69227615,-141.38600495,-65.86981011,2.86059901
35.57452243,-2.24020460,0.13742453,0.57973298,-2.56674012

>  <Name>
1ntb_lig

>  <RI>
0

>  <Rbt.Current_Directory>
/home/itssahil/PROJECTS/Mol_Feturizer/New_Systems/rnas/1ntb

>  <Rbt.Executable>
rbdock ($Id: //depot/dev/client3/rdock/2013.1/src/exe/rbdock.cxx#4 $)

>  <Rbt.Library>
libRbt.so (2013.1, Build901 2013/11/27)

>  <Rbt.Parameter_File>
/export/apps/rDock/src/rDock_2013.1_src/data/scripts/dock_solv.prm

>  <Rbt.Receptor>
prm/pocket_docking_7.prm

>  <SCORE>
-12.8033

>  <SCORE.INTER>
-9.24461

>  <SCORE.INTER.CONST>
1

>  <SCORE.INTER.POLAR>
-1.15623

>  <SCORE.INTER.ROT>
11

>  <SCORE.INTER.SOLV>
22.4979

>  <SCORE.INTER.VDW>
-20.7416

>  <SCORE.INTER.norm>
-0.231115

>  <SCORE.INTRA>
-3.5587

>  <SCORE.INTRA.DIHEDRAL>
5.15278

>  <SCORE.INTRA.DIHEDRAL.0>
15.4453

>  <SCORE.INTRA.POLAR>
0

>  <SCORE.INTRA.POLAR.0>
0

>  <SCORE.INTRA.REPUL>
-0.797306

>  <SCORE.INTRA.REPUL.0>
0.823958

>  <SCORE.INTRA.SOLV>
-0.332589

>  <SCORE.INTRA.SOLV.lig_0>
-99.3069

>  <SCORE.INTRA.VDW>
-1.98226

>  <SCORE.INTRA.VDW.0>
0.946495

>  <SCORE.INTRA.norm>
-0.0889675

>  <SCORE.RESTR>
0

>  <SCORE.RESTR.CAVITY>
0

>  <SCORE.RESTR.norm>
0

>  <SCORE.SYSTEM>
0

>  <SCORE.SYSTEM.CONST>
0

>  <SCORE.SYSTEM.DIHEDRAL>
0

>  <SCORE.SYSTEM.SOLV>
0

>  <SCORE.SYSTEM.norm>
0

>  <SCORE.heavy>
40

>  <SCORE.norm>
-0.320083

>  <RMSD>
2.741

$$$$
1ntb_lig
 OpenBabel11021811403D
libRbt.so/2013.1/901 2013/11/27
 40 42  0  0  0  0  0  0  0  0999 V2000
    9.6203   32.8591   -1.1620 C   0  0  0  0  0  0  0  0  0  0  0  0
   10.6210   32.9366   -0.3728 N   0  0  0  0  0  0  0  0  0  0  0  0
   -0.7056   35.4784   -3.9355 C   0  0  0  0  0  0  0  0  0  0  0  0
   -1.5607   34.8412   -4.8698 O   0  0  0  0  0  0  0  0  0  0  0  0
    4.9215   36.6659    0.5802 C   0  0  0  0  0  0  0  0  0  0  0  0
    5.6557   36.8864    1.6119 N   0  0  0  0  0  0  0  0  0  0  0  0
    0.3686   32.5155   -4.7402 C   0  0  0  0  0  0  0  0  0  0  0  0
    2.0026   39.0051   -1.6818 C   0  0  0  0  0  0  0  0  0  0  0  0
    7.3408   33.4661   -1.2007 C   0  0  2  0  0  0  0  0  0  0  0  0
    8.4535   32.6456   -0.5846 N   0  0  0  0  0  0  0  0  0  0  0  0
    2.3005   34.1376   -2.2922 C   0  0  2  0  0  0  0  0  0  0  0  0
    1.4534   35.7590   -0.0974 C   0  0  1  0  0  0  0  0  0  0  0  0
    0.5988   35.0780   -0.9973 O   0  0  0  0  0  0  0  0  0  0  0  0
    6.4697   34.1023   -0.1231 C   0  0  1  0  0  0  0  0  0  0  0  0
    7.4135   34.9220    0.6949 O   0  0  0  0  0  0  0  0  0  0  0  0
    1.1044   35.0712   -2.2540 C   0  0  2  0  0  0  0  0  0  0  0  0
    1.1564   37.2371   -0.1726 C   0  0  1  0  0  0  0  0  0  0  0  0
    1.4095   37.7127   -1.4868 N   0  0  0  0  0  0  0  0  0  0  0  0
    5.3123   34.9174   -0.6963 C   0  0  2  0  0  0  0  0  0  0  0  0
    4.4546   35.5482    0.2856 N   0  0  0  0  0  0  0  0  0  0  0  0
    0.1523   34.4475   -3.2397 C   0  0  1  0  0  0  0  0  0  0  0  0
   -0.6756   33.4852   -2.5781 O   0  0  0  0  0  0  0  0  0  0  0  0
   -0.3095   37.4378    0.1733 C   0  0  2  0  0  0  0  0  0  0  0  0
   -0.6443   38.8068    0.1081 O   0  0  0  0  0  0  0  0  0  0  0  0
    4.4725   33.9996   -1.5463 C   0  0  1  0  0  0  0  0  0  0  0  0
    3.5157   34.8743   -2.2065 O   0  0  0  0  0  0  0  0  0  0  0  0
    1.0347   33.7613   -4.2159 C   0  0  1  0  0  0  0  0  0  0  0  0
    2.2399   33.4202   -3.5272 O   0  0  0  0  0  0  0  0  0  0  0  0
   -0.5088   36.9075    1.5934 C   0  0  1  0  0  0  0  0  0  0  0  0
   -1.8633   37.0549    1.9898 O   0  0  0  0  0  0  0  0  0  0  0  0
    5.3358   33.3833   -2.6799 C   0  0  2  0  0  0  0  0  0  0  0  0
    4.5233   32.5345   -3.4760 O   0  0  0  0  0  0  0  0  0  0  0  0
   -0.1102   35.4318    1.6317 C   0  0  1  0  0  0  0  0  0  0  0  0
    1.2515   35.2854    1.2320 O   0  0  0  0  0  0  0  0  0  0  0  0
    6.4824   32.5610   -2.0607 C   0  0  1  0  0  0  0  0  0  0  0  0
    7.2891   31.9847   -3.0949 O   0  0  0  0  0  0  0  0  0  0  0  0
   -0.2786   34.9095    3.0586 C   0  0  0  0  0  0  0  0  0  0  0  0
   -0.0180   33.5152    3.0779 O   0  0  0  0  0  0  0  0  0  0  0  0
    9.7394   32.9566   -2.4395 N   0  0  0  0  0  0  0  0  0  0  0  0
    4.5999   37.6164   -0.1545 N   0  0  0  0  0  0  0  0  0  0  0  0
  1  2  1  0  0  0  0
  1 39  1  0  0  0  0
  3  4  1  0  0  0  0
  5  6  1  0  0  0  0
  5 40  1  0  0  0  0
  9 10  1  1  0  0  0
  9 14  1  0  0  0  0
  9 35  1  0  0  0  0
 10  1  1  0  0  0  0
 11 16  1  0  0  0  0
 11 28  1  0  0  0  0
 11 26  1  6  0  0  0
 12 17  1  0  0  0  0
 12 34  1  0  0  0  0
 12 13  1  6  0  0  0
 14 15  1  6  0  0  0
 14 19  1  0  0  0  0
 16 13  1  1  0  0  0
 16 21  1  0  0  0  0
 17 18  1  6  0  0  0
 17 23  1  0  0  0  0
 18  8  1  0  0  0  0
 19 20  1  1  0  0  0
 19 25  1  0  0  0  0
 20  5  1  0  0  0  0
 21  3  1  6  0  0  0
 21 22  1  0  0  0  0
 21 27  1  0  0  0  0
 23 24  1  1  0  0  0
 23 29  1  0  0  0  0
 25 26  1  6  0  0  0
 25 31  1  0  0  0  0
 27  7  1  1  0  0  0
 27 28  1  0  0  0  0
 29 30  1  6  0  0  0
 29 33  1  0  0  0  0
 31 32  1  6  0  0  0
 31 35  1  0  0  0  0
 33 34  1  0  0  0  0
 33 37  1  1  0  0  0
 35 36  1  6  0  0  0
 37 38  1  0  0  0  0
M  END
>  <CHROM.1>
-134.99310122,139.05048084,150.03091461,84.43422143,71.37168752,-141.51569734
87.69376252,-97.12455122,178.77286223,-144.26989151,175.16784242,3.05411842
34.89934549,-1.05398768,-0.23639920,-0.22962245,1.04006832

>  <Name>
1ntb_lig

>  <RI>
0

>  <Rbt.Current_Directory>
/home/itssahil/PROJECTS/Mol_Feturizer/New_Systems/rnas/1ntb

>  <Rbt.Executable>
rbdock ($Id: //depot/dev/client3/rdock/2013.1/src/exe/rbdock.cxx#4 $)

>  <Rbt.Library>
libRbt.so (2013.1, Build901 2013/11/27)

>  <Rbt.Parameter_File>
/export/apps/rDock/src/rDock_2013.1_src/data/scripts/dock_solv.prm

>  <Rbt.Receptor>
prm/pocket_docking_4.prm

>  <SCORE>
-14.594

>  <SCORE.INTER>
-5.84556

>  <SCORE.INTER.CONST>
1

>  <SCORE.INTER.POLAR>
-0.618257

>  <SCORE.INTER.ROT>
11

>  <SCORE.INTER.SOLV>
23.228

>  <SCORE.INTER.VDW>
-20.5122

>  <SCORE.INTER.norm>
-0.146139

>  <SCORE.INTRA>
-8.76961

>  <SCORE.INTRA.DIHEDRAL>
-0.36166

>  <SCORE.INTRA.DIHEDRAL.0>
15.4453

>  <SCORE.INTRA.POLAR>
0

>  <SCORE.INTRA.POLAR.0>
0

>  <SCORE.INTRA.REPUL>
-0.823958

>  <SCORE.INTRA.REPUL.0>
0.823958

>  <SCORE.INTRA.SOLV>
1.52204

>  <SCORE.INTRA.SOLV.lig_0>
-99.3069

>  <SCORE.INTRA.VDW>
-5.23002

>  <SCORE.INTRA.VDW.0>
0.946495

>  <SCORE.INTRA.norm>
-0.21924

>  <SCORE.RESTR>
0.0212215

>  <SCORE.RESTR.CAVITY>
0.0212215

>  <SCORE.RESTR.norm>
0.000530536

>  <SCORE.SYSTEM>
0

>  <SCORE.SYSTEM.CONST>
0

>  <SCORE.SYSTEM.DIHEDRAL>
0

>  <SCORE.SYSTEM.SOLV>
0

>  <SCORE.SYSTEM.norm>
0

>  <SCORE.heavy>
40

>  <SCORE.norm>
-0.364849

>  <RMSD>
2.753

$$$$
1ntb_lig
 OpenBabel11021811403D
libRbt.so/2013.1/901 2013/11/27
 40 42  0  0  0  0  0  0  0  0999 V2000
    8.8167   32.6124   -2.1261 C   0  0  0  0  0  0  0  0  0  0  0  0
    8.8656   32.6614   -3.4010 N   0  0  0  0  0  0  0  0  0  0  0  0
    0.0081   33.4164   -2.6227 C   0  0  0  0  0  0  0  0  0  0  0  0
   -0.7643   34.2210   -3.4980 O   0  0  0  0  0  0  0  0  0  0  0  0
    5.9977   37.0716    0.9787 C   0  0  0  0  0  0  0  0  0  0  0  0
    5.3973   38.1794    0.7252 N   0  0  0  0  0  0  0  0  0  0  0  0
    0.3742   32.6510    0.5174 C   0  0  0  0  0  0  0  0  0  0  0  0
    1.0701   38.6310   -5.0079 C   0  0  0  0  0  0  0  0  0  0  0  0
    6.6753   33.4798   -1.6486 C   0  0  2  0  0  0  0  0  0  0  0  0
    7.6394   32.3136   -1.6114 N   0  0  0  0  0  0  0  0  0  0  0  0
    2.0730   35.5665   -0.4669 C   0  0  2  0  0  0  0  0  0  0  0  0
    1.2530   37.6940   -1.9127 C   0  0  1  0  0  0  0  0  0  0  0  0
    0.4507   36.5297   -1.8443 O   0  0  0  0  0  0  0  0  0  0  0  0
    6.5581   34.1362   -0.2774 C   0  0  1  0  0  0  0  0  0  0  0  0
    7.9527   34.5442    0.0699 O   0  0  0  0  0  0  0  0  0  0  0  0
    1.2054   35.4138   -1.7029 C   0  0  2  0  0  0  0  0  0  0  0  0
    0.4715   38.7797   -2.6122 C   0  0  1  0  0  0  0  0  0  0  0  0
    0.1542   38.3688   -3.9343 N   0  0  0  0  0  0  0  0  0  0  0  0
    5.5715   35.3019   -0.2567 C   0  0  2  0  0  0  0  0  0  0  0  0
    5.4251   35.9651    1.0225 N   0  0  0  0  0  0  0  0  0  0  0  0
    0.3668   34.2044   -1.3845 C   0  0  1  0  0  0  0  0  0  0  0  0
   -0.8223   34.6021   -0.6938 O   0  0  0  0  0  0  0  0  0  0  0  0
   -0.8073   39.0159   -1.8264 C   0  0  2  0  0  0  0  0  0  0  0  0
   -1.5833   40.0187   -2.4450 O   0  0  0  0  0  0  0  0  0  0  0  0
    4.2239   34.7789   -0.6817 C   0  0  1  0  0  0  0  0  0  0  0  0
    3.3924   35.9638   -0.8252 O   0  0  0  0  0  0  0  0  0  0  0  0
    1.2221   33.3939   -0.4823 C   0  0  1  0  0  0  0  0  0  0  0  0
    2.0975   34.2992    0.1939 O   0  0  0  0  0  0  0  0  0  0  0  0
   -0.3924   39.4537   -0.4215 C   0  0  1  0  0  0  0  0  0  0  0  0
   -1.5390   39.6893    0.3808 O   0  0  0  0  0  0  0  0  0  0  0  0
    4.3173   34.1523   -2.0991 C   0  0  2  0  0  0  0  0  0  0  0  0
    3.0362   33.6795   -2.4855 O   0  0  0  0  0  0  0  0  0  0  0  0
    0.4683   38.3565    0.2055 C   0  0  1  0  0  0  0  0  0  0  0  0
    1.6199   38.1205   -0.6029 O   0  0  0  0  0  0  0  0  0  0  0  0
    5.3113   32.9752   -2.0741 C   0  0  1  0  0  0  0  0  0  0  0  0
    5.4089   32.3854   -3.3760 O   0  0  0  0  0  0  0  0  0  0  0  0
    0.9102   38.8077    1.5979 C   0  0  0  0  0  0  0  0  0  0  0  0
    1.5222   37.7175    2.2681 O   0  0  0  0  0  0  0  0  0  0  0  0
    9.8391   32.8622   -1.3859 N   0  0  0  0  0  0  0  0  0  0  0  0
    7.2306   37.0688    1.1416 N   0  0  0  0  0  0  0  0  0  0  0  0
  1  2  1  0  0  0  0
  1 39  1  0  0  0  0
  3  4  1  0  0  0  0
  5  6  1  0  0  0  0
  5 40  1  0  0  0  0
  9 10  1  1  0  0  0
  9 14  1  0  0  0  0
  9 35  1  0  0  0  0
 10  1  1  0  0  0  0
 11 16  1  0  0  0  0
 11 28  1  0  0  0  0
 11 26  1  6  0  0  0
 12 17  1  0  0  0  0
 12 34  1  0  0  0  0
 12 13  1  1  0  0  0
 14 15  1  6  0  0  0
 14 19  1  0  0  0  0
 16 13  1  1  0  0  0
 16 21  1  0  0  0  0
 17 18  1  6  0  0  0
 17 23  1  0  0  0  0
 18  8  1  0  0  0  0
 19 20  1  1  0  0  0
 19 25  1  0  0  0  0
 20  5  1  0  0  0  0
 21  3  1  6  0  0  0
 21 22  1  0  0  0  0
 21 27  1  0  0  0  0
 23 24  1  6  0  0  0
 23 29  1  0  0  0  0
 25 26  1  6  0  0  0
 25 31  1  0  0  0  0
 27  7  1  1  0  0  0
 27 28  1  0  0  0  0
 29 30  1  1  0  0  0
 29 33  1  0  0  0  0
 31 32  1  1  0  0  0
 31 35  1  0  0  0  0
 33 34  1  0  0  0  0
 33 37  1  1  0  0  0
 35 36  1  6  0  0  0
 37 38  1  0  0  0  0
M  END
>  <CHROM.1>
-102.33772886,-76.38276347,-104.63996234,157.09775762,56.60460103,-88.44157930
106.31202228,96.17706952,-61.82972261,-147.54338323,170.64494769,2.96388510
35.74185901,-1.11716106,0.44702034,0.29044980,-2.60031900

>  <Name>
1ntb_lig

>  <RI>
0

>  <Rbt.Current_Directory>
/home/itssahil/PROJECTS/Mol_Feturizer/New_Systems/rnas/1ntb

>  <Rbt.Executable>
rbdock ($Id: //depot/dev/client3/rdock/2013.1/src/exe/rbdock.cxx#4 $)

>  <Rbt.Library>
libRbt.so (2013.1, Build901 2013/11/27)

>  <Rbt.Parameter_File>
/export/apps/rDock/src/rDock_2013.1_src/data/scripts/dock_solv.prm

>  <Rbt.Receptor>
prm/pocket_docking_3.prm

>  <SCORE>
-7.56492

>  <SCORE.INTER>
-5.38554

>  <SCORE.INTER.CONST>
1

>  <SCORE.INTER.POLAR>
-1.22663

>  <SCORE.INTER.ROT>
11

>  <SCORE.INTER.SOLV>
21.1985

>  <SCORE.INTER.VDW>
-17.5011

>  <SCORE.INTER.norm>
-0.134638

>  <SCORE.INTRA>
-2.17955

>  <SCORE.INTRA.DIHEDRAL>
1.35455

>  <SCORE.INTRA.DIHEDRAL.0>
15.4453

>  <SCORE.INTRA.POLAR>
0

>  <SCORE.INTRA.POLAR.0>
0

>  <SCORE.INTRA.REPUL>
-0.823958

>  <SCORE.INTRA.REPUL.0>
0.823958

>  <SCORE.INTRA.SOLV>
-1.36477

>  <SCORE.INTRA.SOLV.lig_0>
-99.3069

>  <SCORE.INTRA.VDW>
1.94535

>  <SCORE.INTRA.VDW.0>
0.946495

>  <SCORE.INTRA.norm>
-0.0544887

>  <SCORE.RESTR>
0.00016575

>  <SCORE.RESTR.CAVITY>
0.00016575

>  <SCORE.RESTR.norm>
4.14374e-06

>  <SCORE.SYSTEM>
0

>  <SCORE.SYSTEM.CONST>
0

>  <SCORE.SYSTEM.DIHEDRAL>
0

>  <SCORE.SYSTEM.SOLV>
0

>  <SCORE.SYSTEM.norm>
0

>  <SCORE.heavy>
40

>  <SCORE.norm>
-0.189123

>  <RMSD>
2.827

$$$$
1ntb_lig
 OpenBabel11021811403D
libRbt.so/2013.1/901 2013/11/27
 40 42  0  0  0  0  0  0  0  0999 V2000
    7.5240   35.3466    0.7556 C   0  0  0  0  0  0  0  0  0  0  0  0
    8.6913   35.3735    0.2391 N   0  0  0  0  0  0  0  0  0  0  0  0
   -1.1259   33.1097   -5.7699 C   0  0  0  0  0  0  0  0  0  0  0  0
   -2.1710   32.1526   -5.8154 O   0  0  0  0  0  0  0  0  0  0  0  0
    1.7678   36.2604   -0.8428 C   0  0  0  0  0  0  0  0  0  0  0  0
    1.9698   37.1572   -1.7412 N   0  0  0  0  0  0  0  0  0  0  0  0
   -0.6515   30.9289   -3.4037 C   0  0  0  0  0  0  0  0  0  0  0  0
   -4.0075   35.3552   -4.0433 C   0  0  0  0  0  0  0  0  0  0  0  0
    5.8560   34.5619   -0.7167 C   0  0  2  0  0  0  0  0  0  0  0  0
    6.7873   34.2969    0.4466 N   0  0  0  0  0  0  0  0  0  0  0  0
    1.3994   33.7747   -3.1786 C   0  0  2  0  0  0  0  0  0  0  0  0
   -0.9110   36.0948   -4.7252 C   0  0  1  0  0  0  0  0  0  0  0  0
   -0.1521   35.4313   -3.7312 O   0  0  0  0  0  0  0  0  0  0  0  0
    4.4118   34.6855   -0.2435 C   0  0  1  0  0  0  0  0  0  0  0  0
    4.4312   35.7989    0.7524 O   0  0  0  0  0  0  0  0  0  0  0  0
    0.4298   34.3087   -4.2171 C   0  0  2  0  0  0  0  0  0  0  0  0
   -2.0344   36.8474   -4.0542 C   0  0  1  0  0  0  0  0  0  0  0  0
   -2.8818   35.9367   -3.3687 N   0  0  0  0  0  0  0  0  0  0  0  0
    3.4280   34.9236   -1.3873 C   0  0  2  0  0  0  0  0  0  0  0  0
    2.0406   35.0532   -0.9923 N   0  0  0  0  0  0  0  0  0  0  0  0
   -0.5595   33.1842   -4.3712 C   0  0  1  0  0  0  0  0  0  0  0  0
   -1.6188   33.3309   -3.4196 O   0  0  0  0  0  0  0  0  0  0  0  0
   -1.4188   37.8218   -3.0641 C   0  0  2  0  0  0  0  0  0  0  0  0
   -2.4297   38.5472   -2.3990 O   0  0  0  0  0  0  0  0  0  0  0  0
    3.5458   33.7708   -2.3503 C   0  0  1  0  0  0  0  0  0  0  0  0
    2.7342   34.1563   -3.4944 O   0  0  0  0  0  0  0  0  0  0  0  0
    0.2247   31.9626   -4.0625 C   0  0  1  0  0  0  0  0  0  0  0  0
    1.2768   32.3504   -3.1760 O   0  0  0  0  0  0  0  0  0  0  0  0
   -0.5246   38.7672   -3.8666 C   0  0  1  0  0  0  0  0  0  0  0  0
    0.0953   39.7098   -3.0059 O   0  0  0  0  0  0  0  0  0  0  0  0
    5.0013   33.6642   -2.8798 C   0  0  2  0  0  0  0  0  0  0  0  0
    5.0868   32.5827   -3.7947 O   0  0  0  0  0  0  0  0  0  0  0  0
    0.5392   37.9446   -4.5943 C   0  0  1  0  0  0  0  0  0  0  0  0
   -0.0858   36.9970   -5.4584 O   0  0  0  0  0  0  0  0  0  0  0  0
    5.9585   33.4126   -1.6988 C   0  0  1  0  0  0  0  0  0  0  0  0
    7.3072   33.3115   -2.1712 O   0  0  0  0  0  0  0  0  0  0  0  0
    1.4136   38.8863   -5.4226 C   0  0  0  0  0  0  0  0  0  0  0  0
    2.2176   39.6635   -4.5496 O   0  0  0  0  0  0  0  0  0  0  0  0
    7.0803   36.2912    1.5084 N   0  0  0  0  0  0  0  0  0  0  0  0
    1.3241   36.5988    0.2686 N   0  0  0  0  0  0  0  0  0  0  0  0
  1  2  1  0  0  0  0
  1 39  1  0  0  0  0
  3  4  1  0  0  0  0
  5  6  1  0  0  0  0
  5 40  1  0  0  0  0
  9 10  1  1  0  0  0
  9 14  1  0  0  0  0
  9 35  1  0  0  0  0
 10  1  1  0  0  0  0
 11 16  1  0  0  0  0
 11 28  1  0  0  0  0
 11 26  1  6  0  0  0
 12 17  1  0  0  0  0
 12 34  1  0  0  0  0
 12 13  1  1  0  0  0
 14 15  1  1  0  0  0
 14 19  1  0  0  0  0
 16 13  1  1  0  0  0
 16 21  1  0  0  0  0
 17 18  1  1  0  0  0
 17 23  1  0  0  0  0
 18  8  1  0  0  0  0
 19 20  1  1  0  0  0
 19 25  1  0  0  0  0
 20  5  1  0  0  0  0
 21  3  1  6  0  0  0
 21 22  1  0  0  0  0
 21 27  1  0  0  0  0
 23 24  1  6  0  0  0
 23 29  1  0  0  0  0
 25 26  1  6  0  0  0
 25 31  1  0  0  0  0
 27  7  1  1  0  0  0
 27 28  1  0  0  0  0
 29 30  1  1  0  0  0
 29 33  1  0  0  0  0
 31 32  1  6  0  0  0
 31 35  1  0  0  0  0
 33 34  1  0  0  0  0
 33 37  1  6  0  0  0
 35 36  1  6  0  0  0
 37 38  1  0  0  0  0
M  END
>  <CHROM.1>
-107.13809485,-95.63453436,171.82485036,151.54102788,170.91045609,-90.20995141
94.14482357,53.88538004,-172.52566522,-84.98898631,70.39843412,1.76416783
35.26169478,-2.73017365,-0.03659709,-0.46441054,0.19710182

>  <Name>
1ntb_lig

>  <RI>
0

>  <Rbt.Current_Directory>
/home/itssahil/PROJECTS/Mol_Feturizer/New_Systems/rnas/1ntb

>  <Rbt.Executable>
rbdock ($Id: //depot/dev/client3/rdock/2013.1/src/exe/rbdock.cxx#4 $)

>  <Rbt.Library>
libRbt.so (2013.1, Build901 2013/11/27)

>  <Rbt.Parameter_File>
/export/apps/rDock/src/rDock_2013.1_src/data/scripts/dock_solv.prm

>  <Rbt.Receptor>
prm/pocket_docking_6.prm

>  <SCORE>
-20.1643

>  <SCORE.INTER>
-9.72585

>  <SCORE.INTER.CONST>
1

>  <SCORE.INTER.POLAR>
-1.49508

>  <SCORE.INTER.ROT>
11

>  <SCORE.INTER.SOLV>
19.0324

>  <SCORE.INTER.VDW>
-18.7778

>  <SCORE.INTER.norm>
-0.243146

>  <SCORE.INTRA>
-10.4385

>  <SCORE.INTRA.DIHEDRAL>
-4.14924

>  <SCORE.INTRA.DIHEDRAL.0>
15.4453

>  <SCORE.INTRA.POLAR>
0

>  <SCORE.INTRA.POLAR.0>
0

>  <SCORE.INTRA.REPUL>
-0.823958

>  <SCORE.INTRA.REPUL.0>
0.823958

>  <SCORE.INTRA.SOLV>
2.789

>  <SCORE.INTRA.SOLV.lig_0>
-99.3069

>  <SCORE.INTRA.VDW>
-5.63855

>  <SCORE.INTRA.VDW.0>
0.946495

>  <SCORE.INTRA.norm>
-0.260961

>  <SCORE.RESTR>
0

>  <SCORE.RESTR.CAVITY>
0

>  <SCORE.RESTR.norm>
0

>  <SCORE.SYSTEM>
0

>  <SCORE.SYSTEM.CONST>
0

>  <SCORE.SYSTEM.DIHEDRAL>
0

>  <SCORE.SYSTEM.SOLV>
0

>  <SCORE.SYSTEM.norm>
0

>  <SCORE.heavy>
40

>  <SCORE.norm>
-0.504108

>  <RMSD>
2.847

$$$$
1ntb_lig
 OpenBabel11021811403D
libRbt.so/2013.1/901 2013/11/27
 40 42  0  0  0  0  0  0  0  0999 V2000
    8.3951   32.8451   -1.8343 C   0  0  0  0  0  0  0  0  0  0  0  0
    8.5873   32.3745   -3.0055 N   0  0  0  0  0  0  0  0  0  0  0  0
   -1.7462   37.1846   -1.3940 C   0  0  0  0  0  0  0  0  0  0  0  0
   -1.3940   37.0819   -2.7636 O   0  0  0  0  0  0  0  0  0  0  0  0
    5.2224   37.2201    0.8104 C   0  0  0  0  0  0  0  0  0  0  0  0
    6.1926   37.2248    1.6534 N   0  0  0  0  0  0  0  0  0  0  0  0
   -1.4285   34.2166   -0.1017 C   0  0  0  0  0  0  0  0  0  0  0  0
   -1.3470   40.2322    2.4614 C   0  0  0  0  0  0  0  0  0  0  0  0
    6.2016   33.6740   -1.5755 C   0  0  2  0  0  0  0  0  0  0  0  0
    7.2167   32.5854   -1.3013 N   0  0  0  0  0  0  0  0  0  0  0  0
    1.6052   35.9408   -0.5247 C   0  0  2  0  0  0  0  0  0  0  0  0
    0.3617   39.3143   -0.1872 C   0  0  1  0  0  0  0  0  0  0  0  0
    0.9517   38.0758    0.1622 O   0  0  0  0  0  0  0  0  0  0  0  0
    5.8478   34.4261   -0.2972 C   0  0  1  0  0  0  0  0  0  0  0  0
    7.1505   34.9576    0.2049 O   0  0  0  0  0  0  0  0  0  0  0  0
    0.6733   37.1169   -0.7532 C   0  0  2  0  0  0  0  0  0  0  0  0
    0.5982   40.2964    0.9344 C   0  0  1  0  0  0  0  0  0  0  0  0
   -0.0128   39.8228    2.1259 N   0  0  0  0  0  0  0  0  0  0  0  0
    4.8020   35.5172   -0.5174 C   0  0  2  0  0  0  0  0  0  0  0  0
    4.4323   36.2668    0.6654 N   0  0  0  0  0  0  0  0  0  0  0  0
   -0.6917   36.5174   -0.5422 C   0  0  1  0  0  0  0  0  0  0  0  0
   -1.0532   36.5992    0.8405 O   0  0  0  0  0  0  0  0  0  0  0  0
    2.0987   40.4194    1.1398 C   0  0  2  0  0  0  0  0  0  0  0  0
    2.3764   41.3218    2.1882 O   0  0  0  0  0  0  0  0  0  0  0  0
    3.5637   34.8686   -1.0795 C   0  0  1  0  0  0  0  0  0  0  0  0
    2.6938   35.9769   -1.4416 O   0  0  0  0  0  0  0  0  0  0  0  0
   -0.5306   35.0951   -0.9339 C   0  0  1  0  0  0  0  0  0  0  0  0
    0.8381   34.7490   -0.7102 O   0  0  0  0  0  0  0  0  0  0  0  0
    2.6878   40.9319   -0.1746 C   0  0  1  0  0  0  0  0  0  0  0  0
    4.0960   41.0683   -0.0644 O   0  0  0  0  0  0  0  0  0  0  0  0
    3.8990   34.1409   -2.4093 C   0  0  2  0  0  0  0  0  0  0  0  0
    2.7177   33.5499   -2.9283 O   0  0  0  0  0  0  0  0  0  0  0  0
    2.3436   39.9447   -1.2902 C   0  0  1  0  0  0  0  0  0  0  0  0
    0.9276   39.8082   -1.3989 O   0  0  0  0  0  0  0  0  0  0  0  0
    4.9461   33.0426   -2.1420 C   0  0  1  0  0  0  0  0  0  0  0  0
    5.2665   32.3608   -3.3605 O   0  0  0  0  0  0  0  0  0  0  0  0
    2.9048   40.4729   -2.6106 C   0  0  0  0  0  0  0  0  0  0  0  0
    2.3008   41.7219   -2.9067 O   0  0  0  0  0  0  0  0  0  0  0  0
    9.2796   33.5490   -1.2194 N   0  0  0  0  0  0  0  0  0  0  0  0
    5.0052   38.2342    0.1240 N   0  0  0  0  0  0  0  0  0  0  0  0
  1  2  1  0  0  0  0
  1 39  1  0  0  0  0
  3  4  1  0  0  0  0
  5  6  1  0  0  0  0
  5 40  1  0  0  0  0
  9 10  1  1  0  0  0
  9 14  1  0  0  0  0
  9 35  1  0  0  0  0
 10  1  1  0  0  0  0
 11 16  1  0  0  0  0
 11 28  1  0  0  0  0
 11 26  1  6  0  0  0
 12 17  1  0  0  0  0
 12 34  1  0  0  0  0
 12 13  1  1  0  0  0
 14 15  1  6  0  0  0
 14 19  1  0  0  0  0
 16 13  1  1  0  0  0
 16 21  1  0  0  0  0
 17 18  1  1  0  0  0
 17 23  1  0  0  0  0
 18  8  1  0  0  0  0
 19 20  1  1  0  0  0
 19 25  1  0  0  0  0
 20  5  1  0  0  0  0
 21  3  1  6  0  0  0
 21 22  1  0  0  0  0
 21 27  1  0  0  0  0
 23 24  1  1  0  0  0
 23 29  1  0  0  0  0
 25 26  1  6  0  0  0
 25 31  1  0  0  0  0
 27  7  1  1  0  0  0
 27 28  1  0  0  0  0
 29 30  1  1  0  0  0
 29 33  1  0  0  0  0
 31 32  1  1  0  0  0
 31 35  1  0  0  0  0
 33 34  1  0  0  0  0
 33 37  1  6  0  0  0
 35 36  1  6  0  0  0
 37 38  1  0  0  0  0
M  END
>  <CHROM.1>
-111.16086238,-92.31516297,176.26674586,174.62412107,165.54798205,-93.08736114
86.99432790,-101.88315760,58.12501576,-110.67900143,-61.46693295,2.90695371
36.79863121,-0.66232995,-0.77977537,-0.03099964,0.31272927

>  <Name>
1ntb_lig

>  <RI>
0

>  <Rbt.Current_Directory>
/home/itssahil/PROJECTS/Mol_Feturizer/New_Systems/rnas/1ntb

>  <Rbt.Executable>
rbdock ($Id: //depot/dev/client3/rdock/2013.1/src/exe/rbdock.cxx#4 $)

>  <Rbt.Library>
libRbt.so (2013.1, Build901 2013/11/27)

>  <Rbt.Parameter_File>
/export/apps/rDock/src/rDock_2013.1_src/data/scripts/dock_solv.prm

>  <Rbt.Receptor>
prm/pocket_docking_4.prm

>  <SCORE>
-14.492

>  <SCORE.INTER>
-2.05906

>  <SCORE.INTER.CONST>
1

>  <SCORE.INTER.POLAR>
-1.08113

>  <SCORE.INTER.ROT>
11

>  <SCORE.INTER.SOLV>
18.2639

>  <SCORE.INTER.VDW>
-14.7902

>  <SCORE.INTER.norm>
-0.0514764

>  <SCORE.INTRA>
-12.4361

>  <SCORE.INTRA.DIHEDRAL>
-3.9731

>  <SCORE.INTRA.DIHEDRAL.0>
15.4453

>  <SCORE.INTRA.POLAR>
0

>  <SCORE.INTRA.POLAR.0>
0

>  <SCORE.INTRA.REPUL>
-0.820339

>  <SCORE.INTRA.REPUL.0>
0.823958

>  <SCORE.INTRA.SOLV>
0.909118

>  <SCORE.INTRA.SOLV.lig_0>
-99.3069

>  <SCORE.INTRA.VDW>
-6.80238

>  <SCORE.INTRA.VDW.0>
0.946495

>  <SCORE.INTRA.norm>
-0.310902

>  <SCORE.RESTR>
0.00313709

>  <SCORE.RESTR.CAVITY>
0.00313709

>  <SCORE.RESTR.norm>
7.84271e-05

>  <SCORE.SYSTEM>
0

>  <SCORE.SYSTEM.CONST>
0

>  <SCORE.SYSTEM.DIHEDRAL>
0

>  <SCORE.SYSTEM.SOLV>
0

>  <SCORE.SYSTEM.norm>
0

>  <SCORE.heavy>
40

>  <SCORE.norm>
-0.3623

>  <RMSD>
2.927

$$$$
1ntb_lig
 OpenBabel11021811403D
libRbt.so/2013.1/901 2013/11/27
 40 42  0  0  0  0  0  0  0  0999 V2000
   10.0235   33.2825   -1.1455 C   0  0  0  0  0  0  0  0  0  0  0  0
   10.8065   32.5200   -1.8056 N   0  0  0  0  0  0  0  0  0  0  0  0
   -0.6769   34.9160   -3.4220 C   0  0  0  0  0  0  0  0  0  0  0  0
   -0.0002   36.0361   -3.9678 O   0  0  0  0  0  0  0  0  0  0  0  0
    5.1193   36.3403    0.8160 C   0  0  0  0  0  0  0  0  0  0  0  0
    5.8298   36.5263    1.8708 N   0  0  0  0  0  0  0  0  0  0  0  0
    0.6298   32.1934   -4.6304 C   0  0  0  0  0  0  0  0  0  0  0  0
    1.9874   38.3952   -1.0355 C   0  0  0  0  0  0  0  0  0  0  0  0
    7.6764   33.4800   -1.2781 C   0  0  2  0  0  0  0  0  0  0  0  0
    8.8873   32.7357   -0.7580 N   0  0  0  0  0  0  0  0  0  0  0  0
    2.5572   33.7338   -2.1269 C   0  0  2  0  0  0  0  0  0  0  0  0
    1.7188   34.9877    0.2901 C   0  0  1  0  0  0  0  0  0  0  0  0
    0.8655   34.3364   -0.6329 O   0  0  0  0  0  0  0  0  0  0  0  0
    6.8107   33.9860   -0.1294 C   0  0  1  0  0  0  0  0  0  0  0  0
    7.7209   34.8492    0.6819 O   0  0  0  0  0  0  0  0  0  0  0  0
    1.2791   34.5230   -1.9092 C   0  0  2  0  0  0  0  0  0  0  0  0
    1.3432   36.4486    0.3485 C   0  0  1  0  0  0  0  0  0  0  0  0
    1.5195   37.0424   -0.9297 N   0  0  0  0  0  0  0  0  0  0  0  0
    5.5580   34.7190   -0.6048 C   0  0  2  0  0  0  0  0  0  0  0  0
    4.7012   35.2252    0.4475 N   0  0  0  0  0  0  0  0  0  0  0  0
    0.3272   33.9131   -2.9036 C   0  0  1  0  0  0  0  0  0  0  0  0
   -0.3511   32.8000   -2.3119 O   0  0  0  0  0  0  0  0  0  0  0  0
   -0.1162   36.5402    0.7611 C   0  0  2  0  0  0  0  0  0  0  0  0
   -0.5234   37.8897    0.8218 O   0  0  0  0  0  0  0  0  0  0  0  0
    4.7582   33.7690   -1.4579 C   0  0  1  0  0  0  0  0  0  0  0  0
    3.6954   34.5833   -2.0269 O   0  0  0  0  0  0  0  0  0  0  0  0
    1.2028   33.4382   -4.0037 C   0  0  1  0  0  0  0  0  0  0  0  0
    2.4818   33.1550   -3.4318 O   0  0  0  0  0  0  0  0  0  0  0  0
   -0.2318   35.8863    2.1382 C   0  0  1  0  0  0  0  0  0  0  0  0
   -1.5754   35.9269    2.5928 O   0  0  0  0  0  0  0  0  0  0  0  0
    5.6114   33.2846   -2.6611 C   0  0  2  0  0  0  0  0  0  0  0  0
    4.8356   32.4034   -3.4584 O   0  0  0  0  0  0  0  0  0  0  0  0
    0.2435   34.4364    2.0397 C   0  0  1  0  0  0  0  0  0  0  0  0
    1.5941   34.3974    1.5817 O   0  0  0  0  0  0  0  0  0  0  0  0
    6.8564   32.5414   -2.1397 C   0  0  1  0  0  0  0  0  0  0  0  0
    7.6550   32.0873   -3.2389 O   0  0  0  0  0  0  0  0  0  0  0  0
    0.1586   33.7915    3.4233 C   0  0  0  0  0  0  0  0  0  0  0  0
    0.3994   32.3986    3.3034 O   0  0  0  0  0  0  0  0  0  0  0  0
   10.3074   34.5121   -0.8938 N   0  0  0  0  0  0  0  0  0  0  0  0
    4.7705   37.3202    0.1343 N   0  0  0  0  0  0  0  0  0  0  0  0
  1  2  1  0  0  0  0
  1 39  1  0  0  0  0
  3  4  1  0  0  0  0
  5  6  1  0  0  0  0
  5 40  1  0  0  0  0
  9 10  1  1  0  0  0
  9 14  1  0  0  0  0
  9 35  1  0  0  0  0
 10  1  1  0  0  0  0
 11 16  1  0  0  0  0
 11 28  1  0  0  0  0
 11 26  1  6  0  0  0
 12 17  1  0  0  0  0
 12 34  1  0  0  0  0
 12 13  1  6  0  0  0
 14 15  1  1  0  0  0
 14 19  1  0  0  0  0
 16 13  1  1  0  0  0
 16 21  1  0  0  0  0
 17 18  1  6  0  0  0
 17 23  1  0  0  0  0
 18  8  1  0  0  0  0
 19 20  1  1  0  0  0
 19 25  1  0  0  0  0
 20  5  1  0  0  0  0
 21  3  1  6  0  0  0
 21 22  1  0  0  0  0
 21 27  1  0  0  0  0
 23 24  1  1  0  0  0
 23 29  1  0  0  0  0
 25 26  1  6  0  0  0
 25 31  1  0  0  0  0
 27  7  1  1  0  0  0
 27 28  1  0  0  0  0
 29 30  1  6  0  0  0
 29 33  1  0  0  0  0
 31 32  1  6  0  0  0
 31 35  1  0  0  0  0
 33 34  1  0  0  0  0
 33 37  1  1  0  0  0
 35 36  1  6  0  0  0
 37 38  1  0  0  0  0
M  END
>  <CHROM.1>
-120.31553149,-121.94734455,146.80246315,80.95496615,70.61812821,-143.96036203
84.75094291,-100.02103328,55.30554522,-145.93065211,171.12322386,3.35467725
34.52827151,-0.79607351,-0.24084220,-0.12288336,1.13167254

>  <Name>
1ntb_lig

>  <RI>
0

>  <Rbt.Current_Directory>
/home/itssahil/PROJECTS/Mol_Feturizer/New_Systems/rnas/1ntb

>  <Rbt.Executable>
rbdock ($Id: //depot/dev/client3/rdock/2013.1/src/exe/rbdock.cxx#4 $)

>  <Rbt.Library>
libRbt.so (2013.1, Build901 2013/11/27)

>  <Rbt.Parameter_File>
/export/apps/rDock/src/rDock_2013.1_src/data/scripts/dock_solv.prm

>  <Rbt.Receptor>
prm/pocket_docking_7.prm

>  <SCORE>
-19.6616

>  <SCORE.INTER>
-10.6152

>  <SCORE.INTER.CONST>
1

>  <SCORE.INTER.POLAR>
-1.16984

>  <SCORE.INTER.ROT>
11

>  <SCORE.INTER.SOLV>
24.7262

>  <SCORE.INTER.VDW>
-22.3528

>  <SCORE.INTER.norm>
-0.265381

>  <SCORE.INTRA>
-9.04637

>  <SCORE.INTRA.DIHEDRAL>
-0.62866

>  <SCORE.INTRA.DIHEDRAL.0>
15.4453

>  <SCORE.INTRA.POLAR>
0

>  <SCORE.INTRA.POLAR.0>
0

>  <SCORE.INTRA.REPUL>
-0.820508

>  <SCORE.INTRA.REPUL.0>
0.823958

>  <SCORE.INTRA.SOLV>
2.09458

>  <SCORE.INTRA.SOLV.lig_0>
-99.3069

>  <SCORE.INTRA.VDW>
-5.67679

>  <SCORE.INTRA.VDW.0>
0.946495

>  <SCORE.INTRA.norm>
-0.226159

>  <SCORE.RESTR>
0

>  <SCORE.RESTR.CAVITY>
0

>  <SCORE.RESTR.norm>
0

>  <SCORE.SYSTEM>
0

>  <SCORE.SYSTEM.CONST>
0

>  <SCORE.SYSTEM.DIHEDRAL>
0

>  <SCORE.SYSTEM.SOLV>
0

>  <SCORE.SYSTEM.norm>
0

>  <SCORE.heavy>
40

>  <SCORE.norm>
-0.49154

>  <RMSD>
2.983

$$$$
1ntb_lig
 OpenBabel11021811403D
libRbt.so/2013.1/901 2013/11/27
 40 42  0  0  0  0  0  0  0  0999 V2000
    9.1894   33.2700   -1.3427 C   0  0  0  0  0  0  0  0  0  0  0  0
    9.8214   32.6517   -2.2638 N   0  0  0  0  0  0  0  0  0  0  0  0
    0.7352   31.8744   -1.7213 C   0  0  0  0  0  0  0  0  0  0  0  0
   -0.1805   31.7714   -2.7989 O   0  0  0  0  0  0  0  0  0  0  0  0
    4.5993   36.8841    1.2462 C   0  0  0  0  0  0  0  0  0  0  0  0
    5.6822   37.4315    1.6701 N   0  0  0  0  0  0  0  0  0  0  0  0
    0.4650   33.0112    1.3143 C   0  0  0  0  0  0  0  0  0  0  0  0
   -0.5390   34.3785   -6.8411 C   0  0  0  0  0  0  0  0  0  0  0  0
    6.9033   33.8499   -1.2872 C   0  0  2  0  0  0  0  0  0  0  0  0
    7.9828   32.8110   -1.0716 N   0  0  0  0  0  0  0  0  0  0  0  0
    1.8771   35.2880   -0.9611 C   0  0  2  0  0  0  0  0  0  0  0  0
    1.1719   35.5266   -3.8926 C   0  0  1  0  0  0  0  0  0  0  0  0
    0.4962   34.9167   -2.8084 O   0  0  0  0  0  0  0  0  0  0  0  0
    6.2394   34.2302    0.0317 C   0  0  1  0  0  0  0  0  0  0  0  0
    7.3570   34.7215    0.8928 O   0  0  0  0  0  0  0  0  0  0  0  0
    1.3592   34.2858   -1.9766 C   0  0  2  0  0  0  0  0  0  0  0  0
    0.1667   35.8402   -4.9743 C   0  0  1  0  0  0  0  0  0  0  0  0
   -0.4370   34.6393   -5.4333 N   0  0  0  0  0  0  0  0  0  0  0  0
    5.1203   35.2555   -0.1380 C   0  0  2  0  0  0  0  0  0  0  0  0
    4.4580   35.6559    1.0862 N   0  0  0  0  0  0  0  0  0  0  0  0
    0.6662   33.2591   -1.1207 C   0  0  1  0  0  0  0  0  0  0  0  0
   -0.6988   33.6367   -0.9127 O   0  0  0  0  0  0  0  0  0  0  0  0
   -0.8920   36.7529   -4.3786 C   0  0  2  0  0  0  0  0  0  0  0  0
   -1.8660   37.0704   -5.3487 O   0  0  0  0  0  0  0  0  0  0  0  0
    4.0908   34.6712   -1.0701 C   0  0  1  0  0  0  0  0  0  0  0  0
    3.1661   35.7623   -1.3358 O   0  0  0  0  0  0  0  0  0  0  0  0
    1.3995   33.3032    0.1688 C   0  0  1  0  0  0  0  0  0  0  0  0
    1.9405   34.6196    0.3009 O   0  0  0  0  0  0  0  0  0  0  0  0
   -0.1755   38.0190   -3.9085 C   0  0  1  0  0  0  0  0  0  0  0  0
   -1.1023   38.9249   -3.3305 O   0  0  0  0  0  0  0  0  0  0  0  0
    4.7426   34.3258   -2.4362 C   0  0  2  0  0  0  0  0  0  0  0  0
    3.7541   33.7908   -3.3027 O   0  0  0  0  0  0  0  0  0  0  0  0
    0.8892   37.6333   -2.8811 C   0  0  1  0  0  0  0  0  0  0  0  0
    1.8194   36.7219   -3.4636 O   0  0  0  0  0  0  0  0  0  0  0  0
    5.8557   33.2818   -2.2230 C   0  0  1  0  0  0  0  0  0  0  0  0
    6.4677   32.9519   -3.4756 O   0  0  0  0  0  0  0  0  0  0  0  0
    1.6278   38.8953   -2.4346 C   0  0  0  0  0  0  0  0  0  0  0  0
    2.2940   39.4642   -3.5504 O   0  0  0  0  0  0  0  0  0  0  0  0
    9.6819   34.2905   -0.7330 N   0  0  0  0  0  0  0  0  0  0  0  0
    3.6023   37.5940    1.0256 N   0  0  0  0  0  0  0  0  0  0  0  0
  1  2  1  0  0  0  0
  1 39  1  0  0  0  0
  3  4  1  0  0  0  0
  5  6  1  0  0  0  0
  5 40  1  0  0  0  0
  9 10  1  1  0  0  0
  9 14  1  0  0  0  0
  9 35  1  0  0  0  0
 10  1  1  0  0  0  0
 11 16  1  0  0  0  0
 11 28  1  0  0  0  0
 11 26  1  6  0  0  0
 12 17  1  0  0  0  0
 12 34  1  0  0  0  0
 12 13  1  1  0  0  0
 14 15  1  1  0  0  0
 14 19  1  0  0  0  0
 16 13  1  6  0  0  0
 16 21  1  0  0  0  0
 17 18  1  1  0  0  0
 17 23  1  0  0  0  0
 18  8  1  0  0  0  0
 19 20  1  1  0  0  0
 19 25  1  0  0  0  0
 20  5  1  0  0  0  0
 21  3  1  6  0  0  0
 21 22  1  0  0  0  0
 21 27  1  0  0  0  0
 23 24  1  6  0  0  0
 23 29  1  0  0  0  0
 25 26  1  6  0  0  0
 25 31  1  0  0  0  0
 27  7  1  1  0  0  0
 27 28  1  0  0  0  0
 29 30  1  1  0  0  0
 29 33  1  0  0  0  0
 31 32  1  6  0  0  0
 31 35  1  0  0  0  0
 33 34  1  0  0  0  0
 33 37  1  6  0  0  0
 35 36  1  6  0  0  0
 37 38  1  0  0  0  0
M  END
>  <CHROM.1>
-114.06731925,-120.01988163,-73.57424806,163.17138598,86.58351489,-131.78514194
119.74415344,-77.31065812,-75.81763072,-123.60089562,-62.75230300,2.93855889
35.09285199,-1.92085236,0.10220547,0.44943438,-2.81055637

>  <Name>
1ntb_lig

>  <RI>
0

>  <Rbt.Current_Directory>
/home/itssahil/PROJECTS/Mol_Feturizer/New_Systems/rnas/1ntb

>  <Rbt.Executable>
rbdock ($Id: //depot/dev/client3/rdock/2013.1/src/exe/rbdock.cxx#4 $)

>  <Rbt.Library>
libRbt.so (2013.1, Build901 2013/11/27)

>  <Rbt.Parameter_File>
/export/apps/rDock/src/rDock_2013.1_src/data/scripts/dock_solv.prm

>  <Rbt.Receptor>
prm/pocket_docking_4.prm

>  <SCORE>
-19.2147

>  <SCORE.INTER>
-9.86046

>  <SCORE.INTER.CONST>
1

>  <SCORE.INTER.POLAR>
-0.831014

>  <SCORE.INTER.ROT>
11

>  <SCORE.INTER.SOLV>
22.4872

>  <SCORE.INTER.VDW>
-22.2326

>  <SCORE.INTER.norm>
-0.246511

>  <SCORE.INTRA>
-9.35423

>  <SCORE.INTRA.DIHEDRAL>
2.04285

>  <SCORE.INTRA.DIHEDRAL.0>
15.4453

>  <SCORE.INTRA.POLAR>
0

>  <SCORE.INTRA.POLAR.0>
0

>  <SCORE.INTRA.REPUL>
-0.821072

>  <SCORE.INTRA.REPUL.0>
0.823958

>  <SCORE.INTRA.SOLV>
-0.326748

>  <SCORE.INTRA.SOLV.lig_0>
-99.3069

>  <SCORE.INTRA.VDW>
-6.10693

>  <SCORE.INTRA.VDW.0>
0.946495

>  <SCORE.INTRA.norm>
-0.233856

>  <SCORE.RESTR>
0

>  <SCORE.RESTR.CAVITY>
0

>  <SCORE.RESTR.norm>
0

>  <SCORE.SYSTEM>
0

>  <SCORE.SYSTEM.CONST>
0

>  <SCORE.SYSTEM.DIHEDRAL>
0

>  <SCORE.SYSTEM.SOLV>
0

>  <SCORE.SYSTEM.norm>
0

>  <SCORE.heavy>
40

>  <SCORE.norm>
-0.480367

>  <RMSD>
3.003

$$$$
1ntb_lig
 OpenBabel11021811403D
libRbt.so/2013.1/901 2013/11/27
 40 42  0  0  0  0  0  0  0  0999 V2000
    8.5712   32.5443   -1.3497 C   0  0  0  0  0  0  0  0  0  0  0  0
    8.8442   32.8548   -2.5577 N   0  0  0  0  0  0  0  0  0  0  0  0
    0.2079   32.6116   -0.6093 C   0  0  0  0  0  0  0  0  0  0  0  0
    1.4894   32.0068   -0.6581 O   0  0  0  0  0  0  0  0  0  0  0  0
    5.3461   37.2764    0.8570 C   0  0  0  0  0  0  0  0  0  0  0  0
    6.5964   37.4766    1.0778 N   0  0  0  0  0  0  0  0  0  0  0  0
    0.2672   34.4829    2.0505 C   0  0  0  0  0  0  0  0  0  0  0  0
   -0.2038   33.5124   -5.7163 C   0  0  0  0  0  0  0  0  0  0  0  0
    6.4055   33.4797   -1.3692 C   0  0  2  0  0  0  0  0  0  0  0  0
    7.3013   32.2900   -1.0989 N   0  0  0  0  0  0  0  0  0  0  0  0
    1.8157   35.9171   -0.7604 C   0  0  2  0  0  0  0  0  0  0  0  0
    0.9865   35.5933   -3.6141 C   0  0  1  0  0  0  0  0  0  0  0  0
    0.2900   35.2982   -2.4175 O   0  0  0  0  0  0  0  0  0  0  0  0
    6.0748   34.2196   -0.0776 C   0  0  1  0  0  0  0  0  0  0  0  0
    7.4014   34.6064    0.4901 O   0  0  0  0  0  0  0  0  0  0  0  0
    1.1150   34.7777   -1.4777 C   0  0  2  0  0  0  0  0  0  0  0  0
   -0.0176   35.7721   -4.7269 C   0  0  1  0  0  0  0  0  0  0  0  0
   -0.7496   34.5691   -4.9127 N   0  0  0  0  0  0  0  0  0  0  0  0
    5.1466   35.4128   -0.2949 C   0  0  2  0  0  0  0  0  0  0  0  0
    4.8036   36.1549    0.9006 N   0  0  0  0  0  0  0  0  0  0  0  0
    0.3507   34.0970   -0.3733 C   0  0  1  0  0  0  0  0  0  0  0  0
   -0.9406   34.6980   -0.2299 O   0  0  0  0  0  0  0  0  0  0  0  0
   -0.9630   36.8928   -4.3283 C   0  0  2  0  0  0  0  0  0  0  0  0
   -1.9322   37.0957   -5.3334 O   0  0  0  0  0  0  0  0  0  0  0  0
    3.8753   34.9053   -0.9245 C   0  0  1  0  0  0  0  0  0  0  0  0
    3.1293   36.1035   -1.2766 O   0  0  0  0  0  0  0  0  0  0  0  0
    1.1602   34.3544    0.8436 C   0  0  1  0  0  0  0  0  0  0  0  0
    1.8702   35.5759    0.6267 O   0  0  0  0  0  0  0  0  0  0  0  0
   -0.1122   38.1500   -4.1469 C   0  0  1  0  0  0  0  0  0  0  0  0
   -0.9276   39.2471   -3.7656 O   0  0  0  0  0  0  0  0  0  0  0  0
    4.1920   34.1932   -2.2673 C   0  0  2  0  0  0  0  0  0  0  0  0
    2.9813   33.7361   -2.8497 O   0  0  0  0  0  0  0  0  0  0  0  0
    0.9424   37.8837   -3.0723 C   0  0  1  0  0  0  0  0  0  0  0  0
    1.7605   36.7801   -3.4569 O   0  0  0  0  0  0  0  0  0  0  0  0
    5.1190   32.9911   -2.0031 C   0  0  1  0  0  0  0  0  0  0  0  0
    5.4208   32.3224   -3.2336 O   0  0  0  0  0  0  0  0  0  0  0  0
    1.8140   39.1297   -2.9133 C   0  0  0  0  0  0  0  0  0  0  0  0
    1.1084   40.0977   -2.1533 O   0  0  0  0  0  0  0  0  0  0  0  0
    9.4678   32.5052   -0.4275 N   0  0  0  0  0  0  0  0  0  0  0  0
    4.6019   38.2481    0.6365 N   0  0  0  0  0  0  0  0  0  0  0  0
  1  2  1  0  0  0  0
  1 39  1  0  0  0  0
  3  4  1  0  0  0  0
  5  6  1  0  0  0  0
  5 40  1  0  0  0  0
  9 10  1  1  0  0  0
  9 14  1  0  0  0  0
  9 35  1  0  0  0  0
 10  1  1  0  0  0  0
 11 16  1  0  0  0  0
 11 28  1  0  0  0  0
 11 26  1  6  0  0  0
 12 17  1  0  0  0  0
 12 34  1  0  0  0  0
 12 13  1  1  0  0  0
 14 15  1  6  0  0  0
 14 19  1  0  0  0  0
 16 13  1  6  0  0  0
 16 21  1  0  0  0  0
 17 18  1  1  0  0  0
 17 23  1  0  0  0  0
 18  8  1  0  0  0  0
 19 20  1  1  0  0  0
 19 25  1  0  0  0  0
 20  5  1  0  0  0  0
 21  3  1  6  0  0  0
 21 22  1  0  0  0  0
 21 27  1  0  0  0  0
 23 24  1  6  0  0  0
 23 29  1  0  0  0  0
 25 26  1  6  0  0  0
 25 31  1  0  0  0  0
 27  7  1  1  0  0  0
 27 28  1  0  0  0  0
 29 30  1  1  0  0  0
 29 33  1  0  0  0  0
 31 32  1  1  0  0  0
 31 35  1  0  0  0  0
 33 34  1  0  0  0  0
 33 37  1  6  0  0  0
 35 36  1  6  0  0  0
 37 38  1  0  0  0  0
M  END
>  <CHROM.1>
-99.25033670,-61.29390063,-66.03348832,163.42021869,83.36799646,-83.14655710
110.78324077,-75.80970567,61.21143651,-130.24711274,77.60121705,2.81243423
35.26158868,-1.68927039,0.18497035,0.47044681,-2.72821569

>  <Name>
1ntb_lig

>  <RI>
0

>  <Rbt.Current_Directory>
/home/itssahil/PROJECTS/Mol_Feturizer/New_Systems/rnas/1ntb

>  <Rbt.Executable>
rbdock ($Id: //depot/dev/client3/rdock/2013.1/src/exe/rbdock.cxx#4 $)

>  <Rbt.Library>
libRbt.so (2013.1, Build901 2013/11/27)

>  <Rbt.Parameter_File>
/export/apps/rDock/src/rDock_2013.1_src/data/scripts/dock_solv.prm

>  <Rbt.Receptor>
prm/pocket_docking_3.prm

>  <SCORE>
-17.6599

>  <SCORE.INTER>
-9.61519

>  <SCORE.INTER.CONST>
1

>  <SCORE.INTER.POLAR>
-1.57008

>  <SCORE.INTER.ROT>
11

>  <SCORE.INTER.SOLV>
23.6411

>  <SCORE.INTER.VDW>
-19.9902

>  <SCORE.INTER.norm>
-0.24038

>  <SCORE.INTRA>
-8.04481

>  <SCORE.INTRA.DIHEDRAL>
0.124217

>  <SCORE.INTRA.DIHEDRAL.0>
15.4453

>  <SCORE.INTRA.POLAR>
0

>  <SCORE.INTRA.POLAR.0>
0

>  <SCORE.INTRA.REPUL>
-0.808127

>  <SCORE.INTRA.REPUL.0>
0.823958

>  <SCORE.INTRA.SOLV>
-0.249322

>  <SCORE.INTRA.SOLV.lig_0>
-99.3069

>  <SCORE.INTRA.VDW>
-3.94163

>  <SCORE.INTRA.VDW.0>
0.946495

>  <SCORE.INTRA.norm>
-0.20112

>  <SCORE.RESTR>
6.58172e-05

>  <SCORE.RESTR.CAVITY>
6.58172e-05

>  <SCORE.RESTR.norm>
1.64543e-06

>  <SCORE.SYSTEM>
0

>  <SCORE.SYSTEM.CONST>
0

>  <SCORE.SYSTEM.DIHEDRAL>
0

>  <SCORE.SYSTEM.SOLV>
0

>  <SCORE.SYSTEM.norm>
0

>  <SCORE.heavy>
40

>  <SCORE.norm>
-0.441499

>  <RMSD>
3.224

$$$$
1ntb_lig
 OpenBabel11021811403D
libRbt.so/2013.1/901 2013/11/27
 40 42  0  0  0  0  0  0  0  0999 V2000
    8.5242   32.4774   -1.6401 C   0  0  0  0  0  0  0  0  0  0  0  0
    9.4437   32.6738   -0.7762 N   0  0  0  0  0  0  0  0  0  0  0  0
    0.2645   32.6269   -0.4736 C   0  0  0  0  0  0  0  0  0  0  0  0
    1.5521   32.0491   -0.6096 O   0  0  0  0  0  0  0  0  0  0  0  0
    5.3610   37.3022    0.8095 C   0  0  0  0  0  0  0  0  0  0  0  0
    4.7940   38.3484    0.3237 N   0  0  0  0  0  0  0  0  0  0  0  0
    0.3191   34.6076    2.1060 C   0  0  0  0  0  0  0  0  0  0  0  0
   -0.2317   33.5158   -5.8582 C   0  0  0  0  0  0  0  0  0  0  0  0
    6.4112   33.5031   -1.4187 C   0  0  2  0  0  0  0  0  0  0  0  0
    7.3092   32.3140   -1.1530 N   0  0  0  0  0  0  0  0  0  0  0  0
    1.8274   35.9437   -0.7742 C   0  0  2  0  0  0  0  0  0  0  0  0
    0.9916   35.5508   -3.5853 C   0  0  1  0  0  0  0  0  0  0  0  0
    0.2975   35.2371   -2.3920 O   0  0  0  0  0  0  0  0  0  0  0  0
    6.0880   34.2437   -0.1257 C   0  0  1  0  0  0  0  0  0  0  0  0
    7.4179   34.6316    0.4337 O   0  0  0  0  0  0  0  0  0  0  0  0
    1.1364   34.7666   -1.4381 C   0  0  2  0  0  0  0  0  0  0  0  0
   -0.0107   35.6931   -4.7049 C   0  0  1  0  0  0  0  0  0  0  0  0
   -0.7020   34.4664   -4.8911 N   0  0  0  0  0  0  0  0  0  0  0  0
    5.1580   35.4364   -0.3383 C   0  0  2  0  0  0  0  0  0  0  0  0
    4.8219   36.1792    0.8587 N   0  0  0  0  0  0  0  0  0  0  0  0
    0.3895   34.1226   -0.3004 C   0  0  1  0  0  0  0  0  0  0  0  0
   -0.9085   34.7123   -0.1716 O   0  0  0  0  0  0  0  0  0  0  0  0
   -0.9946   36.7838   -4.3161 C   0  0  2  0  0  0  0  0  0  0  0  0
   -1.9635   36.9518   -5.3278 O   0  0  0  0  0  0  0  0  0  0  0  0
    3.8832   34.9278   -0.9598 C   0  0  1  0  0  0  0  0  0  0  0  0
    3.1345   36.1255   -1.3083 O   0  0  0  0  0  0  0  0  0  0  0  0
    1.2046   34.4406    0.8983 C   0  0  1  0  0  0  0  0  0  0  0  0
    1.8968   35.6611    0.6253 O   0  0  0  0  0  0  0  0  0  0  0  0
   -0.1862   38.0686   -4.1337 C   0  0  1  0  0  0  0  0  0  0  0  0
   -1.0392   39.1398   -3.7613 O   0  0  0  0  0  0  0  0  0  0  0  0
    4.1920   34.2149   -2.3039 C   0  0  2  0  0  0  0  0  0  0  0  0
    2.9780   33.7568   -2.8787 O   0  0  0  0  0  0  0  0  0  0  0  0
    0.8697   37.8403   -3.0517 C   0  0  1  0  0  0  0  0  0  0  0  0
    1.7257   36.7626   -3.4274 O   0  0  0  0  0  0  0  0  0  0  0  0
    5.1211   33.0133   -2.0445 C   0  0  1  0  0  0  0  0  0  0  0  0
    5.4158   32.3439   -3.2762 O   0  0  0  0  0  0  0  0  0  0  0  0
    1.6993   39.1145   -2.8916 C   0  0  0  0  0  0  0  0  0  0  0  0
    2.3479   39.4051   -4.1193 O   0  0  0  0  0  0  0  0  0  0  0  0
    8.7649   32.4163   -2.9026 N   0  0  0  0  0  0  0  0  0  0  0  0
    6.5352   37.3757    1.2126 N   0  0  0  0  0  0  0  0  0  0  0  0
  1  2  1  0  0  0  0
  1 39  1  0  0  0  0
  3  4  1  0  0  0  0
  5  6  1  0  0  0  0
  5 40  1  0  0  0  0
  9 10  1  1  0  0  0
  9 14  1  0  0  0  0
  9 35  1  0  0  0  0
 10  1  1  0  0  0  0
 11 16  1  0  0  0  0
 11 28  1  0  0  0  0
 11 26  1  6  0  0  0
 12 17  1  0  0  0  0
 12 34  1  0  0  0  0
 12 13  1  1  0  0  0
 14 15  1  6  0  0  0
 14 19  1  0  0  0  0
 16 13  1  6  0  0  0
 16 21  1  0  0  0  0
 17 18  1  1  0  0  0
 17 23  1  0  0  0  0
 18  8  1  0  0  0  0
 19 20  1  1  0  0  0
 19 25  1  0  0  0  0
 20  5  1  0  0  0  0
 21  3  1  6  0  0  0
 21 22  1  0  0  0  0
 21 27  1  0  0  0  0
 23 24  1  6  0  0  0
 23 29  1  0  0  0  0
 25 26  1  6  0  0  0
 25 31  1  0  0  0  0
 27  7  1  1  0  0  0
 27 28  1  0  0  0  0
 29 30  1  1  0  0  0
 29 33  1  0  0  0  0
 31 32  1  1  0  0  0
 31 35  1  0  0  0  0
 33 34  1  0  0  0  0
 33 37  1  6  0  0  0
 35 36  1  6  0  0  0
 37 38  1  0  0  0  0
M  END
>  <CHROM.1>
-111.11091196,108.12580867,-63.76707363,164.39337888,80.59589755,-93.51883061
110.94244888,91.75859185,56.80120588,-129.77103048,-60.95866012,2.84700071
35.23163177,-1.77397781,0.13428056,0.47695100,-2.65075844

>  <Name>
1ntb_lig

>  <RI>
0

>  <Rbt.Current_Directory>
/home/itssahil/PROJECTS/Mol_Feturizer/New_Systems/rnas/1ntb

>  <Rbt.Executable>
rbdock ($Id: //depot/dev/client3/rdock/2013.1/src/exe/rbdock.cxx#4 $)

>  <Rbt.Library>
libRbt.so (2013.1, Build901 2013/11/27)

>  <Rbt.Parameter_File>
/export/apps/rDock/src/rDock_2013.1_src/data/scripts/dock_solv.prm

>  <Rbt.Receptor>
prm/pocket_docking_3.prm

>  <SCORE>
-18.6339

>  <SCORE.INTER>
-9.66681

>  <SCORE.INTER.CONST>
1

>  <SCORE.INTER.POLAR>
-1.55266

>  <SCORE.INTER.ROT>
11

>  <SCORE.INTER.SOLV>
24.0048

>  <SCORE.INTER.VDW>
-20.204

>  <SCORE.INTER.norm>
-0.24167

>  <SCORE.INTRA>
-8.97302

>  <SCORE.INTRA.DIHEDRAL>
-1.54464

>  <SCORE.INTRA.DIHEDRAL.0>
15.4453

>  <SCORE.INTRA.POLAR>
0

>  <SCORE.INTRA.POLAR.0>
0

>  <SCORE.INTRA.REPUL>
-0.809377

>  <SCORE.INTRA.REPUL.0>
0.823958

>  <SCORE.INTRA.SOLV>
-0.33568

>  <SCORE.INTRA.SOLV.lig_0>
-99.3069

>  <SCORE.INTRA.VDW>
-3.98597

>  <SCORE.INTRA.VDW.0>
0.946495

>  <SCORE.INTRA.norm>
-0.224325

>  <SCORE.RESTR>
0.00595844

>  <SCORE.RESTR.CAVITY>
0.00595844

>  <SCORE.RESTR.norm>
0.000148961

>  <SCORE.SYSTEM>
0

>  <SCORE.SYSTEM.CONST>
0

>  <SCORE.SYSTEM.DIHEDRAL>
0

>  <SCORE.SYSTEM.SOLV>
0

>  <SCORE.SYSTEM.norm>
0

>  <SCORE.heavy>
40

>  <SCORE.norm>
-0.465847

>  <RMSD>
3.269

$$$$
1ntb_lig
 OpenBabel11021811403D
libRbt.so/2013.1/901 2013/11/27
 40 42  0  0  0  0  0  0  0  0999 V2000
    8.3893   32.6843   -2.1479 C   0  0  0  0  0  0  0  0  0  0  0  0
    9.4491   33.1598   -1.6180 N   0  0  0  0  0  0  0  0  0  0  0  0
   -1.6766   36.7359   -1.7213 C   0  0  0  0  0  0  0  0  0  0  0  0
   -2.8976   36.0222   -1.6213 O   0  0  0  0  0  0  0  0  0  0  0  0
    5.3418   37.2908    0.8121 C   0  0  0  0  0  0  0  0  0  0  0  0
    6.3952   37.4272    1.5358 N   0  0  0  0  0  0  0  0  0  0  0  0
   -1.1895   33.7686   -0.4813 C   0  0  0  0  0  0  0  0  0  0  0  0
    1.8731   39.3042   -3.4764 C   0  0  0  0  0  0  0  0  0  0  0  0
    6.3301   33.6792   -1.5683 C   0  0  2  0  0  0  0  0  0  0  0  0
    7.3472   32.5806   -1.3456 N   0  0  0  0  0  0  0  0  0  0  0  0
    1.6683   35.8152   -0.4971 C   0  0  2  0  0  0  0  0  0  0  0  0
    1.7824   38.7417   -0.0609 C   0  0  1  0  0  0  0  0  0  0  0  0
    0.7134   37.8416    0.1655 O   0  0  0  0  0  0  0  0  0  0  0  0
    6.0263   34.4147   -0.2677 C   0  0  1  0  0  0  0  0  0  0  0  0
    7.3493   34.9311    0.1958 O   0  0  0  0  0  0  0  0  0  0  0  0
    0.6469   36.8957   -0.8019 C   0  0  2  0  0  0  0  0  0  0  0  0
    1.3539   39.7502   -1.0991 C   0  0  1  0  0  0  0  0  0  0  0  0
    1.0527   39.0874   -2.3187 N   0  0  0  0  0  0  0  0  0  0  0  0
    4.9805   35.5151   -0.4353 C   0  0  2  0  0  0  0  0  0  0  0  0
    4.6575   36.2496    0.7704 N   0  0  0  0  0  0  0  0  0  0  0  0
   -0.6604   36.1493   -0.7695 C   0  0  1  0  0  0  0  0  0  0  0  0
   -1.1842   36.1383    0.5626 O   0  0  0  0  0  0  0  0  0  0  0  0
    0.1145   40.4589   -0.5793 C   0  0  2  0  0  0  0  0  0  0  0  0
   -0.3358   41.4096   -1.5195 O   0  0  0  0  0  0  0  0  0  0  0  0
    3.7191   34.8821   -0.9627 C   0  0  1  0  0  0  0  0  0  0  0  0
    2.8442   36.0008   -1.2780 O   0  0  0  0  0  0  0  0  0  0  0  0
   -0.3027   34.7681   -1.1778 C   0  0  1  0  0  0  0  0  0  0  0  0
    1.0609   34.5581   -0.8039 O   0  0  0  0  0  0  0  0  0  0  0  0
    0.5098   41.1473    0.7272 C   0  0  1  0  0  0  0  0  0  0  0  0
   -0.6035   41.8307    1.2817 O   0  0  0  0  0  0  0  0  0  0  0  0
    4.0027   34.1719   -2.3137 C   0  0  2  0  0  0  0  0  0  0  0  0
    2.8001   33.5955   -2.7993 O   0  0  0  0  0  0  0  0  0  0  0  0
    1.0178   40.0915    1.7096 C   0  0  1  0  0  0  0  0  0  0  0  0
    2.1363   39.4051    1.1502 O   0  0  0  0  0  0  0  0  0  0  0  0
    5.0515   33.0635   -2.0992 C   0  0  1  0  0  0  0  0  0  0  0  0
    5.3244   32.3976   -3.3379 O   0  0  0  0  0  0  0  0  0  0  0  0
    1.4436   40.7833    3.0049 C   0  0  0  0  0  0  0  0  0  0  0  0
    2.5176   41.6680    2.7289 O   0  0  0  0  0  0  0  0  0  0  0  0
    8.3420   32.3054   -3.3767 N   0  0  0  0  0  0  0  0  0  0  0  0
    4.9299   38.2564    0.1454 N   0  0  0  0  0  0  0  0  0  0  0  0
  1  2  1  0  0  0  0
  1 39  1  0  0  0  0
  3  4  1  0  0  0  0
  5  6  1  0  0  0  0
  5 40  1  0  0  0  0
  9 10  1  1  0  0  0
  9 14  1  0  0  0  0
  9 35  1  0  0  0  0
 10  1  1  0  0  0  0
 11 16  1  0  0  0  0
 11 28  1  0  0  0  0
 11 26  1  6  0  0  0
 12 17  1  0  0  0  0
 12 34  1  0  0  0  0
 12 13  1  1  0  0  0
 14 15  1  6  0  0  0
 14 19  1  0  0  0  0
 16 13  1  1  0  0  0
 16 21  1  0  0  0  0
 17 18  1  6  0  0  0
 17 23  1  0  0  0  0
 18  8  1  0  0  0  0
 19 20  1  1  0  0  0
 19 25  1  0  0  0  0
 20  5  1  0  0  0  0
 21  3  1  6  0  0  0
 21 22  1  0  0  0  0
 21 27  1  0  0  0  0
 23 24  1  6  0  0  0
 23 29  1  0  0  0  0
 25 26  1  6  0  0  0
 25 31  1  0  0  0  0
 27  7  1  1  0  0  0
 27 28  1  0  0  0  0
 29 30  1  1  0  0  0
 29 33  1  0  0  0  0
 31 32  1  1  0  0  0
 31 35  1  0  0  0  0
 33 34  1  0  0  0  0
 33 37  1  1  0  0  0
 35 36  1  6  0  0  0
 37 38  1  0  0  0  0
M  END
>  <CHROM.1>
-125.50004527,102.65485193,-177.07996123,79.79000745,80.79389873,-113.41964993
95.49555147,-101.50805627,-178.26080388,-121.35145553,-62.64645920,2.75219970
36.65257444,-0.63713258,-0.75685639,-0.15397380,0.45647319

>  <Name>
1ntb_lig

>  <RI>
0

>  <Rbt.Current_Directory>
/home/itssahil/PROJECTS/Mol_Feturizer/New_Systems/rnas/1ntb

>  <Rbt.Executable>
rbdock ($Id: //depot/dev/client3/rdock/2013.1/src/exe/rbdock.cxx#4 $)

>  <Rbt.Library>
libRbt.so (2013.1, Build901 2013/11/27)

>  <Rbt.Parameter_File>
/export/apps/rDock/src/rDock_2013.1_src/data/scripts/dock_solv.prm

>  <Rbt.Receptor>
prm/pocket_docking_5.prm

>  <SCORE>
-12.6028

>  <SCORE.INTER>
-2.44886

>  <SCORE.INTER.CONST>
1

>  <SCORE.INTER.POLAR>
-1.02129

>  <SCORE.INTER.ROT>
11

>  <SCORE.INTER.SOLV>
19.0323

>  <SCORE.INTER.VDW>
-15.5057

>  <SCORE.INTER.norm>
-0.0612214

>  <SCORE.INTRA>
-10.154

>  <SCORE.INTRA.DIHEDRAL>
-0.313038

>  <SCORE.INTRA.DIHEDRAL.0>
15.4453

>  <SCORE.INTRA.POLAR>
0

>  <SCORE.INTRA.POLAR.0>
0

>  <SCORE.INTRA.REPUL>
-0.823958

>  <SCORE.INTRA.REPUL.0>
0.823958

>  <SCORE.INTRA.SOLV>
0.270618

>  <SCORE.INTRA.SOLV.lig_0>
-99.3069

>  <SCORE.INTRA.VDW>
-6.01295

>  <SCORE.INTRA.VDW.0>
0.946495

>  <SCORE.INTRA.norm>
-0.253849

>  <SCORE.RESTR>
0

>  <SCORE.RESTR.CAVITY>
0

>  <SCORE.RESTR.norm>
0

>  <SCORE.SYSTEM>
0

>  <SCORE.SYSTEM.CONST>
0

>  <SCORE.SYSTEM.DIHEDRAL>
0

>  <SCORE.SYSTEM.SOLV>
0

>  <SCORE.SYSTEM.norm>
0

>  <SCORE.heavy>
40

>  <SCORE.norm>
-0.31507

>  <RMSD>
3.289

$$$$
1ntb_lig
 OpenBabel11021811403D
libRbt.so/2013.1/901 2013/11/27
 40 42  0  0  0  0  0  0  0  0999 V2000
    9.7628   33.0749   -1.9910 C   0  0  0  0  0  0  0  0  0  0  0  0
    9.8688   32.1051   -2.8147 N   0  0  0  0  0  0  0  0  0  0  0  0
   -0.9449   34.5171   -3.2633 C   0  0  0  0  0  0  0  0  0  0  0  0
   -1.9763   34.2695   -2.3224 O   0  0  0  0  0  0  0  0  0  0  0  0
    5.2347   36.5415    0.7132 C   0  0  0  0  0  0  0  0  0  0  0  0
    5.0483   37.6428    0.0773 N   0  0  0  0  0  0  0  0  0  0  0  0
    0.7862   32.4640   -5.0986 C   0  0  0  0  0  0  0  0  0  0  0  0
    1.7260   37.2232   -0.8678 C   0  0  0  0  0  0  0  0  0  0  0  0
    7.5176   33.6299   -1.5253 C   0  0  2  0  0  0  0  0  0  0  0  0
    8.8035   32.9586   -1.0930 N   0  0  0  0  0  0  0  0  0  0  0  0
    2.4666   33.6066   -2.2304 C   0  0  2  0  0  0  0  0  0  0  0  0
    1.0629   34.3221    0.4270 C   0  0  1  0  0  0  0  0  0  0  0  0
    0.7240   33.5046   -0.6780 O   0  0  0  0  0  0  0  0  0  0  0  0
    6.7773   34.2155   -0.3279 C   0  0  1  0  0  0  0  0  0  0  0  0
    7.7493   35.1644    0.2939 O   0  0  0  0  0  0  0  0  0  0  0  0
    1.0765   34.0833   -1.8509 C   0  0  2  0  0  0  0  0  0  0  0  0
    0.2832   35.6112    0.3322 C   0  0  1  0  0  0  0  0  0  0  0  0
    0.6297   36.2966   -0.8626 N   0  0  0  0  0  0  0  0  0  0  0  0
    5.4556   34.8786   -0.7101 C   0  0  2  0  0  0  0  0  0  0  0  0
    4.7128   35.4562    0.3910 N   0  0  0  0  0  0  0  0  0  0  0  0
    0.2251   33.5997   -2.9947 C   0  0  1  0  0  0  0  0  0  0  0  0
   -0.2419   32.2728   -2.7297 O   0  0  0  0  0  0  0  0  0  0  0  0
   -1.1957   35.2632    0.3149 C   0  0  2  0  0  0  0  0  0  0  0  0
   -1.9730   36.4366    0.2168 O   0  0  0  0  0  0  0  0  0  0  0  0
    4.5910   33.8418   -1.3792 C   0  0  1  0  0  0  0  0  0  0  0  0
    3.4443   34.5816   -1.8833 O   0  0  0  0  0  0  0  0  0  0  0  0
    1.1490   33.5822   -4.1560 C   0  0  1  0  0  0  0  0  0  0  0  0
    2.4677   33.3819   -3.6421 O   0  0  0  0  0  0  0  0  0  0  0  0
   -1.4968   34.5323    1.6236 C   0  0  1  0  0  0  0  0  0  0  0  0
   -2.8666   34.1662    1.6806 O   0  0  0  0  0  0  0  0  0  0  0  0
    5.3119   33.2727   -2.6308 C   0  0  2  0  0  0  0  0  0  0  0  0
    4.4755   32.3098   -3.2533 O   0  0  0  0  0  0  0  0  0  0  0  0
   -0.6177   33.2841    1.7075 C   0  0  1  0  0  0  0  0  0  0  0  0
    0.7589   33.6541    1.6491 O   0  0  0  0  0  0  0  0  0  0  0  0
    6.6316   32.6034   -2.2014 C   0  0  1  0  0  0  0  0  0  0  0  0
    7.3096   32.0723   -3.3463 O   0  0  0  0  0  0  0  0  0  0  0  0
   -0.8951   32.5703    3.0307 C   0  0  0  0  0  0  0  0  0  0  0  0
   -2.1313   31.8808    2.9376 O   0  0  0  0  0  0  0  0  0  0  0  0
   10.5226   34.1120   -2.0444 N   0  0  0  0  0  0  0  0  0  0  0  0
    6.0184   36.5190    1.6786 N   0  0  0  0  0  0  0  0  0  0  0  0
  1  2  1  0  0  0  0
  1 39  1  0  0  0  0
  3  4  1  0  0  0  0
  5  6  1  0  0  0  0
  5 40  1  0  0  0  0
  9 10  1  1  0  0  0
  9 14  1  0  0  0  0
  9 35  1  0  0  0  0
 10  1  1  0  0  0  0
 11 16  1  0  0  0  0
 11 28  1  0  0  0  0
 11 26  1  6  0  0  0
 12 17  1  0  0  0  0
 12 34  1  0  0  0  0
 12 13  1  6  0  0  0
 14 15  1  6  0  0  0
 14 19  1  0  0  0  0
 16 13  1  1  0  0  0
 16 21  1  0  0  0  0
 17 18  1  6  0  0  0
 17 23  1  0  0  0  0
 18  8  1  0  0  0  0
 19 20  1  1  0  0  0
 19 25  1  0  0  0  0
 20  5  1  0  0  0  0
 21  3  1  6  0  0  0
 21 22  1  0  0  0  0
 21 27  1  0  0  0  0
 23 24  1  1  0  0  0
 23 29  1  0  0  0  0
 25 26  1  6  0  0  0
 25 31  1  0  0  0  0
 27  7  1  6  0  0  0
 27 28  1  0  0  0  0
 29 30  1  6  0  0  0
 29 33  1  0  0  0  0
 31 32  1  1  0  0  0
 31 35  1  0  0  0  0
 33 34  1  0  0  0  0
 33 37  1  1  0  0  0
 35 36  1  6  0  0  0
 37 38  1  0  0  0  0
M  END
>  <CHROM.1>
-146.18731772,-93.91771681,140.84637397,62.82572884,92.58357713,-89.10491874
77.18625568,79.46668819,-79.08094578,-166.36224798,76.12125036,2.88563399
34.12083250,-0.97155168,0.19743531,-0.04089805,-2.01782784

>  <Name>
1ntb_lig

>  <RI>
0

>  <Rbt.Current_Directory>
/home/itssahil/PROJECTS/Mol_Feturizer/New_Systems/rnas/1ntb

>  <Rbt.Executable>
rbdock ($Id: //depot/dev/client3/rdock/2013.1/src/exe/rbdock.cxx#4 $)

>  <Rbt.Library>
libRbt.so (2013.1, Build901 2013/11/27)

>  <Rbt.Parameter_File>
/export/apps/rDock/src/rDock_2013.1_src/data/scripts/dock_solv.prm

>  <Rbt.Receptor>
prm/pocket_docking_4.prm

>  <SCORE>
-10.4105

>  <SCORE.INTER>
-7.23869

>  <SCORE.INTER.CONST>
1

>  <SCORE.INTER.POLAR>
-1.25763

>  <SCORE.INTER.ROT>
11

>  <SCORE.INTER.SOLV>
21.9881

>  <SCORE.INTER.VDW>
-18.8964

>  <SCORE.INTER.norm>
-0.180967

>  <SCORE.INTRA>
-3.2229

>  <SCORE.INTRA.DIHEDRAL>
-0.587314

>  <SCORE.INTRA.DIHEDRAL.0>
15.4453

>  <SCORE.INTRA.POLAR>
0

>  <SCORE.INTRA.POLAR.0>
0

>  <SCORE.INTRA.REPUL>
-0.823958

>  <SCORE.INTRA.REPUL.0>
0.823958

>  <SCORE.INTRA.SOLV>
1.47845

>  <SCORE.INTRA.SOLV.lig_0>
-99.3069

>  <SCORE.INTRA.VDW>
0.451325

>  <SCORE.INTRA.VDW.0>
0.946495

>  <SCORE.INTRA.norm>
-0.0805724

>  <SCORE.RESTR>
0.0511075

>  <SCORE.RESTR.CAVITY>
0.0511075

>  <SCORE.RESTR.norm>
0.00127769

>  <SCORE.SYSTEM>
0

>  <SCORE.SYSTEM.CONST>
0

>  <SCORE.SYSTEM.DIHEDRAL>
0

>  <SCORE.SYSTEM.SOLV>
0

>  <SCORE.SYSTEM.norm>
0

>  <SCORE.heavy>
40

>  <SCORE.norm>
-0.260262

>  <RMSD>
3.351

$$$$
1ntb_lig
 OpenBabel11021811403D
libRbt.so/2013.1/901 2013/11/27
 40 42  0  0  0  0  0  0  0  0999 V2000
    9.3273   35.9548    0.4578 C   0  0  0  0  0  0  0  0  0  0  0  0
    9.8051   37.1359    0.3742 N   0  0  0  0  0  0  0  0  0  0  0  0
   -1.5180   34.1500    0.0209 C   0  0  0  0  0  0  0  0  0  0  0  0
   -2.4191   33.4675    0.8768 O   0  0  0  0  0  0  0  0  0  0  0  0
    3.4025   38.6489    0.7768 C   0  0  0  0  0  0  0  0  0  0  0  0
    3.8376   39.8129    1.1052 N   0  0  0  0  0  0  0  0  0  0  0  0
   -0.0267   33.4496    2.8254 C   0  0  0  0  0  0  0  0  0  0  0  0
   -3.1273   38.6349    0.8610 C   0  0  0  0  0  0  0  0  0  0  0  0
    6.9727   35.8792    0.5845 C   0  0  2  0  0  0  0  0  0  0  0  0
    8.3117   35.8074    1.2866 N   0  0  0  0  0  0  0  0  0  0  0  0
    1.7851   35.6088    0.7252 C   0  0  2  0  0  0  0  0  0  0  0  0
   -1.0258   37.1741   -0.9244 C   0  0  1  0  0  0  0  0  0  0  0  0
    0.0523   36.9831   -0.0270 O   0  0  0  0  0  0  0  0  0  0  0  0
    5.9860   36.7315    1.3750 C   0  0  1  0  0  0  0  0  0  0  0  0
    6.6496   38.0640    1.5013 O   0  0  0  0  0  0  0  0  0  0  0  0
    0.4558   35.6903   -0.0031 C   0  0  2  0  0  0  0  0  0  0  0  0
   -1.4080   38.6344   -0.9177 C   0  0  1  0  0  0  0  0  0  0  0  0
   -1.8282   39.0161    0.3843 N   0  0  0  0  0  0  0  0  0  0  0  0
    4.6081   36.8095    0.7209 C   0  0  2  0  0  0  0  0  0  0  0  0
    3.6322   37.6117    1.4293 N   0  0  0  0  0  0  0  0  0  0  0  0
   -0.4498   34.8341    0.8417 C   0  0  1  0  0  0  0  0  0  0  0  0
   -1.0528   35.6266    1.8700 O   0  0  0  0  0  0  0  0  0  0  0  0
   -0.1841   39.4401   -1.3197 C   0  0  2  0  0  0  0  0  0  0  0  0
   -0.4846   40.8186   -1.3200 O   0  0  0  0  0  0  0  0  0  0  0  0
    4.0730   35.4068    0.5936 C   0  0  1  0  0  0  0  0  0  0  0  0
    2.8628   35.5401   -0.2025 O   0  0  0  0  0  0  0  0  0  0  0  0
    0.4590   33.8314    1.4511 C   0  0  1  0  0  0  0  0  0  0  0  0
    1.7526   34.4332    1.5378 O   0  0  0  0  0  0  0  0  0  0  0  0
    0.2105   38.9804   -2.7234 C   0  0  1  0  0  0  0  0  0  0  0  0
    1.3572   39.6870   -3.1701 O   0  0  0  0  0  0  0  0  0  0  0  0
    5.0439   34.5399   -0.2527 C   0  0  2  0  0  0  0  0  0  0  0  0
    4.5148   33.2285   -0.3721 O   0  0  0  0  0  0  0  0  0  0  0  0
    0.5009   37.4797   -2.6900 C   0  0  1  0  0  0  0  0  0  0  0  0
   -0.6526   36.7711   -2.2399 O   0  0  0  0  0  0  0  0  0  0  0  0
    6.4156   34.4769    0.4462 C   0  0  1  0  0  0  0  0  0  0  0  0
    7.3239   33.6796   -0.3229 O   0  0  0  0  0  0  0  0  0  0  0  0
    0.8642   37.0133   -4.0999 C   0  0  0  0  0  0  0  0  0  0  0  0
    1.1716   35.6287   -4.0676 O   0  0  0  0  0  0  0  0  0  0  0  0
    9.8166   34.9640   -0.2015 N   0  0  0  0  0  0  0  0  0  0  0  0
    2.6634   38.5312   -0.2164 N   0  0  0  0  0  0  0  0  0  0  0  0
  1  2  1  0  0  0  0
  1 39  1  0  0  0  0
  3  4  1  0  0  0  0
  5  6  1  0  0  0  0
  5 40  1  0  0  0  0
  9 10  1  1  0  0  0
  9 14  1  0  0  0  0
  9 35  1  0  0  0  0
 10  1  1  0  0  0  0
 11 16  1  0  0  0  0
 11 28  1  0  0  0  0
 11 26  1  6  0  0  0
 12 17  1  0  0  0  0
 12 34  1  0  0  0  0
 12 13  1  1  0  0  0
 14 15  1  6  0  0  0
 14 19  1  0  0  0  0
 16 13  1  1  0  0  0
 16 21  1  0  0  0  0
 17 18  1  1  0  0  0
 17 23  1  0  0  0  0
 18  8  1  0  0  0  0
 19 20  1  1  0  0  0
 19 25  1  0  0  0  0
 20  5  1  0  0  0  0
 21  3  1  6  0  0  0
 21 22  1  0  0  0  0
 21 27  1  0  0  0  0
 23 24  1  6  0  0  0
 23 29  1  0  0  0  0
 25 26  1  6  0  0  0
 25 31  1  0  0  0  0
 27  7  1  1  0  0  0
 27 28  1  0  0  0  0
 29 30  1  1  0  0  0
 29 33  1  0  0  0  0
 31 32  1  1  0  0  0
 31 35  1  0  0  0  0
 33 34  1  0  0  0  0
 33 37  1  6  0  0  0
 35 36  1  6  0  0  0
 37 38  1  0  0  0  0
M  END
>  <CHROM.1>
-136.36392072,96.24693201,-177.57045757,-179.08617668,167.62183311,-76.07027164
110.02470603,-105.92363561,-174.21558891,-96.03838513,178.36461762,2.44470002
36.49194806,-0.08882649,-0.20368831,-0.04412160,-0.43633780

>  <Name>
1ntb_lig

>  <RI>
0

>  <Rbt.Current_Directory>
/home/itssahil/PROJECTS/Mol_Feturizer/New_Systems/rnas/1ntb

>  <Rbt.Executable>
rbdock ($Id: //depot/dev/client3/rdock/2013.1/src/exe/rbdock.cxx#4 $)

>  <Rbt.Library>
libRbt.so (2013.1, Build901 2013/11/27)

>  <Rbt.Parameter_File>
/export/apps/rDock/src/rDock_2013.1_src/data/scripts/dock_solv.prm

>  <Rbt.Receptor>
prm/pocket_docking_5.prm

>  <SCORE>
-13.9561

>  <SCORE.INTER>
-1.45107

>  <SCORE.INTER.CONST>
1

>  <SCORE.INTER.POLAR>
-0.916564

>  <SCORE.INTER.ROT>
11

>  <SCORE.INTER.SOLV>
28.4819

>  <SCORE.INTER.VDW>
-18.3395

>  <SCORE.INTER.norm>
-0.0362766

>  <SCORE.INTRA>
-12.5275

>  <SCORE.INTRA.DIHEDRAL>
-6.30182

>  <SCORE.INTRA.DIHEDRAL.0>
15.4453

>  <SCORE.INTRA.POLAR>
0

>  <SCORE.INTRA.POLAR.0>
0

>  <SCORE.INTRA.REPUL>
-0.814931

>  <SCORE.INTRA.REPUL.0>
0.823958

>  <SCORE.INTRA.SOLV>
1.76867

>  <SCORE.INTRA.SOLV.lig_0>
-99.3069

>  <SCORE.INTRA.VDW>
-6.18631

>  <SCORE.INTRA.VDW.0>
0.946495

>  <SCORE.INTRA.norm>
-0.313189

>  <SCORE.RESTR>
0.0225492

>  <SCORE.RESTR.CAVITY>
0.0225492

>  <SCORE.RESTR.norm>
0.00056373

>  <SCORE.SYSTEM>
0

>  <SCORE.SYSTEM.CONST>
0

>  <SCORE.SYSTEM.DIHEDRAL>
0

>  <SCORE.SYSTEM.SOLV>
0

>  <SCORE.SYSTEM.norm>
0

>  <SCORE.heavy>
40

>  <SCORE.norm>
-0.348902

>  <RMSD>
3.501

$$$$
1ntb_lig
 OpenBabel11021811403D
libRbt.so/2013.1/901 2013/11/27
 40 42  0  0  0  0  0  0  0  0999 V2000
    7.9866   32.4422   -2.5312 C   0  0  0  0  0  0  0  0  0  0  0  0
    9.1722   32.8022   -2.2231 N   0  0  0  0  0  0  0  0  0  0  0  0
   -0.4375   33.3709   -0.6183 C   0  0  0  0  0  0  0  0  0  0  0  0
   -1.1944   32.6199    0.3162 O   0  0  0  0  0  0  0  0  0  0  0  0
    5.5720   37.3904    0.9345 C   0  0  0  0  0  0  0  0  0  0  0  0
    6.8291   37.6045    1.0957 N   0  0  0  0  0  0  0  0  0  0  0  0
    0.6090   34.0588    2.3836 C   0  0  0  0  0  0  0  0  0  0  0  0
   -3.4295   37.5721   -0.7375 C   0  0  0  0  0  0  0  0  0  0  0  0
    6.2089   33.6932   -1.6143 C   0  0  2  0  0  0  0  0  0  0  0  0
    7.1065   32.4762   -1.5491 N   0  0  0  0  0  0  0  0  0  0  0  0
    1.8633   36.1961   -0.1092 C   0  0  2  0  0  0  0  0  0  0  0  0
   -1.2014   35.9330   -2.0236 C   0  0  1  0  0  0  0  0  0  0  0  0
   -0.0679   36.4957   -1.3889 O   0  0  0  0  0  0  0  0  0  0  0  0
    6.1001   34.3658   -0.2503 C   0  0  1  0  0  0  0  0  0  0  0  0
    7.5076   34.6995    0.1232 O   0  0  0  0  0  0  0  0  0  0  0  0
    0.7767   35.5370   -0.9391 C   0  0  2  0  0  0  0  0  0  0  0  0
   -1.9896   37.0417   -2.6779 C   0  0  1  0  0  0  0  0  0  0  0  0
   -2.4323   37.9640   -1.6926 N   0  0  0  0  0  0  0  0  0  0  0  0
    5.1789   35.5840   -0.2580 C   0  0  2  0  0  0  0  0  0  0  0  0
    5.0432   36.2643    1.0134 N   0  0  0  0  0  0  0  0  0  0  0  0
    0.1075   34.6144    0.0447 C   0  0  1  0  0  0  0  0  0  0  0  0
   -0.9425   35.3069    0.7281 O   0  0  0  0  0  0  0  0  0  0  0  0
   -1.0751   37.7451   -3.6667 C   0  0  2  0  0  0  0  0  0  0  0  0
   -1.7618   38.8012   -4.3020 O   0  0  0  0  0  0  0  0  0  0  0  0
    3.8135   35.1323   -0.7074 C   0  0  1  0  0  0  0  0  0  0  0  0
    3.0515   36.3600   -0.8762 O   0  0  0  0  0  0  0  0  0  0  0  0
    1.1826   34.2624    1.0053 C   0  0  1  0  0  0  0  0  0  0  0  0
    2.1104   35.3497    1.0160 O   0  0  0  0  0  0  0  0  0  0  0  0
   -0.6397   36.6989   -4.6930 C   0  0  1  0  0  0  0  0  0  0  0  0
    0.2274   37.2809   -5.6538 O   0  0  0  0  0  0  0  0  0  0  0  0
    3.9012   34.4905   -2.1183 C   0  0  2  0  0  0  0  0  0  0  0  0
    2.6042   34.0856   -2.5280 O   0  0  0  0  0  0  0  0  0  0  0  0
    0.0747   35.5591   -3.9661 C   0  0  1  0  0  0  0  0  0  0  0  0
   -0.7982   34.9759   -3.0001 O   0  0  0  0  0  0  0  0  0  0  0  0
    4.8283   33.2609   -2.0646 C   0  0  1  0  0  0  0  0  0  0  0  0
    4.9198   32.6564   -3.3602 O   0  0  0  0  0  0  0  0  0  0  0  0
    0.4818   34.4973   -4.9880 C   0  0  0  0  0  0  0  0  0  0  0  0
   -0.6829   33.9807   -5.6118 O   0  0  0  0  0  0  0  0  0  0  0  0
    7.6707   32.0467   -3.7142 N   0  0  0  0  0  0  0  0  0  0  0  0
    4.8090   38.3529    0.7393 N   0  0  0  0  0  0  0  0  0  0  0  0
  1  2  1  0  0  0  0
  1 39  1  0  0  0  0
  3  4  1  0  0  0  0
  5  6  1  0  0  0  0
  5 40  1  0  0  0  0
  9 10  1  1  0  0  0
  9 14  1  0  0  0  0
  9 35  1  0  0  0  0
 10  1  1  0  0  0  0
 11 16  1  0  0  0  0
 11 28  1  0  0  0  0
 11 26  1  6  0  0  0
 12 17  1  0  0  0  0
 12 34  1  0  0  0  0
 12 13  1  6  0  0  0
 14 15  1  6  0  0  0
 14 19  1  0  0  0  0
 16 13  1  1  0  0  0
 16 21  1  0  0  0  0
 17 18  1  1  0  0  0
 17 23  1  0  0  0  0
 18  8  1  0  0  0  0
 19 20  1  1  0  0  0
 19 25  1  0  0  0  0
 20  5  1  0  0  0  0
 21  3  1  6  0  0  0
 21 22  1  0  0  0  0
 21 27  1  0  0  0  0
 23 24  1  6  0  0  0
 23 29  1  0  0  0  0
 25 26  1  6  0  0  0
 25 31  1  0  0  0  0
 27  7  1  1  0  0  0
 27 28  1  0  0  0  0
 29 30  1  6  0  0  0
 29 33  1  0  0  0  0
 31 32  1  1  0  0  0
 31 35  1  0  0  0  0
 33 34  1  0  0  0  0
 33 37  1  6  0  0  0
 35 36  1  6  0  0  0
 37 38  1  0  0  0  0
M  END
>  <CHROM.1>
-132.95068365,101.65097236,-88.34561827,-171.60944102,-172.31940396,-68.68429244
112.33299047,-83.65108790,-172.93941740,-127.00880414,-61.40234824,2.26651006
35.23989318,-1.52852486,-0.07536178,0.31109266,-1.87231184

>  <Name>
1ntb_lig

>  <RI>
0

>  <Rbt.Current_Directory>
/home/itssahil/PROJECTS/Mol_Feturizer/New_Systems/rnas/1ntb

>  <Rbt.Executable>
rbdock ($Id: //depot/dev/client3/rdock/2013.1/src/exe/rbdock.cxx#4 $)

>  <Rbt.Library>
libRbt.so (2013.1, Build901 2013/11/27)

>  <Rbt.Parameter_File>
/export/apps/rDock/src/rDock_2013.1_src/data/scripts/dock_solv.prm

>  <Rbt.Receptor>
prm/pocket_docking_3.prm

>  <SCORE>
-9.15941

>  <SCORE.INTER>
-2.88196

>  <SCORE.INTER.CONST>
1

>  <SCORE.INTER.POLAR>
-0.963684

>  <SCORE.INTER.ROT>
11

>  <SCORE.INTER.SOLV>
19.9913

>  <SCORE.INTER.VDW>
-16.3061

>  <SCORE.INTER.norm>
-0.072049

>  <SCORE.INTRA>
-6.94677

>  <SCORE.INTRA.DIHEDRAL>
-0.722935

>  <SCORE.INTRA.DIHEDRAL.0>
15.4453

>  <SCORE.INTRA.POLAR>
0

>  <SCORE.INTRA.POLAR.0>
0

>  <SCORE.INTRA.REPUL>
-0.823958

>  <SCORE.INTRA.REPUL.0>
0.823958

>  <SCORE.INTRA.SOLV>
-0.933284

>  <SCORE.INTRA.SOLV.lig_0>
-99.3069

>  <SCORE.INTRA.VDW>
-1.99887

>  <SCORE.INTRA.VDW.0>
0.946495

>  <SCORE.INTRA.norm>
-0.173669

>  <SCORE.RESTR>
0.669316

>  <SCORE.RESTR.CAVITY>
0.669316

>  <SCORE.RESTR.norm>
0.0167329

>  <SCORE.SYSTEM>
0

>  <SCORE.SYSTEM.CONST>
0

>  <SCORE.SYSTEM.DIHEDRAL>
0

>  <SCORE.SYSTEM.SOLV>
0

>  <SCORE.SYSTEM.norm>
0

>  <SCORE.heavy>
40

>  <SCORE.norm>
-0.228985

>  <RMSD>
3.555

$$$$
1ntb_lig
 OpenBabel11021811403D
libRbt.so/2013.1/901 2013/11/27
 40 42  0  0  0  0  0  0  0  0999 V2000
    8.6595   32.6733   -2.3081 C   0  0  0  0  0  0  0  0  0  0  0  0
    9.7285   33.0941   -1.7511 N   0  0  0  0  0  0  0  0  0  0  0  0
   -1.0467   37.0094    0.5952 C   0  0  0  0  0  0  0  0  0  0  0  0
   -1.9882   36.6171    1.5801 O   0  0  0  0  0  0  0  0  0  0  0  0
    5.7480   37.1051    0.8925 C   0  0  0  0  0  0  0  0  0  0  0  0
    5.4384   38.1832    0.2648 N   0  0  0  0  0  0  0  0  0  0  0  0
    0.2010   34.6619    2.4695 C   0  0  0  0  0  0  0  0  0  0  0  0
    0.6129   41.1252    2.7215 C   0  0  0  0  0  0  0  0  0  0  0  0
    6.5829   33.5613   -1.6262 C   0  0  2  0  0  0  0  0  0  0  0  0
    7.6340   32.4794   -1.5012 N   0  0  0  0  0  0  0  0  0  0  0  0
    2.5012   36.1043    0.2370 C   0  0  2  0  0  0  0  0  0  0  0  0
    1.0305   39.3999    0.0427 C   0  0  1  0  0  0  0  0  0  0  0  0
    1.8972   38.3521    0.4364 O   0  0  0  0  0  0  0  0  0  0  0  0
    6.3705   34.2736   -0.2949 C   0  0  1  0  0  0  0  0  0  0  0  0
    7.7168   34.8088    0.0697 O   0  0  0  0  0  0  0  0  0  0  0  0
    1.4019   37.1403    0.0885 C   0  0  2  0  0  0  0  0  0  0  0  0
    1.6195   40.7125    0.4998 C   0  0  1  0  0  0  0  0  0  0  0  0
    1.7306   40.7232    1.9157 N   0  0  0  0  0  0  0  0  0  0  0  0
    5.2952   35.3560   -0.3627 C   0  0  2  0  0  0  0  0  0  0  0  0
    5.0562   36.0682    0.8756 N   0  0  0  0  0  0  0  0  0  0  0  0
    0.3504   36.6640    1.0553 C   0  0  1  0  0  0  0  0  0  0  0  0
    0.5916   37.2191    2.3525 O   0  0  0  0  0  0  0  0  0  0  0  0
    2.9977   40.8496   -0.1252 C   0  0  2  0  0  0  0  0  0  0  0  0
    3.5997   42.0599    0.2789 O   0  0  0  0  0  0  0  0  0  0  0  0
    4.0072   34.7063   -0.7974 C   0  0  1  0  0  0  0  0  0  0  0  0
    3.0901   35.8122   -1.0258 O   0  0  0  0  0  0  0  0  0  0  0  0
    0.5341   35.1920    1.0989 C   0  0  1  0  0  0  0  0  0  0  0  0
    1.9051   34.9293    0.7915 O   0  0  0  0  0  0  0  0  0  0  0  0
    2.8031   40.8314   -1.6415 C   0  0  1  0  0  0  0  0  0  0  0  0
    4.0540   40.9497   -2.3011 O   0  0  0  0  0  0  0  0  0  0  0  0
    4.1950   34.0195   -2.1771 C   0  0  2  0  0  0  0  0  0  0  0  0
    2.9681   33.4269   -2.5740 O   0  0  0  0  0  0  0  0  0  0  0  0
    2.1245   39.5199   -2.0382 C   0  0  1  0  0  0  0  0  0  0  0  0
    0.8677   39.4024   -1.3735 O   0  0  0  0  0  0  0  0  0  0  0  0
    5.2772   32.9286   -2.0629 C   0  0  1  0  0  0  0  0  0  0  0  0
    5.4625   32.2845   -3.3290 O   0  0  0  0  0  0  0  0  0  0  0  0
    1.9005   39.5152   -3.5506 C   0  0  0  0  0  0  0  0  0  0  0  0
    1.0548   40.5994   -3.8995 O   0  0  0  0  0  0  0  0  0  0  0  0
    8.5886   32.4281   -3.5693 N   0  0  0  0  0  0  0  0  0  0  0  0
    6.8214   37.0497    1.5180 N   0  0  0  0  0  0  0  0  0  0  0  0
  1  2  1  0  0  0  0
  1 39  1  0  0  0  0
  3  4  1  0  0  0  0
  5  6  1  0  0  0  0
  5 40  1  0  0  0  0
  9 10  1  1  0  0  0
  9 14  1  0  0  0  0
  9 35  1  0  0  0  0
 10  1  1  0  0  0  0
 11 16  1  0  0  0  0
 11 28  1  0  0  0  0
 11 26  1  6  0  0  0
 12 17  1  0  0  0  0
 12 34  1  0  0  0  0
 12 13  1  6  0  0  0
 14 15  1  6  0  0  0
 14 19  1  0  0  0  0
 16 13  1  1  0  0  0
 16 21  1  0  0  0  0
 17 18  1  1  0  0  0
 17 23  1  0  0  0  0
 18  8  1  0  0  0  0
 19 20  1  1  0  0  0
 19 25  1  0  0  0  0
 20  5  1  0  0  0  0
 21  3  1  6  0  0  0
 21 22  1  0  0  0  0
 21 27  1  0  0  0  0
 23 24  1  1  0  0  0
 23 29  1  0  0  0  0
 25 26  1  6  0  0  0
 25 31  1  0  0  0  0
 27  7  1  1  0  0  0
 27 28  1  0  0  0  0
 29 30  1  6  0  0  0
 29 33  1  0  0  0  0
 31 32  1  1  0  0  0
 31 35  1  0  0  0  0
 33 34  1  0  0  0  0
 33 37  1  6  0  0  0
 35 36  1  6  0  0  0
 37 38  1  0  0  0  0
M  END
>  <CHROM.1>
-120.37959931,105.01679809,-173.36682702,178.16465705,166.88910826,-85.76634939
93.88191237,79.06118291,-176.21839279,-86.17297312,-60.96560755,3.43772043
36.77596279,-0.46402132,-0.73253530,0.42649327,-0.12156706

>  <Name>
1ntb_lig

>  <RI>
0

>  <Rbt.Current_Directory>
/home/itssahil/PROJECTS/Mol_Feturizer/New_Systems/rnas/1ntb

>  <Rbt.Executable>
rbdock ($Id: //depot/dev/client3/rdock/2013.1/src/exe/rbdock.cxx#4 $)

>  <Rbt.Library>
libRbt.so (2013.1, Build901 2013/11/27)

>  <Rbt.Parameter_File>
/export/apps/rDock/src/rDock_2013.1_src/data/scripts/dock_solv.prm

>  <Rbt.Receptor>
prm/pocket_docking_4.prm

>  <SCORE>
-16.8984

>  <SCORE.INTER>
-4.34024

>  <SCORE.INTER.CONST>
1

>  <SCORE.INTER.POLAR>
-0.821386

>  <SCORE.INTER.ROT>
11

>  <SCORE.INTER.SOLV>
20.8241

>  <SCORE.INTER.VDW>
-18.0302

>  <SCORE.INTER.norm>
-0.108506

>  <SCORE.INTRA>
-12.5581

>  <SCORE.INTRA.DIHEDRAL>
-7.68856

>  <SCORE.INTRA.DIHEDRAL.0>
15.4453

>  <SCORE.INTRA.POLAR>
0

>  <SCORE.INTRA.POLAR.0>
0

>  <SCORE.INTRA.REPUL>
-0.823958

>  <SCORE.INTRA.REPUL.0>
0.823958

>  <SCORE.INTRA.SOLV>
0.0188826

>  <SCORE.INTRA.SOLV.lig_0>
-99.3069

>  <SCORE.INTRA.VDW>
-4.6035

>  <SCORE.INTRA.VDW.0>
0.946495

>  <SCORE.INTRA.norm>
-0.313953

>  <SCORE.RESTR>
0

>  <SCORE.RESTR.CAVITY>
0

>  <SCORE.RESTR.norm>
0

>  <SCORE.SYSTEM>
0

>  <SCORE.SYSTEM.CONST>
0

>  <SCORE.SYSTEM.DIHEDRAL>
0

>  <SCORE.SYSTEM.SOLV>
0

>  <SCORE.SYSTEM.norm>
0

>  <SCORE.heavy>
40

>  <SCORE.norm>
-0.422459

>  <RMSD>
3.645

$$$$
1ntb_lig
 OpenBabel11021811403D
libRbt.so/2013.1/901 2013/11/27
 40 42  0  0  0  0  0  0  0  0999 V2000
    8.3465   35.6659    0.6229 C   0  0  0  0  0  0  0  0  0  0  0  0
    8.6663   36.8459    0.9911 N   0  0  0  0  0  0  0  0  0  0  0  0
   -1.5104   34.5374   -4.2029 C   0  0  0  0  0  0  0  0  0  0  0  0
   -2.0415   33.6061   -5.1309 O   0  0  0  0  0  0  0  0  0  0  0  0
    2.4040   38.2771   -0.3574 C   0  0  0  0  0  0  0  0  0  0  0  0
    2.3750   38.3665   -1.6393 N   0  0  0  0  0  0  0  0  0  0  0  0
    0.7945   32.3658   -4.9459 C   0  0  0  0  0  0  0  0  0  0  0  0
   -1.1727   38.5801   -1.8643 C   0  0  0  0  0  0  0  0  0  0  0  0
    6.0727   35.5427    0.0062 C   0  0  2  0  0  0  0  0  0  0  0  0
    7.1594   35.2471    1.0174 N   0  0  0  0  0  0  0  0  0  0  0  0
    1.5847   34.4354   -2.2168 C   0  0  2  0  0  0  0  0  0  0  0  0
   -0.2562   35.4764   -0.1581 C   0  0  1  0  0  0  0  0  0  0  0  0
   -0.4834   34.4737   -1.1312 O   0  0  0  0  0  0  0  0  0  0  0  0
    4.8910   36.2471    0.6638 C   0  0  1  0  0  0  0  0  0  0  0  0
    5.4734   37.4817    1.2708 O   0  0  0  0  0  0  0  0  0  0  0  0
    0.1096   34.7813   -2.3095 C   0  0  2  0  0  0  0  0  0  0  0  0
   -1.2388   36.6001   -0.3827 C   0  0  1  0  0  0  0  0  0  0  0  0
   -1.0389   37.1641   -1.6708 N   0  0  0  0  0  0  0  0  0  0  0  0
    3.7533   36.5401   -0.3120 C   0  0  2  0  0  0  0  0  0  0  0  0
    2.6059   37.2134    0.2606 N   0  0  0  0  0  0  0  0  0  0  0  0
   -0.3777   33.9023   -3.4306 C   0  0  1  0  0  0  0  0  0  0  0  0
   -0.7876   32.6321   -2.9133 O   0  0  0  0  0  0  0  0  0  0  0  0
   -2.6406   36.0219   -0.2865 C   0  0  2  0  0  0  0  0  0  0  0  0
   -3.6021   37.0322   -0.4996 O   0  0  0  0  0  0  0  0  0  0  0  0
    3.2955   35.2306   -0.9001 C   0  0  1  0  0  0  0  0  0  0  0  0
    2.3580   35.6004   -1.9492 O   0  0  0  0  0  0  0  0  0  0  0  0
    0.8113   33.7277   -4.3014 C   0  0  1  0  0  0  0  0  0  0  0  0
    1.9659   33.8624   -3.4697 O   0  0  0  0  0  0  0  0  0  0  0  0
   -2.7855   35.4360    1.1181 C   0  0  1  0  0  0  0  0  0  0  0  0
   -4.0749   34.8674    1.2853 O   0  0  0  0  0  0  0  0  0  0  0  0
    4.4779   34.5254   -1.6177 C   0  0  2  0  0  0  0  0  0  0  0  0
    4.0223   33.3027   -2.1759 O   0  0  0  0  0  0  0  0  0  0  0  0
   -1.7119   34.3667    1.3222 C   0  0  1  0  0  0  0  0  0  0  0  0
   -0.4165   34.9398    1.1529 O   0  0  0  0  0  0  0  0  0  0  0  0
    5.5969   34.2373   -0.5983 C   0  0  1  0  0  0  0  0  0  0  0  0
    6.6965   33.5857   -1.2453 O   0  0  0  0  0  0  0  0  0  0  0  0
   -1.8358   33.8032    2.7380 C   0  0  0  0  0  0  0  0  0  0  0  0
   -0.9756   32.6829    2.8703 O   0  0  0  0  0  0  0  0  0  0  0  0
    9.1366   34.9198   -0.0662 N   0  0  0  0  0  0  0  0  0  0  0  0
    2.2785   39.3063    0.3293 N   0  0  0  0  0  0  0  0  0  0  0  0
  1  2  1  0  0  0  0
  1 39  1  0  0  0  0
  3  4  1  0  0  0  0
  5  6  1  0  0  0  0
  5 40  1  0  0  0  0
  9 10  1  1  0  0  0
  9 14  1  0  0  0  0
  9 35  1  0  0  0  0
 10  1  1  0  0  0  0
 11 16  1  0  0  0  0
 11 28  1  0  0  0  0
 11 26  1  6  0  0  0
 12 17  1  0  0  0  0
 12 34  1  0  0  0  0
 12 13  1  6  0  0  0
 14 15  1  6  0  0  0
 14 19  1  0  0  0  0
 16 13  1  1  0  0  0
 16 21  1  0  0  0  0
 17 18  1  6  0  0  0
 17 23  1  0  0  0  0
 18  8  1  0  0  0  0
 19 20  1  1  0  0  0
 19 25  1  0  0  0  0
 20  5  1  0  0  0  0
 21  3  1  6  0  0  0
 21 22  1  0  0  0  0
 21 27  1  0  0  0  0
 23 24  1  1  0  0  0
 23 29  1  0  0  0  0
 25 26  1  6  0  0  0
 25 31  1  0  0  0  0
 27  7  1  1  0  0  0
 27 28  1  0  0  0  0
 29 30  1  6  0  0  0
 29 33  1  0  0  0  0
 31 32  1  1  0  0  0
 31 35  1  0  0  0  0
 33 34  1  0  0  0  0
 33 37  1  1  0  0  0
 35 36  1  6  0  0  0
 37 38  1  0  0  0  0
M  END
>  <CHROM.1>
-128.96211756,91.77424221,134.52238263,81.44606913,79.92447182,-142.41694554
122.64334073,47.72385973,-172.64429419,-161.08013892,171.65308333,1.64581000
35.30326280,-0.86614562,0.14329132,0.00392705,1.01255152

>  <Name>
1ntb_lig

>  <RI>
0

>  <Rbt.Current_Directory>
/home/itssahil/PROJECTS/Mol_Feturizer/New_Systems/rnas/1ntb

>  <Rbt.Executable>
rbdock ($Id: //depot/dev/client3/rdock/2013.1/src/exe/rbdock.cxx#4 $)

>  <Rbt.Library>
libRbt.so (2013.1, Build901 2013/11/27)

>  <Rbt.Parameter_File>
/export/apps/rDock/src/rDock_2013.1_src/data/scripts/dock_solv.prm

>  <Rbt.Receptor>
prm/pocket_docking_4.prm

>  <SCORE>
-9.57404

>  <SCORE.INTER>
-1.58645

>  <SCORE.INTER.CONST>
1

>  <SCORE.INTER.POLAR>
-1.66614

>  <SCORE.INTER.ROT>
11

>  <SCORE.INTER.SOLV>
19.8338

>  <SCORE.INTER.VDW>
-13.0484

>  <SCORE.INTER.norm>
-0.0396612

>  <SCORE.INTRA>
-7.98759

>  <SCORE.INTRA.DIHEDRAL>
1.38413

>  <SCORE.INTRA.DIHEDRAL.0>
15.4453

>  <SCORE.INTRA.POLAR>
0

>  <SCORE.INTRA.POLAR.0>
0

>  <SCORE.INTRA.REPUL>
-0.823958

>  <SCORE.INTRA.REPUL.0>
0.823958

>  <SCORE.INTRA.SOLV>
0.963973

>  <SCORE.INTRA.SOLV.lig_0>
-99.3069

>  <SCORE.INTRA.VDW>
-5.04186

>  <SCORE.INTRA.VDW.0>
0.946495

>  <SCORE.INTRA.norm>
-0.19969

>  <SCORE.RESTR>
0

>  <SCORE.RESTR.CAVITY>
0

>  <SCORE.RESTR.norm>
0

>  <SCORE.SYSTEM>
0

>  <SCORE.SYSTEM.CONST>
0

>  <SCORE.SYSTEM.DIHEDRAL>
0

>  <SCORE.SYSTEM.SOLV>
0

>  <SCORE.SYSTEM.norm>
0

>  <SCORE.heavy>
40

>  <SCORE.norm>
-0.239351

>  <RMSD>
3.672

$$$$
1ntb_lig
 OpenBabel11021811403D
libRbt.so/2013.1/901 2013/11/27
 40 42  0  0  0  0  0  0  0  0999 V2000
    9.1362   33.2341   -1.5356 C   0  0  0  0  0  0  0  0  0  0  0  0
   10.3791   32.9996   -1.3611 N   0  0  0  0  0  0  0  0  0  0  0  0
   -0.9223   36.3108    0.7112 C   0  0  0  0  0  0  0  0  0  0  0  0
   -0.6470   36.2342   -0.6776 O   0  0  0  0  0  0  0  0  0  0  0  0
    6.3943   38.1410    1.3255 C   0  0  0  0  0  0  0  0  0  0  0  0
    7.6525   38.4010    1.2863 N   0  0  0  0  0  0  0  0  0  0  0  0
    0.2113   33.5834    2.0737 C   0  0  0  0  0  0  0  0  0  0  0  0
   -0.7439   38.7695    4.7951 C   0  0  0  0  0  0  0  0  0  0  0  0
    7.2185   34.1844   -0.5431 C   0  0  2  0  0  0  0  0  0  0  0  0
    8.3981   33.2413   -0.4423 N   0  0  0  0  0  0  0  0  0  0  0  0
    2.6842   35.9762    1.3562 C   0  0  2  0  0  0  0  0  0  0  0  0
    0.4573   38.7878    1.9001 C   0  0  1  0  0  0  0  0  0  0  0  0
    1.5675   37.9177    2.0200 O   0  0  0  0  0  0  0  0  0  0  0  0
    7.1883   35.1500    0.6366 C   0  0  1  0  0  0  0  0  0  0  0  0
    8.5042   35.8554    0.5851 O   0  0  0  0  0  0  0  0  0  0  0  0
    1.4755   36.8735    1.1621 C   0  0  2  0  0  0  0  0  0  0  0  0
    0.5490   39.8405    2.9781 C   0  0  1  0  0  0  0  0  0  0  0  0
    0.5067   39.2245    4.2572 N   0  0  0  0  0  0  0  0  0  0  0  0
    5.9965   36.1041    0.5957 C   0  0  2  0  0  0  0  0  0  0  0  0
    5.9219   37.0473    1.6923 N   0  0  0  0  0  0  0  0  0  0  0  0
    0.3203   35.9686    1.4996 C   0  0  1  0  0  0  0  0  0  0  0  0
    0.0442   36.0308    2.9029 O   0  0  0  0  0  0  0  0  0  0  0  0
    1.8679   40.5745    2.8042 C   0  0  2  0  0  0  0  0  0  0  0  0
    2.0097   41.5672    3.7967 O   0  0  0  0  0  0  0  0  0  0  0  0
    4.7374   35.2765    0.5897 C   0  0  1  0  0  0  0  0  0  0  0  0
    3.6648   36.2311    0.3560 O   0  0  0  0  0  0  0  0  0  0  0  0
    0.8036   34.6111    1.1446 C   0  0  1  0  0  0  0  0  0  0  0  0
    2.2273   34.6243    1.2716 O   0  0  0  0  0  0  0  0  0  0  0  0
    1.8441   41.2103    1.4141 C   0  0  1  0  0  0  0  0  0  0  0  0
    3.0525   41.9138    1.1722 O   0  0  0  0  0  0  0  0  0  0  0  0
    4.7311   34.3234   -0.6358 C   0  0  2  0  0  0  0  0  0  0  0  0
    3.5319   33.5644   -0.6303 O   0  0  0  0  0  0  0  0  0  0  0  0
    1.6615   40.1095    0.3688 C   0  0  1  0  0  0  0  0  0  0  0  0
    0.4466   39.4028    0.6140 O   0  0  0  0  0  0  0  0  0  0  0  0
    5.9398   33.3716   -0.5504 C   0  0  1  0  0  0  0  0  0  0  0  0
    5.9483   32.4844   -1.6752 O   0  0  0  0  0  0  0  0  0  0  0  0
    1.6051   40.7479   -1.0193 C   0  0  0  0  0  0  0  0  0  0  0  0
    1.3887   39.7355   -1.9890 O   0  0  0  0  0  0  0  0  0  0  0  0
    8.6270   33.4262   -2.7015 N   0  0  0  0  0  0  0  0  0  0  0  0
    5.5774   39.0328    1.0357 N   0  0  0  0  0  0  0  0  0  0  0  0
  1  2  1  0  0  0  0
  1 39  1  0  0  0  0
  3  4  1  0  0  0  0
  5  6  1  0  0  0  0
  5 40  1  0  0  0  0
  9 10  1  1  0  0  0
  9 14  1  0  0  0  0
  9 35  1  0  0  0  0
 10  1  1  0  0  0  0
 11 16  1  0  0  0  0
 11 28  1  0  0  0  0
 11 26  1  6  0  0  0
 12 17  1  0  0  0  0
 12 34  1  0  0  0  0
 12 13  1  6  0  0  0
 14 15  1  6  0  0  0
 14 19  1  0  0  0  0
 16 13  1  1  0  0  0
 16 21  1  0  0  0  0
 17 18  1  1  0  0  0
 17 23  1  0  0  0  0
 18  8  1  0  0  0  0
 19 20  1  1  0  0  0
 19 25  1  0  0  0  0
 20  5  1  0  0  0  0
 21  3  1  6  0  0  0
 21 22  1  0  0  0  0
 21 27  1  0  0  0  0
 23 24  1  1  0  0  0
 23 29  1  0  0  0  0
 25 26  1  6  0  0  0
 25 31  1  0  0  0  0
 27  7  1  1  0  0  0
 27 28  1  0  0  0  0
 29 30  1  6  0  0  0
 29 33  1  0  0  0  0
 31 32  1  1  0  0  0
 31 35  1  0  0  0  0
 33 34  1  0  0  0  0
 33 37  1  6  0  0  0
 35 36  1  6  0  0  0
 37 38  1  0  0  0  0
M  END
>  <CHROM.1>
-126.94052060,149.32810855,-176.98881708,174.03188401,-179.29626596,-77.50694949
98.06774855,-80.81544609,57.78681950,-130.24504182,-177.97095022,3.49794629
36.81851124,0.81453848,-0.67510571,0.20425151,0.23972065

>  <Name>
1ntb_lig

>  <RI>
0

>  <Rbt.Current_Directory>
/home/itssahil/PROJECTS/Mol_Feturizer/New_Systems/rnas/1ntb

>  <Rbt.Executable>
rbdock ($Id: //depot/dev/client3/rdock/2013.1/src/exe/rbdock.cxx#4 $)

>  <Rbt.Library>
libRbt.so (2013.1, Build901 2013/11/27)

>  <Rbt.Parameter_File>
/export/apps/rDock/src/rDock_2013.1_src/data/scripts/dock_solv.prm

>  <Rbt.Receptor>
prm/pocket_docking_5.prm

>  <SCORE>
-17.0876

>  <SCORE.INTER>
-5.02641

>  <SCORE.INTER.CONST>
1

>  <SCORE.INTER.POLAR>
-0.780172

>  <SCORE.INTER.ROT>
11

>  <SCORE.INTER.SOLV>
26.4046

>  <SCORE.INTER.VDW>
-20.4852

>  <SCORE.INTER.norm>
-0.12566

>  <SCORE.INTRA>
-12.1007

>  <SCORE.INTRA.DIHEDRAL>
-4.85779

>  <SCORE.INTRA.DIHEDRAL.0>
15.4453

>  <SCORE.INTRA.POLAR>
0

>  <SCORE.INTRA.POLAR.0>
0

>  <SCORE.INTRA.REPUL>
-0.823958

>  <SCORE.INTRA.REPUL.0>
0.823958

>  <SCORE.INTRA.SOLV>
-1.86744

>  <SCORE.INTRA.SOLV.lig_0>
-99.3069

>  <SCORE.INTRA.VDW>
-4.61831

>  <SCORE.INTRA.VDW.0>
0.946495

>  <SCORE.INTRA.norm>
-0.302518

>  <SCORE.RESTR>
0.0395674

>  <SCORE.RESTR.CAVITY>
0.0395674

>  <SCORE.RESTR.norm>
0.000989186

>  <SCORE.SYSTEM>
0

>  <SCORE.SYSTEM.CONST>
0

>  <SCORE.SYSTEM.DIHEDRAL>
0

>  <SCORE.SYSTEM.SOLV>
0

>  <SCORE.SYSTEM.norm>
0

>  <SCORE.heavy>
40

>  <SCORE.norm>
-0.427189

>  <RMSD>
3.674

$$$$
1ntb_lig
 OpenBabel11021811403D
libRbt.so/2013.1/901 2013/11/27
 40 42  0  0  0  0  0  0  0  0999 V2000
    9.4194   33.4792   -1.1293 C   0  0  0  0  0  0  0  0  0  0  0  0
   10.2777   34.3929   -0.8870 N   0  0  0  0  0  0  0  0  0  0  0  0
   -0.7433   36.3144    0.5237 C   0  0  0  0  0  0  0  0  0  0  0  0
   -1.7421   35.4992    1.1139 O   0  0  0  0  0  0  0  0  0  0  0  0
    6.5351   38.4069    1.2460 C   0  0  0  0  0  0  0  0  0  0  0  0
    5.8345   39.3475    0.7202 N   0  0  0  0  0  0  0  0  0  0  0  0
    0.5908   34.1289    2.5297 C   0  0  0  0  0  0  0  0  0  0  0  0
    0.6069   39.7420    3.6472 C   0  0  0  0  0  0  0  0  0  0  0  0
    7.3363   34.3346   -0.4259 C   0  0  2  0  0  0  0  0  0  0  0  0
    8.4627   33.3424   -0.2314 N   0  0  0  0  0  0  0  0  0  0  0  0
    2.8608   36.4838    1.2423 C   0  0  2  0  0  0  0  0  0  0  0  0
    0.8610   39.3503    0.5912 C   0  0  1  0  0  0  0  0  0  0  0  0
    1.5606   38.4185    1.3951 O   0  0  0  0  0  0  0  0  0  0  0  0
    7.2888   35.3392    0.7202 C   0  0  1  0  0  0  0  0  0  0  0  0
    8.6375   35.9817    0.7196 O   0  0  0  0  0  0  0  0  0  0  0  0
    1.5831   37.1895    0.8261 C   0  0  2  0  0  0  0  0  0  0  0  0
    0.7409   40.6498    1.3498 C   0  0  1  0  0  0  0  0  0  0  0  0
    0.0061   40.4419    2.5474 N   0  0  0  0  0  0  0  0  0  0  0  0
    6.1474   36.3449    0.5845 C   0  0  2  0  0  0  0  0  0  0  0  0
    6.0590   37.3264    1.6459 N   0  0  0  0  0  0  0  0  0  0  0  0
    0.5039   36.2953    1.3763 C   0  0  1  0  0  0  0  0  0  0  0  0
    0.1873   36.6798    2.7183 O   0  0  0  0  0  0  0  0  0  0  0  0
    2.1439   41.1278    1.6839 C   0  0  2  0  0  0  0  0  0  0  0  0
    2.0891   42.3392    2.4050 O   0  0  0  0  0  0  0  0  0  0  0  0
    4.8527   35.5759    0.5345 C   0  0  1  0  0  0  0  0  0  0  0  0
    3.8406   36.5701    0.2130 O   0  0  0  0  0  0  0  0  0  0  0  0
    1.1140   34.9424    1.3743 C   0  0  1  0  0  0  0  0  0  0  0  0
    2.5272   35.1175    1.4981 O   0  0  0  0  0  0  0  0  0  0  0  0
    2.8735   41.3308    0.3557 C   0  0  1  0  0  0  0  0  0  0  0  0
    4.2019   41.7741    0.5849 O   0  0  0  0  0  0  0  0  0  0  0  0
    4.8668   34.5839   -0.6596 C   0  0  2  0  0  0  0  0  0  0  0  0
    3.6344   33.8811   -0.6968 O   0  0  0  0  0  0  0  0  0  0  0  0
    2.8885   40.0066   -0.4087 C   0  0  1  0  0  0  0  0  0  0  0  0
    1.5524   39.5620   -0.6374 O   0  0  0  0  0  0  0  0  0  0  0  0
    6.0227   33.5812   -0.4786 C   0  0  1  0  0  0  0  0  0  0  0  0
    6.0494   32.6577   -1.5735 O   0  0  0  0  0  0  0  0  0  0  0  0
    3.5896   40.2169   -1.7510 C   0  0  0  0  0  0  0  0  0  0  0  0
    2.8534   41.1554   -2.5189 O   0  0  0  0  0  0  0  0  0  0  0  0
    9.4921   32.7213   -2.1667 N   0  0  0  0  0  0  0  0  0  0  0  0
    7.7696   38.5357    1.3240 N   0  0  0  0  0  0  0  0  0  0  0  0
  1  2  1  0  0  0  0
  1 39  1  0  0  0  0
  3  4  1  0  0  0  0
  5  6  1  0  0  0  0
  5 40  1  0  0  0  0
  9 10  1  1  0  0  0
  9 14  1  0  0  0  0
  9 35  1  0  0  0  0
 10  1  1  0  0  0  0
 11 16  1  0  0  0  0
 11 28  1  0  0  0  0
 11 26  1  6  0  0  0
 12 17  1  0  0  0  0
 12 34  1  0  0  0  0
 12 13  1  1  0  0  0
 14 15  1  6  0  0  0
 14 19  1  0  0  0  0
 16 13  1  1  0  0  0
 16 21  1  0  0  0  0
 17 18  1  1  0  0  0
 17 23  1  0  0  0  0
 18  8  1  0  0  0  0
 19 20  1  1  0  0  0
 19 25  1  0  0  0  0
 20  5  1  0  0  0  0
 21  3  1  6  0  0  0
 21 22  1  0  0  0  0
 21 27  1  0  0  0  0
 23 24  1  6  0  0  0
 23 29  1  0  0  0  0
 25 26  1  6  0  0  0
 25 31  1  0  0  0  0
 27  7  1  1  0  0  0
 27 28  1  0  0  0  0
 29 30  1  1  0  0  0
 29 33  1  0  0  0  0
 31 32  1  1  0  0  0
 31 35  1  0  0  0  0
 33 34  1  0  0  0  0
 33 37  1  6  0  0  0
 35 36  1  6  0  0  0
 37 38  1  0  0  0  0
M  END
>  <CHROM.1>
-112.37900296,82.36154309,-164.47193340,173.74334356,149.61813396,73.02388901
101.71918290,93.36375599,-177.71865624,-124.59343678,-62.40651858,3.83550642
37.14817798,0.55146616,-0.64343240,0.23579905,0.03555782

>  <Name>
1ntb_lig

>  <RI>
0

>  <Rbt.Current_Directory>
/home/itssahil/PROJECTS/Mol_Feturizer/New_Systems/rnas/1ntb

>  <Rbt.Executable>
rbdock ($Id: //depot/dev/client3/rdock/2013.1/src/exe/rbdock.cxx#4 $)

>  <Rbt.Library>
libRbt.so (2013.1, Build901 2013/11/27)

>  <Rbt.Parameter_File>
/export/apps/rDock/src/rDock_2013.1_src/data/scripts/dock_solv.prm

>  <Rbt.Receptor>
prm/pocket_docking_6.prm

>  <SCORE>
-12.2984

>  <SCORE.INTER>
-6.15689

>  <SCORE.INTER.CONST>
1

>  <SCORE.INTER.POLAR>
-0.734662

>  <SCORE.INTER.ROT>
11

>  <SCORE.INTER.SOLV>
26.1512

>  <SCORE.INTER.VDW>
-21.3061

>  <SCORE.INTER.norm>
-0.153922

>  <SCORE.INTRA>
-6.14154

>  <SCORE.INTRA.DIHEDRAL>
0.183053

>  <SCORE.INTRA.DIHEDRAL.0>
15.4453

>  <SCORE.INTRA.POLAR>
0

>  <SCORE.INTRA.POLAR.0>
0

>  <SCORE.INTRA.REPUL>
-0.823958

>  <SCORE.INTRA.REPUL.0>
0.823958

>  <SCORE.INTRA.SOLV>
1.09481

>  <SCORE.INTRA.SOLV.lig_0>
-99.3069

>  <SCORE.INTRA.VDW>
-2.66069

>  <SCORE.INTRA.VDW.0>
0.946495

>  <SCORE.INTRA.norm>
-0.153539

>  <SCORE.RESTR>
0

>  <SCORE.RESTR.CAVITY>
0

>  <SCORE.RESTR.norm>
0

>  <SCORE.SYSTEM>
0

>  <SCORE.SYSTEM.CONST>
0

>  <SCORE.SYSTEM.DIHEDRAL>
0

>  <SCORE.SYSTEM.SOLV>
0

>  <SCORE.SYSTEM.norm>
0

>  <SCORE.heavy>
40

>  <SCORE.norm>
-0.307461

>  <RMSD>
3.845

$$$$
1ntb_lig
 OpenBabel11021811403D
libRbt.so/2013.1/901 2013/11/27
 40 42  0  0  0  0  0  0  0  0999 V2000
    7.1580   36.0711    0.9699 C   0  0  0  0  0  0  0  0  0  0  0  0
    8.3017   36.3786    0.4928 N   0  0  0  0  0  0  0  0  0  0  0  0
   -1.0318   32.4103   -5.4137 C   0  0  0  0  0  0  0  0  0  0  0  0
    0.0365   31.9656   -6.2329 O   0  0  0  0  0  0  0  0  0  0  0  0
    1.6578   36.4254   -0.8333 C   0  0  0  0  0  0  0  0  0  0  0  0
    1.1338   36.9200    0.2310 N   0  0  0  0  0  0  0  0  0  0  0  0
   -0.5606   30.7785   -2.6396 C   0  0  0  0  0  0  0  0  0  0  0  0
   -0.1496   34.9583   -8.0585 C   0  0  0  0  0  0  0  0  0  0  0  0
    5.7755   34.9501   -0.5788 C   0  0  2  0  0  0  0  0  0  0  0  0
    6.6946   34.8859    0.6221 N   0  0  0  0  0  0  0  0  0  0  0  0
    1.3992   33.6787   -2.9610 C   0  0  2  0  0  0  0  0  0  0  0  0
    0.3085   36.1583   -4.7184 C   0  0  1  0  0  0  0  0  0  0  0  0
   -0.1839   35.1326   -3.8760 O   0  0  0  0  0  0  0  0  0  0  0  0
    4.3182   35.0674   -0.1461 C   0  0  1  0  0  0  0  0  0  0  0  0
    4.2680   36.3028    0.6924 O   0  0  0  0  0  0  0  0  0  0  0  0
    0.4439   33.9549   -4.1078 C   0  0  2  0  0  0  0  0  0  0  0  0
   -0.5437   36.2128   -5.9631 C   0  0  1  0  0  0  0  0  0  0  0  0
   -0.4614   34.9766   -6.6575 N   0  0  0  0  0  0  0  0  0  0  0  0
    3.3475   35.1051   -1.3247 C   0  0  2  0  0  0  0  0  0  0  0  0
    1.9482   35.2207   -0.9696 N   0  0  0  0  0  0  0  0  0  0  0  0
   -0.5074   32.7893   -4.0484 C   0  0  1  0  0  0  0  0  0  0  0  0
   -1.5967   33.0915   -3.1703 O   0  0  0  0  0  0  0  0  0  0  0  0
   -1.9794   36.4681   -5.5362 C   0  0  2  0  0  0  0  0  0  0  0  0
   -2.8237   36.5187   -6.6654 O   0  0  0  0  0  0  0  0  0  0  0  0
    3.5358   33.8416   -2.1236 C   0  0  1  0  0  0  0  0  0  0  0  0
    2.7306   34.0332   -3.3199 O   0  0  0  0  0  0  0  0  0  0  0  0
    0.3033   31.6847   -3.4781 C   0  0  1  0  0  0  0  0  0  0  0  0
    1.3183   32.2820   -2.6680 O   0  0  0  0  0  0  0  0  0  0  0  0
   -1.9937   37.8078   -4.7996 C   0  0  1  0  0  0  0  0  0  0  0  0
   -3.3076   38.1159   -4.3609 O   0  0  0  0  0  0  0  0  0  0  0  0
    5.0049   33.7341   -2.6141 C   0  0  2  0  0  0  0  0  0  0  0  0
    5.1568   32.5460   -3.3752 O   0  0  0  0  0  0  0  0  0  0  0  0
   -1.0482   37.7242   -3.6009 C   0  0  1  0  0  0  0  0  0  0  0  0
    0.2719   37.4136   -4.0437 O   0  0  0  0  0  0  0  0  0  0  0  0
    5.9488   33.6868   -1.3972 C   0  0  1  0  0  0  0  0  0  0  0  0
    7.3098   33.5873   -1.8333 O   0  0  0  0  0  0  0  0  0  0  0  0
   -1.0374   39.0739   -2.8827 C   0  0  0  0  0  0  0  0  0  0  0  0
   -2.3103   39.3008   -2.2989 O   0  0  0  0  0  0  0  0  0  0  0  0
    6.4853   36.8711    1.7204 N   0  0  0  0  0  0  0  0  0  0  0  0
    1.8480   37.1602   -1.8184 N   0  0  0  0  0  0  0  0  0  0  0  0
  1  2  1  0  0  0  0
  1 39  1  0  0  0  0
  3  4  1  0  0  0  0
  5  6  1  0  0  0  0
  5 40  1  0  0  0  0
  9 10  1  1  0  0  0
  9 14  1  0  0  0  0
  9 35  1  0  0  0  0
 10  1  1  0  0  0  0
 11 16  1  0  0  0  0
 11 28  1  0  0  0  0
 11 26  1  6  0  0  0
 12 17  1  0  0  0  0
 12 34  1  0  0  0  0
 12 13  1  1  0  0  0
 14 15  1  6  0  0  0
 14 19  1  0  0  0  0
 16 13  1  1  0  0  0
 16 21  1  0  0  0  0
 17 18  1  1  0  0  0
 17 23  1  0  0  0  0
 18  8  1  0  0  0  0
 19 20  1  1  0  0  0
 19 25  1  0  0  0  0
 20  5  1  0  0  0  0
 21  3  1  6  0  0  0
 21 22  1  0  0  0  0
 21 27  1  0  0  0  0
 23 24  1  6  0  0  0
 23 29  1  0  0  0  0
 25 26  1  6  0  0  0
 25 31  1  0  0  0  0
 27  7  1  1  0  0  0
 27 28  1  0  0  0  0
 29 30  1  1  0  0  0
 29 33  1  0  0  0  0
 31 32  1  1  0  0  0
 31 35  1  0  0  0  0
 33 34  1  0  0  0  0
 33 37  1  6  0  0  0
 35 36  1  6  0  0  0
 37 38  1  0  0  0  0
M  END
>  <CHROM.1>
-93.59601218,-94.89456647,175.14474183,92.23839680,106.13301381,-128.95926301
86.44752491,-124.52255532,63.82003876,-83.01988754,67.11631682,1.63506511
35.12686287,-2.87819662,0.18190388,-0.55598801,0.47107433

>  <Name>
1ntb_lig

>  <RI>
0

>  <Rbt.Current_Directory>
/home/itssahil/PROJECTS/Mol_Feturizer/New_Systems/rnas/1ntb

>  <Rbt.Executable>
rbdock ($Id: //depot/dev/client3/rdock/2013.1/src/exe/rbdock.cxx#4 $)

>  <Rbt.Library>
libRbt.so (2013.1, Build901 2013/11/27)

>  <Rbt.Parameter_File>
/export/apps/rDock/src/rDock_2013.1_src/data/scripts/dock_solv.prm

>  <Rbt.Receptor>
prm/pocket_docking_5.prm

>  <SCORE>
-15.2778

>  <SCORE.INTER>
-9.90609

>  <SCORE.INTER.CONST>
1

>  <SCORE.INTER.POLAR>
-1.86972

>  <SCORE.INTER.ROT>
11

>  <SCORE.INTER.SOLV>
18.7206

>  <SCORE.INTER.VDW>
-17.5452

>  <SCORE.INTER.norm>
-0.247652

>  <SCORE.INTRA>
-5.37175

>  <SCORE.INTRA.DIHEDRAL>
0.821102

>  <SCORE.INTRA.DIHEDRAL.0>
15.4453

>  <SCORE.INTRA.POLAR>
0

>  <SCORE.INTRA.POLAR.0>
0

>  <SCORE.INTRA.REPUL>
-0.811913

>  <SCORE.INTRA.REPUL.0>
0.823958

>  <SCORE.INTRA.SOLV>
3.53402

>  <SCORE.INTRA.SOLV.lig_0>
-99.3069

>  <SCORE.INTRA.VDW>
-3.48974

>  <SCORE.INTRA.VDW.0>
0.946495

>  <SCORE.INTRA.norm>
-0.134294

>  <SCORE.RESTR>
0

>  <SCORE.RESTR.CAVITY>
0

>  <SCORE.RESTR.norm>
0

>  <SCORE.SYSTEM>
0

>  <SCORE.SYSTEM.CONST>
0

>  <SCORE.SYSTEM.DIHEDRAL>
0

>  <SCORE.SYSTEM.SOLV>
0

>  <SCORE.SYSTEM.norm>
0

>  <SCORE.heavy>
40

>  <SCORE.norm>
-0.381946

>  <RMSD>
3.858

$$$$
1ntb_lig
 OpenBabel11021811403D
libRbt.so/2013.1/901 2013/11/27
 40 42  0  0  0  0  0  0  0  0999 V2000
    8.8926   32.7807   -2.2094 C   0  0  0  0  0  0  0  0  0  0  0  0
    9.8836   32.6080   -1.4231 N   0  0  0  0  0  0  0  0  0  0  0  0
   -0.5862   37.4318    0.8522 C   0  0  0  0  0  0  0  0  0  0  0  0
   -0.8197   38.7522    1.3132 O   0  0  0  0  0  0  0  0  0  0  0  0
    6.3818   37.2465    0.7478 C   0  0  0  0  0  0  0  0  0  0  0  0
    7.6517   37.2185    0.9444 N   0  0  0  0  0  0  0  0  0  0  0  0
    0.5107   34.8917    2.5624 C   0  0  0  0  0  0  0  0  0  0  0  0
    1.4270   41.0536    3.4140 C   0  0  0  0  0  0  0  0  0  0  0  0
    6.7284   33.6045   -1.7584 C   0  0  2  0  0  0  0  0  0  0  0  0
    7.7120   32.4547   -1.7195 N   0  0  0  0  0  0  0  0  0  0  0  0
    2.9017   36.3400    0.4315 C   0  0  2  0  0  0  0  0  0  0  0  0
    1.5814   39.7108    0.5666 C   0  0  1  0  0  0  0  0  0  0  0  0
    2.4339   38.6016    0.7830 O   0  0  0  0  0  0  0  0  0  0  0  0
    6.7047   34.3487   -0.4278 C   0  0  1  0  0  0  0  0  0  0  0  0
    8.1145   34.7951   -0.2158 O   0  0  0  0  0  0  0  0  0  0  0  0
    1.8675   37.4483    0.3541 C   0  0  2  0  0  0  0  0  0  0  0  0
    2.2622   40.9532    1.0876 C   0  0  1  0  0  0  0  0  0  0  0  0
    2.4952   40.8253    2.4829 N   0  0  0  0  0  0  0  0  0  0  0  0
    5.7031   35.5015   -0.4072 C   0  0  2  0  0  0  0  0  0  0  0  0
    5.6430   36.2461    0.8336 N   0  0  0  0  0  0  0  0  0  0  0  0
    0.7858   36.9722    1.2870 C   0  0  1  0  0  0  0  0  0  0  0  0
    1.0555   37.4226    2.6188 O   0  0  0  0  0  0  0  0  0  0  0  0
    3.5860   41.1026    0.3569 C   0  0  2  0  0  0  0  0  0  0  0  0
    4.2709   42.2479    0.8148 O   0  0  0  0  0  0  0  0  0  0  0  0
    4.3361   34.9358   -0.6926 C   0  0  1  0  0  0  0  0  0  0  0  0
    3.4763   36.0989   -0.8486 O   0  0  0  0  0  0  0  0  0  0  0  0
    0.8800   35.4922    1.2307 C   0  0  1  0  0  0  0  0  0  0  0  0
    2.2338   35.1684    0.9054 O   0  0  0  0  0  0  0  0  0  0  0  0
    3.2610   41.2354   -1.1311 C   0  0  1  0  0  0  0  0  0  0  0  0
    4.4542   41.3737   -1.8866 O   0  0  0  0  0  0  0  0  0  0  0  0
    4.3322   34.2182   -2.0693 C   0  0  2  0  0  0  0  0  0  0  0  0
    3.0336   33.7058   -2.3246 O   0  0  0  0  0  0  0  0  0  0  0  0
    2.4962   39.9914   -1.5842 C   0  0  1  0  0  0  0  0  0  0  0  0
    1.2974   39.8536   -0.8231 O   0  0  0  0  0  0  0  0  0  0  0  0
    5.3448   33.0570   -2.0442 C   0  0  1  0  0  0  0  0  0  0  0  0
    5.3532   32.3837   -3.3086 O   0  0  0  0  0  0  0  0  0  0  0  0
    2.1427   40.1382   -3.0644 C   0  0  0  0  0  0  0  0  0  0  0  0
    3.3355   40.1181   -3.8321 O   0  0  0  0  0  0  0  0  0  0  0  0
    9.0330   33.2195   -3.4109 N   0  0  0  0  0  0  0  0  0  0  0  0
    5.8250   38.3325    0.5081 N   0  0  0  0  0  0  0  0  0  0  0  0
  1  2  1  0  0  0  0
  1 39  1  0  0  0  0
  3  4  1  0  0  0  0
  5  6  1  0  0  0  0
  5 40  1  0  0  0  0
  9 10  1  1  0  0  0
  9 14  1  0  0  0  0
  9 35  1  0  0  0  0
 10  1  1  0  0  0  0
 11 16  1  0  0  0  0
 11 28  1  0  0  0  0
 11 26  1  6  0  0  0
 12 17  1  0  0  0  0
 12 34  1  0  0  0  0
 12 13  1  6  0  0  0
 14 15  1  6  0  0  0
 14 19  1  0  0  0  0
 16 13  1  1  0  0  0
 16 21  1  0  0  0  0
 17 18  1  1  0  0  0
 17 23  1  0  0  0  0
 18  8  1  0  0  0  0
 19 20  1  1  0  0  0
 19 25  1  0  0  0  0
 20  5  1  0  0  0  0
 21  3  1  6  0  0  0
 21 22  1  0  0  0  0
 21 27  1  0  0  0  0
 23 24  1  1  0  0  0
 23 29  1  0  0  0  0
 25 26  1  6  0  0  0
 25 31  1  0  0  0  0
 27  7  1  1  0  0  0
 27 28  1  0  0  0  0
 29 30  1  6  0  0  0
 29 33  1  0  0  0  0
 31 32  1  1  0  0  0
 31 35  1  0  0  0  0
 33 34  1  0  0  0  0
 33 37  1  6  0  0  0
 35 36  1  6  0  0  0
 37 38  1  0  0  0  0
M  END
>  <CHROM.1>
-95.30278378,123.27475720,-174.00498762,179.01700824,172.01755817,-79.34171194
95.09504561,-82.33823973,-83.21291309,-93.77551764,66.58075671,3.91147740
37.03067245,-0.27768389,-0.81103795,0.42625294,-0.00959123

>  <Name>
1ntb_lig

>  <RI>
0

>  <Rbt.Current_Directory>
/home/itssahil/PROJECTS/Mol_Feturizer/New_Systems/rnas/1ntb

>  <Rbt.Executable>
rbdock ($Id: //depot/dev/client3/rdock/2013.1/src/exe/rbdock.cxx#4 $)

>  <Rbt.Library>
libRbt.so (2013.1, Build901 2013/11/27)

>  <Rbt.Parameter_File>
/export/apps/rDock/src/rDock_2013.1_src/data/scripts/dock_solv.prm

>  <Rbt.Receptor>
prm/pocket_docking_7.prm

>  <SCORE>
-18.8554

>  <SCORE.INTER>
-7.87953

>  <SCORE.INTER.CONST>
1

>  <SCORE.INTER.POLAR>
-1.78974

>  <SCORE.INTER.ROT>
11

>  <SCORE.INTER.SOLV>
25.7631

>  <SCORE.INTER.VDW>
-18.8083

>  <SCORE.INTER.norm>
-0.196988

>  <SCORE.INTRA>
-10.9759

>  <SCORE.INTRA.DIHEDRAL>
-6.10212

>  <SCORE.INTRA.DIHEDRAL.0>
15.4453

>  <SCORE.INTRA.POLAR>
0

>  <SCORE.INTRA.POLAR.0>
0

>  <SCORE.INTRA.REPUL>
-0.823958

>  <SCORE.INTRA.REPUL.0>
0.823958

>  <SCORE.INTRA.SOLV>
0.903869

>  <SCORE.INTRA.SOLV.lig_0>
-99.3069

>  <SCORE.INTRA.VDW>
-4.25694

>  <SCORE.INTRA.VDW.0>
0.946495

>  <SCORE.INTRA.norm>
-0.274396

>  <SCORE.RESTR>
0

>  <SCORE.RESTR.CAVITY>
0

>  <SCORE.RESTR.norm>
0

>  <SCORE.SYSTEM>
0

>  <SCORE.SYSTEM.CONST>
0

>  <SCORE.SYSTEM.DIHEDRAL>
0

>  <SCORE.SYSTEM.SOLV>
0

>  <SCORE.SYSTEM.norm>
0

>  <SCORE.heavy>
40

>  <SCORE.norm>
-0.471385

>  <RMSD>
3.967

$$$$
1ntb_lig
 OpenBabel11021811403D
libRbt.so/2013.1/901 2013/11/27
 40 42  0  0  0  0  0  0  0  0999 V2000
    9.6399   33.4669   -1.2686 C   0  0  0  0  0  0  0  0  0  0  0  0
    9.9374   32.7642   -2.2923 N   0  0  0  0  0  0  0  0  0  0  0  0
   -0.4913   37.4413    0.7783 C   0  0  0  0  0  0  0  0  0  0  0  0
   -0.7324   38.7891    1.1465 O   0  0  0  0  0  0  0  0  0  0  0  0
    6.1007   37.7309    1.2588 C   0  0  0  0  0  0  0  0  0  0  0  0
    5.6685   38.6667    0.4909 N   0  0  0  0  0  0  0  0  0  0  0  0
    0.4166   34.9758    2.6959 C   0  0  0  0  0  0  0  0  0  0  0  0
    1.5401   41.4467    3.2804 C   0  0  0  0  0  0  0  0  0  0  0  0
    7.3896   34.0499   -0.8660 C   0  0  2  0  0  0  0  0  0  0  0  0
    8.5466   33.1041   -0.6257 N   0  0  0  0  0  0  0  0  0  0  0  0
    2.9977   36.2772    0.6959 C   0  0  2  0  0  0  0  0  0  0  0  0
    1.7380   39.6704    0.5509 C   0  0  1  0  0  0  0  0  0  0  0  0
    2.5465   38.5606    0.8955 O   0  0  0  0  0  0  0  0  0  0  0  0
    7.0787   34.8623    0.3863 C   0  0  1  0  0  0  0  0  0  0  0  0
    8.3539   35.5715    0.7067 O   0  0  0  0  0  0  0  0  0  0  0  0
    1.9943   37.3955    0.4801 C   0  0  2  0  0  0  0  0  0  0  0  0
    2.4188   40.9311    1.0261 C   0  0  1  0  0  0  0  0  0  0  0  0
    2.5643   40.8966    2.4386 N   0  0  0  0  0  0  0  0  0  0  0  0
    5.8965   35.8118    0.2028 C   0  0  2  0  0  0  0  0  0  0  0  0
    5.5607   36.6121    1.3623 N   0  0  0  0  0  0  0  0  0  0  0  0
    0.8325   36.9840    1.3449 C   0  0  1  0  0  0  0  0  0  0  0  0
    1.0033   37.4978    2.6701 O   0  0  0  0  0  0  0  0  0  0  0  0
    3.7875   40.9993    0.3698 C   0  0  2  0  0  0  0  0  0  0  0  0
    4.4736   42.1586    0.7891 O   0  0  0  0  0  0  0  0  0  0  0  0
    4.6926   34.9886   -0.1756 C   0  0  1  0  0  0  0  0  0  0  0  0
    3.6682   35.9624   -0.5199 O   0  0  0  0  0  0  0  0  0  0  0  0
    0.9028   35.5018    1.3702 C   0  0  1  0  0  0  0  0  0  0  0  0
    2.2718   35.1415    1.1720 O   0  0  0  0  0  0  0  0  0  0  0  0
    3.5559   41.0343   -1.1410 C   0  0  1  0  0  0  0  0  0  0  0  0
    4.7955   41.0926   -1.8292 O   0  0  0  0  0  0  0  0  0  0  0  0
    4.9774   34.1941   -1.4786 C   0  0  2  0  0  0  0  0  0  0  0  0
    3.8274   33.4377   -1.8245 O   0  0  0  0  0  0  0  0  0  0  0  0
    2.7871   39.7786   -1.5536 C   0  0  1  0  0  0  0  0  0  0  0  0
    1.5417   39.7213   -0.8601 O   0  0  0  0  0  0  0  0  0  0  0  0
    6.1664   33.2416   -1.2480 C   0  0  1  0  0  0  0  0  0  0  0  0
    6.4421   32.5001   -2.4424 O   0  0  0  0  0  0  0  0  0  0  0  0
    2.5271   39.8287   -3.0594 C   0  0  0  0  0  0  0  0  0  0  0  0
    2.2673   38.5162   -3.5309 O   0  0  0  0  0  0  0  0  0  0  0  0
   10.3424   34.4794   -0.8984 N   0  0  0  0  0  0  0  0  0  0  0  0
    7.1470   37.9077    1.9074 N   0  0  0  0  0  0  0  0  0  0  0  0
  1  2  1  0  0  0  0
  1 39  1  0  0  0  0
  3  4  1  0  0  0  0
  5  6  1  0  0  0  0
  5 40  1  0  0  0  0
  9 10  1  1  0  0  0
  9 14  1  0  0  0  0
  9 35  1  0  0  0  0
 10  1  1  0  0  0  0
 11 16  1  0  0  0  0
 11 28  1  0  0  0  0
 11 26  1  6  0  0  0
 12 17  1  0  0  0  0
 12 34  1  0  0  0  0
 12 13  1  6  0  0  0
 14 15  1  6  0  0  0
 14 19  1  0  0  0  0
 16 13  1  1  0  0  0
 16 21  1  0  0  0  0
 17 18  1  1  0  0  0
 17 23  1  0  0  0  0
 18  8  1  0  0  0  0
 19 20  1  1  0  0  0
 19 25  1  0  0  0  0
 20  5  1  0  0  0  0
 21  3  1  6  0  0  0
 21 22  1  0  0  0  0
 21 27  1  0  0  0  0
 23 24  1  1  0  0  0
 23 29  1  0  0  0  0
 25 26  1  6  0  0  0
 25 31  1  0  0  0  0
 27  7  1  1  0  0  0
 27 28  1  0  0  0  0
 29 30  1  6  0  0  0
 29 33  1  0  0  0  0
 31 32  1  1  0  0  0
 31 35  1  0  0  0  0
 33 34  1  0  0  0  0
 33 37  1  6  0  0  0
 35 36  1  6  0  0  0
 37 38  1  0  0  0  0
M  END
>  <CHROM.1>
-109.30950700,-105.93832703,174.25458479,-179.28106571,171.77517555,-90.92046471
96.19701400,76.62437950,-82.90233802,-88.14220028,159.16189254,4.13620828
37.12382540,0.05496096,-0.74073265,0.26019230,0.02058260

>  <Name>
1ntb_lig

>  <RI>
0

>  <Rbt.Current_Directory>
/home/itssahil/PROJECTS/Mol_Feturizer/New_Systems/rnas/1ntb

>  <Rbt.Executable>
rbdock ($Id: //depot/dev/client3/rdock/2013.1/src/exe/rbdock.cxx#4 $)

>  <Rbt.Library>
libRbt.so (2013.1, Build901 2013/11/27)

>  <Rbt.Parameter_File>
/export/apps/rDock/src/rDock_2013.1_src/data/scripts/dock_solv.prm

>  <Rbt.Receptor>
prm/pocket_docking_8.prm

>  <SCORE>
-17.5896

>  <SCORE.INTER>
-6.61804

>  <SCORE.INTER.CONST>
1

>  <SCORE.INTER.POLAR>
-1.23406

>  <SCORE.INTER.ROT>
11

>  <SCORE.INTER.SOLV>
27.5211

>  <SCORE.INTER.VDW>
-20.4055

>  <SCORE.INTER.norm>
-0.165451

>  <SCORE.INTRA>
-10.9715

>  <SCORE.INTRA.DIHEDRAL>
-5.09215

>  <SCORE.INTRA.DIHEDRAL.0>
15.4453

>  <SCORE.INTRA.POLAR>
0

>  <SCORE.INTRA.POLAR.0>
0

>  <SCORE.INTRA.REPUL>
-0.823958

>  <SCORE.INTRA.REPUL.0>
0.823958

>  <SCORE.INTRA.SOLV>
2.82952

>  <SCORE.INTRA.SOLV.lig_0>
-99.3069

>  <SCORE.INTRA.VDW>
-5.72041

>  <SCORE.INTRA.VDW.0>
0.946495

>  <SCORE.INTRA.norm>
-0.274288

>  <SCORE.RESTR>
0

>  <SCORE.RESTR.CAVITY>
0

>  <SCORE.RESTR.norm>
0

>  <SCORE.SYSTEM>
0

>  <SCORE.SYSTEM.CONST>
0

>  <SCORE.SYSTEM.DIHEDRAL>
0

>  <SCORE.SYSTEM.SOLV>
0

>  <SCORE.SYSTEM.norm>
0

>  <SCORE.heavy>
40

>  <SCORE.norm>
-0.439739

>  <RMSD>
4.011

$$$$
1ntb_lig
 OpenBabel11021811403D
libRbt.so/2013.1/901 2013/11/27
 40 42  0  0  0  0  0  0  0  0999 V2000
    6.4082   32.7239   -3.0256 C   0  0  0  0  0  0  0  0  0  0  0  0
    7.3871   33.5083   -3.2636 N   0  0  0  0  0  0  0  0  0  0  0  0
   -1.8985   37.2540    2.1737 C   0  0  0  0  0  0  0  0  0  0  0  0
   -2.9098   36.6074    2.9283 O   0  0  0  0  0  0  0  0  0  0  0  0
    5.3717   37.2725    1.4550 C   0  0  0  0  0  0  0  0  0  0  0  0
    6.6486   37.3281    1.5913 N   0  0  0  0  0  0  0  0  0  0  0  0
   -0.8744   34.3329    3.1727 C   0  0  0  0  0  0  0  0  0  0  0  0
    0.0093   39.5741    5.9018 C   0  0  0  0  0  0  0  0  0  0  0  0
    5.0768   33.9099   -1.4807 C   0  0  2  0  0  0  0  0  0  0  0  0
    5.9667   32.7233   -1.7825 N   0  0  0  0  0  0  0  0  0  0  0  0
    1.6099   36.2871    1.6349 C   0  0  2  0  0  0  0  0  0  0  0  0
    0.1992   39.4285    2.7757 C   0  0  1  0  0  0  0  0  0  0  0  0
    1.1167   38.3703    2.5698 O   0  0  0  0  0  0  0  0  0  0  0  0
    5.3650   34.4702   -0.0923 C   0  0  1  0  0  0  0  0  0  0  0  0
    6.8166   34.8223   -0.1174 O   0  0  0  0  0  0  0  0  0  0  0  0
    0.5761   37.3837    1.8153 C   0  0  2  0  0  0  0  0  0  0  0  0
    0.8170   40.4268    3.7246 C   0  0  1  0  0  0  0  0  0  0  0  0
    1.0799   39.8044    4.9740 N   0  0  0  0  0  0  0  0  0  0  0  0
    4.4692   35.6526    0.2712 C   0  0  2  0  0  0  0  0  0  0  0  0
    4.7044   36.2269    1.5799 N   0  0  0  0  0  0  0  0  0  0  0  0
   -0.5470   36.6804    2.5301 C   0  0  1  0  0  0  0  0  0  0  0  0
   -0.3432   36.7466    3.9455 O   0  0  0  0  0  0  0  0  0  0  0  0
    2.1179   40.9140    3.1090 C   0  0  2  0  0  0  0  0  0  0  0  0
    2.7443   41.8459    3.9634 O   0  0  0  0  0  0  0  0  0  0  0  0
    3.0369   35.1903    0.2018 C   0  0  1  0  0  0  0  0  0  0  0  0
    2.2461   36.4002    0.3662 O   0  0  0  0  0  0  0  0  0  0  0  0
   -0.4441   35.2715    2.0753 C   0  0  1  0  0  0  0  0  0  0  0  0
    0.9249   35.0367    1.7379 O   0  0  0  0  0  0  0  0  0  0  0  0
    1.7613   41.5700    1.7749 C   0  0  1  0  0  0  0  0  0  0  0  0
    2.9322   42.0484    1.1315 O   0  0  0  0  0  0  0  0  0  0  0  0
    2.7145   34.6636   -1.2226 C   0  0  2  0  0  0  0  0  0  0  0  0
    1.3586   34.2471   -1.2701 O   0  0  0  0  0  0  0  0  0  0  0  0
    1.0608   40.5401    0.8880 C   0  0  1  0  0  0  0  0  0  0  0  0
   -0.1154   40.0596    1.5368 O   0  0  0  0  0  0  0  0  0  0  0  0
    3.6294   33.4664   -1.5450 C   0  0  1  0  0  0  0  0  0  0  0  0
    3.3440   32.9680   -2.8574 O   0  0  0  0  0  0  0  0  0  0  0  0
    0.6752   41.2045   -0.4339 C   0  0  0  0  0  0  0  0  0  0  0  0
   -0.2528   42.2464   -0.1780 O   0  0  0  0  0  0  0  0  0  0  0  0
    5.8982   31.9625   -3.9289 N   0  0  0  0  0  0  0  0  0  0  0  0
    4.7348   38.3183    1.2376 N   0  0  0  0  0  0  0  0  0  0  0  0
  1  2  1  0  0  0  0
  1 39  1  0  0  0  0
  3  4  1  0  0  0  0
  5  6  1  0  0  0  0
  5 40  1  0  0  0  0
  9 10  1  1  0  0  0
  9 14  1  0  0  0  0
  9 35  1  0  0  0  0
 10  1  1  0  0  0  0
 11 16  1  0  0  0  0
 11 28  1  0  0  0  0
 11 26  1  6  0  0  0
 12 17  1  0  0  0  0
 12 34  1  0  0  0  0
 12 13  1  6  0  0  0
 14 15  1  6  0  0  0
 14 19  1  0  0  0  0
 16 13  1  1  0  0  0
 16 21  1  0  0  0  0
 17 18  1  1  0  0  0
 17 23  1  0  0  0  0
 18  8  1  0  0  0  0
 19 20  1  1  0  0  0
 19 25  1  0  0  0  0
 20  5  1  0  0  0  0
 21  3  1  6  0  0  0
 21 22  1  0  0  0  0
 21 27  1  0  0  0  0
 23 24  1  1  0  0  0
 23 29  1  0  0  0  0
 25 26  1  6  0  0  0
 25 31  1  0  0  0  0
 27  7  1  1  0  0  0
 27 28  1  0  0  0  0
 29 30  1  6  0  0  0
 29 33  1  0  0  0  0
 31 32  1  1  0  0  0
 31 35  1  0  0  0  0
 33 34  1  0  0  0  0
 33 37  1  6  0  0  0
 35 36  1  6  0  0  0
 37 38  1  0  0  0  0
M  END
>  <CHROM.1>
-139.66188835,78.92494594,-170.51501440,174.78552613,179.98562926,-77.60113329
101.56277184,-96.65965248,-176.76359110,-111.27688634,-62.96461285,2.33783290
37.01934844,1.01664641,-0.94196826,0.42993038,0.34528023

>  <Name>
1ntb_lig

>  <RI>
0

>  <Rbt.Current_Directory>
/home/itssahil/PROJECTS/Mol_Feturizer/New_Systems/rnas/1ntb

>  <Rbt.Executable>
rbdock ($Id: //depot/dev/client3/rdock/2013.1/src/exe/rbdock.cxx#4 $)

>  <Rbt.Library>
libRbt.so (2013.1, Build901 2013/11/27)

>  <Rbt.Parameter_File>
/export/apps/rDock/src/rDock_2013.1_src/data/scripts/dock_solv.prm

>  <Rbt.Receptor>
prm/pocket_docking_7.prm

>  <SCORE>
-16.8775

>  <SCORE.INTER>
-5.03466

>  <SCORE.INTER.CONST>
1

>  <SCORE.INTER.POLAR>
-1.61453

>  <SCORE.INTER.ROT>
11

>  <SCORE.INTER.SOLV>
25.648

>  <SCORE.INTER.VDW>
-17.4573

>  <SCORE.INTER.norm>
-0.125867

>  <SCORE.INTRA>
-11.8428

>  <SCORE.INTRA.DIHEDRAL>
-4.44929

>  <SCORE.INTRA.DIHEDRAL.0>
15.4453

>  <SCORE.INTRA.POLAR>
0

>  <SCORE.INTRA.POLAR.0>
0

>  <SCORE.INTRA.REPUL>
-0.823958

>  <SCORE.INTRA.REPUL.0>
0.823958

>  <SCORE.INTRA.SOLV>
-1.00561

>  <SCORE.INTRA.SOLV.lig_0>
-99.3069

>  <SCORE.INTRA.VDW>
-4.99559

>  <SCORE.INTRA.VDW.0>
0.946495

>  <SCORE.INTRA.norm>
-0.296071

>  <SCORE.RESTR>
0

>  <SCORE.RESTR.CAVITY>
0

>  <SCORE.RESTR.norm>
0

>  <SCORE.SYSTEM>
0

>  <SCORE.SYSTEM.CONST>
0

>  <SCORE.SYSTEM.DIHEDRAL>
0

>  <SCORE.SYSTEM.SOLV>
0

>  <SCORE.SYSTEM.norm>
0

>  <SCORE.heavy>
40

>  <SCORE.norm>
-0.421937

>  <RMSD>
4.689

$$$$
1ntb_lig
 OpenBabel11021811403D
libRbt.so/2013.1/901 2013/11/27
 40 42  0  0  0  0  0  0  0  0999 V2000
    8.8831   33.5065   -0.9787 C   0  0  0  0  0  0  0  0  0  0  0  0
    9.7699   33.5078   -1.8973 N   0  0  0  0  0  0  0  0  0  0  0  0
   -0.9307   38.1035   -0.7848 C   0  0  0  0  0  0  0  0  0  0  0  0
   -2.1182   37.3425   -0.6393 O   0  0  0  0  0  0  0  0  0  0  0  0
    3.3629   33.4143   -2.8460 C   0  0  0  0  0  0  0  0  0  0  0  0
    2.3449   32.7837   -2.3790 N   0  0  0  0  0  0  0  0  0  0  0  0
    1.3379   38.8330   -2.9987 C   0  0  0  0  0  0  0  0  0  0  0  0
    0.0288   35.6428    2.6124 C   0  0  0  0  0  0  0  0  0  0  0  0
    6.8675   34.5741   -0.3760 C   0  0  2  0  0  0  0  0  0  0  0  0
    8.3406   34.6781   -0.7077 N   0  0  0  0  0  0  0  0  0  0  0  0
    1.9811   35.8911   -1.1857 C   0  0  2  0  0  0  0  0  0  0  0  0
   -0.1423   33.9799   -0.1271 C   0  0  1  0  0  0  0  0  0  0  0  0
   -0.1670   34.9747   -1.1340 O   0  0  0  0  0  0  0  0  0  0  0  0
    6.0178   34.6182   -1.6414 C   0  0  1  0  0  0  0  0  0  0  0  0
    6.5101   33.4771   -2.4706 O   0  0  0  0  0  0  0  0  0  0  0  0
    0.5343   36.0731   -0.7646 C   0  0  2  0  0  0  0  0  0  0  0  0
   -1.1839   34.3171    0.9120 C   0  0  1  0  0  0  0  0  0  0  0  0
   -0.8828   35.5716    1.5060 N   0  0  0  0  0  0  0  0  0  0  0  0
    4.5191   34.5469   -1.3560 C   0  0  2  0  0  0  0  0  0  0  0  0
    3.6650   34.5805   -2.5252 N   0  0  0  0  0  0  0  0  0  0  0  0
    0.1068   37.2970   -1.5304 C   0  0  1  0  0  0  0  0  0  0  0  0
   -0.3961   36.9185   -2.8160 O   0  0  0  0  0  0  0  0  0  0  0  0
   -2.5328   34.3882    0.2162 C   0  0  2  0  0  0  0  0  0  0  0  0
   -3.5453   34.7116    1.1441 O   0  0  0  0  0  0  0  0  0  0  0  0
    4.1588   35.7084   -0.4665 C   0  0  1  0  0  0  0  0  0  0  0  0
    2.7762   35.4692   -0.0826 O   0  0  0  0  0  0  0  0  0  0  0  0
    1.3562   38.0812   -1.6930 C   0  0  1  0  0  0  0  0  0  0  0  0
    2.4420   37.1517   -1.6776 O   0  0  0  0  0  0  0  0  0  0  0  0
   -2.7913   33.0115   -0.3964 C   0  0  1  0  0  0  0  0  0  0  0  0
   -4.0381   32.9989   -1.0739 O   0  0  0  0  0  0  0  0  0  0  0  0
    4.9806   35.6480    0.8493 C   0  0  2  0  0  0  0  0  0  0  0  0
    4.6160   36.7413    1.6775 O   0  0  0  0  0  0  0  0  0  0  0  0
   -1.6618   32.6839   -1.3734 C   0  0  1  0  0  0  0  0  0  0  0  0
   -0.4091   32.6979   -0.6908 O   0  0  0  0  0  0  0  0  0  0  0  0
    6.4831   35.7348    0.5190 C   0  0  1  0  0  0  0  0  0  0  0  0
    7.2560   35.6805    1.7239 O   0  0  0  0  0  0  0  0  0  0  0  0
   -1.9028   31.2936   -1.9620 C   0  0  0  0  0  0  0  0  0  0  0  0
   -0.8191   30.9536   -2.8121 O   0  0  0  0  0  0  0  0  0  0  0  0
    8.5544   32.4401   -0.3380 N   0  0  0  0  0  0  0  0  0  0  0  0
    4.1375   32.8313   -3.6250 N   0  0  0  0  0  0  0  0  0  0  0  0
  1  2  1  0  0  0  0
  1 39  1  0  0  0  0
  3  4  1  0  0  0  0
  5  6  1  0  0  0  0
  5 40  1  0  0  0  0
  9 10  1  6  0  0  0
  9 14  1  0  0  0  0
  9 35  1  0  0  0  0
 10  1  1  0  0  0  0
 11 16  1  0  0  0  0
 11 28  1  0  0  0  0
 11 26  1  1  0  0  0
 12 17  1  0  0  0  0
 12 34  1  0  0  0  0
 12 13  1  6  0  0  0
 14 15  1  6  0  0  0
 14 19  1  0  0  0  0
 16 13  1  6  0  0  0
 16 21  1  0  0  0  0
 17 18  1  6  0  0  0
 17 23  1  0  0  0  0
 18  8  1  0  0  0  0
 19 20  1  6  0  0  0
 19 25  1  0  0  0  0
 20  5  1  0  0  0  0
 21  3  1  1  0  0  0
 21 22  1  0  0  0  0
 21 27  1  0  0  0  0
 23 24  1  1  0  0  0
 23 29  1  0  0  0  0
 25 26  1  1  0  0  0
 25 31  1  0  0  0  0
 27  7  1  6  0  0  0
 27 28  1  0  0  0  0
 29 30  1  6  0  0  0
 29 33  1  0  0  0  0
 31 32  1  1  0  0  0
 31 35  1  0  0  0  0
 33 34  1  0  0  0  0
 33 37  1  1  0  0  0
 35 36  1  1  0  0  0
 37 38  1  0  0  0  0
M  END
>  <CHROM.1>
-86.44656106,143.30964205,-163.41916742,81.57048552,88.61804265,-85.32571279
96.25342321,88.46588031,-64.21218092,-79.66580167,-176.76682861,2.12962046
34.82757971,-0.85023834,0.02579310,-0.01571224,-2.80204654

>  <Name>
1ntb_lig

>  <RI>
0

>  <Rbt.Current_Directory>
/home/itssahil/PROJECTS/Mol_Feturizer/New_Systems/rnas/1ntb

>  <Rbt.Executable>
rbdock ($Id: //depot/dev/client3/rdock/2013.1/src/exe/rbdock.cxx#4 $)

>  <Rbt.Library>
libRbt.so (2013.1, Build901 2013/11/27)

>  <Rbt.Parameter_File>
/export/apps/rDock/src/rDock_2013.1_src/data/scripts/dock_solv.prm

>  <Rbt.Receptor>
prm/pocket_docking_3.prm

>  <SCORE>
-7.07914

>  <SCORE.INTER>
0.140195

>  <SCORE.INTER.CONST>
1

>  <SCORE.INTER.POLAR>
-1.1609

>  <SCORE.INTER.ROT>
11

>  <SCORE.INTER.SOLV>
25.7914

>  <SCORE.INTER.VDW>
-15.5673

>  <SCORE.INTER.norm>
0.00350487

>  <SCORE.INTRA>
-7.22906

>  <SCORE.INTRA.DIHEDRAL>
-4.04231

>  <SCORE.INTRA.DIHEDRAL.0>
15.4453

>  <SCORE.INTRA.POLAR>
0

>  <SCORE.INTRA.POLAR.0>
0

>  <SCORE.INTRA.REPUL>
-0.823958

>  <SCORE.INTRA.REPUL.0>
0.823958

>  <SCORE.INTRA.SOLV>
2.84892

>  <SCORE.INTRA.SOLV.lig_0>
-99.3069

>  <SCORE.INTRA.VDW>
-2.51258

>  <SCORE.INTRA.VDW.0>
0.946495

>  <SCORE.INTRA.norm>
-0.180726

>  <SCORE.RESTR>
0.00972158

>  <SCORE.RESTR.CAVITY>
0.00972158

>  <SCORE.RESTR.norm>
0.000243039

>  <SCORE.SYSTEM>
0

>  <SCORE.SYSTEM.CONST>
0

>  <SCORE.SYSTEM.DIHEDRAL>
0

>  <SCORE.SYSTEM.SOLV>
0

>  <SCORE.SYSTEM.norm>
0

>  <SCORE.heavy>
40

>  <SCORE.norm>
-0.176979

>  <RMSD>
4.703

$$$$
1ntb_lig
 OpenBabel11021811403D
libRbt.so/2013.1/901 2013/11/27
 40 42  0  0  0  0  0  0  0  0999 V2000
    7.7985   34.0579   -0.9231 C   0  0  0  0  0  0  0  0  0  0  0  0
    8.8748   34.7440   -0.8907 N   0  0  0  0  0  0  0  0  0  0  0  0
   -1.2346   38.4928   -2.2957 C   0  0  0  0  0  0  0  0  0  0  0  0
   -0.8451   39.1161   -1.0832 O   0  0  0  0  0  0  0  0  0  0  0  0
    1.8151   32.5570   -0.8536 C   0  0  0  0  0  0  0  0  0  0  0  0
    2.1750   31.8197    0.1358 N   0  0  0  0  0  0  0  0  0  0  0  0
    1.3412   38.5182   -4.2818 C   0  0  0  0  0  0  0  0  0  0  0  0
   -3.6231   35.0112   -4.1348 C   0  0  0  0  0  0  0  0  0  0  0  0
    5.8405   34.2160    0.3834 C   0  0  2  0  0  0  0  0  0  0  0  0
    7.2772   33.7584    0.2511 N   0  0  0  0  0  0  0  0  0  0  0  0
    1.4590   36.0378   -1.7940 C   0  0  2  0  0  0  0  0  0  0  0  0
   -2.1113   35.5449   -1.4666 C   0  0  1  0  0  0  0  0  0  0  0  0
   -0.7638   35.3206   -1.8380 O   0  0  0  0  0  0  0  0  0  0  0  0
    4.9447   33.5026   -0.6233 C   0  0  1  0  0  0  0  0  0  0  0  0
    5.1226   32.0489   -0.3283 O   0  0  0  0  0  0  0  0  0  0  0  0
   -0.0005   36.4195   -1.6268 C   0  0  2  0  0  0  0  0  0  0  0  0
   -2.9285   34.3377   -1.8581 C   0  0  1  0  0  0  0  0  0  0  0  0
   -2.8703   34.1527   -3.2651 N   0  0  0  0  0  0  0  0  0  0  0  0
    3.4874   33.9536   -0.5492 C   0  0  2  0  0  0  0  0  0  0  0  0
    2.5909   33.3032   -1.4824 N   0  0  0  0  0  0  0  0  0  0  0  0
   -0.2061   37.4606   -2.6949 C   0  0  1  0  0  0  0  0  0  0  0  0
   -0.5912   36.8325   -3.9222 O   0  0  0  0  0  0  0  0  0  0  0  0
   -2.3393   33.1261   -1.1554 C   0  0  2  0  0  0  0  0  0  0  0  0
   -3.0627   31.9636   -1.4959 O   0  0  0  0  0  0  0  0  0  0  0  0
    3.4462   35.4384   -0.8016 C   0  0  1  0  0  0  0  0  0  0  0  0
    2.0712   35.8254   -0.5263 O   0  0  0  0  0  0  0  0  0  0  0  0
    1.1283   38.0907   -2.8527 C   0  0  1  0  0  0  0  0  0  0  0  0
    2.1026   37.1121   -2.4833 O   0  0  0  0  0  0  0  0  0  0  0  0
   -2.4348   33.3923    0.3471 C   0  0  1  0  0  0  0  0  0  0  0  0
   -1.8955   32.3014    1.0769 O   0  0  0  0  0  0  0  0  0  0  0  0
    4.3144   36.1826    0.2484 C   0  0  2  0  0  0  0  0  0  0  0  0
    4.2503   37.5787    0.0016 O   0  0  0  0  0  0  0  0  0  0  0  0
   -1.6644   34.6720    0.6735 C   0  0  1  0  0  0  0  0  0  0  0  0
   -2.2074   35.7674   -0.0617 O   0  0  0  0  0  0  0  0  0  0  0  0
    5.7760   35.7089    0.1327 C   0  0  1  0  0  0  0  0  0  0  0  0
    6.5912   36.3871    1.0959 O   0  0  0  0  0  0  0  0  0  0  0  0
   -1.7866   34.9563    2.1708 C   0  0  0  0  0  0  0  0  0  0  0  0
   -0.9801   34.0348    2.8869 O   0  0  0  0  0  0  0  0  0  0  0  0
    7.2664   33.6600   -2.0250 N   0  0  0  0  0  0  0  0  0  0  0  0
    0.6414   32.5017   -1.2609 N   0  0  0  0  0  0  0  0  0  0  0  0
  1  2  1  0  0  0  0
  1 39  1  0  0  0  0
  3  4  1  0  0  0  0
  5  6  1  0  0  0  0
  5 40  1  0  0  0  0
  9 10  1  6  0  0  0
  9 14  1  0  0  0  0
  9 35  1  0  0  0  0
 10  1  1  0  0  0  0
 11 16  1  0  0  0  0
 11 28  1  0  0  0  0
 11 26  1  1  0  0  0
 12 17  1  0  0  0  0
 12 34  1  0  0  0  0
 12 13  1  1  0  0  0
 14 15  1  1  0  0  0
 14 19  1  0  0  0  0
 16 13  1  6  0  0  0
 16 21  1  0  0  0  0
 17 18  1  6  0  0  0
 17 23  1  0  0  0  0
 18  8  1  0  0  0  0
 19 20  1  6  0  0  0
 19 25  1  0  0  0  0
 20  5  1  0  0  0  0
 21  3  1  1  0  0  0
 21 22  1  0  0  0  0
 21 27  1  0  0  0  0
 23 24  1  1  0  0  0
 23 29  1  0  0  0  0
 25 26  1  1  0  0  0
 25 31  1  0  0  0  0
 27  7  1  6  0  0  0
 27 28  1  0  0  0  0
 29 30  1  1  0  0  0
 29 33  1  0  0  0  0
 31 32  1  6  0  0  0
 31 35  1  0  0  0  0
 33 34  1  0  0  0  0
 33 37  1  1  0  0  0
 35 36  1  1  0  0  0
 37 38  1  0  0  0  0
M  END
>  <CHROM.1>
63.30993243,124.31874036,178.73289874,174.24410836,169.50389949,-75.26774802
110.64362321,-40.62040696,57.46584641,-104.77094581,73.35781486,1.42925657
35.01536960,-0.97219807,0.10060416,0.08400045,2.64159558

>  <Name>
1ntb_lig

>  <RI>
0

>  <Rbt.Current_Directory>
/home/itssahil/PROJECTS/Mol_Feturizer/New_Systems/rnas/1ntb

>  <Rbt.Executable>
rbdock ($Id: //depot/dev/client3/rdock/2013.1/src/exe/rbdock.cxx#4 $)

>  <Rbt.Library>
libRbt.so (2013.1, Build901 2013/11/27)

>  <Rbt.Parameter_File>
/export/apps/rDock/src/rDock_2013.1_src/data/scripts/dock_solv.prm

>  <Rbt.Receptor>
prm/pocket_docking_4.prm

>  <SCORE>
-5.44678

>  <SCORE.INTER>
2.65127

>  <SCORE.INTER.CONST>
1

>  <SCORE.INTER.POLAR>
-0.930265

>  <SCORE.INTER.ROT>
11

>  <SCORE.INTER.SOLV>
21.3706

>  <SCORE.INTER.VDW>
-13.1885

>  <SCORE.INTER.norm>
0.0662818

>  <SCORE.INTRA>
-8.09805

>  <SCORE.INTRA.DIHEDRAL>
-5.46499

>  <SCORE.INTRA.DIHEDRAL.0>
15.4453

>  <SCORE.INTRA.POLAR>
0

>  <SCORE.INTRA.POLAR.0>
0

>  <SCORE.INTRA.REPUL>
-0.802618

>  <SCORE.INTRA.REPUL.0>
0.823958

>  <SCORE.INTRA.SOLV>
4.63285

>  <SCORE.INTRA.SOLV.lig_0>
-99.3069

>  <SCORE.INTRA.VDW>
-3.6689

>  <SCORE.INTRA.VDW.0>
0.946495

>  <SCORE.INTRA.norm>
-0.202451

>  <SCORE.RESTR>
0

>  <SCORE.RESTR.CAVITY>
0

>  <SCORE.RESTR.norm>
0

>  <SCORE.SYSTEM>
0

>  <SCORE.SYSTEM.CONST>
0

>  <SCORE.SYSTEM.DIHEDRAL>
0

>  <SCORE.SYSTEM.SOLV>
0

>  <SCORE.SYSTEM.norm>
0

>  <SCORE.heavy>
40

>  <SCORE.norm>
-0.13617

>  <RMSD>
4.736

$$$$
1ntb_lig
 OpenBabel11021811403D
libRbt.so/2013.1/901 2013/11/27
 40 42  0  0  0  0  0  0  0  0999 V2000
    8.6185   34.1234   -1.2262 C   0  0  0  0  0  0  0  0  0  0  0  0
    9.3566   35.1354   -0.9789 N   0  0  0  0  0  0  0  0  0  0  0  0
   -1.2173   37.3086   -1.0853 C   0  0  0  0  0  0  0  0  0  0  0  0
   -2.2038   36.4702   -1.6634 O   0  0  0  0  0  0  0  0  0  0  0  0
    3.9837   33.3408   -3.0500 C   0  0  0  0  0  0  0  0  0  0  0  0
    4.7219   32.5893   -3.7864 N   0  0  0  0  0  0  0  0  0  0  0  0
    1.2513   39.2031   -2.0325 C   0  0  0  0  0  0  0  0  0  0  0  0
    0.3658   33.4599    1.1413 C   0  0  0  0  0  0  0  0  0  0  0  0
    6.6954   33.7231    0.0804 C   0  0  2  0  0  0  0  0  0  0  0  0
    8.1672   33.4745   -0.1700 N   0  0  0  0  0  0  0  0  0  0  0  0
    2.1509   35.8636   -1.4046 C   0  0  2  0  0  0  0  0  0  0  0  0
    0.7083   33.4563   -2.0032 C   0  0  1  0  0  0  0  0  0  0  0  0
    0.3281   34.7691   -2.3724 O   0  0  0  0  0  0  0  0  0  0  0  0
    5.8489   33.2061   -1.0776 C   0  0  1  0  0  0  0  0  0  0  0  0
    6.1857   31.7540   -1.1770 O   0  0  0  0  0  0  0  0  0  0  0  0
    0.6457   35.6676   -1.4098 C   0  0  2  0  0  0  0  0  0  0  0  0
   -0.3789   32.8622   -1.1408 C   0  0  1  0  0  0  0  0  0  0  0  0
   -0.5357   33.6379    0.0386 N   0  0  0  0  0  0  0  0  0  0  0  0
    4.3555   33.4616   -0.8851 C   0  0  2  0  0  0  0  0  0  0  0  0
    3.5039   32.9856   -1.9556 N   0  0  0  0  0  0  0  0  0  0  0  0
    0.1231   37.0429   -1.7299 C   0  0  1  0  0  0  0  0  0  0  0  0
    0.0281   37.2120   -3.1482 O   0  0  0  0  0  0  0  0  0  0  0  0
   -1.6705   32.8762   -1.9409 C   0  0  2  0  0  0  0  0  0  0  0  0
   -2.7262   32.3385   -1.1747 O   0  0  0  0  0  0  0  0  0  0  0  0
    4.1526   34.9472   -0.7367 C   0  0  1  0  0  0  0  0  0  0  0  0
    2.7536   35.0974   -0.3670 O   0  0  0  0  0  0  0  0  0  0  0  0
    1.1532   37.9615   -1.1845 C   0  0  1  0  0  0  0  0  0  0  0  0
    2.3969   37.2570   -1.2009 O   0  0  0  0  0  0  0  0  0  0  0  0
   -1.4309   32.0260   -3.1887 C   0  0  1  0  0  0  0  0  0  0  0  0
   -2.5974   31.9947   -3.9962 O   0  0  0  0  0  0  0  0  0  0  0  0
    4.9697   35.4794    0.4713 C   0  0  2  0  0  0  0  0  0  0  0  0
    4.7535   36.8760    0.6018 O   0  0  0  0  0  0  0  0  0  0  0  0
   -0.2645   32.6217   -3.9777 C   0  0  1  0  0  0  0  0  0  0  0  0
    0.9070   32.6532   -3.1641 O   0  0  0  0  0  0  0  0  0  0  0  0
    6.4686   35.2135    0.2326 C   0  0  1  0  0  0  0  0  0  0  0  0
    7.2372   35.6995    1.3395 O   0  0  0  0  0  0  0  0  0  0  0  0
   -0.0035   31.7534   -5.2087 C   0  0  0  0  0  0  0  0  0  0  0  0
    1.0802   32.3001   -5.9429 O   0  0  0  0  0  0  0  0  0  0  0  0
    8.3498   33.7414   -2.4252 N   0  0  0  0  0  0  0  0  0  0  0  0
    3.7632   34.5131   -3.4019 N   0  0  0  0  0  0  0  0  0  0  0  0
  1  2  1  0  0  0  0
  1 39  1  0  0  0  0
  3  4  1  0  0  0  0
  5  6  1  0  0  0  0
  5 40  1  0  0  0  0
  9 10  1  6  0  0  0
  9 14  1  0  0  0  0
  9 35  1  0  0  0  0
 10  1  1  0  0  0  0
 11 16  1  0  0  0  0
 11 28  1  0  0  0  0
 11 26  1  1  0  0  0
 12 17  1  0  0  0  0
 12 34  1  0  0  0  0
 12 13  1  6  0  0  0
 14 15  1  1  0  0  0
 14 19  1  0  0  0  0
 16 13  1  6  0  0  0
 16 21  1  0  0  0  0
 17 18  1  1  0  0  0
 17 23  1  0  0  0  0
 18  8  1  0  0  0  0
 19 20  1  6  0  0  0
 19 25  1  0  0  0  0
 20  5  1  0  0  0  0
 21  3  1  1  0  0  0
 21 22  1  0  0  0  0
 21 27  1  0  0  0  0
 23 24  1  1  0  0  0
 23 29  1  0  0  0  0
 25 26  1  1  0  0  0
 25 31  1  0  0  0  0
 27  7  1  6  0  0  0
 27 28  1  0  0  0  0
 29 30  1  6  0  0  0
 29 33  1  0  0  0  0
 31 32  1  6  0  0  0
 31 35  1  0  0  0  0
 33 34  1  0  0  0  0
 33 37  1  6  0  0  0
 35 36  1  1  0  0  0
 37 38  1  0  0  0  0
M  END
>  <CHROM.1>
63.15436571,106.30792917,159.40084835,83.90258325,72.49398300,-80.49743353
-47.25116318,96.92886915,-67.01542695,-118.61305662,-179.86705635,2.49916363
34.41199368,-1.66842496,-0.15527164,0.17636374,-2.64607991

>  <Name>
1ntb_lig

>  <RI>
0

>  <Rbt.Current_Directory>
/home/itssahil/PROJECTS/Mol_Feturizer/New_Systems/rnas/1ntb

>  <Rbt.Executable>
rbdock ($Id: //depot/dev/client3/rdock/2013.1/src/exe/rbdock.cxx#4 $)

>  <Rbt.Library>
libRbt.so (2013.1, Build901 2013/11/27)

>  <Rbt.Parameter_File>
/export/apps/rDock/src/rDock_2013.1_src/data/scripts/dock_solv.prm

>  <Rbt.Receptor>
prm/pocket_docking_3.prm

>  <SCORE>
-6.12697

>  <SCORE.INTER>
-3.5181

>  <SCORE.INTER.CONST>
1

>  <SCORE.INTER.POLAR>
-1.1289

>  <SCORE.INTER.ROT>
11

>  <SCORE.INTER.SOLV>
27.499

>  <SCORE.INTER.VDW>
-18.6821

>  <SCORE.INTER.norm>
-0.0879525

>  <SCORE.INTRA>
-2.617

>  <SCORE.INTRA.DIHEDRAL>
-1.54438

>  <SCORE.INTRA.DIHEDRAL.0>
15.4453

>  <SCORE.INTRA.POLAR>
0

>  <SCORE.INTRA.POLAR.0>
0

>  <SCORE.INTRA.REPUL>
-0.592337

>  <SCORE.INTRA.REPUL.0>
0.823958

>  <SCORE.INTRA.SOLV>
7.09107

>  <SCORE.INTRA.SOLV.lig_0>
-99.3069

>  <SCORE.INTRA.VDW>
-2.42865

>  <SCORE.INTRA.VDW.0>
0.946495

>  <SCORE.INTRA.norm>
-0.0654249

>  <SCORE.RESTR>
0.00812229

>  <SCORE.RESTR.CAVITY>
0.00812229

>  <SCORE.RESTR.norm>
0.000203057

>  <SCORE.SYSTEM>
0

>  <SCORE.SYSTEM.CONST>
0

>  <SCORE.SYSTEM.DIHEDRAL>
0

>  <SCORE.SYSTEM.SOLV>
0

>  <SCORE.SYSTEM.norm>
0

>  <SCORE.heavy>
40

>  <SCORE.norm>
-0.153174

>  <RMSD>
4.752

$$$$
1ntb_lig
 OpenBabel11021811403D
libRbt.so/2013.1/901 2013/11/27
 40 42  0  0  0  0  0  0  0  0999 V2000
    8.3362   33.1768   -1.3470 C   0  0  0  0  0  0  0  0  0  0  0  0
    9.2878   34.0155   -1.4927 N   0  0  0  0  0  0  0  0  0  0  0  0
   -0.4826   39.1121   -0.3833 C   0  0  0  0  0  0  0  0  0  0  0  0
    0.3448   39.2425    0.7607 O   0  0  0  0  0  0  0  0  0  0  0  0
    1.8751   33.0925   -2.9590 C   0  0  0  0  0  0  0  0  0  0  0  0
    1.4537   32.4262   -1.9439 N   0  0  0  0  0  0  0  0  0  0  0  0
    1.3385   39.3272   -3.0698 C   0  0  0  0  0  0  0  0  0  0  0  0
   -0.3333   36.5279    2.6355 C   0  0  0  0  0  0  0  0  0  0  0  0
    6.0258   33.6132   -1.5407 C   0  0  2  0  0  0  0  0  0  0  0  0
    7.3435   33.2848   -2.2091 N   0  0  0  0  0  0  0  0  0  0  0  0
    1.5803   36.2418   -1.4033 C   0  0  2  0  0  0  0  0  0  0  0  0
   -0.6504   34.8764    0.1207 C   0  0  1  0  0  0  0  0  0  0  0  0
   -0.6640   35.9109   -0.8457 O   0  0  0  0  0  0  0  0  0  0  0  0
    4.9040   33.7213   -2.5676 C   0  0  1  0  0  0  0  0  0  0  0  0
    4.8920   32.3973   -3.2595 O   0  0  0  0  0  0  0  0  0  0  0  0
    0.3651   36.7730   -0.6651 C   0  0  2  0  0  0  0  0  0  0  0  0
   -1.7347   35.1478    1.1352 C   0  0  1  0  0  0  0  0  0  0  0  0
   -1.4837   36.3833    1.7893 N   0  0  0  0  0  0  0  0  0  0  0  0
    3.5573   34.0820   -1.9438 C   0  0  2  0  0  0  0  0  0  0  0  0
    2.4544   34.1932   -2.8759 N   0  0  0  0  0  0  0  0  0  0  0  0
    0.1119   38.0985   -1.3330 C   0  0  1  0  0  0  0  0  0  0  0  0
   -0.7489   37.9202   -2.4629 O   0  0  0  0  0  0  0  0  0  0  0  0
   -3.0603   35.2176    0.3957 C   0  0  2  0  0  0  0  0  0  0  0  0
   -4.1112   35.4804    1.2996 O   0  0  0  0  0  0  0  0  0  0  0  0
    3.7135   35.3984   -1.2278 C   0  0  1  0  0  0  0  0  0  0  0  0
    2.4644   35.5802   -0.5047 O   0  0  0  0  0  0  0  0  0  0  0  0
    1.4531   38.5393   -1.7906 C   0  0  1  0  0  0  0  0  0  0  0  0
    2.2321   37.3608   -2.0087 O   0  0  0  0  0  0  0  0  0  0  0  0
   -3.2653   33.8617   -0.2803 C   0  0  1  0  0  0  0  0  0  0  0  0
   -4.4875   33.8494   -1.0013 O   0  0  0  0  0  0  0  0  0  0  0  0
    4.8190   35.2883   -0.1433 C   0  0  2  0  0  0  0  0  0  0  0  0
    4.9398   36.5330    0.5278 O   0  0  0  0  0  0  0  0  0  0  0  0
   -2.0955   33.5994   -1.2293 C   0  0  1  0  0  0  0  0  0  0  0  0
   -0.8677   33.6130   -0.5030 O   0  0  0  0  0  0  0  0  0  0  0  0
    6.1608   34.9358   -0.8138 C   0  0  1  0  0  0  0  0  0  0  0  0
    7.1924   34.8306    0.1746 O   0  0  0  0  0  0  0  0  0  0  0  0
   -2.2835   32.2293   -1.8814 C   0  0  0  0  0  0  0  0  0  0  0  0
   -1.1105   31.8931   -2.6049 O   0  0  0  0  0  0  0  0  0  0  0  0
    8.3284   32.2980   -0.4071 N   0  0  0  0  0  0  0  0  0  0  0  0
    1.7575   32.6084   -4.0985 N   0  0  0  0  0  0  0  0  0  0  0  0
  1  2  1  0  0  0  0
  1 39  1  0  0  0  0
  3  4  1  0  0  0  0
  5  6  1  0  0  0  0
  5 40  1  0  0  0  0
  9 10  1  6  0  0  0
  9 14  1  0  0  0  0
  9 35  1  0  0  0  0
 10  1  1  0  0  0  0
 11 16  1  0  0  0  0
 11 28  1  0  0  0  0
 11 26  1  1  0  0  0
 12 17  1  0  0  0  0
 12 34  1  0  0  0  0
 12 13  1  6  0  0  0
 14 15  1  1  0  0  0
 14 19  1  0  0  0  0
 16 13  1  6  0  0  0
 16 21  1  0  0  0  0
 17 18  1  6  0  0  0
 17 23  1  0  0  0  0
 18  8  1  0  0  0  0
 19 20  1  6  0  0  0
 19 25  1  0  0  0  0
 20  5  1  0  0  0  0
 21  3  1  1  0  0  0
 21 22  1  0  0  0  0
 21 27  1  0  0  0  0
 23 24  1  1  0  0  0
 23 29  1  0  0  0  0
 25 26  1  1  0  0  0
 25 31  1  0  0  0  0
 27  7  1  6  0  0  0
 27 28  1  0  0  0  0
 29 30  1  6  0  0  0
 29 33  1  0  0  0  0
 31 32  1  6  0  0  0
 31 35  1  0  0  0  0
 33 34  1  0  0  0  0
 33 37  1  1  0  0  0
 35 36  1  1  0  0  0
 37 38  1  0  0  0  0
M  END
>  <CHROM.1>
-179.66568464,-117.97072236,-166.75155205,104.73351047,86.80888519,-66.00277358
92.25158902,52.08853533,54.70009191,-88.18070368,-171.34977556,1.69476117
35.08620965,-1.03828057,0.21482273,-0.06941933,-2.82656025

>  <Name>
1ntb_lig

>  <RI>
0

>  <Rbt.Current_Directory>
/home/itssahil/PROJECTS/Mol_Feturizer/New_Systems/rnas/1ntb

>  <Rbt.Executable>
rbdock ($Id: //depot/dev/client3/rdock/2013.1/src/exe/rbdock.cxx#4 $)

>  <Rbt.Library>
libRbt.so (2013.1, Build901 2013/11/27)

>  <Rbt.Parameter_File>
/export/apps/rDock/src/rDock_2013.1_src/data/scripts/dock_solv.prm

>  <Rbt.Receptor>
prm/pocket_docking_2.prm

>  <SCORE>
2.23001

>  <SCORE.INTER>
2.98255

>  <SCORE.INTER.CONST>
1

>  <SCORE.INTER.POLAR>
-1.39042

>  <SCORE.INTER.ROT>
11

>  <SCORE.INTER.SOLV>
23.4996

>  <SCORE.INTER.VDW>
-12.1434

>  <SCORE.INTER.norm>
0.0745638

>  <SCORE.INTRA>
-3.76259

>  <SCORE.INTRA.DIHEDRAL>
-0.0238104

>  <SCORE.INTRA.DIHEDRAL.0>
15.4453

>  <SCORE.INTRA.POLAR>
0

>  <SCORE.INTRA.POLAR.0>
0

>  <SCORE.INTRA.REPUL>
-0.823958

>  <SCORE.INTRA.REPUL.0>
0.823958

>  <SCORE.INTRA.SOLV>
3.57037

>  <SCORE.INTRA.SOLV.lig_0>
-99.3069

>  <SCORE.INTRA.VDW>
-1.41608

>  <SCORE.INTRA.VDW.0>
0.946495

>  <SCORE.INTRA.norm>
-0.0940648

>  <SCORE.RESTR>
3.01005

>  <SCORE.RESTR.CAVITY>
3.01005

>  <SCORE.RESTR.norm>
0.0752513

>  <SCORE.SYSTEM>
0

>  <SCORE.SYSTEM.CONST>
0

>  <SCORE.SYSTEM.DIHEDRAL>
0

>  <SCORE.SYSTEM.SOLV>
0

>  <SCORE.SYSTEM.norm>
0

>  <SCORE.heavy>
40

>  <SCORE.norm>
0.0557503

>  <RMSD>
4.764

$$$$
1ntb_lig
 OpenBabel11021811403D
libRbt.so/2013.1/901 2013/11/27
 40 42  0  0  0  0  0  0  0  0999 V2000
    9.4878   32.3548   -3.1488 C   0  0  0  0  0  0  0  0  0  0  0  0
   10.0184   31.8866   -4.2116 N   0  0  0  0  0  0  0  0  0  0  0  0
    0.6279   36.3956    2.0294 C   0  0  0  0  0  0  0  0  0  0  0  0
    0.3061   37.6655    2.5719 O   0  0  0  0  0  0  0  0  0  0  0  0
    2.8174   33.1767   -2.9665 C   0  0  0  0  0  0  0  0  0  0  0  0
    2.5141   32.7320   -1.7993 N   0  0  0  0  0  0  0  0  0  0  0  0
    2.7920   38.6099    1.0326 C   0  0  0  0  0  0  0  0  0  0  0  0
   -2.5072   36.9219    0.3400 C   0  0  0  0  0  0  0  0  0  0  0  0
    7.4260   33.2849   -2.4783 C   0  0  2  0  0  0  0  0  0  0  0  0
    8.6803   33.3838   -3.3198 N   0  0  0  0  0  0  0  0  0  0  0  0
    3.0913   35.4838   -0.5464 C   0  0  2  0  0  0  0  0  0  0  0  0
   -0.3327   34.3782   -0.3557 C   0  0  1  0  0  0  0  0  0  0  0  0
    0.8335   34.9858   -0.8800 O   0  0  0  0  0  0  0  0  0  0  0  0
    6.1964   33.6992   -3.2792 C   0  0  1  0  0  0  0  0  0  0  0  0
    6.1816   32.7802   -4.4569 O   0  0  0  0  0  0  0  0  0  0  0  0
    1.7347   35.2549    0.0948 C   0  0  2  0  0  0  0  0  0  0  0  0
   -1.5418   35.0510   -0.9591 C   0  0  1  0  0  0  0  0  0  0  0  0
   -1.5511   36.4277   -0.6097 N   0  0  0  0  0  0  0  0  0  0  0  0
    4.9070   33.6452   -2.4625 C   0  0  2  0  0  0  0  0  0  0  0  0
    3.7061   34.0251   -3.1775 N   0  0  0  0  0  0  0  0  0  0  0  0
    1.4521   36.5681    0.7749 C   0  0  1  0  0  0  0  0  0  0  0  0
    0.7877   37.4550   -0.1312 O   0  0  0  0  0  0  0  0  0  0  0  0
   -1.4540   34.9043   -2.4688 C   0  0  2  0  0  0  0  0  0  0  0  0
   -2.5596   35.5270   -3.0858 O   0  0  0  0  0  0  0  0  0  0  0  0
    5.0680   34.5608   -1.2769 C   0  0  1  0  0  0  0  0  0  0  0  0
    3.8956   34.3128   -0.4522 O   0  0  0  0  0  0  0  0  0  0  0  0
    2.7956   37.1049    1.1056 C   0  0  1  0  0  0  0  0  0  0  0  0
    3.7108   36.5697    0.1468 O   0  0  0  0  0  0  0  0  0  0  0  0
   -1.4493   33.4057   -2.7713 C   0  0  1  0  0  0  0  0  0  0  0  0
   -1.3625   33.1847   -4.1704 O   0  0  0  0  0  0  0  0  0  0  0  0
    6.2876   34.1196   -0.4235 C   0  0  2  0  0  0  0  0  0  0  0  0
    6.4125   34.9853    0.6941 O   0  0  0  0  0  0  0  0  0  0  0  0
   -0.2560   32.7614   -2.0650 C   0  0  1  0  0  0  0  0  0  0  0  0
   -0.3445   32.9852   -0.6588 O   0  0  0  0  0  0  0  0  0  0  0  0
    7.5668   34.1998   -1.2787 C   0  0  1  0  0  0  0  0  0  0  0  0
    8.7026   33.7956   -0.5048 O   0  0  0  0  0  0  0  0  0  0  0  0
   -0.2692   31.2576   -2.3408 C   0  0  0  0  0  0  0  0  0  0  0  0
   -1.5166   30.7201   -1.9313 O   0  0  0  0  0  0  0  0  0  0  0  0
    9.7404   31.8748   -1.9820 N   0  0  0  0  0  0  0  0  0  0  0  0
    2.2417   32.7112   -3.9658 N   0  0  0  0  0  0  0  0  0  0  0  0
  1  2  1  0  0  0  0
  1 39  1  0  0  0  0
  3  4  1  0  0  0  0
  5  6  1  0  0  0  0
  5 40  1  0  0  0  0
  9 10  1  6  0  0  0
  9 14  1  0  0  0  0
  9 35  1  0  0  0  0
 10  1  1  0  0  0  0
 11 16  1  0  0  0  0
 11 28  1  0  0  0  0
 11 26  1  1  0  0  0
 12 17  1  0  0  0  0
 12 34  1  0  0  0  0
 12 13  1  6  0  0  0
 14 15  1  6  0  0  0
 14 19  1  0  0  0  0
 16 13  1  6  0  0  0
 16 21  1  0  0  0  0
 17 18  1  6  0  0  0
 17 23  1  0  0  0  0
 18  8  1  0  0  0  0
 19 20  1  6  0  0  0
 19 25  1  0  0  0  0
 20  5  1  0  0  0  0
 21  3  1  1  0  0  0
 21 22  1  0  0  0  0
 21 27  1  0  0  0  0
 23 24  1  6  0  0  0
 23 29  1  0  0  0  0
 25 26  1  1  0  0  0
 25 31  1  0  0  0  0
 27  7  1  6  0  0  0
 27 28  1  0  0  0  0
 29 30  1  6  0  0  0
 29 33  1  0  0  0  0
 31 32  1  1  0  0  0
 31 35  1  0  0  0  0
 33 34  1  0  0  0  0
 33 37  1  1  0  0  0
 35 36  1  1  0  0  0
 37 38  1  0  0  0  0
M  END
>  <CHROM.1>
-137.54669818,137.83075370,170.89224459,134.20913644,162.37983975,-108.08443345
132.42080210,47.78634027,-175.59198514,-109.91058702,-55.99902035,2.82175516
34.39633088,-1.36562072,0.27189303,0.02981226,-2.37742323

>  <Name>
1ntb_lig

>  <RI>
0

>  <Rbt.Current_Directory>
/home/itssahil/PROJECTS/Mol_Feturizer/New_Systems/rnas/1ntb

>  <Rbt.Executable>
rbdock ($Id: //depot/dev/client3/rdock/2013.1/src/exe/rbdock.cxx#4 $)

>  <Rbt.Library>
libRbt.so (2013.1, Build901 2013/11/27)

>  <Rbt.Parameter_File>
/export/apps/rDock/src/rDock_2013.1_src/data/scripts/dock_solv.prm

>  <Rbt.Receptor>
prm/pocket_docking_3.prm

>  <SCORE>
-10.0279

>  <SCORE.INTER>
-5.0158

>  <SCORE.INTER.CONST>
1

>  <SCORE.INTER.POLAR>
-1.11355

>  <SCORE.INTER.ROT>
11

>  <SCORE.INTER.SOLV>
27.4655

>  <SCORE.INTER.VDW>
-19.7205

>  <SCORE.INTER.norm>
-0.125395

>  <SCORE.INTRA>
-5.01211

>  <SCORE.INTRA.DIHEDRAL>
3.98523

>  <SCORE.INTRA.DIHEDRAL.0>
15.4453

>  <SCORE.INTRA.POLAR>
0

>  <SCORE.INTRA.POLAR.0>
0

>  <SCORE.INTRA.REPUL>
-0.823958

>  <SCORE.INTRA.REPUL.0>
0.823958

>  <SCORE.INTRA.SOLV>
6.65947

>  <SCORE.INTRA.SOLV.lig_0>
-99.3069

>  <SCORE.INTRA.VDW>
-6.21468

>  <SCORE.INTRA.VDW.0>
0.946495

>  <SCORE.INTRA.norm>
-0.125303

>  <SCORE.RESTR>
0

>  <SCORE.RESTR.CAVITY>
0

>  <SCORE.RESTR.norm>
0

>  <SCORE.SYSTEM>
0

>  <SCORE.SYSTEM.CONST>
0

>  <SCORE.SYSTEM.DIHEDRAL>
0

>  <SCORE.SYSTEM.SOLV>
0

>  <SCORE.SYSTEM.norm>
0

>  <SCORE.heavy>
40

>  <SCORE.norm>
-0.250698

>  <RMSD>
4.845

$$$$
1ntb_lig
 OpenBabel11021811403D
libRbt.so/2013.1/901 2013/11/27
 40 42  0  0  0  0  0  0  0  0999 V2000
    9.2607   32.7117   -1.1956 C   0  0  0  0  0  0  0  0  0  0  0  0
    9.5349   32.1070   -0.1051 N   0  0  0  0  0  0  0  0  0  0  0  0
   -1.0533   36.2375    0.5585 C   0  0  0  0  0  0  0  0  0  0  0  0
   -0.9999   34.9221    1.0852 O   0  0  0  0  0  0  0  0  0  0  0  0
    4.2448   33.4339   -3.2857 C   0  0  0  0  0  0  0  0  0  0  0  0
    4.8679   32.7846   -4.2035 N   0  0  0  0  0  0  0  0  0  0  0  0
    1.1282   38.4816    1.4445 C   0  0  0  0  0  0  0  0  0  0  0  0
   -1.6153   38.0007   -3.0234 C   0  0  0  0  0  0  0  0  0  0  0  0
    7.2968   33.8473   -0.5480 C   0  0  2  0  0  0  0  0  0  0  0  0
    8.7183   33.9071   -1.0644 N   0  0  0  0  0  0  0  0  0  0  0  0
    2.4807   35.7836   -0.3574 C   0  0  2  0  0  0  0  0  0  0  0  0
   -0.5180   35.2103   -2.3162 C   0  0  1  0  0  0  0  0  0  0  0  0
    0.8233   35.5155   -1.9815 O   0  0  0  0  0  0  0  0  0  0  0  0
    6.3344   33.4079   -1.6460 C   0  0  1  0  0  0  0  0  0  0  0  0
    6.8481   32.0782   -2.0930 O   0  0  0  0  0  0  0  0  0  0  0  0
    1.0169   35.4996   -0.6410 C   0  0  2  0  0  0  0  0  0  0  0  0
   -0.8104   35.7590   -3.6917 C   0  0  1  0  0  0  0  0  0  0  0  0
   -0.6529   37.1706   -3.6904 N   0  0  0  0  0  0  0  0  0  0  0  0
    4.8804   33.3614   -1.1809 C   0  0  2  0  0  0  0  0  0  0  0  0
    3.9233   32.9451   -2.1850 N   0  0  0  0  0  0  0  0  0  0  0  0
    0.3090   36.6389    0.0430 C   0  0  1  0  0  0  0  0  0  0  0  0
    0.1875   37.7480   -0.8538 O   0  0  0  0  0  0  0  0  0  0  0  0
    0.1748   35.1327   -4.6642 C   0  0  2  0  0  0  0  0  0  0  0  0
   -0.0487   35.6207   -5.9690 O   0  0  0  0  0  0  0  0  0  0  0  0
    4.5012   34.7380   -0.6998 C   0  0  1  0  0  0  0  0  0  0  0  0
    3.1863   34.5742   -0.0995 O   0  0  0  0  0  0  0  0  0  0  0  0
    1.2044   37.0021    1.1694 C   0  0  1  0  0  0  0  0  0  0  0  0
    2.5332   36.6429    0.7837 O   0  0  0  0  0  0  0  0  0  0  0  0
   -0.0502   33.6213   -4.6148 C   0  0  1  0  0  0  0  0  0  0  0  0
    0.8428   32.9601   -5.4976 O   0  0  0  0  0  0  0  0  0  0  0  0
    5.4421   35.1781    0.4541 C   0  0  2  0  0  0  0  0  0  0  0  0
    5.0592   36.4694    0.9014 O   0  0  0  0  0  0  0  0  0  0  0  0
    0.1732   33.1337   -3.1829 C   0  0  1  0  0  0  0  0  0  0  0  0
   -0.7247   33.7999   -2.2968 O   0  0  0  0  0  0  0  0  0  0  0  0
    6.8944   35.2237   -0.0587 C   0  0  1  0  0  0  0  0  0  0  0  0
    7.7762   35.6288    0.9952 O   0  0  0  0  0  0  0  0  0  0  0  0
   -0.0832   31.6275   -3.1263 C   0  0  0  0  0  0  0  0  0  0  0  0
    0.0909   31.1754   -1.7930 O   0  0  0  0  0  0  0  0  0  0  0  0
    9.4736   32.1843   -2.3499 N   0  0  0  0  0  0  0  0  0  0  0  0
    3.9821   34.6369   -3.4603 N   0  0  0  0  0  0  0  0  0  0  0  0
  1  2  1  0  0  0  0
  1 39  1  0  0  0  0
  3  4  1  0  0  0  0
  5  6  1  0  0  0  0
  5 40  1  0  0  0  0
  9 10  1  6  0  0  0
  9 14  1  0  0  0  0
  9 35  1  0  0  0  0
 10  1  1  0  0  0  0
 11 16  1  0  0  0  0
 11 28  1  0  0  0  0
 11 26  1  1  0  0  0
 12 17  1  0  0  0  0
 12 34  1  0  0  0  0
 12 13  1  6  0  0  0
 14 15  1  1  0  0  0
 14 19  1  0  0  0  0
 16 13  1  6  0  0  0
 16 21  1  0  0  0  0
 17 18  1  1  0  0  0
 17 23  1  0  0  0  0
 18  8  1  0  0  0  0
 19 20  1  6  0  0  0
 19 25  1  0  0  0  0
 20  5  1  0  0  0  0
 21  3  1  1  0  0  0
 21 22  1  0  0  0  0
 21 27  1  0  0  0  0
 23 24  1  6  0  0  0
 23 29  1  0  0  0  0
 25 26  1  1  0  0  0
 25 31  1  0  0  0  0
 27  7  1  6  0  0  0
 27 28  1  0  0  0  0
 29 30  1  6  0  0  0
 29 33  1  0  0  0  0
 31 32  1  6  0  0  0
 31 35  1  0  0  0  0
 33 34  1  0  0  0  0
 33 37  1  6  0  0  0
 35 36  1  1  0  0  0
 37 38  1  0  0  0  0
M  END
>  <CHROM.1>
-75.82694820,-70.73517402,142.98485483,157.85608437,177.94936953,-71.88978697
-38.66657182,100.02503720,38.76042092,-146.21733348,-178.59376974,2.87009031
34.68519855,-1.60381994,0.02030803,0.30040473,-2.24151077

>  <Name>
1ntb_lig

>  <RI>
0

>  <Rbt.Current_Directory>
/home/itssahil/PROJECTS/Mol_Feturizer/New_Systems/rnas/1ntb

>  <Rbt.Executable>
rbdock ($Id: //depot/dev/client3/rdock/2013.1/src/exe/rbdock.cxx#4 $)

>  <Rbt.Library>
libRbt.so (2013.1, Build901 2013/11/27)

>  <Rbt.Parameter_File>
/export/apps/rDock/src/rDock_2013.1_src/data/scripts/dock_solv.prm

>  <Rbt.Receptor>
prm/pocket_docking_2.prm

>  <SCORE>
1.75667

>  <SCORE.INTER>
3.99978

>  <SCORE.INTER.CONST>
1

>  <SCORE.INTER.POLAR>
-0.405322

>  <SCORE.INTER.ROT>
11

>  <SCORE.INTER.SOLV>
30.3989

>  <SCORE.INTER.VDW>
-17.0487

>  <SCORE.INTER.norm>
0.0999945

>  <SCORE.INTRA>
-3.6338

>  <SCORE.INTRA.DIHEDRAL>
-0.856432

>  <SCORE.INTRA.DIHEDRAL.0>
15.4453

>  <SCORE.INTRA.POLAR>
0

>  <SCORE.INTRA.POLAR.0>
0

>  <SCORE.INTRA.REPUL>
-0.823958

>  <SCORE.INTRA.REPUL.0>
0.823958

>  <SCORE.INTRA.SOLV>
2.85713

>  <SCORE.INTRA.SOLV.lig_0>
-99.3069

>  <SCORE.INTRA.VDW>
-0.514361

>  <SCORE.INTRA.VDW.0>
0.946495

>  <SCORE.INTRA.norm>
-0.0908449

>  <SCORE.RESTR>
1.39069

>  <SCORE.RESTR.CAVITY>
1.39069

>  <SCORE.RESTR.norm>
0.0347673

>  <SCORE.SYSTEM>
0

>  <SCORE.SYSTEM.CONST>
0

>  <SCORE.SYSTEM.DIHEDRAL>
0

>  <SCORE.SYSTEM.SOLV>
0

>  <SCORE.SYSTEM.norm>
0

>  <SCORE.heavy>
40

>  <SCORE.norm>
0.0439168

>  <RMSD>
4.852

$$$$
1ntb_lig
 OpenBabel11021811403D
libRbt.so/2013.1/901 2013/11/27
 40 42  0  0  0  0  0  0  0  0999 V2000
    9.3296   33.0755   -1.2411 C   0  0  0  0  0  0  0  0  0  0  0  0
    9.4364   32.2891   -0.2410 N   0  0  0  0  0  0  0  0  0  0  0  0
   -0.3806   37.5733    1.2693 C   0  0  0  0  0  0  0  0  0  0  0  0
   -1.5969   37.9130    0.6246 O   0  0  0  0  0  0  0  0  0  0  0  0
    3.6959   33.2816   -2.9962 C   0  0  0  0  0  0  0  0  0  0  0  0
    2.5739   32.8040   -2.5898 N   0  0  0  0  0  0  0  0  0  0  0  0
    2.0995   39.6454    0.9015 C   0  0  0  0  0  0  0  0  0  0  0  0
   -1.1096   38.0658   -3.5189 C   0  0  0  0  0  0  0  0  0  0  0  0
    7.3592   34.2140   -0.6189 C   0  0  2  0  0  0  0  0  0  0  0  0
    8.8284   34.2672   -0.9789 N   0  0  0  0  0  0  0  0  0  0  0  0
    2.6379   36.4790   -0.5266 C   0  0  2  0  0  0  0  0  0  0  0  0
   -0.8740   36.1999   -1.3530 C   0  0  1  0  0  0  0  0  0  0  0  0
    0.5335   36.1010   -1.4677 O   0  0  0  0  0  0  0  0  0  0  0  0
    6.4868   34.3308   -1.8639 C   0  0  1  0  0  0  0  0  0  0  0  0
    6.9142   33.1959   -2.7364 O   0  0  0  0  0  0  0  0  0  0  0  0
    1.1465   36.3375   -0.2831 C   0  0  2  0  0  0  0  0  0  0  0  0
   -1.4969   35.7778   -2.6616 C   0  0  1  0  0  0  0  0  0  0  0  0
   -1.0644   36.6428   -3.7018 N   0  0  0  0  0  0  0  0  0  0  0  0
    4.9925   34.3126   -1.5487 C   0  0  2  0  0  0  0  0  0  0  0  0
    4.1170   34.4163   -2.6978 N   0  0  0  0  0  0  0  0  0  0  0  0
    0.7651   37.6767    0.2898 C   0  0  1  0  0  0  0  0  0  0  0  0
    0.4281   38.5823   -0.7663 O   0  0  0  0  0  0  0  0  0  0  0  0
   -1.0490   34.3560   -2.9558 C   0  0  2  0  0  0  0  0  0  0  0  0
   -1.5970   33.9136   -4.1783 O   0  0  0  0  0  0  0  0  0  0  0  0
    4.6989   35.4607   -0.6182 C   0  0  1  0  0  0  0  0  0  0  0  0
    3.3156   35.2671   -0.2119 O   0  0  0  0  0  0  0  0  0  0  0  0
    1.9950   38.1441    0.9763 C   0  0  1  0  0  0  0  0  0  0  0  0
    3.1055   37.5414    0.3077 O   0  0  0  0  0  0  0  0  0  0  0  0
   -1.5465   33.4844   -1.8024 C   0  0  1  0  0  0  0  0  0  0  0  0
   -1.1600   32.1337   -2.0020 O   0  0  0  0  0  0  0  0  0  0  0  0
    5.5439   35.3273    0.6774 C   0  0  2  0  0  0  0  0  0  0  0  0
    5.2420   36.4093    1.5447 O   0  0  0  0  0  0  0  0  0  0  0  0
   -0.9556   34.0098   -0.4937 C   0  0  1  0  0  0  0  0  0  0  0  0
   -1.3445   35.3679   -0.2952 O   0  0  0  0  0  0  0  0  0  0  0  0
    7.0417   35.3621    0.3176 C   0  0  1  0  0  0  0  0  0  0  0  0
    7.8359   35.2401    1.5036 O   0  0  0  0  0  0  0  0  0  0  0  0
   -1.4785   33.1585    0.6636 C   0  0  0  0  0  0  0  0  0  0  0  0
   -2.8785   33.3507    0.7875 O   0  0  0  0  0  0  0  0  0  0  0  0
    9.6634   32.7253   -2.4334 N   0  0  0  0  0  0  0  0  0  0  0  0
    4.4481   32.5706   -3.6856 N   0  0  0  0  0  0  0  0  0  0  0  0
  1  2  1  0  0  0  0
  1 39  1  0  0  0  0
  3  4  1  0  0  0  0
  5  6  1  0  0  0  0
  5 40  1  0  0  0  0
  9 10  1  6  0  0  0
  9 14  1  0  0  0  0
  9 35  1  0  0  0  0
 10  1  1  0  0  0  0
 11 16  1  0  0  0  0
 11 28  1  0  0  0  0
 11 26  1  1  0  0  0
 12 17  1  0  0  0  0
 12 34  1  0  0  0  0
 12 13  1  6  0  0  0
 14 15  1  6  0  0  0
 14 19  1  0  0  0  0
 16 13  1  6  0  0  0
 16 21  1  0  0  0  0
 17 18  1  6  0  0  0
 17 23  1  0  0  0  0
 18  8  1  0  0  0  0
 19 20  1  6  0  0  0
 19 25  1  0  0  0  0
 20  5  1  0  0  0  0
 21  3  1  1  0  0  0
 21 22  1  0  0  0  0
 21 27  1  0  0  0  0
 23 24  1  6  0  0  0
 23 29  1  0  0  0  0
 25 26  1  1  0  0  0
 25 31  1  0  0  0  0
 27  7  1  6  0  0  0
 27 28  1  0  0  0  0
 29 30  1  6  0  0  0
 29 33  1  0  0  0  0
 31 32  1  1  0  0  0
 31 35  1  0  0  0  0
 33 34  1  0  0  0  0
 33 37  1  1  0  0  0
 35 36  1  1  0  0  0
 37 38  1  0  0  0  0
M  END
>  <CHROM.1>
-89.10482034,-69.39150737,173.82577230,-173.81957848,-169.30770813,-48.03684364
100.22429966,94.88244699,-98.52762357,-125.07806855,-65.77629440,2.58418426
35.19446317,-1.00076691,0.14607167,0.13834560,-2.51665777

>  <Name>
1ntb_lig

>  <RI>
0

>  <Rbt.Current_Directory>
/home/itssahil/PROJECTS/Mol_Feturizer/New_Systems/rnas/1ntb

>  <Rbt.Executable>
rbdock ($Id: //depot/dev/client3/rdock/2013.1/src/exe/rbdock.cxx#4 $)

>  <Rbt.Library>
libRbt.so (2013.1, Build901 2013/11/27)

>  <Rbt.Parameter_File>
/export/apps/rDock/src/rDock_2013.1_src/data/scripts/dock_solv.prm

>  <Rbt.Receptor>
prm/pocket_docking_2.prm

>  <SCORE>
-0.550088

>  <SCORE.INTER>
4.33269

>  <SCORE.INTER.CONST>
1

>  <SCORE.INTER.POLAR>
-0.652806

>  <SCORE.INTER.ROT>
11

>  <SCORE.INTER.SOLV>
25.5991

>  <SCORE.INTER.VDW>
-14.4019

>  <SCORE.INTER.norm>
0.108317

>  <SCORE.INTRA>
-5.90312

>  <SCORE.INTRA.DIHEDRAL>
-0.993675

>  <SCORE.INTRA.DIHEDRAL.0>
15.4453

>  <SCORE.INTRA.POLAR>
0

>  <SCORE.INTRA.POLAR.0>
0

>  <SCORE.INTRA.REPUL>
-0.823958

>  <SCORE.INTRA.REPUL.0>
0.823958

>  <SCORE.INTRA.SOLV>
0.125185

>  <SCORE.INTRA.SOLV.lig_0>
-99.3069

>  <SCORE.INTRA.VDW>
-1.34909

>  <SCORE.INTRA.VDW.0>
0.946495

>  <SCORE.INTRA.norm>
-0.147578

>  <SCORE.RESTR>
1.02034

>  <SCORE.RESTR.CAVITY>
1.02034

>  <SCORE.RESTR.norm>
0.0255084

>  <SCORE.SYSTEM>
0

>  <SCORE.SYSTEM.CONST>
0

>  <SCORE.SYSTEM.DIHEDRAL>
0

>  <SCORE.SYSTEM.SOLV>
0

>  <SCORE.SYSTEM.norm>
0

>  <SCORE.heavy>
40

>  <SCORE.norm>
-0.0137522

>  <RMSD>
4.921

$$$$
1ntb_lig
 OpenBabel11021811403D
libRbt.so/2013.1/901 2013/11/27
 40 42  0  0  0  0  0  0  0  0999 V2000
    8.6364   32.1285   -3.6356 C   0  0  0  0  0  0  0  0  0  0  0  0
    7.9888   31.5515   -4.5726 N   0  0  0  0  0  0  0  0  0  0  0  0
    0.3088   37.2191    1.4476 C   0  0  0  0  0  0  0  0  0  0  0  0
    1.3145   37.2719    2.4457 O   0  0  0  0  0  0  0  0  0  0  0  0
    2.4641   33.2188   -3.0725 C   0  0  0  0  0  0  0  0  0  0  0  0
    1.9224   32.7916   -4.1571 N   0  0  0  0  0  0  0  0  0  0  0  0
    1.8854   38.7866   -0.9266 C   0  0  0  0  0  0  0  0  0  0  0  0
   -1.0708   34.2083    3.5954 C   0  0  0  0  0  0  0  0  0  0  0  0
    6.9728   33.2831   -2.4253 C   0  0  2  0  0  0  0  0  0  0  0  0
    8.2065   33.3299   -3.3009 N   0  0  0  0  0  0  0  0  0  0  0  0
    2.5347   35.3346   -0.7948 C   0  0  2  0  0  0  0  0  0  0  0  0
    0.3404   33.2943    0.3063 C   0  0  1  0  0  0  0  0  0  0  0  0
    0.3805   34.5378   -0.3690 O   0  0  0  0  0  0  0  0  0  0  0  0
    5.7393   33.7448   -3.1936 C   0  0  1  0  0  0  0  0  0  0  0  0
    5.6555   32.8248   -4.3677 O   0  0  0  0  0  0  0  0  0  0  0  0
    1.3387   35.3489    0.1396 C   0  0  2  0  0  0  0  0  0  0  0  0
   -0.7931   33.3212    1.3028 C   0  0  1  0  0  0  0  0  0  0  0  0
   -0.5705   34.3491    2.2574 N   0  0  0  0  0  0  0  0  0  0  0  0
    4.4715   33.7441   -2.3420 C   0  0  2  0  0  0  0  0  0  0  0  0
    3.2678   34.1705   -3.0252 N   0  0  0  0  0  0  0  0  0  0  0  0
    0.9153   36.7938    0.1308 C   0  0  1  0  0  0  0  0  0  0  0  0
   -0.0124   37.0249   -0.9346 O   0  0  0  0  0  0  0  0  0  0  0  0
   -2.0789   33.5963    0.5414 C   0  0  2  0  0  0  0  0  0  0  0  0
   -3.1735   33.6420    1.4304 O   0  0  0  0  0  0  0  0  0  0  0  0
    4.7015   34.6549   -1.1640 C   0  0  1  0  0  0  0  0  0  0  0  0
    3.5430   34.4558   -0.3069 O   0  0  0  0  0  0  0  0  0  0  0  0
    2.1711   37.5410   -0.1284 C   0  0  1  0  0  0  0  0  0  0  0  0
    3.0333   36.6724   -0.8668 O   0  0  0  0  0  0  0  0  0  0  0  0
   -2.2548   32.4566   -0.4623 C   0  0  1  0  0  0  0  0  0  0  0  0
   -3.4387   32.6457   -1.2215 O   0  0  0  0  0  0  0  0  0  0  0  0
    5.9252   34.1668   -0.3428 C   0  0  2  0  0  0  0  0  0  0  0  0
    6.1153   35.0290    0.7684 O   0  0  0  0  0  0  0  0  0  0  0  0
   -1.0393   32.4205   -1.3892 C   0  0  1  0  0  0  0  0  0  0  0  0
    0.1499   32.2312   -0.6242 O   0  0  0  0  0  0  0  0  0  0  0  0
    7.1828   34.1939   -1.2327 C   0  0  1  0  0  0  0  0  0  0  0  0
    8.3222   33.7460   -0.4888 O   0  0  0  0  0  0  0  0  0  0  0  0
   -1.1996   31.2608   -2.3724 C   0  0  0  0  0  0  0  0  0  0  0  0
   -2.1555   31.6153   -3.3588 O   0  0  0  0  0  0  0  0  0  0  0  0
    9.6580   31.5892   -3.0688 N   0  0  0  0  0  0  0  0  0  0  0  0
    2.1444   32.7037   -1.9866 N   0  0  0  0  0  0  0  0  0  0  0  0
  1  2  1  0  0  0  0
  1 39  1  0  0  0  0
  3  4  1  0  0  0  0
  5  6  1  0  0  0  0
  5 40  1  0  0  0  0
  9 10  1  6  0  0  0
  9 14  1  0  0  0  0
  9 35  1  0  0  0  0
 10  1  1  0  0  0  0
 11 16  1  0  0  0  0
 11 28  1  0  0  0  0
 11 26  1  1  0  0  0
 12 17  1  0  0  0  0
 12 34  1  0  0  0  0
 12 13  1  6  0  0  0
 14 15  1  6  0  0  0
 14 19  1  0  0  0  0
 16 13  1  6  0  0  0
 16 21  1  0  0  0  0
 17 18  1  1  0  0  0
 17 23  1  0  0  0  0
 18  8  1  0  0  0  0
 19 20  1  6  0  0  0
 19 25  1  0  0  0  0
 20  5  1  0  0  0  0
 21  3  1  1  0  0  0
 21 22  1  0  0  0  0
 21 27  1  0  0  0  0
 23 24  1  1  0  0  0
 23 29  1  0  0  0  0
 25 26  1  1  0  0  0
 25 31  1  0  0  0  0
 27  7  1  6  0  0  0
 27 28  1  0  0  0  0
 29 30  1  6  0  0  0
 29 33  1  0  0  0  0
 31 32  1  1  0  0  0
 31 35  1  0  0  0  0
 33 34  1  0  0  0  0
 33 37  1  6  0  0  0
 35 36  1  1  0  0  0
 37 38  1  0  0  0  0
M  END
>  <CHROM.1>
-108.51931932,78.27944308,-172.38016177,100.13285712,102.45987505,-150.05220602
115.96691875,-126.56571938,70.12876561,-85.42598876,75.30946460,2.43858439
34.08633486,-1.02131477,0.29101583,-0.18922607,-2.43250928

>  <Name>
1ntb_lig

>  <RI>
0

>  <Rbt.Current_Directory>
/home/itssahil/PROJECTS/Mol_Feturizer/New_Systems/rnas/1ntb

>  <Rbt.Executable>
rbdock ($Id: //depot/dev/client3/rdock/2013.1/src/exe/rbdock.cxx#4 $)

>  <Rbt.Library>
libRbt.so (2013.1, Build901 2013/11/27)

>  <Rbt.Parameter_File>
/export/apps/rDock/src/rDock_2013.1_src/data/scripts/dock_solv.prm

>  <Rbt.Receptor>
prm/pocket_docking_4.prm

>  <SCORE>
-9.10234

>  <SCORE.INTER>
-6.03847

>  <SCORE.INTER.CONST>
1

>  <SCORE.INTER.POLAR>
-1.46437

>  <SCORE.INTER.ROT>
11

>  <SCORE.INTER.SOLV>
28.8825

>  <SCORE.INTER.VDW>
-19.7052

>  <SCORE.INTER.norm>
-0.150962

>  <SCORE.INTRA>
-3.06387

>  <SCORE.INTRA.DIHEDRAL>
4.05206

>  <SCORE.INTRA.DIHEDRAL.0>
15.4453

>  <SCORE.INTRA.POLAR>
0

>  <SCORE.INTRA.POLAR.0>
0

>  <SCORE.INTRA.REPUL>
-0.823958

>  <SCORE.INTRA.REPUL.0>
0.823958

>  <SCORE.INTRA.SOLV>
4.51028

>  <SCORE.INTRA.SOLV.lig_0>
-99.3069

>  <SCORE.INTRA.VDW>
-3.22525

>  <SCORE.INTRA.VDW.0>
0.946495

>  <SCORE.INTRA.norm>
-0.0765967

>  <SCORE.RESTR>
0

>  <SCORE.RESTR.CAVITY>
0

>  <SCORE.RESTR.norm>
0

>  <SCORE.SYSTEM>
0

>  <SCORE.SYSTEM.CONST>
0

>  <SCORE.SYSTEM.DIHEDRAL>
0

>  <SCORE.SYSTEM.SOLV>
0

>  <SCORE.SYSTEM.norm>
0

>  <SCORE.heavy>
40

>  <SCORE.norm>
-0.227558

>  <RMSD>
4.927

$$$$
1ntb_lig
 OpenBabel11021811403D
libRbt.so/2013.1/901 2013/11/27
 40 42  0  0  0  0  0  0  0  0999 V2000
    9.4219   33.2271   -1.0103 C   0  0  0  0  0  0  0  0  0  0  0  0
   10.0849   33.1882   -2.1008 N   0  0  0  0  0  0  0  0  0  0  0  0
   -0.7592   36.9469    0.9179 C   0  0  0  0  0  0  0  0  0  0  0  0
   -0.5205   35.8946    1.8377 O   0  0  0  0  0  0  0  0  0  0  0  0
    3.7953   33.3034   -3.1281 C   0  0  0  0  0  0  0  0  0  0  0  0
    2.6378   32.9076   -2.7336 N   0  0  0  0  0  0  0  0  0  0  0  0
    1.6295   39.1039    1.3890 C   0  0  0  0  0  0  0  0  0  0  0  0
   -1.9836   38.2541   -3.3185 C   0  0  0  0  0  0  0  0  0  0  0  0
    7.3525   34.2412   -0.5051 C   0  0  2  0  0  0  0  0  0  0  0  0
    8.8419   34.3798   -0.7360 N   0  0  0  0  0  0  0  0  0  0  0  0
    2.5547   36.3243   -0.5535 C   0  0  2  0  0  0  0  0  0  0  0  0
   -0.7172   35.7342   -1.9934 C   0  0  1  0  0  0  0  0  0  0  0  0
    0.6434   36.1080   -1.8791 O   0  0  0  0  0  0  0  0  0  0  0  0
    6.5808   34.3870   -1.8121 C   0  0  1  0  0  0  0  0  0  0  0  0
    7.1339   33.3220   -2.7018 O   0  0  0  0  0  0  0  0  0  0  0  0
    1.0537   36.1017   -0.5882 C   0  0  2  0  0  0  0  0  0  0  0  0
   -1.1530   35.9264   -3.4258 C   0  0  1  0  0  0  0  0  0  0  0  0
   -1.0260   37.2937   -3.7884 N   0  0  0  0  0  0  0  0  0  0  0  0
    5.0684   34.2847   -1.6260 C   0  0  2  0  0  0  0  0  0  0  0  0
    4.2865   34.4120   -2.8385 N   0  0  0  0  0  0  0  0  0  0  0  0
    0.5155   37.2805    0.1786 C   0  0  1  0  0  0  0  0  0  0  0  0
    0.2946   38.3816   -0.7091 O   0  0  0  0  0  0  0  0  0  0  0  0
   -0.2538   35.0752   -4.3065 C   0  0  2  0  0  0  0  0  0  0  0  0
   -0.6129   35.2258   -5.6626 O   0  0  0  0  0  0  0  0  0  0  0  0
    4.6431   35.3657   -0.6665 C   0  0  1  0  0  0  0  0  0  0  0  0
    3.2422   35.0884   -0.3894 O   0  0  0  0  0  0  0  0  0  0  0  0
    1.5981   37.6189    1.1357 C   0  0  1  0  0  0  0  0  0  0  0  0
    2.8294   37.1959    0.5457 O   0  0  0  0  0  0  0  0  0  0  0  0
   -0.4410   33.6239   -3.8637 C   0  0  1  0  0  0  0  0  0  0  0  0
    0.3759   32.7616   -4.6401 O   0  0  0  0  0  0  0  0  0  0  0  0
    5.3841   35.1993    0.6875 C   0  0  2  0  0  0  0  0  0  0  0  0
    4.9590   36.2175    1.5801 O   0  0  0  0  0  0  0  0  0  0  0  0
   -0.0698   33.5052   -2.3852 C   0  0  1  0  0  0  0  0  0  0  0  0
   -0.8913   34.3733   -1.6064 O   0  0  0  0  0  0  0  0  0  0  0  0
    6.9029   35.3208    0.4583 C   0  0  1  0  0  0  0  0  0  0  0  0
    7.6018   35.1695    1.6997 O   0  0  0  0  0  0  0  0  0  0  0  0
   -0.2876   32.0608   -1.9336 C   0  0  0  0  0  0  0  0  0  0  0  0
   -1.6584   31.7278   -2.0836 O   0  0  0  0  0  0  0  0  0  0  0  0
    9.3422   32.2192   -0.2145 N   0  0  0  0  0  0  0  0  0  0  0  0
    4.5091   32.5338   -3.7950 N   0  0  0  0  0  0  0  0  0  0  0  0
  1  2  1  0  0  0  0
  1 39  1  0  0  0  0
  3  4  1  0  0  0  0
  5  6  1  0  0  0  0
  5 40  1  0  0  0  0
  9 10  1  6  0  0  0
  9 14  1  0  0  0  0
  9 35  1  0  0  0  0
 10  1  1  0  0  0  0
 11 16  1  0  0  0  0
 11 28  1  0  0  0  0
 11 26  1  1  0  0  0
 12 17  1  0  0  0  0
 12 34  1  0  0  0  0
 12 13  1  6  0  0  0
 14 15  1  6  0  0  0
 14 19  1  0  0  0  0
 16 13  1  6  0  0  0
 16 21  1  0  0  0  0
 17 18  1  6  0  0  0
 17 23  1  0  0  0  0
 18  8  1  0  0  0  0
 19 20  1  6  0  0  0
 19 25  1  0  0  0  0
 20  5  1  0  0  0  0
 21  3  1  1  0  0  0
 21 22  1  0  0  0  0
 21 27  1  0  0  0  0
 23 24  1  6  0  0  0
 23 29  1  0  0  0  0
 25 26  1  1  0  0  0
 25 31  1  0  0  0  0
 27  7  1  6  0  0  0
 27 28  1  0  0  0  0
 29 30  1  6  0  0  0
 29 33  1  0  0  0  0
 31 32  1  1  0  0  0
 31 35  1  0  0  0  0
 33 34  1  0  0  0  0
 33 37  1  1  0  0  0
 35 36  1  1  0  0  0
 37 38  1  0  0  0  0
M  END
>  <CHROM.1>
-89.33827644,124.56682383,167.61702711,173.08355839,172.40111835,-75.58977186
109.21510093,91.37512896,59.72246661,-131.43803123,-61.59178218,2.77161028
35.04340530,-1.40599672,-0.00097618,0.26199592,-2.31207638

>  <Name>
1ntb_lig

>  <RI>
0

>  <Rbt.Current_Directory>
/home/itssahil/PROJECTS/Mol_Feturizer/New_Systems/rnas/1ntb

>  <Rbt.Executable>
rbdock ($Id: //depot/dev/client3/rdock/2013.1/src/exe/rbdock.cxx#4 $)

>  <Rbt.Library>
libRbt.so (2013.1, Build901 2013/11/27)

>  <Rbt.Parameter_File>
/export/apps/rDock/src/rDock_2013.1_src/data/scripts/dock_solv.prm

>  <Rbt.Receptor>
prm/pocket_docking_3.prm

>  <SCORE>
-10.049

>  <SCORE.INTER>
1.04098

>  <SCORE.INTER.CONST>
1

>  <SCORE.INTER.POLAR>
-0.701974

>  <SCORE.INTER.ROT>
11

>  <SCORE.INTER.SOLV>
27.1926

>  <SCORE.INTER.VDW>
-16.9636

>  <SCORE.INTER.norm>
0.0260245

>  <SCORE.INTRA>
-11.09

>  <SCORE.INTRA.DIHEDRAL>
-4.61535

>  <SCORE.INTRA.DIHEDRAL.0>
15.4453

>  <SCORE.INTRA.POLAR>
0

>  <SCORE.INTRA.POLAR.0>
0

>  <SCORE.INTRA.REPUL>
-0.823958

>  <SCORE.INTRA.REPUL.0>
0.823958

>  <SCORE.INTRA.SOLV>
2.74985

>  <SCORE.INTRA.SOLV.lig_0>
-99.3069

>  <SCORE.INTRA.VDW>
-6.03745

>  <SCORE.INTRA.VDW.0>
0.946495

>  <SCORE.INTRA.norm>
-0.27725

>  <SCORE.RESTR>
0

>  <SCORE.RESTR.CAVITY>
0

>  <SCORE.RESTR.norm>
0

>  <SCORE.SYSTEM>
0

>  <SCORE.SYSTEM.CONST>
0

>  <SCORE.SYSTEM.DIHEDRAL>
0

>  <SCORE.SYSTEM.SOLV>
0

>  <SCORE.SYSTEM.norm>
0

>  <SCORE.heavy>
40

>  <SCORE.norm>
-0.251225

>  <RMSD>
4.937

$$$$
1ntb_lig
 OpenBabel11021811403D
libRbt.so/2013.1/901 2013/11/27
 40 42  0  0  0  0  0  0  0  0999 V2000
    9.3343   33.0314   -1.1970 C   0  0  0  0  0  0  0  0  0  0  0  0
    9.4023   32.1836   -0.2447 N   0  0  0  0  0  0  0  0  0  0  0  0
   -0.7757   37.1772    0.4789 C   0  0  0  0  0  0  0  0  0  0  0  0
   -1.2928   38.4324    0.8881 O   0  0  0  0  0  0  0  0  0  0  0  0
    3.8247   33.2911   -3.2300 C   0  0  0  0  0  0  0  0  0  0  0  0
    4.5780   32.4589   -3.8561 N   0  0  0  0  0  0  0  0  0  0  0  0
    1.5926   39.4039    0.5943 C   0  0  0  0  0  0  0  0  0  0  0  0
   -1.1663   36.3948   -5.8396 C   0  0  0  0  0  0  0  0  0  0  0  0
    7.3302   34.1259   -0.6043 C   0  0  2  0  0  0  0  0  0  0  0  0
    8.8161   34.2029   -0.8821 N   0  0  0  0  0  0  0  0  0  0  0  0
    2.5755   36.3183   -0.7726 C   0  0  2  0  0  0  0  0  0  0  0  0
   -0.7116   35.8192   -2.2072 C   0  0  1  0  0  0  0  0  0  0  0  0
    0.6980   35.8426   -2.0787 O   0  0  0  0  0  0  0  0  0  0  0  0
    6.5245   34.2988   -1.8872 C   0  0  1  0  0  0  0  0  0  0  0  0
    7.0058   33.2092   -2.7889 O   0  0  0  0  0  0  0  0  0  0  0  0
    1.0766   36.0808   -0.8001 C   0  0  2  0  0  0  0  0  0  0  0  0
   -1.0629   35.3518   -3.5988 C   0  0  1  0  0  0  0  0  0  0  0  0
   -0.5347   36.2562   -4.5582 N   0  0  0  0  0  0  0  0  0  0  0  0
    5.0157   34.2589   -1.6538 C   0  0  2  0  0  0  0  0  0  0  0  0
    4.2021   34.4140   -2.8419 N   0  0  0  0  0  0  0  0  0  0  0  0
    0.5154   37.3775   -0.2798 C   0  0  1  0  0  0  0  0  0  0  0  0
    0.3122   38.2917   -1.3624 O   0  0  0  0  0  0  0  0  0  0  0  0
   -0.4511   33.9754   -3.7983 C   0  0  2  0  0  0  0  0  0  0  0  0
   -0.7419   33.4937   -5.0921 O   0  0  0  0  0  0  0  0  0  0  0  0
    4.6650   35.3595   -0.6864 C   0  0  1  0  0  0  0  0  0  0  0  0
    3.2633   35.1405   -0.3645 O   0  0  0  0  0  0  0  0  0  0  0  0
    1.5729   37.8975    0.6223 C   0  0  1  0  0  0  0  0  0  0  0  0
    2.8199   37.3820    0.1505 O   0  0  0  0  0  0  0  0  0  0  0  0
   -1.0621   33.0583   -2.7385 C   0  0  1  0  0  0  0  0  0  0  0  0
   -0.5328   31.7469   -2.8559 O   0  0  0  0  0  0  0  0  0  0  0  0
    5.4406   35.1674    0.6447 C   0  0  2  0  0  0  0  0  0  0  0  0
    5.0854   36.2050    1.5455 O   0  0  0  0  0  0  0  0  0  0  0  0
   -0.7510   33.6259   -1.3532 C   0  0  1  0  0  0  0  0  0  0  0  0
   -1.2830   34.9445   -1.2373 O   0  0  0  0  0  0  0  0  0  0  0  0
    6.9552   35.2261    0.3678 C   0  0  1  0  0  0  0  0  0  0  0  0
    7.6859   35.0505    1.5874 O   0  0  0  0  0  0  0  0  0  0  0  0
   -1.3892   32.7268   -0.2941 C   0  0  0  0  0  0  0  0  0  0  0  0
   -1.4678   33.4355    0.9323 O   0  0  0  0  0  0  0  0  0  0  0  0
    9.7207   32.7580   -2.3935 N   0  0  0  0  0  0  0  0  0  0  0  0
    2.6304   33.0051   -3.0334 N   0  0  0  0  0  0  0  0  0  0  0  0
  1  2  1  0  0  0  0
  1 39  1  0  0  0  0
  3  4  1  0  0  0  0
  5  6  1  0  0  0  0
  5 40  1  0  0  0  0
  9 10  1  6  0  0  0
  9 14  1  0  0  0  0
  9 35  1  0  0  0  0
 10  1  1  0  0  0  0
 11 16  1  0  0  0  0
 11 28  1  0  0  0  0
 11 26  1  1  0  0  0
 12 17  1  0  0  0  0
 12 34  1  0  0  0  0
 12 13  1  6  0  0  0
 14 15  1  6  0  0  0
 14 19  1  0  0  0  0
 16 13  1  6  0  0  0
 16 21  1  0  0  0  0
 17 18  1  6  0  0  0
 17 23  1  0  0  0  0
 18  8  1  0  0  0  0
 19 20  1  6  0  0  0
 19 25  1  0  0  0  0
 20  5  1  0  0  0  0
 21  3  1  1  0  0  0
 21 22  1  0  0  0  0
 21 27  1  0  0  0  0
 23 24  1  6  0  0  0
 23 29  1  0  0  0  0
 25 26  1  1  0  0  0
 25 31  1  0  0  0  0
 27  7  1  6  0  0  0
 27 28  1  0  0  0  0
 29 30  1  1  0  0  0
 29 33  1  0  0  0  0
 31 32  1  1  0  0  0
 31 35  1  0  0  0  0
 33 34  1  0  0  0  0
 33 37  1  1  0  0  0
 35 36  1  1  0  0  0
 37 38  1  0  0  0  0
M  END
>  <CHROM.1>
-87.98050012,-70.00855095,166.23851189,-171.76982455,-170.83112456,-153.03940675
99.07293535,-76.55300634,-177.14012607,-119.80808466,-162.23624740,2.68307403
34.97974401,-1.40363087,0.04388318,0.22292097,-2.35141974

>  <Name>
1ntb_lig

>  <RI>
0

>  <Rbt.Current_Directory>
/home/itssahil/PROJECTS/Mol_Feturizer/New_Systems/rnas/1ntb

>  <Rbt.Executable>
rbdock ($Id: //depot/dev/client3/rdock/2013.1/src/exe/rbdock.cxx#4 $)

>  <Rbt.Library>
libRbt.so (2013.1, Build901 2013/11/27)

>  <Rbt.Parameter_File>
/export/apps/rDock/src/rDock_2013.1_src/data/scripts/dock_solv.prm

>  <Rbt.Receptor>
prm/pocket_docking_2.prm

>  <SCORE>
-3.40827

>  <SCORE.INTER>
3.58771

>  <SCORE.INTER.CONST>
1

>  <SCORE.INTER.POLAR>
-0.711973

>  <SCORE.INTER.ROT>
11

>  <SCORE.INTER.SOLV>
26.3275

>  <SCORE.INTER.VDW>
-14.9441

>  <SCORE.INTER.norm>
0.0896927

>  <SCORE.INTRA>
-8.33893

>  <SCORE.INTRA.DIHEDRAL>
-1.94015

>  <SCORE.INTRA.DIHEDRAL.0>
15.4453

>  <SCORE.INTRA.POLAR>
0

>  <SCORE.INTRA.POLAR.0>
0

>  <SCORE.INTRA.REPUL>
-0.823958

>  <SCORE.INTRA.REPUL.0>
0.823958

>  <SCORE.INTRA.SOLV>
1.31883

>  <SCORE.INTRA.SOLV.lig_0>
-99.3069

>  <SCORE.INTRA.VDW>
-3.90849

>  <SCORE.INTRA.VDW.0>
0.946495

>  <SCORE.INTRA.norm>
-0.208473

>  <SCORE.RESTR>
1.34296

>  <SCORE.RESTR.CAVITY>
1.34296

>  <SCORE.RESTR.norm>
0.033574

>  <SCORE.SYSTEM>
0

>  <SCORE.SYSTEM.CONST>
0

>  <SCORE.SYSTEM.DIHEDRAL>
0

>  <SCORE.SYSTEM.SOLV>
0

>  <SCORE.SYSTEM.norm>
0

>  <SCORE.heavy>
40

>  <SCORE.norm>
-0.0852067

>  <RMSD>
4.959

$$$$
1ntb_lig
 OpenBabel11021811403D
libRbt.so/2013.1/901 2013/11/27
 40 42  0  0  0  0  0  0  0  0999 V2000
    9.5859   32.8742   -0.9446 C   0  0  0  0  0  0  0  0  0  0  0  0
   10.3762   32.6791   -1.9282 N   0  0  0  0  0  0  0  0  0  0  0  0
   -0.8257   36.1854    0.7458 C   0  0  0  0  0  0  0  0  0  0  0  0
   -1.5570   37.3297    1.1536 O   0  0  0  0  0  0  0  0  0  0  0  0
    4.5615   33.3649   -3.1045 C   0  0  0  0  0  0  0  0  0  0  0  0
    4.5627   34.5966   -3.4720 N   0  0  0  0  0  0  0  0  0  0  0  0
    1.3007   38.5247    1.5115 C   0  0  0  0  0  0  0  0  0  0  0  0
   -1.2983   37.6069   -3.3932 C   0  0  0  0  0  0  0  0  0  0  0  0
    7.5712   33.9680   -0.3871 C   0  0  2  0  0  0  0  0  0  0  0  0
    8.9859   34.0488   -0.9191 N   0  0  0  0  0  0  0  0  0  0  0  0
    2.7080   35.7967   -0.2010 C   0  0  2  0  0  0  0  0  0  0  0  0
   -0.2932   35.0429   -2.0933 C   0  0  1  0  0  0  0  0  0  0  0  0
    1.0381   35.4165   -1.7898 O   0  0  0  0  0  0  0  0  0  0  0  0
    6.6066   33.4946   -1.4689 C   0  0  1  0  0  0  0  0  0  0  0  0
    7.1422   32.1693   -1.9034 O   0  0  0  0  0  0  0  0  0  0  0  0
    1.2495   35.4598   -0.4525 C   0  0  2  0  0  0  0  0  0  0  0  0
   -0.5327   35.2610   -3.5676 C   0  0  1  0  0  0  0  0  0  0  0  0
   -0.3634   36.6350   -3.8848 N   0  0  0  0  0  0  0  0  0  0  0  0
    5.1587   33.4257   -0.9880 C   0  0  2  0  0  0  0  0  0  0  0  0
    4.1998   32.9768   -1.9764 N   0  0  0  0  0  0  0  0  0  0  0  0
    0.5175   36.6048    0.1957 C   0  0  1  0  0  0  0  0  0  0  0  0
    0.3522   37.6732   -0.7425 O   0  0  0  0  0  0  0  0  0  0  0  0
    0.4804   34.4277   -4.3344 C   0  0  2  0  0  0  0  0  0  0  0  0
    0.3067   34.6030   -5.7235 O   0  0  0  0  0  0  0  0  0  0  0  0
    4.7570   34.8009   -0.5215 C   0  0  1  0  0  0  0  0  0  0  0  0
    3.4518   34.6193    0.0946 O   0  0  0  0  0  0  0  0  0  0  0  0
    1.4166   37.0382    1.2941 C   0  0  1  0  0  0  0  0  0  0  0  0
    2.7501   36.7021    0.9043 O   0  0  0  0  0  0  0  0  0  0  0  0
    0.2410   32.9681   -3.9473 C   0  0  1  0  0  0  0  0  0  0  0  0
    1.1586   32.1216   -4.6221 O   0  0  0  0  0  0  0  0  0  0  0  0
    5.7006   35.2753    0.6164 C   0  0  2  0  0  0  0  0  0  0  0  0
    5.2966   36.5647    1.0503 O   0  0  0  0  0  0  0  0  0  0  0  0
    0.4101   32.8225   -2.4347 C   0  0  1  0  0  0  0  0  0  0  0  0
   -0.5124   33.6748   -1.7581 O   0  0  0  0  0  0  0  0  0  0  0  0
    7.1465   35.3427    0.0879 C   0  0  1  0  0  0  0  0  0  0  0  0
    8.0306   35.7795    1.1270 O   0  0  0  0  0  0  0  0  0  0  0  0
    0.1392   31.3697   -2.0430 C   0  0  0  0  0  0  0  0  0  0  0  0
   -1.0872   30.9525   -2.6212 O   0  0  0  0  0  0  0  0  0  0  0  0
    9.4022   31.9964   -0.0219 N   0  0  0  0  0  0  0  0  0  0  0  0
    4.8855   32.4841   -3.9204 N   0  0  0  0  0  0  0  0  0  0  0  0
  1  2  1  0  0  0  0
  1 39  1  0  0  0  0
  3  4  1  0  0  0  0
  5  6  1  0  0  0  0
  5 40  1  0  0  0  0
  9 10  1  6  0  0  0
  9 14  1  0  0  0  0
  9 35  1  0  0  0  0
 10  1  1  0  0  0  0
 11 16  1  0  0  0  0
 11 28  1  0  0  0  0
 11 26  1  1  0  0  0
 12 17  1  0  0  0  0
 12 34  1  0  0  0  0
 12 13  1  6  0  0  0
 14 15  1  1  0  0  0
 14 19  1  0  0  0  0
 16 13  1  6  0  0  0
 16 21  1  0  0  0  0
 17 18  1  1  0  0  0
 17 23  1  0  0  0  0
 18  8  1  0  0  0  0
 19 20  1  6  0  0  0
 19 25  1  0  0  0  0
 20  5  1  0  0  0  0
 21  3  1  1  0  0  0
 21 22  1  0  0  0  0
 21 27  1  0  0  0  0
 23 24  1  6  0  0  0
 23 29  1  0  0  0  0
 25 26  1  1  0  0  0
 25 31  1  0  0  0  0
 27  7  1  6  0  0  0
 27 28  1  0  0  0  0
 29 30  1  6  0  0  0
 29 33  1  0  0  0  0
 31 32  1  6  0  0  0
 31 35  1  0  0  0  0
 33 34  1  0  0  0  0
 33 37  1  1  0  0  0
 35 36  1  1  0  0  0
 37 38  1  0  0  0  0
M  END
>  <CHROM.1>
-80.63625470,144.17709690,143.40637810,169.62907340,177.18448526,-68.14271671
-33.22765155,-68.61672371,-170.93519628,-144.78422280,-49.75073096,3.07233847
34.63445555,-1.40635636,0.03206518,0.24586287,-2.34449963

>  <Name>
1ntb_lig

>  <RI>
0

>  <Rbt.Current_Directory>
/home/itssahil/PROJECTS/Mol_Feturizer/New_Systems/rnas/1ntb

>  <Rbt.Executable>
rbdock ($Id: //depot/dev/client3/rdock/2013.1/src/exe/rbdock.cxx#4 $)

>  <Rbt.Library>
libRbt.so (2013.1, Build901 2013/11/27)

>  <Rbt.Parameter_File>
/export/apps/rDock/src/rDock_2013.1_src/data/scripts/dock_solv.prm

>  <Rbt.Receptor>
prm/pocket_docking_2.prm

>  <SCORE>
-3.01854

>  <SCORE.INTER>
1.51916

>  <SCORE.INTER.CONST>
1

>  <SCORE.INTER.POLAR>
-0.774597

>  <SCORE.INTER.ROT>
11

>  <SCORE.INTER.SOLV>
31.009

>  <SCORE.INTER.VDW>
-17.6749

>  <SCORE.INTER.norm>
0.037979

>  <SCORE.INTRA>
-5.41745

>  <SCORE.INTRA.DIHEDRAL>
-2.36293

>  <SCORE.INTRA.DIHEDRAL.0>
15.4453

>  <SCORE.INTRA.POLAR>
0

>  <SCORE.INTRA.POLAR.0>
0

>  <SCORE.INTRA.REPUL>
-0.823958

>  <SCORE.INTRA.REPUL.0>
0.823958

>  <SCORE.INTRA.SOLV>
1.45848

>  <SCORE.INTRA.SOLV.lig_0>
-99.3069

>  <SCORE.INTRA.VDW>
-0.845437

>  <SCORE.INTRA.VDW.0>
0.946495

>  <SCORE.INTRA.norm>
-0.135436

>  <SCORE.RESTR>
0.879744

>  <SCORE.RESTR.CAVITY>
0.879744

>  <SCORE.RESTR.norm>
0.0219936

>  <SCORE.SYSTEM>
0

>  <SCORE.SYSTEM.CONST>
0

>  <SCORE.SYSTEM.DIHEDRAL>
0

>  <SCORE.SYSTEM.SOLV>
0

>  <SCORE.SYSTEM.norm>
0

>  <SCORE.heavy>
40

>  <SCORE.norm>
-0.0754636

>  <RMSD>
4.959

$$$$
1ntb_lig
 OpenBabel11021811403D
libRbt.so/2013.1/901 2013/11/27
 40 42  0  0  0  0  0  0  0  0999 V2000
    9.5111   33.3700   -1.0732 C   0  0  0  0  0  0  0  0  0  0  0  0
   10.1205   33.4458   -2.1926 N   0  0  0  0  0  0  0  0  0  0  0  0
   -0.8917   36.7194    0.4817 C   0  0  0  0  0  0  0  0  0  0  0  0
   -1.4961   37.8553    1.0775 O   0  0  0  0  0  0  0  0  0  0  0  0
    3.9622   33.2708   -3.1553 C   0  0  0  0  0  0  0  0  0  0  0  0
    4.5313   32.4905   -4.0034 N   0  0  0  0  0  0  0  0  0  0  0  0
    1.3373   38.9908    1.1542 C   0  0  0  0  0  0  0  0  0  0  0  0
   -1.5580   37.5727   -5.2474 C   0  0  0  0  0  0  0  0  0  0  0  0
    7.4314   34.3012   -0.4620 C   0  0  2  0  0  0  0  0  0  0  0  0
    8.9202   34.4780   -0.6690 N   0  0  0  0  0  0  0  0  0  0  0  0
    2.5743   36.2434   -0.6560 C   0  0  2  0  0  0  0  0  0  0  0  0
   -0.5239   35.5246   -2.3951 C   0  0  1  0  0  0  0  0  0  0  0  0
    0.8124   35.9265   -2.1568 O   0  0  0  0  0  0  0  0  0  0  0  0
    6.6771   34.4286   -1.7810 C   0  0  1  0  0  0  0  0  0  0  0  0
    7.2714   33.3789   -2.6625 O   0  0  0  0  0  0  0  0  0  0  0  0
    1.0957   35.9496   -0.8324 C   0  0  2  0  0  0  0  0  0  0  0  0
   -0.8131   35.6571   -3.8707 C   0  0  1  0  0  0  0  0  0  0  0  0
   -0.6689   37.0126   -4.2697 N   0  0  0  0  0  0  0  0  0  0  0  0
    5.1650   34.2874   -1.6192 C   0  0  2  0  0  0  0  0  0  0  0  0
    4.3995   34.3959   -2.8439 N   0  0  0  0  0  0  0  0  0  0  0  0
    0.4316   37.1074   -0.1355 C   0  0  1  0  0  0  0  0  0  0  0  0
    0.2468   38.1899   -1.0536 O   0  0  0  0  0  0  0  0  0  0  0  0
    0.1837   34.7910   -4.6224 C   0  0  2  0  0  0  0  0  0  0  0  0
   -0.0366   34.8862   -6.0127 O   0  0  0  0  0  0  0  0  0  0  0  0
    4.6970   35.3562   -0.6659 C   0  0  1  0  0  0  0  0  0  0  0  0
    3.2994   35.0429   -0.4114 O   0  0  0  0  0  0  0  0  0  0  0  0
    1.3996   37.5041    0.9173 C   0  0  1  0  0  0  0  0  0  0  0  0
    2.7005   37.1355    0.4538 O   0  0  0  0  0  0  0  0  0  0  0  0
   -0.0274   33.3535   -4.1466 C   0  0  1  0  0  0  0  0  0  0  0  0
    0.8769   32.4786   -4.8026 O   0  0  0  0  0  0  0  0  0  0  0  0
    5.4203   35.2074    0.6997 C   0  0  2  0  0  0  0  0  0  0  0  0
    4.9551   36.2134    1.5860 O   0  0  0  0  0  0  0  0  0  0  0  0
    0.1918   33.2948   -2.6345 C   0  0  1  0  0  0  0  0  0  0  0  0
   -0.7175   34.1756   -1.9768 O   0  0  0  0  0  0  0  0  0  0  0  0
    6.9390   35.3679    0.4948 C   0  0  1  0  0  0  0  0  0  0  0  0
    7.6217   35.2333    1.7471 O   0  0  0  0  0  0  0  0  0  0  0  0
   -0.0507   31.8640   -2.1534 C   0  0  0  0  0  0  0  0  0  0  0  0
   -1.3780   31.4824   -2.4779 O   0  0  0  0  0  0  0  0  0  0  0  0
    9.4925   32.2933   -0.3689 N   0  0  0  0  0  0  0  0  0  0  0  0
    2.8830   32.9294   -2.6402 N   0  0  0  0  0  0  0  0  0  0  0  0
  1  2  1  0  0  0  0
  1 39  1  0  0  0  0
  3  4  1  0  0  0  0
  5  6  1  0  0  0  0
  5 40  1  0  0  0  0
  9 10  1  6  0  0  0
  9 14  1  0  0  0  0
  9 35  1  0  0  0  0
 10  1  1  0  0  0  0
 11 16  1  0  0  0  0
 11 28  1  0  0  0  0
 11 26  1  1  0  0  0
 12 17  1  0  0  0  0
 12 34  1  0  0  0  0
 12 13  1  6  0  0  0
 14 15  1  6  0  0  0
 14 19  1  0  0  0  0
 16 13  1  6  0  0  0
 16 21  1  0  0  0  0
 17 18  1  6  0  0  0
 17 23  1  0  0  0  0
 18  8  1  0  0  0  0
 19 20  1  6  0  0  0
 19 25  1  0  0  0  0
 20  5  1  0  0  0  0
 21  3  1  1  0  0  0
 21 22  1  0  0  0  0
 21 27  1  0  0  0  0
 23 24  1  6  0  0  0
 23 29  1  0  0  0  0
 25 26  1  1  0  0  0
 25 31  1  0  0  0  0
 27  7  1  6  0  0  0
 27 28  1  0  0  0  0
 29 30  1  6  0  0  0
 29 33  1  0  0  0  0
 31 32  1  1  0  0  0
 31 35  1  0  0  0  0
 33 34  1  0  0  0  0
 33 37  1  1  0  0  0
 35 36  1  1  0  0  0
 37 38  1  0  0  0  0
M  END
>  <CHROM.1>
-82.59284831,121.11836687,162.93645272,174.25009438,174.08584446,-142.85152655
107.99787818,-96.96461963,-177.73815185,-128.37766816,-59.27670490,2.87151948
34.99549954,-1.63156442,-0.04871519,0.27966049,-2.29259569

>  <Name>
1ntb_lig

>  <RI>
0

>  <Rbt.Current_Directory>
/home/itssahil/PROJECTS/Mol_Feturizer/New_Systems/rnas/1ntb

>  <Rbt.Executable>
rbdock ($Id: //depot/dev/client3/rdock/2013.1/src/exe/rbdock.cxx#4 $)

>  <Rbt.Library>
libRbt.so (2013.1, Build901 2013/11/27)

>  <Rbt.Parameter_File>
/export/apps/rDock/src/rDock_2013.1_src/data/scripts/dock_solv.prm

>  <Rbt.Receptor>
prm/pocket_docking_6.prm

>  <SCORE>
-10.6648

>  <SCORE.INTER>
-0.381338

>  <SCORE.INTER.CONST>
1

>  <SCORE.INTER.POLAR>
-0.694657

>  <SCORE.INTER.ROT>
11

>  <SCORE.INTER.SOLV>
28.5533

>  <SCORE.INTER.VDW>
-18.3898

>  <SCORE.INTER.norm>
-0.00953346

>  <SCORE.INTRA>
-10.2834

>  <SCORE.INTRA.DIHEDRAL>
-3.50732

>  <SCORE.INTRA.DIHEDRAL.0>
15.4453

>  <SCORE.INTRA.POLAR>
0

>  <SCORE.INTRA.POLAR.0>
0

>  <SCORE.INTRA.REPUL>
-0.823958

>  <SCORE.INTRA.REPUL.0>
0.823958

>  <SCORE.INTRA.SOLV>
3.17918

>  <SCORE.INTRA.SOLV.lig_0>
-99.3069

>  <SCORE.INTRA.VDW>
-5.99959

>  <SCORE.INTRA.VDW.0>
0.946495

>  <SCORE.INTRA.norm>
-0.257086

>  <SCORE.RESTR>
0

>  <SCORE.RESTR.CAVITY>
0

>  <SCORE.RESTR.norm>
0

>  <SCORE.SYSTEM>
0

>  <SCORE.SYSTEM.CONST>
0

>  <SCORE.SYSTEM.DIHEDRAL>
0

>  <SCORE.SYSTEM.SOLV>
0

>  <SCORE.SYSTEM.norm>
0

>  <SCORE.heavy>
40

>  <SCORE.norm>
-0.26662

>  <RMSD>
4.998

$$$$
1ntb_lig
 OpenBabel11021811403D
libRbt.so/2013.1/901 2013/11/27
 40 42  0  0  0  0  0  0  0  0999 V2000
    9.7955   32.7289   -3.3875 C   0  0  0  0  0  0  0  0  0  0  0  0
   10.4250   33.5817   -2.6757 N   0  0  0  0  0  0  0  0  0  0  0  0
    2.0312   37.7841    1.2436 C   0  0  0  0  0  0  0  0  0  0  0  0
    1.9642   39.1337    1.6729 O   0  0  0  0  0  0  0  0  0  0  0  0
    3.9369   33.3593   -3.4542 C   0  0  0  0  0  0  0  0  0  0  0  0
    2.7373   33.3589   -2.9927 N   0  0  0  0  0  0  0  0  0  0  0  0
    4.9926   39.1008    0.9668 C   0  0  0  0  0  0  0  0  0  0  0  0
    0.5982   39.1033   -3.8150 C   0  0  0  0  0  0  0  0  0  0  0  0
    7.9708   32.1899   -1.9926 C   0  0  2  0  0  0  0  0  0  0  0  0
    9.2196   31.7454   -2.7232 N   0  0  0  0  0  0  0  0  0  0  0  0
    4.6424   35.9846   -0.6214 C   0  0  2  0  0  0  0  0  0  0  0  0
    1.1693   36.6386   -1.4260 C   0  0  1  0  0  0  0  0  0  0  0  0
    2.5242   36.2538   -1.5688 O   0  0  0  0  0  0  0  0  0  0  0  0
    7.0263   32.9360   -2.9285 C   0  0  1  0  0  0  0  0  0  0  0  0
    6.7426   31.9704   -4.0326 O   0  0  0  0  0  0  0  0  0  0  0  0
    3.1683   36.2513   -0.3772 C   0  0  2  0  0  0  0  0  0  0  0  0
    0.5785   36.8477   -2.7992 C   0  0  1  0  0  0  0  0  0  0  0  0
    1.2769   37.8862   -3.4708 N   0  0  0  0  0  0  0  0  0  0  0  0
    5.7626   33.4323   -2.2289 C   0  0  2  0  0  0  0  0  0  0  0  0
    4.8272   34.1449   -3.0745 N   0  0  0  0  0  0  0  0  0  0  0  0
    3.1691   37.6135    0.2643 C   0  0  1  0  0  0  0  0  0  0  0  0
    3.1063   38.6285   -0.7431 O   0  0  0  0  0  0  0  0  0  0  0  0
    0.7217   35.5479   -3.5729 C   0  0  2  0  0  0  0  0  0  0  0  0
    0.1919   35.6915   -4.8727 O   0  0  0  0  0  0  0  0  0  0  0  0
    6.1804   34.3430   -1.1037 C   0  0  1  0  0  0  0  0  0  0  0  0
    4.9538   34.6181   -0.3715 O   0  0  0  0  0  0  0  0  0  0  0  0
    4.4744   37.6859    0.9667 C   0  0  1  0  0  0  0  0  0  0  0  0
    5.3794   36.8323    0.2627 O   0  0  0  0  0  0  0  0  0  0  0  0
   -0.0508   34.4804   -2.7976 C   0  0  1  0  0  0  0  0  0  0  0  0
    0.0408   33.2276   -3.4578 O   0  0  0  0  0  0  0  0  0  0  0  0
    7.1028   33.5808   -0.1145 C   0  0  2  0  0  0  0  0  0  0  0  0
    7.4726   34.4513    0.9435 O   0  0  0  0  0  0  0  0  0  0  0  0
    0.5320   34.3728   -1.3881 C   0  0  1  0  0  0  0  0  0  0  0  0
    0.4399   35.6333   -0.7263 O   0  0  0  0  0  0  0  0  0  0  0  0
    8.3687   33.1086   -0.8553 C   0  0  1  0  0  0  0  0  0  0  0  0
    9.2313   32.4028    0.0448 O   0  0  0  0  0  0  0  0  0  0  0  0
   -0.2609   33.3284   -0.6020 C   0  0  0  0  0  0  0  0  0  0  0  0
    0.2154   33.2906    0.7337 O   0  0  0  0  0  0  0  0  0  0  0  0
    9.7442   32.8045   -4.6710 N   0  0  0  0  0  0  0  0  0  0  0  0
    4.2693   32.5017   -4.2914 N   0  0  0  0  0  0  0  0  0  0  0  0
  1  2  1  0  0  0  0
  1 39  1  0  0  0  0
  3  4  1  0  0  0  0
  5  6  1  0  0  0  0
  5 40  1  0  0  0  0
  9 10  1  6  0  0  0
  9 14  1  0  0  0  0
  9 35  1  0  0  0  0
 10  1  1  0  0  0  0
 11 16  1  0  0  0  0
 11 28  1  0  0  0  0
 11 26  1  1  0  0  0
 12 17  1  0  0  0  0
 12 34  1  0  0  0  0
 12 13  1  6  0  0  0
 14 15  1  6  0  0  0
 14 19  1  0  0  0  0
 16 13  1  6  0  0  0
 16 21  1  0  0  0  0
 17 18  1  6  0  0  0
 17 23  1  0  0  0  0
 18  8  1  0  0  0  0
 19 20  1  6  0  0  0
 19 25  1  0  0  0  0
 20  5  1  0  0  0  0
 21  3  1  1  0  0  0
 21 22  1  0  0  0  0
 21 27  1  0  0  0  0
 23 24  1  6  0  0  0
 23 29  1  0  0  0  0
 25 26  1  1  0  0  0
 25 31  1  0  0  0  0
 27  7  1  6  0  0  0
 27 28  1  0  0  0  0
 29 30  1  6  0  0  0
 29 33  1  0  0  0  0
 31 32  1  1  0  0  0
 31 35  1  0  0  0  0
 33 34  1  0  0  0  0
 33 37  1  1  0  0  0
 35 36  1  1  0  0  0
 37 38  1  0  0  0  0
M  END
>  <CHROM.1>
51.09354257,74.34142775,158.28723053,170.48643845,-173.70724445,-115.52983939
97.14693949,105.50247531,-171.75517321,-109.98216164,-175.99787471,4.12979290
34.98938899,-1.62683362,0.38680220,0.26506773,-2.37810483

>  <Name>
1ntb_lig

>  <RI>
0

>  <Rbt.Current_Directory>
/home/itssahil/PROJECTS/Mol_Feturizer/New_Systems/rnas/1ntb

>  <Rbt.Executable>
rbdock ($Id: //depot/dev/client3/rdock/2013.1/src/exe/rbdock.cxx#4 $)

>  <Rbt.Library>
libRbt.so (2013.1, Build901 2013/11/27)

>  <Rbt.Parameter_File>
/export/apps/rDock/src/rDock_2013.1_src/data/scripts/dock_solv.prm

>  <Rbt.Receptor>
prm/pocket_docking_3.prm

>  <SCORE>
-12.2321

>  <SCORE.INTER>
-6.16205

>  <SCORE.INTER.CONST>
1

>  <SCORE.INTER.POLAR>
-2.57512

>  <SCORE.INTER.ROT>
11

>  <SCORE.INTER.SOLV>
34.0557

>  <SCORE.INTER.VDW>
-17.8095

>  <SCORE.INTER.norm>
-0.154051

>  <SCORE.INTRA>
-6.08859

>  <SCORE.INTRA.DIHEDRAL>
-2.19171

>  <SCORE.INTRA.DIHEDRAL.0>
15.4453

>  <SCORE.INTRA.POLAR>
0

>  <SCORE.INTRA.POLAR.0>
0

>  <SCORE.INTRA.REPUL>
-0.823958

>  <SCORE.INTRA.REPUL.0>
0.823958

>  <SCORE.INTRA.SOLV>
6.07989

>  <SCORE.INTRA.SOLV.lig_0>
-99.3069

>  <SCORE.INTRA.VDW>
-3.91289

>  <SCORE.INTRA.VDW.0>
0.946495

>  <SCORE.INTRA.norm>
-0.152215

>  <SCORE.RESTR>
0.0185268

>  <SCORE.RESTR.CAVITY>
0.0185268

>  <SCORE.RESTR.norm>
0.00046317

>  <SCORE.SYSTEM>
0

>  <SCORE.SYSTEM.CONST>
0

>  <SCORE.SYSTEM.DIHEDRAL>
0

>  <SCORE.SYSTEM.SOLV>
0

>  <SCORE.SYSTEM.norm>
0

>  <SCORE.heavy>
40

>  <SCORE.norm>
-0.305803

>  <RMSD>
5.025

$$$$
1ntb_lig
 OpenBabel11021811403D
libRbt.so/2013.1/901 2013/11/27
 40 42  0  0  0  0  0  0  0  0999 V2000
    8.8305   33.2139   -0.6474 C   0  0  0  0  0  0  0  0  0  0  0  0
   10.0934   33.1444   -0.8216 N   0  0  0  0  0  0  0  0  0  0  0  0
   -1.1449   37.9478   -0.1492 C   0  0  0  0  0  0  0  0  0  0  0  0
   -1.5680   39.2958   -0.0299 O   0  0  0  0  0  0  0  0  0  0  0  0
    3.4910   33.5276   -3.0333 C   0  0  0  0  0  0  0  0  0  0  0  0
    2.3696   32.9969   -2.6976 N   0  0  0  0  0  0  0  0  0  0  0  0
    1.3066   40.0356   -0.6087 C   0  0  0  0  0  0  0  0  0  0  0  0
   -1.6462   35.8893   -5.9562 C   0  0  0  0  0  0  0  0  0  0  0  0
    6.8456   34.4296   -0.2624 C   0  0  2  0  0  0  0  0  0  0  0  0
    8.3458   34.4269   -0.4635 N   0  0  0  0  0  0  0  0  0  0  0  0
    2.1810   36.6600   -1.0517 C   0  0  2  0  0  0  0  0  0  0  0  0
   -1.1103   35.9061   -2.3580 C   0  0  1  0  0  0  0  0  0  0  0  0
    0.2976   35.9072   -2.2106 O   0  0  0  0  0  0  0  0  0  0  0  0
    6.1155   34.5354   -1.5968 C   0  0  1  0  0  0  0  0  0  0  0  0
    6.5951   33.3621   -2.3874 O   0  0  0  0  0  0  0  0  0  0  0  0
    0.6744   36.4765   -1.0407 C   0  0  2  0  0  0  0  0  0  0  0  0
   -1.4655   35.1360   -3.6068 C   0  0  1  0  0  0  0  0  0  0  0  0
   -0.8908   35.7677   -4.7417 N   0  0  0  0  0  0  0  0  0  0  0  0
    4.5963   34.5725   -1.4438 C   0  0  2  0  0  0  0  0  0  0  0  0
    3.8525   34.6681   -2.6829 N   0  0  0  0  0  0  0  0  0  0  0  0
    0.1593   37.8852   -0.9093 C   0  0  1  0  0  0  0  0  0  0  0  0
    0.0007   38.4707   -2.2059 O   0  0  0  0  0  0  0  0  0  0  0  0
   -0.9078   33.7298   -3.4636 C   0  0  2  0  0  0  0  0  0  0  0  0
   -1.2041   32.9669   -4.6128 O   0  0  0  0  0  0  0  0  0  0  0  0
    4.2440   35.7567   -0.5815 C   0  0  1  0  0  0  0  0  0  0  0  0
    2.8194   35.6179   -0.3214 O   0  0  0  0  0  0  0  0  0  0  0  0
    1.2285   38.5974   -0.1662 C   0  0  1  0  0  0  0  0  0  0  0  0
    2.4586   37.9284   -0.4538 O   0  0  0  0  0  0  0  0  0  0  0  0
   -1.5667   33.1127   -2.2297 C   0  0  1  0  0  0  0  0  0  0  0  0
   -1.0898   31.7922   -2.0238 O   0  0  0  0  0  0  0  0  0  0  0  0
    4.9409   35.6366    0.8006 C   0  0  2  0  0  0  0  0  0  0  0  0
    4.5848   36.7531    1.6011 O   0  0  0  0  0  0  0  0  0  0  0  0
   -1.2476   33.9800   -1.0116 C   0  0  1  0  0  0  0  0  0  0  0  0
   -1.7270   35.3073   -1.2207 O   0  0  0  0  0  0  0  0  0  0  0  0
    6.4689   35.6147    0.6034 C   0  0  1  0  0  0  0  0  0  0  0  0
    7.1274   35.5044    1.8708 O   0  0  0  0  0  0  0  0  0  0  0  0
   -1.9330   33.3811    0.2169 C   0  0  0  0  0  0  0  0  0  0  0  0
   -3.3388   33.4194    0.0307 O   0  0  0  0  0  0  0  0  0  0  0  0
    8.0781   32.1703   -0.6261 N   0  0  0  0  0  0  0  0  0  0  0  0
    4.3036   32.8657   -3.7027 N   0  0  0  0  0  0  0  0  0  0  0  0
  1  2  1  0  0  0  0
  1 39  1  0  0  0  0
  3  4  1  0  0  0  0
  5  6  1  0  0  0  0
  5 40  1  0  0  0  0
  9 10  1  6  0  0  0
  9 14  1  0  0  0  0
  9 35  1  0  0  0  0
 10  1  1  0  0  0  0
 11 16  1  0  0  0  0
 11 28  1  0  0  0  0
 11 26  1  1  0  0  0
 12 17  1  0  0  0  0
 12 34  1  0  0  0  0
 12 13  1  1  0  0  0
 14 15  1  6  0  0  0
 14 19  1  0  0  0  0
 16 13  1  6  0  0  0
 16 21  1  0  0  0  0
 17 18  1  6  0  0  0
 17 23  1  0  0  0  0
 18  8  1  0  0  0  0
 19 20  1  6  0  0  0
 19 25  1  0  0  0  0
 20  5  1  0  0  0  0
 21  3  1  1  0  0  0
 21 22  1  0  0  0  0
 21 27  1  0  0  0  0
 23 24  1  6  0  0  0
 23 29  1  0  0  0  0
 25 26  1  1  0  0  0
 25 31  1  0  0  0  0
 27  7  1  6  0  0  0
 27 28  1  0  0  0  0
 29 30  1  1  0  0  0
 29 33  1  0  0  0  0
 31 32  1  1  0  0  0
 31 35  1  0  0  0  0
 33 34  1  0  0  0  0
 33 37  1  1  0  0  0
 35 36  1  1  0  0  0
 37 38  1  0  0  0  0
M  END
>  <CHROM.1>
-88.66430624,-179.91764040,170.63704103,-174.26735488,-170.45079556,-138.59534744
96.56829173,91.02511768,178.72303960,-109.85693778,-63.22289043,2.22217316
35.22798375,-1.39857378,0.03602841,0.23515392,-2.60987881

>  <Name>
1ntb_lig

>  <RI>
0

>  <Rbt.Current_Directory>
/home/itssahil/PROJECTS/Mol_Feturizer/New_Systems/rnas/1ntb

>  <Rbt.Executable>
rbdock ($Id: //depot/dev/client3/rdock/2013.1/src/exe/rbdock.cxx#4 $)

>  <Rbt.Library>
libRbt.so (2013.1, Build901 2013/11/27)

>  <Rbt.Parameter_File>
/export/apps/rDock/src/rDock_2013.1_src/data/scripts/dock_solv.prm

>  <Rbt.Receptor>
prm/pocket_docking_2.prm

>  <SCORE>
1.55066

>  <SCORE.INTER>
8.34044

>  <SCORE.INTER.CONST>
1

>  <SCORE.INTER.POLAR>
-0.594893

>  <SCORE.INTER.ROT>
11

>  <SCORE.INTER.SOLV>
25.6222

>  <SCORE.INTER.VDW>
-11.9308

>  <SCORE.INTER.norm>
0.208511

>  <SCORE.INTRA>
-8.1297

>  <SCORE.INTRA.DIHEDRAL>
-3.87623

>  <SCORE.INTRA.DIHEDRAL.0>
15.4453

>  <SCORE.INTRA.POLAR>
0

>  <SCORE.INTRA.POLAR.0>
0

>  <SCORE.INTRA.REPUL>
-0.823958

>  <SCORE.INTRA.REPUL.0>
0.823958

>  <SCORE.INTRA.SOLV>
0.707813

>  <SCORE.INTRA.SOLV.lig_0>
-99.3069

>  <SCORE.INTRA.VDW>
-2.4257

>  <SCORE.INTRA.VDW.0>
0.946495

>  <SCORE.INTRA.norm>
-0.203242

>  <SCORE.RESTR>
1.33991

>  <SCORE.RESTR.CAVITY>
1.33991

>  <SCORE.RESTR.norm>
0.0334978

>  <SCORE.SYSTEM>
0

>  <SCORE.SYSTEM.CONST>
0

>  <SCORE.SYSTEM.DIHEDRAL>
0

>  <SCORE.SYSTEM.SOLV>
0

>  <SCORE.SYSTEM.norm>
0

>  <SCORE.heavy>
40

>  <SCORE.norm>
0.0387665

>  <RMSD>
5.041

$$$$
1ntb_lig
 OpenBabel11021811403D
libRbt.so/2013.1/901 2013/11/27
 40 42  0  0  0  0  0  0  0  0999 V2000
    6.5316   32.7052   -3.3451 C   0  0  0  0  0  0  0  0  0  0  0  0
    7.6157   32.4640   -2.7152 N   0  0  0  0  0  0  0  0  0  0  0  0
   -1.8970   37.9556    0.7452 C   0  0  0  0  0  0  0  0  0  0  0  0
   -2.5800   38.5614    1.8301 O   0  0  0  0  0  0  0  0  0  0  0  0
    0.3577   33.0890   -2.1749 C   0  0  0  0  0  0  0  0  0  0  0  0
   -0.2568   32.8957   -1.0626 N   0  0  0  0  0  0  0  0  0  0  0  0
   -0.3449   37.5206    3.5704 C   0  0  0  0  0  0  0  0  0  0  0  0
    1.4901   41.4661   -0.3086 C   0  0  0  0  0  0  0  0  0  0  0  0
    4.8661   33.8396   -2.1182 C   0  0  2  0  0  0  0  0  0  0  0  0
    5.9953   33.8902   -3.1249 N   0  0  0  0  0  0  0  0  0  0  0  0
    1.3229   36.1764    0.7834 C   0  0  2  0  0  0  0  0  0  0  0  0
    0.1023   38.8872   -1.2735 C   0  0  1  0  0  0  0  0  0  0  0  0
    0.9705   37.8935   -0.7608 O   0  0  0  0  0  0  0  0  0  0  0  0
    3.5135   33.9880   -2.8062 C   0  0  1  0  0  0  0  0  0  0  0  0
    3.4638   32.8683   -3.7940 O   0  0  0  0  0  0  0  0  0  0  0  0
    0.3074   37.0117    0.0251 C   0  0  2  0  0  0  0  0  0  0  0  0
    0.9119   39.8586   -2.0978 C   0  0  1  0  0  0  0  0  0  0  0  0
    1.8882   40.4871   -1.2798 N   0  0  0  0  0  0  0  0  0  0  0  0
    2.3417   33.9735   -1.8268 C   0  0  2  0  0  0  0  0  0  0  0  0
    1.0312   34.1068   -2.4289 N   0  0  0  0  0  0  0  0  0  0  0  0
   -0.4566   37.7016    1.1239 C   0  0  1  0  0  0  0  0  0  0  0  0
    0.1858   38.9341    1.4666 O   0  0  0  0  0  0  0  0  0  0  0  0
    1.5962   39.0752   -3.2054 C   0  0  2  0  0  0  0  0  0  0  0  0
    2.3776   39.9373   -4.0033 O   0  0  0  0  0  0  0  0  0  0  0  0
    2.5370   35.1043   -0.8504 C   0  0  1  0  0  0  0  0  0  0  0  0
    1.5031   34.9118    0.1547 O   0  0  0  0  0  0  0  0  0  0  0  0
   -0.3785   36.7613    2.2693 C   0  0  1  0  0  0  0  0  0  0  0  0
    0.8241   36.0048    2.1120 O   0  0  0  0  0  0  0  0  0  0  0  0
    0.4916   38.4295   -4.0423 C   0  0  1  0  0  0  0  0  0  0  0  0
    1.0543   37.6701   -5.1009 O   0  0  0  0  0  0  0  0  0  0  0  0
    3.8888   34.9384   -0.1051 C   0  0  2  0  0  0  0  0  0  0  0  0
    4.0461   36.0044    0.8185 O   0  0  0  0  0  0  0  0  0  0  0  0
   -0.3497   37.5261   -3.1402 C   0  0  1  0  0  0  0  0  0  0  0  0
   -0.9138   38.2910   -2.0762 O   0  0  0  0  0  0  0  0  0  0  0  0
    5.0431   34.9704   -1.1253 C   0  0  1  0  0  0  0  0  0  0  0  0
    6.2989   34.8186   -0.4528 O   0  0  0  0  0  0  0  0  0  0  0  0
   -1.4740   36.9053   -3.9697 C   0  0  0  0  0  0  0  0  0  0  0  0
   -0.9342   35.8883   -4.7984 O   0  0  0  0  0  0  0  0  0  0  0  0
    5.9800   31.8433   -4.1251 N   0  0  0  0  0  0  0  0  0  0  0  0
    0.3385   32.2009   -3.0452 N   0  0  0  0  0  0  0  0  0  0  0  0
  1  2  1  0  0  0  0
  1 39  1  0  0  0  0
  3  4  1  0  0  0  0
  5  6  1  0  0  0  0
  5 40  1  0  0  0  0
  9 10  1  6  0  0  0
  9 14  1  0  0  0  0
  9 35  1  0  0  0  0
 10  1  1  0  0  0  0
 11 16  1  0  0  0  0
 11 28  1  0  0  0  0
 11 26  1  6  0  0  0
 12 17  1  0  0  0  0
 12 34  1  0  0  0  0
 12 13  1  6  0  0  0
 14 15  1  6  0  0  0
 14 19  1  0  0  0  0
 16 13  1  6  0  0  0
 16 21  1  0  0  0  0
 17 18  1  1  0  0  0
 17 23  1  0  0  0  0
 18  8  1  0  0  0  0
 19 20  1  6  0  0  0
 19 25  1  0  0  0  0
 20  5  1  0  0  0  0
 21  3  1  6  0  0  0
 21 22  1  0  0  0  0
 21 27  1  0  0  0  0
 23 24  1  6  0  0  0
 23 29  1  0  0  0  0
 25 26  1  1  0  0  0
 25 31  1  0  0  0  0
 27  7  1  1  0  0  0
 27 28  1  0  0  0  0
 29 30  1  6  0  0  0
 29 33  1  0  0  0  0
 31 32  1  1  0  0  0
 31 35  1  0  0  0  0
 33 34  1  0  0  0  0
 33 37  1  6  0  0  0
 35 36  1  1  0  0  0
 37 38  1  0  0  0  0
M  END
>  <CHROM.1>
-105.81809405,-99.18499104,87.41964853,178.09299390,-167.38100486,-72.18630131
118.88512848,80.86859539,177.90545170,-158.70576982,74.62709675,1.71041916
36.22663417,-1.39201179,0.23497261,0.81825731,-1.43231481

>  <Name>
1ntb_lig

>  <RI>
0

>  <Rbt.Current_Directory>
/home/itssahil/PROJECTS/Mol_Feturizer/New_Systems/rnas/1ntb

>  <Rbt.Executable>
rbdock ($Id: //depot/dev/client3/rdock/2013.1/src/exe/rbdock.cxx#4 $)

>  <Rbt.Library>
libRbt.so (2013.1, Build901 2013/11/27)

>  <Rbt.Parameter_File>
/export/apps/rDock/src/rDock_2013.1_src/data/scripts/dock_solv.prm

>  <Rbt.Receptor>
prm/pocket_docking_3.prm

>  <SCORE>
-13.3301

>  <SCORE.INTER>
-2.30312

>  <SCORE.INTER.CONST>
1

>  <SCORE.INTER.POLAR>
-1.63316

>  <SCORE.INTER.ROT>
11

>  <SCORE.INTER.SOLV>
20.4239

>  <SCORE.INTER.VDW>
-13.8328

>  <SCORE.INTER.norm>
-0.057578

>  <SCORE.INTRA>
-11.0374

>  <SCORE.INTRA.DIHEDRAL>
-5.0965

>  <SCORE.INTRA.DIHEDRAL.0>
15.4453

>  <SCORE.INTRA.POLAR>
0

>  <SCORE.INTRA.POLAR.0>
0

>  <SCORE.INTRA.REPUL>
-0.823958

>  <SCORE.INTRA.REPUL.0>
0.823958

>  <SCORE.INTRA.SOLV>
-1.39679

>  <SCORE.INTRA.SOLV.lig_0>
-99.3069

>  <SCORE.INTRA.VDW>
-3.67092

>  <SCORE.INTRA.VDW.0>
0.946495

>  <SCORE.INTRA.norm>
-0.275934

>  <SCORE.RESTR>
0.0103561

>  <SCORE.RESTR.CAVITY>
0.0103561

>  <SCORE.RESTR.norm>
0.000258903

>  <SCORE.SYSTEM>
0

>  <SCORE.SYSTEM.CONST>
0

>  <SCORE.SYSTEM.DIHEDRAL>
0

>  <SCORE.SYSTEM.SOLV>
0

>  <SCORE.SYSTEM.norm>
0

>  <SCORE.heavy>
40

>  <SCORE.norm>
-0.333253

>  <RMSD>
5.086

$$$$
1ntb_lig
 OpenBabel11021811403D
libRbt.so/2013.1/901 2013/11/27
 40 42  0  0  0  0  0  0  0  0999 V2000
    6.5301   32.7338   -3.3358 C   0  0  0  0  0  0  0  0  0  0  0  0
    7.6339   32.5568   -2.7189 N   0  0  0  0  0  0  0  0  0  0  0  0
   -1.9844   37.7735    0.8364 C   0  0  0  0  0  0  0  0  0  0  0  0
   -2.5462   36.4807    0.6836 O   0  0  0  0  0  0  0  0  0  0  0  0
    0.5014   32.9622   -2.2545 C   0  0  0  0  0  0  0  0  0  0  0  0
    0.5459   32.1752   -3.2698 N   0  0  0  0  0  0  0  0  0  0  0  0
   -0.2797   37.6869    3.6052 C   0  0  0  0  0  0  0  0  0  0  0  0
    1.0796   41.5027   -2.0595 C   0  0  0  0  0  0  0  0  0  0  0  0
    4.8749   33.8651   -2.0924 C   0  0  2  0  0  0  0  0  0  0  0  0
    5.9553   33.9067   -3.1517 N   0  0  0  0  0  0  0  0  0  0  0  0
    1.3620   36.2452    0.8518 C   0  0  2  0  0  0  0  0  0  0  0  0
   -0.1766   38.4969   -1.5404 C   0  0  1  0  0  0  0  0  0  0  0  0
    0.8099   37.7994   -0.8025 O   0  0  0  0  0  0  0  0  0  0  0  0
    3.4902   33.9884   -2.7187 C   0  0  1  0  0  0  0  0  0  0  0  0
    3.4053   32.8499   -3.6823 O   0  0  0  0  0  0  0  0  0  0  0  0
    0.2525   36.9385    0.0824 C   0  0  2  0  0  0  0  0  0  0  0  0
    0.4894   39.1887   -2.7051 C   0  0  1  0  0  0  0  0  0  0  0  0
    1.4447   40.1246   -2.2268 N   0  0  0  0  0  0  0  0  0  0  0  0
    2.3657   33.9820   -1.6853 C   0  0  2  0  0  0  0  0  0  0  0  0
    1.0272   34.0921   -2.2275 N   0  0  0  0  0  0  0  0  0  0  0  0
   -0.5133   37.6581    1.1608 C   0  0  1  0  0  0  0  0  0  0  0  0
    0.0463   38.9584    1.3731 O   0  0  0  0  0  0  0  0  0  0  0  0
    1.1833   38.1288   -3.5440 C   0  0  2  0  0  0  0  0  0  0  0  0
    1.8331   38.7250   -4.6454 O   0  0  0  0  0  0  0  0  0  0  0  0
    2.5954   35.1327   -0.7401 C   0  0  1  0  0  0  0  0  0  0  0  0
    1.6116   34.9500    0.3158 O   0  0  0  0  0  0  0  0  0  0  0  0
   -0.3120   36.8231    2.3710 C   0  0  1  0  0  0  0  0  0  0  0  0
    0.9373   36.1467    2.2131 O   0  0  0  0  0  0  0  0  0  0  0  0
    0.1012   37.1612   -4.0236 C   0  0  1  0  0  0  0  0  0  0  0  0
    0.6747   36.1317   -4.8142 O   0  0  0  0  0  0  0  0  0  0  0  0
    3.9821   34.9930   -0.0562 C   0  0  2  0  0  0  0  0  0  0  0  0
    4.1721   36.0776    0.8391 O   0  0  0  0  0  0  0  0  0  0  0  0
   -0.5985   36.5571   -2.8057 C   0  0  1  0  0  0  0  0  0  0  0  0
   -1.1737   37.5935   -2.0117 O   0  0  0  0  0  0  0  0  0  0  0  0
    5.0871   35.0159   -1.1299 C   0  0  1  0  0  0  0  0  0  0  0  0
    6.3744   34.8881   -0.5144 O   0  0  0  0  0  0  0  0  0  0  0  0
   -1.7022   35.6139   -3.2849 C   0  0  0  0  0  0  0  0  0  0  0  0
   -2.6225   36.3414   -4.0826 O   0  0  0  0  0  0  0  0  0  0  0  0
    5.9958   31.8221   -4.0700 N   0  0  0  0  0  0  0  0  0  0  0  0
   -0.1424   32.6220   -1.2462 N   0  0  0  0  0  0  0  0  0  0  0  0
  1  2  1  0  0  0  0
  1 39  1  0  0  0  0
  3  4  1  0  0  0  0
  5  6  1  0  0  0  0
  5 40  1  0  0  0  0
  9 10  1  6  0  0  0
  9 14  1  0  0  0  0
  9 35  1  0  0  0  0
 10  1  1  0  0  0  0
 11 16  1  0  0  0  0
 11 28  1  0  0  0  0
 11 26  1  6  0  0  0
 12 17  1  0  0  0  0
 12 34  1  0  0  0  0
 12 13  1  6  0  0  0
 14 15  1  6  0  0  0
 14 19  1  0  0  0  0
 16 13  1  6  0  0  0
 16 21  1  0  0  0  0
 17 18  1  1  0  0  0
 17 23  1  0  0  0  0
 18  8  1  0  0  0  0
 19 20  1  6  0  0  0
 19 25  1  0  0  0  0
 20  5  1  0  0  0  0
 21  3  1  6  0  0  0
 21 22  1  0  0  0  0
 21 27  1  0  0  0  0
 23 24  1  6  0  0  0
 23 29  1  0  0  0  0
 25 26  1  1  0  0  0
 25 31  1  0  0  0  0
 27  7  1  1  0  0  0
 27 28  1  0  0  0  0
 29 30  1  1  0  0  0
 29 33  1  0  0  0  0
 31 32  1  1  0  0  0
 31 35  1  0  0  0  0
 33 34  1  0  0  0  0
 33 37  1  6  0  0  0
 35 36  1  1  0  0  0
 37 38  1  0  0  0  0
M  END
>  <CHROM.1>
-108.43472884,-97.51343357,88.16135944,-167.19213178,-179.05959614,-94.79643382
100.75344882,-92.46921444,59.68258493,-153.77422068,-59.00453415,1.57994669
35.94957121,-1.46674649,0.42286563,0.61635591,-1.79237629

>  <Name>
1ntb_lig

>  <RI>
0

>  <Rbt.Current_Directory>
/home/itssahil/PROJECTS/Mol_Feturizer/New_Systems/rnas/1ntb

>  <Rbt.Executable>
rbdock ($Id: //depot/dev/client3/rdock/2013.1/src/exe/rbdock.cxx#4 $)

>  <Rbt.Library>
libRbt.so (2013.1, Build901 2013/11/27)

>  <Rbt.Parameter_File>
/export/apps/rDock/src/rDock_2013.1_src/data/scripts/dock_solv.prm

>  <Rbt.Receptor>
prm/pocket_docking_3.prm

>  <SCORE>
-14.3321

>  <SCORE.INTER>
-2.11301

>  <SCORE.INTER.CONST>
1

>  <SCORE.INTER.POLAR>
-1.66005

>  <SCORE.INTER.ROT>
11

>  <SCORE.INTER.SOLV>
21.544

>  <SCORE.INTER.VDW>
-13.9898

>  <SCORE.INTER.norm>
-0.0528253

>  <SCORE.INTRA>
-12.2243

>  <SCORE.INTRA.DIHEDRAL>
-4.46713

>  <SCORE.INTRA.DIHEDRAL.0>
15.4453

>  <SCORE.INTRA.POLAR>
0

>  <SCORE.INTRA.POLAR.0>
0

>  <SCORE.INTRA.REPUL>
-0.823958

>  <SCORE.INTRA.REPUL.0>
0.823958

>  <SCORE.INTRA.SOLV>
0.333927

>  <SCORE.INTRA.SOLV.lig_0>
-99.3069

>  <SCORE.INTRA.VDW>
-6.03789

>  <SCORE.INTRA.VDW.0>
0.946495

>  <SCORE.INTRA.norm>
-0.305607

>  <SCORE.RESTR>
0.00523423

>  <SCORE.RESTR.CAVITY>
0.00523423

>  <SCORE.RESTR.norm>
0.000130856

>  <SCORE.SYSTEM>
0

>  <SCORE.SYSTEM.CONST>
0

>  <SCORE.SYSTEM.DIHEDRAL>
0

>  <SCORE.SYSTEM.SOLV>
0

>  <SCORE.SYSTEM.norm>
0

>  <SCORE.heavy>
40

>  <SCORE.norm>
-0.358302

>  <RMSD>
5.099

$$$$
1ntb_lig
 OpenBabel11021811403D
libRbt.so/2013.1/901 2013/11/27
 40 42  0  0  0  0  0  0  0  0999 V2000
    5.4806   38.7738    0.3378 C   0  0  0  0  0  0  0  0  0  0  0  0
    6.2774   37.8806    0.7821 N   0  0  0  0  0  0  0  0  0  0  0  0
   -2.2986   31.7885   -0.6822 C   0  0  0  0  0  0  0  0  0  0  0  0
   -3.0676   32.4195   -1.6926 O   0  0  0  0  0  0  0  0  0  0  0  0
    4.4356   33.0197   -0.8487 C   0  0  0  0  0  0  0  0  0  0  0  0
    5.2706   33.3593   -1.7650 N   0  0  0  0  0  0  0  0  0  0  0  0
   -2.7192   31.9821    2.5374 C   0  0  0  0  0  0  0  0  0  0  0  0
   -4.0851   36.3364   -2.1739 C   0  0  0  0  0  0  0  0  0  0  0  0
    3.8264   37.0928    0.3991 C   0  0  2  0  0  0  0  0  0  0  0  0
    4.4002   38.3231   -0.2704 N   0  0  0  0  0  0  0  0  0  0  0  0
   -0.0180   33.8712    1.3167 C   0  0  2  0  0  0  0  0  0  0  0  0
   -1.4246   34.5519   -1.9508 C   0  0  1  0  0  0  0  0  0  0  0  0
   -0.9859   34.7495   -0.6194 O   0  0  0  0  0  0  0  0  0  0  0  0
    3.8592   35.8932   -0.5415 C   0  0  1  0  0  0  0  0  0  0  0  0
    5.2985   35.7377   -0.9105 O   0  0  0  0  0  0  0  0  0  0  0  0
   -0.6751   33.5756   -0.0192 C   0  0  2  0  0  0  0  0  0  0  0  0
   -1.6843   35.8993   -2.5797 C   0  0  1  0  0  0  0  0  0  0  0  0
   -2.7051   36.5772   -1.8614 N   0  0  0  0  0  0  0  0  0  0  0  0
    3.2617   34.6322    0.0794 C   0  0  2  0  0  0  0  0  0  0  0  0
    3.2719   33.4599   -0.7712 N   0  0  0  0  0  0  0  0  0  0  0  0
   -1.9056   32.7997    0.3694 C   0  0  1  0  0  0  0  0  0  0  0  0
   -2.9921   33.6980    0.6174 O   0  0  0  0  0  0  0  0  0  0  0  0
   -0.3945   36.7001   -2.5191 C   0  0  2  0  0  0  0  0  0  0  0  0
   -0.5848   37.9775   -3.0873 O   0  0  0  0  0  0  0  0  0  0  0  0
    1.8360   34.9327    0.4631 C   0  0  1  0  0  0  0  0  0  0  0  0
    1.3982   33.7663    1.2141 O   0  0  0  0  0  0  0  0  0  0  0  0
   -1.5236   32.1164    1.6303 C   0  0  1  0  0  0  0  0  0  0  0  0
   -0.5203   32.9188    2.2570 O   0  0  0  0  0  0  0  0  0  0  0  0
    0.6540   35.9164   -3.3090 C   0  0  1  0  0  0  0  0  0  0  0  0
    1.8969   36.6012   -3.2940 O   0  0  0  0  0  0  0  0  0  0  0  0
    1.7911   36.1210    1.4612 C   0  0  2  0  0  0  0  0  0  0  0  0
    0.4423   36.3779    1.8202 O   0  0  0  0  0  0  0  0  0  0  0  0
    0.8127   34.5307   -2.6825 C   0  0  1  0  0  0  0  0  0  0  0  0
   -0.4378   33.8442   -2.6976 O   0  0  0  0  0  0  0  0  0  0  0  0
    2.3906   37.3735    0.7934 C   0  0  1  0  0  0  0  0  0  0  0  0
    2.3563   38.4802    1.7024 O   0  0  0  0  0  0  0  0  0  0  0  0
    1.8375   33.7351   -3.4914 C   0  0  0  0  0  0  0  0  0  0  0  0
    1.8790   32.4021   -3.0078 O   0  0  0  0  0  0  0  0  0  0  0  0
    5.7227   40.0325    0.4502 N   0  0  0  0  0  0  0  0  0  0  0  0
    4.7656   32.1637   -0.0090 N   0  0  0  0  0  0  0  0  0  0  0  0
  1  2  1  0  0  0  0
  1 39  1  0  0  0  0
  3  4  1  0  0  0  0
  5  6  1  0  0  0  0
  5 40  1  0  0  0  0
  9 10  1  6  0  0  0
  9 14  1  0  0  0  0
  9 35  1  0  0  0  0
 10  1  1  0  0  0  0
 11 16  1  0  0  0  0
 11 28  1  0  0  0  0
 11 26  1  6  0  0  0
 12 17  1  0  0  0  0
 12 34  1  0  0  0  0
 12 13  1  1  0  0  0
 14 15  1  1  0  0  0
 14 19  1  0  0  0  0
 16 13  1  1  0  0  0
 16 21  1  0  0  0  0
 17 18  1  1  0  0  0
 17 23  1  0  0  0  0
 18  8  1  0  0  0  0
 19 20  1  6  0  0  0
 19 25  1  0  0  0  0
 20  5  1  0  0  0  0
 21  3  1  6  0  0  0
 21 22  1  0  0  0  0
 21 27  1  0  0  0  0
 23 24  1  6  0  0  0
 23 29  1  0  0  0  0
 25 26  1  1  0  0  0
 25 31  1  0  0  0  0
 27  7  1  1  0  0  0
 27 28  1  0  0  0  0
 29 30  1  1  0  0  0
 29 33  1  0  0  0  0
 31 32  1  6  0  0  0
 31 35  1  0  0  0  0
 33 34  1  0  0  0  0
 33 37  1  6  0  0  0
 35 36  1  1  0  0  0
 37 38  1  0  0  0  0
M  END
>  <CHROM.1>
-117.48990050,38.41642765,72.79480463,-177.10818363,171.49083636,-85.53406834
73.72805229,-91.89680901,-83.52198942,-166.53706150,-173.52733023,1.08373631
35.05165846,-0.56960243,0.39669464,-0.26037015,-0.40829259

>  <Name>
1ntb_lig

>  <RI>
0

>  <Rbt.Current_Directory>
/home/itssahil/PROJECTS/Mol_Feturizer/New_Systems/rnas/1ntb

>  <Rbt.Executable>
rbdock ($Id: //depot/dev/client3/rdock/2013.1/src/exe/rbdock.cxx#4 $)

>  <Rbt.Library>
libRbt.so (2013.1, Build901 2013/11/27)

>  <Rbt.Parameter_File>
/export/apps/rDock/src/rDock_2013.1_src/data/scripts/dock_solv.prm

>  <Rbt.Receptor>
prm/pocket_docking_4.prm

>  <SCORE>
-8.92033

>  <SCORE.INTER>
3.00342

>  <SCORE.INTER.CONST>
1

>  <SCORE.INTER.POLAR>
-0.937982

>  <SCORE.INTER.ROT>
11

>  <SCORE.INTER.SOLV>
23.613

>  <SCORE.INTER.VDW>
-13.6754

>  <SCORE.INTER.norm>
0.0750854

>  <SCORE.INTRA>
-11.9301

>  <SCORE.INTRA.DIHEDRAL>
-8.61714

>  <SCORE.INTRA.DIHEDRAL.0>
15.4453

>  <SCORE.INTRA.POLAR>
0

>  <SCORE.INTRA.POLAR.0>
0

>  <SCORE.INTRA.REPUL>
-0.810695

>  <SCORE.INTRA.REPUL.0>
0.823958

>  <SCORE.INTRA.SOLV>
1.0409

>  <SCORE.INTRA.SOLV.lig_0>
-99.3069

>  <SCORE.INTRA.VDW>
-4.08854

>  <SCORE.INTRA.VDW.0>
0.946495

>  <SCORE.INTRA.norm>
-0.298253

>  <SCORE.RESTR>
0.00639079

>  <SCORE.RESTR.CAVITY>
0.00639079

>  <SCORE.RESTR.norm>
0.00015977

>  <SCORE.SYSTEM>
0

>  <SCORE.SYSTEM.CONST>
0

>  <SCORE.SYSTEM.DIHEDRAL>
0

>  <SCORE.SYSTEM.SOLV>
0

>  <SCORE.SYSTEM.norm>
0

>  <SCORE.heavy>
40

>  <SCORE.norm>
-0.223008

>  <RMSD>
5.104

$$$$
1ntb_lig
 OpenBabel11021811403D
libRbt.so/2013.1/901 2013/11/27
 40 42  0  0  0  0  0  0  0  0999 V2000
    7.8332   32.8521   -1.8183 C   0  0  0  0  0  0  0  0  0  0  0  0
    9.0497   33.0331   -2.1613 N   0  0  0  0  0  0  0  0  0  0  0  0
   -0.5951   38.9560    0.3646 C   0  0  0  0  0  0  0  0  0  0  0  0
   -0.7530   40.3250    0.0310 O   0  0  0  0  0  0  0  0  0  0  0  0
    1.4310   33.1009   -3.4405 C   0  0  0  0  0  0  0  0  0  0  0  0
    1.4396   32.4303   -4.5370 N   0  0  0  0  0  0  0  0  0  0  0  0
    1.2986   39.7119   -2.1696 C   0  0  0  0  0  0  0  0  0  0  0  0
   -4.6184   37.3581   -1.3511 C   0  0  0  0  0  0  0  0  0  0  0  0
    5.5908   33.5721   -1.9556 C   0  0  2  0  0  0  0  0  0  0  0  0
    6.9290   33.3638   -2.6313 N   0  0  0  0  0  0  0  0  0  0  0  0
    1.1634   36.2760   -1.4407 C   0  0  2  0  0  0  0  0  0  0  0  0
   -2.1017   36.0262    0.0375 C   0  0  1  0  0  0  0  0  0  0  0  0
   -1.1155   36.0541   -0.9778 O   0  0  0  0  0  0  0  0  0  0  0  0
    4.4821   33.7608   -2.9853 C   0  0  1  0  0  0  0  0  0  0  0  0
    4.5256   32.5244   -3.8227 O   0  0  0  0  0  0  0  0  0  0  0  0
   -0.0026   36.7107   -0.5716 C   0  0  2  0  0  0  0  0  0  0  0  0
   -3.3552   35.3990   -0.5228 C   0  0  1  0  0  0  0  0  0  0  0  0
   -3.8410   36.1788   -1.6060 N   0  0  0  0  0  0  0  0  0  0  0  0
    3.1145   34.0053   -2.3508 C   0  0  2  0  0  0  0  0  0  0  0  0
    2.0231   34.1869   -3.2854 N   0  0  0  0  0  0  0  0  0  0  0  0
   -0.0940   38.1899   -0.8373 C   0  0  1  0  0  0  0  0  0  0  0  0
   -0.9435   38.4328   -1.9636 O   0  0  0  0  0  0  0  0  0  0  0  0
   -3.0024   34.0041   -1.0110 C   0  0  2  0  0  0  0  0  0  0  0  0
   -4.1411   33.3740   -1.5559 O   0  0  0  0  0  0  0  0  0  0  0  0
    3.2151   35.2360   -1.4874 C   0  0  1  0  0  0  0  0  0  0  0  0
    1.9494   35.2946   -0.7727 O   0  0  0  0  0  0  0  0  0  0  0  0
    1.2974   38.5891   -1.1648 C   0  0  1  0  0  0  0  0  0  0  0  0
    1.9473   37.4400   -1.7129 O   0  0  0  0  0  0  0  0  0  0  0  0
   -2.4903   33.2243    0.2003 C   0  0  1  0  0  0  0  0  0  0  0  0
   -2.1320   31.9044   -0.1779 O   0  0  0  0  0  0  0  0  0  0  0  0
    4.3065   35.0382   -0.4012 C   0  0  2  0  0  0  0  0  0  0  0  0
    4.3748   36.2016    0.4087 O   0  0  0  0  0  0  0  0  0  0  0  0
   -1.2758   33.9504    0.7796 C   0  0  1  0  0  0  0  0  0  0  0  0
   -1.6377   35.2774    1.1583 O   0  0  0  0  0  0  0  0  0  0  0  0
    5.6697   34.8070   -1.0812 C   0  0  1  0  0  0  0  0  0  0  0  0
    6.6888   34.6228   -0.0913 O   0  0  0  0  0  0  0  0  0  0  0  0
   -0.7829   33.1886    2.0101 C   0  0  0  0  0  0  0  0  0  0  0  0
   -0.0914   32.0234    1.5903 O   0  0  0  0  0  0  0  0  0  0  0  0
    7.5050   32.2342   -0.7385 N   0  0  0  0  0  0  0  0  0  0  0  0
    0.7570   32.6906   -2.4792 N   0  0  0  0  0  0  0  0  0  0  0  0
  1  2  1  0  0  0  0
  1 39  1  0  0  0  0
  3  4  1  0  0  0  0
  5  6  1  0  0  0  0
  5 40  1  0  0  0  0
  9 10  1  6  0  0  0
  9 14  1  0  0  0  0
  9 35  1  0  0  0  0
 10  1  1  0  0  0  0
 11 16  1  0  0  0  0
 11 28  1  0  0  0  0
 11 26  1  1  0  0  0
 12 17  1  0  0  0  0
 12 34  1  0  0  0  0
 12 13  1  6  0  0  0
 14 15  1  1  0  0  0
 14 19  1  0  0  0  0
 16 13  1  6  0  0  0
 16 21  1  0  0  0  0
 17 18  1  6  0  0  0
 17 23  1  0  0  0  0
 18  8  1  0  0  0  0
 19 20  1  6  0  0  0
 19 25  1  0  0  0  0
 20  5  1  0  0  0  0
 21  3  1  1  0  0  0
 21 22  1  0  0  0  0
 21 27  1  0  0  0  0
 23 24  1  1  0  0  0
 23 29  1  0  0  0  0
 25 26  1  1  0  0  0
 25 31  1  0  0  0  0
 27  7  1  6  0  0  0
 27 28  1  0  0  0  0
 29 30  1  6  0  0  0
 29 33  1  0  0  0  0
 31 32  1  1  0  0  0
 31 35  1  0  0  0  0
 33 34  1  0  0  0  0
 33 37  1  1  0  0  0
 35 36  1  1  0  0  0
 37 38  1  0  0  0  0
M  END
>  <CHROM.1>
-163.12680771,-158.90280460,-163.81263058,174.70391773,158.97461982,-81.01071425
96.30643805,-112.23404194,-175.83253105,-101.56411939,75.64951594,1.30080047
35.05799634,-1.14386774,0.28141904,-0.13573567,-3.08827943

>  <Name>
1ntb_lig

>  <RI>
0

>  <Rbt.Current_Directory>
/home/itssahil/PROJECTS/Mol_Feturizer/New_Systems/rnas/1ntb

>  <Rbt.Executable>
rbdock ($Id: //depot/dev/client3/rdock/2013.1/src/exe/rbdock.cxx#4 $)

>  <Rbt.Library>
libRbt.so (2013.1, Build901 2013/11/27)

>  <Rbt.Parameter_File>
/export/apps/rDock/src/rDock_2013.1_src/data/scripts/dock_solv.prm

>  <Rbt.Receptor>
prm/pocket_docking_4.prm

>  <SCORE>
-7.734

>  <SCORE.INTER>
0.865443

>  <SCORE.INTER.CONST>
1

>  <SCORE.INTER.POLAR>
-1.19207

>  <SCORE.INTER.ROT>
11

>  <SCORE.INTER.SOLV>
21.2118

>  <SCORE.INTER.VDW>
-13.4534

>  <SCORE.INTER.norm>
0.0216361

>  <SCORE.INTRA>
-8.59944

>  <SCORE.INTRA.DIHEDRAL>
-2.97898

>  <SCORE.INTRA.DIHEDRAL.0>
15.4453

>  <SCORE.INTRA.POLAR>
0

>  <SCORE.INTRA.POLAR.0>
0

>  <SCORE.INTRA.REPUL>
-0.823958

>  <SCORE.INTRA.REPUL.0>
0.823958

>  <SCORE.INTRA.SOLV>
-0.435745

>  <SCORE.INTRA.SOLV.lig_0>
-99.3069

>  <SCORE.INTRA.VDW>
-2.77229

>  <SCORE.INTRA.VDW.0>
0.946495

>  <SCORE.INTRA.norm>
-0.214986

>  <SCORE.RESTR>
0

>  <SCORE.RESTR.CAVITY>
0

>  <SCORE.RESTR.norm>
0

>  <SCORE.SYSTEM>
0

>  <SCORE.SYSTEM.CONST>
0

>  <SCORE.SYSTEM.DIHEDRAL>
0

>  <SCORE.SYSTEM.SOLV>
0

>  <SCORE.SYSTEM.norm>
0

>  <SCORE.heavy>
40

>  <SCORE.norm>
-0.19335

>  <RMSD>
5.109

$$$$
1ntb_lig
 OpenBabel11021811403D
libRbt.so/2013.1/901 2013/11/27
 40 42  0  0  0  0  0  0  0  0999 V2000
   11.0916   31.6685   -3.1814 C   0  0  0  0  0  0  0  0  0  0  0  0
   10.9133   31.3371   -4.4015 N   0  0  0  0  0  0  0  0  0  0  0  0
    2.3384   36.5503    1.5078 C   0  0  0  0  0  0  0  0  0  0  0  0
    1.8655   37.7932    1.9996 O   0  0  0  0  0  0  0  0  0  0  0  0
    4.9011   33.0943   -3.4190 C   0  0  0  0  0  0  0  0  0  0  0  0
    4.0939   32.9948   -2.4238 N   0  0  0  0  0  0  0  0  0  0  0  0
    5.0390   38.3632    1.5198 C   0  0  0  0  0  0  0  0  0  0  0  0
    1.1646   39.0010   -2.5394 C   0  0  0  0  0  0  0  0  0  0  0  0
    9.3535   32.9327   -2.2085 C   0  0  2  0  0  0  0  0  0  0  0  0
   10.7180   32.8927   -2.8622 N   0  0  0  0  0  0  0  0  0  0  0  0
    5.1325   35.6458   -0.7079 C   0  0  2  0  0  0  0  0  0  0  0  0
    1.5961   36.0384   -1.3390 C   0  0  1  0  0  0  0  0  0  0  0  0
    2.9648   35.7607   -1.5709 O   0  0  0  0  0  0  0  0  0  0  0  0
    8.2874   33.3941   -3.1962 C   0  0  1  0  0  0  0  0  0  0  0  0
    8.3647   32.4172   -4.3239 O   0  0  0  0  0  0  0  0  0  0  0  0
    3.6448   35.6085   -0.4094 C   0  0  2  0  0  0  0  0  0  0  0  0
    0.9788   36.5356   -2.6236 C   0  0  1  0  0  0  0  0  0  0  0  0
    1.6217   37.7336   -3.0345 N   0  0  0  0  0  0  0  0  0  0  0  0
    6.8953   33.4799   -2.5740 C   0  0  2  0  0  0  0  0  0  0  0  0
    5.8427   33.9096   -3.4713 N   0  0  0  0  0  0  0  0  0  0  0  0
    3.4517   36.7827    0.5132 C   0  0  1  0  0  0  0  0  0  0  0  0
    3.1902   37.9657   -0.2492 O   0  0  0  0  0  0  0  0  0  0  0  0
    1.1696   35.4611   -3.6808 C   0  0  2  0  0  0  0  0  0  0  0  0
    0.6172   35.8804   -4.9095 O   0  0  0  0  0  0  0  0  0  0  0  0
    6.9609   34.4431   -1.4172 C   0  0  1  0  0  0  0  0  0  0  0  0
    5.6673   34.3275   -0.7619 O   0  0  0  0  0  0  0  0  0  0  0  0
    4.7538   36.9159    1.2125 C   0  0  1  0  0  0  0  0  0  0  0  0
    5.7569   36.3934    0.3384 O   0  0  0  0  0  0  0  0  0  0  0  0
    0.4554   34.2072   -3.1757 C   0  0  1  0  0  0  0  0  0  0  0  0
    0.5939   33.1494   -4.1114 O   0  0  0  0  0  0  0  0  0  0  0  0
    8.0074   33.9584   -0.3778 C   0  0  2  0  0  0  0  0  0  0  0  0
    8.0429   34.8708    0.7086 O   0  0  0  0  0  0  0  0  0  0  0  0
    1.0606   33.7997   -1.8320 C   0  0  1  0  0  0  0  0  0  0  0  0
    0.9212   34.8646   -0.8929 O   0  0  0  0  0  0  0  0  0  0  0  0
    9.3970   33.8972   -1.0407 C   0  0  1  0  0  0  0  0  0  0  0  0
   10.3751   33.4514   -0.0937 O   0  0  0  0  0  0  0  0  0  0  0  0
    0.3251   32.5648   -1.3109 C   0  0  0  0  0  0  0  0  0  0  0  0
    0.6503   31.4505   -2.1265 O   0  0  0  0  0  0  0  0  0  0  0  0
   11.6239   30.8735   -2.3209 N   0  0  0  0  0  0  0  0  0  0  0  0
    4.7903   32.3076   -4.3759 N   0  0  0  0  0  0  0  0  0  0  0  0
  1  2  1  0  0  0  0
  1 39  1  0  0  0  0
  3  4  1  0  0  0  0
  5  6  1  0  0  0  0
  5 40  1  0  0  0  0
  9 10  1  6  0  0  0
  9 14  1  0  0  0  0
  9 35  1  0  0  0  0
 10  1  1  0  0  0  0
 11 16  1  0  0  0  0
 11 28  1  0  0  0  0
 11 26  1  1  0  0  0
 12 17  1  0  0  0  0
 12 34  1  0  0  0  0
 12 13  1  6  0  0  0
 14 15  1  6  0  0  0
 14 19  1  0  0  0  0
 16 13  1  6  0  0  0
 16 21  1  0  0  0  0
 17 18  1  6  0  0  0
 17 23  1  0  0  0  0
 18  8  1  0  0  0  0
 19 20  1  6  0  0  0
 19 25  1  0  0  0  0
 20  5  1  0  0  0  0
 21  3  1  1  0  0  0
 21 22  1  0  0  0  0
 21 27  1  0  0  0  0
 23 24  1  6  0  0  0
 23 29  1  0  0  0  0
 25 26  1  1  0  0  0
 25 31  1  0  0  0  0
 27  7  1  6  0  0  0
 27 28  1  0  0  0  0
 29 30  1  6  0  0  0
 29 33  1  0  0  0  0
 31 32  1  1  0  0  0
 31 35  1  0  0  0  0
 33 34  1  0  0  0  0
 33 37  1  1  0  0  0
 35 36  1  1  0  0  0
 37 38  1  0  0  0  0
M  END
>  <CHROM.1>
-102.34679273,98.80690100,164.03188211,165.86174346,-166.65802688,-87.02665575
128.22358490,72.96597760,-158.56640385,-125.06532883,69.59148493,4.82077208
34.64006400,-1.71173856,0.32021618,0.21665655,-2.33771083

>  <Name>
1ntb_lig

>  <RI>
0

>  <Rbt.Current_Directory>
/home/itssahil/PROJECTS/Mol_Feturizer/New_Systems/rnas/1ntb

>  <Rbt.Executable>
rbdock ($Id: //depot/dev/client3/rdock/2013.1/src/exe/rbdock.cxx#4 $)

>  <Rbt.Library>
libRbt.so (2013.1, Build901 2013/11/27)

>  <Rbt.Parameter_File>
/export/apps/rDock/src/rDock_2013.1_src/data/scripts/dock_solv.prm

>  <Rbt.Receptor>
prm/pocket_docking_3.prm

>  <SCORE>
-17.936

>  <SCORE.INTER>
-10.608

>  <SCORE.INTER.CONST>
1

>  <SCORE.INTER.POLAR>
-2.29264

>  <SCORE.INTER.ROT>
11

>  <SCORE.INTER.SOLV>
37.523

>  <SCORE.INTER.VDW>
-22.8709

>  <SCORE.INTER.norm>
-0.265201

>  <SCORE.INTRA>
-7.98335

>  <SCORE.INTRA.DIHEDRAL>
0.5951

>  <SCORE.INTRA.DIHEDRAL.0>
15.4453

>  <SCORE.INTRA.POLAR>
0

>  <SCORE.INTRA.POLAR.0>
0

>  <SCORE.INTRA.REPUL>
-0.823958

>  <SCORE.INTRA.REPUL.0>
0.823958

>  <SCORE.INTRA.SOLV>
2.52637

>  <SCORE.INTRA.SOLV.lig_0>
-99.3069

>  <SCORE.INTRA.VDW>
-5.4243

>  <SCORE.INTRA.VDW.0>
0.946495

>  <SCORE.INTRA.norm>
-0.199584

>  <SCORE.RESTR>
0.655362

>  <SCORE.RESTR.CAVITY>
0.655362

>  <SCORE.RESTR.norm>
0.0163841

>  <SCORE.SYSTEM>
0

>  <SCORE.SYSTEM.CONST>
0

>  <SCORE.SYSTEM.DIHEDRAL>
0

>  <SCORE.SYSTEM.SOLV>
0

>  <SCORE.SYSTEM.norm>
0

>  <SCORE.heavy>
40

>  <SCORE.norm>
-0.448401

>  <RMSD>
5.158

$$$$
1ntb_lig
 OpenBabel11021811403D
libRbt.so/2013.1/901 2013/11/27
 40 42  0  0  0  0  0  0  0  0999 V2000
   10.2331   33.1906   -3.0686 C   0  0  0  0  0  0  0  0  0  0  0  0
   11.0795   34.1403   -2.9598 N   0  0  0  0  0  0  0  0  0  0  0  0
    2.2766   38.4319    0.9311 C   0  0  0  0  0  0  0  0  0  0  0  0
    2.4973   37.6500    2.0930 O   0  0  0  0  0  0  0  0  0  0  0  0
    4.6302   33.1880   -1.6564 C   0  0  0  0  0  0  0  0  0  0  0  0
    4.2003   32.6633   -0.5647 N   0  0  0  0  0  0  0  0  0  0  0  0
    4.6214   40.3387   -0.2714 C   0  0  0  0  0  0  0  0  0  0  0  0
    0.9155   37.6612   -3.9002 C   0  0  0  0  0  0  0  0  0  0  0  0
    8.9395   33.1876   -1.0957 C   0  0  2  0  0  0  0  0  0  0  0  0
    9.9849   32.5178   -1.9614 N   0  0  0  0  0  0  0  0  0  0  0  0
    5.3367   36.9004   -0.4197 C   0  0  2  0  0  0  0  0  0  0  0  0
    1.8412   36.2163   -1.0143 C   0  0  1  0  0  0  0  0  0  0  0  0
    3.2493   36.0851   -1.0791 O   0  0  0  0  0  0  0  0  0  0  0  0
    7.6296   33.3617   -1.8565 C   0  0  1  0  0  0  0  0  0  0  0  0
    7.2436   31.9795   -2.2715 O   0  0  0  0  0  0  0  0  0  0  0  0
    3.8594   36.7833   -0.0916 C   0  0  2  0  0  0  0  0  0  0  0  0
    1.2531   35.7769   -2.3333 C   0  0  1  0  0  0  0  0  0  0  0  0
    1.7388   36.6079   -3.3777 N   0  0  0  0  0  0  0  0  0  0  0  0
    6.5505   34.0620   -1.0332 C   0  0  2  0  0  0  0  0  0  0  0  0
    5.2825   34.2491   -1.7077 N   0  0  0  0  0  0  0  0  0  0  0  0
    3.4032   38.2176   -0.0526 C   0  0  1  0  0  0  0  0  0  0  0  0
    3.0001   38.6383   -1.3602 O   0  0  0  0  0  0  0  0  0  0  0  0
    1.6793   34.3394   -2.5797 C   0  0  2  0  0  0  0  0  0  0  0  0
    1.1627   33.8802   -3.8097 O   0  0  0  0  0  0  0  0  0  0  0  0
    7.0794   35.4125   -0.6249 C   0  0  1  0  0  0  0  0  0  0  0  0
    6.0905   35.9345    0.3055 O   0  0  0  0  0  0  0  0  0  0  0  0
    4.6096   38.9736    0.3663 C   0  0  1  0  0  0  0  0  0  0  0  0
    5.7475   38.2222   -0.0625 O   0  0  0  0  0  0  0  0  0  0  0  0
    1.1245   33.5060   -1.4242 C   0  0  1  0  0  0  0  0  0  0  0  0
    1.4878   32.1430   -1.5798 O   0  0  0  0  0  0  0  0  0  0  0  0
    8.3874   35.2478    0.1950 C   0  0  2  0  0  0  0  0  0  0  0  0
    8.8603   36.5290    0.5811 O   0  0  0  0  0  0  0  0  0  0  0  0
    1.6830   34.0493   -0.1086 C   0  0  1  0  0  0  0  0  0  0  0  0
    1.3176   35.4197    0.0456 O   0  0  0  0  0  0  0  0  0  0  0  0
    9.4516   34.5497   -0.6736 C   0  0  1  0  0  0  0  0  0  0  0  0
   10.6662   34.3903    0.0692 O   0  0  0  0  0  0  0  0  0  0  0  0
    1.1033   33.2366    1.0494 C   0  0  0  0  0  0  0  0  0  0  0  0
   -0.2809   33.5223    1.1717 O   0  0  0  0  0  0  0  0  0  0  0  0
    9.6747   32.8884   -4.1879 N   0  0  0  0  0  0  0  0  0  0  0  0
    4.4433   32.5953   -2.7337 N   0  0  0  0  0  0  0  0  0  0  0  0
  1  2  1  0  0  0  0
  1 39  1  0  0  0  0
  3  4  1  0  0  0  0
  5  6  1  0  0  0  0
  5 40  1  0  0  0  0
  9 10  1  6  0  0  0
  9 14  1  0  0  0  0
  9 35  1  0  0  0  0
 10  1  1  0  0  0  0
 11 16  1  0  0  0  0
 11 28  1  0  0  0  0
 11 26  1  1  0  0  0
 12 17  1  0  0  0  0
 12 34  1  0  0  0  0
 12 13  1  6  0  0  0
 14 15  1  1  0  0  0
 14 19  1  0  0  0  0
 16 13  1  6  0  0  0
 16 21  1  0  0  0  0
 17 18  1  6  0  0  0
 17 23  1  0  0  0  0
 18  8  1  0  0  0  0
 19 20  1  6  0  0  0
 19 25  1  0  0  0  0
 20  5  1  0  0  0  0
 21  3  1  1  0  0  0
 21 22  1  0  0  0  0
 21 27  1  0  0  0  0
 23 24  1  6  0  0  0
 23 29  1  0  0  0  0
 25 26  1  1  0  0  0
 25 31  1  0  0  0  0
 27  7  1  6  0  0  0
 27 28  1  0  0  0  0
 29 30  1  6  0  0  0
 29 33  1  0  0  0  0
 31 32  1  6  0  0  0
 31 35  1  0  0  0  0
 33 34  1  0  0  0  0
 33 37  1  1  0  0  0
 35 36  1  1  0  0  0
 37 38  1  0  0  0  0
M  END
>  <CHROM.1>
58.27755183,84.04837685,138.59802692,163.50234082,-165.52804882,-101.19898883
80.64533632,64.39093315,38.71937141,-103.26270919,-69.21073812,4.81194127
35.18557380,-1.05844765,0.27344297,0.00850783,-2.74861917

>  <Name>
1ntb_lig

>  <RI>
0

>  <Rbt.Current_Directory>
/home/itssahil/PROJECTS/Mol_Feturizer/New_Systems/rnas/1ntb

>  <Rbt.Executable>
rbdock ($Id: //depot/dev/client3/rdock/2013.1/src/exe/rbdock.cxx#4 $)

>  <Rbt.Library>
libRbt.so (2013.1, Build901 2013/11/27)

>  <Rbt.Parameter_File>
/export/apps/rDock/src/rDock_2013.1_src/data/scripts/dock_solv.prm

>  <Rbt.Receptor>
prm/pocket_docking_4.prm

>  <SCORE>
7.15943

>  <SCORE.INTER>
7.56218

>  <SCORE.INTER.CONST>
1

>  <SCORE.INTER.POLAR>
-2.82442

>  <SCORE.INTER.ROT>
11

>  <SCORE.INTER.SOLV>
34.7288

>  <SCORE.INTER.VDW>
-8.0534

>  <SCORE.INTER.norm>
0.189054

>  <SCORE.INTRA>
-0.442997

>  <SCORE.INTRA.DIHEDRAL>
2.56248

>  <SCORE.INTRA.DIHEDRAL.0>
15.4453

>  <SCORE.INTRA.POLAR>
0

>  <SCORE.INTRA.POLAR.0>
0

>  <SCORE.INTRA.REPUL>
-0.343609

>  <SCORE.INTRA.REPUL.0>
0.823958

>  <SCORE.INTRA.SOLV>
9.12562

>  <SCORE.INTRA.SOLV.lig_0>
-99.3069

>  <SCORE.INTRA.VDW>
-4.569

>  <SCORE.INTRA.VDW.0>
0.946495

>  <SCORE.INTRA.norm>
-0.0110749

>  <SCORE.RESTR>
0.0402512

>  <SCORE.RESTR.CAVITY>
0.0402512

>  <SCORE.RESTR.norm>
0.00100628

>  <SCORE.SYSTEM>
0

>  <SCORE.SYSTEM.CONST>
0

>  <SCORE.SYSTEM.DIHEDRAL>
0

>  <SCORE.SYSTEM.SOLV>
0

>  <SCORE.SYSTEM.norm>
0

>  <SCORE.heavy>
40

>  <SCORE.norm>
0.178986

>  <RMSD>
5.213

$$$$
1ntb_lig
 OpenBabel11021811403D
libRbt.so/2013.1/901 2013/11/27
 40 42  0  0  0  0  0  0  0  0999 V2000
    7.8230   32.8659   -0.8525 C   0  0  0  0  0  0  0  0  0  0  0  0
    9.0220   32.5305   -0.5692 N   0  0  0  0  0  0  0  0  0  0  0  0
   -0.6681   39.4185    2.0273 C   0  0  0  0  0  0  0  0  0  0  0  0
   -1.8412   39.6746    1.2731 O   0  0  0  0  0  0  0  0  0  0  0  0
    2.1420   34.5835   -1.9490 C   0  0  0  0  0  0  0  0  0  0  0  0
    2.1414   33.9833   -3.0856 N   0  0  0  0  0  0  0  0  0  0  0  0
    2.0815   41.1171    1.6605 C   0  0  0  0  0  0  0  0  0  0  0  0
   -1.6060   39.9956   -2.3786 C   0  0  0  0  0  0  0  0  0  0  0  0
    6.2298   34.4861   -0.2181 C   0  0  2  0  0  0  0  0  0  0  0  0
    7.5735   34.1611   -0.8344 N   0  0  0  0  0  0  0  0  0  0  0  0
    2.2485   37.8193    0.4555 C   0  0  2  0  0  0  0  0  0  0  0  0
   -1.2560   37.7563   -0.4790 C   0  0  1  0  0  0  0  0  0  0  0  0
    0.1537   37.6596   -0.5660 O   0  0  0  0  0  0  0  0  0  0  0  0
    5.2124   34.8592   -1.2907 C   0  0  1  0  0  0  0  0  0  0  0  0
    5.1651   33.6744   -2.1995 O   0  0  0  0  0  0  0  0  0  0  0  0
    0.7426   37.8918    0.6315 C   0  0  2  0  0  0  0  0  0  0  0  0
   -1.8387   37.5877   -1.8612 C   0  0  1  0  0  0  0  0  0  0  0  0
   -1.3646   38.6208   -2.7129 N   0  0  0  0  0  0  0  0  0  0  0  0
    3.8461   35.2257   -0.7148 C   0  0  2  0  0  0  0  0  0  0  0  0
    2.8394   35.5844   -1.6922 N   0  0  0  0  0  0  0  0  0  0  0  0
    0.5212   39.3047    1.1024 C   0  0  1  0  0  0  0  0  0  0  0  0
    0.3538   40.1744   -0.0222 O   0  0  0  0  0  0  0  0  0  0  0  0
   -1.3935   36.2365   -2.3949 C   0  0  2  0  0  0  0  0  0  0  0  0
   -1.9045   36.0313   -3.6939 O   0  0  0  0  0  0  0  0  0  0  0  0
    4.0340   36.3866    0.2270 C   0  0  1  0  0  0  0  0  0  0  0  0
    2.7431   36.5525    0.8768 O   0  0  0  0  0  0  0  0  0  0  0  0
    1.7729   39.6510    1.8205 C   0  0  1  0  0  0  0  0  0  0  0  0
    2.8192   38.8642    1.2466 O   0  0  0  0  0  0  0  0  0  0  0  0
   -1.9365   35.1775   -1.4352 C   0  0  1  0  0  0  0  0  0  0  0  0
   -1.5552   33.8799   -1.8648 O   0  0  0  0  0  0  0  0  0  0  0  0
    5.0300   36.0034    1.3546 C   0  0  2  0  0  0  0  0  0  0  0  0
    5.1815   37.1044    2.2373 O   0  0  0  0  0  0  0  0  0  0  0  0
   -1.3848   35.4481   -0.0351 C   0  0  1  0  0  0  0  0  0  0  0  0
   -1.7683   36.7532    0.3948 O   0  0  0  0  0  0  0  0  0  0  0  0
    6.3961   35.6531    0.7339 C   0  0  1  0  0  0  0  0  0  0  0  0
    7.3275   35.2971    1.7624 O   0  0  0  0  0  0  0  0  0  0  0  0
   -1.9530   34.4087    0.9314 C   0  0  0  0  0  0  0  0  0  0  0  0
   -1.5420   34.7265    2.2514 O   0  0  0  0  0  0  0  0  0  0  0  0
    6.9076   32.0004   -1.1141 N   0  0  0  0  0  0  0  0  0  0  0  0
    1.3721   34.1950   -1.0530 N   0  0  0  0  0  0  0  0  0  0  0  0
  1  2  1  0  0  0  0
  1 39  1  0  0  0  0
  3  4  1  0  0  0  0
  5  6  1  0  0  0  0
  5 40  1  0  0  0  0
  9 10  1  6  0  0  0
  9 14  1  0  0  0  0
  9 35  1  0  0  0  0
 10  1  1  0  0  0  0
 11 16  1  0  0  0  0
 11 28  1  0  0  0  0
 11 26  1  1  0  0  0
 12 17  1  0  0  0  0
 12 34  1  0  0  0  0
 12 13  1  6  0  0  0
 14 15  1  6  0  0  0
 14 19  1  0  0  0  0
 16 13  1  6  0  0  0
 16 21  1  0  0  0  0
 17 18  1  6  0  0  0
 17 23  1  0  0  0  0
 18  8  1  0  0  0  0
 19 20  1  6  0  0  0
 19 25  1  0  0  0  0
 20  5  1  0  0  0  0
 21  3  1  1  0  0  0
 21 22  1  0  0  0  0
 21 27  1  0  0  0  0
 23 24  1  6  0  0  0
 23 29  1  0  0  0  0
 25 26  1  1  0  0  0
 25 31  1  0  0  0  0
 27  7  1  6  0  0  0
 27 28  1  0  0  0  0
 29 30  1  6  0  0  0
 29 33  1  0  0  0  0
 31 32  1  1  0  0  0
 31 35  1  0  0  0  0
 33 34  1  0  0  0  0
 33 37  1  1  0  0  0
 35 36  1  1  0  0  0
 37 38  1  0  0  0  0
M  END
>  <CHROM.1>
-104.72494592,-139.55888494,159.09016650,175.90469531,-178.08925786,-58.52616507
96.02715362,-112.34508954,-89.77482161,-114.57203956,-174.75326765,1.94945629
36.36030806,-0.28508551,0.36038552,0.25796177,-2.57812298

>  <Name>
1ntb_lig

>  <RI>
0

>  <Rbt.Current_Directory>
/home/itssahil/PROJECTS/Mol_Feturizer/New_Systems/rnas/1ntb

>  <Rbt.Executable>
rbdock ($Id: //depot/dev/client3/rdock/2013.1/src/exe/rbdock.cxx#4 $)

>  <Rbt.Library>
libRbt.so (2013.1, Build901 2013/11/27)

>  <Rbt.Parameter_File>
/export/apps/rDock/src/rDock_2013.1_src/data/scripts/dock_solv.prm

>  <Rbt.Receptor>
prm/pocket_docking_3.prm

>  <SCORE>
-2.43165

>  <SCORE.INTER>
5.79469

>  <SCORE.INTER.CONST>
1

>  <SCORE.INTER.POLAR>
-0.219153

>  <SCORE.INTER.ROT>
11

>  <SCORE.INTER.SOLV>
20.2265

>  <SCORE.INTER.VDW>
-13.0819

>  <SCORE.INTER.norm>
0.144867

>  <SCORE.INTRA>
-8.2367

>  <SCORE.INTRA.DIHEDRAL>
-1.21575

>  <SCORE.INTRA.DIHEDRAL.0>
15.4453

>  <SCORE.INTRA.POLAR>
0

>  <SCORE.INTRA.POLAR.0>
0

>  <SCORE.INTRA.REPUL>
-0.814481

>  <SCORE.INTRA.REPUL.0>
0.823958

>  <SCORE.INTRA.SOLV>
2.38633

>  <SCORE.INTRA.SOLV.lig_0>
-99.3069

>  <SCORE.INTRA.VDW>
-4.74958

>  <SCORE.INTRA.VDW.0>
0.946495

>  <SCORE.INTRA.norm>
-0.205917

>  <SCORE.RESTR>
0.0103564

>  <SCORE.RESTR.CAVITY>
0.0103564

>  <SCORE.RESTR.norm>
0.000258911

>  <SCORE.SYSTEM>
0

>  <SCORE.SYSTEM.CONST>
0

>  <SCORE.SYSTEM.DIHEDRAL>
0

>  <SCORE.SYSTEM.SOLV>
0

>  <SCORE.SYSTEM.norm>
0

>  <SCORE.heavy>
40

>  <SCORE.norm>
-0.0607912

>  <RMSD>
5.306

$$$$
1ntb_lig
 OpenBabel11021811403D
libRbt.so/2013.1/901 2013/11/27
 40 42  0  0  0  0  0  0  0  0999 V2000
    8.2342   33.7665   -1.2051 C   0  0  0  0  0  0  0  0  0  0  0  0
    9.4194   34.2405   -1.1745 N   0  0  0  0  0  0  0  0  0  0  0  0
    2.2455   41.6793    0.4960 C   0  0  0  0  0  0  0  0  0  0  0  0
    2.5019   42.9337   -0.1131 O   0  0  0  0  0  0  0  0  0  0  0  0
    2.3559   34.1589   -0.5839 C   0  0  0  0  0  0  0  0  0  0  0  0
    2.2633   33.0284   -1.1883 N   0  0  0  0  0  0  0  0  0  0  0  0
    4.6266   41.3306   -1.6924 C   0  0  0  0  0  0  0  0  0  0  0  0
   -1.2636   40.9016   -2.4387 C   0  0  0  0  0  0  0  0  0  0  0  0
    6.6169   34.2898    0.4307 C   0  0  2  0  0  0  0  0  0  0  0  0
    7.7396   33.3911   -0.0412 N   0  0  0  0  0  0  0  0  0  0  0  0
    3.3609   38.3005   -0.4387 C   0  0  2  0  0  0  0  0  0  0  0  0
    0.0005   39.5451    0.1164 C   0  0  1  0  0  0  0  0  0  0  0  0
    1.0786   38.7983   -0.4165 O   0  0  0  0  0  0  0  0  0  0  0  0
    5.4205   34.2103   -0.5112 C   0  0  1  0  0  0  0  0  0  0  0  0
    5.0427   32.7650   -0.5260 O   0  0  0  0  0  0  0  0  0  0  0  0
    2.2659   39.2087    0.0904 C   0  0  2  0  0  0  0  0  0  0  0  0
   -1.2540   39.1959   -0.6470 C   0  0  1  0  0  0  0  0  0  0  0  0
   -1.0962   39.5402   -2.0159 N   0  0  0  0  0  0  0  0  0  0  0  0
    4.2706   35.1245   -0.0930 C   0  0  2  0  0  0  0  0  0  0  0  0
    3.1054   35.0845   -0.9521 N   0  0  0  0  0  0  0  0  0  0  0  0
    2.6627   40.5634   -0.4332 C   0  0  1  0  0  0  0  0  0  0  0  0
    2.0989   40.7698   -1.7327 O   0  0  0  0  0  0  0  0  0  0  0  0
   -1.4798   37.6990   -0.5161 C   0  0  2  0  0  0  0  0  0  0  0  0
   -2.6393   37.3157   -1.2225 O   0  0  0  0  0  0  0  0  0  0  0  0
    4.7898   36.5385   -0.0561 C   0  0  1  0  0  0  0  0  0  0  0  0
    3.7097   37.3171    0.5299 O   0  0  0  0  0  0  0  0  0  0  0  0
    4.1419   40.4972   -0.5344 C   0  0  1  0  0  0  0  0  0  0  0  0
    4.4891   39.1256   -0.7383 O   0  0  0  0  0  0  0  0  0  0  0  0
   -1.6413   37.4015    0.9748 C   0  0  1  0  0  0  0  0  0  0  0  0
   -1.8512   36.0133    1.1813 O   0  0  0  0  0  0  0  0  0  0  0  0
    5.9772   36.6453    0.9384 C   0  0  2  0  0  0  0  0  0  0  0  0
    6.4413   37.9861    0.9685 O   0  0  0  0  0  0  0  0  0  0  0  0
   -0.3797   37.8549    1.7101 C   0  0  1  0  0  0  0  0  0  0  0  0
   -0.1699   39.2504    1.5007 O   0  0  0  0  0  0  0  0  0  0  0  0
    7.1181   35.7190    0.4749 C   0  0  1  0  0  0  0  0  0  0  0  0
    8.2227   35.8062    1.3829 O   0  0  0  0  0  0  0  0  0  0  0  0
   -0.5539   37.5872    3.2053 C   0  0  0  0  0  0  0  0  0  0  0  0
    0.6752   37.8352    3.8689 O   0  0  0  0  0  0  0  0  0  0  0  0
    7.5705   33.6372   -2.2999 N   0  0  0  0  0  0  0  0  0  0  0  0
    1.6273   34.3878    0.3977 N   0  0  0  0  0  0  0  0  0  0  0  0
  1  2  1  0  0  0  0
  1 39  1  0  0  0  0
  3  4  1  0  0  0  0
  5  6  1  0  0  0  0
  5 40  1  0  0  0  0
  9 10  1  6  0  0  0
  9 14  1  0  0  0  0
  9 35  1  0  0  0  0
 10  1  1  0  0  0  0
 11 16  1  0  0  0  0
 11 28  1  0  0  0  0
 11 26  1  1  0  0  0
 12 17  1  0  0  0  0
 12 34  1  0  0  0  0
 12 13  1  6  0  0  0
 14 15  1  1  0  0  0
 14 19  1  0  0  0  0
 16 13  1  6  0  0  0
 16 21  1  0  0  0  0
 17 18  1  6  0  0  0
 17 23  1  0  0  0  0
 18  8  1  0  0  0  0
 19 20  1  6  0  0  0
 19 25  1  0  0  0  0
 20  5  1  0  0  0  0
 21  3  1  1  0  0  0
 21 22  1  0  0  0  0
 21 27  1  0  0  0  0
 23 24  1  6  0  0  0
 23 29  1  0  0  0  0
 25 26  1  1  0  0  0
 25 31  1  0  0  0  0
 27  7  1  6  0  0  0
 27 28  1  0  0  0  0
 29 30  1  6  0  0  0
 29 33  1  0  0  0  0
 31 32  1  6  0  0  0
 31 35  1  0  0  0  0
 33 34  1  0  0  0  0
 33 37  1  1  0  0  0
 35 36  1  1  0  0  0
 37 38  1  0  0  0  0
M  END
>  <CHROM.1>
64.29643841,110.71554710,-178.02796279,170.92976183,175.69324771,-79.86127317
86.55718343,-103.10867006,-173.25190376,-120.83232884,172.16918501,2.91510672
37.32951539,-0.07106335,-0.57473735,0.09704475,-0.08160456

>  <Name>
1ntb_lig

>  <RI>
0

>  <Rbt.Current_Directory>
/home/itssahil/PROJECTS/Mol_Feturizer/New_Systems/rnas/1ntb

>  <Rbt.Executable>
rbdock ($Id: //depot/dev/client3/rdock/2013.1/src/exe/rbdock.cxx#4 $)

>  <Rbt.Library>
libRbt.so (2013.1, Build901 2013/11/27)

>  <Rbt.Parameter_File>
/export/apps/rDock/src/rDock_2013.1_src/data/scripts/dock_solv.prm

>  <Rbt.Receptor>
prm/pocket_docking_4.prm

>  <SCORE>
-9.83853

>  <SCORE.INTER>
1.05024

>  <SCORE.INTER.CONST>
1

>  <SCORE.INTER.POLAR>
-0.451782

>  <SCORE.INTER.ROT>
11

>  <SCORE.INTER.SOLV>
17.8122

>  <SCORE.INTER.VDW>
-14.6646

>  <SCORE.INTER.norm>
0.0262561

>  <SCORE.INTRA>
-10.8888

>  <SCORE.INTRA.DIHEDRAL>
-5.41719

>  <SCORE.INTRA.DIHEDRAL.0>
15.4453

>  <SCORE.INTRA.POLAR>
0

>  <SCORE.INTRA.POLAR.0>
0

>  <SCORE.INTRA.REPUL>
-0.819619

>  <SCORE.INTRA.REPUL.0>
0.823958

>  <SCORE.INTRA.SOLV>
-0.163181

>  <SCORE.INTRA.SOLV.lig_0>
-99.3069

>  <SCORE.INTRA.VDW>
-4.0005

>  <SCORE.INTRA.VDW.0>
0.946495

>  <SCORE.INTRA.norm>
-0.272219

>  <SCORE.RESTR>
0

>  <SCORE.RESTR.CAVITY>
0

>  <SCORE.RESTR.norm>
0

>  <SCORE.SYSTEM>
0

>  <SCORE.SYSTEM.CONST>
0

>  <SCORE.SYSTEM.DIHEDRAL>
0

>  <SCORE.SYSTEM.SOLV>
0

>  <SCORE.SYSTEM.norm>
0

>  <SCORE.heavy>
40

>  <SCORE.norm>
-0.245963

>  <RMSD>
5.308

$$$$
1ntb_lig
 OpenBabel11021811403D
libRbt.so/2013.1/901 2013/11/27
 40 42  0  0  0  0  0  0  0  0999 V2000
   11.5709   31.4665   -3.0898 C   0  0  0  0  0  0  0  0  0  0  0  0
   12.5705   31.0864   -2.3922 N   0  0  0  0  0  0  0  0  0  0  0  0
    2.5620   35.8547    1.3296 C   0  0  0  0  0  0  0  0  0  0  0  0
    2.1577   37.0346    2.0039 O   0  0  0  0  0  0  0  0  0  0  0  0
    5.7288   32.5514   -4.4238 C   0  0  0  0  0  0  0  0  0  0  0  0
    6.3310   31.6383   -5.0988 N   0  0  0  0  0  0  0  0  0  0  0  0
    5.2722   37.6504    1.4312 C   0  0  0  0  0  0  0  0  0  0  0  0
    1.1174   38.5729   -2.4969 C   0  0  0  0  0  0  0  0  0  0  0  0
    9.6754   32.6411   -2.3197 C   0  0  2  0  0  0  0  0  0  0  0  0
   11.1062   32.6696   -2.8125 N   0  0  0  0  0  0  0  0  0  0  0  0
    5.2752   35.1691   -1.0585 C   0  0  2  0  0  0  0  0  0  0  0  0
    1.7101   35.5689   -1.5348 C   0  0  1  0  0  0  0  0  0  0  0  0
    3.0806   35.3752   -1.8320 O   0  0  0  0  0  0  0  0  0  0  0  0
    8.7131   33.1049   -3.4077 C   0  0  1  0  0  0  0  0  0  0  0  0
    8.9539   32.1742   -4.5512 O   0  0  0  0  0  0  0  0  0  0  0  0
    3.7981   35.1059   -0.7151 C   0  0  2  0  0  0  0  0  0  0  0  0
    1.0214   36.1151   -2.7619 C   0  0  1  0  0  0  0  0  0  0  0  0
    1.5904   37.3674   -3.1161 N   0  0  0  0  0  0  0  0  0  0  0  0
    7.2568   33.1226   -2.9477 C   0  0  2  0  0  0  0  0  0  0  0  0
    6.2986   33.5517   -3.9455 N   0  0  0  0  0  0  0  0  0  0  0  0
    3.6428   36.1825    0.3261 C   0  0  1  0  0  0  0  0  0  0  0  0
    3.3631   37.4364   -0.3051 O   0  0  0  0  0  0  0  0  0  0  0  0
    1.2227   35.1207   -3.8929 C   0  0  2  0  0  0  0  0  0  0  0  0
    0.6046   35.5889   -5.0716 O   0  0  0  0  0  0  0  0  0  0  0  0
    7.1550   34.0430   -1.7592 C   0  0  1  0  0  0  0  0  0  0  0  0
    5.8001   33.8614   -1.2619 O   0  0  0  0  0  0  0  0  0  0  0  0
    4.9684   36.2418    0.9908 C   0  0  1  0  0  0  0  0  0  0  0  0
    5.9385   35.8067    0.0355 O   0  0  0  0  0  0  0  0  0  0  0  0
    0.5887   33.8032   -3.4459 C   0  0  1  0  0  0  0  0  0  0  0  0
    0.7417   32.8151   -4.4528 O   0  0  0  0  0  0  0  0  0  0  0  0
    8.0929   33.5534   -0.6230 C   0  0  2  0  0  0  0  0  0  0  0  0
    7.9711   34.4249    0.4904 O   0  0  0  0  0  0  0  0  0  0  0  0
    1.2633   33.3421   -2.1536 C   0  0  1  0  0  0  0  0  0  0  0  0
    1.1092   34.3370   -1.1428 O   0  0  0  0  0  0  0  0  0  0  0  0
    9.5504   33.5619   -1.1229 C   0  0  1  0  0  0  0  0  0  0  0  0
   10.4294   33.1123   -0.0849 O   0  0  0  0  0  0  0  0  0  0  0  0
    0.6078   32.0414   -1.6887 C   0  0  0  0  0  0  0  0  0  0  0  0
   -0.7523   32.2924   -1.3732 O   0  0  0  0  0  0  0  0  0  0  0  0
   11.0319   30.7194   -3.9880 N   0  0  0  0  0  0  0  0  0  0  0  0
    4.4967   32.4839   -4.2693 N   0  0  0  0  0  0  0  0  0  0  0  0
  1  2  1  0  0  0  0
  1 39  1  0  0  0  0
  3  4  1  0  0  0  0
  5  6  1  0  0  0  0
  5 40  1  0  0  0  0
  9 10  1  6  0  0  0
  9 14  1  0  0  0  0
  9 35  1  0  0  0  0
 10  1  1  0  0  0  0
 11 16  1  0  0  0  0
 11 28  1  0  0  0  0
 11 26  1  1  0  0  0
 12 17  1  0  0  0  0
 12 34  1  0  0  0  0
 12 13  1  6  0  0  0
 14 15  1  6  0  0  0
 14 19  1  0  0  0  0
 16 13  1  6  0  0  0
 16 21  1  0  0  0  0
 17 18  1  6  0  0  0
 17 23  1  0  0  0  0
 18  8  1  0  0  0  0
 19 20  1  6  0  0  0
 19 25  1  0  0  0  0
 20  5  1  0  0  0  0
 21  3  1  1  0  0  0
 21 22  1  0  0  0  0
 21 27  1  0  0  0  0
 23 24  1  6  0  0  0
 23 29  1  0  0  0  0
 25 26  1  1  0  0  0
 25 31  1  0  0  0  0
 27  7  1  6  0  0  0
 27 28  1  0  0  0  0
 29 30  1  6  0  0  0
 29 33  1  0  0  0  0
 31 32  1  1  0  0  0
 31 35  1  0  0  0  0
 33 34  1  0  0  0  0
 33 37  1  1  0  0  0
 35 36  1  1  0  0  0
 37 38  1  0  0  0  0
M  END
>  <CHROM.1>
-104.24278050,-117.96666055,172.41248233,169.47022063,-169.46153951,-85.33713328
101.52320222,-64.13463992,-161.31758548,-132.51613528,-63.77513157,5.03673058
34.23989296,-1.94001560,0.26784953,0.21719261,-2.23926322

>  <Name>
1ntb_lig

>  <RI>
0

>  <Rbt.Current_Directory>
/home/itssahil/PROJECTS/Mol_Feturizer/New_Systems/rnas/1ntb

>  <Rbt.Executable>
rbdock ($Id: //depot/dev/client3/rdock/2013.1/src/exe/rbdock.cxx#4 $)

>  <Rbt.Library>
libRbt.so (2013.1, Build901 2013/11/27)

>  <Rbt.Parameter_File>
/export/apps/rDock/src/rDock_2013.1_src/data/scripts/dock_solv.prm

>  <Rbt.Receptor>
prm/pocket_docking_6.prm

>  <SCORE>
-26.045

>  <SCORE.INTER>
-16.3594

>  <SCORE.INTER.CONST>
1

>  <SCORE.INTER.POLAR>
-2.76129

>  <SCORE.INTER.ROT>
11

>  <SCORE.INTER.SOLV>
39.2238

>  <SCORE.INTER.VDW>
-25.7099

>  <SCORE.INTER.norm>
-0.408984

>  <SCORE.INTRA>
-9.75863

>  <SCORE.INTRA.DIHEDRAL>
-2.51496

>  <SCORE.INTRA.DIHEDRAL.0>
15.4453

>  <SCORE.INTRA.POLAR>
0

>  <SCORE.INTRA.POLAR.0>
0

>  <SCORE.INTRA.REPUL>
-0.823958

>  <SCORE.INTRA.REPUL.0>
0.823958

>  <SCORE.INTRA.SOLV>
-0.728985

>  <SCORE.INTRA.SOLV.lig_0>
-99.3069

>  <SCORE.INTRA.VDW>
-4.01687

>  <SCORE.INTRA.VDW.0>
0.946495

>  <SCORE.INTRA.norm>
-0.243966

>  <SCORE.RESTR>
0.0730232

>  <SCORE.RESTR.CAVITY>
0.0730232

>  <SCORE.RESTR.norm>
0.00182558

>  <SCORE.SYSTEM>
0

>  <SCORE.SYSTEM.CONST>
0

>  <SCORE.SYSTEM.DIHEDRAL>
0

>  <SCORE.SYSTEM.SOLV>
0

>  <SCORE.SYSTEM.norm>
0

>  <SCORE.heavy>
40

>  <SCORE.norm>
-0.651124

>  <RMSD>
5.312

$$$$
1ntb_lig
 OpenBabel11021811403D
libRbt.so/2013.1/901 2013/11/27
 40 42  0  0  0  0  0  0  0  0999 V2000
    8.5117   33.0945   -1.2170 C   0  0  0  0  0  0  0  0  0  0  0  0
    8.3029   32.6155   -2.3820 N   0  0  0  0  0  0  0  0  0  0  0  0
    0.2698   39.3859    2.4082 C   0  0  0  0  0  0  0  0  0  0  0  0
   -0.1584   40.6720    1.9923 O   0  0  0  0  0  0  0  0  0  0  0  0
    2.8253   33.9336   -1.3997 C   0  0  0  0  0  0  0  0  0  0  0  0
    2.4790   33.0255   -0.5586 N   0  0  0  0  0  0  0  0  0  0  0  0
    1.8878   40.3058   -0.2594 C   0  0  0  0  0  0  0  0  0  0  0  0
   -1.4446   37.4572    4.9867 C   0  0  0  0  0  0  0  0  0  0  0  0
    6.9577   34.5601   -0.2156 C   0  0  2  0  0  0  0  0  0  0  0  0
    8.1997   34.3664   -1.0587 N   0  0  0  0  0  0  0  0  0  0  0  0
    2.4734   36.9783    0.7105 C   0  0  2  0  0  0  0  0  0  0  0  0
    0.1007   35.4162    2.3457 C   0  0  1  0  0  0  0  0  0  0  0  0
    0.3027   36.3437    1.2954 O   0  0  0  0  0  0  0  0  0  0  0  0
    5.7183   34.7011   -1.0926 C   0  0  1  0  0  0  0  0  0  0  0  0
    5.6816   33.4476   -1.9044 O   0  0  0  0  0  0  0  0  0  0  0  0
    1.2727   37.2380    1.6020 C   0  0  2  0  0  0  0  0  0  0  0  0
   -1.1083   35.8431    3.1424 C   0  0  1  0  0  0  0  0  0  0  0  0
   -0.8837   37.1267    3.7074 N   0  0  0  0  0  0  0  0  0  0  0  0
    4.4409   34.9294   -0.2871 C   0  0  2  0  0  0  0  0  0  0  0  0
    3.2314   35.0658   -1.0721 N   0  0  0  0  0  0  0  0  0  0  0  0
    0.8757   38.6445    1.2395 C   0  0  1  0  0  0  0  0  0  0  0  0
   -0.0417   38.6258    0.1408 O   0  0  0  0  0  0  0  0  0  0  0  0
   -2.2961   35.8983    2.1965 C   0  0  2  0  0  0  0  0  0  0  0  0
   -3.4556   36.3035    2.8908 O   0  0  0  0  0  0  0  0  0  0  0  0
    4.6240   36.1810    0.5314 C   0  0  1  0  0  0  0  0  0  0  0  0
    3.4628   36.2275    1.4064 O   0  0  0  0  0  0  0  0  0  0  0  0
    2.1463   39.2861    0.8194 C   0  0  1  0  0  0  0  0  0  0  0  0
    2.9966   38.2505    0.3217 O   0  0  0  0  0  0  0  0  0  0  0  0
   -2.4795   34.4906    1.6289 C   0  0  1  0  0  0  0  0  0  0  0  0
   -3.5735   34.4612    0.7257 O   0  0  0  0  0  0  0  0  0  0  0  0
    5.8540   36.0318    1.4669 C   0  0  2  0  0  0  0  0  0  0  0  0
    5.9997   37.2143    2.2380 O   0  0  0  0  0  0  0  0  0  0  0  0
   -1.1958   34.0755    0.9094 C   0  0  1  0  0  0  0  0  0  0  0  0
   -0.0970   34.1064    1.8187 O   0  0  0  0  0  0  0  0  0  0  0  0
    7.1207   35.8157    0.6166 C   0  0  1  0  0  0  0  0  0  0  0  0
    8.2659   35.6763    1.4660 O   0  0  0  0  0  0  0  0  0  0  0  0
   -1.3671   32.6554    0.3694 C   0  0  0  0  0  0  0  0  0  0  0  0
   -1.5785   31.7668    1.4549 O   0  0  0  0  0  0  0  0  0  0  0  0
    9.0170   32.3942   -0.2631 N   0  0  0  0  0  0  0  0  0  0  0  0
    2.8138   33.6753   -2.6162 N   0  0  0  0  0  0  0  0  0  0  0  0
  1  2  1  0  0  0  0
  1 39  1  0  0  0  0
  3  4  1  0  0  0  0
  5  6  1  0  0  0  0
  5 40  1  0  0  0  0
  9 10  1  6  0  0  0
  9 14  1  0  0  0  0
  9 35  1  0  0  0  0
 10  1  1  0  0  0  0
 11 16  1  0  0  0  0
 11 28  1  0  0  0  0
 11 26  1  1  0  0  0
 12 17  1  0  0  0  0
 12 34  1  0  0  0  0
 12 13  1  6  0  0  0
 14 15  1  1  0  0  0
 14 19  1  0  0  0  0
 16 13  1  6  0  0  0
 16 21  1  0  0  0  0
 17 18  1  6  0  0  0
 17 23  1  0  0  0  0
 18  8  1  0  0  0  0
 19 20  1  6  0  0  0
 19 25  1  0  0  0  0
 20  5  1  0  0  0  0
 21  3  1  1  0  0  0
 21 22  1  0  0  0  0
 21 27  1  0  0  0  0
 23 24  1  1  0  0  0
 23 29  1  0  0  0  0
 25 26  1  1  0  0  0
 25 31  1  0  0  0  0
 27  7  1  6  0  0  0
 27 28  1  0  0  0  0
 29 30  1  6  0  0  0
 29 33  1  0  0  0  0
 31 32  1  6  0  0  0
 31 35  1  0  0  0  0
 33 34  1  0  0  0  0
 33 37  1  1  0  0  0
 35 36  1  1  0  0  0
 37 38  1  0  0  0  0
M  END
>  <CHROM.1>
-94.96588145,107.89674312,-173.02277945,99.78806884,111.21381719,-146.45610981
80.41102251,61.04496104,-176.49393719,-91.04249278,-61.84616783,2.35106107
35.72946770,0.77416542,0.31355984,-0.21884190,-2.82712139

>  <Name>
1ntb_lig

>  <RI>
0

>  <Rbt.Current_Directory>
/home/itssahil/PROJECTS/Mol_Feturizer/New_Systems/rnas/1ntb

>  <Rbt.Executable>
rbdock ($Id: //depot/dev/client3/rdock/2013.1/src/exe/rbdock.cxx#4 $)

>  <Rbt.Library>
libRbt.so (2013.1, Build901 2013/11/27)

>  <Rbt.Parameter_File>
/export/apps/rDock/src/rDock_2013.1_src/data/scripts/dock_solv.prm

>  <Rbt.Receptor>
prm/pocket_docking_4.prm

>  <SCORE>
-2.68328

>  <SCORE.INTER>
3.97276

>  <SCORE.INTER.CONST>
1

>  <SCORE.INTER.POLAR>
0

>  <SCORE.INTER.ROT>
11

>  <SCORE.INTER.SOLV>
22.6039

>  <SCORE.INTER.VDW>
-15.8195

>  <SCORE.INTER.norm>
0.0993189

>  <SCORE.INTRA>
-6.65799

>  <SCORE.INTRA.DIHEDRAL>
3.7984

>  <SCORE.INTRA.DIHEDRAL.0>
15.4453

>  <SCORE.INTRA.POLAR>
0

>  <SCORE.INTRA.POLAR.0>
0

>  <SCORE.INTRA.REPUL>
-0.823958

>  <SCORE.INTRA.REPUL.0>
0.823958

>  <SCORE.INTRA.SOLV>
0.229836

>  <SCORE.INTRA.SOLV.lig_0>
-99.3069

>  <SCORE.INTRA.VDW>
-4.55232

>  <SCORE.INTRA.VDW.0>
0.946495

>  <SCORE.INTRA.norm>
-0.16645

>  <SCORE.RESTR>
0.00196101

>  <SCORE.RESTR.CAVITY>
0.00196101

>  <SCORE.RESTR.norm>
4.90252e-05

>  <SCORE.SYSTEM>
0

>  <SCORE.SYSTEM.CONST>
0

>  <SCORE.SYSTEM.DIHEDRAL>
0

>  <SCORE.SYSTEM.SOLV>
0

>  <SCORE.SYSTEM.norm>
0

>  <SCORE.heavy>
40

>  <SCORE.norm>
-0.0670819

>  <RMSD>
5.316

$$$$
1ntb_lig
 OpenBabel11021811403D
libRbt.so/2013.1/901 2013/11/27
 40 42  0  0  0  0  0  0  0  0999 V2000
   11.9190   31.7479   -2.1647 C   0  0  0  0  0  0  0  0  0  0  0  0
   11.3491   30.7236   -1.6585 N   0  0  0  0  0  0  0  0  0  0  0  0
    2.7744   35.9552    1.4572 C   0  0  0  0  0  0  0  0  0  0  0  0
    1.5763   36.6308    1.1131 O   0  0  0  0  0  0  0  0  0  0  0  0
    5.7516   32.5200   -4.3915 C   0  0  0  0  0  0  0  0  0  0  0  0
    6.3471   31.5985   -5.0611 N   0  0  0  0  0  0  0  0  0  0  0  0
    5.5506   37.6483    1.5369 C   0  0  0  0  0  0  0  0  0  0  0  0
    0.6707   38.4493   -3.2640 C   0  0  0  0  0  0  0  0  0  0  0  0
    9.7134   32.5675   -2.3358 C   0  0  2  0  0  0  0  0  0  0  0  0
   11.1354   32.5543   -2.8543 N   0  0  0  0  0  0  0  0  0  0  0  0
    5.4133   35.2163   -0.9974 C   0  0  2  0  0  0  0  0  0  0  0  0
    1.8362   35.6348   -1.4151 C   0  0  1  0  0  0  0  0  0  0  0  0
    3.2131   35.5172   -1.7224 O   0  0  0  0  0  0  0  0  0  0  0  0
    8.7419   33.0304   -3.4160 C   0  0  1  0  0  0  0  0  0  0  0  0
    8.9417   32.0716   -4.5441 O   0  0  0  0  0  0  0  0  0  0  0  0
    3.9418   35.2007   -0.6253 C   0  0  2  0  0  0  0  0  0  0  0  0
    1.1016   36.0914   -2.6523 C   0  0  1  0  0  0  0  0  0  0  0  0
    1.5863   37.3633   -3.0581 N   0  0  0  0  0  0  0  0  0  0  0  0
    7.2949   33.0896   -2.9309 C   0  0  2  0  0  0  0  0  0  0  0  0
    6.3285   33.5195   -3.9202 N   0  0  0  0  0  0  0  0  0  0  0  0
    3.8468   36.2622    0.4382 C   0  0  1  0  0  0  0  0  0  0  0  0
    3.6013   37.5374   -0.1642 O   0  0  0  0  0  0  0  0  0  0  0  0
    1.3541   35.0710   -3.7494 C   0  0  2  0  0  0  0  0  0  0  0  0
    0.6954   35.4560   -4.9363 O   0  0  0  0  0  0  0  0  0  0  0  0
    7.2348   34.0359   -1.7600 C   0  0  1  0  0  0  0  0  0  0  0  0
    5.8854   33.8944   -1.2351 O   0  0  0  0  0  0  0  0  0  0  0  0
    5.1864   36.2604    1.0770 C   0  0  1  0  0  0  0  0  0  0  0  0
    6.1210   35.8084    0.0944 O   0  0  0  0  0  0  0  0  0  0  0  0
    0.8096   33.7334   -3.2477 C   0  0  1  0  0  0  0  0  0  0  0  0
    1.0148   32.7208   -4.2205 O   0  0  0  0  0  0  0  0  0  0  0  0
    8.1821   33.5487   -0.6307 C   0  0  2  0  0  0  0  0  0  0  0  0
    8.0995   34.4450    0.4666 O   0  0  0  0  0  0  0  0  0  0  0  0
    1.5254   33.3631   -1.9483 C   0  0  1  0  0  0  0  0  0  0  0  0
    1.3188   34.3825   -0.9719 O   0  0  0  0  0  0  0  0  0  0  0  0
    9.6302   33.5148   -1.1562 C   0  0  1  0  0  0  0  0  0  0  0  0
   10.5179   33.0670   -0.1249 O   0  0  0  0  0  0  0  0  0  0  0  0
    0.9586   32.0415   -1.4291 C   0  0  0  0  0  0  0  0  0  0  0  0
   -0.4355   32.1867   -1.2103 O   0  0  0  0  0  0  0  0  0  0  0  0
   13.1797   31.9707   -2.0355 N   0  0  0  0  0  0  0  0  0  0  0  0
    4.5192   32.4615   -4.2353 N   0  0  0  0  0  0  0  0  0  0  0  0
  1  2  1  0  0  0  0
  1 39  1  0  0  0  0
  3  4  1  0  0  0  0
  5  6  1  0  0  0  0
  5 40  1  0  0  0  0
  9 10  1  6  0  0  0
  9 14  1  0  0  0  0
  9 35  1  0  0  0  0
 10  1  1  0  0  0  0
 11 16  1  0  0  0  0
 11 28  1  0  0  0  0
 11 26  1  1  0  0  0
 12 17  1  0  0  0  0
 12 34  1  0  0  0  0
 12 13  1  6  0  0  0
 14 15  1  6  0  0  0
 14 19  1  0  0  0  0
 16 13  1  6  0  0  0
 16 21  1  0  0  0  0
 17 18  1  6  0  0  0
 17 23  1  0  0  0  0
 18  8  1  0  0  0  0
 19 20  1  6  0  0  0
 19 25  1  0  0  0  0
 20  5  1  0  0  0  0
 21  3  1  1  0  0  0
 21 22  1  0  0  0  0
 21 27  1  0  0  0  0
 23 24  1  6  0  0  0
 23 29  1  0  0  0  0
 25 26  1  1  0  0  0
 25 31  1  0  0  0  0
 27  7  1  6  0  0  0
 27 28  1  0  0  0  0
 29 30  1  6  0  0  0
 29 33  1  0  0  0  0
 31 32  1  1  0  0  0
 31 35  1  0  0  0  0
 33 34  1  0  0  0  0
 33 37  1  1  0  0  0
 35 36  1  1  0  0  0
 37 38  1  0  0  0  0
M  END
>  <CHROM.1>
-157.58182449,30.87529418,172.25478754,175.67007230,-174.85887408,-126.74023177
99.90071596,-63.52863926,-95.90327546,-134.86387068,-58.99650024,5.15488384
34.24473872,-1.83006573,0.21126372,0.23139808,-2.25415326

>  <Name>
1ntb_lig

>  <RI>
0

>  <Rbt.Current_Directory>
/home/itssahil/PROJECTS/Mol_Feturizer/New_Systems/rnas/1ntb

>  <Rbt.Executable>
rbdock ($Id: //depot/dev/client3/rdock/2013.1/src/exe/rbdock.cxx#4 $)

>  <Rbt.Library>
libRbt.so (2013.1, Build901 2013/11/27)

>  <Rbt.Parameter_File>
/export/apps/rDock/src/rDock_2013.1_src/data/scripts/dock_solv.prm

>  <Rbt.Receptor>
prm/pocket_docking_5.prm

>  <SCORE>
-21.7485

>  <SCORE.INTER>
-14.9219

>  <SCORE.INTER.CONST>
1

>  <SCORE.INTER.POLAR>
-2.17333

>  <SCORE.INTER.ROT>
11

>  <SCORE.INTER.SOLV>
37.4938

>  <SCORE.INTER.VDW>
-26.1348

>  <SCORE.INTER.norm>
-0.373047

>  <SCORE.INTRA>
-6.82658

>  <SCORE.INTRA.DIHEDRAL>
-1.82528

>  <SCORE.INTRA.DIHEDRAL.0>
15.4453

>  <SCORE.INTRA.POLAR>
0

>  <SCORE.INTRA.POLAR.0>
0

>  <SCORE.INTRA.REPUL>
-0.823958

>  <SCORE.INTRA.REPUL.0>
0.823958

>  <SCORE.INTRA.SOLV>
0.600006

>  <SCORE.INTRA.SOLV.lig_0>
-99.3069

>  <SCORE.INTRA.VDW>
-2.09415

>  <SCORE.INTRA.VDW.0>
0.946495

>  <SCORE.INTRA.norm>
-0.170665

>  <SCORE.RESTR>
0

>  <SCORE.RESTR.CAVITY>
0

>  <SCORE.RESTR.norm>
0

>  <SCORE.SYSTEM>
0

>  <SCORE.SYSTEM.CONST>
0

>  <SCORE.SYSTEM.DIHEDRAL>
0

>  <SCORE.SYSTEM.SOLV>
0

>  <SCORE.SYSTEM.norm>
0

>  <SCORE.heavy>
40

>  <SCORE.norm>
-0.543712

>  <RMSD>
5.317

$$$$
1ntb_lig
 OpenBabel11021811403D
libRbt.so/2013.1/901 2013/11/27
 40 42  0  0  0  0  0  0  0  0999 V2000
   11.5412   31.5206   -3.0370 C   0  0  0  0  0  0  0  0  0  0  0  0
   10.9439   30.7652   -3.8753 N   0  0  0  0  0  0  0  0  0  0  0  0
    2.8935   36.4889    1.6227 C   0  0  0  0  0  0  0  0  0  0  0  0
    2.6687   35.0991    1.7903 O   0  0  0  0  0  0  0  0  0  0  0  0
    5.2656   32.8534   -3.5084 C   0  0  0  0  0  0  0  0  0  0  0  0
    4.2366   32.9809   -2.7488 N   0  0  0  0  0  0  0  0  0  0  0  0
    5.6480   38.2162    1.5257 C   0  0  0  0  0  0  0  0  0  0  0  0
    1.3567   38.7081   -2.4533 C   0  0  0  0  0  0  0  0  0  0  0  0
    9.7105   32.8054   -2.2864 C   0  0  2  0  0  0  0  0  0  0  0  0
   11.0732   32.7504   -2.9427 N   0  0  0  0  0  0  0  0  0  0  0  0
    5.5274   35.5582   -0.7713 C   0  0  2  0  0  0  0  0  0  0  0  0
    1.9485   35.9357   -1.1968 C   0  0  1  0  0  0  0  0  0  0  0  0
    3.3193   35.7634   -1.5057 O   0  0  0  0  0  0  0  0  0  0  0  0
    8.6367   33.2126   -3.2895 C   0  0  1  0  0  0  0  0  0  0  0  0
    8.7201   32.1880   -4.3736 O   0  0  0  0  0  0  0  0  0  0  0  0
    4.0584   35.5590   -0.3891 C   0  0  2  0  0  0  0  0  0  0  0  0
    1.1998   36.2394   -2.4719 C   0  0  1  0  0  0  0  0  0  0  0  0
    1.6910   37.4432   -3.0436 N   0  0  0  0  0  0  0  0  0  0  0  0
    7.2458   33.3118   -2.6666 C   0  0  2  0  0  0  0  0  0  0  0  0
    6.1860   33.6913   -3.5779 N   0  0  0  0  0  0  0  0  0  0  0  0
    3.9560   36.7133    0.5721 C   0  0  1  0  0  0  0  0  0  0  0  0
    3.6905   37.9240   -0.1441 O   0  0  0  0  0  0  0  0  0  0  0  0
    1.4250   35.0843   -3.4330 C   0  0  2  0  0  0  0  0  0  0  0  0
    0.7522   35.3225   -4.6500 O   0  0  0  0  0  0  0  0  0  0  0  0
    7.3054   34.3253   -1.5532 C   0  0  1  0  0  0  0  0  0  0  0  0
    6.0151   34.2258   -0.8888 O   0  0  0  0  0  0  0  0  0  0  0  0
    5.2991   36.7872    1.1990 C   0  0  1  0  0  0  0  0  0  0  0  0
    6.2337   36.2575    0.2560 O   0  0  0  0  0  0  0  0  0  0  0  0
    0.8749   33.8283   -2.7569 C   0  0  1  0  0  0  0  0  0  0  0  0
    1.0549   32.6974   -3.5950 O   0  0  0  0  0  0  0  0  0  0  0  0
    8.3600   33.8970   -0.4975 C   0  0  2  0  0  0  0  0  0  0  0  0
    8.3899   34.8564    0.5478 O   0  0  0  0  0  0  0  0  0  0  0  0
    1.6068   33.6184   -1.4309 C   0  0  1  0  0  0  0  0  0  0  0  0
    1.4255   34.7565   -0.5900 O   0  0  0  0  0  0  0  0  0  0  0  0
    9.7481   33.8206   -1.1622 C   0  0  1  0  0  0  0  0  0  0  0  0
   10.7336   33.4264   -0.2001 O   0  0  0  0  0  0  0  0  0  0  0  0
    1.0347   32.3808   -0.7392 C   0  0  0  0  0  0  0  0  0  0  0  0
    1.0726   31.2850   -1.6393 O   0  0  0  0  0  0  0  0  0  0  0  0
   12.5502   31.1218   -2.3452 N   0  0  0  0  0  0  0  0  0  0  0  0
    5.4010   31.8183   -4.1843 N   0  0  0  0  0  0  0  0  0  0  0  0
  1  2  1  0  0  0  0
  1 39  1  0  0  0  0
  3  4  1  0  0  0  0
  5  6  1  0  0  0  0
  5 40  1  0  0  0  0
  9 10  1  6  0  0  0
  9 14  1  0  0  0  0
  9 35  1  0  0  0  0
 10  1  1  0  0  0  0
 11 16  1  0  0  0  0
 11 28  1  0  0  0  0
 11 26  1  1  0  0  0
 12 17  1  0  0  0  0
 12 34  1  0  0  0  0
 12 13  1  6  0  0  0
 14 15  1  6  0  0  0
 14 19  1  0  0  0  0
 16 13  1  6  0  0  0
 16 21  1  0  0  0  0
 17 18  1  6  0  0  0
 17 23  1  0  0  0  0
 18  8  1  0  0  0  0
 19 20  1  6  0  0  0
 19 25  1  0  0  0  0
 20  5  1  0  0  0  0
 21  3  1  1  0  0  0
 21 22  1  0  0  0  0
 21 27  1  0  0  0  0
 23 24  1  6  0  0  0
 23 29  1  0  0  0  0
 25 26  1  1  0  0  0
 25 31  1  0  0  0  0
 27  7  1  6  0  0  0
 27 28  1  0  0  0  0
 29 30  1  6  0  0  0
 29 33  1  0  0  0  0
 31 32  1  1  0  0  0
 31 35  1  0  0  0  0
 33 34  1  0  0  0  0
 33 37  1  1  0  0  0
 35 36  1  1  0  0  0
 37 38  1  0  0  0  0
M  END
>  <CHROM.1>
-111.36225197,70.25905095,166.86914689,176.67754091,-172.93369224,-74.00828811
126.75783850,94.13377000,24.34908228,-130.71841610,52.98800988,5.22643127
34.39485435,-1.64224336,0.30932855,0.17457191,-2.37005558

>  <Name>
1ntb_lig

>  <RI>
0

>  <Rbt.Current_Directory>
/home/itssahil/PROJECTS/Mol_Feturizer/New_Systems/rnas/1ntb

>  <Rbt.Executable>
rbdock ($Id: //depot/dev/client3/rdock/2013.1/src/exe/rbdock.cxx#4 $)

>  <Rbt.Library>
libRbt.so (2013.1, Build901 2013/11/27)

>  <Rbt.Parameter_File>
/export/apps/rDock/src/rDock_2013.1_src/data/scripts/dock_solv.prm

>  <Rbt.Receptor>
prm/blind_docking_100.prm

>  <SCORE>
-13.6487

>  <SCORE.INTER>
-11.2641

>  <SCORE.INTER.CONST>
1

>  <SCORE.INTER.POLAR>
-2.35312

>  <SCORE.INTER.ROT>
11

>  <SCORE.INTER.SOLV>
38.4966

>  <SCORE.INTER.VDW>
-23.4312

>  <SCORE.INTER.norm>
-0.281604

>  <SCORE.INTRA>
-6.29551

>  <SCORE.INTRA.DIHEDRAL>
-0.652248

>  <SCORE.INTRA.DIHEDRAL.0>
15.4453

>  <SCORE.INTRA.POLAR>
0

>  <SCORE.INTRA.POLAR.0>
0

>  <SCORE.INTRA.REPUL>
-0.823958

>  <SCORE.INTRA.REPUL.0>
0.823958

>  <SCORE.INTRA.SOLV>
3.76995

>  <SCORE.INTRA.SOLV.lig_0>
-99.3069

>  <SCORE.INTRA.VDW>
-3.73457

>  <SCORE.INTRA.VDW.0>
0.946495

>  <SCORE.INTRA.norm>
-0.157388

>  <SCORE.RESTR>
3.91097

>  <SCORE.RESTR.CAVITY>
3.91097

>  <SCORE.RESTR.norm>
0.0977742

>  <SCORE.SYSTEM>
0

>  <SCORE.SYSTEM.CONST>
0

>  <SCORE.SYSTEM.DIHEDRAL>
0

>  <SCORE.SYSTEM.SOLV>
0

>  <SCORE.SYSTEM.norm>
0

>  <SCORE.heavy>
40

>  <SCORE.norm>
-0.341217

>  <RMSD>
5.329

$$$$
1ntb_lig
 OpenBabel11021811403D
libRbt.so/2013.1/901 2013/11/27
 40 42  0  0  0  0  0  0  0  0999 V2000
   11.7606   31.7759   -2.3733 C   0  0  0  0  0  0  0  0  0  0  0  0
   12.2006   31.8271   -1.1758 N   0  0  0  0  0  0  0  0  0  0  0  0
    2.6076   36.4746    1.2926 C   0  0  0  0  0  0  0  0  0  0  0  0
    2.7884   35.2194    1.9266 O   0  0  0  0  0  0  0  0  0  0  0  0
    5.7169   32.6204   -4.1723 C   0  0  0  0  0  0  0  0  0  0  0  0
    6.3903   31.7526   -4.8397 N   0  0  0  0  0  0  0  0  0  0  0  0
    5.2825   38.3170    1.1175 C   0  0  0  0  0  0  0  0  0  0  0  0
    1.0754   38.6583   -2.9874 C   0  0  0  0  0  0  0  0  0  0  0  0
    9.6690   32.8529   -2.1960 C   0  0  2  0  0  0  0  0  0  0  0  0
   11.0684   32.8257   -2.7721 N   0  0  0  0  0  0  0  0  0  0  0  0
    5.3203   35.5099   -0.9977 C   0  0  2  0  0  0  0  0  0  0  0  0
    1.7521   35.8130   -1.4966 C   0  0  1  0  0  0  0  0  0  0  0  0
    3.1177   35.5638   -1.7741 O   0  0  0  0  0  0  0  0  0  0  0  0
    8.6468   33.2352   -3.2609 C   0  0  1  0  0  0  0  0  0  0  0  0
    8.8147   32.2108   -4.3352 O   0  0  0  0  0  0  0  0  0  0  0  0
    3.8466   35.4682   -0.6365 C   0  0  2  0  0  0  0  0  0  0  0  0
    1.0585   36.1931   -2.7823 C   0  0  1  0  0  0  0  0  0  0  0  0
    1.6379   37.3777   -3.3098 N   0  0  0  0  0  0  0  0  0  0  0  0
    7.2203   33.3059   -2.7199 C   0  0  2  0  0  0  0  0  0  0  0  0
    6.2074   33.6611   -3.6922 N   0  0  0  0  0  0  0  0  0  0  0  0
    3.6762   36.6777    0.2439 C   0  0  1  0  0  0  0  0  0  0  0  0
    3.3682   37.8247   -0.5554 O   0  0  0  0  0  0  0  0  0  0  0  0
    1.2391   35.0499   -3.7668 C   0  0  2  0  0  0  0  0  0  0  0  0
    0.6158   35.3586   -4.9943 O   0  0  0  0  0  0  0  0  0  0  0  0
    7.1939   34.3224   -1.6080 C   0  0  1  0  0  0  0  0  0  0  0  0
    5.8696   34.1966   -1.0192 O   0  0  0  0  0  0  0  0  0  0  0  0
    5.0040   36.8549    0.8825 C   0  0  1  0  0  0  0  0  0  0  0  0
    5.9772   36.3077   -0.0101 O   0  0  0  0  0  0  0  0  0  0  0  0
    0.5948   33.8143   -3.1379 C   0  0  1  0  0  0  0  0  0  0  0  0
    0.7283   32.6951   -4.0000 O   0  0  0  0  0  0  0  0  0  0  0  0
    8.1943   33.9186   -0.4917 C   0  0  2  0  0  0  0  0  0  0  0  0
    8.1432   34.8803    0.5507 O   0  0  0  0  0  0  0  0  0  0  0  0
    1.2758   33.5276   -1.7992 C   0  0  1  0  0  0  0  0  0  0  0  0
    1.1414   34.6540   -0.9342 O   0  0  0  0  0  0  0  0  0  0  0  0
    9.6199   33.8706   -1.0746 C   0  0  1  0  0  0  0  0  0  0  0  0
   10.5561   33.4992   -0.0559 O   0  0  0  0  0  0  0  0  0  0  0  0
    0.6104   32.3113   -1.1548 C   0  0  0  0  0  0  0  0  0  0  0  0
    0.7586   31.1907   -2.0120 O   0  0  0  0  0  0  0  0  0  0  0  0
   11.9545   30.7587   -3.1371 N   0  0  0  0  0  0  0  0  0  0  0  0
    4.4918   32.4626   -4.0275 N   0  0  0  0  0  0  0  0  0  0  0  0
  1  2  1  0  0  0  0
  1 39  1  0  0  0  0
  3  4  1  0  0  0  0
  5  6  1  0  0  0  0
  5 40  1  0  0  0  0
  9 10  1  6  0  0  0
  9 14  1  0  0  0  0
  9 35  1  0  0  0  0
 10  1  1  0  0  0  0
 11 16  1  0  0  0  0
 11 28  1  0  0  0  0
 11 26  1  1  0  0  0
 12 17  1  0  0  0  0
 12 34  1  0  0  0  0
 12 13  1  6  0  0  0
 14 15  1  6  0  0  0
 14 19  1  0  0  0  0
 16 13  1  6  0  0  0
 16 21  1  0  0  0  0
 17 18  1  6  0  0  0
 17 23  1  0  0  0  0
 18  8  1  0  0  0  0
 19 20  1  6  0  0  0
 19 25  1  0  0  0  0
 20  5  1  0  0  0  0
 21  3  1  1  0  0  0
 21 22  1  0  0  0  0
 21 27  1  0  0  0  0
 23 24  1  6  0  0  0
 23 29  1  0  0  0  0
 25 26  1  1  0  0  0
 25 31  1  0  0  0  0
 27  7  1  6  0  0  0
 27 28  1  0  0  0  0
 29 30  1  6  0  0  0
 29 33  1  0  0  0  0
 31 32  1  1  0  0  0
 31 35  1  0  0  0  0
 33 34  1  0  0  0  0
 33 37  1  1  0  0  0
 35 36  1  1  0  0  0
 37 38  1  0  0  0  0
M  END
>  <CHROM.1>
-136.45346334,-75.72501108,169.75371601,168.27938390,-167.65071344,-93.07265646
93.49710591,-62.10775144,47.14512668,-127.79220576,60.43856891,5.13253599
34.38490467,-1.81531839,0.22282469,0.21115724,-2.34843652

>  <Name>
1ntb_lig

>  <RI>
0

>  <Rbt.Current_Directory>
/home/itssahil/PROJECTS/Mol_Feturizer/New_Systems/rnas/1ntb

>  <Rbt.Executable>
rbdock ($Id: //depot/dev/client3/rdock/2013.1/src/exe/rbdock.cxx#4 $)

>  <Rbt.Library>
libRbt.so (2013.1, Build901 2013/11/27)

>  <Rbt.Parameter_File>
/export/apps/rDock/src/rDock_2013.1_src/data/scripts/dock_solv.prm

>  <Rbt.Receptor>
prm/pocket_docking_7.prm

>  <SCORE>
-19.9091

>  <SCORE.INTER>
-11.4673

>  <SCORE.INTER.CONST>
1

>  <SCORE.INTER.POLAR>
-2.37583

>  <SCORE.INTER.ROT>
11

>  <SCORE.INTER.SOLV>
39.0075

>  <SCORE.INTER.VDW>
-23.6613

>  <SCORE.INTER.norm>
-0.286683

>  <SCORE.INTRA>
-8.44309

>  <SCORE.INTRA.DIHEDRAL>
-2.25462

>  <SCORE.INTRA.DIHEDRAL.0>
15.4453

>  <SCORE.INTRA.POLAR>
0

>  <SCORE.INTRA.POLAR.0>
0

>  <SCORE.INTRA.REPUL>
-0.813737

>  <SCORE.INTRA.REPUL.0>
0.823958

>  <SCORE.INTRA.SOLV>
-0.315732

>  <SCORE.INTRA.SOLV.lig_0>
-99.3069

>  <SCORE.INTRA.VDW>
-3.08923

>  <SCORE.INTRA.VDW.0>
0.946495

>  <SCORE.INTRA.norm>
-0.211077

>  <SCORE.RESTR>
0.00134084

>  <SCORE.RESTR.CAVITY>
0.00134084

>  <SCORE.RESTR.norm>
3.3521e-05

>  <SCORE.SYSTEM>
0

>  <SCORE.SYSTEM.CONST>
0

>  <SCORE.SYSTEM.DIHEDRAL>
0

>  <SCORE.SYSTEM.SOLV>
0

>  <SCORE.SYSTEM.norm>
0

>  <SCORE.heavy>
40

>  <SCORE.norm>
-0.497727

>  <RMSD>
5.346

$$$$
1ntb_lig
 OpenBabel11021811403D
libRbt.so/2013.1/901 2013/11/27
 40 42  0  0  0  0  0  0  0  0999 V2000
   11.5149   31.4701   -2.9903 C   0  0  0  0  0  0  0  0  0  0  0  0
   10.9778   30.7685   -3.9120 N   0  0  0  0  0  0  0  0  0  0  0  0
    2.6855   36.3751    1.3904 C   0  0  0  0  0  0  0  0  0  0  0  0
    2.5761   34.9893    1.6697 O   0  0  0  0  0  0  0  0  0  0  0  0
    5.6491   32.6170   -4.1560 C   0  0  0  0  0  0  0  0  0  0  0  0
    6.2661   31.7156   -4.8333 N   0  0  0  0  0  0  0  0  0  0  0  0
    5.4301   38.1207    1.3947 C   0  0  0  0  0  0  0  0  0  0  0  0
    0.7348   38.3738   -3.5900 C   0  0  0  0  0  0  0  0  0  0  0  0
    9.6645   32.7440   -2.2699 C   0  0  2  0  0  0  0  0  0  0  0  0
   11.0543   32.7002   -2.8678 N   0  0  0  0  0  0  0  0  0  0  0  0
    5.4085   35.4676   -0.9109 C   0  0  2  0  0  0  0  0  0  0  0  0
    1.8439   35.8180   -1.4624 C   0  0  1  0  0  0  0  0  0  0  0  0
    3.2265   35.6600   -1.7225 O   0  0  0  0  0  0  0  0  0  0  0  0
    8.6338   33.1622   -3.3128 C   0  0  1  0  0  0  0  0  0  0  0  0
    8.7662   32.1521   -4.4056 O   0  0  0  0  0  0  0  0  0  0  0  0
    3.9270   35.4578   -0.5810 C   0  0  2  0  0  0  0  0  0  0  0  0
    1.1321   36.0745   -2.7685 C   0  0  1  0  0  0  0  0  0  0  0  0
    1.6226   37.2703   -3.3574 N   0  0  0  0  0  0  0  0  0  0  0  0
    7.2171   33.2506   -2.7490 C   0  0  2  0  0  0  0  0  0  0  0  0
    6.1965   33.6400   -3.7001 N   0  0  0  0  0  0  0  0  0  0  0  0
    3.7829   36.6091    0.3786 C   0  0  1  0  0  0  0  0  0  0  0  0
    3.5348   37.8197   -0.3439 O   0  0  0  0  0  0  0  0  0  0  0  0
    1.4063   34.8976   -3.6897 C   0  0  2  0  0  0  0  0  0  0  0  0
    0.7695   35.0915   -4.9337 O   0  0  0  0  0  0  0  0  0  0  0  0
    7.2264   34.2495   -1.6211 C   0  0  1  0  0  0  0  0  0  0  0  0
    5.9090   34.1388   -1.0140 O   0  0  0  0  0  0  0  0  0  0  0  0
    5.1025   36.6903    1.0527 C   0  0  1  0  0  0  0  0  0  0  0  0
    6.0734   36.1691    0.1423 O   0  0  0  0  0  0  0  0  0  0  0  0
    0.8543   33.6515   -2.9970 C   0  0  1  0  0  0  0  0  0  0  0  0
    1.0790   32.5014   -3.7973 O   0  0  0  0  0  0  0  0  0  0  0  0
    8.2358   33.8093   -0.5267 C   0  0  2  0  0  0  0  0  0  0  0  0
    8.2184   34.7550    0.5314 O   0  0  0  0  0  0  0  0  0  0  0  0
    1.5462   33.4898   -1.6430 C   0  0  1  0  0  0  0  0  0  0  0  0
    1.3200   34.6472   -0.8402 O   0  0  0  0  0  0  0  0  0  0  0  0
    9.6513   33.7444   -1.1320 C   0  0  1  0  0  0  0  0  0  0  0  0
   10.5956   33.3394   -0.1337 O   0  0  0  0  0  0  0  0  0  0  0  0
    0.9715   32.2621   -0.9359 C   0  0  0  0  0  0  0  0  0  0  0  0
   -0.4274   32.4316   -0.7718 O   0  0  0  0  0  0  0  0  0  0  0  0
   12.4616   31.0207   -2.2436 N   0  0  0  0  0  0  0  0  0  0  0  0
    4.4230   32.5127   -3.9757 N   0  0  0  0  0  0  0  0  0  0  0  0
  1  2  1  0  0  0  0
  1 39  1  0  0  0  0
  3  4  1  0  0  0  0
  5  6  1  0  0  0  0
  5 40  1  0  0  0  0
  9 10  1  6  0  0  0
  9 14  1  0  0  0  0
  9 35  1  0  0  0  0
 10  1  1  0  0  0  0
 11 16  1  0  0  0  0
 11 28  1  0  0  0  0
 11 26  1  1  0  0  0
 12 17  1  0  0  0  0
 12 34  1  0  0  0  0
 12 13  1  6  0  0  0
 14 15  1  6  0  0  0
 14 19  1  0  0  0  0
 16 13  1  6  0  0  0
 16 21  1  0  0  0  0
 17 18  1  6  0  0  0
 17 23  1  0  0  0  0
 18  8  1  0  0  0  0
 19 20  1  6  0  0  0
 19 25  1  0  0  0  0
 20  5  1  0  0  0  0
 21  3  1  1  0  0  0
 21 22  1  0  0  0  0
 21 27  1  0  0  0  0
 23 24  1  6  0  0  0
 23 29  1  0  0  0  0
 25 26  1  1  0  0  0
 25 31  1  0  0  0  0
 27  7  1  6  0  0  0
 27 28  1  0  0  0  0
 29 30  1  6  0  0  0
 29 33  1  0  0  0  0
 31 32  1  1  0  0  0
 31 35  1  0  0  0  0
 33 34  1  0  0  0  0
 33 37  1  1  0  0  0
 35 36  1  1  0  0  0
 37 38  1  0  0  0  0
M  END
>  <CHROM.1>
-109.69610253,72.41543307,167.37274646,178.53694160,-173.13335402,-118.83992309
95.67258138,-62.32077465,31.49406511,-130.22465489,-58.80091374,5.13106192
34.30892678,-1.81899265,0.26616122,0.20409711,-2.27531718

>  <Name>
1ntb_lig

>  <RI>
0

>  <Rbt.Current_Directory>
/home/itssahil/PROJECTS/Mol_Feturizer/New_Systems/rnas/1ntb

>  <Rbt.Executable>
rbdock ($Id: //depot/dev/client3/rdock/2013.1/src/exe/rbdock.cxx#4 $)

>  <Rbt.Library>
libRbt.so (2013.1, Build901 2013/11/27)

>  <Rbt.Parameter_File>
/export/apps/rDock/src/rDock_2013.1_src/data/scripts/dock_solv.prm

>  <Rbt.Receptor>
prm/pocket_docking_4.prm

>  <SCORE>
-23.4249

>  <SCORE.INTER>
-14.6824

>  <SCORE.INTER.CONST>
1

>  <SCORE.INTER.POLAR>
-2.63494

>  <SCORE.INTER.ROT>
11

>  <SCORE.INTER.SOLV>
39.0733

>  <SCORE.INTER.VDW>
-24.9629

>  <SCORE.INTER.norm>
-0.367061

>  <SCORE.INTRA>
-8.74243

>  <SCORE.INTRA.DIHEDRAL>
-0.970418

>  <SCORE.INTRA.DIHEDRAL.0>
15.4453

>  <SCORE.INTRA.POLAR>
0

>  <SCORE.INTRA.POLAR.0>
0

>  <SCORE.INTRA.REPUL>
-0.818935

>  <SCORE.INTRA.REPUL.0>
0.823958

>  <SCORE.INTRA.SOLV>
0.4082

>  <SCORE.INTRA.SOLV.lig_0>
-99.3069

>  <SCORE.INTRA.VDW>
-4.36665

>  <SCORE.INTRA.VDW.0>
0.946495

>  <SCORE.INTRA.norm>
-0.218561

>  <SCORE.RESTR>
0

>  <SCORE.RESTR.CAVITY>
0

>  <SCORE.RESTR.norm>
0

>  <SCORE.SYSTEM>
0

>  <SCORE.SYSTEM.CONST>
0

>  <SCORE.SYSTEM.DIHEDRAL>
0

>  <SCORE.SYSTEM.SOLV>
0

>  <SCORE.SYSTEM.norm>
0

>  <SCORE.heavy>
40

>  <SCORE.norm>
-0.585622

>  <RMSD>
5.348

$$$$
1ntb_lig
 OpenBabel11021811403D
libRbt.so/2013.1/901 2013/11/27
 40 42  0  0  0  0  0  0  0  0999 V2000
    7.9313   35.9796    0.7208 C   0  0  0  0  0  0  0  0  0  0  0  0
    7.5644   37.1962    0.8445 N   0  0  0  0  0  0  0  0  0  0  0  0
   -1.3572   37.4470   -2.9070 C   0  0  0  0  0  0  0  0  0  0  0  0
   -1.6592   38.6867   -3.5253 O   0  0  0  0  0  0  0  0  0  0  0  0
    4.8689   33.5350   -2.9581 C   0  0  0  0  0  0  0  0  0  0  0  0
    6.0830   33.5023   -3.3788 N   0  0  0  0  0  0  0  0  0  0  0  0
    1.3488   39.2054   -3.3139 C   0  0  0  0  0  0  0  0  0  0  0  0
   -0.8042   34.4706   -6.9885 C   0  0  0  0  0  0  0  0  0  0  0  0
    5.8866   34.8343    0.9911 C   0  0  2  0  0  0  0  0  0  0  0  0
    7.2920   35.1108    1.4802 N   0  0  0  0  0  0  0  0  0  0  0  0
    1.9119   35.9320   -2.1634 C   0  0  2  0  0  0  0  0  0  0  0  0
   -0.9660   34.5209   -3.8615 C   0  0  1  0  0  0  0  0  0  0  0  0
    0.3760   34.7724   -3.4875 O   0  0  0  0  0  0  0  0  0  0  0  0
    5.8295   34.8273   -0.5326 C   0  0  1  0  0  0  0  0  0  0  0  0
    6.8072   33.7760   -0.9455 O   0  0  0  0  0  0  0  0  0  0  0  0
    0.4575   35.7569   -2.5607 C   0  0  2  0  0  0  0  0  0  0  0  0
   -0.9937   33.3372   -4.7978 C   0  0  1  0  0  0  0  0  0  0  0  0
   -0.2440   33.6313   -5.9678 N   0  0  0  0  0  0  0  0  0  0  0  0
    4.4231   34.5820   -1.0754 C   0  0  2  0  0  0  0  0  0  0  0  0
    4.3129   34.5609   -2.5194 N   0  0  0  0  0  0  0  0  0  0  0  0
    0.0958   37.1010   -3.1350 C   0  0  1  0  0  0  0  0  0  0  0  0
    0.3940   37.1309   -4.5347 O   0  0  0  0  0  0  0  0  0  0  0  0
   -0.3740   32.1537   -4.0740 C   0  0  2  0  0  0  0  0  0  0  0  0
   -0.3656   31.0182   -4.9113 O   0  0  0  0  0  0  0  0  0  0  0  0
    3.5227   35.6662   -0.5424 C   0  0  1  0  0  0  0  0  0  0  0  0
    2.1812   35.2635   -0.9356 O   0  0  0  0  0  0  0  0  0  0  0  0
    0.9762   38.0547   -2.4154 C   0  0  1  0  0  0  0  0  0  0  0  0
    2.1490   37.3352   -2.0281 O   0  0  0  0  0  0  0  0  0  0  0  0
   -1.2276   31.8940   -2.8325 C   0  0  1  0  0  0  0  0  0  0  0  0
   -0.7061   30.7996   -2.0949 O   0  0  0  0  0  0  0  0  0  0  0  0
    3.5316   35.6522    1.0100 C   0  0  2  0  0  0  0  0  0  0  0  0
    2.6674   36.6702    1.4906 O   0  0  0  0  0  0  0  0  0  0  0  0
   -1.2360   33.1530   -1.9648 C   0  0  1  0  0  0  0  0  0  0  0  0
   -1.7597   34.2523   -2.7081 O   0  0  0  0  0  0  0  0  0  0  0  0
    4.9631   35.9148    1.5161 C   0  0  1  0  0  0  0  0  0  0  0  0
    4.9883   35.9053    2.9484 O   0  0  0  0  0  0  0  0  0  0  0  0
   -2.1156   32.9048   -0.7392 C   0  0  0  0  0  0  0  0  0  0  0  0
   -1.3685   32.1919    0.2335 O   0  0  0  0  0  0  0  0  0  0  0  0
    8.8794   35.6217   -0.0722 N   0  0  0  0  0  0  0  0  0  0  0  0
    4.1696   32.5092   -3.0312 N   0  0  0  0  0  0  0  0  0  0  0  0
  1  2  1  0  0  0  0
  1 39  1  0  0  0  0
  3  4  1  0  0  0  0
  5  6  1  0  0  0  0
  5 40  1  0  0  0  0
  9 10  1  6  0  0  0
  9 14  1  0  0  0  0
  9 35  1  0  0  0  0
 10  1  1  0  0  0  0
 11 16  1  0  0  0  0
 11 28  1  0  0  0  0
 11 26  1  1  0  0  0
 12 17  1  0  0  0  0
 12 34  1  0  0  0  0
 12 13  1  1  0  0  0
 14 15  1  6  0  0  0
 14 19  1  0  0  0  0
 16 13  1  6  0  0  0
 16 21  1  0  0  0  0
 17 18  1  6  0  0  0
 17 23  1  0  0  0  0
 18  8  1  0  0  0  0
 19 20  1  6  0  0  0
 19 25  1  0  0  0  0
 20  5  1  0  0  0  0
 21  3  1  1  0  0  0
 21 22  1  0  0  0  0
 21 27  1  0  0  0  0
 23 24  1  6  0  0  0
 23 29  1  0  0  0  0
 25 26  1  6  0  0  0
 25 31  1  0  0  0  0
 27  7  1  6  0  0  0
 27 28  1  0  0  0  0
 29 30  1  1  0  0  0
 29 33  1  0  0  0  0
 31 32  1  1  0  0  0
 31 35  1  0  0  0  0
 33 34  1  0  0  0  0
 33 37  1  1  0  0  0
 35 36  1  1  0  0  0
 37 38  1  0  0  0  0
M  END
>  <CHROM.1>
36.60822611,74.12255786,-171.20943560,-175.00988217,177.59121340,-77.22895221
69.87720180,-95.22332624,-177.01924020,-94.61551887,81.37265854,2.15883981
34.92144434,-1.90205802,-0.22482097,0.49634270,-3.01633365

>  <Name>
1ntb_lig

>  <RI>
0

>  <Rbt.Current_Directory>
/home/itssahil/PROJECTS/Mol_Feturizer/New_Systems/rnas/1ntb

>  <Rbt.Executable>
rbdock ($Id: //depot/dev/client3/rdock/2013.1/src/exe/rbdock.cxx#4 $)

>  <Rbt.Library>
libRbt.so (2013.1, Build901 2013/11/27)

>  <Rbt.Parameter_File>
/export/apps/rDock/src/rDock_2013.1_src/data/scripts/dock_solv.prm

>  <Rbt.Receptor>
prm/pocket_docking_3.prm

>  <SCORE>
-7.70881

>  <SCORE.INTER>
-0.43801

>  <SCORE.INTER.CONST>
1

>  <SCORE.INTER.POLAR>
-1.34077

>  <SCORE.INTER.ROT>
11

>  <SCORE.INTER.SOLV>
30.4398

>  <SCORE.INTER.VDW>
-16.9027

>  <SCORE.INTER.norm>
-0.0109503

>  <SCORE.INTRA>
-7.30418

>  <SCORE.INTRA.DIHEDRAL>
-6.72131

>  <SCORE.INTRA.DIHEDRAL.0>
15.4453

>  <SCORE.INTRA.POLAR>
0

>  <SCORE.INTRA.POLAR.0>
0

>  <SCORE.INTRA.REPUL>
-0.767987

>  <SCORE.INTRA.REPUL.0>
0.823958

>  <SCORE.INTRA.SOLV>
0.209899

>  <SCORE.INTRA.SOLV.lig_0>
-99.3069

>  <SCORE.INTRA.VDW>
-0.208538

>  <SCORE.INTRA.VDW.0>
0.946495

>  <SCORE.INTRA.norm>
-0.182605

>  <SCORE.RESTR>
0.0333776

>  <SCORE.RESTR.CAVITY>
0.0333776

>  <SCORE.RESTR.norm>
0.000834441

>  <SCORE.SYSTEM>
0

>  <SCORE.SYSTEM.CONST>
0

>  <SCORE.SYSTEM.DIHEDRAL>
0

>  <SCORE.SYSTEM.SOLV>
0

>  <SCORE.SYSTEM.norm>
0

>  <SCORE.heavy>
40

>  <SCORE.norm>
-0.19272

>  <RMSD>
5.351

$$$$
1ntb_lig
 OpenBabel11021811403D
libRbt.so/2013.1/901 2013/11/27
 40 42  0  0  0  0  0  0  0  0999 V2000
   11.5077   31.7444   -2.8086 C   0  0  0  0  0  0  0  0  0  0  0  0
   12.4999   32.5432   -2.7209 N   0  0  0  0  0  0  0  0  0  0  0  0
    2.0935   35.2234    0.5152 C   0  0  0  0  0  0  0  0  0  0  0  0
    2.0752   33.8247    0.7469 O   0  0  0  0  0  0  0  0  0  0  0  0
    5.6515   31.9075   -5.5996 C   0  0  0  0  0  0  0  0  0  0  0  0
    5.5920   32.0867   -6.8710 N   0  0  0  0  0  0  0  0  0  0  0  0
    4.8674   36.8919    0.8344 C   0  0  0  0  0  0  0  0  0  0  0  0
    1.1676   38.1163   -3.5959 C   0  0  0  0  0  0  0  0  0  0  0  0
    9.1985   32.0297   -3.1985 C   0  0  2  0  0  0  0  0  0  0  0  0
   10.6147   32.0431   -3.7325 N   0  0  0  0  0  0  0  0  0  0  0  0
    4.8645   34.5872   -1.8197 C   0  0  2  0  0  0  0  0  0  0  0  0
    1.3662   35.2805   -2.3688 C   0  0  1  0  0  0  0  0  0  0  0  0
    2.7102   34.9378   -2.6522 O   0  0  0  0  0  0  0  0  0  0  0  0
    8.2024   32.4306   -4.2810 C   0  0  1  0  0  0  0  0  0  0  0  0
    8.4190   31.4445   -5.3821 O   0  0  0  0  0  0  0  0  0  0  0  0
    3.3742   34.5633   -1.5325 C   0  0  2  0  0  0  0  0  0  0  0  0
    0.6898   35.6898   -3.6547 C   0  0  1  0  0  0  0  0  0  0  0  0
    1.3425   36.8267   -4.2013 N   0  0  0  0  0  0  0  0  0  0  0  0
    6.7594   32.4615   -3.7815 C   0  0  2  0  0  0  0  0  0  0  0  0
    5.7702   32.8324   -4.7723 N   0  0  0  0  0  0  0  0  0  0  0  0
    3.2233   35.5725   -0.4253 C   0  0  1  0  0  0  0  0  0  0  0  0
    3.0174   36.8770   -0.9774 O   0  0  0  0  0  0  0  0  0  0  0  0
    0.7867   34.5250   -4.6255 C   0  0  2  0  0  0  0  0  0  0  0  0
    0.1761   34.8591   -5.8527 O   0  0  0  0  0  0  0  0  0  0  0  0
    6.6831   33.4407   -2.6390 C   0  0  1  0  0  0  0  0  0  0  0  0
    5.3441   33.2753   -2.0948 O   0  0  0  0  0  0  0  0  0  0  0  0
    4.5244   35.5305    0.2873 C   0  0  1  0  0  0  0  0  0  0  0  0
    5.5114   35.1206   -0.6619 O   0  0  0  0  0  0  0  0  0  0  0  0
    0.0667   33.3428   -3.9764 C   0  0  1  0  0  0  0  0  0  0  0  0
    0.1192   32.2065   -4.8248 O   0  0  0  0  0  0  0  0  0  0  0  0
    7.6563   33.0163   -1.5063 C   0  0  2  0  0  0  0  0  0  0  0  0
    7.5584   33.9427   -0.4356 O   0  0  0  0  0  0  0  0  0  0  0  0
    0.7372   33.0282   -2.6387 C   0  0  1  0  0  0  0  0  0  0  0  0
    0.6842   34.1718   -1.7874 O   0  0  0  0  0  0  0  0  0  0  0  0
    9.0992   33.0095   -2.0470 C   0  0  1  0  0  0  0  0  0  0  0  0
   10.0107   32.6197   -1.0128 O   0  0  0  0  0  0  0  0  0  0  0  0
   -0.0026   31.8669   -1.9741 C   0  0  0  0  0  0  0  0  0  0  0  0
    0.1446   30.7034   -2.7722 O   0  0  0  0  0  0  0  0  0  0  0  0
   11.3694   30.7275   -2.0324 N   0  0  0  0  0  0  0  0  0  0  0  0
    5.5333   30.7584   -5.1388 N   0  0  0  0  0  0  0  0  0  0  0  0
  1  2  1  0  0  0  0
  1 39  1  0  0  0  0
  3  4  1  0  0  0  0
  5  6  1  0  0  0  0
  5 40  1  0  0  0  0
  9 10  1  6  0  0  0
  9 14  1  0  0  0  0
  9 35  1  0  0  0  0
 10  1  1  0  0  0  0
 11 16  1  0  0  0  0
 11 28  1  0  0  0  0
 11 26  1  1  0  0  0
 12 17  1  0  0  0  0
 12 34  1  0  0  0  0
 12 13  1  6  0  0  0
 14 15  1  6  0  0  0
 14 19  1  0  0  0  0
 16 13  1  6  0  0  0
 16 21  1  0  0  0  0
 17 18  1  6  0  0  0
 17 23  1  0  0  0  0
 18  8  1  0  0  0  0
 19 20  1  6  0  0  0
 19 25  1  0  0  0  0
 20  5  1  0  0  0  0
 21  3  1  1  0  0  0
 21 22  1  0  0  0  0
 21 27  1  0  0  0  0
 23 24  1  6  0  0  0
 23 29  1  0  0  0  0
 25 26  1  1  0  0  0
 25 31  1  0  0  0  0
 27  7  1  6  0  0  0
 27 28  1  0  0  0  0
 29 30  1  6  0  0  0
 29 33  1  0  0  0  0
 31 32  1  1  0  0  0
 31 35  1  0  0  0  0
 33 34  1  0  0  0  0
 33 37  1  1  0  0  0
 35 36  1  1  0  0  0
 37 38  1  0  0  0  0
M  END
>  <CHROM.1>
177.85258034,-130.64291471,167.70076798,179.84095693,-164.36376478,-73.52902300
70.68402790,-135.64077323,39.92272832,-138.11839498,64.51831539,4.72535488
33.66244336,-2.68174199,0.16331353,0.21573290,-2.18285552

>  <Name>
1ntb_lig

>  <RI>
0

>  <Rbt.Current_Directory>
/home/itssahil/PROJECTS/Mol_Feturizer/New_Systems/rnas/1ntb

>  <Rbt.Executable>
rbdock ($Id: //depot/dev/client3/rdock/2013.1/src/exe/rbdock.cxx#4 $)

>  <Rbt.Library>
libRbt.so (2013.1, Build901 2013/11/27)

>  <Rbt.Parameter_File>
/export/apps/rDock/src/rDock_2013.1_src/data/scripts/dock_solv.prm

>  <Rbt.Receptor>
prm/pocket_docking_4.prm

>  <SCORE>
-12.9985

>  <SCORE.INTER>
-11.8516

>  <SCORE.INTER.CONST>
1

>  <SCORE.INTER.POLAR>
-2.79252

>  <SCORE.INTER.ROT>
11

>  <SCORE.INTER.SOLV>
41.9627

>  <SCORE.INTER.VDW>
-23.5136

>  <SCORE.INTER.norm>
-0.296291

>  <SCORE.INTRA>
-1.14687

>  <SCORE.INTRA.DIHEDRAL>
-5.56876

>  <SCORE.INTRA.DIHEDRAL.0>
15.4453

>  <SCORE.INTRA.POLAR>
0

>  <SCORE.INTRA.POLAR.0>
0

>  <SCORE.INTRA.REPUL>
-0.745867

>  <SCORE.INTRA.REPUL.0>
0.823958

>  <SCORE.INTRA.SOLV>
-0.0558126

>  <SCORE.INTRA.SOLV.lig_0>
-99.3069

>  <SCORE.INTRA.VDW>
5.39475

>  <SCORE.INTRA.VDW.0>
0.946495

>  <SCORE.INTRA.norm>
-0.0286717

>  <SCORE.RESTR>
0

>  <SCORE.RESTR.CAVITY>
0

>  <SCORE.RESTR.norm>
0

>  <SCORE.SYSTEM>
0

>  <SCORE.SYSTEM.CONST>
0

>  <SCORE.SYSTEM.DIHEDRAL>
0

>  <SCORE.SYSTEM.SOLV>
0

>  <SCORE.SYSTEM.norm>
0

>  <SCORE.heavy>
40

>  <SCORE.norm>
-0.324963

>  <RMSD>
5.416

$$$$
1ntb_lig
 OpenBabel11021811403D
libRbt.so/2013.1/901 2013/11/27
 40 42  0  0  0  0  0  0  0  0999 V2000
    5.3869   33.4683   -3.6738 C   0  0  0  0  0  0  0  0  0  0  0  0
    5.1144   32.5507   -4.5187 N   0  0  0  0  0  0  0  0  0  0  0  0
   -1.5961   37.8849    2.6215 C   0  0  0  0  0  0  0  0  0  0  0  0
   -2.5462   37.0828    1.9402 O   0  0  0  0  0  0  0  0  0  0  0  0
   -0.8163   33.0200   -1.6694 C   0  0  0  0  0  0  0  0  0  0  0  0
   -1.4513   32.5586   -0.6517 N   0  0  0  0  0  0  0  0  0  0  0  0
   -0.3665   36.0912    5.0404 C   0  0  0  0  0  0  0  0  0  0  0  0
    2.1484   40.8975    2.2263 C   0  0  0  0  0  0  0  0  0  0  0  0
    3.5621   34.0244   -2.2857 C   0  0  2  0  0  0  0  0  0  0  0  0
    4.4364   34.3611   -3.4745 N   0  0  0  0  0  0  0  0  0  0  0  0
    0.9566   35.3443    1.8706 C   0  0  2  0  0  0  0  0  0  0  0  0
    0.5978   38.7133    0.5763 C   0  0  1  0  0  0  0  0  0  0  0  0
    1.1915   37.5054    1.0153 O   0  0  0  0  0  0  0  0  0  0  0  0
    2.0885   34.2412   -2.6120 C   0  0  1  0  0  0  0  0  0  0  0  0
    1.8273   33.3653   -3.7937 O   0  0  0  0  0  0  0  0  0  0  0  0
    0.2650   36.6430    1.4977 C   0  0  2  0  0  0  0  0  0  0  0  0
    1.6903   39.6571    0.1356 C   0  0  1  0  0  0  0  0  0  0  0  0
    2.5486   39.9448    1.2301 N   0  0  0  0  0  0  0  0  0  0  0  0
    1.1664   33.9432   -1.4315 C   0  0  2  0  0  0  0  0  0  0  0  0
   -0.2468   34.1288   -1.6889 N   0  0  0  0  0  0  0  0  0  0  0  0
   -0.3115   37.1116    2.8073 C   0  0  1  0  0  0  0  0  0  0  0  0
    0.6477   37.9130    3.5049 O   0  0  0  0  0  0  0  0  0  0  0  0
    2.4785   38.9762   -0.9707 C   0  0  2  0  0  0  0  0  0  0  0  0
    3.5229   39.8146   -1.4143 O   0  0  0  0  0  0  0  0  0  0  0  0
    1.5669   34.8408   -0.2897 C   0  0  1  0  0  0  0  0  0  0  0  0
    0.7863   34.3719    0.8448 O   0  0  0  0  0  0  0  0  0  0  0  0
   -0.5631   35.8602    3.5644 C   0  0  1  0  0  0  0  0  0  0  0  0
    0.3709   34.8869    3.0917 O   0  0  0  0  0  0  0  0  0  0  0  0
    1.4979   38.6981   -2.1102 C   0  0  1  0  0  0  0  0  0  0  0  0
    2.1614   38.0533   -3.1861 O   0  0  0  0  0  0  0  0  0  0  0  0
    3.0527   34.5944    0.0872 C   0  0  2  0  0  0  0  0  0  0  0  0
    3.4048   35.4384    1.1725 O   0  0  0  0  0  0  0  0  0  0  0  0
    0.3677   37.8117   -1.5860 C   0  0  1  0  0  0  0  0  0  0  0  0
   -0.2976   38.4612   -0.5039 O   0  0  0  0  0  0  0  0  0  0  0  0
    3.9485   34.9174   -1.1242 C   0  0  1  0  0  0  0  0  0  0  0  0
    5.3242   34.6950   -0.7923 O   0  0  0  0  0  0  0  0  0  0  0  0
   -0.6302   37.5600   -2.7166 C   0  0  0  0  0  0  0  0  0  0  0  0
   -1.6805   36.7365   -2.2359 O   0  0  0  0  0  0  0  0  0  0  0  0
    6.5222   33.5376   -3.0720 N   0  0  0  0  0  0  0  0  0  0  0  0
   -0.7038   32.3169   -2.6890 N   0  0  0  0  0  0  0  0  0  0  0  0
  1  2  1  0  0  0  0
  1 39  1  0  0  0  0
  3  4  1  0  0  0  0
  5  6  1  0  0  0  0
  5 40  1  0  0  0  0
  9 10  1  6  0  0  0
  9 14  1  0  0  0  0
  9 35  1  0  0  0  0
 10  1  1  0  0  0  0
 11 16  1  0  0  0  0
 11 28  1  0  0  0  0
 11 26  1  6  0  0  0
 12 17  1  0  0  0  0
 12 34  1  0  0  0  0
 12 13  1  6  0  0  0
 14 15  1  6  0  0  0
 14 19  1  0  0  0  0
 16 13  1  1  0  0  0
 16 21  1  0  0  0  0
 17 18  1  1  0  0  0
 17 23  1  0  0  0  0
 18  8  1  0  0  0  0
 19 20  1  6  0  0  0
 19 25  1  0  0  0  0
 20  5  1  0  0  0  0
 21  3  1  6  0  0  0
 21 22  1  0  0  0  0
 21 27  1  0  0  0  0
 23 24  1  6  0  0  0
 23 29  1  0  0  0  0
 25 26  1  1  0  0  0
 25 31  1  0  0  0  0
 27  7  1  1  0  0  0
 27 28  1  0  0  0  0
 29 30  1  6  0  0  0
 29 33  1  0  0  0  0
 31 32  1  1  0  0  0
 31 35  1  0  0  0  0
 33 34  1  0  0  0  0
 33 37  1  6  0  0  0
 35 36  1  1  0  0  0
 37 38  1  0  0  0  0
M  END
>  <CHROM.1>
-136.24201286,94.85089073,69.08667709,176.44792728,176.63267804,-78.72595415
112.08273491,98.21166543,57.67952643,-169.70372930,179.93609173,1.42330264
36.07939416,-0.35663572,-0.90420457,0.67568651,0.45221629

>  <Name>
1ntb_lig

>  <RI>
0

>  <Rbt.Current_Directory>
/home/itssahil/PROJECTS/Mol_Feturizer/New_Systems/rnas/1ntb

>  <Rbt.Executable>
rbdock ($Id: //depot/dev/client3/rdock/2013.1/src/exe/rbdock.cxx#4 $)

>  <Rbt.Library>
libRbt.so (2013.1, Build901 2013/11/27)

>  <Rbt.Parameter_File>
/export/apps/rDock/src/rDock_2013.1_src/data/scripts/dock_solv.prm

>  <Rbt.Receptor>
prm/pocket_docking_5.prm

>  <SCORE>
-18.9836

>  <SCORE.INTER>
-3.72073

>  <SCORE.INTER.CONST>
1

>  <SCORE.INTER.POLAR>
-1.91613

>  <SCORE.INTER.ROT>
11

>  <SCORE.INTER.SOLV>
21.4446

>  <SCORE.INTER.VDW>
-14.1749

>  <SCORE.INTER.norm>
-0.0930183

>  <SCORE.INTRA>
-15.2629

>  <SCORE.INTRA.DIHEDRAL>
-10.7368

>  <SCORE.INTRA.DIHEDRAL.0>
15.4453

>  <SCORE.INTRA.POLAR>
0

>  <SCORE.INTRA.POLAR.0>
0

>  <SCORE.INTRA.REPUL>
-0.806203

>  <SCORE.INTRA.REPUL.0>
0.823958

>  <SCORE.INTRA.SOLV>
-1.04363

>  <SCORE.INTRA.SOLV.lig_0>
-99.3069

>  <SCORE.INTRA.VDW>
-5.34168

>  <SCORE.INTRA.VDW.0>
0.946495

>  <SCORE.INTRA.norm>
-0.381573

>  <SCORE.RESTR>
0

>  <SCORE.RESTR.CAVITY>
0

>  <SCORE.RESTR.norm>
0

>  <SCORE.SYSTEM>
0

>  <SCORE.SYSTEM.CONST>
0

>  <SCORE.SYSTEM.DIHEDRAL>
0

>  <SCORE.SYSTEM.SOLV>
0

>  <SCORE.SYSTEM.norm>
0

>  <SCORE.heavy>
40

>  <SCORE.norm>
-0.474591

>  <RMSD>
5.455

$$$$
1ntb_lig
 OpenBabel11021811403D
libRbt.so/2013.1/901 2013/11/27
 40 42  0  0  0  0  0  0  0  0999 V2000
   11.4495   31.2903   -3.3177 C   0  0  0  0  0  0  0  0  0  0  0  0
   11.0985   30.4012   -4.1642 N   0  0  0  0  0  0  0  0  0  0  0  0
    1.9399   35.0130    0.5039 C   0  0  0  0  0  0  0  0  0  0  0  0
    1.6021   36.1170    1.3270 O   0  0  0  0  0  0  0  0  0  0  0  0
    5.8173   31.8789   -5.3978 C   0  0  0  0  0  0  0  0  0  0  0  0
    5.9606   31.9085   -6.6748 N   0  0  0  0  0  0  0  0  0  0  0  0
    4.5190   36.9879    0.6711 C   0  0  0  0  0  0  0  0  0  0  0  0
    0.2095   37.6118   -4.3394 C   0  0  0  0  0  0  0  0  0  0  0  0
    9.3570   32.3058   -2.9229 C   0  0  2  0  0  0  0  0  0  0  0  0
   10.7929   32.4325   -3.3844 N   0  0  0  0  0  0  0  0  0  0  0  0
    4.7526   34.5132   -1.8142 C   0  0  2  0  0  0  0  0  0  0  0  0
    1.1911   34.7467   -2.3717 C   0  0  1  0  0  0  0  0  0  0  0  0
    2.5693   34.5705   -2.6429 O   0  0  0  0  0  0  0  0  0  0  0  0
    8.3884   32.6468   -4.0501 C   0  0  1  0  0  0  0  0  0  0  0  0
    8.7331   31.6956   -5.1493 O   0  0  0  0  0  0  0  0  0  0  0  0
    3.2750   34.3501   -1.5079 C   0  0  2  0  0  0  0  0  0  0  0  0
    0.5152   35.2655   -3.6177 C   0  0  1  0  0  0  0  0  0  0  0  0
    1.0708   36.5216   -3.9794 N   0  0  0  0  0  0  0  0  0  0  0  0
    6.9242   32.5627   -3.6239 C   0  0  2  0  0  0  0  0  0  0  0  0
    5.9603   32.8730   -4.6593 N   0  0  0  0  0  0  0  0  0  0  0  0
    3.0211   35.4134   -0.4726 C   0  0  1  0  0  0  0  0  0  0  0  0
    2.6731   36.6457   -1.1124 O   0  0  0  0  0  0  0  0  0  0  0  0
    0.7512   34.2590   -4.7313 C   0  0  2  0  0  0  0  0  0  0  0  0
    0.1463   34.7015   -5.9267 O   0  0  0  0  0  0  0  0  0  0  0  0
    6.7178   33.5169   -2.4762 C   0  0  1  0  0  0  0  0  0  0  0  0
    5.3697   33.2441   -2.0023 O   0  0  0  0  0  0  0  0  0  0  0  0
    4.3224   35.5621    0.2253 C   0  0  1  0  0  0  0  0  0  0  0  0
    5.3435   35.1940   -0.7047 O   0  0  0  0  0  0  0  0  0  0  0  0
    0.1300   32.9380   -4.2770 C   0  0  1  0  0  0  0  0  0  0  0  0
    0.3155   31.9388   -5.2674 O   0  0  0  0  0  0  0  0  0  0  0  0
    7.6628   33.1499   -1.3004 C   0  0  2  0  0  0  0  0  0  0  0  0
    7.4424   34.0508   -0.2262 O   0  0  0  0  0  0  0  0  0  0  0  0
    0.7894   32.5050   -2.9672 C   0  0  1  0  0  0  0  0  0  0  0  0
    0.6027   33.5110   -1.9730 O   0  0  0  0  0  0  0  0  0  0  0  0
    9.1272   33.2587   -1.7675 C   0  0  1  0  0  0  0  0  0  0  0  0
   10.0130   32.9231   -0.6927 O   0  0  0  0  0  0  0  0  0  0  0  0
    0.1462   31.2006   -2.4956 C   0  0  0  0  0  0  0  0  0  0  0  0
   -1.2372   31.4188   -2.2698 O   0  0  0  0  0  0  0  0  0  0  0  0
   12.3983   31.0996   -2.4696 N   0  0  0  0  0  0  0  0  0  0  0  0
    5.4643   30.8210   -4.8475 N   0  0  0  0  0  0  0  0  0  0  0  0
  1  2  1  0  0  0  0
  1 39  1  0  0  0  0
  3  4  1  0  0  0  0
  5  6  1  0  0  0  0
  5 40  1  0  0  0  0
  9 10  1  6  0  0  0
  9 14  1  0  0  0  0
  9 35  1  0  0  0  0
 10  1  1  0  0  0  0
 11 16  1  0  0  0  0
 11 28  1  0  0  0  0
 11 26  1  1  0  0  0
 12 17  1  0  0  0  0
 12 34  1  0  0  0  0
 12 13  1  6  0  0  0
 14 15  1  6  0  0  0
 14 19  1  0  0  0  0
 16 13  1  6  0  0  0
 16 21  1  0  0  0  0
 17 18  1  6  0  0  0
 17 23  1  0  0  0  0
 18  8  1  0  0  0  0
 19 20  1  6  0  0  0
 19 25  1  0  0  0  0
 20  5  1  0  0  0  0
 21  3  1  1  0  0  0
 21 22  1  0  0  0  0
 21 27  1  0  0  0  0
 23 24  1  6  0  0  0
 23 29  1  0  0  0  0
 25 26  1  1  0  0  0
 25 31  1  0  0  0  0
 27  7  1  6  0  0  0
 27 28  1  0  0  0  0
 29 30  1  6  0  0  0
 29 33  1  0  0  0  0
 31 32  1  1  0  0  0
 31 35  1  0  0  0  0
 33 34  1  0  0  0  0
 33 37  1  1  0  0  0
 35 36  1  1  0  0  0
 37 38  1  0  0  0  0
M  END
>  <CHROM.1>
-118.36588445,70.10650241,171.95580070,168.42989111,-166.11714123,-134.13180009
79.75801513,-125.71652807,-171.34199383,-134.72113854,-60.92423015,4.62524092
33.59825339,-2.70111136,0.17638361,0.19833938,-2.18711367

>  <Name>
1ntb_lig

>  <RI>
0

>  <Rbt.Current_Directory>
/home/itssahil/PROJECTS/Mol_Feturizer/New_Systems/rnas/1ntb

>  <Rbt.Executable>
rbdock ($Id: //depot/dev/client3/rdock/2013.1/src/exe/rbdock.cxx#4 $)

>  <Rbt.Library>
libRbt.so (2013.1, Build901 2013/11/27)

>  <Rbt.Parameter_File>
/export/apps/rDock/src/rDock_2013.1_src/data/scripts/dock_solv.prm

>  <Rbt.Receptor>
prm/pocket_docking_4.prm

>  <SCORE>
-16.6819

>  <SCORE.INTER>
-8.27428

>  <SCORE.INTER.CONST>
1

>  <SCORE.INTER.POLAR>
-2.65138

>  <SCORE.INTER.ROT>
11

>  <SCORE.INTER.SOLV>
40.9334

>  <SCORE.INTER.VDW>
-21.2561

>  <SCORE.INTER.norm>
-0.206857

>  <SCORE.INTRA>
-8.43493

>  <SCORE.INTRA.DIHEDRAL>
-3.17358

>  <SCORE.INTRA.DIHEDRAL.0>
15.4453

>  <SCORE.INTRA.POLAR>
0

>  <SCORE.INTRA.POLAR.0>
0

>  <SCORE.INTRA.REPUL>
-0.782974

>  <SCORE.INTRA.REPUL.0>
0.823958

>  <SCORE.INTRA.SOLV>
-2.08557

>  <SCORE.INTRA.SOLV.lig_0>
-99.3069

>  <SCORE.INTRA.VDW>
-1.89049

>  <SCORE.INTRA.VDW.0>
0.946495

>  <SCORE.INTRA.norm>
-0.210873

>  <SCORE.RESTR>
0.0273442

>  <SCORE.RESTR.CAVITY>
0.0273442

>  <SCORE.RESTR.norm>
0.000683605

>  <SCORE.SYSTEM>
0

>  <SCORE.SYSTEM.CONST>
0

>  <SCORE.SYSTEM.DIHEDRAL>
0

>  <SCORE.SYSTEM.SOLV>
0

>  <SCORE.SYSTEM.norm>
0

>  <SCORE.heavy>
40

>  <SCORE.norm>
-0.417047

>  <RMSD>
5.463

$$$$
1ntb_lig
 OpenBabel11021811403D
libRbt.so/2013.1/901 2013/11/27
 40 42  0  0  0  0  0  0  0  0999 V2000
    7.3652   32.6303   -3.2047 C   0  0  0  0  0  0  0  0  0  0  0  0
    7.1213   31.9217   -4.2384 N   0  0  0  0  0  0  0  0  0  0  0  0
   -0.3468   37.9458    2.4985 C   0  0  0  0  0  0  0  0  0  0  0  0
    0.7768   37.7970    3.3504 O   0  0  0  0  0  0  0  0  0  0  0  0
    1.2355   33.2196   -2.6839 C   0  0  0  0  0  0  0  0  0  0  0  0
    1.3271   32.5724   -3.7906 N   0  0  0  0  0  0  0  0  0  0  0  0
    1.0593   39.5237    0.0261 C   0  0  0  0  0  0  0  0  0  0  0  0
   -4.1705   36.9110    0.2140 C   0  0  0  0  0  0  0  0  0  0  0  0
    5.6007   33.7856   -2.1475 C   0  0  2  0  0  0  0  0  0  0  0  0
    6.7378   33.7893   -3.1464 N   0  0  0  0  0  0  0  0  0  0  0  0
    1.3376   36.0241   -0.1481 C   0  0  2  0  0  0  0  0  0  0  0  0
   -1.8062   35.3692    1.5374 C   0  0  1  0  0  0  0  0  0  0  0  0
   -0.8143   35.4170    0.5284 O   0  0  0  0  0  0  0  0  0  0  0  0
    4.2656   34.0417   -2.8380 C   0  0  1  0  0  0  0  0  0  0  0  0
    4.1493   32.9555   -3.8570 O   0  0  0  0  0  0  0  0  0  0  0  0
    0.2867   36.0869    0.9453 C   0  0  2  0  0  0  0  0  0  0  0  0
   -3.0769   34.8144    0.9408 C   0  0  1  0  0  0  0  0  0  0  0  0
   -3.5308   35.6655   -0.1018 N   0  0  0  0  0  0  0  0  0  0  0  0
    3.0885   34.0776   -1.8655 C   0  0  2  0  0  0  0  0  0  0  0  0
    1.7939   34.3135   -2.4704 N   0  0  0  0  0  0  0  0  0  0  0  0
    0.0271   37.5634    1.0854 C   0  0  1  0  0  0  0  0  0  0  0  0
   -1.0042   37.9668    0.1783 O   0  0  0  0  0  0  0  0  0  0  0  0
   -2.7681   33.4358    0.3814 C   0  0  2  0  0  0  0  0  0  0  0  0
   -3.9243   32.8736   -0.1996 O   0  0  0  0  0  0  0  0  0  0  0  0
    3.3510   35.1656   -0.8568 C   0  0  1  0  0  0  0  0  0  0  0  0
    2.2997   35.0141    0.1372 O   0  0  0  0  0  0  0  0  0  0  0  0
    1.3111   38.1986    0.6977 C   0  0  1  0  0  0  0  0  0  0  0  0
    1.9658   37.3068   -0.2074 O   0  0  0  0  0  0  0  0  0  0  0  0
   -2.2885   32.5772    1.5520 C   0  0  1  0  0  0  0  0  0  0  0  0
   -1.9723   31.2675    1.1065 O   0  0  0  0  0  0  0  0  0  0  0  0
    4.6837   34.8905   -0.1095 C   0  0  2  0  0  0  0  0  0  0  0  0
    4.9043   35.9179    0.8444 O   0  0  0  0  0  0  0  0  0  0  0  0
   -1.0536   33.2310    2.1727 C   0  0  1  0  0  0  0  0  0  0  0  0
   -1.3731   34.5478    2.6192 O   0  0  0  0  0  0  0  0  0  0  0  0
    5.8448   34.8744   -1.1224 C   0  0  1  0  0  0  0  0  0  0  0  0
    7.0831   34.6216   -0.4479 O   0  0  0  0  0  0  0  0  0  0  0  0
   -0.5928   32.3900    3.3634 C   0  0  0  0  0  0  0  0  0  0  0  0
    0.6050   32.9410    3.8869 O   0  0  0  0  0  0  0  0  0  0  0  0
    8.1878   32.2553   -2.2890 N   0  0  0  0  0  0  0  0  0  0  0  0
    0.5111   32.7761   -1.7755 N   0  0  0  0  0  0  0  0  0  0  0  0
  1  2  1  0  0  0  0
  1 39  1  0  0  0  0
  3  4  1  0  0  0  0
  5  6  1  0  0  0  0
  5 40  1  0  0  0  0
  9 10  1  6  0  0  0
  9 14  1  0  0  0  0
  9 35  1  0  0  0  0
 10  1  1  0  0  0  0
 11 16  1  0  0  0  0
 11 28  1  0  0  0  0
 11 26  1  1  0  0  0
 12 17  1  0  0  0  0
 12 34  1  0  0  0  0
 12 13  1  6  0  0  0
 14 15  1  6  0  0  0
 14 19  1  0  0  0  0
 16 13  1  6  0  0  0
 16 21  1  0  0  0  0
 17 18  1  6  0  0  0
 17 23  1  0  0  0  0
 18  8  1  0  0  0  0
 19 20  1  6  0  0  0
 19 25  1  0  0  0  0
 20  5  1  0  0  0  0
 21  3  1  1  0  0  0
 21 22  1  0  0  0  0
 21 27  1  0  0  0  0
 23 24  1  1  0  0  0
 23 29  1  0  0  0  0
 25 26  1  1  0  0  0
 25 31  1  0  0  0  0
 27  7  1  6  0  0  0
 27 28  1  0  0  0  0
 29 30  1  6  0  0  0
 29 33  1  0  0  0  0
 31 32  1  1  0  0  0
 31 35  1  0  0  0  0
 33 34  1  0  0  0  0
 33 37  1  1  0  0  0
 35 36  1  1  0  0  0
 37 38  1  0  0  0  0
M  END
>  <CHROM.1>
-118.12368391,105.55310335,-172.07410817,170.89622340,176.46477710,-75.74777217
95.04683305,-92.23233435,69.02184788,-101.75941388,176.05467374,1.42510142
34.73200377,-0.19606478,0.35444790,-0.32324490,-2.68357590

>  <Name>
1ntb_lig

>  <RI>
0

>  <Rbt.Current_Directory>
/home/itssahil/PROJECTS/Mol_Feturizer/New_Systems/rnas/1ntb

>  <Rbt.Executable>
rbdock ($Id: //depot/dev/client3/rdock/2013.1/src/exe/rbdock.cxx#4 $)

>  <Rbt.Library>
libRbt.so (2013.1, Build901 2013/11/27)

>  <Rbt.Parameter_File>
/export/apps/rDock/src/rDock_2013.1_src/data/scripts/dock_solv.prm

>  <Rbt.Receptor>
prm/pocket_docking_5.prm

>  <SCORE>
-15.3514

>  <SCORE.INTER>
-2.82614

>  <SCORE.INTER.CONST>
1

>  <SCORE.INTER.POLAR>
-1.62183

>  <SCORE.INTER.ROT>
11

>  <SCORE.INTER.SOLV>
23.3511

>  <SCORE.INTER.VDW>
-15.195

>  <SCORE.INTER.norm>
-0.0706536

>  <SCORE.INTRA>
-12.542

>  <SCORE.INTRA.DIHEDRAL>
-5.19266

>  <SCORE.INTRA.DIHEDRAL.0>
15.4453

>  <SCORE.INTRA.POLAR>
0

>  <SCORE.INTRA.POLAR.0>
0

>  <SCORE.INTRA.REPUL>
-0.823958

>  <SCORE.INTRA.REPUL.0>
0.823958

>  <SCORE.INTRA.SOLV>
-0.966779

>  <SCORE.INTRA.SOLV.lig_0>
-99.3069

>  <SCORE.INTRA.VDW>
-5.34253

>  <SCORE.INTRA.VDW.0>
0.946495

>  <SCORE.INTRA.norm>
-0.313551

>  <SCORE.RESTR>
0.0168147

>  <SCORE.RESTR.CAVITY>
0.0168147

>  <SCORE.RESTR.norm>
0.000420367

>  <SCORE.SYSTEM>
0

>  <SCORE.SYSTEM.CONST>
0

>  <SCORE.SYSTEM.DIHEDRAL>
0

>  <SCORE.SYSTEM.SOLV>
0

>  <SCORE.SYSTEM.norm>
0

>  <SCORE.heavy>
40

>  <SCORE.norm>
-0.383784

>  <RMSD>
5.469

$$$$
1ntb_lig
 OpenBabel11021811403D
libRbt.so/2013.1/901 2013/11/27
 40 42  0  0  0  0  0  0  0  0999 V2000
    4.1865   37.6569    1.1122 C   0  0  0  0  0  0  0  0  0  0  0  0
    3.8869   38.8958    1.0364 N   0  0  0  0  0  0  0  0  0  0  0  0
   -2.6041   32.4585   -5.0637 C   0  0  0  0  0  0  0  0  0  0  0  0
   -2.6677   33.7401   -5.6667 O   0  0  0  0  0  0  0  0  0  0  0  0
    0.0479   37.6402   -3.6965 C   0  0  0  0  0  0  0  0  0  0  0  0
    0.2583   38.8751   -3.4089 N   0  0  0  0  0  0  0  0  0  0  0  0
   -0.0816   30.9115   -6.4142 C   0  0  0  0  0  0  0  0  0  0  0  0
   -4.1446   35.0035   -2.8722 C   0  0  0  0  0  0  0  0  0  0  0  0
    2.9428   36.4043   -0.4530 C   0  0  2  0  0  0  0  0  0  0  0  0
    3.1773   36.8170    0.9842 N   0  0  0  0  0  0  0  0  0  0  0  0
    0.8099   33.2431   -3.9395 C   0  0  2  0  0  0  0  0  0  0  0  0
   -1.2693   33.8841   -1.5408 C   0  0  1  0  0  0  0  0  0  0  0  0
   -0.8545   32.8063   -2.3596 O   0  0  0  0  0  0  0  0  0  0  0  0
    1.5453   36.8024   -0.9150 C   0  0  1  0  0  0  0  0  0  0  0  0
    1.4857   38.2819   -0.7168 O   0  0  0  0  0  0  0  0  0  0  0  0
   -0.6783   33.1975   -3.6444 C   0  0  2  0  0  0  0  0  0  0  0  0
   -2.7470   33.7428   -1.2669 C   0  0  1  0  0  0  0  0  0  0  0  0
   -3.4702   33.7960   -2.4881 N   0  0  0  0  0  0  0  0  0  0  0  0
    1.2495   36.3795   -2.3524 C   0  0  2  0  0  0  0  0  0  0  0  0
   -0.0649   36.7376   -2.8440 N   0  0  0  0  0  0  0  0  0  0  0  0
   -1.1889   32.1704   -4.6199 C   0  0  1  0  0  0  0  0  0  0  0  0
   -1.1125   30.8642   -4.0393 O   0  0  0  0  0  0  0  0  0  0  0  0
   -2.9716   32.3989   -0.5945 C   0  0  2  0  0  0  0  0  0  0  0  0
   -4.3435   32.2105   -0.3242 O   0  0  0  0  0  0  0  0  0  0  0  0
    1.4011   34.8829   -2.4380 C   0  0  1  0  0  0  0  0  0  0  0  0
    1.2978   34.5780   -3.8566 O   0  0  0  0  0  0  0  0  0  0  0  0
   -0.2549   32.2623   -5.7695 C   0  0  1  0  0  0  0  0  0  0  0  0
    0.9971   32.7262   -5.2590 O   0  0  0  0  0  0  0  0  0  0  0  0
   -2.1690   32.4120    0.7067 C   0  0  1  0  0  0  0  0  0  0  0  0
   -2.3233   31.1803    1.3943 O   0  0  0  0  0  0  0  0  0  0  0  0
    2.8368   34.4670   -2.0185 C   0  0  2  0  0  0  0  0  0  0  0  0
    2.9624   33.0570   -2.1198 O   0  0  0  0  0  0  0  0  0  0  0  0
   -0.6944   32.6457    0.3769 C   0  0  1  0  0  0  0  0  0  0  0  0
   -0.5413   33.8839   -0.3151 O   0  0  0  0  0  0  0  0  0  0  0  0
    3.0903   34.9002   -0.5617 C   0  0  1  0  0  0  0  0  0  0  0  0
    4.4123   34.5231   -0.1588 O   0  0  0  0  0  0  0  0  0  0  0  0
    0.1041   32.6912    1.6799 C   0  0  0  0  0  0  0  0  0  0  0  0
    0.0997   31.4029    2.2738 O   0  0  0  0  0  0  0  0  0  0  0  0
    5.3882   37.2490    1.3250 N   0  0  0  0  0  0  0  0  0  0  0  0
   -0.1084   37.3082   -4.8848 N   0  0  0  0  0  0  0  0  0  0  0  0
  1  2  1  0  0  0  0
  1 39  1  0  0  0  0
  3  4  1  0  0  0  0
  5  6  1  0  0  0  0
  5 40  1  0  0  0  0
  9 10  1  1  0  0  0
  9 14  1  0  0  0  0
  9 35  1  0  0  0  0
 10  1  1  0  0  0  0
 11 16  1  0  0  0  0
 11 28  1  0  0  0  0
 11 26  1  6  0  0  0
 12 17  1  0  0  0  0
 12 34  1  0  0  0  0
 12 13  1  6  0  0  0
 14 15  1  6  0  0  0
 14 19  1  0  0  0  0
 16 13  1  1  0  0  0
 16 21  1  0  0  0  0
 17 18  1  6  0  0  0
 17 23  1  0  0  0  0
 18  8  1  0  0  0  0
 19 20  1  1  0  0  0
 19 25  1  0  0  0  0
 20  5  1  0  0  0  0
 21  3  1  6  0  0  0
 21 22  1  0  0  0  0
 21 27  1  0  0  0  0
 23 24  1  1  0  0  0
 23 29  1  0  0  0  0
 25 26  1  6  0  0  0
 25 31  1  0  0  0  0
 27  7  1  1  0  0  0
 27 28  1  0  0  0  0
 29 30  1  6  0  0  0
 29 33  1  0  0  0  0
 31 32  1  1  0  0  0
 31 35  1  0  0  0  0
 33 34  1  0  0  0  0
 33 37  1  1  0  0  0
 35 36  1  6  0  0  0
 37 38  1  0  0  0  0
M  END
>  <CHROM.1>
-119.66248865,90.38766257,76.38357381,103.71233441,107.11028878,-101.53229467
109.50665701,-77.45862184,58.57681526,-153.22402634,67.73187221,0.17605688
34.32814690,-1.89340401,0.28387557,0.76851033,1.80782373

>  <Name>
1ntb_lig

>  <RI>
0

>  <Rbt.Current_Directory>
/home/itssahil/PROJECTS/Mol_Feturizer/New_Systems/rnas/1ntb

>  <Rbt.Executable>
rbdock ($Id: //depot/dev/client3/rdock/2013.1/src/exe/rbdock.cxx#4 $)

>  <Rbt.Library>
libRbt.so (2013.1, Build901 2013/11/27)

>  <Rbt.Parameter_File>
/export/apps/rDock/src/rDock_2013.1_src/data/scripts/dock_solv.prm

>  <Rbt.Receptor>
prm/pocket_docking_7.prm

>  <SCORE>
-6.98775

>  <SCORE.INTER>
2.2905

>  <SCORE.INTER.CONST>
1

>  <SCORE.INTER.POLAR>
-0.202527

>  <SCORE.INTER.ROT>
11

>  <SCORE.INTER.SOLV>
12.2942

>  <SCORE.INTER.VDW>
-12.8293

>  <SCORE.INTER.norm>
0.0572625

>  <SCORE.INTRA>
-9.27825

>  <SCORE.INTRA.DIHEDRAL>
5.8601

>  <SCORE.INTRA.DIHEDRAL.0>
15.4453

>  <SCORE.INTRA.POLAR>
0

>  <SCORE.INTRA.POLAR.0>
0

>  <SCORE.INTRA.REPUL>
-0.823958

>  <SCORE.INTRA.REPUL.0>
0.823958

>  <SCORE.INTRA.SOLV>
-0.423238

>  <SCORE.INTRA.SOLV.lig_0>
-99.3069

>  <SCORE.INTRA.VDW>
-7.87689

>  <SCORE.INTRA.VDW.0>
0.946495

>  <SCORE.INTRA.norm>
-0.231956

>  <SCORE.RESTR>
0

>  <SCORE.RESTR.CAVITY>
0

>  <SCORE.RESTR.norm>
0

>  <SCORE.SYSTEM>
0

>  <SCORE.SYSTEM.CONST>
0

>  <SCORE.SYSTEM.DIHEDRAL>
0

>  <SCORE.SYSTEM.SOLV>
0

>  <SCORE.SYSTEM.norm>
0

>  <SCORE.heavy>
40

>  <SCORE.norm>
-0.174694

>  <RMSD>
5.498

$$$$
1ntb_lig
 OpenBabel11021811403D
libRbt.so/2013.1/901 2013/11/27
 40 42  0  0  0  0  0  0  0  0999 V2000
    7.2799   32.6121   -3.2643 C   0  0  0  0  0  0  0  0  0  0  0  0
    6.8695   31.8962   -4.2386 N   0  0  0  0  0  0  0  0  0  0  0  0
    0.1381   37.7427    3.0821 C   0  0  0  0  0  0  0  0  0  0  0  0
    0.1685   39.0923    3.5159 O   0  0  0  0  0  0  0  0  0  0  0  0
    1.2368   33.1111   -2.8547 C   0  0  0  0  0  0  0  0  0  0  0  0
    0.6424   32.3895   -1.9726 N   0  0  0  0  0  0  0  0  0  0  0  0
    1.9684   39.5510    1.0920 C   0  0  0  0  0  0  0  0  0  0  0  0
   -3.6597   38.1300    0.9172 C   0  0  0  0  0  0  0  0  0  0  0  0
    5.5509   33.7955   -2.1800 C   0  0  2  0  0  0  0  0  0  0  0  0
    6.7134   33.7979   -3.1493 N   0  0  0  0  0  0  0  0  0  0  0  0
    1.4654   36.2504   -0.0075 C   0  0  2  0  0  0  0  0  0  0  0  0
   -1.7918   35.7853    1.5051 C   0  0  1  0  0  0  0  0  0  0  0  0
   -0.7954   35.9923    0.5210 O   0  0  0  0  0  0  0  0  0  0  0  0
    4.2289   34.0009   -2.9115 C   0  0  1  0  0  0  0  0  0  0  0  0
    4.1640   32.8840   -3.9016 O   0  0  0  0  0  0  0  0  0  0  0  0
    0.4081   36.2617    1.0814 C   0  0  2  0  0  0  0  0  0  0  0  0
   -3.1370   35.7138    0.8239 C   0  0  1  0  0  0  0  0  0  0  0  0
   -3.4049   36.9391    0.1574 N   0  0  0  0  0  0  0  0  0  0  0  0
    3.0262   34.0364   -1.9707 C   0  0  2  0  0  0  0  0  0  0  0  0
    1.7429   34.2249   -2.6151 N   0  0  0  0  0  0  0  0  0  0  0  0
    0.4788   37.6690    1.6120 C   0  0  1  0  0  0  0  0  0  0  0  0
   -0.3954   38.5189    0.8620 O   0  0  0  0  0  0  0  0  0  0  0  0
   -3.0905   34.5790   -0.1854 C   0  0  2  0  0  0  0  0  0  0  0  0
   -4.3249   34.4741   -0.8605 O   0  0  0  0  0  0  0  0  0  0  0  0
    3.2374   35.1581   -0.9872 C   0  0  1  0  0  0  0  0  0  0  0  0
    2.1641   35.0100   -0.0165 O   0  0  0  0  0  0  0  0  0  0  0  0
    1.8880   38.0750    1.3842 C   0  0  1  0  0  0  0  0  0  0  0  0
    2.3662   37.3266    0.2642 O   0  0  0  0  0  0  0  0  0  0  0  0
   -2.8006   33.2981    0.5973 C   0  0  1  0  0  0  0  0  0  0  0  0
   -2.7351   32.1863   -0.2820 O   0  0  0  0  0  0  0  0  0  0  0  0
    4.5560   34.9353   -0.1985 C   0  0  2  0  0  0  0  0  0  0  0  0
    4.7282   35.9940    0.7308 O   0  0  0  0  0  0  0  0  0  0  0  0
   -1.4719   33.4592    1.3366 C   0  0  1  0  0  0  0  0  0  0  0  0
   -1.5393   34.5778    2.2195 O   0  0  0  0  0  0  0  0  0  0  0  0
    5.7432   34.9180   -1.1806 C   0  0  1  0  0  0  0  0  0  0  0  0
    6.9689   34.7133   -0.4677 O   0  0  0  0  0  0  0  0  0  0  0  0
   -1.1973   32.1911    2.1452 C   0  0  0  0  0  0  0  0  0  0  0  0
   -2.2380   32.0079    3.0917 O   0  0  0  0  0  0  0  0  0  0  0  0
    8.2034   32.2184   -2.4594 N   0  0  0  0  0  0  0  0  0  0  0  0
    1.3747   32.6724   -4.0102 N   0  0  0  0  0  0  0  0  0  0  0  0
  1  2  1  0  0  0  0
  1 39  1  0  0  0  0
  3  4  1  0  0  0  0
  5  6  1  0  0  0  0
  5 40  1  0  0  0  0
  9 10  1  6  0  0  0
  9 14  1  0  0  0  0
  9 35  1  0  0  0  0
 10  1  1  0  0  0  0
 11 16  1  0  0  0  0
 11 28  1  0  0  0  0
 11 26  1  1  0  0  0
 12 17  1  0  0  0  0
 12 34  1  0  0  0  0
 12 13  1  6  0  0  0
 14 15  1  6  0  0  0
 14 19  1  0  0  0  0
 16 13  1  6  0  0  0
 16 21  1  0  0  0  0
 17 18  1  6  0  0  0
 17 23  1  0  0  0  0
 18  8  1  0  0  0  0
 19 20  1  6  0  0  0
 19 25  1  0  0  0  0
 20  5  1  0  0  0  0
 21  3  1  1  0  0  0
 21 22  1  0  0  0  0
 21 27  1  0  0  0  0
 23 24  1  1  0  0  0
 23 29  1  0  0  0  0
 25 26  1  1  0  0  0
 25 31  1  0  0  0  0
 27  7  1  6  0  0  0
 27 28  1  0  0  0  0
 29 30  1  6  0  0  0
 29 33  1  0  0  0  0
 31 32  1  1  0  0  0
 31 35  1  0  0  0  0
 33 34  1  0  0  0  0
 33 37  1  1  0  0  0
 35 36  1  1  0  0  0
 37 38  1  0  0  0  0
M  END
>  <CHROM.1>
-111.35079189,95.14889044,-173.99848280,170.95143988,170.99333785,-69.15568640
92.69209839,78.81878759,-177.70783039,-123.52256884,-60.86939578,1.32787627
34.97662723,-0.28102434,0.45032908,-0.24258024,-2.57436392

>  <Name>
1ntb_lig

>  <RI>
0

>  <Rbt.Current_Directory>
/home/itssahil/PROJECTS/Mol_Feturizer/New_Systems/rnas/1ntb

>  <Rbt.Executable>
rbdock ($Id: //depot/dev/client3/rdock/2013.1/src/exe/rbdock.cxx#4 $)

>  <Rbt.Library>
libRbt.so (2013.1, Build901 2013/11/27)

>  <Rbt.Parameter_File>
/export/apps/rDock/src/rDock_2013.1_src/data/scripts/dock_solv.prm

>  <Rbt.Receptor>
prm/pocket_docking_4.prm

>  <SCORE>
-12.8283

>  <SCORE.INTER>
-0.457872

>  <SCORE.INTER.CONST>
1

>  <SCORE.INTER.POLAR>
-1.1373

>  <SCORE.INTER.ROT>
11

>  <SCORE.INTER.SOLV>
23.0248

>  <SCORE.INTER.VDW>
-15.1225

>  <SCORE.INTER.norm>
-0.0114468

>  <SCORE.INTRA>
-12.3704

>  <SCORE.INTRA.DIHEDRAL>
-4.00818

>  <SCORE.INTRA.DIHEDRAL.0>
15.4453

>  <SCORE.INTRA.POLAR>
0

>  <SCORE.INTRA.POLAR.0>
0

>  <SCORE.INTRA.REPUL>
-0.823958

>  <SCORE.INTRA.REPUL.0>
0.823958

>  <SCORE.INTRA.SOLV>
-1.48149

>  <SCORE.INTRA.SOLV.lig_0>
-99.3069

>  <SCORE.INTRA.VDW>
-5.50581

>  <SCORE.INTRA.VDW.0>
0.946495

>  <SCORE.INTRA.norm>
-0.309261

>  <SCORE.RESTR>
0

>  <SCORE.RESTR.CAVITY>
0

>  <SCORE.RESTR.norm>
0

>  <SCORE.SYSTEM>
0

>  <SCORE.SYSTEM.CONST>
0

>  <SCORE.SYSTEM.DIHEDRAL>
0

>  <SCORE.SYSTEM.SOLV>
0

>  <SCORE.SYSTEM.norm>
0

>  <SCORE.heavy>
40

>  <SCORE.norm>
-0.320708

>  <RMSD>
5.555

$$$$
1ntb_lig
 OpenBabel11021811403D
libRbt.so/2013.1/901 2013/11/27
 40 42  0  0  0  0  0  0  0  0999 V2000
    6.7233   32.5383   -3.3926 C   0  0  0  0  0  0  0  0  0  0  0  0
    7.8225   32.1680   -2.8588 N   0  0  0  0  0  0  0  0  0  0  0  0
    0.0701   38.1739    3.2106 C   0  0  0  0  0  0  0  0  0  0  0  0
    0.0121   39.5556    3.5232 O   0  0  0  0  0  0  0  0  0  0  0  0
    0.8338   33.3239   -2.2698 C   0  0  0  0  0  0  0  0  0  0  0  0
    0.4700   32.6905   -1.2121 N   0  0  0  0  0  0  0  0  0  0  0  0
    1.7877   39.8691    1.0297 C   0  0  0  0  0  0  0  0  0  0  0  0
   -3.5974   38.3122    1.6478 C   0  0  0  0  0  0  0  0  0  0  0  0
    5.2651   33.8504   -2.0820 C   0  0  2  0  0  0  0  0  0  0  0  0
    6.3519   33.7772   -3.1330 N   0  0  0  0  0  0  0  0  0  0  0  0
    1.3561   36.4784    0.2096 C   0  0  2  0  0  0  0  0  0  0  0  0
   -1.8014   35.8959    1.8561 C   0  0  1  0  0  0  0  0  0  0  0  0
   -0.8801   36.1990    0.8250 O   0  0  0  0  0  0  0  0  0  0  0  0
    3.9003   34.0801   -2.7221 C   0  0  1  0  0  0  0  0  0  0  0  0
    3.7236   32.9339   -3.6638 O   0  0  0  0  0  0  0  0  0  0  0  0
    0.3297   36.5463    1.3257 C   0  0  2  0  0  0  0  0  0  0  0  0
   -3.1951   35.8998    1.2763 C   0  0  1  0  0  0  0  0  0  0  0  0
   -3.4984   37.1880    0.7608 N   0  0  0  0  0  0  0  0  0  0  0  0
    2.7727   34.1917   -1.6980 C   0  0  2  0  0  0  0  0  0  0  0  0
    1.4524   34.4060   -2.2534 N   0  0  0  0  0  0  0  0  0  0  0  0
    0.3719   37.9929    1.7413 C   0  0  1  0  0  0  0  0  0  0  0  0
   -0.5487   38.7551    0.9534 O   0  0  0  0  0  0  0  0  0  0  0  0
   -3.2384   34.8744    0.1558 C   0  0  2  0  0  0  0  0  0  0  0  0
   -4.5215   34.8440   -0.4300 O   0  0  0  0  0  0  0  0  0  0  0  0
    3.0949   35.3372   -0.7737 C   0  0  1  0  0  0  0  0  0  0  0  0
    2.0921   35.2616    0.2774 O   0  0  0  0  0  0  0  0  0  0  0  0
    1.7610   38.4194    1.4397 C   0  0  1  0  0  0  0  0  0  0  0  0
    2.2305   37.5980    0.3682 O   0  0  0  0  0  0  0  0  0  0  0  0
   -2.9049   33.5188    0.7792 C   0  0  1  0  0  0  0  0  0  0  0  0
   -2.9193   32.5029   -0.2115 O   0  0  0  0  0  0  0  0  0  0  0  0
    4.4599   35.0921   -0.0758 C   0  0  2  0  0  0  0  0  0  0  0  0
    4.7370   36.1742    0.7997 O   0  0  0  0  0  0  0  0  0  0  0  0
   -1.5223   33.5981    1.4272 C   0  0  1  0  0  0  0  0  0  0  0  0
   -1.5095   34.6204    2.4222 O   0  0  0  0  0  0  0  0  0  0  0  0
    5.5697   34.9979   -1.1406 C   0  0  1  0  0  0  0  0  0  0  0  0
    6.8370   34.7718   -0.5120 O   0  0  0  0  0  0  0  0  0  0  0  0
   -1.2020   32.2526    2.0787 C   0  0  0  0  0  0  0  0  0  0  0  0
   -2.2425   31.9128    2.9810 O   0  0  0  0  0  0  0  0  0  0  0  0
    6.0077   31.7510   -4.1163 N   0  0  0  0  0  0  0  0  0  0  0  0
    0.6141   32.8234   -3.3869 N   0  0  0  0  0  0  0  0  0  0  0  0
  1  2  1  0  0  0  0
  1 39  1  0  0  0  0
  3  4  1  0  0  0  0
  5  6  1  0  0  0  0
  5 40  1  0  0  0  0
  9 10  1  6  0  0  0
  9 14  1  0  0  0  0
  9 35  1  0  0  0  0
 10  1  1  0  0  0  0
 11 16  1  0  0  0  0
 11 28  1  0  0  0  0
 11 26  1  1  0  0  0
 12 17  1  0  0  0  0
 12 34  1  0  0  0  0
 12 13  1  6  0  0  0
 14 15  1  6  0  0  0
 14 19  1  0  0  0  0
 16 13  1  6  0  0  0
 16 21  1  0  0  0  0
 17 18  1  6  0  0  0
 17 23  1  0  0  0  0
 18  8  1  0  0  0  0
 19 20  1  6  0  0  0
 19 25  1  0  0  0  0
 20  5  1  0  0  0  0
 21  3  1  1  0  0  0
 21 22  1  0  0  0  0
 21 27  1  0  0  0  0
 23 24  1  1  0  0  0
 23 29  1  0  0  0  0
 25 26  1  1  0  0  0
 25 31  1  0  0  0  0
 27  7  1  6  0  0  0
 27 28  1  0  0  0  0
 29 30  1  6  0  0  0
 29 33  1  0  0  0  0
 31 32  1  1  0  0  0
 31 35  1  0  0  0  0
 33 34  1  0  0  0  0
 33 37  1  1  0  0  0
 35 36  1  1  0  0  0
 37 38  1  0  0  0  0
M  END
>  <CHROM.1>
-101.58764029,-102.18180194,-176.47772579,164.29671190,164.35543299,-65.20669815
100.37147345,66.40053133,-175.11910536,-118.20232903,-54.98651266,1.13893896
35.15219849,-0.08484793,0.48544131,-0.27504226,-2.62690065

>  <Name>
1ntb_lig

>  <RI>
0

>  <Rbt.Current_Directory>
/home/itssahil/PROJECTS/Mol_Feturizer/New_Systems/rnas/1ntb

>  <Rbt.Executable>
rbdock ($Id: //depot/dev/client3/rdock/2013.1/src/exe/rbdock.cxx#4 $)

>  <Rbt.Library>
libRbt.so (2013.1, Build901 2013/11/27)

>  <Rbt.Parameter_File>
/export/apps/rDock/src/rDock_2013.1_src/data/scripts/dock_solv.prm

>  <Rbt.Receptor>
prm/pocket_docking_4.prm

>  <SCORE>
-13.5785

>  <SCORE.INTER>
-2.44462

>  <SCORE.INTER.CONST>
1

>  <SCORE.INTER.POLAR>
-1.63153

>  <SCORE.INTER.ROT>
11

>  <SCORE.INTER.SOLV>
19.8738

>  <SCORE.INTER.VDW>
-13.7493

>  <SCORE.INTER.norm>
-0.0611155

>  <SCORE.INTRA>
-11.1339

>  <SCORE.INTRA.DIHEDRAL>
-2.42349

>  <SCORE.INTRA.DIHEDRAL.0>
15.4453

>  <SCORE.INTRA.POLAR>
0

>  <SCORE.INTRA.POLAR.0>
0

>  <SCORE.INTRA.REPUL>
-0.823958

>  <SCORE.INTRA.REPUL.0>
0.823958

>  <SCORE.INTRA.SOLV>
0.0981458

>  <SCORE.INTRA.SOLV.lig_0>
-99.3069

>  <SCORE.INTRA.VDW>
-5.85142

>  <SCORE.INTRA.VDW.0>
0.946495

>  <SCORE.INTRA.norm>
-0.278347

>  <SCORE.RESTR>
0

>  <SCORE.RESTR.CAVITY>
0

>  <SCORE.RESTR.norm>
0

>  <SCORE.SYSTEM>
0

>  <SCORE.SYSTEM.CONST>
0

>  <SCORE.SYSTEM.DIHEDRAL>
0

>  <SCORE.SYSTEM.SOLV>
0

>  <SCORE.SYSTEM.norm>
0

>  <SCORE.heavy>
40

>  <SCORE.norm>
-0.339463

>  <RMSD>
5.669

$$$$
1ntb_lig
 OpenBabel11021811403D
libRbt.so/2013.1/901 2013/11/27
 40 42  0  0  0  0  0  0  0  0999 V2000
    6.6098   32.6330   -3.3276 C   0  0  0  0  0  0  0  0  0  0  0  0
    7.7017   32.3364   -2.7358 N   0  0  0  0  0  0  0  0  0  0  0  0
   -1.3564   37.8163    2.2488 C   0  0  0  0  0  0  0  0  0  0  0  0
   -1.8880   39.1279    2.1619 O   0  0  0  0  0  0  0  0  0  0  0  0
    0.7122   33.1472   -2.6061 C   0  0  0  0  0  0  0  0  0  0  0  0
    0.2857   32.3193   -1.7202 N   0  0  0  0  0  0  0  0  0  0  0  0
   -0.0788   39.3414   -0.3245 C   0  0  0  0  0  0  0  0  0  0  0  0
   -5.5499   34.9624   -0.2619 C   0  0  0  0  0  0  0  0  0  0  0  0
    5.0239   33.8444   -2.0693 C   0  0  2  0  0  0  0  0  0  0  0  0
    6.1422   33.8432   -3.0893 N   0  0  0  0  0  0  0  0  0  0  0  0
    0.6592   35.9084   -0.1661 C   0  0  2  0  0  0  0  0  0  0  0  0
   -2.4092   34.9585    1.5148 C   0  0  1  0  0  0  0  0  0  0  0  0
   -1.4185   35.0829    0.5113 O   0  0  0  0  0  0  0  0  0  0  0  0
    3.6702   34.0423   -2.7425 C   0  0  1  0  0  0  0  0  0  0  0  0
    3.5641   32.9192   -3.7220 O   0  0  0  0  0  0  0  0  0  0  0  0
   -0.4300   35.9277    0.8908 C   0  0  2  0  0  0  0  0  0  0  0  0
   -3.5590   34.1516    0.9622 C   0  0  1  0  0  0  0  0  0  0  0  0
   -4.1255   34.8228   -0.1541 N   0  0  0  0  0  0  0  0  0  0  0  0
    2.5105   34.0810   -1.7495 C   0  0  2  0  0  0  0  0  0  0  0  0
    1.1993   34.2627   -2.3373 N   0  0  0  0  0  0  0  0  0  0  0  0
   -0.8847   37.3631    0.8869 C   0  0  1  0  0  0  0  0  0  0  0  0
   -1.9260   37.5435   -0.0786 O   0  0  0  0  0  0  0  0  0  0  0  0
   -3.0163   32.8003    0.5285 C   0  0  2  0  0  0  0  0  0  0  0  0
   -4.0523   32.0063   -0.0073 O   0  0  0  0  0  0  0  0  0  0  0  0
    2.7624   35.2093   -0.7832 C   0  0  1  0  0  0  0  0  0  0  0  0
    1.7336   35.0648    0.2351 O   0  0  0  0  0  0  0  0  0  0  0  0
    0.3188   38.1265    0.4732 C   0  0  1  0  0  0  0  0  0  0  0  0
    1.1167   37.2529   -0.3289 O   0  0  0  0  0  0  0  0  0  0  0  0
   -2.4259   32.1370    1.7730 C   0  0  1  0  0  0  0  0  0  0  0  0
   -1.8895   30.8644    1.4468 O   0  0  0  0  0  0  0  0  0  0  0  0
    4.1152   34.9943   -0.0526 C   0  0  2  0  0  0  0  0  0  0  0  0
    4.3260   36.0590    0.8618 O   0  0  0  0  0  0  0  0  0  0  0  0
   -1.3282   33.0373    2.3407 C   0  0  1  0  0  0  0  0  0  0  0  0
   -1.8690   34.3165    2.6673 O   0  0  0  0  0  0  0  0  0  0  0  0
    5.2577   34.9735   -1.0863 C   0  0  1  0  0  0  0  0  0  0  0  0
    6.5143   34.7759   -0.4273 O   0  0  0  0  0  0  0  0  0  0  0  0
   -0.7595   32.3899    3.6037 C   0  0  0  0  0  0  0  0  0  0  0  0
    0.2979   33.1931    4.1029 O   0  0  0  0  0  0  0  0  0  0  0  0
    5.9884   31.8010   -4.0874 N   0  0  0  0  0  0  0  0  0  0  0  0
    0.6978   32.8189   -3.8056 N   0  0  0  0  0  0  0  0  0  0  0  0
  1  2  1  0  0  0  0
  1 39  1  0  0  0  0
  3  4  1  0  0  0  0
  5  6  1  0  0  0  0
  5 40  1  0  0  0  0
  9 10  1  6  0  0  0
  9 14  1  0  0  0  0
  9 35  1  0  0  0  0
 10  1  1  0  0  0  0
 11 16  1  0  0  0  0
 11 28  1  0  0  0  0
 11 26  1  1  0  0  0
 12 17  1  0  0  0  0
 12 34  1  0  0  0  0
 12 13  1  6  0  0  0
 14 15  1  6  0  0  0
 14 19  1  0  0  0  0
 16 13  1  6  0  0  0
 16 21  1  0  0  0  0
 17 18  1  6  0  0  0
 17 23  1  0  0  0  0
 18  8  1  0  0  0  0
 19 20  1  6  0  0  0
 19 25  1  0  0  0  0
 20  5  1  0  0  0  0
 21  3  1  1  0  0  0
 21 22  1  0  0  0  0
 21 27  1  0  0  0  0
 23 24  1  1  0  0  0
 23 29  1  0  0  0  0
 25 26  1  1  0  0  0
 25 31  1  0  0  0  0
 27  7  1  6  0  0  0
 27 28  1  0  0  0  0
 29 30  1  6  0  0  0
 29 33  1  0  0  0  0
 31 32  1  1  0  0  0
 31 35  1  0  0  0  0
 33 34  1  0  0  0  0
 33 37  1  1  0  0  0
 35 36  1  1  0  0  0
 37 38  1  0  0  0  0
M  END
>  <CHROM.1>
-104.53357337,-100.62394788,-175.17258601,172.79631962,174.48026449,-133.61242280
89.55815399,71.90360921,-174.55737124,-94.05391406,177.55690660,0.77094989
34.57344302,-0.22491123,0.26728653,-0.37378361,-2.83928213

>  <Name>
1ntb_lig

>  <RI>
0

>  <Rbt.Current_Directory>
/home/itssahil/PROJECTS/Mol_Feturizer/New_Systems/rnas/1ntb

>  <Rbt.Executable>
rbdock ($Id: //depot/dev/client3/rdock/2013.1/src/exe/rbdock.cxx#4 $)

>  <Rbt.Library>
libRbt.so (2013.1, Build901 2013/11/27)

>  <Rbt.Parameter_File>
/export/apps/rDock/src/rDock_2013.1_src/data/scripts/dock_solv.prm

>  <Rbt.Receptor>
prm/pocket_docking_5.prm

>  <SCORE>
-14.8901

>  <SCORE.INTER>
-1.94069

>  <SCORE.INTER.CONST>
1

>  <SCORE.INTER.POLAR>
-1.70657

>  <SCORE.INTER.ROT>
11

>  <SCORE.INTER.SOLV>
21.6094

>  <SCORE.INTER.VDW>
-13.7417

>  <SCORE.INTER.norm>
-0.0485173

>  <SCORE.INTRA>
-12.9614

>  <SCORE.INTRA.DIHEDRAL>
-6.28556

>  <SCORE.INTRA.DIHEDRAL.0>
15.4453

>  <SCORE.INTRA.POLAR>
0

>  <SCORE.INTRA.POLAR.0>
0

>  <SCORE.INTRA.REPUL>
-0.823958

>  <SCORE.INTRA.REPUL.0>
0.823958

>  <SCORE.INTRA.SOLV>
-1.23463

>  <SCORE.INTRA.SOLV.lig_0>
-99.3069

>  <SCORE.INTRA.VDW>
-5.08151

>  <SCORE.INTRA.VDW.0>
0.946495

>  <SCORE.INTRA.norm>
-0.324035

>  <SCORE.RESTR>
0.0119358

>  <SCORE.RESTR.CAVITY>
0.0119358

>  <SCORE.RESTR.norm>
0.000298396

>  <SCORE.SYSTEM>
0

>  <SCORE.SYSTEM.CONST>
0

>  <SCORE.SYSTEM.DIHEDRAL>
0

>  <SCORE.SYSTEM.SOLV>
0

>  <SCORE.SYSTEM.norm>
0

>  <SCORE.heavy>
40

>  <SCORE.norm>
-0.372254

>  <RMSD>
5.684

$$$$
1ntb_lig
 OpenBabel11021811403D
libRbt.so/2013.1/901 2013/11/27
 40 42  0  0  0  0  0  0  0  0999 V2000
    6.6766   32.6178   -3.4642 C   0  0  0  0  0  0  0  0  0  0  0  0
    5.9937   31.7850   -4.1500 N   0  0  0  0  0  0  0  0  0  0  0  0
   -0.2200   37.7379    3.3590 C   0  0  0  0  0  0  0  0  0  0  0  0
   -0.3641   39.1079    3.6944 O   0  0  0  0  0  0  0  0  0  0  0  0
    0.7432   33.1744   -2.4561 C   0  0  0  0  0  0  0  0  0  0  0  0
    0.5430   32.7611   -3.6566 N   0  0  0  0  0  0  0  0  0  0  0  0
    1.3335   39.5889    1.1817 C   0  0  0  0  0  0  0  0  0  0  0  0
   -5.1255   36.5879    0.5182 C   0  0  0  0  0  0  0  0  0  0  0  0
    5.0814   33.8020   -2.1919 C   0  0  2  0  0  0  0  0  0  0  0  0
    6.1234   33.8025   -3.2897 N   0  0  0  0  0  0  0  0  0  0  0  0
    1.1549   36.1858    0.3201 C   0  0  2  0  0  0  0  0  0  0  0  0
   -2.0086   35.5757    1.9837 C   0  0  1  0  0  0  0  0  0  0  0  0
   -1.0449   35.7261    0.9576 O   0  0  0  0  0  0  0  0  0  0  0  0
    3.6859   34.0295   -2.7626 C   0  0  1  0  0  0  0  0  0  0  0  0
    3.4931   32.9243   -3.7491 O   0  0  0  0  0  0  0  0  0  0  0  0
    0.1406   36.1597    1.4489 C   0  0  2  0  0  0  0  0  0  0  0  0
   -3.3114   35.1334    1.3628 C   0  0  1  0  0  0  0  0  0  0  0  0
   -3.7699   36.1212    0.4508 N   0  0  0  0  0  0  0  0  0  0  0  0
    2.6012   34.0676   -1.6881 C   0  0  2  0  0  0  0  0  0  0  0  0
    1.2540   34.2768   -2.1769 N   0  0  0  0  0  0  0  0  0  0  0  0
    0.0761   37.5997    1.8839 C   0  0  1  0  0  0  0  0  0  0  0  0
   -0.9105   38.2983    1.1173 O   0  0  0  0  0  0  0  0  0  0  0  0
   -3.0590   33.8296    0.6245 C   0  0  2  0  0  0  0  0  0  0  0  0
   -4.2472   33.3751    0.0145 O   0  0  0  0  0  0  0  0  0  0  0  0
    2.9386   35.1762   -0.7251 C   0  0  1  0  0  0  0  0  0  0  0  0
    1.9836   35.0289    0.3625 O   0  0  0  0  0  0  0  0  0  0  0  0
    1.4242   38.1363    1.5720 C   0  0  1  0  0  0  0  0  0  0  0  0
    1.9421   37.3677    0.4839 O   0  0  0  0  0  0  0  0  0  0  0  0
   -2.5715   32.8176    1.6615 C   0  0  1  0  0  0  0  0  0  0  0  0
   -2.3064   31.5674    1.0447 O   0  0  0  0  0  0  0  0  0  0  0  0
    4.3371   34.9307   -0.0973 C   0  0  2  0  0  0  0  0  0  0  0  0
    4.6287   35.9772    0.8159 O   0  0  0  0  0  0  0  0  0  0  0  0
   -1.3008   33.3559    2.3200 C   0  0  1  0  0  0  0  0  0  0  0  0
   -1.5690   34.6130    2.9388 O   0  0  0  0  0  0  0  0  0  0  0  0
    5.4019   34.9114   -1.2109 C   0  0  1  0  0  0  0  0  0  0  0  0
    6.6996   34.6859   -0.6474 O   0  0  0  0  0  0  0  0  0  0  0  0
   -0.8309   32.3591    3.3798 C   0  0  0  0  0  0  0  0  0  0  0  0
    0.3292   32.8694    4.0171 O   0  0  0  0  0  0  0  0  0  0  0  0
    7.8400   32.3343   -2.9932 N   0  0  0  0  0  0  0  0  0  0  0  0
    0.3664   32.4755   -1.4989 N   0  0  0  0  0  0  0  0  0  0  0  0
  1  2  1  0  0  0  0
  1 39  1  0  0  0  0
  3  4  1  0  0  0  0
  5  6  1  0  0  0  0
  5 40  1  0  0  0  0
  9 10  1  6  0  0  0
  9 14  1  0  0  0  0
  9 35  1  0  0  0  0
 10  1  1  0  0  0  0
 11 16  1  0  0  0  0
 11 28  1  0  0  0  0
 11 26  1  1  0  0  0
 12 17  1  0  0  0  0
 12 34  1  0  0  0  0
 12 13  1  6  0  0  0
 14 15  1  6  0  0  0
 14 19  1  0  0  0  0
 16 13  1  6  0  0  0
 16 21  1  0  0  0  0
 17 18  1  6  0  0  0
 17 23  1  0  0  0  0
 18  8  1  0  0  0  0
 19 20  1  6  0  0  0
 19 25  1  0  0  0  0
 20  5  1  0  0  0  0
 21  3  1  1  0  0  0
 21 22  1  0  0  0  0
 21 27  1  0  0  0  0
 23 24  1  1  0  0  0
 23 29  1  0  0  0  0
 25 26  1  1  0  0  0
 25 31  1  0  0  0  0
 27  7  1  6  0  0  0
 27 28  1  0  0  0  0
 29 30  1  6  0  0  0
 29 33  1  0  0  0  0
 31 32  1  1  0  0  0
 31 35  1  0  0  0  0
 33 34  1  0  0  0  0
 33 37  1  1  0  0  0
 35 36  1  1  0  0  0
 37 38  1  0  0  0  0
M  END
>  <CHROM.1>
-112.55192012,79.96482358,-178.16594601,178.26282326,175.26495410,-130.68990698
88.05156671,-107.08274998,-175.84488669,-113.97823382,-178.56130141,1.07285491
34.84247881,0.05979190,0.47397371,-0.31497361,-2.55305066

>  <Name>
1ntb_lig

>  <RI>
0

>  <Rbt.Current_Directory>
/home/itssahil/PROJECTS/Mol_Feturizer/New_Systems/rnas/1ntb

>  <Rbt.Executable>
rbdock ($Id: //depot/dev/client3/rdock/2013.1/src/exe/rbdock.cxx#4 $)

>  <Rbt.Library>
libRbt.so (2013.1, Build901 2013/11/27)

>  <Rbt.Parameter_File>
/export/apps/rDock/src/rDock_2013.1_src/data/scripts/dock_solv.prm

>  <Rbt.Receptor>
prm/pocket_docking_6.prm

>  <SCORE>
-15.9458

>  <SCORE.INTER>
-3.29439

>  <SCORE.INTER.CONST>
1

>  <SCORE.INTER.POLAR>
-1.59118

>  <SCORE.INTER.ROT>
11

>  <SCORE.INTER.SOLV>
21.835

>  <SCORE.INTER.VDW>
-15.104

>  <SCORE.INTER.norm>
-0.0823598

>  <SCORE.INTRA>
-12.6514

>  <SCORE.INTRA.DIHEDRAL>
-4.0592

>  <SCORE.INTRA.DIHEDRAL.0>
15.4453

>  <SCORE.INTRA.POLAR>
0

>  <SCORE.INTRA.POLAR.0>
0

>  <SCORE.INTRA.REPUL>
-0.823958

>  <SCORE.INTRA.REPUL.0>
0.823958

>  <SCORE.INTRA.SOLV>
-1.83908

>  <SCORE.INTRA.SOLV.lig_0>
-99.3069

>  <SCORE.INTRA.VDW>
-5.58251

>  <SCORE.INTRA.VDW.0>
0.946495

>  <SCORE.INTRA.norm>
-0.316286

>  <SCORE.RESTR>
0

>  <SCORE.RESTR.CAVITY>
0

>  <SCORE.RESTR.norm>
0

>  <SCORE.SYSTEM>
0

>  <SCORE.SYSTEM.CONST>
0

>  <SCORE.SYSTEM.DIHEDRAL>
0

>  <SCORE.SYSTEM.SOLV>
0

>  <SCORE.SYSTEM.norm>
0

>  <SCORE.heavy>
40

>  <SCORE.norm>
-0.398646

>  <RMSD>
5.757

$$$$
1ntb_lig
 OpenBabel11021811403D
libRbt.so/2013.1/901 2013/11/27
 40 42  0  0  0  0  0  0  0  0999 V2000
    5.6870   42.8524   -1.6984 C   0  0  0  0  0  0  0  0  0  0  0  0
    5.6641   44.0629   -2.1040 N   0  0  0  0  0  0  0  0  0  0  0  0
   -2.6247   35.6230   -3.0069 C   0  0  0  0  0  0  0  0  0  0  0  0
   -2.9865   34.6398   -3.9623 O   0  0  0  0  0  0  0  0  0  0  0  0
    3.0658   37.8425    0.1552 C   0  0  0  0  0  0  0  0  0  0  0  0
    2.3237   38.3790    1.0572 N   0  0  0  0  0  0  0  0  0  0  0  0
   -0.3290   35.3460   -5.2945 C   0  0  0  0  0  0  0  0  0  0  0  0
   -1.4700   32.6410    0.6175 C   0  0  0  0  0  0  0  0  0  0  0  0
    3.9546   41.3536   -2.2623 C   0  0  2  0  0  0  0  0  0  0  0  0
    5.3097   41.9477   -2.5811 N   0  0  0  0  0  0  0  0  0  0  0  0
    0.5391   37.4613   -2.6248 C   0  0  2  0  0  0  0  0  0  0  0  0
   -1.3930   35.9872    0.0270 C   0  0  1  0  0  0  0  0  0  0  0  0
   -0.2932   36.2106   -0.8359 O   0  0  0  0  0  0  0  0  0  0  0  0
    4.0863   39.9037   -1.8090 C   0  0  1  0  0  0  0  0  0  0  0  0
    4.9928   39.9565   -0.6227 O   0  0  0  0  0  0  0  0  0  0  0  0
   -0.6775   36.8189   -1.9835 C   0  0  2  0  0  0  0  0  0  0  0  0
   -0.9739   35.0154    1.1033 C   0  0  1  0  0  0  0  0  0  0  0  0
   -0.5997   33.7778    0.5154 N   0  0  0  0  0  0  0  0  0  0  0  0
    2.7402   39.2497   -1.5040 C   0  0  2  0  0  0  0  0  0  0  0  0
    2.8082   37.8715   -1.0641 N   0  0  0  0  0  0  0  0  0  0  0  0
   -1.1277   35.8265   -3.0225 C   0  0  1  0  0  0  0  0  0  0  0  0
   -0.4599   34.5757   -2.8257 O   0  0  0  0  0  0  0  0  0  0  0  0
    0.2128   35.6150    1.8386 C   0  0  2  0  0  0  0  0  0  0  0  0
    0.6528   34.7391    2.8534 O   0  0  0  0  0  0  0  0  0  0  0  0
    1.8985   39.3129   -2.7521 C   0  0  1  0  0  0  0  0  0  0  0  0
    0.5815   38.8550   -2.3373 O   0  0  0  0  0  0  0  0  0  0  0  0
   -0.6981   36.4257   -4.3105 C   0  0  1  0  0  0  0  0  0  0  0  0
    0.4387   37.2471   -4.0346 O   0  0  0  0  0  0  0  0  0  0  0  0
   -0.2597   36.9371    2.4438 C   0  0  1  0  0  0  0  0  0  0  0  0
    0.8010   37.5654    3.1466 O   0  0  0  0  0  0  0  0  0  0  0  0
    1.7135   40.7887   -3.1971 C   0  0  2  0  0  0  0  0  0  0  0  0
    0.9072   40.8264   -4.3643 O   0  0  0  0  0  0  0  0  0  0  0  0
   -0.7540   37.8480    1.3196 C   0  0  1  0  0  0  0  0  0  0  0  0
   -1.8197   37.2144    0.6136 O   0  0  0  0  0  0  0  0  0  0  0  0
    3.0907   41.4068   -3.5060 C   0  0  1  0  0  0  0  0  0  0  0  0
    2.9372   42.7700   -3.9187 O   0  0  0  0  0  0  0  0  0  0  0  0
   -1.2567   39.1578    1.9272 C   0  0  0  0  0  0  0  0  0  0  0  0
   -1.6514   40.0339    0.8837 O   0  0  0  0  0  0  0  0  0  0  0  0
    6.0301   42.5322   -0.5003 N   0  0  0  0  0  0  0  0  0  0  0  0
    4.1356   37.3021    0.4869 N   0  0  0  0  0  0  0  0  0  0  0  0
  1  2  1  0  0  0  0
  1 39  1  0  0  0  0
  3  4  1  0  0  0  0
  5  6  1  0  0  0  0
  5 40  1  0  0  0  0
  9 10  1  6  0  0  0
  9 14  1  0  0  0  0
  9 35  1  0  0  0  0
 10  1  1  0  0  0  0
 11 16  1  0  0  0  0
 11 28  1  0  0  0  0
 11 26  1  6  0  0  0
 12 17  1  0  0  0  0
 12 34  1  0  0  0  0
 12 13  1  6  0  0  0
 14 15  1  1  0  0  0
 14 19  1  0  0  0  0
 16 13  1  1  0  0  0
 16 21  1  0  0  0  0
 17 18  1  6  0  0  0
 17 23  1  0  0  0  0
 18  8  1  0  0  0  0
 19 20  1  6  0  0  0
 19 25  1  0  0  0  0
 20  5  1  0  0  0  0
 21  3  1  1  0  0  0
 21 22  1  0  0  0  0
 21 27  1  0  0  0  0
 23 24  1  1  0  0  0
 23 29  1  0  0  0  0
 25 26  1  1  0  0  0
 25 31  1  0  0  0  0
 27  7  1  6  0  0  0
 27 28  1  0  0  0  0
 29 30  1  6  0  0  0
 29 33  1  0  0  0  0
 31 32  1  6  0  0  0
 31 35  1  0  0  0  0
 33 34  1  0  0  0  0
 33 37  1  1  0  0  0
 35 36  1  1  0  0  0
 37 38  1  0  0  0  0
M  END
>  <CHROM.1>
-109.71400516,-107.96684329,168.65900356,165.84598514,160.25783397,-105.85930941
82.11108161,59.78685534,-177.50780027,-94.43254145,176.96990791,1.08990057
38.07305443,-1.18061771,-0.38067216,0.82280885,1.82053358

>  <Name>
1ntb_lig

>  <RI>
0

>  <Rbt.Current_Directory>
/home/itssahil/PROJECTS/Mol_Feturizer/New_Systems/rnas/1ntb

>  <Rbt.Executable>
rbdock ($Id: //depot/dev/client3/rdock/2013.1/src/exe/rbdock.cxx#4 $)

>  <Rbt.Library>
libRbt.so (2013.1, Build901 2013/11/27)

>  <Rbt.Parameter_File>
/export/apps/rDock/src/rDock_2013.1_src/data/scripts/dock_solv.prm

>  <Rbt.Receptor>
prm/pocket_docking_6.prm

>  <SCORE>
-11.1568

>  <SCORE.INTER>
0.883765

>  <SCORE.INTER.CONST>
1

>  <SCORE.INTER.POLAR>
-0.974023

>  <SCORE.INTER.ROT>
11

>  <SCORE.INTER.SOLV>
10.3984

>  <SCORE.INTER.VDW>
-10.5635

>  <SCORE.INTER.norm>
0.0220941

>  <SCORE.INTRA>
-12.0405

>  <SCORE.INTRA.DIHEDRAL>
-3.7516

>  <SCORE.INTRA.DIHEDRAL.0>
15.4453

>  <SCORE.INTRA.POLAR>
0

>  <SCORE.INTRA.POLAR.0>
0

>  <SCORE.INTRA.REPUL>
-0.823958

>  <SCORE.INTRA.REPUL.0>
0.823958

>  <SCORE.INTRA.SOLV>
1.97674

>  <SCORE.INTRA.SOLV.lig_0>
-99.3069

>  <SCORE.INTRA.VDW>
-7.03331

>  <SCORE.INTRA.VDW.0>
0.946495

>  <SCORE.INTRA.norm>
-0.301013

>  <SCORE.RESTR>
0

>  <SCORE.RESTR.CAVITY>
0

>  <SCORE.RESTR.norm>
0

>  <SCORE.SYSTEM>
0

>  <SCORE.SYSTEM.CONST>
0

>  <SCORE.SYSTEM.DIHEDRAL>
0

>  <SCORE.SYSTEM.SOLV>
0

>  <SCORE.SYSTEM.norm>
0

>  <SCORE.heavy>
40

>  <SCORE.norm>
-0.278919

>  <RMSD>
5.794

$$$$
1ntb_lig
 OpenBabel11021811403D
libRbt.so/2013.1/901 2013/11/27
 40 42  0  0  0  0  0  0  0  0999 V2000
    6.6662   32.6406   -3.5925 C   0  0  0  0  0  0  0  0  0  0  0  0
    7.8419   32.4292   -3.1416 N   0  0  0  0  0  0  0  0  0  0  0  0
   -0.3592   37.4590    3.4588 C   0  0  0  0  0  0  0  0  0  0  0  0
   -0.7759   38.7985    3.6649 O   0  0  0  0  0  0  0  0  0  0  0  0
    0.8605   33.1598   -2.0324 C   0  0  0  0  0  0  0  0  0  0  0  0
    0.5487   32.3058   -1.1238 N   0  0  0  0  0  0  0  0  0  0  0  0
    0.7890   39.3605    1.0825 C   0  0  0  0  0  0  0  0  0  0  0  0
   -4.8509   35.8458    0.7265 C   0  0  0  0  0  0  0  0  0  0  0  0
    5.2107   33.8004   -2.1426 C   0  0  2  0  0  0  0  0  0  0  0  0
    6.1569   33.8274   -3.3237 N   0  0  0  0  0  0  0  0  0  0  0  0
    1.2923   35.9222    0.5527 C   0  0  2  0  0  0  0  0  0  0  0  0
   -1.7511   34.9905    2.2928 C   0  0  1  0  0  0  0  0  0  0  0  0
   -0.7701   35.0991    1.2779 O   0  0  0  0  0  0  0  0  0  0  0  0
    3.7718   34.0342   -2.5896 C   0  0  1  0  0  0  0  0  0  0  0  0
    3.4992   32.9488   -3.5792 O   0  0  0  0  0  0  0  0  0  0  0  0
    0.3058   35.8053    1.7003 C   0  0  2  0  0  0  0  0  0  0  0  0
   -3.0279   34.4707    1.6778 C   0  0  1  0  0  0  0  0  0  0  0  0
   -3.4932   35.3814    0.6923 N   0  0  0  0  0  0  0  0  0  0  0  0
    2.7810   34.0461   -1.4273 C   0  0  2  0  0  0  0  0  0  0  0  0
    1.3971   34.2602   -1.7971 N   0  0  0  0  0  0  0  0  0  0  0  0
   -0.0442   37.2393    1.9975 C   0  0  1  0  0  0  0  0  0  0  0  0
   -1.1520   37.6498    1.1892 O   0  0  0  0  0  0  0  0  0  0  0  0
   -2.7244   33.1279    1.0347 C   0  0  2  0  0  0  0  0  0  0  0  0
   -3.8865   32.5998    0.4337 O   0  0  0  0  0  0  0  0  0  0  0  0
    3.1956   35.1360   -0.4732 C   0  0  1  0  0  0  0  0  0  0  0  0
    2.3355   34.9628    0.6872 O   0  0  0  0  0  0  0  0  0  0  0  0
    1.1688   38.0000    1.6072 C   0  0  1  0  0  0  0  0  0  0  0  0
    1.8278   37.2472    0.5864 O   0  0  0  0  0  0  0  0  0  0  0  0
   -2.2320   32.2021    2.1472 C   0  0  1  0  0  0  0  0  0  0  0  0
   -1.9199   30.9214    1.6218 O   0  0  0  0  0  0  0  0  0  0  0  0
    4.6423   34.8830    0.0299 C   0  0  2  0  0  0  0  0  0  0  0  0
    5.0073   35.9117    0.9370 O   0  0  0  0  0  0  0  0  0  0  0  0
   -0.9908   32.8194    2.7924 C   0  0  1  0  0  0  0  0  0  0  0  0
   -1.3062   34.1071    3.3194 O   0  0  0  0  0  0  0  0  0  0  0  0
    5.6100   34.8907   -1.1692 C   0  0  1  0  0  0  0  0  0  0  0  0
    6.9509   34.6586   -0.7212 O   0  0  0  0  0  0  0  0  0  0  0  0
   -0.5169   31.9099    3.9264 C   0  0  0  0  0  0  0  0  0  0  0  0
    0.6021   32.5049    4.5637 O   0  0  0  0  0  0  0  0  0  0  0  0
    6.0065   31.7492   -4.2451 N   0  0  0  0  0  0  0  0  0  0  0  0
    0.6747   32.8740   -3.2284 N   0  0  0  0  0  0  0  0  0  0  0  0
  1  2  1  0  0  0  0
  1 39  1  0  0  0  0
  3  4  1  0  0  0  0
  5  6  1  0  0  0  0
  5 40  1  0  0  0  0
  9 10  1  6  0  0  0
  9 14  1  0  0  0  0
  9 35  1  0  0  0  0
 10  1  1  0  0  0  0
 11 16  1  0  0  0  0
 11 28  1  0  0  0  0
 11 26  1  1  0  0  0
 12 17  1  0  0  0  0
 12 34  1  0  0  0  0
 12 13  1  6  0  0  0
 14 15  1  6  0  0  0
 14 19  1  0  0  0  0
 16 13  1  6  0  0  0
 16 21  1  0  0  0  0
 17 18  1  6  0  0  0
 17 23  1  0  0  0  0
 18  8  1  0  0  0  0
 19 20  1  6  0  0  0
 19 25  1  0  0  0  0
 20  5  1  0  0  0  0
 21  3  1  1  0  0  0
 21 22  1  0  0  0  0
 21 27  1  0  0  0  0
 23 24  1  1  0  0  0
 23 29  1  0  0  0  0
 25 26  1  1  0  0  0
 25 31  1  0  0  0  0
 27  7  1  6  0  0  0
 27 28  1  0  0  0  0
 29 30  1  6  0  0  0
 29 33  1  0  0  0  0
 31 32  1  1  0  0  0
 31 35  1  0  0  0  0
 33 34  1  0  0  0  0
 33 37  1  1  0  0  0
 35 36  1  1  0  0  0
 37 38  1  0  0  0  0
M  END
>  <CHROM.1>
-110.71179487,-99.04201965,178.45806988,167.66605805,-178.10278777,-128.70373097
89.21270467,72.92260851,-175.73631655,-99.59740822,-177.64990803,1.20194777
34.56596685,0.27675096,0.38910757,-0.42349076,-2.64545835

>  <Name>
1ntb_lig

>  <RI>
0

>  <Rbt.Current_Directory>
/home/itssahil/PROJECTS/Mol_Feturizer/New_Systems/rnas/1ntb

>  <Rbt.Executable>
rbdock ($Id: //depot/dev/client3/rdock/2013.1/src/exe/rbdock.cxx#4 $)

>  <Rbt.Library>
libRbt.so (2013.1, Build901 2013/11/27)

>  <Rbt.Parameter_File>
/export/apps/rDock/src/rDock_2013.1_src/data/scripts/dock_solv.prm

>  <Rbt.Receptor>
prm/pocket_docking_7.prm

>  <SCORE>
-19.6462

>  <SCORE.INTER>
-7.09443

>  <SCORE.INTER.CONST>
1

>  <SCORE.INTER.POLAR>
-2.25792

>  <SCORE.INTER.ROT>
11

>  <SCORE.INTER.SOLV>
23.6324

>  <SCORE.INTER.VDW>
-16.014

>  <SCORE.INTER.norm>
-0.177361

>  <SCORE.INTRA>
-12.5517

>  <SCORE.INTRA.DIHEDRAL>
-4.93854

>  <SCORE.INTRA.DIHEDRAL.0>
15.4453

>  <SCORE.INTRA.POLAR>
0

>  <SCORE.INTRA.POLAR.0>
0

>  <SCORE.INTRA.REPUL>
-0.823958

>  <SCORE.INTRA.REPUL.0>
0.823958

>  <SCORE.INTRA.SOLV>
-0.880903

>  <SCORE.INTRA.SOLV.lig_0>
-99.3069

>  <SCORE.INTRA.VDW>
-5.52221

>  <SCORE.INTRA.VDW.0>
0.946495

>  <SCORE.INTRA.norm>
-0.313793

>  <SCORE.RESTR>
0

>  <SCORE.RESTR.CAVITY>
0

>  <SCORE.RESTR.norm>
0

>  <SCORE.SYSTEM>
0

>  <SCORE.SYSTEM.CONST>
0

>  <SCORE.SYSTEM.DIHEDRAL>
0

>  <SCORE.SYSTEM.SOLV>
0

>  <SCORE.SYSTEM.norm>
0

>  <SCORE.heavy>
40

>  <SCORE.norm>
-0.491154

>  <RMSD>
5.828

$$$$
1ntb_lig
 OpenBabel11021811403D
libRbt.so/2013.1/901 2013/11/27
 40 42  0  0  0  0  0  0  0  0999 V2000
    9.5139   32.9379   -1.2221 C   0  0  0  0  0  0  0  0  0  0  0  0
    9.4831   32.1223   -0.2403 N   0  0  0  0  0  0  0  0  0  0  0  0
   -1.0521   35.0495   -2.5871 C   0  0  0  0  0  0  0  0  0  0  0  0
   -1.8202   36.1836   -2.2207 O   0  0  0  0  0  0  0  0  0  0  0  0
    5.4321   32.3049   -5.3936 C   0  0  0  0  0  0  0  0  0  0  0  0
    5.7367   31.2328   -4.7535 N   0  0  0  0  0  0  0  0  0  0  0  0
    0.9294   37.5532   -1.9664 C   0  0  0  0  0  0  0  0  0  0  0  0
   -0.7694   35.6862   -8.5361 C   0  0  0  0  0  0  0  0  0  0  0  0
    7.2510   33.5323   -1.5250 C   0  0  2  0  0  0  0  0  0  0  0  0
    8.6608   33.9420   -1.1568 N   0  0  0  0  0  0  0  0  0  0  0  0
    2.5248   34.7687   -3.4004 C   0  0  2  0  0  0  0  0  0  0  0  0
   -0.4406   34.0371   -5.3360 C   0  0  1  0  0  0  0  0  0  0  0  0
    0.9272   34.1694   -4.9959 O   0  0  0  0  0  0  0  0  0  0  0  0
    7.0128   33.6797   -3.0239 C   0  0  1  0  0  0  0  0  0  0  0  0
    8.0547   32.8195   -3.6614 O   0  0  0  0  0  0  0  0  0  0  0  0
    1.0937   34.3358   -3.6619 C   0  0  2  0  0  0  0  0  0  0  0  0
   -0.5556   33.9027   -6.8351 C   0  0  1  0  0  0  0  0  0  0  0  0
   -0.0423   35.0683   -7.4637 N   0  0  0  0  0  0  0  0  0  0  0  0
    5.5919   33.3063   -3.4413 C   0  0  2  0  0  0  0  0  0  0  0  0
    5.3128   33.4241   -4.8576 N   0  0  0  0  0  0  0  0  0  0  0  0
    0.2853   35.4912   -3.1342 C   0  0  1  0  0  0  0  0  0  0  0  0
    0.0964   36.4669   -4.1644 O   0  0  0  0  0  0  0  0  0  0  0  0
    0.2555   32.6901   -7.2596 C   0  0  2  0  0  0  0  0  0  0  0  0
    0.1901   32.5235   -8.6591 O   0  0  0  0  0  0  0  0  0  0  0  0
    4.6367   34.1964   -2.6895 C   0  0  1  0  0  0  0  0  0  0  0  0
    3.3168   33.6609   -2.9851 O   0  0  0  0  0  0  0  0  0  0  0  0
    1.1263   36.0619   -2.0527 C   0  0  1  0  0  0  0  0  0  0  0  0
    2.4866   35.7647   -2.3758 O   0  0  0  0  0  0  0  0  0  0  0  0
   -0.3496   31.4786   -6.5499 C   0  0  1  0  0  0  0  0  0  0  0  0
    0.3618   30.2995   -6.8927 O   0  0  0  0  0  0  0  0  0  0  0  0
    4.8334   34.0189   -1.1598 C   0  0  2  0  0  0  0  0  0  0  0  0
    3.9156   34.8543   -0.4714 O   0  0  0  0  0  0  0  0  0  0  0  0
   -0.2868   31.7069   -5.0394 C   0  0  1  0  0  0  0  0  0  0  0  0
   -1.0017   32.8930   -4.6967 O   0  0  0  0  0  0  0  0  0  0  0  0
    6.2725   34.4166   -0.7790 C   0  0  1  0  0  0  0  0  0  0  0  0
    6.4703   34.2584    0.6310 O   0  0  0  0  0  0  0  0  0  0  0  0
   -0.9210   30.5101   -4.3301 C   0  0  0  0  0  0  0  0  0  0  0  0
   -2.2903   30.4268   -4.6915 O   0  0  0  0  0  0  0  0  0  0  0  0
   10.3052   32.7818   -2.2247 N   0  0  0  0  0  0  0  0  0  0  0  0
    5.2945   32.2602   -6.6288 N   0  0  0  0  0  0  0  0  0  0  0  0
  1  2  1  0  0  0  0
  1 39  1  0  0  0  0
  3  4  1  0  0  0  0
  5  6  1  0  0  0  0
  5 40  1  0  0  0  0
  9 10  1  6  0  0  0
  9 14  1  0  0  0  0
  9 35  1  0  0  0  0
 10  1  1  0  0  0  0
 11 16  1  0  0  0  0
 11 28  1  0  0  0  0
 11 26  1  1  0  0  0
 12 17  1  0  0  0  0
 12 34  1  0  0  0  0
 12 13  1  6  0  0  0
 14 15  1  6  0  0  0
 14 19  1  0  0  0  0
 16 13  1  6  0  0  0
 16 21  1  0  0  0  0
 17 18  1  6  0  0  0
 17 23  1  0  0  0  0
 18  8  1  0  0  0  0
 19 20  1  6  0  0  0
 19 25  1  0  0  0  0
 20  5  1  0  0  0  0
 21  3  1  1  0  0  0
 21 22  1  0  0  0  0
 21 27  1  0  0  0  0
 23 24  1  6  0  0  0
 23 29  1  0  0  0  0
 25 26  1  1  0  0  0
 25 31  1  0  0  0  0
 27  7  1  6  0  0  0
 27 28  1  0  0  0  0
 29 30  1  1  0  0  0
 29 33  1  0  0  0  0
 31 32  1  1  0  0  0
 31 35  1  0  0  0  0
 33 34  1  0  0  0  0
 33 37  1  1  0  0  0
 35 36  1  1  0  0  0
 37 38  1  0  0  0  0
M  END
>  <CHROM.1>
-89.20879729,-77.89947084,-176.80113716,178.10379887,-167.84441992,-134.66930188
97.23481426,0.96030454,-174.55573377,-129.89944191,-62.93786204,2.88164358
33.67794775,-3.81924444,-0.33295254,0.29647047,-2.23935549

>  <Name>
1ntb_lig

>  <RI>
0

>  <Rbt.Current_Directory>
/home/itssahil/PROJECTS/Mol_Feturizer/New_Systems/rnas/1ntb

>  <Rbt.Executable>
rbdock ($Id: //depot/dev/client3/rdock/2013.1/src/exe/rbdock.cxx#4 $)

>  <Rbt.Library>
libRbt.so (2013.1, Build901 2013/11/27)

>  <Rbt.Parameter_File>
/export/apps/rDock/src/rDock_2013.1_src/data/scripts/dock_solv.prm

>  <Rbt.Receptor>
prm/pocket_docking_7.prm

>  <SCORE>
-16.4004

>  <SCORE.INTER>
-8.84203

>  <SCORE.INTER.CONST>
1

>  <SCORE.INTER.POLAR>
-1.68524

>  <SCORE.INTER.ROT>
11

>  <SCORE.INTER.SOLV>
34.9598

>  <SCORE.INTER.VDW>
-22.8638

>  <SCORE.INTER.norm>
-0.221051

>  <SCORE.INTRA>
-7.55836

>  <SCORE.INTRA.DIHEDRAL>
-4.05751

>  <SCORE.INTRA.DIHEDRAL.0>
15.4453

>  <SCORE.INTRA.POLAR>
0

>  <SCORE.INTRA.POLAR.0>
0

>  <SCORE.INTRA.REPUL>
-0.823958

>  <SCORE.INTRA.REPUL.0>
0.823958

>  <SCORE.INTRA.SOLV>
-2.1731

>  <SCORE.INTRA.SOLV.lig_0>
-99.3069

>  <SCORE.INTRA.VDW>
-0.323271

>  <SCORE.INTRA.VDW.0>
0.946495

>  <SCORE.INTRA.norm>
-0.188959

>  <SCORE.RESTR>
0

>  <SCORE.RESTR.CAVITY>
0

>  <SCORE.RESTR.norm>
0

>  <SCORE.SYSTEM>
0

>  <SCORE.SYSTEM.CONST>
0

>  <SCORE.SYSTEM.DIHEDRAL>
0

>  <SCORE.SYSTEM.SOLV>
0

>  <SCORE.SYSTEM.norm>
0

>  <SCORE.heavy>
40

>  <SCORE.norm>
-0.41001

>  <RMSD>
5.843

$$$$
1ntb_lig
 OpenBabel11021811403D
libRbt.so/2013.1/901 2013/11/27
 40 42  0  0  0  0  0  0  0  0999 V2000
   14.5110   30.8740   -1.6045 C   0  0  0  0  0  0  0  0  0  0  0  0
   14.6284   29.6397   -1.9095 N   0  0  0  0  0  0  0  0  0  0  0  0
    4.9955   33.0322   -6.3368 C   0  0  0  0  0  0  0  0  0  0  0  0
    4.4893   32.2721   -7.4214 O   0  0  0  0  0  0  0  0  0  0  0  0
    8.3749   32.4364   -0.5856 C   0  0  0  0  0  0  0  0  0  0  0  0
    7.1594   32.0981   -0.8307 N   0  0  0  0  0  0  0  0  0  0  0  0
    6.3035   30.0637   -6.5767 C   0  0  0  0  0  0  0  0  0  0  0  0
    1.5413   33.5046   -2.5611 C   0  0  0  0  0  0  0  0  0  0  0  0
   12.3960   31.9004   -1.8019 C   0  0  2  0  0  0  0  0  0  0  0  0
   13.4193   31.1956   -0.9375 N   0  0  0  0  0  0  0  0  0  0  0  0
    7.6541   32.0339   -3.9980 C   0  0  2  0  0  0  0  0  0  0  0  0
    5.1376   34.3048   -3.0487 C   0  0  1  0  0  0  0  0  0  0  0  0
    5.6986   33.0112   -3.1746 O   0  0  0  0  0  0  0  0  0  0  0  0
   11.1826   32.3207   -0.9798 C   0  0  1  0  0  0  0  0  0  0  0  0
   11.7366   33.1952    0.0973 O   0  0  0  0  0  0  0  0  0  0  0  0
    6.4451   32.9006   -4.2995 C   0  0  2  0  0  0  0  0  0  0  0  0
    3.8863   34.2100   -2.2097 C   0  0  1  0  0  0  0  0  0  0  0  0
    2.9405   33.3655   -2.8497 N   0  0  0  0  0  0  0  0  0  0  0  0
   10.1063   33.0106   -1.8154 C   0  0  2  0  0  0  0  0  0  0  0  0
    8.9319   33.4352   -1.0818 N   0  0  0  0  0  0  0  0  0  0  0  0
    5.7297   32.1272   -5.3752 C   0  0  1  0  0  0  0  0  0  0  0  0
    4.8176   31.1960   -4.7835 O   0  0  0  0  0  0  0  0  0  0  0  0
    4.2703   33.6233   -0.8618 C   0  0  2  0  0  0  0  0  0  0  0  0
    3.1310   33.5031   -0.0383 O   0  0  0  0  0  0  0  0  0  0  0  0
    9.6749   32.0564   -2.8987 C   0  0  1  0  0  0  0  0  0  0  0  0
    8.8034   32.8399   -3.7605 O   0  0  0  0  0  0  0  0  0  0  0  0
    6.8110   31.3914   -6.0767 C   0  0  1  0  0  0  0  0  0  0  0  0
    7.8645   31.1894   -5.1320 O   0  0  0  0  0  0  0  0  0  0  0  0
    5.2843   34.5788   -0.2325 C   0  0  1  0  0  0  0  0  0  0  0  0
    5.6990   34.0938    1.0351 O   0  0  0  0  0  0  0  0  0  0  0  0
   10.8927   31.6590   -3.7759 C   0  0  2  0  0  0  0  0  0  0  0  0
   10.4624   30.7724   -4.7972 O   0  0  0  0  0  0  0  0  0  0  0  0
    6.4901   34.7055   -1.1641 C   0  0  1  0  0  0  0  0  0  0  0  0
    6.0712   35.1924   -2.4380 O   0  0  0  0  0  0  0  0  0  0  0  0
   11.9477   30.9569   -2.8994 C   0  0  1  0  0  0  0  0  0  0  0  0
   13.0790   30.5833   -3.6950 O   0  0  0  0  0  0  0  0  0  0  0  0
    7.4900   35.6859   -0.5505 C   0  0  0  0  0  0  0  0  0  0  0  0
    7.0236   36.0879    0.7275 O   0  0  0  0  0  0  0  0  0  0  0  0
   15.3847   31.7552   -1.9450 N   0  0  0  0  0  0  0  0  0  0  0  0
    9.0396   31.7752    0.2316 N   0  0  0  0  0  0  0  0  0  0  0  0
  1  2  1  0  0  0  0
  1 39  1  0  0  0  0
  3  4  1  0  0  0  0
  5  6  1  0  0  0  0
  5 40  1  0  0  0  0
  9 10  1  1  0  0  0
  9 14  1  0  0  0  0
  9 35  1  0  0  0  0
 10  1  1  0  0  0  0
 11 16  1  0  0  0  0
 11 28  1  0  0  0  0
 11 26  1  6  0  0  0
 12 17  1  0  0  0  0
 12 34  1  0  0  0  0
 12 13  1  1  0  0  0
 14 15  1  1  0  0  0
 14 19  1  0  0  0  0
 16 13  1  1  0  0  0
 16 21  1  0  0  0  0
 17 18  1  6  0  0  0
 17 23  1  0  0  0  0
 18  8  1  0  0  0  0
 19 20  1  1  0  0  0
 19 25  1  0  0  0  0
 20  5  1  0  0  0  0
 21  3  1  6  0  0  0
 21 22  1  0  0  0  0
 21 27  1  0  0  0  0
 23 24  1  1  0  0  0
 23 29  1  0  0  0  0
 25 26  1  6  0  0  0
 25 31  1  0  0  0  0
 27  7  1  1  0  0  0
 27 28  1  0  0  0  0
 29 30  1  1  0  0  0
 29 33  1  0  0  0  0
 31 32  1  6  0  0  0
 31 35  1  0  0  0  0
 33 34  1  0  0  0  0
 33 37  1  1  0  0  0
 35 36  1  6  0  0  0
 37 38  1  0  0  0  0
M  END
>  <CHROM.1>
-176.99317539,-104.58755767,153.50728717,154.54478255,142.83278511,-156.00571006
-61.67068316,-121.50677489,172.40688328,-133.43324715,4.15932841,7.99292491
32.62028907,-2.57037726,-0.01820524,-0.26034743,1.11807638

>  <Name>
1ntb_lig

>  <RI>
0

>  <Rbt.Current_Directory>
/home/itssahil/PROJECTS/Mol_Feturizer/New_Systems/rnas/1ntb

>  <Rbt.Executable>
rbdock ($Id: //depot/dev/client3/rdock/2013.1/src/exe/rbdock.cxx#4 $)

>  <Rbt.Library>
libRbt.so (2013.1, Build901 2013/11/27)

>  <Rbt.Parameter_File>
/export/apps/rDock/src/rDock_2013.1_src/data/scripts/dock_solv.prm

>  <Rbt.Receptor>
prm/blind_docking_80.prm

>  <SCORE>
160.174

>  <SCORE.INTER>
148.108

>  <SCORE.INTER.CONST>
1

>  <SCORE.INTER.POLAR>
-0.229643

>  <SCORE.INTER.ROT>
11

>  <SCORE.INTER.SOLV>
41.5641

>  <SCORE.INTER.VDW>
74.7161

>  <SCORE.INTER.norm>
3.7027

>  <SCORE.INTRA>
10.6783

>  <SCORE.INTRA.DIHEDRAL>
8.04525

>  <SCORE.INTRA.DIHEDRAL.0>
15.4453

>  <SCORE.INTRA.POLAR>
0

>  <SCORE.INTRA.POLAR.0>
0

>  <SCORE.INTRA.REPUL>
-0.775853

>  <SCORE.INTRA.REPUL.0>
0.823958

>  <SCORE.INTRA.SOLV>
9.94069

>  <SCORE.INTRA.SOLV.lig_0>
-99.3069

>  <SCORE.INTRA.VDW>
5.56458

>  <SCORE.INTRA.VDW.0>
0.946495

>  <SCORE.INTRA.norm>
0.266957

>  <SCORE.RESTR>
1.38733

>  <SCORE.RESTR.CAVITY>
1.38733

>  <SCORE.RESTR.norm>
0.0346833

>  <SCORE.SYSTEM>
0

>  <SCORE.SYSTEM.CONST>
0

>  <SCORE.SYSTEM.DIHEDRAL>
0

>  <SCORE.SYSTEM.SOLV>
0

>  <SCORE.SYSTEM.norm>
0

>  <SCORE.heavy>
40

>  <SCORE.norm>
4.00434

>  <RMSD>
5.911

$$$$
1ntb_lig
 OpenBabel11021811403D
libRbt.so/2013.1/901 2013/11/27
 40 42  0  0  0  0  0  0  0  0999 V2000
    3.0185   42.5279    1.1953 C   0  0  0  0  0  0  0  0  0  0  0  0
    3.5494   43.1263    2.1905 N   0  0  0  0  0  0  0  0  0  0  0  0
   -1.3797   33.8765   -2.0885 C   0  0  0  0  0  0  0  0  0  0  0  0
   -1.8150   34.8272   -3.0461 O   0  0  0  0  0  0  0  0  0  0  0  0
    0.1511   39.5274   -3.4604 C   0  0  0  0  0  0  0  0  0  0  0  0
    0.4540   38.7802   -4.4613 N   0  0  0  0  0  0  0  0  0  0  0  0
    1.3795   32.5565   -3.1949 C   0  0  0  0  0  0  0  0  0  0  0  0
   -0.4761   33.0259    2.7126 C   0  0  0  0  0  0  0  0  0  0  0  0
    2.5721   40.3943    0.2929 C   0  0  2  0  0  0  0  0  0  0  0  0
    2.4749   41.3551    1.4584 N   0  0  0  0  0  0  0  0  0  0  0  0
    1.7694   35.7549   -1.7899 C   0  0  2  0  0  0  0  0  0  0  0  0
   -0.9282   35.3391    0.5995 C   0  0  1  0  0  0  0  0  0  0  0  0
    0.3661   35.5507    0.0664 O   0  0  0  0  0  0  0  0  0  0  0  0
    1.2289   40.2566   -0.4154 C   0  0  1  0  0  0  0  0  0  0  0  0
    0.8749   41.6463   -0.8341 O   0  0  0  0  0  0  0  0  0  0  0  0
    0.3630   35.4855   -1.2866 C   0  0  2  0  0  0  0  0  0  0  0  0
   -0.8462   35.3954    2.1057 C   0  0  1  0  0  0  0  0  0  0  0  0
    0.0132   34.3687    2.5797 N   0  0  0  0  0  0  0  0  0  0  0  0
    1.2686   39.2724   -1.5826 C   0  0  2  0  0  0  0  0  0  0  0  0
    0.0181   39.1070   -2.2944 N   0  0  0  0  0  0  0  0  0  0  0  0
    0.0840   34.0912   -1.7817 C   0  0  1  0  0  0  0  0  0  0  0  0
    0.5296   33.1316   -0.8175 O   0  0  0  0  0  0  0  0  0  0  0  0
   -0.2868   36.7539    2.4933 C   0  0  2  0  0  0  0  0  0  0  0  0
   -0.1796   36.8563    3.8964 O   0  0  0  0  0  0  0  0  0  0  0  0
    1.6951   37.9307   -1.0460 C   0  0  1  0  0  0  0  0  0  0  0  0
    1.8970   37.1042   -2.2260 O   0  0  0  0  0  0  0  0  0  0  0  0
    0.8968   33.9728   -3.0177 C   0  0  1  0  0  0  0  0  0  0  0  0
    2.0113   34.8565   -2.8752 O   0  0  0  0  0  0  0  0  0  0  0  0
   -1.2572   37.8054    1.9548 C   0  0  1  0  0  0  0  0  0  0  0  0
   -0.7981   39.1099    2.2732 O   0  0  0  0  0  0  0  0  0  0  0  0
    3.0859   38.0454   -0.3658 C   0  0  2  0  0  0  0  0  0  0  0  0
    3.4746   36.7696    0.1193 O   0  0  0  0  0  0  0  0  0  0  0  0
   -1.3692   37.6459    0.4383 C   0  0  1  0  0  0  0  0  0  0  0  0
   -1.8300   36.3338    0.1201 O   0  0  0  0  0  0  0  0  0  0  0  0
    3.0000   39.0363    0.8111 C   0  0  1  0  0  0  0  0  0  0  0  0
    4.2768   39.1534    1.4503 O   0  0  0  0  0  0  0  0  0  0  0  0
   -2.3641   38.6762   -0.0967 C   0  0  0  0  0  0  0  0  0  0  0  0
   -3.6534   38.3915    0.4221 O   0  0  0  0  0  0  0  0  0  0  0  0
    3.0322   43.0200    0.0064 N   0  0  0  0  0  0  0  0  0  0  0  0
    0.0297   40.7537   -3.6287 N   0  0  0  0  0  0  0  0  0  0  0  0
  1  2  1  0  0  0  0
  1 39  1  0  0  0  0
  3  4  1  0  0  0  0
  5  6  1  0  0  0  0
  5 40  1  0  0  0  0
  9 10  1  1  0  0  0
  9 14  1  0  0  0  0
  9 35  1  0  0  0  0
 10  1  1  0  0  0  0
 11 16  1  0  0  0  0
 11 28  1  0  0  0  0
 11 26  1  6  0  0  0
 12 17  1  0  0  0  0
 12 34  1  0  0  0  0
 12 13  1  6  0  0  0
 14 15  1  6  0  0  0
 14 19  1  0  0  0  0
 16 13  1  1  0  0  0
 16 21  1  0  0  0  0
 17 18  1  6  0  0  0
 17 23  1  0  0  0  0
 18  8  1  0  0  0  0
 19 20  1  1  0  0  0
 19 25  1  0  0  0  0
 20  5  1  0  0  0  0
 21  3  1  6  0  0  0
 21 22  1  0  0  0  0
 21 27  1  0  0  0  0
 23 24  1  1  0  0  0
 23 29  1  0  0  0  0
 25 26  1  6  0  0  0
 25 31  1  0  0  0  0
 27  7  1  1  0  0  0
 27 28  1  0  0  0  0
 29 30  1  6  0  0  0
 29 33  1  0  0  0  0
 31 32  1  1  0  0  0
 31 35  1  0  0  0  0
 33 34  1  0  0  0  0
 33 37  1  1  0  0  0
 35 36  1  6  0  0  0
 37 38  1  0  0  0  0
M  END
>  <CHROM.1>
-104.29679687,-147.84834015,63.95280825,178.78987308,178.59134439,-80.75925867
114.91867521,94.55139140,57.32721492,-157.27391677,-64.70880919,0.64308133
37.50365155,-0.31777315,0.63287914,1.15946490,1.08027685

>  <Name>
1ntb_lig

>  <RI>
0

>  <Rbt.Current_Directory>
/home/itssahil/PROJECTS/Mol_Feturizer/New_Systems/rnas/1ntb

>  <Rbt.Executable>
rbdock ($Id: //depot/dev/client3/rdock/2013.1/src/exe/rbdock.cxx#4 $)

>  <Rbt.Library>
libRbt.so (2013.1, Build901 2013/11/27)

>  <Rbt.Parameter_File>
/export/apps/rDock/src/rDock_2013.1_src/data/scripts/dock_solv.prm

>  <Rbt.Receptor>
prm/pocket_docking_6.prm

>  <SCORE>
-10.8093

>  <SCORE.INTER>
3.82575

>  <SCORE.INTER.CONST>
1

>  <SCORE.INTER.POLAR>
-0.696601

>  <SCORE.INTER.ROT>
11

>  <SCORE.INTER.SOLV>
7.79004

>  <SCORE.INTER.VDW>
-8.65751

>  <SCORE.INTER.norm>
0.0956439

>  <SCORE.INTRA>
-14.6351

>  <SCORE.INTRA.DIHEDRAL>
-9.18691

>  <SCORE.INTRA.DIHEDRAL.0>
15.4453

>  <SCORE.INTRA.POLAR>
0

>  <SCORE.INTRA.POLAR.0>
0

>  <SCORE.INTRA.REPUL>
-0.774825

>  <SCORE.INTRA.REPUL.0>
0.823958

>  <SCORE.INTRA.SOLV>
-1.10243

>  <SCORE.INTRA.SOLV.lig_0>
-99.3069

>  <SCORE.INTRA.VDW>
-5.6163

>  <SCORE.INTRA.VDW.0>
0.946495

>  <SCORE.INTRA.norm>
-0.365877

>  <SCORE.RESTR>
0

>  <SCORE.RESTR.CAVITY>
0

>  <SCORE.RESTR.norm>
0

>  <SCORE.SYSTEM>
0

>  <SCORE.SYSTEM.CONST>
0

>  <SCORE.SYSTEM.DIHEDRAL>
0

>  <SCORE.SYSTEM.SOLV>
0

>  <SCORE.SYSTEM.norm>
0

>  <SCORE.heavy>
40

>  <SCORE.norm>
-0.270234

>  <RMSD>
6.021

$$$$
1ntb_lig
 OpenBabel11021811403D
libRbt.so/2013.1/901 2013/11/27
 40 42  0  0  0  0  0  0  0  0999 V2000
   -0.9486   32.7715   -4.2024 C   0  0  0  0  0  0  0  0  0  0  0  0
   -2.0569   33.1222   -3.6742 N   0  0  0  0  0  0  0  0  0  0  0  0
    2.7213   39.3020    0.9598 C   0  0  0  0  0  0  0  0  0  0  0  0
    3.5482   40.4377    1.1519 O   0  0  0  0  0  0  0  0  0  0  0  0
    0.1246   33.6086    1.7572 C   0  0  0  0  0  0  0  0  0  0  0  0
   -0.7527   32.7067    2.0197 N   0  0  0  0  0  0  0  0  0  0  0  0
    5.7935   38.2340    0.9375 C   0  0  0  0  0  0  0  0  0  0  0  0
   -0.6150   37.4545    1.2337 C   0  0  0  0  0  0  0  0  0  0  0  0
    0.6267   32.2651   -2.5208 C   0  0  2  0  0  0  0  0  0  0  0  0
   -0.3177   31.7817   -3.6004 N   0  0  0  0  0  0  0  0  0  0  0  0
    3.4581   35.9439   -0.3497 C   0  0  2  0  0  0  0  0  0  0  0  0
    0.7554   37.0275   -1.7423 C   0  0  1  0  0  0  0  0  0  0  0  0
    2.1132   37.3973   -1.5891 O   0  0  0  0  0  0  0  0  0  0  0  0
   -0.1266   33.0302   -1.4382 C   0  0  1  0  0  0  0  0  0  0  0  0
   -1.1473   32.0650   -0.9298 O   0  0  0  0  0  0  0  0  0  0  0  0
    2.5532   37.1624   -0.3297 C   0  0  2  0  0  0  0  0  0  0  0  0
   -0.1097   38.0871   -1.1039 C   0  0  1  0  0  0  0  0  0  0  0  0
    0.1828   38.1758    0.2832 N   0  0  0  0  0  0  0  0  0  0  0  0
    0.7894   33.5655   -0.3395 C   0  0  2  0  0  0  0  0  0  0  0  0
    0.1236   34.2974    0.7182 N   0  0  0  0  0  0  0  0  0  0  0  0
    3.4639   38.2564    0.1610 C   0  0  1  0  0  0  0  0  0  0  0  0
    4.1338   38.8684   -0.9461 O   0  0  0  0  0  0  0  0  0  0  0  0
    0.1983   39.4124   -1.7801 C   0  0  2  0  0  0  0  0  0  0  0  0
   -0.5792   40.4436   -1.2120 O   0  0  0  0  0  0  0  0  0  0  0  0
    1.8067   34.4722   -0.9821 C   0  0  1  0  0  0  0  0  0  0  0  0
    2.7504   34.7856    0.0797 O   0  0  0  0  0  0  0  0  0  0  0  0
    4.4516   37.5533    1.0169 C   0  0  1  0  0  0  0  0  0  0  0  0
    4.5521   36.2130    0.5302 O   0  0  0  0  0  0  0  0  0  0  0  0
   -0.1387   39.2454   -3.2619 C   0  0  1  0  0  0  0  0  0  0  0  0
    0.1295   40.4470   -3.9676 O   0  0  0  0  0  0  0  0  0  0  0  0
    2.6166   33.6919   -2.0524 C   0  0  2  0  0  0  0  0  0  0  0  0
    3.5773   34.5594   -2.6344 O   0  0  0  0  0  0  0  0  0  0  0  0
    0.7008   38.1035   -3.8354 C   0  0  1  0  0  0  0  0  0  0  0  0
    0.4305   36.8966   -3.1242 O   0  0  0  0  0  0  0  0  0  0  0  0
    1.6595   33.1804   -3.1463 C   0  0  1  0  0  0  0  0  0  0  0  0
    2.3922   32.4576   -4.1428 O   0  0  0  0  0  0  0  0  0  0  0  0
    0.3407   37.9148   -5.3093 C   0  0  0  0  0  0  0  0  0  0  0  0
    0.9107   38.9703   -6.0666 O   0  0  0  0  0  0  0  0  0  0  0  0
   -0.4616   33.3582   -5.2389 N   0  0  0  0  0  0  0  0  0  0  0  0
    1.0062   33.8651    2.5960 N   0  0  0  0  0  0  0  0  0  0  0  0
  1  2  1  0  0  0  0
  1 39  1  0  0  0  0
  3  4  1  0  0  0  0
  5  6  1  0  0  0  0
  5 40  1  0  0  0  0
  9 10  1  6  0  0  0
  9 14  1  0  0  0  0
  9 35  1  0  0  0  0
 10  1  1  0  0  0  0
 11 16  1  0  0  0  0
 11 28  1  0  0  0  0
 11 26  1  1  0  0  0
 12 17  1  0  0  0  0
 12 34  1  0  0  0  0
 12 13  1  6  0  0  0
 14 15  1  1  0  0  0
 14 19  1  0  0  0  0
 16 13  1  6  0  0  0
 16 21  1  0  0  0  0
 17 18  1  1  0  0  0
 17 23  1  0  0  0  0
 18  8  1  0  0  0  0
 19 20  1  1  0  0  0
 19 25  1  0  0  0  0
 20  5  1  0  0  0  0
 21  3  1  1  0  0  0
 21 22  1  0  0  0  0
 21 27  1  0  0  0  0
 23 24  1  1  0  0  0
 23 29  1  0  0  0  0
 25 26  1  1  0  0  0
 25 31  1  0  0  0  0
 27  7  1  6  0  0  0
 27 28  1  0  0  0  0
 29 30  1  6  0  0  0
 29 33  1  0  0  0  0
 31 32  1  6  0  0  0
 31 35  1  0  0  0  0
 33 34  1  0  0  0  0
 33 37  1  6  0  0  0
 35 36  1  6  0  0  0
 37 38  1  0  0  0  0
M  END
>  <CHROM.1>
60.33358465,-89.48390695,70.35864939,76.68232775,106.01330453,-95.36338791
108.14820895,-84.50284075,-167.61417032,-161.91759107,74.33386638,1.29340666
36.07922058,-1.41630071,2.33748251,1.05689192,2.71171804

>  <Name>
1ntb_lig

>  <RI>
0

>  <Rbt.Current_Directory>
/home/itssahil/PROJECTS/Mol_Feturizer/New_Systems/rnas/1ntb

>  <Rbt.Executable>
rbdock ($Id: //depot/dev/client3/rdock/2013.1/src/exe/rbdock.cxx#4 $)

>  <Rbt.Library>
libRbt.so (2013.1, Build901 2013/11/27)

>  <Rbt.Parameter_File>
/export/apps/rDock/src/rDock_2013.1_src/data/scripts/dock_solv.prm

>  <Rbt.Receptor>
prm/pocket_docking_4.prm

>  <SCORE>
-9.92024

>  <SCORE.INTER>
-2.58507

>  <SCORE.INTER.CONST>
1

>  <SCORE.INTER.POLAR>
-0.710809

>  <SCORE.INTER.ROT>
11

>  <SCORE.INTER.SOLV>
14.9841

>  <SCORE.INTER.VDW>
-15.282

>  <SCORE.INTER.norm>
-0.0646267

>  <SCORE.INTRA>
-7.33667

>  <SCORE.INTRA.DIHEDRAL>
-1.40546

>  <SCORE.INTRA.DIHEDRAL.0>
15.4453

>  <SCORE.INTRA.POLAR>
0

>  <SCORE.INTRA.POLAR.0>
0

>  <SCORE.INTRA.REPUL>
-0.823958

>  <SCORE.INTRA.REPUL.0>
0.823958

>  <SCORE.INTRA.SOLV>
2.21752

>  <SCORE.INTRA.SOLV.lig_0>
-99.3069

>  <SCORE.INTRA.VDW>
-3.62291

>  <SCORE.INTRA.VDW.0>
0.946495

>  <SCORE.INTRA.norm>
-0.183417

>  <SCORE.RESTR>
0.00150064

>  <SCORE.RESTR.CAVITY>
0.00150064

>  <SCORE.RESTR.norm>
3.75159e-05

>  <SCORE.SYSTEM>
0

>  <SCORE.SYSTEM.CONST>
0

>  <SCORE.SYSTEM.DIHEDRAL>
0

>  <SCORE.SYSTEM.SOLV>
0

>  <SCORE.SYSTEM.norm>
0

>  <SCORE.heavy>
40

>  <SCORE.norm>
-0.248006

>  <RMSD>
6.067

$$$$
1ntb_lig
 OpenBabel11021811403D
libRbt.so/2013.1/901 2013/11/27
 40 42  0  0  0  0  0  0  0  0999 V2000
   -0.0169   32.8193    1.7486 C   0  0  0  0  0  0  0  0  0  0  0  0
    0.7184   33.6536    2.3760 N   0  0  0  0  0  0  0  0  0  0  0  0
    0.7223   34.3463   -8.4897 C   0  0  0  0  0  0  0  0  0  0  0  0
    0.5736   34.1155   -9.8807 O   0  0  0  0  0  0  0  0  0  0  0  0
    3.7921   33.6125   -2.9414 C   0  0  0  0  0  0  0  0  0  0  0  0
    4.4454   34.0183   -1.9116 N   0  0  0  0  0  0  0  0  0  0  0  0
    0.3793   31.1683   -9.0918 C   0  0  0  0  0  0  0  0  0  0  0  0
   -3.9110   35.2268   -7.5196 C   0  0  0  0  0  0  0  0  0  0  0  0
    0.0954   32.6450   -0.6014 C   0  0  2  0  0  0  0  0  0  0  0  0
   -0.5470   33.2593    0.6237 N   0  0  0  0  0  0  0  0  0  0  0  0
    0.3784   32.0004   -5.6767 C   0  0  2  0  0  0  0  0  0  0  0  0
   -1.1010   35.2787   -6.1412 C   0  0  1  0  0  0  0  0  0  0  0  0
   -0.9327   33.9329   -5.7357 O   0  0  0  0  0  0  0  0  0  0  0  0
    1.0502   33.6284   -1.2693 C   0  0  1  0  0  0  0  0  0  0  0  0
    2.0400   33.9796   -0.2068 O   0  0  0  0  0  0  0  0  0  0  0  0
    0.2153   33.4063   -6.2250 C   0  0  2  0  0  0  0  0  0  0  0  0
   -2.4262   35.7791   -5.6196 C   0  0  1  0  0  0  0  0  0  0  0  0
   -3.4829   35.0044   -6.1678 N   0  0  0  0  0  0  0  0  0  0  0  0
    1.7017   33.0640   -2.5302 C   0  0  2  0  0  0  0  0  0  0  0  0
    2.6228   33.9568   -3.2025 N   0  0  0  0  0  0  0  0  0  0  0  0
    0.1438   33.1867   -7.7129 C   0  0  1  0  0  0  0  0  0  0  0  0
   -1.2128   32.9583   -8.1088 O   0  0  0  0  0  0  0  0  0  0  0  0
   -2.4167   35.6383   -4.1067 C   0  0  2  0  0  0  0  0  0  0  0  0
   -3.6412   36.0845   -3.5663 O   0  0  0  0  0  0  0  0  0  0  0  0
    0.6052   32.6926   -3.4944 C   0  0  1  0  0  0  0  0  0  0  0  0
    1.2809   31.9921   -4.5756 O   0  0  0  0  0  0  0  0  0  0  0  0
    0.9447   31.9581   -7.9399 C   0  0  1  0  0  0  0  0  0  0  0  0
    0.8817   31.1862   -6.7384 O   0  0  0  0  0  0  0  0  0  0  0  0
   -1.2614   36.4941   -3.5868 C   0  0  1  0  0  0  0  0  0  0  0  0
   -1.1821   36.4098   -2.1725 O   0  0  0  0  0  0  0  0  0  0  0  0
   -0.3468   31.6522   -2.8451 C   0  0  2  0  0  0  0  0  0  0  0  0
   -1.3625   31.3059   -3.7739 O   0  0  0  0  0  0  0  0  0  0  0  0
    0.0425   36.0001   -4.2142 C   0  0  1  0  0  0  0  0  0  0  0  0
   -0.0393   36.0848   -5.6360 O   0  0  0  0  0  0  0  0  0  0  0  0
   -0.9913   32.2638   -1.5861 C   0  0  1  0  0  0  0  0  0  0  0  0
   -1.8738   31.3153   -0.9746 O   0  0  0  0  0  0  0  0  0  0  0  0
    1.1939   36.8761   -3.7197 C   0  0  0  0  0  0  0  0  0  0  0  0
    0.9943   38.2060   -4.1712 O   0  0  0  0  0  0  0  0  0  0  0  0
   -0.2499   31.6343    2.1926 N   0  0  0  0  0  0  0  0  0  0  0  0
    4.3544   32.8740   -3.7691 N   0  0  0  0  0  0  0  0  0  0  0  0
  1  2  1  0  0  0  0
  1 39  1  0  0  0  0
  3  4  1  0  0  0  0
  5  6  1  0  0  0  0
  5 40  1  0  0  0  0
  9 10  1  1  0  0  0
  9 14  1  0  0  0  0
  9 35  1  0  0  0  0
 10  1  1  0  0  0  0
 11 16  1  0  0  0  0
 11 28  1  0  0  0  0
 11 26  1  1  0  0  0
 12 17  1  0  0  0  0
 12 34  1  0  0  0  0
 12 13  1  1  0  0  0
 14 15  1  1  0  0  0
 14 19  1  0  0  0  0
 16 13  1  1  0  0  0
 16 21  1  0  0  0  0
 17 18  1  6  0  0  0
 17 23  1  0  0  0  0
 18  8  1  0  0  0  0
 19 20  1  6  0  0  0
 19 25  1  0  0  0  0
 20  5  1  0  0  0  0
 21  3  1  6  0  0  0
 21 22  1  0  0  0  0
 21 27  1  0  0  0  0
 23 24  1  1  0  0  0
 23 29  1  0  0  0  0
 25 26  1  6  0  0  0
 25 31  1  0  0  0  0
 27  7  1  6  0  0  0
 27 28  1  0  0  0  0
 29 30  1  1  0  0  0
 29 33  1  0  0  0  0
 31 32  1  6  0  0  0
 31 35  1  0  0  0  0
 33 34  1  0  0  0  0
 33 37  1  1  0  0  0
 35 36  1  1  0  0  0
 37 38  1  0  0  0  0
M  END
>  <CHROM.1>
-103.36920589,107.64167538,68.78297089,177.26084065,176.18908486,-77.08361194
102.77306940,-87.26607483,-177.31540048,-162.11139561,-63.49624723,0.03076054
33.80307948,-4.01566939,1.36582495,-0.69915508,1.52604607

>  <Name>
1ntb_lig

>  <RI>
0

>  <Rbt.Current_Directory>
/home/itssahil/PROJECTS/Mol_Feturizer/New_Systems/rnas/1ntb

>  <Rbt.Executable>
rbdock ($Id: //depot/dev/client3/rdock/2013.1/src/exe/rbdock.cxx#4 $)

>  <Rbt.Library>
libRbt.so (2013.1, Build901 2013/11/27)

>  <Rbt.Parameter_File>
/export/apps/rDock/src/rDock_2013.1_src/data/scripts/dock_solv.prm

>  <Rbt.Receptor>
prm/pocket_docking_6.prm

>  <SCORE>
-20.2892

>  <SCORE.INTER>
-4.37604

>  <SCORE.INTER.CONST>
1

>  <SCORE.INTER.POLAR>
-0.769236

>  <SCORE.INTER.ROT>
11

>  <SCORE.INTER.SOLV>
22.6461

>  <SCORE.INTER.VDW>
-18.8353

>  <SCORE.INTER.norm>
-0.109401

>  <SCORE.INTRA>
-15.9131

>  <SCORE.INTRA.DIHEDRAL>
-9.92495

>  <SCORE.INTRA.DIHEDRAL.0>
15.4453

>  <SCORE.INTRA.POLAR>
0

>  <SCORE.INTRA.POLAR.0>
0

>  <SCORE.INTRA.REPUL>
-0.808234

>  <SCORE.INTRA.REPUL.0>
0.823958

>  <SCORE.INTRA.SOLV>
-1.53246

>  <SCORE.INTRA.SOLV.lig_0>
-99.3069

>  <SCORE.INTRA.VDW>
-6.14326

>  <SCORE.INTRA.VDW.0>
0.946495

>  <SCORE.INTRA.norm>
-0.397828

>  <SCORE.RESTR>
0

>  <SCORE.RESTR.CAVITY>
0

>  <SCORE.RESTR.norm>
0

>  <SCORE.SYSTEM>
0

>  <SCORE.SYSTEM.CONST>
0

>  <SCORE.SYSTEM.DIHEDRAL>
0

>  <SCORE.SYSTEM.SOLV>
0

>  <SCORE.SYSTEM.norm>
0

>  <SCORE.heavy>
40

>  <SCORE.norm>
-0.507229

>  <RMSD>
6.150

$$$$
1ntb_lig
 OpenBabel11021811403D
libRbt.so/2013.1/901 2013/11/27
 40 42  0  0  0  0  0  0  0  0999 V2000
    4.7491   39.6514   -0.1874 C   0  0  0  0  0  0  0  0  0  0  0  0
    4.5501   38.7976    0.7409 N   0  0  0  0  0  0  0  0  0  0  0  0
   -1.6953   34.4847   -4.7169 C   0  0  0  0  0  0  0  0  0  0  0  0
   -2.2235   33.7276   -5.7931 O   0  0  0  0  0  0  0  0  0  0  0  0
   -1.1343   38.0925   -0.9615 C   0  0  0  0  0  0  0  0  0  0  0  0
   -1.4242   38.4104    0.2496 N   0  0  0  0  0  0  0  0  0  0  0  0
   -1.1516   35.9770   -7.5554 C   0  0  0  0  0  0  0  0  0  0  0  0
    0.3983   31.9380   -4.4418 C   0  0  0  0  0  0  0  0  0  0  0  0
    2.7434   40.4316   -1.1539 C   0  0  2  0  0  0  0  0  0  0  0  0
    3.9088   40.6678   -0.2174 N   0  0  0  0  0  0  0  0  0  0  0  0
    0.3883   37.5157   -4.7956 C   0  0  2  0  0  0  0  0  0  0  0  0
    0.8544   34.6222   -2.6953 C   0  0  1  0  0  0  0  0  0  0  0  0
    1.1444   35.6239   -3.6527 O   0  0  0  0  0  0  0  0  0  0  0  0
    1.9555   39.1922   -0.7442 C   0  0  1  0  0  0  0  0  0  0  0  0
    1.5277   39.4603    0.6619 O   0  0  0  0  0  0  0  0  0  0  0  0
    0.0148   36.2116   -4.1148 C   0  0  2  0  0  0  0  0  0  0  0  0
    1.7257   33.4211   -2.9727 C   0  0  1  0  0  0  0  0  0  0  0  0
    1.4412   32.9085   -4.2664 N   0  0  0  0  0  0  0  0  0  0  0  0
    0.7847   38.8940   -1.6786 C   0  0  2  0  0  0  0  0  0  0  0  0
   -0.0013   37.7280   -1.3321 N   0  0  0  0  0  0  0  0  0  0  0  0
   -0.6193   35.4159   -5.2247 C   0  0  1  0  0  0  0  0  0  0  0  0
    0.3821   34.6725   -5.9272 O   0  0  0  0  0  0  0  0  0  0  0  0
    3.1758   33.8696   -2.9048 C   0  0  2  0  0  0  0  0  0  0  0  0
    4.0365   32.7829   -3.1675 O   0  0  0  0  0  0  0  0  0  0  0  0
    1.3349   38.7047   -3.0685 C   0  0  1  0  0  0  0  0  0  0  0  0
    0.1623   38.6195   -3.9253 O   0  0  0  0  0  0  0  0  0  0  0  0
   -1.2025   36.4429   -6.1234 C   0  0  1  0  0  0  0  0  0  0  0  0
   -0.4238   37.6312   -5.9664 O   0  0  0  0  0  0  0  0  0  0  0  0
    3.4106   34.4060   -1.4925 C   0  0  1  0  0  0  0  0  0  0  0  0
    4.7499   34.8532   -1.3506 O   0  0  0  0  0  0  0  0  0  0  0  0
    2.0974   39.9798   -3.5190 C   0  0  2  0  0  0  0  0  0  0  0  0
    2.5944   39.7859   -4.8341 O   0  0  0  0  0  0  0  0  0  0  0  0
    2.4433   35.5616   -1.2343 C   0  0  1  0  0  0  0  0  0  0  0  0
    1.0975   35.1105   -1.3782 O   0  0  0  0  0  0  0  0  0  0  0  0
    3.2751   40.2380   -2.5595 C   0  0  1  0  0  0  0  0  0  0  0  0
    3.9898   41.4124   -2.9621 O   0  0  0  0  0  0  0  0  0  0  0  0
    2.6555   36.0774    0.1892 C   0  0  0  0  0  0  0  0  0  0  0  0
    2.3661   35.0372    1.1093 O   0  0  0  0  0  0  0  0  0  0  0  0
    5.6902   39.5209   -1.0551 N   0  0  0  0  0  0  0  0  0  0  0  0
   -2.0311   38.0893   -1.8232 N   0  0  0  0  0  0  0  0  0  0  0  0
  1  2  1  0  0  0  0
  1 39  1  0  0  0  0
  3  4  1  0  0  0  0
  5  6  1  0  0  0  0
  5 40  1  0  0  0  0
  9 10  1  1  0  0  0
  9 14  1  0  0  0  0
  9 35  1  0  0  0  0
 10  1  1  0  0  0  0
 11 16  1  0  0  0  0
 11 28  1  0  0  0  0
 11 26  1  1  0  0  0
 12 17  1  0  0  0  0
 12 34  1  0  0  0  0
 12 13  1  6  0  0  0
 14 15  1  1  0  0  0
 14 19  1  0  0  0  0
 16 13  1  6  0  0  0
 16 21  1  0  0  0  0
 17 18  1  6  0  0  0
 17 23  1  0  0  0  0
 18  8  1  0  0  0  0
 19 20  1  1  0  0  0
 19 25  1  0  0  0  0
 20  5  1  0  0  0  0
 21  3  1  1  0  0  0
 21 22  1  0  0  0  0
 21 27  1  0  0  0  0
 23 24  1  1  0  0  0
 23 29  1  0  0  0  0
 25 26  1  6  0  0  0
 25 31  1  0  0  0  0
 27  7  1  6  0  0  0
 27 28  1  0  0  0  0
 29 30  1  6  0  0  0
 29 33  1  0  0  0  0
 31 32  1  6  0  0  0
 31 35  1  0  0  0  0
 33 34  1  0  0  0  0
 33 37  1  1  0  0  0
 35 36  1  6  0  0  0
 37 38  1  0  0  0  0
M  END
>  <CHROM.1>
59.22047827,-94.08213037,82.74512336,137.16902249,163.32659908,-87.97719319
111.81659248,-87.46451877,-177.90150781,-134.26540916,-61.81209996,1.44529462
36.86747068,-2.69655970,-0.83283269,0.80412050,-3.02200043

>  <Name>
1ntb_lig

>  <RI>
0

>  <Rbt.Current_Directory>
/home/itssahil/PROJECTS/Mol_Feturizer/New_Systems/rnas/1ntb

>  <Rbt.Executable>
rbdock ($Id: //depot/dev/client3/rdock/2013.1/src/exe/rbdock.cxx#4 $)

>  <Rbt.Library>
libRbt.so (2013.1, Build901 2013/11/27)

>  <Rbt.Parameter_File>
/export/apps/rDock/src/rDock_2013.1_src/data/scripts/dock_solv.prm

>  <Rbt.Receptor>
prm/pocket_docking_4.prm

>  <SCORE>
-11.3382

>  <SCORE.INTER>
-3.0726

>  <SCORE.INTER.CONST>
1

>  <SCORE.INTER.POLAR>
-0.380014

>  <SCORE.INTER.ROT>
11

>  <SCORE.INTER.SOLV>
16.252

>  <SCORE.INTER.VDW>
-17.1324

>  <SCORE.INTER.norm>
-0.0768151

>  <SCORE.INTRA>
-8.26555

>  <SCORE.INTRA.DIHEDRAL>
3.20948

>  <SCORE.INTRA.DIHEDRAL.0>
15.4453

>  <SCORE.INTRA.POLAR>
0

>  <SCORE.INTRA.POLAR.0>
0

>  <SCORE.INTRA.REPUL>
-0.823958

>  <SCORE.INTRA.REPUL.0>
0.823958

>  <SCORE.INTRA.SOLV>
4.26494

>  <SCORE.INTRA.SOLV.lig_0>
-99.3069

>  <SCORE.INTRA.VDW>
-7.88297

>  <SCORE.INTRA.VDW.0>
0.946495

>  <SCORE.INTRA.norm>
-0.206639

>  <SCORE.RESTR>
0

>  <SCORE.RESTR.CAVITY>
0

>  <SCORE.RESTR.norm>
0

>  <SCORE.SYSTEM>
0

>  <SCORE.SYSTEM.CONST>
0

>  <SCORE.SYSTEM.DIHEDRAL>
0

>  <SCORE.SYSTEM.SOLV>
0

>  <SCORE.SYSTEM.norm>
0

>  <SCORE.heavy>
40

>  <SCORE.norm>
-0.283454

>  <RMSD>
6.159

$$$$
1ntb_lig
 OpenBabel11021811403D
libRbt.so/2013.1/901 2013/11/27
 40 42  0  0  0  0  0  0  0  0999 V2000
   -1.4870   33.7830   -4.5294 C   0  0  0  0  0  0  0  0  0  0  0  0
   -2.5963   34.2152   -4.0681 N   0  0  0  0  0  0  0  0  0  0  0  0
    4.6538   37.6132    1.8196 C   0  0  0  0  0  0  0  0  0  0  0  0
    5.9402   38.0901    2.1774 O   0  0  0  0  0  0  0  0  0  0  0  0
   -0.5331   33.6485    1.2846 C   0  0  0  0  0  0  0  0  0  0  0  0
   -1.7805   33.3404    1.3173 N   0  0  0  0  0  0  0  0  0  0  0  0
    6.9439   35.5998    0.6875 C   0  0  0  0  0  0  0  0  0  0  0  0
    0.3551   37.1945    2.3728 C   0  0  0  0  0  0  0  0  0  0  0  0
   -0.1248   32.6011   -3.0084 C   0  0  2  0  0  0  0  0  0  0  0  0
   -1.1367   32.5743   -4.1337 N   0  0  0  0  0  0  0  0  0  0  0  0
    3.6982   34.8868   -0.4581 C   0  0  2  0  0  0  0  0  0  0  0  0
    1.5200   36.9996   -0.9435 C   0  0  1  0  0  0  0  0  0  0  0  0
    2.9325   37.0555   -0.8675 O   0  0  0  0  0  0  0  0  0  0  0  0
   -0.6094   33.4771   -1.8583 C   0  0  1  0  0  0  0  0  0  0  0  0
   -1.9177   32.8818   -1.4511 O   0  0  0  0  0  0  0  0  0  0  0  0
    3.4090   36.2601    0.1200 C   0  0  2  0  0  0  0  0  0  0  0  0
    0.9425   37.9386    0.0878 C   0  0  1  0  0  0  0  0  0  0  0  0
    1.3436   37.5311    1.3880 N   0  0  0  0  0  0  0  0  0  0  0  0
    0.3930   33.5604   -0.7090 C   0  0  2  0  0  0  0  0  0  0  0  0
   -0.0199   34.3775    0.4133 N   0  0  0  0  0  0  0  0  0  0  0  0
    4.7582   36.7166    0.6080 C   0  0  1  0  0  0  0  0  0  0  0  0
    5.4559   37.3918   -0.4440 O   0  0  0  0  0  0  0  0  0  0  0  0
    1.4725   39.3331   -0.2004 C   0  0  2  0  0  0  0  0  0  0  0  0
    0.9695   40.2523    0.7444 O   0  0  0  0  0  0  0  0  0  0  0  0
    1.6830   34.1147   -1.2556 C   0  0  1  0  0  0  0  0  0  0  0  0
    2.6367   33.9845   -0.1648 O   0  0  0  0  0  0  0  0  0  0  0  0
    5.4672   35.4590    0.9518 C   0  0  1  0  0  0  0  0  0  0  0  0
    4.9179   34.4274    0.1288 O   0  0  0  0  0  0  0  0  0  0  0  0
    1.0050   39.7054   -1.6075 C   0  0  1  0  0  0  0  0  0  0  0  0
    1.4683   41.0010   -1.9550 O   0  0  0  0  0  0  0  0  0  0  0  0
    2.2151   33.2039   -2.3947 C   0  0  2  0  0  0  0  0  0  0  0  0
    3.4362   33.7354   -2.8851 O   0  0  0  0  0  0  0  0  0  0  0  0
    1.5449   38.6737   -2.5983 C   0  0  1  0  0  0  0  0  0  0  0  0
    1.0789   37.3719   -2.2470 O   0  0  0  0  0  0  0  0  0  0  0  0
    1.1821   33.1564   -3.5370 C   0  0  1  0  0  0  0  0  0  0  0  0
    1.6587   32.3192   -4.5974 O   0  0  0  0  0  0  0  0  0  0  0  0
    1.0509   39.0274   -4.0013 C   0  0  0  0  0  0  0  0  0  0  0  0
    1.5828   38.0968   -4.9306 O   0  0  0  0  0  0  0  0  0  0  0  0
   -0.7428   34.4858   -5.3092 N   0  0  0  0  0  0  0  0  0  0  0  0
    0.2177   33.2519    2.1933 N   0  0  0  0  0  0  0  0  0  0  0  0
  1  2  1  0  0  0  0
  1 39  1  0  0  0  0
  3  4  1  0  0  0  0
  5  6  1  0  0  0  0
  5 40  1  0  0  0  0
  9 10  1  6  0  0  0
  9 14  1  0  0  0  0
  9 35  1  0  0  0  0
 10  1  1  0  0  0  0
 11 16  1  0  0  0  0
 11 28  1  0  0  0  0
 11 26  1  1  0  0  0
 12 17  1  0  0  0  0
 12 34  1  0  0  0  0
 12 13  1  6  0  0  0
 14 15  1  1  0  0  0
 14 19  1  0  0  0  0
 16 13  1  6  0  0  0
 16 21  1  0  0  0  0
 17 18  1  1  0  0  0
 17 23  1  0  0  0  0
 18  8  1  0  0  0  0
 19 20  1  1  0  0  0
 19 25  1  0  0  0  0
 20  5  1  0  0  0  0
 21  3  1  1  0  0  0
 21 22  1  0  0  0  0
 21 27  1  0  0  0  0
 23 24  1  1  0  0  0
 23 29  1  0  0  0  0
 25 26  1  1  0  0  0
 25 31  1  0  0  0  0
 27  7  1  6  0  0  0
 27 28  1  0  0  0  0
 29 30  1  6  0  0  0
 29 33  1  0  0  0  0
 31 32  1  6  0  0  0
 31 35  1  0  0  0  0
 33 34  1  0  0  0  0
 33 37  1  6  0  0  0
 35 36  1  6  0  0  0
 37 38  1  0  0  0  0
M  END
>  <CHROM.1>
52.69777461,-99.68487669,88.84055999,82.44461048,91.06334247,-120.76661468
95.61113923,-88.38057278,-175.81069654,-160.45424515,178.21795073,1.66574776
35.76849489,-1.09928213,2.59944345,0.76517232,2.96749178

>  <Name>
1ntb_lig

>  <RI>
0

>  <Rbt.Current_Directory>
/home/itssahil/PROJECTS/Mol_Feturizer/New_Systems/rnas/1ntb

>  <Rbt.Executable>
rbdock ($Id: //depot/dev/client3/rdock/2013.1/src/exe/rbdock.cxx#4 $)

>  <Rbt.Library>
libRbt.so (2013.1, Build901 2013/11/27)

>  <Rbt.Parameter_File>
/export/apps/rDock/src/rDock_2013.1_src/data/scripts/dock_solv.prm

>  <Rbt.Receptor>
prm/pocket_docking_4.prm

>  <SCORE>
-8.79145

>  <SCORE.INTER>
-0.337591

>  <SCORE.INTER.CONST>
1

>  <SCORE.INTER.POLAR>
-0.270873

>  <SCORE.INTER.ROT>
11

>  <SCORE.INTER.SOLV>
13.5504

>  <SCORE.INTER.VDW>
-14.7723

>  <SCORE.INTER.norm>
-0.00843977

>  <SCORE.INTRA>
-8.45386

>  <SCORE.INTRA.DIHEDRAL>
-1.00867

>  <SCORE.INTRA.DIHEDRAL.0>
15.4453

>  <SCORE.INTRA.POLAR>
0

>  <SCORE.INTRA.POLAR.0>
0

>  <SCORE.INTRA.REPUL>
-0.823958

>  <SCORE.INTRA.REPUL.0>
0.823958

>  <SCORE.INTRA.SOLV>
1.77026

>  <SCORE.INTRA.SOLV.lig_0>
-99.3069

>  <SCORE.INTRA.VDW>
-4.71487

>  <SCORE.INTRA.VDW.0>
0.946495

>  <SCORE.INTRA.norm>
-0.211347

>  <SCORE.RESTR>
0

>  <SCORE.RESTR.CAVITY>
0

>  <SCORE.RESTR.norm>
0

>  <SCORE.SYSTEM>
0

>  <SCORE.SYSTEM.CONST>
0

>  <SCORE.SYSTEM.DIHEDRAL>
0

>  <SCORE.SYSTEM.SOLV>
0

>  <SCORE.SYSTEM.norm>
0

>  <SCORE.heavy>
40

>  <SCORE.norm>
-0.219786

>  <RMSD>
6.252

$$$$
1ntb_lig
 OpenBabel11021811403D
libRbt.so/2013.1/901 2013/11/27
 40 42  0  0  0  0  0  0  0  0999 V2000
    6.2963   42.5946   -0.5541 C   0  0  0  0  0  0  0  0  0  0  0  0
    5.6366   43.3788   -1.3157 N   0  0  0  0  0  0  0  0  0  0  0  0
    0.7964   33.0947    0.3080 C   0  0  0  0  0  0  0  0  0  0  0  0
   -0.0841   32.6090    1.3076 O   0  0  0  0  0  0  0  0  0  0  0  0
    1.4421   39.2564   -2.4385 C   0  0  0  0  0  0  0  0  0  0  0  0
    1.8326   40.2786   -3.1129 N   0  0  0  0  0  0  0  0  0  0  0  0
    0.1207   35.4626    2.4332 C   0  0  0  0  0  0  0  0  0  0  0  0
    4.0660   33.5113   -2.3170 C   0  0  0  0  0  0  0  0  0  0  0  0
    5.1410   40.5540   -0.2945 C   0  0  2  0  0  0  0  0  0  0  0  0
    5.5769   41.8804    0.2901 N   0  0  0  0  0  0  0  0  0  0  0  0
    1.8948   36.5323   -0.4065 C   0  0  2  0  0  0  0  0  0  0  0  0
    1.6152   35.3050   -3.2033 C   0  0  1  0  0  0  0  0  0  0  0  0
    0.7841   35.3082   -2.0573 O   0  0  0  0  0  0  0  0  0  0  0  0
    3.6277   40.5075   -0.4760 C   0  0  1  0  0  0  0  0  0  0  0  0
    3.3149   41.6668   -1.3648 O   0  0  0  0  0  0  0  0  0  0  0  0
    1.5049   35.1583   -0.9202 C   0  0  2  0  0  0  0  0  0  0  0  0
    1.9534   33.8757   -3.5516 C   0  0  1  0  0  0  0  0  0  0  0  0
    2.6597   33.2725   -2.4771 N   0  0  0  0  0  0  0  0  0  0  0  0
    3.1351   39.1748   -1.0361 C   0  0  2  0  0  0  0  0  0  0  0  0
    1.7034   39.0784   -1.2327 N   0  0  0  0  0  0  0  0  0  0  0  0
    0.6735   34.5969    0.2026 C   0  0  1  0  0  0  0  0  0  0  0  0
   -0.6983   34.9664    0.0273 O   0  0  0  0  0  0  0  0  0  0  0  0
    0.6505   33.1321   -3.7923 C   0  0  2  0  0  0  0  0  0  0  0  0
    0.9095   31.7828   -4.1132 O   0  0  0  0  0  0  0  0  0  0  0  0
    3.5625   38.0847   -0.0879 C   0  0  1  0  0  0  0  0  0  0  0  0
    3.2345   36.8443   -0.7735 O   0  0  0  0  0  0  0  0  0  0  0  0
    1.2157   35.2493    1.4203 C   0  0  1  0  0  0  0  0  0  0  0  0
    1.7620   36.5070    1.0166 O   0  0  0  0  0  0  0  0  0  0  0  0
   -0.0530   33.8310   -4.9559 C   0  0  1  0  0  0  0  0  0  0  0  0
   -1.2892   33.1944   -5.2395 O   0  0  0  0  0  0  0  0  0  0  0  0
    5.1073   38.0876    0.0672 C   0  0  2  0  0  0  0  0  0  0  0  0
    5.4892   37.0457    0.9519 O   0  0  0  0  0  0  0  0  0  0  0  0
   -0.2917   35.2946   -4.5835 C   0  0  1  0  0  0  0  0  0  0  0  0
    0.9520   35.9326   -4.2980 O   0  0  0  0  0  0  0  0  0  0  0  0
    5.5613   39.4420    0.6449 C   0  0  1  0  0  0  0  0  0  0  0  0
    6.9859   39.4608    0.7945 O   0  0  0  0  0  0  0  0  0  0  0  0
   -0.9661   36.0019   -5.7593 C   0  0  0  0  0  0  0  0  0  0  0  0
   -2.3243   35.5983   -5.8284 O   0  0  0  0  0  0  0  0  0  0  0  0
    7.5805   42.5202   -0.5857 N   0  0  0  0  0  0  0  0  0  0  0  0
    0.7157   38.4068   -2.9835 N   0  0  0  0  0  0  0  0  0  0  0  0
  1  2  1  0  0  0  0
  1 39  1  0  0  0  0
  3  4  1  0  0  0  0
  5  6  1  0  0  0  0
  5 40  1  0  0  0  0
  9 10  1  1  0  0  0
  9 14  1  0  0  0  0
  9 35  1  0  0  0  0
 10  1  1  0  0  0  0
 11 16  1  0  0  0  0
 11 28  1  0  0  0  0
 11 26  1  1  0  0  0
 12 17  1  0  0  0  0
 12 34  1  0  0  0  0
 12 13  1  1  0  0  0
 14 15  1  6  0  0  0
 14 19  1  0  0  0  0
 16 13  1  6  0  0  0
 16 21  1  0  0  0  0
 17 18  1  1  0  0  0
 17 23  1  0  0  0  0
 18  8  1  0  0  0  0
 19 20  1  1  0  0  0
 19 25  1  0  0  0  0
 20  5  1  0  0  0  0
 21  3  1  1  0  0  0
 21 22  1  0  0  0  0
 21 27  1  0  0  0  0
 23 24  1  6  0  0  0
 23 29  1  0  0  0  0
 25 26  1  6  0  0  0
 25 31  1  0  0  0  0
 27  7  1  1  0  0  0
 27 28  1  0  0  0  0
 29 30  1  1  0  0  0
 29 33  1  0  0  0  0
 31 32  1  1  0  0  0
 31 35  1  0  0  0  0
 33 34  1  0  0  0  0
 33 37  1  6  0  0  0
 35 36  1  6  0  0  0
 37 38  1  0  0  0  0
M  END
>  <CHROM.1>
-113.50818322,89.50915892,-172.56923187,80.34125699,90.49362940,-80.56200728
100.61500348,-53.58296361,-175.40199260,-88.92690319,74.33486124,2.26005407
36.90875287,-1.51292937,0.31696197,-0.92790075,-0.79702894

>  <Name>
1ntb_lig

>  <RI>
0

>  <Rbt.Current_Directory>
/home/itssahil/PROJECTS/Mol_Feturizer/New_Systems/rnas/1ntb

>  <Rbt.Executable>
rbdock ($Id: //depot/dev/client3/rdock/2013.1/src/exe/rbdock.cxx#4 $)

>  <Rbt.Library>
libRbt.so (2013.1, Build901 2013/11/27)

>  <Rbt.Parameter_File>
/export/apps/rDock/src/rDock_2013.1_src/data/scripts/dock_solv.prm

>  <Rbt.Receptor>
prm/pocket_docking_6.prm

>  <SCORE>
-12.6455

>  <SCORE.INTER>
-4.58269

>  <SCORE.INTER.CONST>
1

>  <SCORE.INTER.POLAR>
-0.138381

>  <SCORE.INTER.ROT>
11

>  <SCORE.INTER.SOLV>
15.0981

>  <SCORE.INTER.VDW>
-18.5599

>  <SCORE.INTER.norm>
-0.114567

>  <SCORE.INTRA>
-8.06285

>  <SCORE.INTRA.DIHEDRAL>
-1.55494

>  <SCORE.INTRA.DIHEDRAL.0>
15.4453

>  <SCORE.INTRA.POLAR>
0

>  <SCORE.INTRA.POLAR.0>
0

>  <SCORE.INTRA.REPUL>
-0.823958

>  <SCORE.INTRA.REPUL.0>
0.823958

>  <SCORE.INTRA.SOLV>
2.41527

>  <SCORE.INTRA.SOLV.lig_0>
-99.3069

>  <SCORE.INTRA.VDW>
-4.37323

>  <SCORE.INTRA.VDW.0>
0.946495

>  <SCORE.INTRA.norm>
-0.201571

>  <SCORE.RESTR>
0

>  <SCORE.RESTR.CAVITY>
0

>  <SCORE.RESTR.norm>
0

>  <SCORE.SYSTEM>
0

>  <SCORE.SYSTEM.CONST>
0

>  <SCORE.SYSTEM.DIHEDRAL>
0

>  <SCORE.SYSTEM.SOLV>
0

>  <SCORE.SYSTEM.norm>
0

>  <SCORE.heavy>
40

>  <SCORE.norm>
-0.316139

>  <RMSD>
6.281

$$$$
1ntb_lig
 OpenBabel11021811403D
libRbt.so/2013.1/901 2013/11/27
 40 42  0  0  0  0  0  0  0  0999 V2000
    6.3216   42.0191    0.2205 C   0  0  0  0  0  0  0  0  0  0  0  0
    5.2957   42.7419   -0.0148 N   0  0  0  0  0  0  0  0  0  0  0  0
   -0.9243   35.1246    2.4373 C   0  0  0  0  0  0  0  0  0  0  0  0
   -1.9182   35.3243    3.4286 O   0  0  0  0  0  0  0  0  0  0  0  0
    1.7362   39.1877   -2.1835 C   0  0  0  0  0  0  0  0  0  0  0  0
    1.9172   38.1329   -2.8953 N   0  0  0  0  0  0  0  0  0  0  0  0
   -0.6090   38.0862    3.7450 C   0  0  0  0  0  0  0  0  0  0  0  0
   -3.6456   36.2074   -1.3067 C   0  0  0  0  0  0  0  0  0  0  0  0
    5.7499   39.8801   -0.5942 C   0  0  2  0  0  0  0  0  0  0  0  0
    6.6102   41.1208   -0.7014 N   0  0  0  0  0  0  0  0  0  0  0  0
    1.4322   37.5202    0.9399 C   0  0  2  0  0  0  0  0  0  0  0  0
   -0.7662   35.1761   -0.7289 C   0  0  1  0  0  0  0  0  0  0  0  0
   -0.0756   36.3748   -0.4282 O   0  0  0  0  0  0  0  0  0  0  0  0
    4.2829   40.2085   -0.8491 C   0  0  1  0  0  0  0  0  0  0  0  0
    4.2603   40.8168   -2.2134 O   0  0  0  0  0  0  0  0  0  0  0  0
    0.5326   36.3081    0.7803 C   0  0  2  0  0  0  0  0  0  0  0  0
   -1.4565   35.3368   -2.0616 C   0  0  1  0  0  0  0  0  0  0  0  0
   -2.3983   36.3976   -1.9911 N   0  0  0  0  0  0  0  0  0  0  0  0
    3.3687   38.9916   -0.7220 C   0  0  2  0  0  0  0  0  0  0  0  0
    1.9630   39.2472   -0.9591 N   0  0  0  0  0  0  0  0  0  0  0  0
   -0.4483   36.4591    1.9126 C   0  0  1  0  0  0  0  0  0  0  0  0
   -1.5658   37.2474    1.4896 O   0  0  0  0  0  0  0  0  0  0  0  0
   -0.3966   35.6585   -3.1017 C   0  0  2  0  0  0  0  0  0  0  0  0
   -0.9915   35.8292   -4.3696 O   0  0  0  0  0  0  0  0  0  0  0  0
    3.5259   38.4345    0.6690 C   0  0  1  0  0  0  0  0  0  0  0  0
    2.7856   37.1823    0.6551 O   0  0  0  0  0  0  0  0  0  0  0  0
    0.3108   37.1881    2.9589 C   0  0  1  0  0  0  0  0  0  0  0  0
    1.3053   37.9682    2.2914 O   0  0  0  0  0  0  0  0  0  0  0  0
    0.5774   34.4803   -3.1244 C   0  0  1  0  0  0  0  0  0  0  0  0
    1.6073   34.7094   -4.0734 O   0  0  0  0  0  0  0  0  0  0  0  0
    5.0077   38.0480    0.9249 C   0  0  2  0  0  0  0  0  0  0  0  0
    5.1309   37.5130    2.2336 O   0  0  0  0  0  0  0  0  0  0  0  0
    1.1800   34.3087   -1.7296 C   0  0  1  0  0  0  0  0  0  0  0  0
    0.1432   34.0793   -0.7769 O   0  0  0  0  0  0  0  0  0  0  0  0
    5.8930   39.3029    0.7994 C   0  0  1  0  0  0  0  0  0  0  0  0
    7.2649   38.9629    1.0332 O   0  0  0  0  0  0  0  0  0  0  0  0
    2.1297   33.1106   -1.7437 C   0  0  0  0  0  0  0  0  0  0  0  0
    2.6465   32.9108   -0.4378 O   0  0  0  0  0  0  0  0  0  0  0  0
    7.0173   42.1373    1.2965 N   0  0  0  0  0  0  0  0  0  0  0  0
    1.3635   40.2389   -2.7337 N   0  0  0  0  0  0  0  0  0  0  0  0
  1  2  1  0  0  0  0
  1 39  1  0  0  0  0
  3  4  1  0  0  0  0
  5  6  1  0  0  0  0
  5 40  1  0  0  0  0
  9 10  1  1  0  0  0
  9 14  1  0  0  0  0
  9 35  1  0  0  0  0
 10  1  1  0  0  0  0
 11 16  1  0  0  0  0
 11 28  1  0  0  0  0
 11 26  1  1  0  0  0
 12 17  1  0  0  0  0
 12 34  1  0  0  0  0
 12 13  1  6  0  0  0
 14 15  1  6  0  0  0
 14 19  1  0  0  0  0
 16 13  1  6  0  0  0
 16 21  1  0  0  0  0
 17 18  1  1  0  0  0
 17 23  1  0  0  0  0
 18  8  1  0  0  0  0
 19 20  1  1  0  0  0
 19 25  1  0  0  0  0
 20  5  1  0  0  0  0
 21  3  1  1  0  0  0
 21 22  1  0  0  0  0
 21 27  1  0  0  0  0
 23 24  1  6  0  0  0
 23 29  1  0  0  0  0
 25 26  1  6  0  0  0
 25 31  1  0  0  0  0
 27  7  1  6  0  0  0
 27 28  1  0  0  0  0
 29 30  1  6  0  0  0
 29 33  1  0  0  0  0
 31 32  1  1  0  0  0
 31 35  1  0  0  0  0
 33 34  1  0  0  0  0
 33 37  1  6  0  0  0
 35 36  1  6  0  0  0
 37 38  1  0  0  0  0
M  END
>  <CHROM.1>
63.97856641,-79.90584856,172.91649705,178.07825699,170.85085054,-75.24302627
84.94481466,61.48977702,-175.57889487,-85.46223798,-177.45650246,1.87788833
37.45904829,-0.28661782,-0.22412520,-0.65707869,-1.74976543

>  <Name>
1ntb_lig

>  <RI>
0

>  <Rbt.Current_Directory>
/home/itssahil/PROJECTS/Mol_Feturizer/New_Systems/rnas/1ntb

>  <Rbt.Executable>
rbdock ($Id: //depot/dev/client3/rdock/2013.1/src/exe/rbdock.cxx#4 $)

>  <Rbt.Library>
libRbt.so (2013.1, Build901 2013/11/27)

>  <Rbt.Parameter_File>
/export/apps/rDock/src/rDock_2013.1_src/data/scripts/dock_solv.prm

>  <Rbt.Receptor>
prm/pocket_docking_7.prm

>  <SCORE>
-15.7838

>  <SCORE.INTER>
-5.22627

>  <SCORE.INTER.CONST>
1

>  <SCORE.INTER.POLAR>
-1.19796

>  <SCORE.INTER.ROT>
11

>  <SCORE.INTER.SOLV>
17.9501

>  <SCORE.INTER.VDW>
-16.4077

>  <SCORE.INTER.norm>
-0.130657

>  <SCORE.INTRA>
-10.5575

>  <SCORE.INTRA.DIHEDRAL>
-9.55292

>  <SCORE.INTRA.DIHEDRAL.0>
15.4453

>  <SCORE.INTRA.POLAR>
0

>  <SCORE.INTRA.POLAR.0>
0

>  <SCORE.INTRA.REPUL>
-0.823958

>  <SCORE.INTRA.REPUL.0>
0.823958

>  <SCORE.INTRA.SOLV>
2.667

>  <SCORE.INTRA.SOLV.lig_0>
-99.3069

>  <SCORE.INTRA.VDW>
-2.99478

>  <SCORE.INTRA.VDW.0>
0.946495

>  <SCORE.INTRA.norm>
-0.263938

>  <SCORE.RESTR>
0

>  <SCORE.RESTR.CAVITY>
0

>  <SCORE.RESTR.norm>
0

>  <SCORE.SYSTEM>
0

>  <SCORE.SYSTEM.CONST>
0

>  <SCORE.SYSTEM.DIHEDRAL>
0

>  <SCORE.SYSTEM.SOLV>
0

>  <SCORE.SYSTEM.norm>
0

>  <SCORE.heavy>
40

>  <SCORE.norm>
-0.394595

>  <RMSD>
6.301

$$$$
1ntb_lig
 OpenBabel11021811403D
libRbt.so/2013.1/901 2013/11/27
 40 42  0  0  0  0  0  0  0  0999 V2000
    0.1444   32.7372   -4.6739 C   0  0  0  0  0  0  0  0  0  0  0  0
   -1.1024   32.4659   -4.6298 N   0  0  0  0  0  0  0  0  0  0  0  0
    2.8966   39.6246    1.1782 C   0  0  0  0  0  0  0  0  0  0  0  0
    1.8571   39.0521    1.9541 O   0  0  0  0  0  0  0  0  0  0  0  0
   -0.1178   34.0249    1.1726 C   0  0  0  0  0  0  0  0  0  0  0  0
    0.5320   34.3354    2.2372 N   0  0  0  0  0  0  0  0  0  0  0  0
    5.8397   38.3200    1.6430 C   0  0  0  0  0  0  0  0  0  0  0  0
    3.3586   41.1137   -2.9663 C   0  0  0  0  0  0  0  0  0  0  0  0
    1.5139   32.4375   -2.7764 C   0  0  2  0  0  0  0  0  0  0  0  0
    0.9370   31.8799   -4.0598 N   0  0  0  0  0  0  0  0  0  0  0  0
    3.5891   36.2346   -0.0721 C   0  0  2  0  0  0  0  0  0  0  0  0
    1.6432   38.8467   -1.6483 C   0  0  1  0  0  0  0  0  0  0  0  0
    2.5852   37.8030   -1.4825 O   0  0  0  0  0  0  0  0  0  0  0  0
    0.4622   33.2222   -1.9999 C   0  0  1  0  0  0  0  0  0  0  0  0
   -0.6447   32.2466   -1.7654 O   0  0  0  0  0  0  0  0  0  0  0  0
    2.7879   37.5198   -0.1735 C   0  0  2  0  0  0  0  0  0  0  0  0
    1.6760   39.3042   -3.0864 C   0  0  1  0  0  0  0  0  0  0  0  0
    2.9673   39.8037   -3.4033 N   0  0  0  0  0  0  0  0  0  0  0  0
    1.0055   33.8315   -0.7091 C   0  0  2  0  0  0  0  0  0  0  0  0
    0.0453   34.5848    0.0708 N   0  0  0  0  0  0  0  0  0  0  0  0
    3.6824   38.5335    0.4892 C   0  0  1  0  0  0  0  0  0  0  0  0
    4.5733   39.1040   -0.4752 O   0  0  0  0  0  0  0  0  0  0  0  0
    1.3580   38.1065   -3.9656 C   0  0  2  0  0  0  0  0  0  0  0  0
    1.3853   38.4779   -5.3265 O   0  0  0  0  0  0  0  0  0  0  0  0
    2.1495   34.7431   -1.0700 C   0  0  1  0  0  0  0  0  0  0  0  0
    2.7343   35.1302    0.2045 O   0  0  0  0  0  0  0  0  0  0  0  0
    4.4563   37.7454    1.4804 C   0  0  1  0  0  0  0  0  0  0  0  0
    4.5364   36.4072    0.9845 O   0  0  0  0  0  0  0  0  0  0  0  0
   -0.0385   37.6238   -3.5729 C   0  0  1  0  0  0  0  0  0  0  0  0
   -0.4078   36.4958   -4.3507 O   0  0  0  0  0  0  0  0  0  0  0  0
    3.2520   33.9457   -1.8175 C   0  0  2  0  0  0  0  0  0  0  0  0
    4.3249   34.8187   -2.1351 O   0  0  0  0  0  0  0  0  0  0  0  0
   -0.0368   37.2576   -2.0884 C   0  0  1  0  0  0  0  0  0  0  0  0
    0.3355   38.3924   -1.3081 O   0  0  0  0  0  0  0  0  0  0  0  0
    2.6676   33.3589   -3.1169 C   0  0  1  0  0  0  0  0  0  0  0  0
    3.6736   32.6194   -3.8193 O   0  0  0  0  0  0  0  0  0  0  0  0
   -1.4412   36.8054   -1.6875 C   0  0  0  0  0  0  0  0  0  0  0  0
   -2.3442   37.8866   -1.8557 O   0  0  0  0  0  0  0  0  0  0  0  0
    0.6017   33.7899   -5.2558 N   0  0  0  0  0  0  0  0  0  0  0  0
   -0.9246   33.0789    1.2038 N   0  0  0  0  0  0  0  0  0  0  0  0
  1  2  1  0  0  0  0
  1 39  1  0  0  0  0
  3  4  1  0  0  0  0
  5  6  1  0  0  0  0
  5 40  1  0  0  0  0
  9 10  1  6  0  0  0
  9 14  1  0  0  0  0
  9 35  1  0  0  0  0
 10  1  1  0  0  0  0
 11 16  1  0  0  0  0
 11 28  1  0  0  0  0
 11 26  1  1  0  0  0
 12 17  1  0  0  0  0
 12 34  1  0  0  0  0
 12 13  1  6  0  0  0
 14 15  1  1  0  0  0
 14 19  1  0  0  0  0
 16 13  1  6  0  0  0
 16 21  1  0  0  0  0
 17 18  1  6  0  0  0
 17 23  1  0  0  0  0
 18  8  1  0  0  0  0
 19 20  1  6  0  0  0
 19 25  1  0  0  0  0
 20  5  1  0  0  0  0
 21  3  1  1  0  0  0
 21 22  1  0  0  0  0
 21 27  1  0  0  0  0
 23 24  1  6  0  0  0
 23 29  1  0  0  0  0
 25 26  1  1  0  0  0
 25 31  1  0  0  0  0
 27  7  1  6  0  0  0
 27 28  1  0  0  0  0
 29 30  1  6  0  0  0
 29 33  1  0  0  0  0
 31 32  1  6  0  0  0
 31 35  1  0  0  0  0
 33 34  1  0  0  0  0
 33 37  1  1  0  0  0
 35 36  1  1  0  0  0
 37 38  1  0  0  0  0
M  END
>  <CHROM.1>
41.09090213,-107.83850816,80.82043762,168.40693960,169.23951635,-77.42269125
116.48293895,93.87991930,46.92796144,-165.89939212,-63.06305021,1.67577696
36.12745820,-1.56739674,2.56638403,1.04590319,2.65857786

>  <Name>
1ntb_lig

>  <RI>
0

>  <Rbt.Current_Directory>
/home/itssahil/PROJECTS/Mol_Feturizer/New_Systems/rnas/1ntb

>  <Rbt.Executable>
rbdock ($Id: //depot/dev/client3/rdock/2013.1/src/exe/rbdock.cxx#4 $)

>  <Rbt.Library>
libRbt.so (2013.1, Build901 2013/11/27)

>  <Rbt.Parameter_File>
/export/apps/rDock/src/rDock_2013.1_src/data/scripts/dock_solv.prm

>  <Rbt.Receptor>
prm/pocket_docking_4.prm

>  <SCORE>
-18.1261

>  <SCORE.INTER>
-6.4417

>  <SCORE.INTER.CONST>
1

>  <SCORE.INTER.POLAR>
-0.85306

>  <SCORE.INTER.ROT>
11

>  <SCORE.INTER.SOLV>
18.636

>  <SCORE.INTER.VDW>
-18.5963

>  <SCORE.INTER.norm>
-0.161042

>  <SCORE.INTRA>
-11.6844

>  <SCORE.INTRA.DIHEDRAL>
-8.08498

>  <SCORE.INTRA.DIHEDRAL.0>
15.4453

>  <SCORE.INTRA.POLAR>
0

>  <SCORE.INTRA.POLAR.0>
0

>  <SCORE.INTRA.REPUL>
-0.823958

>  <SCORE.INTRA.REPUL.0>
0.823958

>  <SCORE.INTRA.SOLV>
2.135

>  <SCORE.INTRA.SOLV.lig_0>
-99.3069

>  <SCORE.INTRA.VDW>
-4.58964

>  <SCORE.INTRA.VDW.0>
0.946495

>  <SCORE.INTRA.norm>
-0.29211

>  <SCORE.RESTR>
0

>  <SCORE.RESTR.CAVITY>
0

>  <SCORE.RESTR.norm>
0

>  <SCORE.SYSTEM>
0

>  <SCORE.SYSTEM.CONST>
0

>  <SCORE.SYSTEM.DIHEDRAL>
0

>  <SCORE.SYSTEM.SOLV>
0

>  <SCORE.SYSTEM.norm>
0

>  <SCORE.heavy>
40

>  <SCORE.norm>
-0.453153

>  <RMSD>
6.312

$$$$
1ntb_lig
 OpenBabel11021811403D
libRbt.so/2013.1/901 2013/11/27
 40 42  0  0  0  0  0  0  0  0999 V2000
    3.6409   41.5451   -1.8472 C   0  0  0  0  0  0  0  0  0  0  0  0
    4.5313   41.7124   -2.7468 N   0  0  0  0  0  0  0  0  0  0  0  0
    0.5138   32.3370   -2.2856 C   0  0  0  0  0  0  0  0  0  0  0  0
    0.3610   31.1230   -3.0021 O   0  0  0  0  0  0  0  0  0  0  0  0
   -0.8390   38.0468    0.1080 C   0  0  0  0  0  0  0  0  0  0  0  0
   -0.9283   38.8597    1.0995 N   0  0  0  0  0  0  0  0  0  0  0  0
    0.2046   32.8608   -5.4809 C   0  0  0  0  0  0  0  0  0  0  0  0
    6.4192   33.6959   -1.5573 C   0  0  0  0  0  0  0  0  0  0  0  0
    1.5119   40.7650   -2.4987 C   0  0  2  0  0  0  0  0  0  0  0  0
    2.4217   41.9298   -2.1725 N   0  0  0  0  0  0  0  0  0  0  0  0
    0.8170   35.7622   -3.5935 C   0  0  2  0  0  0  0  0  0  0  0  0
    2.8209   33.9907   -1.1434 C   0  0  1  0  0  0  0  0  0  0  0  0
    2.4286   34.9443   -2.1133 O   0  0  0  0  0  0  0  0  0  0  0  0
    1.3305   39.8571   -1.2872 C   0  0  1  0  0  0  0  0  0  0  0  0
    0.7776   40.7479   -0.2230 O   0  0  0  0  0  0  0  0  0  0  0  0
    1.1498   34.7478   -2.5145 C   0  0  2  0  0  0  0  0  0  0  0  0
    4.2067   34.3382   -0.6561 C   0  0  1  0  0  0  0  0  0  0  0  0
    5.1244   34.2882   -1.7390 N   0  0  0  0  0  0  0  0  0  0  0  0
    0.4428   38.6482   -1.5757 C   0  0  2  0  0  0  0  0  0  0  0  0
    0.2335   37.7538   -0.4559 N   0  0  0  0  0  0  0  0  0  0  0  0
    0.9784   33.4291   -3.2206 C   0  0  1  0  0  0  0  0  0  0  0  0
    2.2066   33.0478   -3.8493 O   0  0  0  0  0  0  0  0  0  0  0  0
    4.1623   35.7452   -0.0844 C   0  0  2  0  0  0  0  0  0  0  0  0
    5.4397   36.1256    0.3785 O   0  0  0  0  0  0  0  0  0  0  0  0
    1.0707   37.8674   -2.7010 C   0  0  1  0  0  0  0  0  0  0  0  0
    0.0855   36.8547   -3.0474 O   0  0  0  0  0  0  0  0  0  0  0  0
   -0.0504   33.6996   -4.2555 C   0  0  1  0  0  0  0  0  0  0  0  0
    0.0380   35.0879   -4.5844 O   0  0  0  0  0  0  0  0  0  0  0  0
    3.1610   35.7254    1.0708 C   0  0  1  0  0  0  0  0  0  0  0  0
    3.0580   37.0136    1.6570 O   0  0  0  0  0  0  0  0  0  0  0  0
    1.2151   38.7661   -3.9587 C   0  0  2  0  0  0  0  0  0  0  0  0
    1.7945   38.0084   -5.0095 O   0  0  0  0  0  0  0  0  0  0  0  0
    1.7981   35.2828    0.5376 C   0  0  1  0  0  0  0  0  0  0  0  0
    1.9038   33.9880   -0.0520 O   0  0  0  0  0  0  0  0  0  0  0  0
    2.1256   39.9648   -3.6296 C   0  0  1  0  0  0  0  0  0  0  0  0
    2.2693   40.8047   -4.7812 O   0  0  0  0  0  0  0  0  0  0  0  0
    0.8043   35.2316    1.6983 C   0  0  0  0  0  0  0  0  0  0  0  0
    1.1081   34.1178    2.5226 O   0  0  0  0  0  0  0  0  0  0  0  0
    3.9138   41.0574   -0.6881 N   0  0  0  0  0  0  0  0  0  0  0  0
   -1.8602   37.4646   -0.2980 N   0  0  0  0  0  0  0  0  0  0  0  0
  1  2  1  0  0  0  0
  1 39  1  0  0  0  0
  3  4  1  0  0  0  0
  5  6  1  0  0  0  0
  5 40  1  0  0  0  0
  9 10  1  1  0  0  0
  9 14  1  0  0  0  0
  9 35  1  0  0  0  0
 10  1  1  0  0  0  0
 11 16  1  0  0  0  0
 11 28  1  0  0  0  0
 11 26  1  1  0  0  0
 12 17  1  0  0  0  0
 12 34  1  0  0  0  0
 12 13  1  6  0  0  0
 14 15  1  1  0  0  0
 14 19  1  0  0  0  0
 16 13  1  6  0  0  0
 16 21  1  0  0  0  0
 17 18  1  6  0  0  0
 17 23  1  0  0  0  0
 18  8  1  0  0  0  0
 19 20  1  1  0  0  0
 19 25  1  0  0  0  0
 20  5  1  0  0  0  0
 21  3  1  1  0  0  0
 21 22  1  0  0  0  0
 21 27  1  0  0  0  0
 23 24  1  1  0  0  0
 23 29  1  0  0  0  0
 25 26  1  6  0  0  0
 25 31  1  0  0  0  0
 27  7  1  6  0  0  0
 27 28  1  0  0  0  0
 29 30  1  6  0  0  0
 29 33  1  0  0  0  0
 31 32  1  6  0  0  0
 31 35  1  0  0  0  0
 33 34  1  0  0  0  0
 33 37  1  1  0  0  0
 35 36  1  6  0  0  0
 37 38  1  0  0  0  0
M  END
>  <CHROM.1>
62.53723270,104.04349348,93.15558219,-175.19250616,-177.54632700,-137.90399581
95.92600218,-92.37750166,179.62877130,-152.95835140,-72.22879242,1.81786709
36.63702693,-1.70518313,-1.44710370,1.14553463,3.05313956

>  <Name>
1ntb_lig

>  <RI>
0

>  <Rbt.Current_Directory>
/home/itssahil/PROJECTS/Mol_Feturizer/New_Systems/rnas/1ntb

>  <Rbt.Executable>
rbdock ($Id: //depot/dev/client3/rdock/2013.1/src/exe/rbdock.cxx#4 $)

>  <Rbt.Library>
libRbt.so (2013.1, Build901 2013/11/27)

>  <Rbt.Parameter_File>
/export/apps/rDock/src/rDock_2013.1_src/data/scripts/dock_solv.prm

>  <Rbt.Receptor>
prm/pocket_docking_4.prm

>  <SCORE>
-12.5929

>  <SCORE.INTER>
-2.53971

>  <SCORE.INTER.CONST>
1

>  <SCORE.INTER.POLAR>
-0.0987149

>  <SCORE.INTER.ROT>
11

>  <SCORE.INTER.SOLV>
13.5431

>  <SCORE.INTER.VDW>
-16.8118

>  <SCORE.INTER.norm>
-0.0634928

>  <SCORE.INTRA>
-10.0562

>  <SCORE.INTRA.DIHEDRAL>
-4.57889

>  <SCORE.INTRA.DIHEDRAL.0>
15.4453

>  <SCORE.INTRA.POLAR>
0

>  <SCORE.INTRA.POLAR.0>
0

>  <SCORE.INTRA.REPUL>
-0.823958

>  <SCORE.INTRA.REPUL.0>
0.823958

>  <SCORE.INTRA.SOLV>
1.43056

>  <SCORE.INTRA.SOLV.lig_0>
-99.3069

>  <SCORE.INTRA.VDW>
-4.36225

>  <SCORE.INTRA.VDW.0>
0.946495

>  <SCORE.INTRA.norm>
-0.251405

>  <SCORE.RESTR>
0.00304261

>  <SCORE.RESTR.CAVITY>
0.00304261

>  <SCORE.RESTR.norm>
7.60653e-05

>  <SCORE.SYSTEM>
0

>  <SCORE.SYSTEM.CONST>
0

>  <SCORE.SYSTEM.DIHEDRAL>
0

>  <SCORE.SYSTEM.SOLV>
0

>  <SCORE.SYSTEM.norm>
0

>  <SCORE.heavy>
40

>  <SCORE.norm>
-0.314822

>  <RMSD>
6.375

$$$$
1ntb_lig
 OpenBabel11021811403D
libRbt.so/2013.1/901 2013/11/27
 40 42  0  0  0  0  0  0  0  0999 V2000
    1.8996   40.8695   -5.3894 C   0  0  0  0  0  0  0  0  0  0  0  0
    1.8591   42.0368   -4.8738 N   0  0  0  0  0  0  0  0  0  0  0  0
   -1.0031   32.9088    1.6117 C   0  0  0  0  0  0  0  0  0  0  0  0
   -0.5131   31.6150    1.9225 O   0  0  0  0  0  0  0  0  0  0  0  0
    1.7855   39.6762    0.6748 C   0  0  0  0  0  0  0  0  0  0  0  0
    0.6635   40.2444    0.9401 N   0  0  0  0  0  0  0  0  0  0  0  0
    1.8322   32.5208    0.0655 C   0  0  0  0  0  0  0  0  0  0  0  0
   -0.8447   34.3522    5.7141 C   0  0  0  0  0  0  0  0  0  0  0  0
    1.5576   39.3248   -3.6393 C   0  0  2  0  0  0  0  0  0  0  0  0
    2.4899   39.9432   -4.6588 N   0  0  0  0  0  0  0  0  0  0  0  0
    0.6716   35.8377    0.1450 C   0  0  2  0  0  0  0  0  0  0  0  0
   -1.3284   36.0609    3.0552 C   0  0  1  0  0  0  0  0  0  0  0  0
   -0.1108   35.9357    2.3440 O   0  0  0  0  0  0  0  0  0  0  0  0
    2.2095   39.2749   -2.2619 C   0  0  1  0  0  0  0  0  0  0  0  0
    2.5526   40.6953   -1.9512 O   0  0  0  0  0  0  0  0  0  0  0  0
   -0.2826   35.2672    1.1784 C   0  0  2  0  0  0  0  0  0  0  0  0
   -1.0204   36.4838    4.4711 C   0  0  1  0  0  0  0  0  0  0  0  0
   -0.2235   35.4946    5.1064 N   0  0  0  0  0  0  0  0  0  0  0  0
    1.3175   38.6301   -1.2030 C   0  0  2  0  0  0  0  0  0  0  0  0
    1.8873   38.5612    0.1267 N   0  0  0  0  0  0  0  0  0  0  0  0
    0.1501   33.8291    1.2860 C   0  0  1  0  0  0  0  0  0  0  0  0
    1.1762   33.6999    2.2756 O   0  0  0  0  0  0  0  0  0  0  0  0
   -0.2590   37.7974    4.4118 C   0  0  2  0  0  0  0  0  0  0  0  0
    0.0640   38.2346    5.7138 O   0  0  0  0  0  0  0  0  0  0  0  0
    0.9923   37.2309   -1.6575 C   0  0  1  0  0  0  0  0  0  0  0  0
   -0.0037   36.7533   -0.7109 O   0  0  0  0  0  0  0  0  0  0  0  0
    0.7046   33.5131   -0.0538 C   0  0  1  0  0  0  0  0  0  0  0  0
    1.1866   34.7385   -0.6099 O   0  0  0  0  0  0  0  0  0  0  0  0
   -1.1717   38.8106    3.7205 C   0  0  1  0  0  0  0  0  0  0  0  0
   -0.5251   40.0698    3.6208 O   0  0  0  0  0  0  0  0  0  0  0  0
    0.2816   37.2694   -3.0373 C   0  0  2  0  0  0  0  0  0  0  0  0
   -0.0282   35.9442   -3.4396 O   0  0  0  0  0  0  0  0  0  0  0  0
   -1.5224   38.2908    2.3260 C   0  0  1  0  0  0  0  0  0  0  0  0
   -2.1715   37.0245    2.4281 O   0  0  0  0  0  0  0  0  0  0  0  0
    1.2175   37.9147   -4.0774 C   0  0  1  0  0  0  0  0  0  0  0  0
    0.5758   37.9577   -5.3575 O   0  0  0  0  0  0  0  0  0  0  0  0
   -2.4610   39.2882    1.6465 C   0  0  0  0  0  0  0  0  0  0  0  0
   -2.7996   38.8045    0.3566 O   0  0  0  0  0  0  0  0  0  0  0  0
    1.4205   40.6130   -6.5558 N   0  0  0  0  0  0  0  0  0  0  0  0
    2.8468   40.2759    0.9214 N   0  0  0  0  0  0  0  0  0  0  0  0
  1  2  1  0  0  0  0
  1 39  1  0  0  0  0
  3  4  1  0  0  0  0
  5  6  1  0  0  0  0
  5 40  1  0  0  0  0
  9 10  1  6  0  0  0
  9 14  1  0  0  0  0
  9 35  1  0  0  0  0
 10  1  1  0  0  0  0
 11 16  1  0  0  0  0
 11 28  1  0  0  0  0
 11 26  1  6  0  0  0
 12 17  1  0  0  0  0
 12 34  1  0  0  0  0
 12 13  1  6  0  0  0
 14 15  1  1  0  0  0
 14 19  1  0  0  0  0
 16 13  1  1  0  0  0
 16 21  1  0  0  0  0
 17 18  1  6  0  0  0
 17 23  1  0  0  0  0
 18  8  1  0  0  0  0
 19 20  1  1  0  0  0
 19 25  1  0  0  0  0
 20  5  1  0  0  0  0
 21  3  1  1  0  0  0
 21 22  1  0  0  0  0
 21 27  1  0  0  0  0
 23 24  1  1  0  0  0
 23 29  1  0  0  0  0
 25 26  1  1  0  0  0
 25 31  1  0  0  0  0
 27  7  1  1  0  0  0
 27 28  1  0  0  0  0
 29 30  1  6  0  0  0
 29 33  1  0  0  0  0
 31 32  1  6  0  0  0
 31 35  1  0  0  0  0
 33 34  1  0  0  0  0
 33 37  1  1  0  0  0
 35 36  1  6  0  0  0
 37 38  1  0  0  0  0
M  END
>  <CHROM.1>
-132.01404222,84.19304553,-179.74829431,165.64171673,146.15464522,-84.08529384
78.82615545,62.79939855,-170.21838127,-105.12822643,-179.46381833,0.35817205
37.31135274,0.19373681,0.38432934,1.31028617,0.11590942

>  <Name>
1ntb_lig

>  <RI>
0

>  <Rbt.Current_Directory>
/home/itssahil/PROJECTS/Mol_Feturizer/New_Systems/rnas/1ntb

>  <Rbt.Executable>
rbdock ($Id: //depot/dev/client3/rdock/2013.1/src/exe/rbdock.cxx#4 $)

>  <Rbt.Library>
libRbt.so (2013.1, Build901 2013/11/27)

>  <Rbt.Parameter_File>
/export/apps/rDock/src/rDock_2013.1_src/data/scripts/dock_solv.prm

>  <Rbt.Receptor>
prm/pocket_docking_6.prm

>  <SCORE>
-8.2457

>  <SCORE.INTER>
2.71464

>  <SCORE.INTER.CONST>
1

>  <SCORE.INTER.POLAR>
-0.0614051

>  <SCORE.INTER.ROT>
11

>  <SCORE.INTER.SOLV>
11.6426

>  <SCORE.INTER.VDW>
-12.7997

>  <SCORE.INTER.norm>
0.0678661

>  <SCORE.INTRA>
-10.9603

>  <SCORE.INTRA.DIHEDRAL>
-0.320998

>  <SCORE.INTRA.DIHEDRAL.0>
15.4453

>  <SCORE.INTRA.POLAR>
0

>  <SCORE.INTRA.POLAR.0>
0

>  <SCORE.INTRA.REPUL>
-0.821347

>  <SCORE.INTRA.REPUL.0>
0.823958

>  <SCORE.INTRA.SOLV>
1.23425

>  <SCORE.INTRA.SOLV.lig_0>
-99.3069

>  <SCORE.INTRA.VDW>
-7.31024

>  <SCORE.INTRA.VDW.0>
0.946495

>  <SCORE.INTRA.norm>
-0.274009

>  <SCORE.RESTR>
0

>  <SCORE.RESTR.CAVITY>
0

>  <SCORE.RESTR.norm>
0

>  <SCORE.SYSTEM>
0

>  <SCORE.SYSTEM.CONST>
0

>  <SCORE.SYSTEM.DIHEDRAL>
0

>  <SCORE.SYSTEM.SOLV>
0

>  <SCORE.SYSTEM.norm>
0

>  <SCORE.heavy>
40

>  <SCORE.norm>
-0.206142

>  <RMSD>
6.391

$$$$
1ntb_lig
 OpenBabel11021811403D
libRbt.so/2013.1/901 2013/11/27
 40 42  0  0  0  0  0  0  0  0999 V2000
    3.3469   42.4289   -2.6842 C   0  0  0  0  0  0  0  0  0  0  0  0
    3.8262   42.5582   -1.5078 N   0  0  0  0  0  0  0  0  0  0  0  0
   -2.9359   33.8991   -5.6628 C   0  0  0  0  0  0  0  0  0  0  0  0
   -3.2644   32.7105   -4.9630 O   0  0  0  0  0  0  0  0  0  0  0  0
    0.7371   37.5975   -0.2899 C   0  0  0  0  0  0  0  0  0  0  0  0
   -0.4928   37.8781   -0.0434 N   0  0  0  0  0  0  0  0  0  0  0  0
   -0.3783   34.5287   -7.5714 C   0  0  0  0  0  0  0  0  0  0  0  0
   -1.2755   30.4004   -2.8534 C   0  0  0  0  0  0  0  0  0  0  0  0
    2.2679   40.4167   -3.2780 C   0  0  2  0  0  0  0  0  0  0  0  0
    3.5305   41.2509   -3.2488 N   0  0  0  0  0  0  0  0  0  0  0  0
   -0.1478   35.9055   -4.3454 C   0  0  2  0  0  0  0  0  0  0  0  0
   -2.1137   33.4320   -2.5906 C   0  0  1  0  0  0  0  0  0  0  0  0
   -0.9823   34.1221   -3.0883 O   0  0  0  0  0  0  0  0  0  0  0  0
    2.3621   39.2481   -2.3031 C   0  0  1  0  0  0  0  0  0  0  0  0
    2.6114   39.8810   -0.9730 O   0  0  0  0  0  0  0  0  0  0  0  0
   -1.3197   34.9771   -4.0833 C   0  0  2  0  0  0  0  0  0  0  0  0
   -1.6586   32.4566   -1.5323 C   0  0  1  0  0  0  0  0  0  0  0  0
   -0.7644   31.5112   -2.1015 N   0  0  0  0  0  0  0  0  0  0  0  0
    1.1214   38.3576   -2.3183 C   0  0  2  0  0  0  0  0  0  0  0  0
    1.1564   37.2332   -1.4060 N   0  0  0  0  0  0  0  0  0  0  0  0
   -1.4944   34.2671   -5.3995 C   0  0  1  0  0  0  0  0  0  0  0  0
   -0.6737   33.0948   -5.4355 O   0  0  0  0  0  0  0  0  0  0  0  0
   -0.9494   33.2446   -0.4439 C   0  0  2  0  0  0  0  0  0  0  0  0
   -0.4929   32.3761    0.5700 O   0  0  0  0  0  0  0  0  0  0  0  0
    0.9426   37.8320   -3.7190 C   0  0  1  0  0  0  0  0  0  0  0  0
   -0.3477   37.1604   -3.7035 O   0  0  0  0  0  0  0  0  0  0  0  0
   -1.0150   35.2444   -6.4083 C   0  0  1  0  0  0  0  0  0  0  0  0
   -0.0531   36.0805   -5.7610 O   0  0  0  0  0  0  0  0  0  0  0  0
   -1.9656   34.2368    0.1219 C   0  0  1  0  0  0  0  0  0  0  0  0
   -1.3733   35.0196    1.1467 O   0  0  0  0  0  0  0  0  0  0  0  0
    0.7944   39.0120   -4.7170 C   0  0  2  0  0  0  0  0  0  0  0  0
    0.6130   38.4955   -6.0263 O   0  0  0  0  0  0  0  0  0  0  0  0
   -2.4577   35.1409   -1.0087 C   0  0  1  0  0  0  0  0  0  0  0  0
   -3.0520   34.3522   -2.0383 O   0  0  0  0  0  0  0  0  0  0  0  0
    2.0689   39.8771   -4.6798 C   0  0  1  0  0  0  0  0  0  0  0  0
    1.9480   40.9714   -5.5964 O   0  0  0  0  0  0  0  0  0  0  0  0
   -3.4978   36.1122   -0.4499 C   0  0  0  0  0  0  0  0  0  0  0  0
   -3.9733   36.9397   -1.4995 O   0  0  0  0  0  0  0  0  0  0  0  0
    2.7457   43.3892   -3.2940 N   0  0  0  0  0  0  0  0  0  0  0  0
    1.5873   37.7400    0.6064 N   0  0  0  0  0  0  0  0  0  0  0  0
  1  2  1  0  0  0  0
  1 39  1  0  0  0  0
  3  4  1  0  0  0  0
  5  6  1  0  0  0  0
  5 40  1  0  0  0  0
  9 10  1  6  0  0  0
  9 14  1  0  0  0  0
  9 35  1  0  0  0  0
 10  1  1  0  0  0  0
 11 16  1  0  0  0  0
 11 28  1  0  0  0  0
 11 26  1  1  0  0  0
 12 17  1  0  0  0  0
 12 34  1  0  0  0  0
 12 13  1  1  0  0  0
 14 15  1  1  0  0  0
 14 19  1  0  0  0  0
 16 13  1  1  0  0  0
 16 21  1  0  0  0  0
 17 18  1  6  0  0  0
 17 23  1  0  0  0  0
 18  8  1  0  0  0  0
 19 20  1  1  0  0  0
 19 25  1  0  0  0  0
 20  5  1  0  0  0  0
 21  3  1  6  0  0  0
 21 22  1  0  0  0  0
 21 27  1  0  0  0  0
 23 24  1  1  0  0  0
 23 29  1  0  0  0  0
 25 26  1  1  0  0  0
 25 31  1  0  0  0  0
 27  7  1  6  0  0  0
 27 28  1  0  0  0  0
 29 30  1  1  0  0  0
 29 33  1  0  0  0  0
 31 32  1  6  0  0  0
 31 35  1  0  0  0  0
 33 34  1  0  0  0  0
 33 37  1  1  0  0  0
 35 36  1  6  0  0  0
 37 38  1  0  0  0  0
M  END
>  <CHROM.1>
-109.06764047,105.36424227,165.70587183,177.51490240,166.92423669,-79.79360975
86.88752971,71.00646482,-80.91359416,-133.46782865,-179.08993573,-0.15683907
36.49391758,-2.87729601,-0.00400641,1.05611797,1.53338285

>  <Name>
1ntb_lig

>  <RI>
0

>  <Rbt.Current_Directory>
/home/itssahil/PROJECTS/Mol_Feturizer/New_Systems/rnas/1ntb

>  <Rbt.Executable>
rbdock ($Id: //depot/dev/client3/rdock/2013.1/src/exe/rbdock.cxx#4 $)

>  <Rbt.Library>
libRbt.so (2013.1, Build901 2013/11/27)

>  <Rbt.Parameter_File>
/export/apps/rDock/src/rDock_2013.1_src/data/scripts/dock_solv.prm

>  <Rbt.Receptor>
prm/pocket_docking_4.prm

>  <SCORE>
-7.19383

>  <SCORE.INTER>
4.5162

>  <SCORE.INTER.CONST>
1

>  <SCORE.INTER.POLAR>
0

>  <SCORE.INTER.ROT>
11

>  <SCORE.INTER.SOLV>
6.54195

>  <SCORE.INTER.VDW>
-10.1032

>  <SCORE.INTER.norm>
0.112905

>  <SCORE.INTRA>
-11.71

>  <SCORE.INTRA.DIHEDRAL>
-2.9747

>  <SCORE.INTRA.DIHEDRAL.0>
15.4453

>  <SCORE.INTRA.POLAR>
0

>  <SCORE.INTRA.POLAR.0>
0

>  <SCORE.INTRA.REPUL>
-0.815507

>  <SCORE.INTRA.REPUL.0>
0.823958

>  <SCORE.INTRA.SOLV>
0.982749

>  <SCORE.INTRA.SOLV.lig_0>
-99.3069

>  <SCORE.INTRA.VDW>
-6.63651

>  <SCORE.INTRA.VDW.0>
0.946495

>  <SCORE.INTRA.norm>
-0.292751

>  <SCORE.RESTR>
0

>  <SCORE.RESTR.CAVITY>
0

>  <SCORE.RESTR.norm>
0

>  <SCORE.SYSTEM>
0

>  <SCORE.SYSTEM.CONST>
0

>  <SCORE.SYSTEM.DIHEDRAL>
0

>  <SCORE.SYSTEM.SOLV>
0

>  <SCORE.SYSTEM.norm>
0

>  <SCORE.heavy>
40

>  <SCORE.norm>
-0.179846

>  <RMSD>
6.395

$$$$
1ntb_lig
 OpenBabel11021811403D
libRbt.so/2013.1/901 2013/11/27
 40 42  0  0  0  0  0  0  0  0999 V2000
   -1.4117   32.1234   -5.0353 C   0  0  0  0  0  0  0  0  0  0  0  0
   -1.8665   30.9918   -4.6573 N   0  0  0  0  0  0  0  0  0  0  0  0
    5.4767   36.5769    2.3863 C   0  0  0  0  0  0  0  0  0  0  0  0
    5.6008   37.9697    2.6207 O   0  0  0  0  0  0  0  0  0  0  0  0
    1.1339   37.3555   -3.4714 C   0  0  0  0  0  0  0  0  0  0  0  0
    0.9847   37.7481   -4.6862 N   0  0  0  0  0  0  0  0  0  0  0  0
    6.8705   34.5284    0.2789 C   0  0  0  0  0  0  0  0  0  0  0  0
    0.7647   36.8813    1.8549 C   0  0  0  0  0  0  0  0  0  0  0  0
    0.2108   33.1204   -3.6427 C   0  0  2  0  0  0  0  0  0  0  0  0
   -0.1146   32.3003   -4.8725 N   0  0  0  0  0  0  0  0  0  0  0  0
    3.7015   35.6838   -0.7098 C   0  0  2  0  0  0  0  0  0  0  0  0
    2.5551   38.3083   -0.4042 C   0  0  1  0  0  0  0  0  0  0  0  0
    3.8818   37.9285   -0.0884 O   0  0  0  0  0  0  0  0  0  0  0  0
    0.9228   34.4145   -4.0213 C   0  0  1  0  0  0  0  0  0  0  0  0
   -0.0175   35.1083   -4.9521 O   0  0  0  0  0  0  0  0  0  0  0  0
    3.9321   36.6731    0.4180 C   0  0  2  0  0  0  0  0  0  0  0  0
    1.8930   38.8375    0.8449 C   0  0  1  0  0  0  0  0  0  0  0  0
    1.8503   37.8201    1.8351 N   0  0  0  0  0  0  0  0  0  0  0  0
    1.2999   35.2641   -2.8095 C   0  0  2  0  0  0  0  0  0  0  0  0
    1.9756   36.5086   -3.1133 N   0  0  0  0  0  0  0  0  0  0  0  0
    5.3114   36.3189    0.9068 C   0  0  1  0  0  0  0  0  0  0  0  0
    6.2950   37.0507    0.1677 O   0  0  0  0  0  0  0  0  0  0  0  0
    2.7157   40.0113    1.3489 C   0  0  2  0  0  0  0  0  0  0  0  0
    2.1441   40.5397    2.5257 O   0  0  0  0  0  0  0  0  0  0  0  0
    2.1942   34.4380   -1.9218 C   0  0  1  0  0  0  0  0  0  0  0  0
    2.3522   35.2295   -0.7115 O   0  0  0  0  0  0  0  0  0  0  0  0
    5.4418   34.8697    0.6143 C   0  0  1  0  0  0  0  0  0  0  0  0
    4.5951   34.5876   -0.5023 O   0  0  0  0  0  0  0  0  0  0  0  0
    2.7182   41.0628    0.2391 C   0  0  1  0  0  0  0  0  0  0  0  0
    3.4765   42.1955    0.6339 O   0  0  0  0  0  0  0  0  0  0  0  0
    1.4625   33.1397   -1.4868 C   0  0  2  0  0  0  0  0  0  0  0  0
    2.3159   32.3843   -0.6412 O   0  0  0  0  0  0  0  0  0  0  0  0
    3.3176   40.4470   -1.0255 C   0  0  1  0  0  0  0  0  0  0  0  0
    2.5546   39.3081   -1.4204 O   0  0  0  0  0  0  0  0  0  0  0  0
    1.1111   32.3073   -2.7350 C   0  0  1  0  0  0  0  0  0  0  0  0
    0.4349   31.1045   -2.3502 O   0  0  0  0  0  0  0  0  0  0  0  0
    3.2908   41.4881   -2.1449 C   0  0  0  0  0  0  0  0  0  0  0  0
    3.8013   40.9067   -3.3339 O   0  0  0  0  0  0  0  0  0  0  0  0
   -2.1682   33.0444   -5.5203 N   0  0  0  0  0  0  0  0  0  0  0  0
    0.4468   37.8736   -2.5736 N   0  0  0  0  0  0  0  0  0  0  0  0
  1  2  1  0  0  0  0
  1 39  1  0  0  0  0
  3  4  1  0  0  0  0
  5  6  1  0  0  0  0
  5 40  1  0  0  0  0
  9 10  1  6  0  0  0
  9 14  1  0  0  0  0
  9 35  1  0  0  0  0
 10  1  1  0  0  0  0
 11 16  1  0  0  0  0
 11 28  1  0  0  0  0
 11 26  1  1  0  0  0
 12 17  1  0  0  0  0
 12 34  1  0  0  0  0
 12 13  1  1  0  0  0
 14 15  1  6  0  0  0
 14 19  1  0  0  0  0
 16 13  1  6  0  0  0
 16 21  1  0  0  0  0
 17 18  1  1  0  0  0
 17 23  1  0  0  0  0
 18  8  1  0  0  0  0
 19 20  1  6  0  0  0
 19 25  1  0  0  0  0
 20  5  1  0  0  0  0
 21  3  1  1  0  0  0
 21 22  1  0  0  0  0
 21 27  1  0  0  0  0
 23 24  1  1  0  0  0
 23 29  1  0  0  0  0
 25 26  1  1  0  0  0
 25 31  1  0  0  0  0
 27  7  1  6  0  0  0
 27 28  1  0  0  0  0
 29 30  1  1  0  0  0
 29 33  1  0  0  0  0
 31 32  1  1  0  0  0
 31 35  1  0  0  0  0
 33 34  1  0  0  0  0
 33 37  1  6  0  0  0
 35 36  1  1  0  0  0
 37 38  1  0  0  0  0
M  END
>  <CHROM.1>
-117.99412294,-100.38378560,172.56969598,84.41496920,73.46191693,-86.06241637
79.39992120,-106.53177120,-74.99639821,-109.96868123,-177.91188678,2.37165972
36.39365420,-1.27126043,2.28722747,0.83242391,-3.10196454

>  <Name>
1ntb_lig

>  <RI>
0

>  <Rbt.Current_Directory>
/home/itssahil/PROJECTS/Mol_Feturizer/New_Systems/rnas/1ntb

>  <Rbt.Executable>
rbdock ($Id: //depot/dev/client3/rdock/2013.1/src/exe/rbdock.cxx#4 $)

>  <Rbt.Library>
libRbt.so (2013.1, Build901 2013/11/27)

>  <Rbt.Parameter_File>
/export/apps/rDock/src/rDock_2013.1_src/data/scripts/dock_solv.prm

>  <Rbt.Receptor>
prm/pocket_docking_4.prm

>  <SCORE>
-19.9633

>  <SCORE.INTER>
-9.18061

>  <SCORE.INTER.CONST>
1

>  <SCORE.INTER.POLAR>
-1.09303

>  <SCORE.INTER.ROT>
11

>  <SCORE.INTER.SOLV>
19.0522

>  <SCORE.INTER.VDW>
-19.761

>  <SCORE.INTER.norm>
-0.229515

>  <SCORE.INTRA>
-10.808

>  <SCORE.INTRA.DIHEDRAL>
-1.49176

>  <SCORE.INTRA.DIHEDRAL.0>
15.4453

>  <SCORE.INTRA.POLAR>
0

>  <SCORE.INTRA.POLAR.0>
0

>  <SCORE.INTRA.REPUL>
-0.823958

>  <SCORE.INTRA.REPUL.0>
0.823958

>  <SCORE.INTRA.SOLV>
1.89227

>  <SCORE.INTRA.SOLV.lig_0>
-99.3069

>  <SCORE.INTRA.VDW>
-6.88851

>  <SCORE.INTRA.VDW.0>
0.946495

>  <SCORE.INTRA.norm>
-0.270201

>  <SCORE.RESTR>
0.0253395

>  <SCORE.RESTR.CAVITY>
0.0253395

>  <SCORE.RESTR.norm>
0.000633488

>  <SCORE.SYSTEM>
0

>  <SCORE.SYSTEM.CONST>
0

>  <SCORE.SYSTEM.DIHEDRAL>
0

>  <SCORE.SYSTEM.SOLV>
0

>  <SCORE.SYSTEM.norm>
0

>  <SCORE.heavy>
40

>  <SCORE.norm>
-0.499083

>  <RMSD>
6.427

$$$$
1ntb_lig
 OpenBabel11021811403D
libRbt.so/2013.1/901 2013/11/27
 40 42  0  0  0  0  0  0  0  0999 V2000
    2.7210   41.4579   -1.6748 C   0  0  0  0  0  0  0  0  0  0  0  0
    3.8652   41.4160   -2.2398 N   0  0  0  0  0  0  0  0  0  0  0  0
   -0.4321   31.8055   -3.6598 C   0  0  0  0  0  0  0  0  0  0  0  0
   -0.5055   30.7260   -4.5760 O   0  0  0  0  0  0  0  0  0  0  0  0
   -1.7804   37.3027    0.2489 C   0  0  0  0  0  0  0  0  0  0  0  0
   -1.4286   37.6131    1.4455 N   0  0  0  0  0  0  0  0  0  0  0  0
   -1.3826   33.0241   -6.5219 C   0  0  0  0  0  0  0  0  0  0  0  0
    5.5386   33.3288   -2.9594 C   0  0  0  0  0  0  0  0  0  0  0  0
    1.2931   39.5801   -1.7008 C   0  0  2  0  0  0  0  0  0  0  0  0
    2.3759   40.3757   -1.0040 N   0  0  0  0  0  0  0  0  0  0  0  0
   -0.3213   35.4425   -4.2023 C   0  0  2  0  0  0  0  0  0  0  0  0
    2.0587   33.3594   -2.4415 C   0  0  1  0  0  0  0  0  0  0  0  0
    1.5408   34.3509   -3.3092 O   0  0  0  0  0  0  0  0  0  0  0  0
    0.6713   38.5583   -0.7552 C   0  0  1  0  0  0  0  0  0  0  0  0
    0.1550   39.3651    0.3913 O   0  0  0  0  0  0  0  0  0  0  0  0
    0.2023   34.2202   -3.4704 C   0  0  2  0  0  0  0  0  0  0  0  0
    3.3731   33.8458   -1.8809 C   0  0  1  0  0  0  0  0  0  0  0  0
    4.2997   34.0532   -2.9372 N   0  0  0  0  0  0  0  0  0  0  0  0
   -0.4082   37.7083   -1.4221 C   0  0  2  0  0  0  0  0  0  0  0  0
   -1.0359   36.7231   -0.5660 N   0  0  0  0  0  0  0  0  0  0  0  0
   -0.1441   33.0894   -4.4023 C   0  0  1  0  0  0  0  0  0  0  0  0
    0.9177   32.8865   -5.3407 O   0  0  0  0  0  0  0  0  0  0  0  0
    3.1165   35.1568   -1.1571 C   0  0  2  0  0  0  0  0  0  0  0  0
    4.3192   35.6625   -0.6201 O   0  0  0  0  0  0  0  0  0  0  0  0
    0.2175   36.9958   -2.5930 C   0  0  1  0  0  0  0  0  0  0  0  0
   -0.8968   36.3683   -3.2865 O   0  0  0  0  0  0  0  0  0  0  0  0
   -1.3577   33.5613   -5.1143 C   0  0  1  0  0  0  0  0  0  0  0  0
   -1.3049   34.9896   -5.1356 O   0  0  0  0  0  0  0  0  0  0  0  0
    2.1168   34.8603   -0.0391 C   0  0  1  0  0  0  0  0  0  0  0  0
    1.8195   36.0445    0.6842 O   0  0  0  0  0  0  0  0  0  0  0  0
    0.8107   38.0271   -3.5904 C   0  0  2  0  0  0  0  0  0  0  0  0
    1.3815   37.3366   -4.6910 O   0  0  0  0  0  0  0  0  0  0  0  0
    0.8394   34.2891   -0.6553 C   0  0  1  0  0  0  0  0  0  0  0  0
    1.1403   33.0992   -1.3826 O   0  0  0  0  0  0  0  0  0  0  0  0
    1.9017   38.8541   -2.8833 C   0  0  1  0  0  0  0  0  0  0  0  0
    2.4599   39.8114   -3.7913 O   0  0  0  0  0  0  0  0  0  0  0  0
   -0.1485   33.9622    0.4650 C   0  0  0  0  0  0  0  0  0  0  0  0
    0.5733   33.5966    1.6302 O   0  0  0  0  0  0  0  0  0  0  0  0
    1.9405   42.4763   -1.7710 N   0  0  0  0  0  0  0  0  0  0  0  0
   -2.9432   37.5358   -0.1255 N   0  0  0  0  0  0  0  0  0  0  0  0
  1  2  1  0  0  0  0
  1 39  1  0  0  0  0
  3  4  1  0  0  0  0
  5  6  1  0  0  0  0
  5 40  1  0  0  0  0
  9 10  1  1  0  0  0
  9 14  1  0  0  0  0
  9 35  1  0  0  0  0
 10  1  1  0  0  0  0
 11 16  1  0  0  0  0
 11 28  1  0  0  0  0
 11 26  1  1  0  0  0
 12 17  1  0  0  0  0
 12 34  1  0  0  0  0
 12 13  1  6  0  0  0
 14 15  1  1  0  0  0
 14 19  1  0  0  0  0
 16 13  1  6  0  0  0
 16 21  1  0  0  0  0
 17 18  1  6  0  0  0
 17 23  1  0  0  0  0
 18  8  1  0  0  0  0
 19 20  1  1  0  0  0
 19 25  1  0  0  0  0
 20  5  1  0  0  0  0
 21  3  1  1  0  0  0
 21 22  1  0  0  0  0
 21 27  1  0  0  0  0
 23 24  1  1  0  0  0
 23 29  1  0  0  0  0
 25 26  1  6  0  0  0
 25 31  1  0  0  0  0
 27  7  1  6  0  0  0
 27 28  1  0  0  0  0
 29 30  1  6  0  0  0
 29 33  1  0  0  0  0
 31 32  1  6  0  0  0
 31 35  1  0  0  0  0
 33 34  1  0  0  0  0
 33 37  1  1  0  0  0
 35 36  1  6  0  0  0
 37 38  1  0  0  0  0
M  END
>  <CHROM.1>
-165.40073663,-107.76242300,74.20983828,-158.20549115,170.12289773,-120.51923717
72.10098710,-96.15297233,-169.18635195,-166.80981098,-30.95355050,0.94724161
36.03050400,-2.19150733,-1.21376003,-1.13004978,-2.46367608

>  <Name>
1ntb_lig

>  <RI>
0

>  <Rbt.Current_Directory>
/home/itssahil/PROJECTS/Mol_Feturizer/New_Systems/rnas/1ntb

>  <Rbt.Executable>
rbdock ($Id: //depot/dev/client3/rdock/2013.1/src/exe/rbdock.cxx#4 $)

>  <Rbt.Library>
libRbt.so (2013.1, Build901 2013/11/27)

>  <Rbt.Parameter_File>
/export/apps/rDock/src/rDock_2013.1_src/data/scripts/dock_solv.prm

>  <Rbt.Receptor>
prm/pocket_docking_3.prm

>  <SCORE>
-6.12638

>  <SCORE.INTER>
1.66393

>  <SCORE.INTER.CONST>
1

>  <SCORE.INTER.POLAR>
0

>  <SCORE.INTER.ROT>
11

>  <SCORE.INTER.SOLV>
9.27054

>  <SCORE.INTER.VDW>
-12.9142

>  <SCORE.INTER.norm>
0.0415982

>  <SCORE.INTRA>
-7.85965

>  <SCORE.INTRA.DIHEDRAL>
-5.38217

>  <SCORE.INTRA.DIHEDRAL.0>
15.4453

>  <SCORE.INTRA.POLAR>
0

>  <SCORE.INTRA.POLAR.0>
0

>  <SCORE.INTRA.REPUL>
-0.823958

>  <SCORE.INTRA.REPUL.0>
0.823958

>  <SCORE.INTRA.SOLV>
1.54058

>  <SCORE.INTRA.SOLV.lig_0>
-99.3069

>  <SCORE.INTRA.VDW>
-1.81907

>  <SCORE.INTRA.VDW.0>
0.946495

>  <SCORE.INTRA.norm>
-0.196491

>  <SCORE.RESTR>
0.0693404

>  <SCORE.RESTR.CAVITY>
0.0693404

>  <SCORE.RESTR.norm>
0.00173351

>  <SCORE.SYSTEM>
0

>  <SCORE.SYSTEM.CONST>
0

>  <SCORE.SYSTEM.DIHEDRAL>
0

>  <SCORE.SYSTEM.SOLV>
0

>  <SCORE.SYSTEM.norm>
0

>  <SCORE.heavy>
40

>  <SCORE.norm>
-0.15316

>  <RMSD>
6.445

$$$$
1ntb_lig
 OpenBabel11021811403D
libRbt.so/2013.1/901 2013/11/27
 40 42  0  0  0  0  0  0  0  0999 V2000
   -0.3215   32.8088   -4.4158 C   0  0  0  0  0  0  0  0  0  0  0  0
    0.3166   33.2281   -5.4391 N   0  0  0  0  0  0  0  0  0  0  0  0
    2.7072   39.3622    1.1452 C   0  0  0  0  0  0  0  0  0  0  0  0
    1.7506   38.7806    2.0152 O   0  0  0  0  0  0  0  0  0  0  0  0
   -0.4356   33.3702    1.4313 C   0  0  0  0  0  0  0  0  0  0  0  0
    0.2582   32.7004    2.2811 N   0  0  0  0  0  0  0  0  0  0  0  0
    5.7173   38.2028    1.5641 C   0  0  0  0  0  0  0  0  0  0  0  0
    3.0720   41.0219   -3.4983 C   0  0  0  0  0  0  0  0  0  0  0  0
    1.0328   32.3092   -2.5497 C   0  0  2  0  0  0  0  0  0  0  0  0
    0.2506   31.8234   -3.7510 N   0  0  0  0  0  0  0  0  0  0  0  0
    3.5059   35.9547    0.0113 C   0  0  2  0  0  0  0  0  0  0  0  0
    1.4093   38.4235   -1.6041 C   0  0  1  0  0  0  0  0  0  0  0  0
    2.3909   37.4189   -1.4274 O   0  0  0  0  0  0  0  0  0  0  0  0
    0.1194   33.0095   -1.5496 C   0  0  1  0  0  0  0  0  0  0  0  0
   -0.9139   31.9894   -1.1982 O   0  0  0  0  0  0  0  0  0  0  0  0
    2.6470   37.1997   -0.1154 C   0  0  2  0  0  0  0  0  0  0  0  0
    1.6329   39.0886   -2.9406 C   0  0  1  0  0  0  0  0  0  0  0  0
    2.9156   39.6979   -2.9665 N   0  0  0  0  0  0  0  0  0  0  0  0
    0.8689   33.5455   -0.3315 C   0  0  2  0  0  0  0  0  0  0  0  0
    0.0468   34.2169    0.6539 N   0  0  0  0  0  0  0  0  0  0  0  0
    3.5174   38.2770    0.4752 C   0  0  1  0  0  0  0  0  0  0  0  0
    4.3517   38.8433   -0.5408 O   0  0  0  0  0  0  0  0  0  0  0  0
    1.5505   38.0179   -4.0155 C   0  0  2  0  0  0  0  0  0  0  0  0
    1.7631   38.5863   -5.2892 O   0  0  0  0  0  0  0  0  0  0  0  0
    1.9179   34.5114   -0.8181 C   0  0  1  0  0  0  0  0  0  0  0  0
    2.7089   34.8280    0.3610 O   0  0  0  0  0  0  0  0  0  0  0  0
    4.3556   37.5644    1.4712 C   0  0  1  0  0  0  0  0  0  0  0  0
    4.4778   36.2110    1.0278 O   0  0  0  0  0  0  0  0  0  0  0  0
    0.1509   37.4084   -3.9309 C   0  0  1  0  0  0  0  0  0  0  0  0
   -0.0033   36.3889   -4.9059 O   0  0  0  0  0  0  0  0  0  0  0  0
    2.8865   33.7978   -1.7993 C   0  0  2  0  0  0  0  0  0  0  0  0
    3.8735   34.7202   -2.2338 O   0  0  0  0  0  0  0  0  0  0  0  0
   -0.0531   36.8285   -2.5309 C   0  0  1  0  0  0  0  0  0  0  0  0
    0.1032   37.8545   -1.5521 O   0  0  0  0  0  0  0  0  0  0  0  0
    2.0947   33.2837   -3.0171 C   0  0  1  0  0  0  0  0  0  0  0  0
    2.9751   32.6221   -3.9332 O   0  0  0  0  0  0  0  0  0  0  0  0
   -1.4641   36.2475   -2.4355 C   0  0  0  0  0  0  0  0  0  0  0  0
   -1.6044   35.5660   -1.1993 O   0  0  0  0  0  0  0  0  0  0  0  0
   -1.4605   33.2943   -4.0657 N   0  0  0  0  0  0  0  0  0  0  0  0
   -1.6531   33.1414    1.3217 N   0  0  0  0  0  0  0  0  0  0  0  0
  1  2  1  0  0  0  0
  1 39  1  0  0  0  0
  3  4  1  0  0  0  0
  5  6  1  0  0  0  0
  5 40  1  0  0  0  0
  9 10  1  6  0  0  0
  9 14  1  0  0  0  0
  9 35  1  0  0  0  0
 10  1  1  0  0  0  0
 11 16  1  0  0  0  0
 11 28  1  0  0  0  0
 11 26  1  1  0  0  0
 12 17  1  0  0  0  0
 12 34  1  0  0  0  0
 12 13  1  6  0  0  0
 14 15  1  1  0  0  0
 14 19  1  0  0  0  0
 16 13  1  6  0  0  0
 16 21  1  0  0  0  0
 17 18  1  1  0  0  0
 17 23  1  0  0  0  0
 18  8  1  0  0  0  0
 19 20  1  1  0  0  0
 19 25  1  0  0  0  0
 20  5  1  0  0  0  0
 21  3  1  1  0  0  0
 21 22  1  0  0  0  0
 21 27  1  0  0  0  0
 23 24  1  6  0  0  0
 23 29  1  0  0  0  0
 25 26  1  1  0  0  0
 25 31  1  0  0  0  0
 27  7  1  6  0  0  0
 27 28  1  0  0  0  0
 29 30  1  6  0  0  0
 29 33  1  0  0  0  0
 31 32  1  6  0  0  0
 31 35  1  0  0  0  0
 33 34  1  0  0  0  0
 33 37  1  6  0  0  0
 35 36  1  6  0  0  0
 37 38  1  0  0  0  0
M  END
>  <CHROM.1>
61.58478674,97.33709963,70.85194207,152.72739480,169.81331726,-135.50637493
85.21649402,68.95289693,49.03261126,-167.12466903,172.99340678,1.50469915
35.83343516,-1.51059578,2.85975804,1.03760235,2.19561346

>  <Name>
1ntb_lig

>  <RI>
0

>  <Rbt.Current_Directory>
/home/itssahil/PROJECTS/Mol_Feturizer/New_Systems/rnas/1ntb

>  <Rbt.Executable>
rbdock ($Id: //depot/dev/client3/rdock/2013.1/src/exe/rbdock.cxx#4 $)

>  <Rbt.Library>
libRbt.so (2013.1, Build901 2013/11/27)

>  <Rbt.Parameter_File>
/export/apps/rDock/src/rDock_2013.1_src/data/scripts/dock_solv.prm

>  <Rbt.Receptor>
prm/pocket_docking_4.prm

>  <SCORE>
-16.7313

>  <SCORE.INTER>
-5.90666

>  <SCORE.INTER.CONST>
1

>  <SCORE.INTER.POLAR>
-0.629566

>  <SCORE.INTER.ROT>
11

>  <SCORE.INTER.SOLV>
17.8486

>  <SCORE.INTER.VDW>
-18.7221

>  <SCORE.INTER.norm>
-0.147666

>  <SCORE.INTRA>
-10.8247

>  <SCORE.INTRA.DIHEDRAL>
-7.13277

>  <SCORE.INTRA.DIHEDRAL.0>
15.4453

>  <SCORE.INTRA.POLAR>
0

>  <SCORE.INTRA.POLAR.0>
0

>  <SCORE.INTRA.REPUL>
-0.821898

>  <SCORE.INTRA.REPUL.0>
0.823958

>  <SCORE.INTRA.SOLV>
5.36184

>  <SCORE.INTRA.SOLV.lig_0>
-99.3069

>  <SCORE.INTRA.VDW>
-5.82974

>  <SCORE.INTRA.VDW.0>
0.946495

>  <SCORE.INTRA.norm>
-0.270617

>  <SCORE.RESTR>
0

>  <SCORE.RESTR.CAVITY>
0

>  <SCORE.RESTR.norm>
0

>  <SCORE.SYSTEM>
0

>  <SCORE.SYSTEM.CONST>
0

>  <SCORE.SYSTEM.DIHEDRAL>
0

>  <SCORE.SYSTEM.SOLV>
0

>  <SCORE.SYSTEM.norm>
0

>  <SCORE.heavy>
40

>  <SCORE.norm>
-0.418284

>  <RMSD>
6.457

$$$$
1ntb_lig
 OpenBabel11021811403D
libRbt.so/2013.1/901 2013/11/27
 40 42  0  0  0  0  0  0  0  0999 V2000
   -1.5435   31.6958   -4.4770 C   0  0  0  0  0  0  0  0  0  0  0  0
   -2.7751   31.8709   -4.7644 N   0  0  0  0  0  0  0  0  0  0  0  0
    3.4239   39.4203    1.1928 C   0  0  0  0  0  0  0  0  0  0  0  0
    3.1525   40.5494    0.3792 O   0  0  0  0  0  0  0  0  0  0  0  0
   -1.5973   35.3390    0.3508 C   0  0  0  0  0  0  0  0  0  0  0  0
   -2.7746   34.8388    0.2258 N   0  0  0  0  0  0  0  0  0  0  0  0
    5.7929   37.1927    1.2656 C   0  0  0  0  0  0  0  0  0  0  0  0
   -0.7199   38.8054    0.8924 C   0  0  0  0  0  0  0  0  0  0  0  0
   -0.1282   33.1461   -3.2688 C   0  0  2  0  0  0  0  0  0  0  0  0
   -0.7757   32.7633   -4.5823 N   0  0  0  0  0  0  0  0  0  0  0  0
    2.9134   36.1835   -0.4795 C   0  0  2  0  0  0  0  0  0  0  0  0
    1.0577   38.2130   -1.9953 C   0  0  1  0  0  0  0  0  0  0  0  0
    2.4216   38.1624   -1.6192 O   0  0  0  0  0  0  0  0  0  0  0  0
   -0.8866   34.2857   -2.5972 C   0  0  1  0  0  0  0  0  0  0  0  0
   -2.2793   33.7711   -2.4319 O   0  0  0  0  0  0  0  0  0  0  0  0
    2.5746   37.6590   -0.3710 C   0  0  2  0  0  0  0  0  0  0  0  0
    0.3922   39.3448   -1.2505 C   0  0  1  0  0  0  0  0  0  0  0  0
    0.4689   39.1114    0.1484 N   0  0  0  0  0  0  0  0  0  0  0  0
   -0.2529   34.7290   -1.2802 C   0  0  2  0  0  0  0  0  0  0  0  0
   -0.9370   35.8074   -0.5972 N   0  0  0  0  0  0  0  0  0  0  0  0
    3.7789   38.2361    0.3243 C   0  0  1  0  0  0  0  0  0  0  0  0
    4.7666   38.6133   -0.6407 O   0  0  0  0  0  0  0  0  0  0  0  0
    1.1258   40.6291   -1.5985 C   0  0  2  0  0  0  0  0  0  0  0  0
    0.5482   41.7219   -0.9184 O   0  0  0  0  0  0  0  0  0  0  0  0
    1.1607   35.1645   -1.5670 C   0  0  1  0  0  0  0  0  0  0  0  0
    1.7560   35.3846   -0.2580 O   0  0  0  0  0  0  0  0  0  0  0  0
    4.2921   37.1181    1.1546 C   0  0  1  0  0  0  0  0  0  0  0  0
    3.9081   35.9025    0.5080 O   0  0  0  0  0  0  0  0  0  0  0  0
    1.0025   40.8170   -3.1107 C   0  0  1  0  0  0  0  0  0  0  0  0
    1.6721   42.0001   -3.5175 O   0  0  0  0  0  0  0  0  0  0  0  0
    1.9600   33.9966   -2.2053 C   0  0  2  0  0  0  0  0  0  0  0  0
    3.2906   34.4231   -2.4539 O   0  0  0  0  0  0  0  0  0  0  0  0
    1.6126   39.6031   -3.8122 C   0  0  1  0  0  0  0  0  0  0  0  0
    0.9388   38.4146   -3.4015 O   0  0  0  0  0  0  0  0  0  0  0  0
    1.2964   33.5884   -3.5347 C   0  0  1  0  0  0  0  0  0  0  0  0
    2.0229   32.5107   -4.1371 O   0  0  0  0  0  0  0  0  0  0  0  0
    1.4606   39.7755   -5.3238 C   0  0  0  0  0  0  0  0  0  0  0  0
    2.0468   38.6631   -5.9805 O   0  0  0  0  0  0  0  0  0  0  0  0
   -1.0714   30.5498   -4.1314 N   0  0  0  0  0  0  0  0  0  0  0  0
   -1.0854   35.4202    1.4813 N   0  0  0  0  0  0  0  0  0  0  0  0
  1  2  1  0  0  0  0
  1 39  1  0  0  0  0
  3  4  1  0  0  0  0
  5  6  1  0  0  0  0
  5 40  1  0  0  0  0
  9 10  1  6  0  0  0
  9 14  1  0  0  0  0
  9 35  1  0  0  0  0
 10  1  1  0  0  0  0
 11 16  1  0  0  0  0
 11 28  1  0  0  0  0
 11 26  1  1  0  0  0
 12 17  1  0  0  0  0
 12 34  1  0  0  0  0
 12 13  1  6  0  0  0
 14 15  1  1  0  0  0
 14 19  1  0  0  0  0
 16 13  1  6  0  0  0
 16 21  1  0  0  0  0
 17 18  1  1  0  0  0
 17 23  1  0  0  0  0
 18  8  1  0  0  0  0
 19 20  1  6  0  0  0
 19 25  1  0  0  0  0
 20  5  1  0  0  0  0
 21  3  1  1  0  0  0
 21 22  1  0  0  0  0
 21 27  1  0  0  0  0
 23 24  1  1  0  0  0
 23 29  1  0  0  0  0
 25 26  1  1  0  0  0
 25 31  1  0  0  0  0
 27  7  1  6  0  0  0
 27 28  1  0  0  0  0
 29 30  1  6  0  0  0
 29 33  1  0  0  0  0
 31 32  1  6  0  0  0
 31 35  1  0  0  0  0
 33 34  1  0  0  0  0
 33 37  1  6  0  0  0
 35 36  1  1  0  0  0
 37 38  1  0  0  0  0
M  END
>  <CHROM.1>
-99.51038458,119.27855223,91.40637165,73.93825813,97.38388124,-110.96157767
102.61672222,-83.67794525,-73.92774038,-162.04901441,178.95635014,1.13941976
36.67992906,-1.71584640,2.39644721,0.97277415,2.73682973

>  <Name>
1ntb_lig

>  <RI>
0

>  <Rbt.Current_Directory>
/home/itssahil/PROJECTS/Mol_Feturizer/New_Systems/rnas/1ntb

>  <Rbt.Executable>
rbdock ($Id: //depot/dev/client3/rdock/2013.1/src/exe/rbdock.cxx#4 $)

>  <Rbt.Library>
libRbt.so (2013.1, Build901 2013/11/27)

>  <Rbt.Parameter_File>
/export/apps/rDock/src/rDock_2013.1_src/data/scripts/dock_solv.prm

>  <Rbt.Receptor>
prm/pocket_docking_5.prm

>  <SCORE>
-9.43995

>  <SCORE.INTER>
0.129505

>  <SCORE.INTER.CONST>
1

>  <SCORE.INTER.POLAR>
-0.549928

>  <SCORE.INTER.ROT>
11

>  <SCORE.INTER.SOLV>
9.2828

>  <SCORE.INTER.VDW>
-12.1082

>  <SCORE.INTER.norm>
0.00323761

>  <SCORE.INTRA>
-9.56945

>  <SCORE.INTRA.DIHEDRAL>
0.256404

>  <SCORE.INTRA.DIHEDRAL.0>
15.4453

>  <SCORE.INTRA.POLAR>
0

>  <SCORE.INTRA.POLAR.0>
0

>  <SCORE.INTRA.REPUL>
-0.823958

>  <SCORE.INTRA.REPUL.0>
0.823958

>  <SCORE.INTRA.SOLV>
1.39567

>  <SCORE.INTRA.SOLV.lig_0>
-99.3069

>  <SCORE.INTRA.VDW>
-6.2757

>  <SCORE.INTRA.VDW.0>
0.946495

>  <SCORE.INTRA.norm>
-0.239236

>  <SCORE.RESTR>
0

>  <SCORE.RESTR.CAVITY>
0

>  <SCORE.RESTR.norm>
0

>  <SCORE.SYSTEM>
0

>  <SCORE.SYSTEM.CONST>
0

>  <SCORE.SYSTEM.DIHEDRAL>
0

>  <SCORE.SYSTEM.SOLV>
0

>  <SCORE.SYSTEM.norm>
0

>  <SCORE.heavy>
40

>  <SCORE.norm>
-0.235999

>  <RMSD>
6.501

$$$$
1ntb_lig
 OpenBabel11021811403D
libRbt.so/2013.1/901 2013/11/27
 40 42  0  0  0  0  0  0  0  0999 V2000
    2.2709   42.5985    1.7686 C   0  0  0  0  0  0  0  0  0  0  0  0
    1.9478   42.6226    3.0036 N   0  0  0  0  0  0  0  0  0  0  0  0
    0.5392   33.5419   -4.3074 C   0  0  0  0  0  0  0  0  0  0  0  0
    1.3045   32.4213   -4.7182 O   0  0  0  0  0  0  0  0  0  0  0  0
   -0.6569   37.3405    1.6898 C   0  0  0  0  0  0  0  0  0  0  0  0
   -0.7512   37.5211    2.9588 N   0  0  0  0  0  0  0  0  0  0  0  0
    3.4592   33.7719   -2.8930 C   0  0  0  0  0  0  0  0  0  0  0  0
   -2.7902   31.0560   -0.0517 C   0  0  0  0  0  0  0  0  0  0  0  0
    2.0334   40.6167    0.5110 C   0  0  2  0  0  0  0  0  0  0  0  0
    2.9033   41.5134    1.3654 N   0  0  0  0  0  0  0  0  0  0  0  0
    1.0282   35.9252   -1.5478 C   0  0  2  0  0  0  0  0  0  0  0  0
   -1.8350   33.8148   -2.2282 C   0  0  1  0  0  0  0  0  0  0  0  0
   -0.8102   34.4843   -1.5171 O   0  0  0  0  0  0  0  0  0  0  0  0
    1.6619   39.3413    1.2594 C   0  0  1  0  0  0  0  0  0  0  0  0
    0.9724   39.8134    2.4977 O   0  0  0  0  0  0  0  0  0  0  0  0
    0.0915   35.0468   -2.3570 C   0  0  2  0  0  0  0  0  0  0  0  0
   -2.8091   33.2282   -1.2353 C   0  0  1  0  0  0  0  0  0  0  0  0
   -2.1429   32.2872   -0.4059 N   0  0  0  0  0  0  0  0  0  0  0  0
    0.8076   38.3882    0.4260 C   0  0  2  0  0  0  0  0  0  0  0  0
    0.4221   37.1611    1.0917 N   0  0  0  0  0  0  0  0  0  0  0  0
    1.0170   34.0217   -2.9567 C   0  0  1  0  0  0  0  0  0  0  0  0
    1.1616   32.9119   -2.0643 O   0  0  0  0  0  0  0  0  0  0  0  0
   -3.3547   34.3651   -0.3878 C   0  0  2  0  0  0  0  0  0  0  0  0
   -4.2665   33.8688    0.5676 O   0  0  0  0  0  0  0  0  0  0  0  0
    1.5819   38.0354   -0.8174 C   0  0  1  0  0  0  0  0  0  0  0  0
    0.6427   37.2924   -1.6433 O   0  0  0  0  0  0  0  0  0  0  0  0
    2.3138   34.7316   -3.0864 C   0  0  1  0  0  0  0  0  0  0  0  0
    2.3441   35.7415   -2.0753 O   0  0  0  0  0  0  0  0  0  0  0  0
   -4.0554   35.3343   -1.3402 C   0  0  1  0  0  0  0  0  0  0  0  0
   -4.5900   36.4341   -0.6201 O   0  0  0  0  0  0  0  0  0  0  0  0
    1.9235   39.3218   -1.6166 C   0  0  2  0  0  0  0  0  0  0  0  0
    2.6393   38.9662   -2.7893 O   0  0  0  0  0  0  0  0  0  0  0  0
   -3.0451   35.8286   -2.3759 C   0  0  1  0  0  0  0  0  0  0  0  0
   -2.5082   34.7216   -3.0981 O   0  0  0  0  0  0  0  0  0  0  0  0
    2.7942   40.2489   -0.7467 C   0  0  1  0  0  0  0  0  0  0  0  0
    3.1186   41.4418   -1.4706 O   0  0  0  0  0  0  0  0  0  0  0  0
   -3.7530   36.7727   -3.3480 C   0  0  0  0  0  0  0  0  0  0  0  0
   -4.7581   36.0548   -4.0456 O   0  0  0  0  0  0  0  0  0  0  0  0
    2.0213   43.5766    0.9705 N   0  0  0  0  0  0  0  0  0  0  0  0
   -1.6919   37.2846    1.0025 N   0  0  0  0  0  0  0  0  0  0  0  0
  1  2  1  0  0  0  0
  1 39  1  0  0  0  0
  3  4  1  0  0  0  0
  5  6  1  0  0  0  0
  5 40  1  0  0  0  0
  9 10  1  1  0  0  0
  9 14  1  0  0  0  0
  9 35  1  0  0  0  0
 10  1  1  0  0  0  0
 11 16  1  0  0  0  0
 11 28  1  0  0  0  0
 11 26  1  6  0  0  0
 12 17  1  0  0  0  0
 12 34  1  0  0  0  0
 12 13  1  1  0  0  0
 14 15  1  1  0  0  0
 14 19  1  0  0  0  0
 16 13  1  1  0  0  0
 16 21  1  0  0  0  0
 17 18  1  1  0  0  0
 17 23  1  0  0  0  0
 18  8  1  0  0  0  0
 19 20  1  1  0  0  0
 19 25  1  0  0  0  0
 20  5  1  0  0  0  0
 21  3  1  6  0  0  0
 21 22  1  0  0  0  0
 21 27  1  0  0  0  0
 23 24  1  1  0  0  0
 23 29  1  0  0  0  0
 25 26  1  6  0  0  0
 25 31  1  0  0  0  0
 27  7  1  1  0  0  0
 27 28  1  0  0  0  0
 29 30  1  1  0  0  0
 29 33  1  0  0  0  0
 31 32  1  6  0  0  0
 31 35  1  0  0  0  0
 33 34  1  0  0  0  0
 33 37  1  6  0  0  0
 35 36  1  6  0  0  0
 37 38  1  0  0  0  0
M  END
>  <CHROM.1>
-109.20284559,107.15631020,178.89934659,-179.34317138,171.12153264,-139.24373406
89.47087224,-102.58959339,-169.77012726,-104.82020536,-63.03892347,-0.08988282
36.69548728,-0.95031084,1.05057469,0.39755237,0.59858092

>  <Name>
1ntb_lig

>  <RI>
0

>  <Rbt.Current_Directory>
/home/itssahil/PROJECTS/Mol_Feturizer/New_Systems/rnas/1ntb

>  <Rbt.Executable>
rbdock ($Id: //depot/dev/client3/rdock/2013.1/src/exe/rbdock.cxx#4 $)

>  <Rbt.Library>
libRbt.so (2013.1, Build901 2013/11/27)

>  <Rbt.Parameter_File>
/export/apps/rDock/src/rDock_2013.1_src/data/scripts/dock_solv.prm

>  <Rbt.Receptor>
prm/pocket_docking_6.prm

>  <SCORE>
-10.212

>  <SCORE.INTER>
2.22011

>  <SCORE.INTER.CONST>
1

>  <SCORE.INTER.POLAR>
-0.793233

>  <SCORE.INTER.ROT>
11

>  <SCORE.INTER.SOLV>
7.25307

>  <SCORE.INTER.VDW>
-9.22684

>  <SCORE.INTER.norm>
0.0555027

>  <SCORE.INTRA>
-12.4321

>  <SCORE.INTRA.DIHEDRAL>
-4.72131

>  <SCORE.INTRA.DIHEDRAL.0>
15.4453

>  <SCORE.INTRA.POLAR>
0

>  <SCORE.INTRA.POLAR.0>
0

>  <SCORE.INTRA.REPUL>
-0.823958

>  <SCORE.INTRA.REPUL.0>
0.823958

>  <SCORE.INTRA.SOLV>
-0.0657335

>  <SCORE.INTRA.SOLV.lig_0>
-99.3069

>  <SCORE.INTRA.VDW>
-5.9188

>  <SCORE.INTRA.VDW.0>
0.946495

>  <SCORE.INTRA.norm>
-0.310803

>  <SCORE.RESTR>
0

>  <SCORE.RESTR.CAVITY>
0

>  <SCORE.RESTR.norm>
0

>  <SCORE.SYSTEM>
0

>  <SCORE.SYSTEM.CONST>
0

>  <SCORE.SYSTEM.DIHEDRAL>
0

>  <SCORE.SYSTEM.SOLV>
0

>  <SCORE.SYSTEM.norm>
0

>  <SCORE.heavy>
40

>  <SCORE.norm>
-0.2553

>  <RMSD>
6.515

$$$$
1ntb_lig
 OpenBabel11021811403D
libRbt.so/2013.1/901 2013/11/27
 40 42  0  0  0  0  0  0  0  0999 V2000
    2.6086   40.4770    0.6831 C   0  0  0  0  0  0  0  0  0  0  0  0
    2.3916   39.9611    1.8306 N   0  0  0  0  0  0  0  0  0  0  0  0
   -1.2429   33.1081   -4.1175 C   0  0  0  0  0  0  0  0  0  0  0  0
   -2.5348   33.5309   -3.7142 O   0  0  0  0  0  0  0  0  0  0  0  0
   -2.5650   37.7025   -0.2126 C   0  0  0  0  0  0  0  0  0  0  0  0
   -2.8108   38.1029    0.9837 N   0  0  0  0  0  0  0  0  0  0  0  0
   -0.5729   34.6490   -6.9026 C   0  0  0  0  0  0  0  0  0  0  0  0
   -1.6623   32.4600   -0.4959 C   0  0  0  0  0  0  0  0  0  0  0  0
    0.7635   40.5621   -0.7846 C   0  0  2  0  0  0  0  0  0  0  0  0
    1.6540   41.2610    0.2201 N   0  0  0  0  0  0  0  0  0  0  0  0
   -0.1517   36.6202   -4.0229 C   0  0  2  0  0  0  0  0  0  0  0  0
    0.6170   35.1401   -1.2207 C   0  0  1  0  0  0  0  0  0  0  0  0
    0.8616   35.0577   -2.6127 O   0  0  0  0  0  0  0  0  0  0  0  0
    0.1086   39.3297   -0.1703 C   0  0  1  0  0  0  0  0  0  0  0  0
   -0.6424   39.8473    1.0129 O   0  0  0  0  0  0  0  0  0  0  0  0
   -0.2671   35.2751   -3.3293 C   0  0  2  0  0  0  0  0  0  0  0  0
    0.4453   33.7427   -0.6762 C   0  0  1  0  0  0  0  0  0  0  0  0
   -0.6691   33.1178   -1.2966 N   0  0  0  0  0  0  0  0  0  0  0  0
   -0.7780   38.5717   -1.1563 C   0  0  2  0  0  0  0  0  0  0  0  0
   -1.4290   37.3933   -0.6223 N   0  0  0  0  0  0  0  0  0  0  0  0
   -0.3995   34.3091   -4.4767 C   0  0  1  0  0  0  0  0  0  0  0  0
    0.8970   33.8863   -4.9119 O   0  0  0  0  0  0  0  0  0  0  0  0
    1.7111   32.9614   -0.9856 C   0  0  2  0  0  0  0  0  0  0  0  0
    1.5997   31.6396   -0.5050 O   0  0  0  0  0  0  0  0  0  0  0  0
    0.0756   38.1580   -2.3270 C   0  0  1  0  0  0  0  0  0  0  0  0
   -0.8621   37.6205   -3.3006 O   0  0  0  0  0  0  0  0  0  0  0  0
   -1.0530   35.1014   -5.5479 C   0  0  1  0  0  0  0  0  0  0  0  0
   -0.7001   36.4701   -5.3345 O   0  0  0  0  0  0  0  0  0  0  0  0
    2.8635   33.6861   -0.2897 C   0  0  1  0  0  0  0  0  0  0  0  0
    4.0896   33.0162   -0.5378 O   0  0  0  0  0  0  0  0  0  0  0  0
    0.7090   39.4087   -2.9940 C   0  0  2  0  0  0  0  0  0  0  0  0
    1.4962   38.9984   -4.1013 O   0  0  0  0  0  0  0  0  0  0  0  0
    2.9356   35.1204   -0.8144 C   0  0  1  0  0  0  0  0  0  0  0  0
    1.7019   35.7920   -0.5649 O   0  0  0  0  0  0  0  0  0  0  0  0
    1.6031   40.1366   -1.9719 C   0  0  1  0  0  0  0  0  0  0  0  0
    2.1959   41.2942   -2.5726 O   0  0  0  0  0  0  0  0  0  0  0  0
    4.0672   35.8552   -0.0953 C   0  0  0  0  0  0  0  0  0  0  0  0
    3.9941   37.2380   -0.4034 O   0  0  0  0  0  0  0  0  0  0  0  0
    3.6753   40.2317    0.0065 N   0  0  0  0  0  0  0  0  0  0  0  0
   -3.5058   37.5560   -1.0127 N   0  0  0  0  0  0  0  0  0  0  0  0
  1  2  1  0  0  0  0
  1 39  1  0  0  0  0
  3  4  1  0  0  0  0
  5  6  1  0  0  0  0
  5 40  1  0  0  0  0
  9 10  1  1  0  0  0
  9 14  1  0  0  0  0
  9 35  1  0  0  0  0
 10  1  1  0  0  0  0
 11 16  1  0  0  0  0
 11 28  1  0  0  0  0
 11 26  1  1  0  0  0
 12 17  1  0  0  0  0
 12 34  1  0  0  0  0
 12 13  1  6  0  0  0
 14 15  1  1  0  0  0
 14 19  1  0  0  0  0
 16 13  1  6  0  0  0
 16 21  1  0  0  0  0
 17 18  1  6  0  0  0
 17 23  1  0  0  0  0
 18  8  1  0  0  0  0
 19 20  1  1  0  0  0
 19 25  1  0  0  0  0
 20  5  1  0  0  0  0
 21  3  1  1  0  0  0
 21 22  1  0  0  0  0
 21 27  1  0  0  0  0
 23 24  1  1  0  0  0
 23 29  1  0  0  0  0
 25 26  1  6  0  0  0
 25 31  1  0  0  0  0
 27  7  1  6  0  0  0
 27 28  1  0  0  0  0
 29 30  1  6  0  0  0
 29 33  1  0  0  0  0
 31 32  1  6  0  0  0
 31 35  1  0  0  0  0
 33 34  1  0  0  0  0
 33 37  1  1  0  0  0
 35 36  1  6  0  0  0
 37 38  1  0  0  0  0
M  END
>  <CHROM.1>
58.62748046,-99.94735708,88.25738059,98.29034283,109.44163319,-131.01642137
93.57922081,-89.43075790,58.41572067,-149.31652310,-170.04036630,0.54593885
36.57852295,-1.75810091,-1.27384588,0.76916304,-2.94585412

>  <Name>
1ntb_lig

>  <RI>
0

>  <Rbt.Current_Directory>
/home/itssahil/PROJECTS/Mol_Feturizer/New_Systems/rnas/1ntb

>  <Rbt.Executable>
rbdock ($Id: //depot/dev/client3/rdock/2013.1/src/exe/rbdock.cxx#4 $)

>  <Rbt.Library>
libRbt.so (2013.1, Build901 2013/11/27)

>  <Rbt.Parameter_File>
/export/apps/rDock/src/rDock_2013.1_src/data/scripts/dock_solv.prm

>  <Rbt.Receptor>
prm/pocket_docking_3.prm

>  <SCORE>
1.93552

>  <SCORE.INTER>
8.10288

>  <SCORE.INTER.CONST>
1

>  <SCORE.INTER.POLAR>
0

>  <SCORE.INTER.ROT>
11

>  <SCORE.INTER.SOLV>
8.68908

>  <SCORE.INTER.VDW>
-8.42777

>  <SCORE.INTER.norm>
0.202572

>  <SCORE.INTRA>
-6.16735

>  <SCORE.INTRA.DIHEDRAL>
6.4892

>  <SCORE.INTRA.DIHEDRAL.0>
15.4453

>  <SCORE.INTRA.POLAR>
0

>  <SCORE.INTRA.POLAR.0>
0

>  <SCORE.INTRA.REPUL>
-0.823958

>  <SCORE.INTRA.REPUL.0>
0.823958

>  <SCORE.INTRA.SOLV>
2.7824

>  <SCORE.INTRA.SOLV.lig_0>
-99.3069

>  <SCORE.INTRA.VDW>
-6.68337

>  <SCORE.INTRA.VDW.0>
0.946495

>  <SCORE.INTRA.norm>
-0.154184

>  <SCORE.RESTR>
0

>  <SCORE.RESTR.CAVITY>
0

>  <SCORE.RESTR.norm>
0

>  <SCORE.SYSTEM>
0

>  <SCORE.SYSTEM.CONST>
0

>  <SCORE.SYSTEM.DIHEDRAL>
0

>  <SCORE.SYSTEM.SOLV>
0

>  <SCORE.SYSTEM.norm>
0

>  <SCORE.heavy>
40

>  <SCORE.norm>
0.0483881

>  <RMSD>
6.539

$$$$
1ntb_lig
 OpenBabel11021811403D
libRbt.so/2013.1/901 2013/11/27
 40 42  0  0  0  0  0  0  0  0999 V2000
    1.6649   42.6712   -5.7584 C   0  0  0  0  0  0  0  0  0  0  0  0
    0.7294   42.9164   -6.5921 N   0  0  0  0  0  0  0  0  0  0  0  0
    1.0052   32.3608   -2.2545 C   0  0  0  0  0  0  0  0  0  0  0  0
    0.2323   32.4094   -3.4422 O   0  0  0  0  0  0  0  0  0  0  0  0
    2.0939   39.0268   -0.9011 C   0  0  0  0  0  0  0  0  0  0  0  0
    0.9958   38.9451   -0.2380 N   0  0  0  0  0  0  0  0  0  0  0  0
    3.8795   33.7080   -2.9642 C   0  0  0  0  0  0  0  0  0  0  0  0
    0.2260   33.3583    3.3251 C   0  0  0  0  0  0  0  0  0  0  0  0
    1.4466   40.4384   -5.0286 C   0  0  2  0  0  0  0  0  0  0  0  0
    2.2016   41.4689   -5.8404 N   0  0  0  0  0  0  0  0  0  0  0  0
    1.3006   36.0255   -2.3864 C   0  0  2  0  0  0  0  0  0  0  0  0
   -0.7244   34.0999   -0.1084 C   0  0  1  0  0  0  0  0  0  0  0  0
    0.2576   35.0161   -0.5560 O   0  0  0  0  0  0  0  0  0  0  0  0
    2.2941   39.9290   -3.8679 C   0  0  1  0  0  0  0  0  0  0  0  0
    2.6378   41.1520   -3.0817 O   0  0  0  0  0  0  0  0  0  0  0  0
    0.5886   34.7965   -1.8510 C   0  0  2  0  0  0  0  0  0  0  0  0
   -0.9484   34.3141    1.3689 C   0  0  1  0  0  0  0  0  0  0  0  0
    0.2572   34.0700    2.0790 N   0  0  0  0  0  0  0  0  0  0  0  0
    1.5855   38.8626   -3.0352 C   0  0  2  0  0  0  0  0  0  0  0  0
    2.3454   38.3469   -1.9153 N   0  0  0  0  0  0  0  0  0  0  0  0
    1.6250   33.7132   -1.9906 C   0  0  1  0  0  0  0  0  0  0  0  0
    2.4379   33.6597   -0.8136 O   0  0  0  0  0  0  0  0  0  0  0  0
   -1.3817   35.7562    1.5720 C   0  0  2  0  0  0  0  0  0  0  0  0
   -1.5959   36.0141    2.9425 O   0  0  0  0  0  0  0  0  0  0  0  0
    1.2379   37.7147   -3.9471 C   0  0  1  0  0  0  0  0  0  0  0  0
    0.4052   36.8363   -3.1401 O   0  0  0  0  0  0  0  0  0  0  0  0
    2.4485   34.1423   -3.1483 C   0  0  1  0  0  0  0  0  0  0  0  0
    2.3733   35.5683   -3.2132 O   0  0  0  0  0  0  0  0  0  0  0  0
   -2.6785   35.9469    0.7849 C   0  0  1  0  0  0  0  0  0  0  0  0
   -3.1467   37.2796    0.9204 O   0  0  0  0  0  0  0  0  0  0  0  0
    0.3323   38.2096   -5.1069 C   0  0  2  0  0  0  0  0  0  0  0  0
    0.0055   37.1117   -5.9446 O   0  0  0  0  0  0  0  0  0  0  0  0
   -2.4149   35.6323   -0.6879 C   0  0  1  0  0  0  0  0  0  0  0  0
   -1.9434   34.2925   -0.8221 O   0  0  0  0  0  0  0  0  0  0  0  0
    1.0871   39.2730   -5.9278 C   0  0  1  0  0  0  0  0  0  0  0  0
    0.2641   39.7403   -7.0033 O   0  0  0  0  0  0  0  0  0  0  0  0
   -3.7188   35.7915   -1.4702 C   0  0  0  0  0  0  0  0  0  0  0  0
   -3.4774   35.5113   -2.8397 O   0  0  0  0  0  0  0  0  0  0  0  0
    2.0460   43.5276   -4.8770 N   0  0  0  0  0  0  0  0  0  0  0  0
    2.9505   39.8626   -0.5630 N   0  0  0  0  0  0  0  0  0  0  0  0
  1  2  1  0  0  0  0
  1 39  1  0  0  0  0
  3  4  1  0  0  0  0
  5  6  1  0  0  0  0
  5 40  1  0  0  0  0
  9 10  1  6  0  0  0
  9 14  1  0  0  0  0
  9 35  1  0  0  0  0
 10  1  1  0  0  0  0
 11 16  1  0  0  0  0
 11 28  1  0  0  0  0
 11 26  1  6  0  0  0
 12 17  1  0  0  0  0
 12 34  1  0  0  0  0
 12 13  1  6  0  0  0
 14 15  1  1  0  0  0
 14 19  1  0  0  0  0
 16 13  1  1  0  0  0
 16 21  1  0  0  0  0
 17 18  1  1  0  0  0
 17 23  1  0  0  0  0
 18  8  1  0  0  0  0
 19 20  1  1  0  0  0
 19 25  1  0  0  0  0
 20  5  1  0  0  0  0
 21  3  1  6  0  0  0
 21 22  1  0  0  0  0
 21 27  1  0  0  0  0
 23 24  1  1  0  0  0
 23 29  1  0  0  0  0
 25 26  1  1  0  0  0
 25 31  1  0  0  0  0
 27  7  1  1  0  0  0
 27 28  1  0  0  0  0
 29 30  1  6  0  0  0
 29 33  1  0  0  0  0
 31 32  1  6  0  0  0
 31 35  1  0  0  0  0
 33 34  1  0  0  0  0
 33 37  1  6  0  0  0
 35 36  1  6  0  0  0
 37 38  1  0  0  0  0
M  END
>  <CHROM.1>
-113.63561114,-86.50747701,-162.04380675,174.64501717,163.13332700,-138.80766636
91.07206356,74.45847141,58.85971319,-83.65070218,179.52977529,0.49798540
36.94506656,-2.19725060,1.08245509,1.00261565,-0.27524469

>  <Name>
1ntb_lig

>  <RI>
0

>  <Rbt.Current_Directory>
/home/itssahil/PROJECTS/Mol_Feturizer/New_Systems/rnas/1ntb

>  <Rbt.Executable>
rbdock ($Id: //depot/dev/client3/rdock/2013.1/src/exe/rbdock.cxx#4 $)

>  <Rbt.Library>
libRbt.so (2013.1, Build901 2013/11/27)

>  <Rbt.Parameter_File>
/export/apps/rDock/src/rDock_2013.1_src/data/scripts/dock_solv.prm

>  <Rbt.Receptor>
prm/pocket_docking_6.prm

>  <SCORE>
-17.7152

>  <SCORE.INTER>
-6.47689

>  <SCORE.INTER.CONST>
1

>  <SCORE.INTER.POLAR>
-0.939503

>  <SCORE.INTER.ROT>
11

>  <SCORE.INTER.SOLV>
9.14701

>  <SCORE.INTER.VDW>
-15.1686

>  <SCORE.INTER.norm>
-0.161922

>  <SCORE.INTRA>
-11.2383

>  <SCORE.INTRA.DIHEDRAL>
-5.84741

>  <SCORE.INTRA.DIHEDRAL.0>
15.4453

>  <SCORE.INTRA.POLAR>
0

>  <SCORE.INTRA.POLAR.0>
0

>  <SCORE.INTRA.REPUL>
-0.823958

>  <SCORE.INTRA.REPUL.0>
0.823958

>  <SCORE.INTRA.SOLV>
-1.37171

>  <SCORE.INTRA.SOLV.lig_0>
-99.3069

>  <SCORE.INTRA.VDW>
-3.50894

>  <SCORE.INTRA.VDW.0>
0.946495

>  <SCORE.INTRA.norm>
-0.280957

>  <SCORE.RESTR>
0

>  <SCORE.RESTR.CAVITY>
0

>  <SCORE.RESTR.norm>
0

>  <SCORE.SYSTEM>
0

>  <SCORE.SYSTEM.CONST>
0

>  <SCORE.SYSTEM.DIHEDRAL>
0

>  <SCORE.SYSTEM.SOLV>
0

>  <SCORE.SYSTEM.norm>
0

>  <SCORE.heavy>
40

>  <SCORE.norm>
-0.442879

>  <RMSD>
6.542

$$$$
1ntb_lig
 OpenBabel11021811403D
libRbt.so/2013.1/901 2013/11/27
 40 42  0  0  0  0  0  0  0  0999 V2000
    2.3462   43.5643   -3.8920 C   0  0  0  0  0  0  0  0  0  0  0  0
    2.3329   44.5571   -3.0893 N   0  0  0  0  0  0  0  0  0  0  0  0
    0.4491   32.9341   -3.2322 C   0  0  0  0  0  0  0  0  0  0  0  0
   -0.0692   33.5122   -4.4186 O   0  0  0  0  0  0  0  0  0  0  0  0
    0.5848   39.6228    0.4919 C   0  0  0  0  0  0  0  0  0  0  0  0
    1.0857   40.4086    1.3772 N   0  0  0  0  0  0  0  0  0  0  0  0
    3.5289   33.9530   -2.9936 C   0  0  0  0  0  0  0  0  0  0  0  0
   -3.7572   35.1690   -2.3470 C   0  0  0  0  0  0  0  0  0  0  0  0
    1.9904   41.3208   -3.2548 C   0  0  2  0  0  0  0  0  0  0  0  0
    2.9472   42.4780   -3.4460 N   0  0  0  0  0  0  0  0  0  0  0  0
    1.1403   36.3194   -1.9689 C   0  0  2  0  0  0  0  0  0  0  0  0
   -1.2843   35.9252   -0.4974 C   0  0  1  0  0  0  0  0  0  0  0  0
   -0.3264   34.9274   -0.7993 O   0  0  0  0  0  0  0  0  0  0  0  0
    2.1164   40.7333   -1.8534 C   0  0  1  0  0  0  0  0  0  0  0  0
    1.8377   41.8775   -0.9342 O   0  0  0  0  0  0  0  0  0  0  0  0
    0.2176   35.1156   -2.0254 C   0  0  2  0  0  0  0  0  0  0  0  0
   -2.5945   35.2532   -0.1651 C   0  0  1  0  0  0  0  0  0  0  0  0
   -3.0517   34.5093   -1.2853 N   0  0  0  0  0  0  0  0  0  0  0  0
    1.1907   39.5409   -1.6213 C   0  0  2  0  0  0  0  0  0  0  0  0
    1.2669   38.9466   -0.3028 N   0  0  0  0  0  0  0  0  0  0  0  0
    1.1444   33.9922   -2.4078 C   0  0  1  0  0  0  0  0  0  0  0  0
    1.7117   33.4047   -1.2321 O   0  0  0  0  0  0  0  0  0  0  0  0
   -2.3567   34.3196    1.0098 C   0  0  2  0  0  0  0  0  0  0  0  0
   -3.5522   33.6556    1.3566 O   0  0  0  0  0  0  0  0  0  0  0  0
    1.5265   38.4851   -2.6424 C   0  0  1  0  0  0  0  0  0  0  0  0
    0.4911   37.4749   -2.4887 O   0  0  0  0  0  0  0  0  0  0  0  0
    2.2105   34.6522   -3.2016 C   0  0  1  0  0  0  0  0  0  0  0  0
    2.2963   36.0053   -2.7488 O   0  0  0  0  0  0  0  0  0  0  0  0
   -1.8697   35.1831    2.1736 C   0  0  1  0  0  0  0  0  0  0  0  0
   -1.6180   34.3776    3.3145 O   0  0  0  0  0  0  0  0  0  0  0  0
    1.3534   39.0549   -4.0761 C   0  0  2  0  0  0  0  0  0  0  0  0
    1.6605   38.0415   -5.0211 O   0  0  0  0  0  0  0  0  0  0  0  0
   -0.5908   35.9073    1.7521 C   0  0  1  0  0  0  0  0  0  0  0  0
   -0.8455   36.7159    0.6047 O   0  0  0  0  0  0  0  0  0  0  0  0
    2.3113   40.2456   -4.2730 C   0  0  1  0  0  0  0  0  0  0  0  0
    2.1638   40.7832   -5.5927 O   0  0  0  0  0  0  0  0  0  0  0  0
   -0.1212   36.7959    2.9043 C   0  0  0  0  0  0  0  0  0  0  0  0
    1.1589   37.3227    2.5941 O   0  0  0  0  0  0  0  0  0  0  0  0
    1.8312   43.6219   -5.0698 N   0  0  0  0  0  0  0  0  0  0  0  0
   -0.6483   39.4701    0.4389 N   0  0  0  0  0  0  0  0  0  0  0  0
  1  2  1  0  0  0  0
  1 39  1  0  0  0  0
  3  4  1  0  0  0  0
  5  6  1  0  0  0  0
  5 40  1  0  0  0  0
  9 10  1  1  0  0  0
  9 14  1  0  0  0  0
  9 35  1  0  0  0  0
 10  1  1  0  0  0  0
 11 16  1  0  0  0  0
 11 28  1  0  0  0  0
 11 26  1  6  0  0  0
 12 17  1  0  0  0  0
 12 34  1  0  0  0  0
 12 13  1  1  0  0  0
 14 15  1  1  0  0  0
 14 19  1  0  0  0  0
 16 13  1  1  0  0  0
 16 21  1  0  0  0  0
 17 18  1  6  0  0  0
 17 23  1  0  0  0  0
 18  8  1  0  0  0  0
 19 20  1  1  0  0  0
 19 25  1  0  0  0  0
 20  5  1  0  0  0  0
 21  3  1  6  0  0  0
 21 22  1  0  0  0  0
 21 27  1  0  0  0  0
 23 24  1  1  0  0  0
 23 29  1  0  0  0  0
 25 26  1  6  0  0  0
 25 31  1  0  0  0  0
 27  7  1  1  0  0  0
 27 28  1  0  0  0  0
 29 30  1  1  0  0  0
 29 33  1  0  0  0  0
 31 32  1  6  0  0  0
 31 35  1  0  0  0  0
 33 34  1  0  0  0  0
 33 37  1  1  0  0  0
 35 36  1  6  0  0  0
 37 38  1  0  0  0  0
M  END
>  <CHROM.1>
-127.77169607,114.27641389,-168.73125752,123.94956530,71.93809205,-82.19715564
80.88097178,-105.78942275,59.27851324,-112.26224897,171.85118536,0.49629624
37.45503892,-1.46362242,0.56824239,1.10109673,0.49873828

>  <Name>
1ntb_lig

>  <RI>
0

>  <Rbt.Current_Directory>
/home/itssahil/PROJECTS/Mol_Feturizer/New_Systems/rnas/1ntb

>  <Rbt.Executable>
rbdock ($Id: //depot/dev/client3/rdock/2013.1/src/exe/rbdock.cxx#4 $)

>  <Rbt.Library>
libRbt.so (2013.1, Build901 2013/11/27)

>  <Rbt.Parameter_File>
/export/apps/rDock/src/rDock_2013.1_src/data/scripts/dock_solv.prm

>  <Rbt.Receptor>
prm/pocket_docking_5.prm

>  <SCORE>
-9.32664

>  <SCORE.INTER>
-1.71253

>  <SCORE.INTER.CONST>
1

>  <SCORE.INTER.POLAR>
-1.25913

>  <SCORE.INTER.ROT>
11

>  <SCORE.INTER.SOLV>
6.60692

>  <SCORE.INTER.VDW>
-10.0802

>  <SCORE.INTER.norm>
-0.0428134

>  <SCORE.INTRA>
-7.6141

>  <SCORE.INTRA.DIHEDRAL>
2.92094

>  <SCORE.INTRA.DIHEDRAL.0>
15.4453

>  <SCORE.INTRA.POLAR>
0

>  <SCORE.INTRA.POLAR.0>
0

>  <SCORE.INTRA.REPUL>
-0.823958

>  <SCORE.INTRA.REPUL.0>
0.823958

>  <SCORE.INTRA.SOLV>
2.38528

>  <SCORE.INTRA.SOLV.lig_0>
-99.3069

>  <SCORE.INTRA.VDW>
-6.14742

>  <SCORE.INTRA.VDW.0>
0.946495

>  <SCORE.INTRA.norm>
-0.190353

>  <SCORE.RESTR>
0

>  <SCORE.RESTR.CAVITY>
0

>  <SCORE.RESTR.norm>
0

>  <SCORE.SYSTEM>
0

>  <SCORE.SYSTEM.CONST>
0

>  <SCORE.SYSTEM.DIHEDRAL>
0

>  <SCORE.SYSTEM.SOLV>
0

>  <SCORE.SYSTEM.norm>
0

>  <SCORE.heavy>
40

>  <SCORE.norm>
-0.233166

>  <RMSD>
6.556

$$$$
1ntb_lig
 OpenBabel11021811403D
libRbt.so/2013.1/901 2013/11/27
 40 42  0  0  0  0  0  0  0  0999 V2000
   -1.5043   32.3097   -2.1899 C   0  0  0  0  0  0  0  0  0  0  0  0
   -1.0350   32.2379   -1.0046 N   0  0  0  0  0  0  0  0  0  0  0  0
    3.0052   41.2052   -3.0488 C   0  0  0  0  0  0  0  0  0  0  0  0
    2.9202   42.4808   -3.6619 O   0  0  0  0  0  0  0  0  0  0  0  0
    3.8073   34.4667   -1.6765 C   0  0  0  0  0  0  0  0  0  0  0  0
    4.7578   34.2909   -2.5237 N   0  0  0  0  0  0  0  0  0  0  0  0
    1.3598   41.0304   -5.8492 C   0  0  0  0  0  0  0  0  0  0  0  0
    4.9225   38.7801   -0.1126 C   0  0  0  0  0  0  0  0  0  0  0  0
    0.2192   33.0433   -3.6242 C   0  0  2  0  0  0  0  0  0  0  0  0
   -0.6865   31.9266   -3.1515 N   0  0  0  0  0  0  0  0  0  0  0  0
    1.3740   38.0456   -3.9927 C   0  0  2  0  0  0  0  0  0  0  0  0
    1.4497   37.9057   -0.9230 C   0  0  1  0  0  0  0  0  0  0  0  0
    1.0635   38.9088   -1.8443 O   0  0  0  0  0  0  0  0  0  0  0  0
    1.0871   33.5632   -2.4833 C   0  0  1  0  0  0  0  0  0  0  0  0
    1.8406   32.3663   -2.0021 O   0  0  0  0  0  0  0  0  0  0  0  0
    1.9052   38.9605   -2.9044 C   0  0  2  0  0  0  0  0  0  0  0  0
    2.4700   38.4868    0.0256 C   0  0  1  0  0  0  0  0  0  0  0  0
    3.6182   38.9040   -0.6990 N   0  0  0  0  0  0  0  0  0  0  0  0
    1.9987   34.7140   -2.9044 C   0  0  2  0  0  0  0  0  0  0  0  0
    2.8492   35.2432   -1.8583 N   0  0  0  0  0  0  0  0  0  0  0  0
    1.8979   40.3147   -3.5625 C   0  0  1  0  0  0  0  0  0  0  0  0
    0.6286   40.9468   -3.3665 O   0  0  0  0  0  0  0  0  0  0  0  0
    1.8371   39.6818    0.7185 C   0  0  2  0  0  0  0  0  0  0  0  0
    2.7553   40.2712    1.6130 O   0  0  0  0  0  0  0  0  0  0  0  0
    1.1301   35.8295   -3.4253 C   0  0  1  0  0  0  0  0  0  0  0  0
    2.0615   36.7990   -3.9809 O   0  0  0  0  0  0  0  0  0  0  0  0
    2.0935   40.0215   -5.0041 C   0  0  1  0  0  0  0  0  0  0  0  0
    1.5731   38.7116   -5.2418 O   0  0  0  0  0  0  0  0  0  0  0  0
    0.6146   39.1620    1.4753 C   0  0  1  0  0  0  0  0  0  0  0  0
   -0.0389   40.2268    2.1483 O   0  0  0  0  0  0  0  0  0  0  0  0
    0.2769   35.3275   -4.6213 C   0  0  2  0  0  0  0  0  0  0  0  0
   -0.5221   36.3959   -5.1052 O   0  0  0  0  0  0  0  0  0  0  0  0
   -0.3429   38.5067    0.4794 C   0  0  1  0  0  0  0  0  0  0  0  0
    0.3160   37.4371   -0.1968 O   0  0  0  0  0  0  0  0  0  0  0  0
   -0.6353   34.1776   -4.1526 C   0  0  1  0  0  0  0  0  0  0  0  0
   -1.4301   33.7028   -5.2458 O   0  0  0  0  0  0  0  0  0  0  0  0
   -1.5504   37.9582    1.2400 C   0  0  0  0  0  0  0  0  0  0  0  0
   -2.3305   39.0419    1.7190 O   0  0  0  0  0  0  0  0  0  0  0  0
   -2.6874   32.7503   -2.4383 N   0  0  0  0  0  0  0  0  0  0  0  0
    3.7910   33.7959   -0.6294 N   0  0  0  0  0  0  0  0  0  0  0  0
  1  2  1  0  0  0  0
  1 39  1  0  0  0  0
  3  4  1  0  0  0  0
  5  6  1  0  0  0  0
  5 40  1  0  0  0  0
  9 10  1  1  0  0  0
  9 14  1  0  0  0  0
  9 35  1  0  0  0  0
 10  1  1  0  0  0  0
 11 16  1  0  0  0  0
 11 28  1  0  0  0  0
 11 26  1  6  0  0  0
 12 17  1  0  0  0  0
 12 34  1  0  0  0  0
 12 13  1  6  0  0  0
 14 15  1  6  0  0  0
 14 19  1  0  0  0  0
 16 13  1  1  0  0  0
 16 21  1  0  0  0  0
 17 18  1  6  0  0  0
 17 23  1  0  0  0  0
 18  8  1  0  0  0  0
 19 20  1  1  0  0  0
 19 25  1  0  0  0  0
 20  5  1  0  0  0  0
 21  3  1  1  0  0  0
 21 22  1  0  0  0  0
 21 27  1  0  0  0  0
 23 24  1  1  0  0  0
 23 29  1  0  0  0  0
 25 26  1  6  0  0  0
 25 31  1  0  0  0  0
 27  7  1  6  0  0  0
 27 28  1  0  0  0  0
 29 30  1  6  0  0  0
 29 33  1  0  0  0  0
 31 32  1  1  0  0  0
 31 35  1  0  0  0  0
 33 34  1  0  0  0  0
 33 37  1  1  0  0  0
 35 36  1  6  0  0  0
 37 38  1  0  0  0  0
M  END
>  <CHROM.1>
60.11734345,-86.22863203,106.41311871,86.06224279,91.12973273,-145.10671671
77.06001877,69.45856259,-177.74538480,-157.57351777,69.73435254,1.15941457
37.05742918,-2.09520808,2.39103481,-1.24248717,-2.12505874

>  <Name>
1ntb_lig

>  <RI>
0

>  <Rbt.Current_Directory>
/home/itssahil/PROJECTS/Mol_Feturizer/New_Systems/rnas/1ntb

>  <Rbt.Executable>
rbdock ($Id: //depot/dev/client3/rdock/2013.1/src/exe/rbdock.cxx#4 $)

>  <Rbt.Library>
libRbt.so (2013.1, Build901 2013/11/27)

>  <Rbt.Parameter_File>
/export/apps/rDock/src/rDock_2013.1_src/data/scripts/dock_solv.prm

>  <Rbt.Receptor>
prm/pocket_docking_6.prm

>  <SCORE>
-10.6283

>  <SCORE.INTER>
-4.49527

>  <SCORE.INTER.CONST>
1

>  <SCORE.INTER.POLAR>
-0.629142

>  <SCORE.INTER.ROT>
11

>  <SCORE.INTER.SOLV>
14.6357

>  <SCORE.INTER.VDW>
-16.7116

>  <SCORE.INTER.norm>
-0.112382

>  <SCORE.INTRA>
-6.13303

>  <SCORE.INTRA.DIHEDRAL>
2.57362

>  <SCORE.INTRA.DIHEDRAL.0>
15.4453

>  <SCORE.INTRA.POLAR>
0

>  <SCORE.INTRA.POLAR.0>
0

>  <SCORE.INTRA.REPUL>
-0.823958

>  <SCORE.INTRA.REPUL.0>
0.823958

>  <SCORE.INTRA.SOLV>
1.37547

>  <SCORE.INTRA.SOLV.lig_0>
-99.3069

>  <SCORE.INTRA.VDW>
-3.98779

>  <SCORE.INTRA.VDW.0>
0.946495

>  <SCORE.INTRA.norm>
-0.153326

>  <SCORE.RESTR>
0

>  <SCORE.RESTR.CAVITY>
0

>  <SCORE.RESTR.norm>
0

>  <SCORE.SYSTEM>
0

>  <SCORE.SYSTEM.CONST>
0

>  <SCORE.SYSTEM.DIHEDRAL>
0

>  <SCORE.SYSTEM.SOLV>
0

>  <SCORE.SYSTEM.norm>
0

>  <SCORE.heavy>
40

>  <SCORE.norm>
-0.265708

>  <RMSD>
6.558

$$$$
1ntb_lig
 OpenBabel11021811403D
libRbt.so/2013.1/901 2013/11/27
 40 42  0  0  0  0  0  0  0  0999 V2000
    0.1631   33.6341    2.1036 C   0  0  0  0  0  0  0  0  0  0  0  0
   -0.8848   33.4991    2.8206 N   0  0  0  0  0  0  0  0  0  0  0  0
    1.5817   39.4976   -7.0785 C   0  0  0  0  0  0  0  0  0  0  0  0
    0.7749   39.6420   -8.2354 O   0  0  0  0  0  0  0  0  0  0  0  0
   -0.0806   38.6998   -0.3989 C   0  0  0  0  0  0  0  0  0  0  0  0
    1.0178   39.2885   -0.0843 N   0  0  0  0  0  0  0  0  0  0  0  0
   -1.2191   37.8769   -6.7489 C   0  0  0  0  0  0  0  0  0  0  0  0
    0.6856   43.1348   -5.9930 C   0  0  0  0  0  0  0  0  0  0  0  0
    0.7322   34.4414   -0.0388 C   0  0  2  0  0  0  0  0  0  0  0  0
    0.0010   33.4248    0.8113 N   0  0  0  0  0  0  0  0  0  0  0  0
    0.7731   37.9232   -3.8533 C   0  0  2  0  0  0  0  0  0  0  0  0
    2.4541   41.0726   -4.3871 C   0  0  1  0  0  0  0  0  0  0  0  0
    1.5029   40.1417   -3.9047 O   0  0  0  0  0  0  0  0  0  0  0  0
   -0.1217   35.6853   -0.2590 C   0  0  1  0  0  0  0  0  0  0  0  0
   -0.4263   36.1863    1.1150 O   0  0  0  0  0  0  0  0  0  0  0  0
    1.5190   38.9955   -4.6263 C   0  0  2  0  0  0  0  0  0  0  0  0
    2.0041   42.4633   -4.0104 C   0  0  1  0  0  0  0  0  0  0  0  0
    0.7490   42.7431   -4.6135 N   0  0  0  0  0  0  0  0  0  0  0  0
    0.5624   36.7302   -1.1382 C   0  0  2  0  0  0  0  0  0  0  0  0
   -0.2044   37.9356   -1.3760 N   0  0  0  0  0  0  0  0  0  0  0  0
    0.7200   39.1195   -5.8965 C   0  0  1  0  0  0  0  0  0  0  0  0
   -0.3264   40.0810   -5.7240 O   0  0  0  0  0  0  0  0  0  0  0  0
    1.8714   42.5184   -2.4978 C   0  0  2  0  0  0  0  0  0  0  0  0
    1.4419   43.7992   -2.0909 O   0  0  0  0  0  0  0  0  0  0  0  0
    0.8723   36.0902   -2.4665 C   0  0  1  0  0  0  0  0  0  0  0  0
    1.6855   37.0690   -3.1714 O   0  0  0  0  0  0  0  0  0  0  0  0
    0.1327   37.7706   -6.0919 C   0  0  1  0  0  0  0  0  0  0  0  0
    0.0039   37.1759   -4.7985 O   0  0  0  0  0  0  0  0  0  0  0  0
    3.2520   42.2102   -1.9179 C   0  0  1  0  0  0  0  0  0  0  0  0
    3.2089   42.2367   -0.4998 O   0  0  0  0  0  0  0  0  0  0  0  0
    1.7839   34.8503   -2.2619 C   0  0  2  0  0  0  0  0  0  0  0  0
    2.0749   34.2717   -3.5247 O   0  0  0  0  0  0  0  0  0  0  0  0
    3.6957   40.8294   -2.4020 C   0  0  1  0  0  0  0  0  0  0  0  0
    3.7376   40.8043   -3.8278 O   0  0  0  0  0  0  0  0  0  0  0  0
    1.0537   33.8176   -1.3817 C   0  0  1  0  0  0  0  0  0  0  0  0
    1.8825   32.6660   -1.1834 O   0  0  0  0  0  0  0  0  0  0  0  0
    5.0901   40.5342   -1.8486 C   0  0  0  0  0  0  0  0  0  0  0  0
    5.9656   41.5922   -2.2042 O   0  0  0  0  0  0  0  0  0  0  0  0
    1.3101   33.9297    2.6063 N   0  0  0  0  0  0  0  0  0  0  0  0
   -1.0797   38.8428    0.3278 N   0  0  0  0  0  0  0  0  0  0  0  0
  1  2  1  0  0  0  0
  1 39  1  0  0  0  0
  3  4  1  0  0  0  0
  5  6  1  0  0  0  0
  5 40  1  0  0  0  0
  9 10  1  1  0  0  0
  9 14  1  0  0  0  0
  9 35  1  0  0  0  0
 10  1  1  0  0  0  0
 11 16  1  0  0  0  0
 11 28  1  0  0  0  0
 11 26  1  6  0  0  0
 12 17  1  0  0  0  0
 12 34  1  0  0  0  0
 12 13  1  1  0  0  0
 14 15  1  1  0  0  0
 14 19  1  0  0  0  0
 16 13  1  1  0  0  0
 16 21  1  0  0  0  0
 17 18  1  6  0  0  0
 17 23  1  0  0  0  0
 18  8  1  0  0  0  0
 19 20  1  6  0  0  0
 19 25  1  0  0  0  0
 20  5  1  0  0  0  0
 21  3  1  6  0  0  0
 21 22  1  0  0  0  0
 21 27  1  0  0  0  0
 23 24  1  6  0  0  0
 23 29  1  0  0  0  0
 25 26  1  6  0  0  0
 25 31  1  0  0  0  0
 27  7  1  1  0  0  0
 27 28  1  0  0  0  0
 29 30  1  1  0  0  0
 29 33  1  0  0  0  0
 31 32  1  6  0  0  0
 31 35  1  0  0  0  0
 33 34  1  0  0  0  0
 33 37  1  1  0  0  0
 35 36  1  1  0  0  0
 37 38  1  0  0  0  0
M  END
>  <CHROM.1>
-86.21185828,137.80419964,179.83328380,154.98246956,164.88905528,-79.74304609
81.39748640,67.90791113,-178.15337321,-87.80597518,-54.28994710,1.26727467
38.36547023,-2.55654184,-2.03500148,-1.18607024,-1.03563926

>  <Name>
1ntb_lig

>  <RI>
0

>  <Rbt.Current_Directory>
/home/itssahil/PROJECTS/Mol_Feturizer/New_Systems/rnas/1ntb

>  <Rbt.Executable>
rbdock ($Id: //depot/dev/client3/rdock/2013.1/src/exe/rbdock.cxx#4 $)

>  <Rbt.Library>
libRbt.so (2013.1, Build901 2013/11/27)

>  <Rbt.Parameter_File>
/export/apps/rDock/src/rDock_2013.1_src/data/scripts/dock_solv.prm

>  <Rbt.Receptor>
prm/pocket_docking_7.prm

>  <SCORE>
-14.3704

>  <SCORE.INTER>
-3.31088

>  <SCORE.INTER.CONST>
1

>  <SCORE.INTER.POLAR>
-0.72111

>  <SCORE.INTER.ROT>
11

>  <SCORE.INTER.SOLV>
10.3073

>  <SCORE.INTER.VDW>
-14.1726

>  <SCORE.INTER.norm>
-0.0827719

>  <SCORE.INTRA>
-11.0595

>  <SCORE.INTRA.DIHEDRAL>
-5.83957

>  <SCORE.INTRA.DIHEDRAL.0>
15.4453

>  <SCORE.INTRA.POLAR>
0

>  <SCORE.INTRA.POLAR.0>
0

>  <SCORE.INTRA.REPUL>
-0.823958

>  <SCORE.INTRA.REPUL.0>
0.823958

>  <SCORE.INTRA.SOLV>
0.633291

>  <SCORE.INTRA.SOLV.lig_0>
-99.3069

>  <SCORE.INTRA.VDW>
-4.33661

>  <SCORE.INTRA.VDW.0>
0.946495

>  <SCORE.INTRA.norm>
-0.276488

>  <SCORE.RESTR>
0

>  <SCORE.RESTR.CAVITY>
0

>  <SCORE.RESTR.norm>
0

>  <SCORE.SYSTEM>
0

>  <SCORE.SYSTEM.CONST>
0

>  <SCORE.SYSTEM.DIHEDRAL>
0

>  <SCORE.SYSTEM.SOLV>
0

>  <SCORE.SYSTEM.norm>
0

>  <SCORE.heavy>
40

>  <SCORE.norm>
-0.35926

>  <RMSD>
6.576

$$$$
1ntb_lig
 OpenBabel11021811403D
libRbt.so/2013.1/901 2013/11/27
 40 42  0  0  0  0  0  0  0  0999 V2000
    2.5031   41.9587   -1.2404 C   0  0  0  0  0  0  0  0  0  0  0  0
    2.5080   42.5013   -0.0846 N   0  0  0  0  0  0  0  0  0  0  0  0
   -0.1863   31.8336   -3.2469 C   0  0  0  0  0  0  0  0  0  0  0  0
   -0.5635   30.7700   -4.1053 O   0  0  0  0  0  0  0  0  0  0  0  0
   -1.1130   36.7421    0.0583 C   0  0  0  0  0  0  0  0  0  0  0  0
   -2.1583   36.3048   -0.5483 N   0  0  0  0  0  0  0  0  0  0  0  0
   -1.2107   32.9621   -6.1204 C   0  0  0  0  0  0  0  0  0  0  0  0
    5.8928   32.9876   -3.7858 C   0  0  0  0  0  0  0  0  0  0  0  0
    1.7197   39.7976   -1.7711 C   0  0  2  0  0  0  0  0  0  0  0  0
    2.8412   40.6841   -1.2738 N   0  0  0  0  0  0  0  0  0  0  0  0
    0.0731   35.4309   -3.9727 C   0  0  2  0  0  0  0  0  0  0  0  0
    2.4536   33.1666   -2.4348 C   0  0  1  0  0  0  0  0  0  0  0  0
    1.9207   34.2905   -3.1108 O   0  0  0  0  0  0  0  0  0  0  0  0
    1.4518   38.6563   -0.7962 C   0  0  1  0  0  0  0  0  0  0  0  0
    1.1320   39.3288    0.4989 O   0  0  0  0  0  0  0  0  0  0  0  0
    0.5714   34.2197   -3.2055 C   0  0  2  0  0  0  0  0  0  0  0  0
    3.9465   33.3454   -2.3013 C   0  0  1  0  0  0  0  0  0  0  0  0
    4.5392   33.4231   -3.5897 N   0  0  0  0  0  0  0  0  0  0  0  0
    0.3465   37.7147   -1.2698 C   0  0  2  0  0  0  0  0  0  0  0  0
    0.0479   36.6137   -0.3774 N   0  0  0  0  0  0  0  0  0  0  0  0
    0.1277   33.0650   -4.0640 C   0  0  1  0  0  0  0  0  0  0  0  0
    1.1333   32.7651   -5.0377 O   0  0  0  0  0  0  0  0  0  0  0  0
    4.1968   34.6371   -1.5414 C   0  0  2  0  0  0  0  0  0  0  0  0
    5.5827   34.8586   -1.3966 O   0  0  0  0  0  0  0  0  0  0  0  0
    0.7559   37.1506   -2.6056 C   0  0  1  0  0  0  0  0  0  0  0  0
   -0.4136   36.4264   -3.0789 O   0  0  0  0  0  0  0  0  0  0  0  0
   -1.0939   33.5632   -4.7436 C   0  0  1  0  0  0  0  0  0  0  0  0
   -0.9738   34.9844   -4.8377 O   0  0  0  0  0  0  0  0  0  0  0  0
    3.5357   34.4834   -0.1715 C   0  0  1  0  0  0  0  0  0  0  0  0
    3.7214   35.6593    0.6009 O   0  0  0  0  0  0  0  0  0  0  0  0
    0.9831   38.3006   -3.6235 C   0  0  2  0  0  0  0  0  0  0  0  0
    1.3536   37.7476   -4.8770 O   0  0  0  0  0  0  0  0  0  0  0  0
    2.0430   34.2174   -0.3687 C   0  0  1  0  0  0  0  0  0  0  0  0
    1.8583   33.0356   -1.1461 O   0  0  0  0  0  0  0  0  0  0  0  0
    2.1115   39.2187   -3.1154 C   0  0  1  0  0  0  0  0  0  0  0  0
    2.3339   40.2860   -4.0447 O   0  0  0  0  0  0  0  0  0  0  0  0
    1.3873   34.0316    0.9998 C   0  0  0  0  0  0  0  0  0  0  0  0
    0.0207   33.6963    0.8197 O   0  0  0  0  0  0  0  0  0  0  0  0
    2.2130   42.6138   -2.3092 N   0  0  0  0  0  0  0  0  0  0  0  0
   -1.2441   37.3803    1.1176 N   0  0  0  0  0  0  0  0  0  0  0  0
  1  2  1  0  0  0  0
  1 39  1  0  0  0  0
  3  4  1  0  0  0  0
  5  6  1  0  0  0  0
  5 40  1  0  0  0  0
  9 10  1  1  0  0  0
  9 14  1  0  0  0  0
  9 35  1  0  0  0  0
 10  1  1  0  0  0  0
 11 16  1  0  0  0  0
 11 28  1  0  0  0  0
 11 26  1  1  0  0  0
 12 17  1  0  0  0  0
 12 34  1  0  0  0  0
 12 13  1  1  0  0  0
 14 15  1  1  0  0  0
 14 19  1  0  0  0  0
 16 13  1  6  0  0  0
 16 21  1  0  0  0  0
 17 18  1  6  0  0  0
 17 23  1  0  0  0  0
 18  8  1  0  0  0  0
 19 20  1  1  0  0  0
 19 25  1  0  0  0  0
 20  5  1  0  0  0  0
 21  3  1  1  0  0  0
 21 22  1  0  0  0  0
 21 27  1  0  0  0  0
 23 24  1  1  0  0  0
 23 29  1  0  0  0  0
 25 26  1  6  0  0  0
 25 31  1  0  0  0  0
 27  7  1  6  0  0  0
 27 28  1  0  0  0  0
 29 30  1  1  0  0  0
 29 33  1  0  0  0  0
 31 32  1  6  0  0  0
 31 35  1  0  0  0  0
 33 34  1  0  0  0  0
 33 37  1  1  0  0  0
 35 36  1  6  0  0  0
 37 38  1  0  0  0  0
M  END
>  <CHROM.1>
-127.46750526,117.39366508,81.74598450,-177.04969887,-178.39462254,-151.39520819
115.05788544,86.49599906,-178.46626587,-154.78669069,-176.14338171,1.41384859
35.98010391,-2.17181455,-1.46647499,0.51713995,-2.91729866

>  <Name>
1ntb_lig

>  <RI>
0

>  <Rbt.Current_Directory>
/home/itssahil/PROJECTS/Mol_Feturizer/New_Systems/rnas/1ntb

>  <Rbt.Executable>
rbdock ($Id: //depot/dev/client3/rdock/2013.1/src/exe/rbdock.cxx#4 $)

>  <Rbt.Library>
libRbt.so (2013.1, Build901 2013/11/27)

>  <Rbt.Parameter_File>
/export/apps/rDock/src/rDock_2013.1_src/data/scripts/dock_solv.prm

>  <Rbt.Receptor>
prm/pocket_docking_5.prm

>  <SCORE>
-15.5655

>  <SCORE.INTER>
-1.92435

>  <SCORE.INTER.CONST>
1

>  <SCORE.INTER.POLAR>
0

>  <SCORE.INTER.ROT>
11

>  <SCORE.INTER.SOLV>
10.0736

>  <SCORE.INTER.VDW>
-15.5741

>  <SCORE.INTER.norm>
-0.0481087

>  <SCORE.INTRA>
-13.6411

>  <SCORE.INTRA.DIHEDRAL>
-6.38386

>  <SCORE.INTRA.DIHEDRAL.0>
15.4453

>  <SCORE.INTRA.POLAR>
0

>  <SCORE.INTRA.POLAR.0>
0

>  <SCORE.INTRA.REPUL>
-0.823958

>  <SCORE.INTRA.REPUL.0>
0.823958

>  <SCORE.INTRA.SOLV>
0.148213

>  <SCORE.INTRA.SOLV.lig_0>
-99.3069

>  <SCORE.INTRA.VDW>
-6.40352

>  <SCORE.INTRA.VDW.0>
0.946495

>  <SCORE.INTRA.norm>
-0.341028

>  <SCORE.RESTR>
0

>  <SCORE.RESTR.CAVITY>
0

>  <SCORE.RESTR.norm>
0

>  <SCORE.SYSTEM>
0

>  <SCORE.SYSTEM.CONST>
0

>  <SCORE.SYSTEM.DIHEDRAL>
0

>  <SCORE.SYSTEM.SOLV>
0

>  <SCORE.SYSTEM.norm>
0

>  <SCORE.heavy>
40

>  <SCORE.norm>
-0.389137

>  <RMSD>
6.579

$$$$
1ntb_lig
 OpenBabel11021811403D
libRbt.so/2013.1/901 2013/11/27
 40 42  0  0  0  0  0  0  0  0999 V2000
    0.1607   32.8170   -5.9948 C   0  0  0  0  0  0  0  0  0  0  0  0
    0.7662   31.6948   -6.0600 N   0  0  0  0  0  0  0  0  0  0  0  0
    5.2953   36.5357    2.1605 C   0  0  0  0  0  0  0  0  0  0  0  0
    4.6010   35.5784    2.9427 O   0  0  0  0  0  0  0  0  0  0  0  0
    0.9833   37.5625   -3.0038 C   0  0  0  0  0  0  0  0  0  0  0  0
    0.7700   38.1784   -4.1116 N   0  0  0  0  0  0  0  0  0  0  0  0
    6.6929   34.6636   -0.1026 C   0  0  0  0  0  0  0  0  0  0  0  0
    5.9490   40.5145   -0.0601 C   0  0  0  0  0  0  0  0  0  0  0  0
   -0.3724   33.4910   -3.7976 C   0  0  2  0  0  0  0  0  0  0  0  0
   -0.8173   32.8872   -5.1123 N   0  0  0  0  0  0  0  0  0  0  0  0
    3.3585   35.5293   -0.8010 C   0  0  2  0  0  0  0  0  0  0  0  0
    3.4996   38.7371    0.8852 C   0  0  1  0  0  0  0  0  0  0  0  0
    3.3801   37.7703   -0.1421 O   0  0  0  0  0  0  0  0  0  0  0  0
    0.4568   34.7498   -4.0270 C   0  0  1  0  0  0  0  0  0  0  0  0
   -0.4352   35.6556   -4.8118 O   0  0  0  0  0  0  0  0  0  0  0  0
    3.5893   36.5173    0.3279 C   0  0  2  0  0  0  0  0  0  0  0  0
    3.5293   40.1094    0.2571 C   0  0  1  0  0  0  0  0  0  0  0  0
    4.6535   40.2206   -0.6038 N   0  0  0  0  0  0  0  0  0  0  0  0
    0.9556   35.3801   -2.7284 C   0  0  2  0  0  0  0  0  0  0  0  0
    1.7459   36.5831   -2.8889 N   0  0  0  0  0  0  0  0  0  0  0  0
    5.0317   36.2875    0.6937 C   0  0  1  0  0  0  0  0  0  0  0  0
    5.8776   37.1213   -0.1053 O   0  0  0  0  0  0  0  0  0  0  0  0
    2.2496   40.2853   -0.5430 C   0  0  2  0  0  0  0  0  0  0  0  0
    2.2303   41.5531   -1.1619 O   0  0  0  0  0  0  0  0  0  0  0  0
    1.7870   34.3545   -2.0024 C   0  0  1  0  0  0  0  0  0  0  0  0
    2.0620   34.9490   -0.7035 O   0  0  0  0  0  0  0  0  0  0  0  0
    5.2716   34.8623    0.3565 C   0  0  1  0  0  0  0  0  0  0  0  0
    4.3646   34.5195   -0.6938 O   0  0  0  0  0  0  0  0  0  0  0  0
    1.0872   40.1551    0.4414 C   0  0  1  0  0  0  0  0  0  0  0  0
   -0.1515   40.3026   -0.2351 O   0  0  0  0  0  0  0  0  0  0  0  0
    0.9395   33.0855   -1.7168 C   0  0  2  0  0  0  0  0  0  0  0  0
    1.7362   32.1394   -1.0209 O   0  0  0  0  0  0  0  0  0  0  0  0
    1.1569   38.7827    1.1117 C   0  0  1  0  0  0  0  0  0  0  0  0
    2.4031   38.6359    1.7906 O   0  0  0  0  0  0  0  0  0  0  0  0
    0.4670   32.4747   -3.0502 C   0  0  1  0  0  0  0  0  0  0  0  0
   -0.3171   31.3014   -2.8038 O   0  0  0  0  0  0  0  0  0  0  0  0
    0.0136   38.6644    2.1198 C   0  0  0  0  0  0  0  0  0  0  0  0
   -1.2183   38.5914    1.4202 O   0  0  0  0  0  0  0  0  0  0  0  0
    0.4633   33.8100   -6.7552 N   0  0  0  0  0  0  0  0  0  0  0  0
    0.4508   37.9806   -1.9606 N   0  0  0  0  0  0  0  0  0  0  0  0
  1  2  1  0  0  0  0
  1 39  1  0  0  0  0
  3  4  1  0  0  0  0
  5  6  1  0  0  0  0
  5 40  1  0  0  0  0
  9 10  1  6  0  0  0
  9 14  1  0  0  0  0
  9 35  1  0  0  0  0
 10  1  1  0  0  0  0
 11 16  1  0  0  0  0
 11 28  1  0  0  0  0
 11 26  1  1  0  0  0
 12 17  1  0  0  0  0
 12 34  1  0  0  0  0
 12 13  1  6  0  0  0
 14 15  1  1  0  0  0
 14 19  1  0  0  0  0
 16 13  1  6  0  0  0
 16 21  1  0  0  0  0
 17 18  1  6  0  0  0
 17 23  1  0  0  0  0
 18  8  1  0  0  0  0
 19 20  1  6  0  0  0
 19 25  1  0  0  0  0
 20  5  1  0  0  0  0
 21  3  1  1  0  0  0
 21 22  1  0  0  0  0
 21 27  1  0  0  0  0
 23 24  1  1  0  0  0
 23 29  1  0  0  0  0
 25 26  1  1  0  0  0
 25 31  1  0  0  0  0
 27  7  1  6  0  0  0
 27 28  1  0  0  0  0
 29 30  1  6  0  0  0
 29 33  1  0  0  0  0
 31 32  1  6  0  0  0
 31 35  1  0  0  0  0
 33 34  1  0  0  0  0
 33 37  1  1  0  0  0
 35 36  1  1  0  0  0
 37 38  1  0  0  0  0
M  END
>  <CHROM.1>
46.08925287,96.16259563,163.28020980,168.91050222,176.38816093,-81.27986105
83.65824178,-106.26662005,65.56870898,-97.48360475,69.28017582,2.12689718
36.39163264,-1.27306716,2.06016753,0.66372658,-2.74630710

>  <Name>
1ntb_lig

>  <RI>
0

>  <Rbt.Current_Directory>
/home/itssahil/PROJECTS/Mol_Feturizer/New_Systems/rnas/1ntb

>  <Rbt.Executable>
rbdock ($Id: //depot/dev/client3/rdock/2013.1/src/exe/rbdock.cxx#4 $)

>  <Rbt.Library>
libRbt.so (2013.1, Build901 2013/11/27)

>  <Rbt.Parameter_File>
/export/apps/rDock/src/rDock_2013.1_src/data/scripts/dock_solv.prm

>  <Rbt.Receptor>
prm/pocket_docking_5.prm

>  <SCORE>
-13.581

>  <SCORE.INTER>
-4.60526

>  <SCORE.INTER.CONST>
1

>  <SCORE.INTER.POLAR>
-0.72111

>  <SCORE.INTER.ROT>
11

>  <SCORE.INTER.SOLV>
18.8957

>  <SCORE.INTER.VDW>
-17.8984

>  <SCORE.INTER.norm>
-0.115131

>  <SCORE.INTRA>
-8.97574

>  <SCORE.INTRA.DIHEDRAL>
-5.9778

>  <SCORE.INTRA.DIHEDRAL.0>
15.4453

>  <SCORE.INTRA.POLAR>
0

>  <SCORE.INTRA.POLAR.0>
0

>  <SCORE.INTRA.REPUL>
-0.823272

>  <SCORE.INTRA.REPUL.0>
0.823958

>  <SCORE.INTRA.SOLV>
5.12316

>  <SCORE.INTRA.SOLV.lig_0>
-99.3069

>  <SCORE.INTRA.VDW>
-4.43206

>  <SCORE.INTRA.VDW.0>
0.946495

>  <SCORE.INTRA.norm>
-0.224393

>  <SCORE.RESTR>
0

>  <SCORE.RESTR.CAVITY>
0

>  <SCORE.RESTR.norm>
0

>  <SCORE.SYSTEM>
0

>  <SCORE.SYSTEM.CONST>
0

>  <SCORE.SYSTEM.DIHEDRAL>
0

>  <SCORE.SYSTEM.SOLV>
0

>  <SCORE.SYSTEM.norm>
0

>  <SCORE.heavy>
40

>  <SCORE.norm>
-0.339525

>  <RMSD>
6.599

$$$$
1ntb_lig
 OpenBabel11021811403D
libRbt.so/2013.1/901 2013/11/27
 40 42  0  0  0  0  0  0  0  0999 V2000
    1.6460   42.8668   -5.3198 C   0  0  0  0  0  0  0  0  0  0  0  0
    2.4988   43.7558   -4.9846 N   0  0  0  0  0  0  0  0  0  0  0  0
    1.0358   32.3697   -2.2395 C   0  0  0  0  0  0  0  0  0  0  0  0
    0.2479   32.3776   -3.4183 O   0  0  0  0  0  0  0  0  0  0  0  0
    1.9030   38.8217   -0.8471 C   0  0  0  0  0  0  0  0  0  0  0  0
    0.8076   38.5672   -0.2247 N   0  0  0  0  0  0  0  0  0  0  0  0
    3.9098   33.7369   -2.9107 C   0  0  0  0  0  0  0  0  0  0  0  0
    0.3575   33.5342    2.9631 C   0  0  0  0  0  0  0  0  0  0  0  0
    1.3902   40.5626   -4.8827 C   0  0  2  0  0  0  0  0  0  0  0  0
    2.1406   41.6731   -5.5858 N   0  0  0  0  0  0  0  0  0  0  0  0
    1.2785   36.0312   -2.5015 C   0  0  2  0  0  0  0  0  0  0  0  0
   -0.6544   34.0624   -0.1566 C   0  0  1  0  0  0  0  0  0  0  0  0
    0.1942   35.0740   -0.6671 O   0  0  0  0  0  0  0  0  0  0  0  0
    2.2129   39.9887   -3.7343 C   0  0  1  0  0  0  0  0  0  0  0  0
    2.4925   41.1564   -2.8454 O   0  0  0  0  0  0  0  0  0  0  0  0
    0.5691   34.8116   -1.9420 C   0  0  2  0  0  0  0  0  0  0  0  0
   -1.1237   34.4728    1.2182 C   0  0  1  0  0  0  0  0  0  0  0  0
   -0.0081   34.6103    2.0865 N   0  0  0  0  0  0  0  0  0  0  0  0
    1.5091   38.8422   -3.0114 C   0  0  2  0  0  0  0  0  0  0  0  0
    2.2459   38.2627   -1.9073 N   0  0  0  0  0  0  0  0  0  0  0  0
    1.6260   33.7412   -2.0082 C   0  0  1  0  0  0  0  0  0  0  0  0
    2.4022   33.7453   -0.8055 O   0  0  0  0  0  0  0  0  0  0  0  0
   -1.8419   35.8054    1.0888 C   0  0  2  0  0  0  0  0  0  0  0  0
   -2.2944   36.2417    2.3520 O   0  0  0  0  0  0  0  0  0  0  0  0
    1.2275   37.7588   -4.0200 C   0  0  1  0  0  0  0  0  0  0  0  0
    0.3949   36.7981   -3.3127 O   0  0  0  0  0  0  0  0  0  0  0  0
    2.4788   34.1401   -3.1554 C   0  0  1  0  0  0  0  0  0  0  0  0
    2.3836   35.5612   -3.2768 O   0  0  0  0  0  0  0  0  0  0  0  0
   -3.0251   35.5842    0.1461 C   0  0  1  0  0  0  0  0  0  0  0  0
   -3.7473   36.7928   -0.0316 O   0  0  0  0  0  0  0  0  0  0  0  0
    0.3471   38.3166   -5.1706 C   0  0  2  0  0  0  0  0  0  0  0  0
    0.0822   37.2780   -6.1008 O   0  0  0  0  0  0  0  0  0  0  0  0
   -2.4993   35.0862   -1.2005 C   0  0  1  0  0  0  0  0  0  0  0  0
   -1.7729   33.8718   -1.0198 O   0  0  0  0  0  0  0  0  0  0  0  0
    1.0967   39.4606   -5.8804 C   0  0  1  0  0  0  0  0  0  0  0  0
    0.2969   39.9866   -6.9461 O   0  0  0  0  0  0  0  0  0  0  0  0
   -3.6843   34.8341   -2.1330 C   0  0  0  0  0  0  0  0  0  0  0  0
   -3.2026   34.3609   -3.3806 O   0  0  0  0  0  0  0  0  0  0  0  0
    0.3881   43.1192   -5.4184 N   0  0  0  0  0  0  0  0  0  0  0  0
    2.6579   39.7109   -0.4156 N   0  0  0  0  0  0  0  0  0  0  0  0
  1  2  1  0  0  0  0
  1 39  1  0  0  0  0
  3  4  1  0  0  0  0
  5  6  1  0  0  0  0
  5 40  1  0  0  0  0
  9 10  1  6  0  0  0
  9 14  1  0  0  0  0
  9 35  1  0  0  0  0
 10  1  1  0  0  0  0
 11 16  1  0  0  0  0
 11 28  1  0  0  0  0
 11 26  1  6  0  0  0
 12 17  1  0  0  0  0
 12 34  1  0  0  0  0
 12 13  1  6  0  0  0
 14 15  1  1  0  0  0
 14 19  1  0  0  0  0
 16 13  1  1  0  0  0
 16 21  1  0  0  0  0
 17 18  1  1  0  0  0
 17 23  1  0  0  0  0
 18  8  1  0  0  0  0
 19 20  1  1  0  0  0
 19 25  1  0  0  0  0
 20  5  1  0  0  0  0
 21  3  1  6  0  0  0
 21 22  1  0  0  0  0
 21 27  1  0  0  0  0
 23 24  1  1  0  0  0
 23 29  1  0  0  0  0
 25 26  1  1  0  0  0
 25 31  1  0  0  0  0
 27  7  1  1  0  0  0
 27 28  1  0  0  0  0
 29 30  1  6  0  0  0
 29 33  1  0  0  0  0
 31 32  1  6  0  0  0
 31 35  1  0  0  0  0
 33 34  1  0  0  0  0
 33 37  1  6  0  0  0
 35 36  1  6  0  0  0
 37 38  1  0  0  0  0
M  END
>  <CHROM.1>
-107.08674862,131.71283185,-168.04037101,-175.37239231,170.73440449,-97.29871619
93.51023462,77.57958432,56.11037935,-78.74437248,-179.51049117,0.42444025
36.89840838,-2.28477911,1.06305041,0.96726472,-0.17699373

>  <Name>
1ntb_lig

>  <RI>
0

>  <Rbt.Current_Directory>
/home/itssahil/PROJECTS/Mol_Feturizer/New_Systems/rnas/1ntb

>  <Rbt.Executable>
rbdock ($Id: //depot/dev/client3/rdock/2013.1/src/exe/rbdock.cxx#4 $)

>  <Rbt.Library>
libRbt.so (2013.1, Build901 2013/11/27)

>  <Rbt.Parameter_File>
/export/apps/rDock/src/rDock_2013.1_src/data/scripts/dock_solv.prm

>  <Rbt.Receptor>
prm/pocket_docking_5.prm

>  <SCORE>
-16.8249

>  <SCORE.INTER>
-5.69387

>  <SCORE.INTER.CONST>
1

>  <SCORE.INTER.POLAR>
-0.964605

>  <SCORE.INTER.ROT>
11

>  <SCORE.INTER.SOLV>
8.74651

>  <SCORE.INTER.VDW>
-14.4294

>  <SCORE.INTER.norm>
-0.142347

>  <SCORE.INTRA>
-11.1311

>  <SCORE.INTRA.DIHEDRAL>
-8.70428

>  <SCORE.INTRA.DIHEDRAL.0>
15.4453

>  <SCORE.INTRA.POLAR>
0

>  <SCORE.INTRA.POLAR.0>
0

>  <SCORE.INTRA.REPUL>
-0.823958

>  <SCORE.INTRA.REPUL.0>
0.823958

>  <SCORE.INTRA.SOLV>
-0.578335

>  <SCORE.INTRA.SOLV.lig_0>
-99.3069

>  <SCORE.INTRA.VDW>
-2.36999

>  <SCORE.INTRA.VDW.0>
0.946495

>  <SCORE.INTRA.norm>
-0.278277

>  <SCORE.RESTR>
0

>  <SCORE.RESTR.CAVITY>
0

>  <SCORE.RESTR.norm>
0

>  <SCORE.SYSTEM>
0

>  <SCORE.SYSTEM.CONST>
0

>  <SCORE.SYSTEM.DIHEDRAL>
0

>  <SCORE.SYSTEM.SOLV>
0

>  <SCORE.SYSTEM.norm>
0

>  <SCORE.heavy>
40

>  <SCORE.norm>
-0.420624

>  <RMSD>
6.616

$$$$
1ntb_lig
 OpenBabel11021811403D
libRbt.so/2013.1/901 2013/11/27
 40 42  0  0  0  0  0  0  0  0999 V2000
   -1.2264   30.6949   -4.1880 C   0  0  0  0  0  0  0  0  0  0  0  0
   -0.8344   30.3278   -5.3463 N   0  0  0  0  0  0  0  0  0  0  0  0
    2.3793   38.5775    1.1564 C   0  0  0  0  0  0  0  0  0  0  0  0
    1.5198   37.9105    2.0656 O   0  0  0  0  0  0  0  0  0  0  0  0
   -0.6523   33.1157    1.4601 C   0  0  0  0  0  0  0  0  0  0  0  0
    0.1071   32.4739    2.2746 N   0  0  0  0  0  0  0  0  0  0  0  0
    5.4081   37.4261    1.4409 C   0  0  0  0  0  0  0  0  0  0  0  0
    2.9458   40.4826   -2.8546 C   0  0  0  0  0  0  0  0  0  0  0  0
   -0.0530   32.2087   -2.8105 C   0  0  2  0  0  0  0  0  0  0  0  0
   -1.0661   31.9745   -3.9104 N   0  0  0  0  0  0  0  0  0  0  0  0
    3.2067   35.2927   -0.2789 C   0  0  2  0  0  0  0  0  0  0  0  0
    1.1632   37.9569   -1.6488 C   0  0  1  0  0  0  0  0  0  0  0  0
    2.0572   36.8619   -1.5726 O   0  0  0  0  0  0  0  0  0  0  0  0
   -0.6812   32.9544   -1.6383 C   0  0  1  0  0  0  0  0  0  0  0  0
   -1.8218   32.0922   -1.2056 O   0  0  0  0  0  0  0  0  0  0  0  0
    2.3311   36.5325   -0.2875 C   0  0  2  0  0  0  0  0  0  0  0  0
    1.3240   38.6199   -2.9953 C   0  0  1  0  0  0  0  0  0  0  0  0
    2.6508   39.1066   -3.1369 N   0  0  0  0  0  0  0  0  0  0  0  0
    0.3113   33.2416   -0.5135 C   0  0  2  0  0  0  0  0  0  0  0  0
   -0.2352   33.9453    0.6283 N   0  0  0  0  0  0  0  0  0  0  0  0
    3.1949   37.5657    0.3858 C   0  0  1  0  0  0  0  0  0  0  0  0
    4.0104   38.2295   -0.5855 O   0  0  0  0  0  0  0  0  0  0  0  0
    1.0410   37.5794   -4.0658 C   0  0  2  0  0  0  0  0  0  0  0  0
    1.1876   38.1462   -5.3495 O   0  0  0  0  0  0  0  0  0  0  0  0
    1.4391   34.0608   -1.0856 C   0  0  1  0  0  0  0  0  0  0  0  0
    2.4277   34.1294   -0.0207 O   0  0  0  0  0  0  0  0  0  0  0  0
    4.0534   36.7802    1.3070 C   0  0  1  0  0  0  0  0  0  0  0  0
    4.1870   35.4724    0.7458 O   0  0  0  0  0  0  0  0  0  0  0  0
   -0.3962   37.1025   -3.8548 C   0  0  1  0  0  0  0  0  0  0  0  0
   -0.7362   36.1181   -4.8187 O   0  0  0  0  0  0  0  0  0  0  0  0
    2.1214   33.2910   -2.2485 C   0  0  2  0  0  0  0  0  0  0  0  0
    3.1882   34.0729   -2.7629 O   0  0  0  0  0  0  0  0  0  0  0  0
   -0.5236   36.5214   -2.4463 C   0  0  1  0  0  0  0  0  0  0  0  0
   -0.1805   37.5121   -1.4787 O   0  0  0  0  0  0  0  0  0  0  0  0
    1.0916   33.0323   -3.3651 C   0  0  1  0  0  0  0  0  0  0  0  0
    1.7062   32.3222   -4.4468 O   0  0  0  0  0  0  0  0  0  0  0  0
   -1.9684   36.0738   -2.2232 C   0  0  0  0  0  0  0  0  0  0  0  0
   -2.0991   35.5614   -0.9069 O   0  0  0  0  0  0  0  0  0  0  0  0
   -1.7225   29.8704   -3.3337 N   0  0  0  0  0  0  0  0  0  0  0  0
   -1.8723   32.8748    1.4445 N   0  0  0  0  0  0  0  0  0  0  0  0
  1  2  1  0  0  0  0
  1 39  1  0  0  0  0
  3  4  1  0  0  0  0
  5  6  1  0  0  0  0
  5 40  1  0  0  0  0
  9 10  1  6  0  0  0
  9 14  1  0  0  0  0
  9 35  1  0  0  0  0
 10  1  1  0  0  0  0
 11 16  1  0  0  0  0
 11 28  1  0  0  0  0
 11 26  1  1  0  0  0
 12 17  1  0  0  0  0
 12 34  1  0  0  0  0
 12 13  1  6  0  0  0
 14 15  1  1  0  0  0
 14 19  1  0  0  0  0
 16 13  1  6  0  0  0
 16 21  1  0  0  0  0
 17 18  1  6  0  0  0
 17 23  1  0  0  0  0
 18  8  1  0  0  0  0
 19 20  1  1  0  0  0
 19 25  1  0  0  0  0
 20  5  1  0  0  0  0
 21  3  1  1  0  0  0
 21 22  1  0  0  0  0
 21 27  1  0  0  0  0
 23 24  1  6  0  0  0
 23 29  1  0  0  0  0
 25 26  1  1  0  0  0
 25 31  1  0  0  0  0
 27  7  1  6  0  0  0
 27 28  1  0  0  0  0
 29 30  1  6  0  0  0
 29 33  1  0  0  0  0
 31 32  1  6  0  0  0
 31 35  1  0  0  0  0
 33 34  1  0  0  0  0
 33 37  1  1  0  0  0
 35 36  1  6  0  0  0
 37 38  1  0  0  0  0
M  END
>  <CHROM.1>
-121.35141739,-113.50514115,59.54783271,157.46406055,175.78649738,-96.89761390
90.56432845,79.02250875,53.99124618,-156.48919654,-178.69949002,0.99329280
35.23666243,-1.56466271,2.89229924,1.03065729,2.19125487

>  <Name>
1ntb_lig

>  <RI>
0

>  <Rbt.Current_Directory>
/home/itssahil/PROJECTS/Mol_Feturizer/New_Systems/rnas/1ntb

>  <Rbt.Executable>
rbdock ($Id: //depot/dev/client3/rdock/2013.1/src/exe/rbdock.cxx#4 $)

>  <Rbt.Library>
libRbt.so (2013.1, Build901 2013/11/27)

>  <Rbt.Parameter_File>
/export/apps/rDock/src/rDock_2013.1_src/data/scripts/dock_solv.prm

>  <Rbt.Receptor>
prm/pocket_docking_4.prm

>  <SCORE>
-19.8665

>  <SCORE.INTER>
-5.28835

>  <SCORE.INTER.CONST>
1

>  <SCORE.INTER.POLAR>
-0.953242

>  <SCORE.INTER.ROT>
11

>  <SCORE.INTER.SOLV>
18.0478

>  <SCORE.INTER.VDW>
-17.2974

>  <SCORE.INTER.norm>
-0.132209

>  <SCORE.INTRA>
-14.5781

>  <SCORE.INTRA.DIHEDRAL>
-6.75225

>  <SCORE.INTRA.DIHEDRAL.0>
15.4453

>  <SCORE.INTRA.POLAR>
0

>  <SCORE.INTRA.POLAR.0>
0

>  <SCORE.INTRA.REPUL>
-0.810847

>  <SCORE.INTRA.REPUL.0>
0.823958

>  <SCORE.INTRA.SOLV>
0.285417

>  <SCORE.INTRA.SOLV.lig_0>
-99.3069

>  <SCORE.INTRA.VDW>
-7.29046

>  <SCORE.INTRA.VDW.0>
0.946495

>  <SCORE.INTRA.norm>
-0.364453

>  <SCORE.RESTR>
0

>  <SCORE.RESTR.CAVITY>
0

>  <SCORE.RESTR.norm>
0

>  <SCORE.SYSTEM>
0

>  <SCORE.SYSTEM.CONST>
0

>  <SCORE.SYSTEM.DIHEDRAL>
0

>  <SCORE.SYSTEM.SOLV>
0

>  <SCORE.SYSTEM.norm>
0

>  <SCORE.heavy>
40

>  <SCORE.norm>
-0.496662

>  <RMSD>
6.646

$$$$
1ntb_lig
 OpenBabel11021811403D
libRbt.so/2013.1/901 2013/11/27
 40 42  0  0  0  0  0  0  0  0999 V2000
   -1.3498   30.6491   -4.2212 C   0  0  0  0  0  0  0  0  0  0  0  0
   -0.9087   30.2380   -5.3466 N   0  0  0  0  0  0  0  0  0  0  0  0
    2.4480   38.4016    1.1341 C   0  0  0  0  0  0  0  0  0  0  0  0
    1.5777   37.7321    2.0312 O   0  0  0  0  0  0  0  0  0  0  0  0
   -0.6242   32.8874    1.4215 C   0  0  0  0  0  0  0  0  0  0  0  0
    0.1317   32.1619    2.1660 N   0  0  0  0  0  0  0  0  0  0  0  0
    5.4706   37.2238    1.3724 C   0  0  0  0  0  0  0  0  0  0  0  0
    2.7200   40.3970   -3.5049 C   0  0  0  0  0  0  0  0  0  0  0  0
   -0.0959   32.1259   -2.8748 C   0  0  2  0  0  0  0  0  0  0  0  0
   -1.1360   31.9234   -3.9556 N   0  0  0  0  0  0  0  0  0  0  0  0
    3.2326   35.1246   -0.3424 C   0  0  2  0  0  0  0  0  0  0  0  0
    1.1304   37.7630   -1.6630 C   0  0  1  0  0  0  0  0  0  0  0  0
    2.0807   36.7153   -1.6073 O   0  0  0  0  0  0  0  0  0  0  0  0
   -0.6970   32.8286   -1.6624 C   0  0  1  0  0  0  0  0  0  0  0  0
   -1.8223   31.9463   -1.2299 O   0  0  0  0  0  0  0  0  0  0  0  0
    2.3668   36.3713   -0.3288 C   0  0  2  0  0  0  0  0  0  0  0  0
    1.2619   38.4654   -2.9927 C   0  0  1  0  0  0  0  0  0  0  0  0
    2.5617   39.0247   -3.1152 N   0  0  0  0  0  0  0  0  0  0  0  0
    0.3229   33.0831   -0.5544 C   0  0  2  0  0  0  0  0  0  0  0  0
   -0.1970   33.7452    0.6241 N   0  0  0  0  0  0  0  0  0  0  0  0
    3.2466   37.3910    0.3444 C   0  0  1  0  0  0  0  0  0  0  0  0
    4.0561   38.0578   -0.6299 O   0  0  0  0  0  0  0  0  0  0  0  0
    1.0391   37.4371   -4.0889 C   0  0  2  0  0  0  0  0  0  0  0  0
    1.1612   38.0411   -5.3581 O   0  0  0  0  0  0  0  0  0  0  0  0
    1.4320   33.9269   -1.1274 C   0  0  1  0  0  0  0  0  0  0  0  0
    2.4474   33.9649   -0.0864 O   0  0  0  0  0  0  0  0  0  0  0  0
    4.1093   36.5899    1.2479 C   0  0  1  0  0  0  0  0  0  0  0  0
    4.2261   35.2866    0.6726 O   0  0  0  0  0  0  0  0  0  0  0  0
   -0.3717   36.8801   -3.8973 C   0  0  1  0  0  0  0  0  0  0  0  0
   -0.6548   35.9022   -4.8859 O   0  0  0  0  0  0  0  0  0  0  0  0
    2.0875   33.2001   -2.3325 C   0  0  2  0  0  0  0  0  0  0  0  0
    3.1372   34.0044   -2.8475 O   0  0  0  0  0  0  0  0  0  0  0  0
   -0.4744   36.2598   -2.5035 C   0  0  1  0  0  0  0  0  0  0  0  0
   -0.1886   37.2440   -1.5111 O   0  0  0  0  0  0  0  0  0  0  0  0
    1.0303   32.9736   -3.4304 C   0  0  1  0  0  0  0  0  0  0  0  0
    1.6200   32.3034   -4.5509 O   0  0  0  0  0  0  0  0  0  0  0  0
   -1.8945   35.7314   -2.2993 C   0  0  0  0  0  0  0  0  0  0  0  0
   -2.8075   36.8156   -2.3573 O   0  0  0  0  0  0  0  0  0  0  0  0
   -1.9421   29.8701   -3.3856 N   0  0  0  0  0  0  0  0  0  0  0  0
   -1.8544   32.7064    1.4402 N   0  0  0  0  0  0  0  0  0  0  0  0
  1  2  1  0  0  0  0
  1 39  1  0  0  0  0
  3  4  1  0  0  0  0
  5  6  1  0  0  0  0
  5 40  1  0  0  0  0
  9 10  1  6  0  0  0
  9 14  1  0  0  0  0
  9 35  1  0  0  0  0
 10  1  1  0  0  0  0
 11 16  1  0  0  0  0
 11 28  1  0  0  0  0
 11 26  1  1  0  0  0
 12 17  1  0  0  0  0
 12 34  1  0  0  0  0
 12 13  1  6  0  0  0
 14 15  1  1  0  0  0
 14 19  1  0  0  0  0
 16 13  1  6  0  0  0
 16 21  1  0  0  0  0
 17 18  1  6  0  0  0
 17 23  1  0  0  0  0
 18  8  1  0  0  0  0
 19 20  1  1  0  0  0
 19 25  1  0  0  0  0
 20  5  1  0  0  0  0
 21  3  1  1  0  0  0
 21 22  1  0  0  0  0
 21 27  1  0  0  0  0
 23 24  1  6  0  0  0
 23 29  1  0  0  0  0
 25 26  1  1  0  0  0
 25 31  1  0  0  0  0
 27  7  1  6  0  0  0
 27 28  1  0  0  0  0
 29 30  1  6  0  0  0
 29 33  1  0  0  0  0
 31 32  1  6  0  0  0
 31 35  1  0  0  0  0
 33 34  1  0  0  0  0
 33 37  1  1  0  0  0
 35 36  1  6  0  0  0
 37 38  1  0  0  0  0
M  END
>  <CHROM.1>
-117.92854201,-108.84535774,58.61014464,157.41081361,172.10885375,-130.04031788
88.66968132,76.63856020,53.02963971,-157.72845690,-62.64792668,0.96370786
35.12322183,-1.66449974,2.77406190,0.98581547,2.33792376

>  <Name>
1ntb_lig

>  <RI>
0

>  <Rbt.Current_Directory>
/home/itssahil/PROJECTS/Mol_Feturizer/New_Systems/rnas/1ntb

>  <Rbt.Executable>
rbdock ($Id: //depot/dev/client3/rdock/2013.1/src/exe/rbdock.cxx#4 $)

>  <Rbt.Library>
libRbt.so (2013.1, Build901 2013/11/27)

>  <Rbt.Parameter_File>
/export/apps/rDock/src/rDock_2013.1_src/data/scripts/dock_solv.prm

>  <Rbt.Receptor>
prm/pocket_docking_5.prm

>  <SCORE>
-20.0276

>  <SCORE.INTER>
-5.73717

>  <SCORE.INTER.CONST>
1

>  <SCORE.INTER.POLAR>
-0.998154

>  <SCORE.INTER.ROT>
11

>  <SCORE.INTER.SOLV>
18.6533

>  <SCORE.INTER.VDW>
-17.6487

>  <SCORE.INTER.norm>
-0.143429

>  <SCORE.INTRA>
-14.2904

>  <SCORE.INTRA.DIHEDRAL>
-6.40976

>  <SCORE.INTRA.DIHEDRAL.0>
15.4453

>  <SCORE.INTRA.POLAR>
0

>  <SCORE.INTRA.POLAR.0>
0

>  <SCORE.INTRA.REPUL>
-0.809445

>  <SCORE.INTRA.REPUL.0>
0.823958

>  <SCORE.INTRA.SOLV>
-0.626529

>  <SCORE.INTRA.SOLV.lig_0>
-99.3069

>  <SCORE.INTRA.VDW>
-6.72503

>  <SCORE.INTRA.VDW.0>
0.946495

>  <SCORE.INTRA.norm>
-0.35726

>  <SCORE.RESTR>
0

>  <SCORE.RESTR.CAVITY>
0

>  <SCORE.RESTR.norm>
0

>  <SCORE.SYSTEM>
0

>  <SCORE.SYSTEM.CONST>
0

>  <SCORE.SYSTEM.DIHEDRAL>
0

>  <SCORE.SYSTEM.SOLV>
0

>  <SCORE.SYSTEM.norm>
0

>  <SCORE.heavy>
40

>  <SCORE.norm>
-0.500689

>  <RMSD>
6.662

$$$$
1ntb_lig
 OpenBabel11021811403D
libRbt.so/2013.1/901 2013/11/27
 40 42  0  0  0  0  0  0  0  0999 V2000
    2.3293   43.7695   -3.6746 C   0  0  0  0  0  0  0  0  0  0  0  0
    2.2785   44.5621   -2.6749 N   0  0  0  0  0  0  0  0  0  0  0  0
    0.2614   32.9625   -3.6594 C   0  0  0  0  0  0  0  0  0  0  0  0
    0.0848   33.3843   -5.0015 O   0  0  0  0  0  0  0  0  0  0  0  0
    0.2761   38.9919   -0.2396 C   0  0  0  0  0  0  0  0  0  0  0  0
   -0.9969   38.9195   -0.4017 N   0  0  0  0  0  0  0  0  0  0  0  0
    3.2333   33.9492   -2.7795 C   0  0  0  0  0  0  0  0  0  0  0  0
   -1.7522   32.5241    0.6990 C   0  0  0  0  0  0  0  0  0  0  0  0
    1.9270   41.4515   -3.4995 C   0  0  2  0  0  0  0  0  0  0  0  0
    2.9062   42.6046   -3.4504 N   0  0  0  0  0  0  0  0  0  0  0  0
    0.7895   36.4744   -2.6993 C   0  0  2  0  0  0  0  0  0  0  0  0
   -2.0095   34.3080   -1.9271 C   0  0  1  0  0  0  0  0  0  0  0  0
   -0.9912   35.2793   -1.7732 O   0  0  0  0  0  0  0  0  0  0  0  0
    2.0160   40.6046   -2.2347 C   0  0  1  0  0  0  0  0  0  0  0  0
    1.7383   41.5574   -1.1180 O   0  0  0  0  0  0  0  0  0  0  0  0
   -0.1506   35.2906   -2.8353 C   0  0  2  0  0  0  0  0  0  0  0  0
   -2.8411   34.2751   -0.6677 C   0  0  1  0  0  0  0  0  0  0  0  0
   -2.0273   33.9082    0.4370 N   0  0  0  0  0  0  0  0  0  0  0  0
    1.0664   39.4085   -2.2500 C   0  0  2  0  0  0  0  0  0  0  0  0
    1.1071   38.5718   -1.0685 N   0  0  0  0  0  0  0  0  0  0  0  0
    0.7833   34.1096   -2.8260 C   0  0  1  0  0  0  0  0  0  0  0  0
    1.0098   33.6760   -1.4807 O   0  0  0  0  0  0  0  0  0  0  0  0
   -3.4110   35.6662   -0.4470 C   0  0  2  0  0  0  0  0  0  0  0  0
   -4.1919   35.6941    0.7277 O   0  0  0  0  0  0  0  0  0  0  0  0
    1.4046   38.5608   -3.4488 C   0  0  1  0  0  0  0  0  0  0  0  0
    0.3499   37.5607   -3.5078 O   0  0  0  0  0  0  0  0  0  0  0  0
    2.0456   34.6374   -3.4008 C   0  0  1  0  0  0  0  0  0  0  0  0
    2.0854   36.0374   -3.1153 O   0  0  0  0  0  0  0  0  0  0  0  0
   -4.2719   35.9938   -1.6672 C   0  0  1  0  0  0  0  0  0  0  0  0
   -4.8384   37.2885   -1.5385 O   0  0  0  0  0  0  0  0  0  0  0  0
    1.2689   39.3974   -4.7495 C   0  0  2  0  0  0  0  0  0  0  0  0
    1.5776   38.5773   -5.8659 O   0  0  0  0  0  0  0  0  0  0  0  0
   -3.3999   35.9266   -2.9213 C   0  0  1  0  0  0  0  0  0  0  0  0
   -2.8306   34.6247   -3.0486 O   0  0  0  0  0  0  0  0  0  0  0  0
    2.2499   40.5845   -4.6995 C   0  0  1  0  0  0  0  0  0  0  0  0
    2.1371   41.3671   -5.8940 O   0  0  0  0  0  0  0  0  0  0  0  0
   -4.2674   36.2224   -4.1450 C   0  0  0  0  0  0  0  0  0  0  0  0
   -4.6223   37.5959   -4.1432 O   0  0  0  0  0  0  0  0  0  0  0  0
    1.8723   44.0904   -4.8339 N   0  0  0  0  0  0  0  0  0  0  0  0
    0.7317   39.5566    0.7703 N   0  0  0  0  0  0  0  0  0  0  0  0
  1  2  1  0  0  0  0
  1 39  1  0  0  0  0
  3  4  1  0  0  0  0
  5  6  1  0  0  0  0
  5 40  1  0  0  0  0
  9 10  1  1  0  0  0
  9 14  1  0  0  0  0
  9 35  1  0  0  0  0
 10  1  1  0  0  0  0
 11 16  1  0  0  0  0
 11 28  1  0  0  0  0
 11 26  1  6  0  0  0
 12 17  1  0  0  0  0
 12 34  1  0  0  0  0
 12 13  1  1  0  0  0
 14 15  1  1  0  0  0
 14 19  1  0  0  0  0
 16 13  1  1  0  0  0
 16 21  1  0  0  0  0
 17 18  1  1  0  0  0
 17 23  1  0  0  0  0
 18  8  1  0  0  0  0
 19 20  1  1  0  0  0
 19 25  1  0  0  0  0
 20  5  1  0  0  0  0
 21  3  1  6  0  0  0
 21 22  1  0  0  0  0
 21 27  1  0  0  0  0
 23 24  1  1  0  0  0
 23 29  1  0  0  0  0
 25 26  1  6  0  0  0
 25 31  1  0  0  0  0
 27  7  1  1  0  0  0
 27 28  1  0  0  0  0
 29 30  1  1  0  0  0
 29 33  1  0  0  0  0
 31 32  1  6  0  0  0
 31 35  1  0  0  0  0
 33 34  1  0  0  0  0
 33 37  1  6  0  0  0
 35 36  1  6  0  0  0
 37 38  1  0  0  0  0
M  END
>  <CHROM.1>
-127.04362380,111.59587793,-172.39590685,175.63646078,172.09635333,-82.79916489
90.23801094,68.95284851,59.29578982,-88.49398613,70.87459193,-0.15371804
37.46033331,-2.53746873,1.00707234,0.47163943,0.02930973

>  <Name>
1ntb_lig

>  <RI>
0

>  <Rbt.Current_Directory>
/home/itssahil/PROJECTS/Mol_Feturizer/New_Systems/rnas/1ntb

>  <Rbt.Executable>
rbdock ($Id: //depot/dev/client3/rdock/2013.1/src/exe/rbdock.cxx#4 $)

>  <Rbt.Library>
libRbt.so (2013.1, Build901 2013/11/27)

>  <Rbt.Parameter_File>
/export/apps/rDock/src/rDock_2013.1_src/data/scripts/dock_solv.prm

>  <Rbt.Receptor>
prm/pocket_docking_7.prm

>  <SCORE>
-12.8398

>  <SCORE.INTER>
-0.156924

>  <SCORE.INTER.CONST>
1

>  <SCORE.INTER.POLAR>
-0.566534

>  <SCORE.INTER.ROT>
11

>  <SCORE.INTER.SOLV>
4.93862

>  <SCORE.INTER.VDW>
-10.7957

>  <SCORE.INTER.norm>
-0.00392309

>  <SCORE.INTRA>
-12.6829

>  <SCORE.INTRA.DIHEDRAL>
-7.5262

>  <SCORE.INTRA.DIHEDRAL.0>
15.4453

>  <SCORE.INTRA.POLAR>
0

>  <SCORE.INTRA.POLAR.0>
0

>  <SCORE.INTRA.REPUL>
-0.823958

>  <SCORE.INTRA.REPUL.0>
0.823958

>  <SCORE.INTRA.SOLV>
-1.08766

>  <SCORE.INTRA.SOLV.lig_0>
-99.3069

>  <SCORE.INTRA.VDW>
-4.2562

>  <SCORE.INTRA.VDW.0>
0.946495

>  <SCORE.INTRA.norm>
-0.317073

>  <SCORE.RESTR>
0

>  <SCORE.RESTR.CAVITY>
0

>  <SCORE.RESTR.norm>
0

>  <SCORE.SYSTEM>
0

>  <SCORE.SYSTEM.CONST>
0

>  <SCORE.SYSTEM.DIHEDRAL>
0

>  <SCORE.SYSTEM.SOLV>
0

>  <SCORE.SYSTEM.norm>
0

>  <SCORE.heavy>
40

>  <SCORE.norm>
-0.320996

>  <RMSD>
6.702

$$$$
1ntb_lig
 OpenBabel11021811403D
libRbt.so/2013.1/901 2013/11/27
 40 42  0  0  0  0  0  0  0  0999 V2000
   -1.0039   31.0154   -5.4721 C   0  0  0  0  0  0  0  0  0  0  0  0
   -0.4380   31.2284   -6.5967 N   0  0  0  0  0  0  0  0  0  0  0  0
    3.1487   40.8669   -2.6338 C   0  0  0  0  0  0  0  0  0  0  0  0
    3.1561   42.1542   -3.2279 O   0  0  0  0  0  0  0  0  0  0  0  0
    1.0146   34.2947   -0.9883 C   0  0  0  0  0  0  0  0  0  0  0  0
    0.1805   35.2320   -0.7093 N   0  0  0  0  0  0  0  0  0  0  0  0
    1.4969   40.8208   -5.4355 C   0  0  0  0  0  0  0  0  0  0  0  0
   -1.0625   41.5135    0.9228 C   0  0  0  0  0  0  0  0  0  0  0  0
   -0.3237   33.1483   -4.7279 C   0  0  2  0  0  0  0  0  0  0  0  0
   -1.4029   32.0912   -4.8213 N   0  0  0  0  0  0  0  0  0  0  0  0
    1.2496   37.8562   -3.5631 C   0  0  2  0  0  0  0  0  0  0  0  0
    1.5679   39.4717   -0.3323 C   0  0  1  0  0  0  0  0  0  0  0  0
    1.0135   38.7547   -1.4198 O   0  0  0  0  0  0  0  0  0  0  0  0
    0.2537   33.2169   -3.3184 C   0  0  1  0  0  0  0  0  0  0  0  0
    0.7633   31.8389   -3.0480 O   0  0  0  0  0  0  0  0  0  0  0  0
    1.8574   38.7273   -2.4789 C   0  0  2  0  0  0  0  0  0  0  0  0
    0.5146   39.6164    0.7392 C   0  0  1  0  0  0  0  0  0  0  0  0
   -0.5921   40.3473    0.2308 N   0  0  0  0  0  0  0  0  0  0  0  0
    1.3277   34.2920   -3.1658 C   0  0  2  0  0  0  0  0  0  0  0  0
    1.9138   34.3972   -1.8455 N   0  0  0  0  0  0  0  0  0  0  0  0
    1.9686   40.0734   -3.1442 C   0  0  1  0  0  0  0  0  0  0  0  0
    0.7589   40.8146   -2.9534 O   0  0  0  0  0  0  0  0  0  0  0  0
    0.0669   38.2226    1.1463 C   0  0  2  0  0  0  0  0  0  0  0  0
   -0.9288   38.3004    2.1429 O   0  0  0  0  0  0  0  0  0  0  0  0
    0.7116   35.6198   -3.5230 C   0  0  1  0  0  0  0  0  0  0  0  0
    1.8260   36.5546   -3.5438 O   0  0  0  0  0  0  0  0  0  0  0  0
    2.1392   39.7565   -4.5840 C   0  0  1  0  0  0  0  0  0  0  0  0
    1.5070   38.4955   -4.8155 O   0  0  0  0  0  0  0  0  0  0  0  0
    1.3014   37.4969    1.6819 C   0  0  1  0  0  0  0  0  0  0  0  0
    0.9642   36.1771    2.0798 O   0  0  0  0  0  0  0  0  0  0  0  0
    0.1640   35.5806   -4.9753 C   0  0  2  0  0  0  0  0  0  0  0  0
   -0.3984   36.8435   -5.2960 O   0  0  0  0  0  0  0  0  0  0  0  0
    2.3668   37.4567    0.5860 C   0  0  1  0  0  0  0  0  0  0  0  0
    2.7039   38.7842    0.1866 O   0  0  0  0  0  0  0  0  0  0  0  0
   -0.9229   34.4938   -5.0835 C   0  0  1  0  0  0  0  0  0  0  0  0
   -1.4390   34.4450   -6.4190 O   0  0  0  0  0  0  0  0  0  0  0  0
    3.6134   36.7596    1.1315 C   0  0  0  0  0  0  0  0  0  0  0  0
    4.6148   36.7428    0.1268 O   0  0  0  0  0  0  0  0  0  0  0  0
   -1.1548   29.8326   -4.9884 N   0  0  0  0  0  0  0  0  0  0  0  0
    0.9773   33.2323   -0.3429 N   0  0  0  0  0  0  0  0  0  0  0  0
  1  2  1  0  0  0  0
  1 39  1  0  0  0  0
  3  4  1  0  0  0  0
  5  6  1  0  0  0  0
  5 40  1  0  0  0  0
  9 10  1  1  0  0  0
  9 14  1  0  0  0  0
  9 35  1  0  0  0  0
 10  1  1  0  0  0  0
 11 16  1  0  0  0  0
 11 28  1  0  0  0  0
 11 26  1  6  0  0  0
 12 17  1  0  0  0  0
 12 34  1  0  0  0  0
 12 13  1  6  0  0  0
 14 15  1  6  0  0  0
 14 19  1  0  0  0  0
 16 13  1  1  0  0  0
 16 21  1  0  0  0  0
 17 18  1  6  0  0  0
 17 23  1  0  0  0  0
 18  8  1  0  0  0  0
 19 20  1  1  0  0  0
 19 25  1  0  0  0  0
 20  5  1  0  0  0  0
 21  3  1  1  0  0  0
 21 22  1  0  0  0  0
 21 27  1  0  0  0  0
 23 24  1  1  0  0  0
 23 29  1  0  0  0  0
 25 26  1  6  0  0  0
 25 31  1  0  0  0  0
 27  7  1  6  0  0  0
 27 28  1  0  0  0  0
 29 30  1  6  0  0  0
 29 33  1  0  0  0  0
 31 32  1  1  0  0  0
 31 35  1  0  0  0  0
 33 34  1  0  0  0  0
 33 37  1  1  0  0  0
 35 36  1  6  0  0  0
 37 38  1  0  0  0  0
M  END
>  <CHROM.1>
-106.20125375,-49.15127214,129.14385740,172.75559530,175.63826079,-126.03278944
-41.78598043,-75.58029602,-176.25591443,-166.59631262,-178.87018195,0.89782159
36.71451213,-2.30142962,3.12348990,-1.35261997,-1.07641527

>  <Name>
1ntb_lig

>  <RI>
0

>  <Rbt.Current_Directory>
/home/itssahil/PROJECTS/Mol_Feturizer/New_Systems/rnas/1ntb

>  <Rbt.Executable>
rbdock ($Id: //depot/dev/client3/rdock/2013.1/src/exe/rbdock.cxx#4 $)

>  <Rbt.Library>
libRbt.so (2013.1, Build901 2013/11/27)

>  <Rbt.Parameter_File>
/export/apps/rDock/src/rDock_2013.1_src/data/scripts/dock_solv.prm

>  <Rbt.Receptor>
prm/pocket_docking_4.prm

>  <SCORE>
-9.32235

>  <SCORE.INTER>
-3.43603

>  <SCORE.INTER.CONST>
1

>  <SCORE.INTER.POLAR>
-0.668143

>  <SCORE.INTER.ROT>
11

>  <SCORE.INTER.SOLV>
10.6311

>  <SCORE.INTER.VDW>
-14.5406

>  <SCORE.INTER.norm>
-0.0859007

>  <SCORE.INTRA>
-5.88632

>  <SCORE.INTRA.DIHEDRAL>
-3.16257

>  <SCORE.INTRA.DIHEDRAL.0>
15.4453

>  <SCORE.INTRA.POLAR>
0

>  <SCORE.INTRA.POLAR.0>
0

>  <SCORE.INTRA.REPUL>
-0.81949

>  <SCORE.INTRA.REPUL.0>
0.823958

>  <SCORE.INTRA.SOLV>
3.32244

>  <SCORE.INTRA.SOLV.lig_0>
-99.3069

>  <SCORE.INTRA.VDW>
-1.86881

>  <SCORE.INTRA.VDW.0>
0.946495

>  <SCORE.INTRA.norm>
-0.147158

>  <SCORE.RESTR>
0

>  <SCORE.RESTR.CAVITY>
0

>  <SCORE.RESTR.norm>
0

>  <SCORE.SYSTEM>
0

>  <SCORE.SYSTEM.CONST>
0

>  <SCORE.SYSTEM.DIHEDRAL>
0

>  <SCORE.SYSTEM.SOLV>
0

>  <SCORE.SYSTEM.norm>
0

>  <SCORE.heavy>
40

>  <SCORE.norm>
-0.233059

>  <RMSD>
6.733

$$$$
1ntb_lig
 OpenBabel11021811403D
libRbt.so/2013.1/901 2013/11/27
 40 42  0  0  0  0  0  0  0  0999 V2000
   -1.4755   31.4222   -3.7686 C   0  0  0  0  0  0  0  0  0  0  0  0
   -0.8533   30.4718   -4.3514 N   0  0  0  0  0  0  0  0  0  0  0  0
    2.7818   39.5665    0.8857 C   0  0  0  0  0  0  0  0  0  0  0  0
    1.8559   39.0938    1.8499 O   0  0  0  0  0  0  0  0  0  0  0  0
   -0.7245   34.5858    1.4423 C   0  0  0  0  0  0  0  0  0  0  0  0
   -1.7808   33.8642    1.5673 N   0  0  0  0  0  0  0  0  0  0  0  0
    5.6334   38.0805    1.3761 C   0  0  0  0  0  0  0  0  0  0  0  0
    3.4339   41.0640   -3.0339 C   0  0  0  0  0  0  0  0  0  0  0  0
   -0.0212   32.9343   -2.6895 C   0  0  2  0  0  0  0  0  0  0  0  0
   -0.9177   32.6137   -3.8661 N   0  0  0  0  0  0  0  0  0  0  0  0
    3.2263   36.0917   -0.2382 C   0  0  2  0  0  0  0  0  0  0  0  0
    1.4720   38.7893   -1.8981 C   0  0  1  0  0  0  0  0  0  0  0  0
    2.3169   37.6709   -1.6998 O   0  0  0  0  0  0  0  0  0  0  0  0
   -0.7021   33.9065   -1.7324 C   0  0  1  0  0  0  0  0  0  0  0  0
   -1.9678   33.2221   -1.3308 O   0  0  0  0  0  0  0  0  0  0  0  0
    2.5140   37.4243   -0.3826 C   0  0  2  0  0  0  0  0  0  0  0  0
    1.6953   39.3232   -3.2923 C   0  0  1  0  0  0  0  0  0  0  0  0
    3.0446   39.7425   -3.4368 N   0  0  0  0  0  0  0  0  0  0  0  0
    0.1765   34.2850   -0.5419 C   0  0  2  0  0  0  0  0  0  0  0  0
   -0.4244   35.2042    0.4024 N   0  0  0  0  0  0  0  0  0  0  0  0
    3.4833   38.3984    0.2329 C   0  0  1  0  0  0  0  0  0  0  0  0
    4.4006   38.8690   -0.7602 O   0  0  0  0  0  0  0  0  0  0  0  0
    1.3966   38.2038   -4.2753 C   0  0  2  0  0  0  0  0  0  0  0  0
    1.6000   38.6481   -5.5989 O   0  0  0  0  0  0  0  0  0  0  0  0
    1.4414   34.9060   -1.0755 C   0  0  1  0  0  0  0  0  0  0  0  0
    2.3008   35.0602    0.0881 O   0  0  0  0  0  0  0  0  0  0  0  0
    4.2121   37.5970    1.2474 C   0  0  1  0  0  0  0  0  0  0  0  0
    4.1947   36.2385    0.8030 O   0  0  0  0  0  0  0  0  0  0  0  0
   -0.0643   37.8048   -4.0657 C   0  0  1  0  0  0  0  0  0  0  0  0
   -0.4204   36.7529   -4.9491 O   0  0  0  0  0  0  0  0  0  0  0  0
    2.1722   33.9071   -2.0128 C   0  0  2  0  0  0  0  0  0  0  0  0
    3.3663   34.5056   -2.4923 O   0  0  0  0  0  0  0  0  0  0  0  0
   -0.2524   37.3565   -2.6160 C   0  0  1  0  0  0  0  0  0  0  0  0
    0.1068   38.4149   -1.7293 O   0  0  0  0  0  0  0  0  0  0  0  0
    1.2586   33.5611   -3.2044 C   0  0  1  0  0  0  0  0  0  0  0  0
    1.9192   32.6393   -4.0798 O   0  0  0  0  0  0  0  0  0  0  0  0
   -1.7200   36.9881   -2.3972 C   0  0  0  0  0  0  0  0  0  0  0  0
   -1.9623   36.8468   -1.0066 O   0  0  0  0  0  0  0  0  0  0  0  0
   -2.5623   31.2321   -3.1065 N   0  0  0  0  0  0  0  0  0  0  0  0
    0.0320   34.7348    2.4182 N   0  0  0  0  0  0  0  0  0  0  0  0
  1  2  1  0  0  0  0
  1 39  1  0  0  0  0
  3  4  1  0  0  0  0
  5  6  1  0  0  0  0
  5 40  1  0  0  0  0
  9 10  1  6  0  0  0
  9 14  1  0  0  0  0
  9 35  1  0  0  0  0
 10  1  1  0  0  0  0
 11 16  1  0  0  0  0
 11 28  1  0  0  0  0
 11 26  1  1  0  0  0
 12 17  1  0  0  0  0
 12 34  1  0  0  0  0
 12 13  1  6  0  0  0
 14 15  1  1  0  0  0
 14 19  1  0  0  0  0
 16 13  1  6  0  0  0
 16 21  1  0  0  0  0
 17 18  1  1  0  0  0
 17 23  1  0  0  0  0
 18  8  1  0  0  0  0
 19 20  1  1  0  0  0
 19 25  1  0  0  0  0
 20  5  1  0  0  0  0
 21  3  1  1  0  0  0
 21 22  1  0  0  0  0
 21 27  1  0  0  0  0
 23 24  1  6  0  0  0
 23 29  1  0  0  0  0
 25 26  1  1  0  0  0
 25 31  1  0  0  0  0
 27  7  1  6  0  0  0
 27 28  1  0  0  0  0
 29 30  1  6  0  0  0
 29 33  1  0  0  0  0
 31 32  1  6  0  0  0
 31 35  1  0  0  0  0
 33 34  1  0  0  0  0
 33 37  1  6  0  0  0
 35 36  1  6  0  0  0
 37 38  1  0  0  0  0
M  END
>  <CHROM.1>
-103.61733936,-93.97066498,66.52094431,159.13679484,170.61182823,-85.54949299
106.91546181,-80.06091026,56.06030139,-156.92255857,-167.73830892,1.12662247
36.08214653,-1.58669982,2.98889525,0.98736014,2.05266472

>  <Name>
1ntb_lig

>  <RI>
0

>  <Rbt.Current_Directory>
/home/itssahil/PROJECTS/Mol_Feturizer/New_Systems/rnas/1ntb

>  <Rbt.Executable>
rbdock ($Id: //depot/dev/client3/rdock/2013.1/src/exe/rbdock.cxx#4 $)

>  <Rbt.Library>
libRbt.so (2013.1, Build901 2013/11/27)

>  <Rbt.Parameter_File>
/export/apps/rDock/src/rDock_2013.1_src/data/scripts/dock_solv.prm

>  <Rbt.Receptor>
prm/pocket_docking_4.prm

>  <SCORE>
-18.7646

>  <SCORE.INTER>
-3.92268

>  <SCORE.INTER.CONST>
1

>  <SCORE.INTER.POLAR>
-0.675236

>  <SCORE.INTER.ROT>
11

>  <SCORE.INTER.SOLV>
13.1935

>  <SCORE.INTER.VDW>
-15.6955

>  <SCORE.INTER.norm>
-0.098067

>  <SCORE.INTRA>
-14.8419

>  <SCORE.INTRA.DIHEDRAL>
-6.07321

>  <SCORE.INTRA.DIHEDRAL.0>
15.4453

>  <SCORE.INTRA.POLAR>
0

>  <SCORE.INTRA.POLAR.0>
0

>  <SCORE.INTRA.REPUL>
-0.807733

>  <SCORE.INTRA.REPUL.0>
0.823958

>  <SCORE.INTRA.SOLV>
0.199107

>  <SCORE.INTRA.SOLV.lig_0>
-99.3069

>  <SCORE.INTRA.VDW>
-7.8662

>  <SCORE.INTRA.VDW.0>
0.946495

>  <SCORE.INTRA.norm>
-0.371048

>  <SCORE.RESTR>
0

>  <SCORE.RESTR.CAVITY>
0

>  <SCORE.RESTR.norm>
0

>  <SCORE.SYSTEM>
0

>  <SCORE.SYSTEM.CONST>
0

>  <SCORE.SYSTEM.DIHEDRAL>
0

>  <SCORE.SYSTEM.SOLV>
0

>  <SCORE.SYSTEM.norm>
0

>  <SCORE.heavy>
40

>  <SCORE.norm>
-0.469115

>  <RMSD>
6.747

$$$$
1ntb_lig
 OpenBabel11021811403D
libRbt.so/2013.1/901 2013/11/27
 40 42  0  0  0  0  0  0  0  0999 V2000
   -1.1862   31.4069   -4.3136 C   0  0  0  0  0  0  0  0  0  0  0  0
   -1.1147   30.2607   -3.7557 N   0  0  0  0  0  0  0  0  0  0  0  0
    3.4000   41.3384   -2.9591 C   0  0  0  0  0  0  0  0  0  0  0  0
    3.3023   41.5662   -1.5631 O   0  0  0  0  0  0  0  0  0  0  0  0
    3.5628   34.3791   -1.9459 C   0  0  0  0  0  0  0  0  0  0  0  0
    4.4430   34.1244   -2.8473 N   0  0  0  0  0  0  0  0  0  0  0  0
    1.5871   41.4322   -5.6581 C   0  0  0  0  0  0  0  0  0  0  0  0
    5.1581   38.5258   -0.0446 C   0  0  0  0  0  0  0  0  0  0  0  0
   -0.1806   33.5012   -3.9030 C   0  0  2  0  0  0  0  0  0  0  0  0
   -1.1811   32.4412   -3.4949 N   0  0  0  0  0  0  0  0  0  0  0  0
    1.4441   38.3765   -3.9266 C   0  0  2  0  0  0  0  0  0  0  0  0
    1.6384   38.0535   -0.9083 C   0  0  1  0  0  0  0  0  0  0  0  0
    1.3353   39.1654   -1.7305 O   0  0  0  0  0  0  0  0  0  0  0  0
    0.7637   33.8332   -2.7529 C   0  0  1  0  0  0  0  0  0  0  0  0
    1.4059   32.5315   -2.3993 O   0  0  0  0  0  0  0  0  0  0  0  0
    2.1159   39.1924   -2.8372 C   0  0  2  0  0  0  0  0  0  0  0  0
    2.6889   38.4653    0.0944 C   0  0  1  0  0  0  0  0  0  0  0  0
    3.8716   38.8639   -0.5837 N   0  0  0  0  0  0  0  0  0  0  0  0
    1.7748   34.9219   -3.1069 C   0  0  2  0  0  0  0  0  0  0  0  0
    2.7004   35.2732   -2.0498 N   0  0  0  0  0  0  0  0  0  0  0  0
    2.1906   40.5705   -3.4391 C   0  0  1  0  0  0  0  0  0  0  0  0
    0.9955   41.2998   -3.1406 O   0  0  0  0  0  0  0  0  0  0  0  0
    2.1380   39.6321    0.8966 C   0  0  2  0  0  0  0  0  0  0  0  0
    3.0879   40.0647    1.8459 O   0  0  0  0  0  0  0  0  0  0  0  0
    1.0090   36.1575   -3.5028 C   0  0  1  0  0  0  0  0  0  0  0  0
    2.0181   37.0762   -4.0068 O   0  0  0  0  0  0  0  0  0  0  0  0
    2.2761   40.3269   -4.9005 C   0  0  1  0  0  0  0  0  0  0  0  0
    1.6291   39.0786   -5.1580 O   0  0  0  0  0  0  0  0  0  0  0  0
    0.8736   39.1339    1.5968 C   0  0  1  0  0  0  0  0  0  0  0  0
    0.2929   40.1750    2.3667 O   0  0  0  0  0  0  0  0  0  0  0  0
    0.0797   35.8466   -4.7070 C   0  0  2  0  0  0  0  0  0  0  0  0
   -0.6207   37.0256   -5.0723 O   0  0  0  0  0  0  0  0  0  0  0  0
   -0.1193   38.6485    0.5402 C   0  0  1  0  0  0  0  0  0  0  0  0
    0.4665   37.6026   -0.2333 O   0  0  0  0  0  0  0  0  0  0  0  0
   -0.9307   34.7547   -4.3053 C   0  0  1  0  0  0  0  0  0  0  0  0
   -1.7967   34.4561   -5.4068 O   0  0  0  0  0  0  0  0  0  0  0  0
   -1.3710   38.1202    1.2415 C   0  0  0  0  0  0  0  0  0  0  0  0
   -2.2909   37.6572    0.2658 O   0  0  0  0  0  0  0  0  0  0  0  0
   -1.2830   31.5491   -5.5888 N   0  0  0  0  0  0  0  0  0  0  0  0
    3.5138   33.6724   -0.9237 N   0  0  0  0  0  0  0  0  0  0  0  0
  1  2  1  0  0  0  0
  1 39  1  0  0  0  0
  3  4  1  0  0  0  0
  5  6  1  0  0  0  0
  5 40  1  0  0  0  0
  9 10  1  1  0  0  0
  9 14  1  0  0  0  0
  9 35  1  0  0  0  0
 10  1  1  0  0  0  0
 11 16  1  0  0  0  0
 11 28  1  0  0  0  0
 11 26  1  6  0  0  0
 12 17  1  0  0  0  0
 12 34  1  0  0  0  0
 12 13  1  6  0  0  0
 14 15  1  6  0  0  0
 14 19  1  0  0  0  0
 16 13  1  1  0  0  0
 16 21  1  0  0  0  0
 17 18  1  6  0  0  0
 17 23  1  0  0  0  0
 18  8  1  0  0  0  0
 19 20  1  1  0  0  0
 19 25  1  0  0  0  0
 20  5  1  0  0  0  0
 21  3  1  1  0  0  0
 21 22  1  0  0  0  0
 21 27  1  0  0  0  0
 23 24  1  1  0  0  0
 23 29  1  0  0  0  0
 25 26  1  6  0  0  0
 25 31  1  0  0  0  0
 27  7  1  6  0  0  0
 27 28  1  0  0  0  0
 29 30  1  6  0  0  0
 29 33  1  0  0  0  0
 31 32  1  1  0  0  0
 31 35  1  0  0  0  0
 33 34  1  0  0  0  0
 33 37  1  1  0  0  0
 35 36  1  6  0  0  0
 37 38  1  0  0  0  0
M  END
>  <CHROM.1>
-125.75097886,130.73862146,109.48923439,91.20900944,88.16840676,-141.73033901
75.56188684,67.05254380,-64.26342327,-159.19956241,-179.47616101,1.23210039
37.06813792,-2.29185131,3.10368394,-1.28071212,-1.19961063

>  <Name>
1ntb_lig

>  <RI>
0

>  <Rbt.Current_Directory>
/home/itssahil/PROJECTS/Mol_Feturizer/New_Systems/rnas/1ntb

>  <Rbt.Executable>
rbdock ($Id: //depot/dev/client3/rdock/2013.1/src/exe/rbdock.cxx#4 $)

>  <Rbt.Library>
libRbt.so (2013.1, Build901 2013/11/27)

>  <Rbt.Parameter_File>
/export/apps/rDock/src/rDock_2013.1_src/data/scripts/dock_solv.prm

>  <Rbt.Receptor>
prm/pocket_docking_8.prm

>  <SCORE>
-13.8688

>  <SCORE.INTER>
-4.87495

>  <SCORE.INTER.CONST>
1

>  <SCORE.INTER.POLAR>
-0.713944

>  <SCORE.INTER.ROT>
11

>  <SCORE.INTER.SOLV>
16.0635

>  <SCORE.INTER.VDW>
-17.158

>  <SCORE.INTER.norm>
-0.121874

>  <SCORE.INTRA>
-8.99381

>  <SCORE.INTRA.DIHEDRAL>
3.71762

>  <SCORE.INTRA.DIHEDRAL.0>
15.4453

>  <SCORE.INTRA.POLAR>
0

>  <SCORE.INTRA.POLAR.0>
0

>  <SCORE.INTRA.REPUL>
-0.823958

>  <SCORE.INTRA.REPUL.0>
0.823958

>  <SCORE.INTRA.SOLV>
-0.530542

>  <SCORE.INTRA.SOLV.lig_0>
-99.3069

>  <SCORE.INTRA.VDW>
-6.46757

>  <SCORE.INTRA.VDW.0>
0.946495

>  <SCORE.INTRA.norm>
-0.224845

>  <SCORE.RESTR>
0

>  <SCORE.RESTR.CAVITY>
0

>  <SCORE.RESTR.norm>
0

>  <SCORE.SYSTEM>
0

>  <SCORE.SYSTEM.CONST>
0

>  <SCORE.SYSTEM.DIHEDRAL>
0

>  <SCORE.SYSTEM.SOLV>
0

>  <SCORE.SYSTEM.norm>
0

>  <SCORE.heavy>
40

>  <SCORE.norm>
-0.346719

>  <RMSD>
6.764

$$$$
1ntb_lig
 OpenBabel11021811403D
libRbt.so/2013.1/901 2013/11/27
 40 42  0  0  0  0  0  0  0  0999 V2000
    1.5454   40.7835    0.1070 C   0  0  0  0  0  0  0  0  0  0  0  0
    2.3412   41.6932   -0.3044 N   0  0  0  0  0  0  0  0  0  0  0  0
   -0.3986   31.4445   -4.0199 C   0  0  0  0  0  0  0  0  0  0  0  0
   -0.7092   30.4765   -5.0082 O   0  0  0  0  0  0  0  0  0  0  0  0
   -2.5774   36.0246   -0.5010 C   0  0  0  0  0  0  0  0  0  0  0  0
   -3.5229   35.7274   -1.3194 N   0  0  0  0  0  0  0  0  0  0  0  0
   -1.2465   32.7858   -6.8593 C   0  0  0  0  0  0  0  0  0  0  0  0
    5.6123   33.2475   -3.6146 C   0  0  0  0  0  0  0  0  0  0  0  0
    0.8888   38.8680   -1.1035 C   0  0  2  0  0  0  0  0  0  0  0  0
    1.8898   39.5458   -0.1928 N   0  0  0  0  0  0  0  0  0  0  0  0
   -0.3966   35.1076   -4.3608 C   0  0  2  0  0  0  0  0  0  0  0  0
    2.0138   32.9077   -2.7761 C   0  0  1  0  0  0  0  0  0  0  0  0
    1.4571   34.0334   -3.4296 O   0  0  0  0  0  0  0  0  0  0  0  0
    0.2567   37.6610   -0.4190 C   0  0  1  0  0  0  0  0  0  0  0  0
   -0.3650   38.2102    0.8235 O   0  0  0  0  0  0  0  0  0  0  0  0
    0.1344   33.8656   -3.6685 C   0  0  2  0  0  0  0  0  0  0  0  0
    3.4474   33.2162   -2.4179 C   0  0  1  0  0  0  0  0  0  0  0  0
    4.1945   33.4709   -3.5987 N   0  0  0  0  0  0  0  0  0  0  0  0
   -0.7403   36.9241   -1.3109 C   0  0  2  0  0  0  0  0  0  0  0  0
   -1.3745   35.7704   -0.7071 N   0  0  0  0  0  0  0  0  0  0  0  0
   -0.1213   32.7767   -4.6765 C   0  0  1  0  0  0  0  0  0  0  0  0
    0.9939   32.6628   -5.5667 O   0  0  0  0  0  0  0  0  0  0  0  0
    3.4527   34.4492   -1.5300 C   0  0  2  0  0  0  0  0  0  0  0  0
    4.7747   34.7887   -1.1726 O   0  0  0  0  0  0  0  0  0  0  0  0
   -0.0123   36.4756   -2.5515 C   0  0  1  0  0  0  0  0  0  0  0  0
   -1.0524   35.9607   -3.4286 O   0  0  0  0  0  0  0  0  0  0  0  0
   -1.3137   33.2449   -5.4257 C   0  0  1  0  0  0  0  0  0  0  0  0
   -1.3135   34.6732   -5.3678 O   0  0  0  0  0  0  0  0  0  0  0  0
    2.6356   34.1050   -0.2846 C   0  0  1  0  0  0  0  0  0  0  0  0
    2.5881   35.2158    0.5973 O   0  0  0  0  0  0  0  0  0  0  0  0
    0.5941   37.7011   -3.2868 C   0  0  2  0  0  0  0  0  0  0  0  0
    1.2621   37.2586   -4.4582 O   0  0  0  0  0  0  0  0  0  0  0  0
    1.2202   33.7161   -0.7125 C   0  0  1  0  0  0  0  0  0  0  0  0
    1.2699   32.5999   -1.5996 O   0  0  0  0  0  0  0  0  0  0  0  0
    1.6011   38.4080   -2.3593 C   0  0  1  0  0  0  0  0  0  0  0  0
    2.1704   39.5422   -3.0239 O   0  0  0  0  0  0  0  0  0  0  0  0
    0.4119   33.3406    0.5298 C   0  0  0  0  0  0  0  0  0  0  0  0
   -0.8948   32.9538    0.1358 O   0  0  0  0  0  0  0  0  0  0  0  0
    0.4638   41.0518    0.7503 N   0  0  0  0  0  0  0  0  0  0  0  0
   -2.8453   36.6493    0.5404 N   0  0  0  0  0  0  0  0  0  0  0  0
  1  2  1  0  0  0  0
  1 39  1  0  0  0  0
  3  4  1  0  0  0  0
  5  6  1  0  0  0  0
  5 40  1  0  0  0  0
  9 10  1  1  0  0  0
  9 14  1  0  0  0  0
  9 35  1  0  0  0  0
 10  1  1  0  0  0  0
 11 16  1  0  0  0  0
 11 28  1  0  0  0  0
 11 26  1  1  0  0  0
 12 17  1  0  0  0  0
 12 34  1  0  0  0  0
 12 13  1  1  0  0  0
 14 15  1  1  0  0  0
 14 19  1  0  0  0  0
 16 13  1  6  0  0  0
 16 21  1  0  0  0  0
 17 18  1  6  0  0  0
 17 23  1  0  0  0  0
 18  8  1  0  0  0  0
 19 20  1  1  0  0  0
 19 25  1  0  0  0  0
 20  5  1  0  0  0  0
 21  3  1  1  0  0  0
 21 22  1  0  0  0  0
 21 27  1  0  0  0  0
 23 24  1  1  0  0  0
 23 29  1  0  0  0  0
 25 26  1  6  0  0  0
 25 31  1  0  0  0  0
 27  7  1  6  0  0  0
 27 28  1  0  0  0  0
 29 30  1  1  0  0  0
 29 33  1  0  0  0  0
 31 32  1  6  0  0  0
 31 35  1  0  0  0  0
 33 34  1  0  0  0  0
 33 37  1  1  0  0  0
 35 36  1  6  0  0  0
 37 38  1  0  0  0  0
M  END
>  <CHROM.1>
-117.24962820,-116.47935161,68.22727842,-174.37973988,179.68639350,-154.31848149
110.17730081,94.20377335,176.57263428,-159.33939699,-178.87347614,0.72002037
35.44782914,-2.21410182,-1.52741012,0.11827189,-2.61434686

>  <Name>
1ntb_lig

>  <RI>
0

>  <Rbt.Current_Directory>
/home/itssahil/PROJECTS/Mol_Feturizer/New_Systems/rnas/1ntb

>  <Rbt.Executable>
rbdock ($Id: //depot/dev/client3/rdock/2013.1/src/exe/rbdock.cxx#4 $)

>  <Rbt.Library>
libRbt.so (2013.1, Build901 2013/11/27)

>  <Rbt.Parameter_File>
/export/apps/rDock/src/rDock_2013.1_src/data/scripts/dock_solv.prm

>  <Rbt.Receptor>
prm/pocket_docking_5.prm

>  <SCORE>
-15.3899

>  <SCORE.INTER>
-0.49705

>  <SCORE.INTER.CONST>
1

>  <SCORE.INTER.POLAR>
0

>  <SCORE.INTER.ROT>
11

>  <SCORE.INTER.SOLV>
9.70099

>  <SCORE.INTER.VDW>
-14.4984

>  <SCORE.INTER.norm>
-0.0124263

>  <SCORE.INTRA>
-14.8929

>  <SCORE.INTRA.DIHEDRAL>
-9.11389

>  <SCORE.INTRA.DIHEDRAL.0>
15.4453

>  <SCORE.INTRA.POLAR>
0

>  <SCORE.INTRA.POLAR.0>
0

>  <SCORE.INTRA.REPUL>
-0.823958

>  <SCORE.INTRA.REPUL.0>
0.823958

>  <SCORE.INTRA.SOLV>
-0.853481

>  <SCORE.INTRA.SOLV.lig_0>
-99.3069

>  <SCORE.INTRA.VDW>
-5.78939

>  <SCORE.INTRA.VDW.0>
0.946495

>  <SCORE.INTRA.norm>
-0.372322

>  <SCORE.RESTR>
0

>  <SCORE.RESTR.CAVITY>
0

>  <SCORE.RESTR.norm>
0

>  <SCORE.SYSTEM>
0

>  <SCORE.SYSTEM.CONST>
0

>  <SCORE.SYSTEM.DIHEDRAL>
0

>  <SCORE.SYSTEM.SOLV>
0

>  <SCORE.SYSTEM.norm>
0

>  <SCORE.heavy>
40

>  <SCORE.norm>
-0.384748

>  <RMSD>
6.766

$$$$
1ntb_lig
 OpenBabel11021811403D
libRbt.so/2013.1/901 2013/11/27
 40 42  0  0  0  0  0  0  0  0999 V2000
   -1.6430   31.9377   -5.4536 C   0  0  0  0  0  0  0  0  0  0  0  0
   -2.0806   30.8124   -5.0382 N   0  0  0  0  0  0  0  0  0  0  0  0
    5.2103   36.1738    2.1426 C   0  0  0  0  0  0  0  0  0  0  0  0
    5.3805   37.5402    2.4806 O   0  0  0  0  0  0  0  0  0  0  0  0
    1.0897   37.1043   -3.4808 C   0  0  0  0  0  0  0  0  0  0  0  0
    0.8487   37.5688   -4.6548 N   0  0  0  0  0  0  0  0  0  0  0  0
    6.6604   34.5020   -0.2412 C   0  0  0  0  0  0  0  0  0  0  0  0
    4.8123   41.5050   -0.0311 C   0  0  0  0  0  0  0  0  0  0  0  0
   -0.0516   32.9047   -4.0050 C   0  0  2  0  0  0  0  0  0  0  0  0
   -0.3521   32.1470   -5.2804 N   0  0  0  0  0  0  0  0  0  0  0  0
    3.3253   35.3833   -0.9162 C   0  0  2  0  0  0  0  0  0  0  0  0
    3.2200   38.4235    1.0398 C   0  0  1  0  0  0  0  0  0  0  0  0
    3.3109   37.5653   -0.0824 O   0  0  0  0  0  0  0  0  0  0  0  0
    0.7550   34.1656   -4.2955 C   0  0  1  0  0  0  0  0  0  0  0  0
   -0.0879   34.9452   -5.2514 O   0  0  0  0  0  0  0  0  0  0  0  0
    3.5291   36.2815    0.2902 C   0  0  2  0  0  0  0  0  0  0  0  0
    3.0738   39.8444    0.5518 C   0  0  1  0  0  0  0  0  0  0  0  0
    4.2154   40.2119   -0.2092 N   0  0  0  0  0  0  0  0  0  0  0  0
    1.1097   34.9503   -3.0341 C   0  0  2  0  0  0  0  0  0  0  0  0
    1.8729   36.1614   -3.2538 N   0  0  0  0  0  0  0  0  0  0  0  0
    4.9692   36.0394    0.6571 C   0  0  1  0  0  0  0  0  0  0  0  0
    5.8154   36.9431   -0.0615 O   0  0  0  0  0  0  0  0  0  0  0  0
    1.8309   39.9142   -0.3195 C   0  0  2  0  0  0  0  0  0  0  0  0
    1.6521   41.2241   -0.8122 O   0  0  0  0  0  0  0  0  0  0  0  0
    1.9017   34.0430   -2.1287 C   0  0  1  0  0  0  0  0  0  0  0  0
    2.0348   34.7828   -0.8832 O   0  0  0  0  0  0  0  0  0  0  0  0
    5.2308   34.6481    0.2120 C   0  0  1  0  0  0  0  0  0  0  0  0
    4.3420   34.3794   -0.8748 O   0  0  0  0  0  0  0  0  0  0  0  0
    0.6474   39.5092    0.5595 C   0  0  1  0  0  0  0  0  0  0  0  0
   -0.5578   39.5438   -0.1888 O   0  0  0  0  0  0  0  0  0  0  0  0
    1.0719   32.7772   -1.7832 C   0  0  2  0  0  0  0  0  0  0  0  0
    1.8296   31.9442   -0.9194 O   0  0  0  0  0  0  0  0  0  0  0  0
    0.8892   38.0983    1.0968 C   0  0  1  0  0  0  0  0  0  0  0  0
    2.1015   38.0653    1.8480 O   0  0  0  0  0  0  0  0  0  0  0  0
    0.7459   32.0093   -3.0787 C   0  0  1  0  0  0  0  0  0  0  0  0
   -0.0201   30.8370   -2.7768 O   0  0  0  0  0  0  0  0  0  0  0  0
   -0.2788   37.7053    2.0017 C   0  0  0  0  0  0  0  0  0  0  0  0
   -0.3162   38.5785    3.1192 O   0  0  0  0  0  0  0  0  0  0  0  0
   -2.4106   32.8237   -5.9839 N   0  0  0  0  0  0  0  0  0  0  0  0
    0.5638   37.6435   -2.4911 N   0  0  0  0  0  0  0  0  0  0  0  0
  1  2  1  0  0  0  0
  1 39  1  0  0  0  0
  3  4  1  0  0  0  0
  5  6  1  0  0  0  0
  5 40  1  0  0  0  0
  9 10  1  6  0  0  0
  9 14  1  0  0  0  0
  9 35  1  0  0  0  0
 10  1  1  0  0  0  0
 11 16  1  0  0  0  0
 11 28  1  0  0  0  0
 11 26  1  1  0  0  0
 12 17  1  0  0  0  0
 12 34  1  0  0  0  0
 12 13  1  6  0  0  0
 14 15  1  6  0  0  0
 14 19  1  0  0  0  0
 16 13  1  6  0  0  0
 16 21  1  0  0  0  0
 17 18  1  6  0  0  0
 17 23  1  0  0  0  0
 18  8  1  0  0  0  0
 19 20  1  6  0  0  0
 19 25  1  0  0  0  0
 20  5  1  0  0  0  0
 21  3  1  1  0  0  0
 21 22  1  0  0  0  0
 21 27  1  0  0  0  0
 23 24  1  1  0  0  0
 23 29  1  0  0  0  0
 25 26  1  1  0  0  0
 25 31  1  0  0  0  0
 27  7  1  6  0  0  0
 27 28  1  0  0  0  0
 29 30  1  6  0  0  0
 29 33  1  0  0  0  0
 31 32  1  1  0  0  0
 31 35  1  0  0  0  0
 33 34  1  0  0  0  0
 33 37  1  1  0  0  0
 35 36  1  1  0  0  0
 37 38  1  0  0  0  0
M  END
>  <CHROM.1>
-124.33340130,-94.75001916,175.23483653,176.10751747,168.20397270,-137.24769017
86.77005592,-101.66733553,-82.72967287,-98.50893075,-63.27745333,1.92488935
36.06973949,-1.24473423,2.08694097,0.58831740,-2.75134580

>  <Name>
1ntb_lig

>  <RI>
0

>  <Rbt.Current_Directory>
/home/itssahil/PROJECTS/Mol_Feturizer/New_Systems/rnas/1ntb

>  <Rbt.Executable>
rbdock ($Id: //depot/dev/client3/rdock/2013.1/src/exe/rbdock.cxx#4 $)

>  <Rbt.Library>
libRbt.so (2013.1, Build901 2013/11/27)

>  <Rbt.Parameter_File>
/export/apps/rDock/src/rDock_2013.1_src/data/scripts/dock_solv.prm

>  <Rbt.Receptor>
prm/pocket_docking_7.prm

>  <SCORE>
-19.4671

>  <SCORE.INTER>
-7.6723

>  <SCORE.INTER.CONST>
1

>  <SCORE.INTER.POLAR>
-0.875113

>  <SCORE.INTER.ROT>
11

>  <SCORE.INTER.SOLV>
16.2798

>  <SCORE.INTER.VDW>
-18.5578

>  <SCORE.INTER.norm>
-0.191807

>  <SCORE.INTRA>
-11.7948

>  <SCORE.INTRA.DIHEDRAL>
-4.28567

>  <SCORE.INTRA.DIHEDRAL.0>
15.4453

>  <SCORE.INTRA.POLAR>
0

>  <SCORE.INTRA.POLAR.0>
0

>  <SCORE.INTRA.REPUL>
-0.823958

>  <SCORE.INTRA.REPUL.0>
0.823958

>  <SCORE.INTRA.SOLV>
1.76567

>  <SCORE.INTRA.SOLV.lig_0>
-99.3069

>  <SCORE.INTRA.VDW>
-6.415

>  <SCORE.INTRA.VDW.0>
0.946495

>  <SCORE.INTRA.norm>
-0.29487

>  <SCORE.RESTR>
0

>  <SCORE.RESTR.CAVITY>
0

>  <SCORE.RESTR.norm>
0

>  <SCORE.SYSTEM>
0

>  <SCORE.SYSTEM.CONST>
0

>  <SCORE.SYSTEM.DIHEDRAL>
0

>  <SCORE.SYSTEM.SOLV>
0

>  <SCORE.SYSTEM.norm>
0

>  <SCORE.heavy>
40

>  <SCORE.norm>
-0.486677

>  <RMSD>
6.803

$$$$
1ntb_lig
 OpenBabel11021811403D
libRbt.so/2013.1/901 2013/11/27
 40 42  0  0  0  0  0  0  0  0999 V2000
   -1.6814   30.1516   -3.0433 C   0  0  0  0  0  0  0  0  0  0  0  0
   -2.3446   29.7039   -2.0483 N   0  0  0  0  0  0  0  0  0  0  0  0
    2.2848   38.5964    1.1337 C   0  0  0  0  0  0  0  0  0  0  0  0
    3.1769   39.6619    1.4154 O   0  0  0  0  0  0  0  0  0  0  0  0
   -0.5843   32.9253    2.2709 C   0  0  0  0  0  0  0  0  0  0  0  0
   -1.6711   32.2597    2.4379 N   0  0  0  0  0  0  0  0  0  0  0  0
    5.3186   37.4309    1.2683 C   0  0  0  0  0  0  0  0  0  0  0  0
    2.4717   39.8695   -3.4724 C   0  0  0  0  0  0  0  0  0  0  0  0
   -0.3499   31.8083   -2.0195 C   0  0  2  0  0  0  0  0  0  0  0  0
   -1.4242   31.4453   -3.0220 N   0  0  0  0  0  0  0  0  0  0  0  0
    2.9523   35.1588    0.0058 C   0  0  2  0  0  0  0  0  0  0  0  0
    0.8530   37.7226   -1.4700 C   0  0  1  0  0  0  0  0  0  0  0  0
    1.6994   36.5947   -1.3452 O   0  0  0  0  0  0  0  0  0  0  0  0
   -0.9389   32.5755   -0.8407 C   0  0  1  0  0  0  0  0  0  0  0  0
   -1.9794   31.6647   -0.2753 O   0  0  0  0  0  0  0  0  0  0  0  0
    2.0886   36.4051   -0.0617 C   0  0  2  0  0  0  0  0  0  0  0  0
    0.8009   38.1300   -2.9226 C   0  0  1  0  0  0  0  0  0  0  0  0
    2.1010   38.4867   -3.3695 N   0  0  0  0  0  0  0  0  0  0  0  0
    0.1130   32.9914    0.1855 C   0  0  2  0  0  0  0  0  0  0  0  0
   -0.3940   33.7203    1.3297 N   0  0  0  0  0  0  0  0  0  0  0  0
    3.0184   37.4913    0.4102 C   0  0  1  0  0  0  0  0  0  0  0  0
    3.7453   38.0290   -0.6996 O   0  0  0  0  0  0  0  0  0  0  0  0
    0.2894   36.9441   -3.7229 C   0  0  2  0  0  0  0  0  0  0  0  0
    0.2303   37.2688   -5.0947 O   0  0  0  0  0  0  0  0  0  0  0  0
    1.1332   33.8505   -0.5155 C   0  0  1  0  0  0  0  0  0  0  0  0
    2.1923   34.0450    0.4626 O   0  0  0  0  0  0  0  0  0  0  0  0
    3.9527   36.7979    1.3314 C   0  0  1  0  0  0  0  0  0  0  0  0
    4.0245   35.4338    0.9104 O   0  0  0  0  0  0  0  0  0  0  0  0
   -1.1066   36.6171   -3.1921 C   0  0  1  0  0  0  0  0  0  0  0  0
   -1.6530   35.5088   -3.8899 O   0  0  0  0  0  0  0  0  0  0  0  0
    1.7784   33.0636   -1.6881 C   0  0  2  0  0  0  0  0  0  0  0  0
    2.7450   33.8848   -2.3249 O   0  0  0  0  0  0  0  0  0  0  0  0
   -1.0072   36.2984   -1.7000 C   0  0  1  0  0  0  0  0  0  0  0  0
   -0.4570   37.4133   -1.0003 O   0  0  0  0  0  0  0  0  0  0  0  0
    0.6879   32.6740   -2.7046 C   0  0  1  0  0  0  0  0  0  0  0  0
    1.2677   31.9466   -3.7941 O   0  0  0  0  0  0  0  0  0  0  0  0
   -2.4073   36.0029   -1.1617 C   0  0  0  0  0  0  0  0  0  0  0  0
   -2.8540   34.7613   -1.6826 O   0  0  0  0  0  0  0  0  0  0  0  0
   -1.3077   29.3998   -4.0184 N   0  0  0  0  0  0  0  0  0  0  0  0
    0.3263   32.8283    3.1123 N   0  0  0  0  0  0  0  0  0  0  0  0
  1  2  1  0  0  0  0
  1 39  1  0  0  0  0
  3  4  1  0  0  0  0
  5  6  1  0  0  0  0
  5 40  1  0  0  0  0
  9 10  1  6  0  0  0
  9 14  1  0  0  0  0
  9 35  1  0  0  0  0
 10  1  1  0  0  0  0
 11 16  1  0  0  0  0
 11 28  1  0  0  0  0
 11 26  1  1  0  0  0
 12 17  1  0  0  0  0
 12 34  1  0  0  0  0
 12 13  1  6  0  0  0
 14 15  1  1  0  0  0
 14 19  1  0  0  0  0
 16 13  1  6  0  0  0
 16 21  1  0  0  0  0
 17 18  1  6  0  0  0
 17 23  1  0  0  0  0
 18  8  1  0  0  0  0
 19 20  1  1  0  0  0
 19 25  1  0  0  0  0
 20  5  1  0  0  0  0
 21  3  1  1  0  0  0
 21 22  1  0  0  0  0
 21 27  1  0  0  0  0
 23 24  1  6  0  0  0
 23 29  1  0  0  0  0
 25 26  1  1  0  0  0
 25 31  1  0  0  0  0
 27  7  1  6  0  0  0
 27 28  1  0  0  0  0
 29 30  1  6  0  0  0
 29 33  1  0  0  0  0
 31 32  1  6  0  0  0
 31 35  1  0  0  0  0
 33 34  1  0  0  0  0
 33 37  1  1  0  0  0
 35 36  1  6  0  0  0
 37 38  1  0  0  0  0
M  END
>  <CHROM.1>
-109.86029730,73.99334327,61.25358586,162.82551989,178.15934565,-100.63972640
95.91869230,-86.68959006,-173.13320922,-162.50640262,70.18758117,0.69792755
34.97655684,-1.13520040,2.64317546,0.93207935,2.35077948

>  <Name>
1ntb_lig

>  <RI>
0

>  <Rbt.Current_Directory>
/home/itssahil/PROJECTS/Mol_Feturizer/New_Systems/rnas/1ntb

>  <Rbt.Executable>
rbdock ($Id: //depot/dev/client3/rdock/2013.1/src/exe/rbdock.cxx#4 $)

>  <Rbt.Library>
libRbt.so (2013.1, Build901 2013/11/27)

>  <Rbt.Parameter_File>
/export/apps/rDock/src/rDock_2013.1_src/data/scripts/dock_solv.prm

>  <Rbt.Receptor>
prm/pocket_docking_5.prm

>  <SCORE>
-16.4373

>  <SCORE.INTER>
-2.52324

>  <SCORE.INTER.CONST>
1

>  <SCORE.INTER.POLAR>
-0.58584

>  <SCORE.INTER.ROT>
11

>  <SCORE.INTER.SOLV>
19.1366

>  <SCORE.INTER.VDW>
-17.0416

>  <SCORE.INTER.norm>
-0.063081

>  <SCORE.INTRA>
-13.9141

>  <SCORE.INTRA.DIHEDRAL>
-7.61254

>  <SCORE.INTRA.DIHEDRAL.0>
15.4453

>  <SCORE.INTRA.POLAR>
0

>  <SCORE.INTRA.POLAR.0>
0

>  <SCORE.INTRA.REPUL>
-0.761189

>  <SCORE.INTRA.REPUL.0>
0.823958

>  <SCORE.INTRA.SOLV>
-0.674429

>  <SCORE.INTRA.SOLV.lig_0>
-99.3069

>  <SCORE.INTRA.VDW>
-5.96467

>  <SCORE.INTRA.VDW.0>
0.946495

>  <SCORE.INTRA.norm>
-0.347852

>  <SCORE.RESTR>
0

>  <SCORE.RESTR.CAVITY>
0

>  <SCORE.RESTR.norm>
0

>  <SCORE.SYSTEM>
0

>  <SCORE.SYSTEM.CONST>
0

>  <SCORE.SYSTEM.DIHEDRAL>
0

>  <SCORE.SYSTEM.SOLV>
0

>  <SCORE.SYSTEM.norm>
0

>  <SCORE.heavy>
40

>  <SCORE.norm>
-0.410933

>  <RMSD>
6.806

$$$$
1ntb_lig
 OpenBabel11021811403D
libRbt.so/2013.1/901 2013/11/27
 40 42  0  0  0  0  0  0  0  0999 V2000
   -1.5222   32.0240   -5.6505 C   0  0  0  0  0  0  0  0  0  0  0  0
   -2.1769   31.2736   -4.8515 N   0  0  0  0  0  0  0  0  0  0  0  0
    5.1917   36.1171    2.1360 C   0  0  0  0  0  0  0  0  0  0  0  0
    5.5399   37.4520    2.4632 O   0  0  0  0  0  0  0  0  0  0  0  0
    1.1789   37.1327   -3.5911 C   0  0  0  0  0  0  0  0  0  0  0  0
    0.9395   37.6259   -4.7536 N   0  0  0  0  0  0  0  0  0  0  0  0
    6.6583   34.3910   -0.1985 C   0  0  0  0  0  0  0  0  0  0  0  0
    5.9233   40.0557    0.2396 C   0  0  0  0  0  0  0  0  0  0  0  0
    0.0433   32.9161   -4.1276 C   0  0  2  0  0  0  0  0  0  0  0  0
   -0.2327   32.1396   -5.3971 N   0  0  0  0  0  0  0  0  0  0  0  0
    3.3814   35.3916   -0.9834 C   0  0  2  0  0  0  0  0  0  0  0  0
    3.4642   38.4511    0.9595 C   0  0  1  0  0  0  0  0  0  0  0  0
    3.4186   37.5738   -0.1506 O   0  0  0  0  0  0  0  0  0  0  0  0
    0.8578   34.1714   -4.4208 C   0  0  1  0  0  0  0  0  0  0  0  0
    0.0357   34.9375   -5.4052 O   0  0  0  0  0  0  0  0  0  0  0  0
    3.5776   36.2833    0.2291 C   0  0  2  0  0  0  0  0  0  0  0  0
    3.4654   39.8730    0.4528 C   0  0  1  0  0  0  0  0  0  0  0  0
    4.6154   40.0969   -0.3503 N   0  0  0  0  0  0  0  0  0  0  0  0
    1.1883   34.9745   -3.1645 C   0  0  2  0  0  0  0  0  0  0  0  0
    1.9579   36.1811   -3.3870 N   0  0  0  0  0  0  0  0  0  0  0  0
    4.9951   35.9897    0.6434 C   0  0  1  0  0  0  0  0  0  0  0  0
    5.8968   36.8613   -0.0469 O   0  0  0  0  0  0  0  0  0  0  0  0
    2.2101   40.0740   -0.3794 C   0  0  2  0  0  0  0  0  0  0  0  0
    2.1660   41.3894   -0.8879 O   0  0  0  0  0  0  0  0  0  0  0  0
    1.9603   34.0799   -2.2297 C   0  0  1  0  0  0  0  0  0  0  0  0
    2.0696   34.8383   -0.9931 O   0  0  0  0  0  0  0  0  0  0  0  0
    5.2207   34.5893    0.2071 C   0  0  1  0  0  0  0  0  0  0  0  0
    4.3592   34.3516   -0.9084 O   0  0  0  0  0  0  0  0  0  0  0  0
    1.0182   39.8192    0.5435 C   0  0  1  0  0  0  0  0  0  0  0  0
   -0.1996   39.9825   -0.1664 O   0  0  0  0  0  0  0  0  0  0  0  0
    1.1216   32.8206   -1.8819 C   0  0  2  0  0  0  0  0  0  0  0  0
    1.8603   31.9998   -0.9904 O   0  0  0  0  0  0  0  0  0  0  0  0
    1.1148   38.3969    1.0963 C   0  0  1  0  0  0  0  0  0  0  0  0
    2.3400   38.2343    1.8089 O   0  0  0  0  0  0  0  0  0  0  0  0
    0.8205   32.0337   -3.1720 C   0  0  1  0  0  0  0  0  0  0  0  0
    0.0464   30.8672   -2.8678 O   0  0  0  0  0  0  0  0  0  0  0  0
   -0.0594   38.1525    2.0445 C   0  0  0  0  0  0  0  0  0  0  0  0
    0.0725   38.9975    3.1763 O   0  0  0  0  0  0  0  0  0  0  0  0
   -2.0826   32.6493   -6.6255 N   0  0  0  0  0  0  0  0  0  0  0  0
    0.6560   37.6507   -2.5886 N   0  0  0  0  0  0  0  0  0  0  0  0
  1  2  1  0  0  0  0
  1 39  1  0  0  0  0
  3  4  1  0  0  0  0
  5  6  1  0  0  0  0
  5 40  1  0  0  0  0
  9 10  1  6  0  0  0
  9 14  1  0  0  0  0
  9 35  1  0  0  0  0
 10  1  1  0  0  0  0
 11 16  1  0  0  0  0
 11 28  1  0  0  0  0
 11 26  1  1  0  0  0
 12 17  1  0  0  0  0
 12 34  1  0  0  0  0
 12 13  1  6  0  0  0
 14 15  1  6  0  0  0
 14 19  1  0  0  0  0
 16 13  1  6  0  0  0
 16 21  1  0  0  0  0
 17 18  1  6  0  0  0
 17 23  1  0  0  0  0
 18  8  1  0  0  0  0
 19 20  1  6  0  0  0
 19 25  1  0  0  0  0
 20  5  1  0  0  0  0
 21  3  1  1  0  0  0
 21 22  1  0  0  0  0
 21 27  1  0  0  0  0
 23 24  1  1  0  0  0
 23 29  1  0  0  0  0
 25 26  1  1  0  0  0
 25 31  1  0  0  0  0
 27  7  1  6  0  0  0
 27 28  1  0  0  0  0
 29 30  1  6  0  0  0
 29 33  1  0  0  0  0
 31 32  1  1  0  0  0
 31 35  1  0  0  0  0
 33 34  1  0  0  0  0
 33 37  1  1  0  0  0
 35 36  1  1  0  0  0
 37 38  1  0  0  0  0
M  END
>  <CHROM.1>
-119.13159874,-69.16094072,176.35529140,172.58460740,174.45373736,-65.78409964
89.40141415,-102.99470763,-88.87698584,-100.82487434,-65.79932347,2.09890497
36.09890041,-1.30875800,2.11101103,0.60900562,-2.74591237

>  <Name>
1ntb_lig

>  <RI>
0

>  <Rbt.Current_Directory>
/home/itssahil/PROJECTS/Mol_Feturizer/New_Systems/rnas/1ntb

>  <Rbt.Executable>
rbdock ($Id: //depot/dev/client3/rdock/2013.1/src/exe/rbdock.cxx#4 $)

>  <Rbt.Library>
libRbt.so (2013.1, Build901 2013/11/27)

>  <Rbt.Parameter_File>
/export/apps/rDock/src/rDock_2013.1_src/data/scripts/dock_solv.prm

>  <Rbt.Receptor>
prm/pocket_docking_5.prm

>  <SCORE>
-19.3795

>  <SCORE.INTER>
-8.34876

>  <SCORE.INTER.CONST>
1

>  <SCORE.INTER.POLAR>
-0.727449

>  <SCORE.INTER.ROT>
11

>  <SCORE.INTER.SOLV>
17.7201

>  <SCORE.INTER.VDW>
-19.981

>  <SCORE.INTER.norm>
-0.208719

>  <SCORE.INTRA>
-11.0308

>  <SCORE.INTRA.DIHEDRAL>
-4.04478

>  <SCORE.INTRA.DIHEDRAL.0>
15.4453

>  <SCORE.INTRA.POLAR>
0

>  <SCORE.INTRA.POLAR.0>
0

>  <SCORE.INTRA.REPUL>
-0.823958

>  <SCORE.INTRA.REPUL.0>
0.823958

>  <SCORE.INTRA.SOLV>
1.1689

>  <SCORE.INTRA.SOLV.lig_0>
-99.3069

>  <SCORE.INTRA.VDW>
-5.47303

>  <SCORE.INTRA.VDW.0>
0.946495

>  <SCORE.INTRA.norm>
-0.275769

>  <SCORE.RESTR>
0

>  <SCORE.RESTR.CAVITY>
0

>  <SCORE.RESTR.norm>
0

>  <SCORE.SYSTEM>
0

>  <SCORE.SYSTEM.CONST>
0

>  <SCORE.SYSTEM.DIHEDRAL>
0

>  <SCORE.SYSTEM.SOLV>
0

>  <SCORE.SYSTEM.norm>
0

>  <SCORE.heavy>
40

>  <SCORE.norm>
-0.484488

>  <RMSD>
6.807

$$$$
1ntb_lig
 OpenBabel11021811403D
libRbt.so/2013.1/901 2013/11/27
 40 42  0  0  0  0  0  0  0  0999 V2000
   -1.5410   31.8371   -5.4831 C   0  0  0  0  0  0  0  0  0  0  0  0
   -2.0260   30.7382   -5.0502 N   0  0  0  0  0  0  0  0  0  0  0  0
    4.7030   37.2189    1.9678 C   0  0  0  0  0  0  0  0  0  0  0  0
    6.0386   37.2722    2.4407 O   0  0  0  0  0  0  0  0  0  0  0  0
    1.1126   37.1156   -3.5819 C   0  0  0  0  0  0  0  0  0  0  0  0
    0.3052   37.5641   -2.6880 N   0  0  0  0  0  0  0  0  0  0  0  0
    6.4510   34.9599    0.4118 C   0  0  0  0  0  0  0  0  0  0  0  0
    5.5705   40.7901   -1.3006 C   0  0  0  0  0  0  0  0  0  0  0  0
   -0.0006   32.8578   -4.0165 C   0  0  2  0  0  0  0  0  0  0  0  0
   -0.2554   32.0232   -5.2532 N   0  0  0  0  0  0  0  0  0  0  0  0
    3.2663   35.5243   -0.9645 C   0  0  2  0  0  0  0  0  0  0  0  0
    3.1990   39.0277   -0.0254 C   0  0  1  0  0  0  0  0  0  0  0  0
    3.1729   37.8537   -0.8161 O   0  0  0  0  0  0  0  0  0  0  0  0
    0.8140   34.1016   -4.3547 C   0  0  1  0  0  0  0  0  0  0  0  0
    0.0038   34.8189   -5.3847 O   0  0  0  0  0  0  0  0  0  0  0  0
    3.3103   36.7402   -0.0571 C   0  0  2  0  0  0  0  0  0  0  0  0
    3.1885   40.2279   -0.9408 C   0  0  1  0  0  0  0  0  0  0  0  0
    4.3427   40.2123   -1.7683 N   0  0  0  0  0  0  0  0  0  0  0  0
    1.1235   34.9623   -3.1316 C   0  0  2  0  0  0  0  0  0  0  0  0
    1.8923   36.1606   -3.3976 N   0  0  0  0  0  0  0  0  0  0  0  0
    4.6771   36.6509    0.5680 C   0  0  1  0  0  0  0  0  0  0  0  0
    5.6356   37.3258   -0.2536 O   0  0  0  0  0  0  0  0  0  0  0  0
    1.9382   40.1494   -1.8006 C   0  0  2  0  0  0  0  0  0  0  0  0
    1.8835   41.2470   -2.6854 O   0  0  0  0  0  0  0  0  0  0  0  0
    1.8847   34.1142   -2.1460 C   0  0  1  0  0  0  0  0  0  0  0  0
    1.9734   34.9285   -0.9438 O   0  0  0  0  0  0  0  0  0  0  0  0
    4.9739   35.1970    0.5916 C   0  0  1  0  0  0  0  0  0  0  0  0
    4.2470   34.6012   -0.4854 O   0  0  0  0  0  0  0  0  0  0  0  0
    0.7413   40.1714   -0.8496 C   0  0  1  0  0  0  0  0  0  0  0  0
   -0.4721   40.0946   -1.5814 O   0  0  0  0  0  0  0  0  0  0  0  0
    1.0451   32.8687   -1.7534 C   0  0  2  0  0  0  0  0  0  0  0  0
    1.7734   32.0921   -0.8150 O   0  0  0  0  0  0  0  0  0  0  0  0
    0.8492   38.9860    0.1101 C   0  0  1  0  0  0  0  0  0  0  0  0
    2.0700   39.0644    0.8443 O   0  0  0  0  0  0  0  0  0  0  0  0
    0.7655   32.0228   -3.0106 C   0  0  1  0  0  0  0  0  0  0  0  0
   -0.0090   30.8683   -2.6649 O   0  0  0  0  0  0  0  0  0  0  0  0
   -0.3302   39.0259    1.0821 C   0  0  0  0  0  0  0  0  0  0  0  0
   -0.2350   37.9277    1.9751 O   0  0  0  0  0  0  0  0  0  0  0  0
   -2.2597   32.7202   -6.0825 N   0  0  0  0  0  0  0  0  0  0  0  0
    1.0977   37.6119   -4.7221 N   0  0  0  0  0  0  0  0  0  0  0  0
  1  2  1  0  0  0  0
  1 39  1  0  0  0  0
  3  4  1  0  0  0  0
  5  6  1  0  0  0  0
  5 40  1  0  0  0  0
  9 10  1  6  0  0  0
  9 14  1  0  0  0  0
  9 35  1  0  0  0  0
 10  1  1  0  0  0  0
 11 16  1  0  0  0  0
 11 28  1  0  0  0  0
 11 26  1  1  0  0  0
 12 17  1  0  0  0  0
 12 34  1  0  0  0  0
 12 13  1  6  0  0  0
 14 15  1  6  0  0  0
 14 19  1  0  0  0  0
 16 13  1  6  0  0  0
 16 21  1  0  0  0  0
 17 18  1  6  0  0  0
 17 23  1  0  0  0  0
 18  8  1  0  0  0  0
 19 20  1  6  0  0  0
 19 25  1  0  0  0  0
 20  5  1  0  0  0  0
 21  3  1  1  0  0  0
 21 22  1  0  0  0  0
 21 27  1  0  0  0  0
 23 24  1  6  0  0  0
 23 29  1  0  0  0  0
 25 26  1  1  0  0  0
 25 31  1  0  0  0  0
 27  7  1  6  0  0  0
 27 28  1  0  0  0  0
 29 30  1  6  0  0  0
 29 33  1  0  0  0  0
 31 32  1  1  0  0  0
 31 35  1  0  0  0  0
 33 34  1  0  0  0  0
 33 37  1  1  0  0  0
 35 36  1  1  0  0  0
 37 38  1  0  0  0  0
M  END
>  <CHROM.1>
-122.19994378,-96.57121127,160.29895551,174.10155740,179.70545211,-86.24679372
93.10519791,63.00306335,-172.34541875,-98.82694504,179.99064908,1.94580653
36.26455337,-1.66112860,2.21085994,0.71508556,-3.00890682

>  <Name>
1ntb_lig

>  <RI>
0

>  <Rbt.Current_Directory>
/home/itssahil/PROJECTS/Mol_Feturizer/New_Systems/rnas/1ntb

>  <Rbt.Executable>
rbdock ($Id: //depot/dev/client3/rdock/2013.1/src/exe/rbdock.cxx#4 $)

>  <Rbt.Library>
libRbt.so (2013.1, Build901 2013/11/27)

>  <Rbt.Parameter_File>
/export/apps/rDock/src/rDock_2013.1_src/data/scripts/dock_solv.prm

>  <Rbt.Receptor>
prm/pocket_docking_6.prm

>  <SCORE>
-18.2059

>  <SCORE.INTER>
-6.37445

>  <SCORE.INTER.CONST>
1

>  <SCORE.INTER.POLAR>
-0.747939

>  <SCORE.INTER.ROT>
11

>  <SCORE.INTER.SOLV>
17.4702

>  <SCORE.INTER.VDW>
-18.5132

>  <SCORE.INTER.norm>
-0.159361

>  <SCORE.INTRA>
-11.8315

>  <SCORE.INTRA.DIHEDRAL>
-4.13621

>  <SCORE.INTRA.DIHEDRAL.0>
15.4453

>  <SCORE.INTRA.POLAR>
0

>  <SCORE.INTRA.POLAR.0>
0

>  <SCORE.INTRA.REPUL>
-0.823958

>  <SCORE.INTRA.REPUL.0>
0.823958

>  <SCORE.INTRA.SOLV>
3.1163

>  <SCORE.INTRA.SOLV.lig_0>
-99.3069

>  <SCORE.INTRA.VDW>
-7.20171

>  <SCORE.INTRA.VDW.0>
0.946495

>  <SCORE.INTRA.norm>
-0.295786

>  <SCORE.RESTR>
0

>  <SCORE.RESTR.CAVITY>
0

>  <SCORE.RESTR.norm>
0

>  <SCORE.SYSTEM>
0

>  <SCORE.SYSTEM.CONST>
0

>  <SCORE.SYSTEM.DIHEDRAL>
0

>  <SCORE.SYSTEM.SOLV>
0

>  <SCORE.SYSTEM.norm>
0

>  <SCORE.heavy>
40

>  <SCORE.norm>
-0.455147

>  <RMSD>
6.825

$$$$
1ntb_lig
 OpenBabel11021811403D
libRbt.so/2013.1/901 2013/11/27
 40 42  0  0  0  0  0  0  0  0999 V2000
    3.9420   43.4930   -2.2133 C   0  0  0  0  0  0  0  0  0  0  0  0
    3.9168   44.4464   -3.0622 N   0  0  0  0  0  0  0  0  0  0  0  0
   -2.4558   35.6042   -6.2930 C   0  0  0  0  0  0  0  0  0  0  0  0
   -2.5794   34.2034   -6.1121 O   0  0  0  0  0  0  0  0  0  0  0  0
    1.6959   37.7655   -0.6681 C   0  0  0  0  0  0  0  0  0  0  0  0
    0.4497   37.9011   -0.3840 N   0  0  0  0  0  0  0  0  0  0  0  0
   -0.3613   37.0653   -8.3075 C   0  0  0  0  0  0  0  0  0  0  0  0
   -0.0656   31.7639   -5.7045 C   0  0  0  0  0  0  0  0  0  0  0  0
    2.9568   41.4382   -2.8241 C   0  0  2  0  0  0  0  0  0  0  0  0
    4.1979   42.2966   -2.7064 N   0  0  0  0  0  0  0  0  0  0  0  0
    0.4729   37.3448   -4.9044 C   0  0  2  0  0  0  0  0  0  0  0  0
   -0.9968   34.1833   -3.9109 C   0  0  1  0  0  0  0  0  0  0  0  0
   -0.0290   35.1782   -4.1897 O   0  0  0  0  0  0  0  0  0  0  0  0
    3.1964   40.0484   -2.2445 C   0  0  1  0  0  0  0  0  0  0  0  0
    3.6043   40.2916   -0.8280 O   0  0  0  0  0  0  0  0  0  0  0  0
   -0.5897   36.2703   -4.7622 C   0  0  2  0  0  0  0  0  0  0  0  0
   -0.2842   32.9103   -3.5233 C   0  0  1  0  0  0  0  0  0  0  0  0
    0.5268   32.4652   -4.6010 N   0  0  0  0  0  0  0  0  0  0  0  0
    1.9799   39.1332   -2.3676 C   0  0  2  0  0  0  0  0  0  0  0  0
    2.1520   37.8003   -1.8277 N   0  0  0  0  0  0  0  0  0  0  0  0
   -1.0040   36.0087   -6.1859 C   0  0  1  0  0  0  0  0  0  0  0  0
   -0.1689   34.9978   -6.7603 O   0  0  0  0  0  0  0  0  0  0  0  0
    0.5864   33.2110   -2.3148 C   0  0  2  0  0  0  0  0  0  0  0  0
    1.2855   32.0524   -1.9153 O   0  0  0  0  0  0  0  0  0  0  0  0
    1.6311   39.0165   -3.8287 C   0  0  1  0  0  0  0  0  0  0  0  0
    0.3654   38.2997   -3.8538 O   0  0  0  0  0  0  0  0  0  0  0  0
   -0.7723   37.3013   -6.8772 C   0  0  1  0  0  0  0  0  0  0  0  0
    0.2724   37.9751   -6.1716 O   0  0  0  0  0  0  0  0  0  0  0  0
   -0.3471   33.6813   -1.1991 C   0  0  1  0  0  0  0  0  0  0  0  0
    0.3965   33.9896   -0.0305 O   0  0  0  0  0  0  0  0  0  0  0  0
    1.3347   40.4208   -4.4206 C   0  0  2  0  0  0  0  0  0  0  0  0
    0.9949   40.2868   -5.7919 O   0  0  0  0  0  0  0  0  0  0  0  0
   -1.1065   34.9191   -1.6775 C   0  0  1  0  0  0  0  0  0  0  0  0
   -1.8528   34.6076   -2.8528 O   0  0  0  0  0  0  0  0  0  0  0  0
    2.5880   41.3073   -4.2879 C   0  0  1  0  0  0  0  0  0  0  0  0
    2.3307   42.6080   -4.8303 O   0  0  0  0  0  0  0  0  0  0  0  0
   -2.0637   35.3709   -0.5742 C   0  0  0  0  0  0  0  0  0  0  0  0
   -2.8156   36.4817   -1.0361 O   0  0  0  0  0  0  0  0  0  0  0  0
    3.7085   43.6771   -0.9614 N   0  0  0  0  0  0  0  0  0  0  0  0
    2.5223   37.6437    0.2532 N   0  0  0  0  0  0  0  0  0  0  0  0
  1  2  1  0  0  0  0
  1 39  1  0  0  0  0
  3  4  1  0  0  0  0
  5  6  1  0  0  0  0
  5 40  1  0  0  0  0
  9 10  1  6  0  0  0
  9 14  1  0  0  0  0
  9 35  1  0  0  0  0
 10  1  1  0  0  0  0
 11 16  1  0  0  0  0
 11 28  1  0  0  0  0
 11 26  1  1  0  0  0
 12 17  1  0  0  0  0
 12 34  1  0  0  0  0
 12 13  1  1  0  0  0
 14 15  1  1  0  0  0
 14 19  1  0  0  0  0
 16 13  1  6  0  0  0
 16 21  1  0  0  0  0
 17 18  1  6  0  0  0
 17 23  1  0  0  0  0
 18  8  1  0  0  0  0
 19 20  1  6  0  0  0
 19 25  1  0  0  0  0
 20  5  1  0  0  0  0
 21  3  1  6  0  0  0
 21 22  1  0  0  0  0
 21 27  1  0  0  0  0
 23 24  1  1  0  0  0
 23 29  1  0  0  0  0
 25 26  1  1  0  0  0
 25 31  1  0  0  0  0
 27  7  1  6  0  0  0
 27 28  1  0  0  0  0
 29 30  1  1  0  0  0
 29 33  1  0  0  0  0
 31 32  1  6  0  0  0
 31 35  1  0  0  0  0
 33 34  1  0  0  0  0
 33 37  1  1  0  0  0
 35 36  1  1  0  0  0
 37 38  1  0  0  0  0
M  END
>  <CHROM.1>
-132.05572309,-103.14948336,162.71245435,169.44619307,174.35854403,-79.38577801
96.23911001,66.44736225,-86.50098218,-136.97919138,-177.31989120,0.71030747
37.34616759,-3.43843068,-0.37607199,1.09154147,2.13744576

>  <Name>
1ntb_lig

>  <RI>
0

>  <Rbt.Current_Directory>
/home/itssahil/PROJECTS/Mol_Feturizer/New_Systems/rnas/1ntb

>  <Rbt.Executable>
rbdock ($Id: //depot/dev/client3/rdock/2013.1/src/exe/rbdock.cxx#4 $)

>  <Rbt.Library>
libRbt.so (2013.1, Build901 2013/11/27)

>  <Rbt.Parameter_File>
/export/apps/rDock/src/rDock_2013.1_src/data/scripts/dock_solv.prm

>  <Rbt.Receptor>
prm/pocket_docking_7.prm

>  <SCORE>
-12.4339

>  <SCORE.INTER>
-1.30904

>  <SCORE.INTER.CONST>
1

>  <SCORE.INTER.POLAR>
-0.72111

>  <SCORE.INTER.ROT>
11

>  <SCORE.INTER.SOLV>
7.57118

>  <SCORE.INTER.VDW>
-11.9261

>  <SCORE.INTER.norm>
-0.032726

>  <SCORE.INTRA>
-11.1248

>  <SCORE.INTRA.DIHEDRAL>
-2.17371

>  <SCORE.INTRA.DIHEDRAL.0>
15.4453

>  <SCORE.INTRA.POLAR>
0

>  <SCORE.INTRA.POLAR.0>
0

>  <SCORE.INTRA.REPUL>
-0.818413

>  <SCORE.INTRA.REPUL.0>
0.823958

>  <SCORE.INTRA.SOLV>
0.283078

>  <SCORE.INTRA.SOLV.lig_0>
-99.3069

>  <SCORE.INTRA.VDW>
-6.08743

>  <SCORE.INTRA.VDW.0>
0.946495

>  <SCORE.INTRA.norm>
-0.27812

>  <SCORE.RESTR>
0

>  <SCORE.RESTR.CAVITY>
0

>  <SCORE.RESTR.norm>
0

>  <SCORE.SYSTEM>
0

>  <SCORE.SYSTEM.CONST>
0

>  <SCORE.SYSTEM.DIHEDRAL>
0

>  <SCORE.SYSTEM.SOLV>
0

>  <SCORE.SYSTEM.norm>
0

>  <SCORE.heavy>
40

>  <SCORE.norm>
-0.310846

>  <RMSD>
6.845

$$$$
1ntb_lig
 OpenBabel11021811403D
libRbt.so/2013.1/901 2013/11/27
 40 42  0  0  0  0  0  0  0  0999 V2000
    1.6767   41.3511    2.3508 C   0  0  0  0  0  0  0  0  0  0  0  0
    1.5052   40.9521    3.5514 N   0  0  0  0  0  0  0  0  0  0  0  0
   -3.2490   34.4770   -4.8171 C   0  0  0  0  0  0  0  0  0  0  0  0
   -3.5817   33.2147   -4.2636 O   0  0  0  0  0  0  0  0  0  0  0  0
    1.6976   35.9560   -0.8164 C   0  0  0  0  0  0  0  0  0  0  0  0
    1.9413   36.2999   -2.0306 N   0  0  0  0  0  0  0  0  0  0  0  0
   -0.6806   35.9752   -6.1356 C   0  0  0  0  0  0  0  0  0  0  0  0
   -2.2574   30.4758   -1.9911 C   0  0  0  0  0  0  0  0  0  0  0  0
    0.9259   39.6391    0.9116 C   0  0  2  0  0  0  0  0  0  0  0  0
    2.0768   40.4302    1.4952 N   0  0  0  0  0  0  0  0  0  0  0  0
   -0.9368   36.3449   -2.6494 C   0  0  2  0  0  0  0  0  0  0  0  0
   -2.6716   33.5673   -1.4100 C   0  0  1  0  0  0  0  0  0  0  0  0
   -1.5717   34.1749   -2.0621 O   0  0  0  0  0  0  0  0  0  0  0  0
    1.3436   38.2024    0.6178 C   0  0  1  0  0  0  0  0  0  0  0  0
    1.8126   37.6659    1.9309 O   0  0  0  0  0  0  0  0  0  0  0  0
   -1.9609   35.2360   -2.8087 C   0  0  2  0  0  0  0  0  0  0  0  0
   -2.1562   32.4623   -0.5201 C   0  0  1  0  0  0  0  0  0  0  0  0
   -1.4953   31.4805   -1.3054 N   0  0  0  0  0  0  0  0  0  0  0  0
    0.2226   37.3705   -0.0019 C   0  0  2  0  0  0  0  0  0  0  0  0
    0.5649   35.9945   -0.2972 N   0  0  0  0  0  0  0  0  0  0  0  0
   -1.9118   34.9346   -4.2830 C   0  0  1  0  0  0  0  0  0  0  0  0
   -0.9127   33.9439   -4.5465 O   0  0  0  0  0  0  0  0  0  0  0  0
   -1.1775   33.0750    0.4674 C   0  0  2  0  0  0  0  0  0  0  0  0
   -0.6560   32.0796    1.3205 O   0  0  0  0  0  0  0  0  0  0  0  0
   -0.2037   38.0429   -1.2810 C   0  0  1  0  0  0  0  0  0  0  0  0
   -1.3877   37.3139   -1.7089 O   0  0  0  0  0  0  0  0  0  0  0  0
   -1.5163   36.2220   -4.9063 C   0  0  1  0  0  0  0  0  0  0  0  0
   -0.7574   36.9449   -3.9344 O   0  0  0  0  0  0  0  0  0  0  0  0
   -1.9527   34.1163    1.2750 C   0  0  1  0  0  0  0  0  0  0  0  0
   -1.1001   34.7417    2.2215 O   0  0  0  0  0  0  0  0  0  0  0  0
   -0.6800   39.4915   -0.9895 C   0  0  2  0  0  0  0  0  0  0  0  0
   -1.0898   40.1010   -2.2039 O   0  0  0  0  0  0  0  0  0  0  0  0
   -2.5254   35.1608    0.3165 C   0  0  1  0  0  0  0  0  0  0  0  0
   -3.3815   34.5303   -0.6347 O   0  0  0  0  0  0  0  0  0  0  0  0
    0.4811   40.2989   -0.3778 C   0  0  1  0  0  0  0  0  0  0  0  0
    0.0574   41.6394   -0.1029 O   0  0  0  0  0  0  0  0  0  0  0  0
   -3.3277   36.1845    1.1202 C   0  0  0  0  0  0  0  0  0  0  0  0
   -4.4689   35.5500    1.6748 O   0  0  0  0  0  0  0  0  0  0  0  0
    1.4973   42.5754    1.9979 N   0  0  0  0  0  0  0  0  0  0  0  0
    2.6189   35.5053   -0.1130 N   0  0  0  0  0  0  0  0  0  0  0  0
  1  2  1  0  0  0  0
  1 39  1  0  0  0  0
  3  4  1  0  0  0  0
  5  6  1  0  0  0  0
  5 40  1  0  0  0  0
  9 10  1  6  0  0  0
  9 14  1  0  0  0  0
  9 35  1  0  0  0  0
 10  1  1  0  0  0  0
 11 16  1  0  0  0  0
 11 28  1  0  0  0  0
 11 26  1  1  0  0  0
 12 17  1  0  0  0  0
 12 34  1  0  0  0  0
 12 13  1  1  0  0  0
 14 15  1  1  0  0  0
 14 19  1  0  0  0  0
 16 13  1  1  0  0  0
 16 21  1  0  0  0  0
 17 18  1  6  0  0  0
 17 23  1  0  0  0  0
 18  8  1  0  0  0  0
 19 20  1  6  0  0  0
 19 25  1  0  0  0  0
 20  5  1  0  0  0  0
 21  3  1  6  0  0  0
 21 22  1  0  0  0  0
 21 27  1  0  0  0  0
 23 24  1  1  0  0  0
 23 29  1  0  0  0  0
 25 26  1  1  0  0  0
 25 31  1  0  0  0  0
 27  7  1  6  0  0  0
 27 28  1  0  0  0  0
 29 30  1  1  0  0  0
 29 33  1  0  0  0  0
 31 32  1  6  0  0  0
 31 35  1  0  0  0  0
 33 34  1  0  0  0  0
 33 37  1  1  0  0  0
 35 36  1  1  0  0  0
 37 38  1  0  0  0  0
M  END
>  <CHROM.1>
-147.64862092,85.23563977,160.65272223,-175.86257422,139.67771823,-81.50993949
-43.29972383,-75.21349777,-67.03145450,-95.95583882,-66.53913742,-0.76133264
36.31309881,-0.88675290,0.10273367,1.17088338,1.93259272

>  <Name>
1ntb_lig

>  <RI>
0

>  <Rbt.Current_Directory>
/home/itssahil/PROJECTS/Mol_Feturizer/New_Systems/rnas/1ntb

>  <Rbt.Executable>
rbdock ($Id: //depot/dev/client3/rdock/2013.1/src/exe/rbdock.cxx#4 $)

>  <Rbt.Library>
libRbt.so (2013.1, Build901 2013/11/27)

>  <Rbt.Parameter_File>
/export/apps/rDock/src/rDock_2013.1_src/data/scripts/dock_solv.prm

>  <Rbt.Receptor>
prm/pocket_docking_4.prm

>  <SCORE>
0.284485

>  <SCORE.INTER>
7.96656

>  <SCORE.INTER.CONST>
1

>  <SCORE.INTER.POLAR>
-1.12517

>  <SCORE.INTER.ROT>
11

>  <SCORE.INTER.SOLV>
8.53626

>  <SCORE.INTER.VDW>
-4.71713

>  <SCORE.INTER.norm>
0.199164

>  <SCORE.INTRA>
-7.68298

>  <SCORE.INTRA.DIHEDRAL>
-0.735697

>  <SCORE.INTRA.DIHEDRAL.0>
15.4453

>  <SCORE.INTRA.POLAR>
0

>  <SCORE.INTRA.POLAR.0>
0

>  <SCORE.INTRA.REPUL>
-0.823958

>  <SCORE.INTRA.REPUL.0>
0.823958

>  <SCORE.INTRA.SOLV>
3.45713

>  <SCORE.INTRA.SOLV.lig_0>
-99.3069

>  <SCORE.INTRA.VDW>
-4.92391

>  <SCORE.INTRA.VDW.0>
0.946495

>  <SCORE.INTRA.norm>
-0.192075

>  <SCORE.RESTR>
0.000900729

>  <SCORE.RESTR.CAVITY>
0.000900729

>  <SCORE.RESTR.norm>
2.25182e-05

>  <SCORE.SYSTEM>
0

>  <SCORE.SYSTEM.CONST>
0

>  <SCORE.SYSTEM.DIHEDRAL>
0

>  <SCORE.SYSTEM.SOLV>
0

>  <SCORE.SYSTEM.norm>
0

>  <SCORE.heavy>
40

>  <SCORE.norm>
0.00711212

>  <RMSD>
6.863

$$$$
1ntb_lig
 OpenBabel11021811403D
libRbt.so/2013.1/901 2013/11/27
 40 42  0  0  0  0  0  0  0  0999 V2000
   -0.1845   40.0962   -7.9017 C   0  0  0  0  0  0  0  0  0  0  0  0
   -1.4512   40.0465   -8.0540 N   0  0  0  0  0  0  0  0  0  0  0  0
    1.4170   32.5534   -4.0204 C   0  0  0  0  0  0  0  0  0  0  0  0
    0.4488   31.5613   -3.7228 O   0  0  0  0  0  0  0  0  0  0  0  0
    2.0382   39.2497   -2.0159 C   0  0  0  0  0  0  0  0  0  0  0  0
    2.0398   40.5206   -2.2081 N   0  0  0  0  0  0  0  0  0  0  0  0
    4.0085   33.9686   -2.6562 C   0  0  0  0  0  0  0  0  0  0  0  0
   -3.0562   31.3186   -2.8242 C   0  0  0  0  0  0  0  0  0  0  0  0
    0.0923   38.6029   -6.0964 C   0  0  2  0  0  0  0  0  0  0  0  0
    0.3909   38.9673   -7.5348 N   0  0  0  0  0  0  0  0  0  0  0  0
    0.9519   35.5454   -1.9307 C   0  0  2  0  0  0  0  0  0  0  0  0
   -1.7578   34.0050   -1.7406 C   0  0  1  0  0  0  0  0  0  0  0  0
   -0.3927   33.6683   -1.5757 O   0  0  0  0  0  0  0  0  0  0  0  0
    1.3451   38.7103   -5.2340 C   0  0  1  0  0  0  0  0  0  0  0  0
    1.7979   40.1249   -5.3945 O   0  0  0  0  0  0  0  0  0  0  0  0
    0.3828   34.2643   -2.5129 C   0  0  2  0  0  0  0  0  0  0  0  0
   -2.6001   32.9680   -1.0378 C   0  0  1  0  0  0  0  0  0  0  0  0
   -2.3743   31.6911   -1.6173 N   0  0  0  0  0  0  0  0  0  0  0  0
    1.1010   38.3225   -3.7770 C   0  0  2  0  0  0  0  0  0  0  0  0
    2.2589   38.4112   -2.9115 N   0  0  0  0  0  0  0  0  0  0  0  0
    1.6132   33.4537   -2.8230 C   0  0  1  0  0  0  0  0  0  0  0  0
    1.9876   32.6767   -1.6805 O   0  0  0  0  0  0  0  0  0  0  0  0
   -2.1924   32.9478    0.4258 C   0  0  2  0  0  0  0  0  0  0  0  0
   -2.9453   31.9845    1.1299 O   0  0  0  0  0  0  0  0  0  0  0  0
    0.5920   36.9046   -3.7517 C   0  0  1  0  0  0  0  0  0  0  0  0
    0.2018   36.6731   -2.3695 O   0  0  0  0  0  0  0  0  0  0  0  0
    2.6590   34.4690   -3.1020 C   0  0  1  0  0  0  0  0  0  0  0  0
    2.3075   35.6471   -2.3728 O   0  0  0  0  0  0  0  0  0  0  0  0
   -2.4617   34.3460    0.9826 C   0  0  1  0  0  0  0  0  0  0  0  0
   -2.0984   34.4100    2.3529 O   0  0  0  0  0  0  0  0  0  0  0  0
   -0.7129   36.7910   -4.5852 C   0  0  2  0  0  0  0  0  0  0  0  0
   -1.1825   35.4526   -4.5363 O   0  0  0  0  0  0  0  0  0  0  0  0
   -1.6523   35.3639    0.1787 C   0  0  1  0  0  0  0  0  0  0  0  0
   -2.0183   35.2975   -1.1986 O   0  0  0  0  0  0  0  0  0  0  0  0
   -0.4215   37.1783   -6.0478 C   0  0  1  0  0  0  0  0  0  0  0  0
   -1.6168   37.0783   -6.8311 O   0  0  0  0  0  0  0  0  0  0  0  0
   -1.9461   36.7655    0.7143 C   0  0  0  0  0  0  0  0  0  0  0  0
   -1.1929   37.7137   -0.0247 O   0  0  0  0  0  0  0  0  0  0  0  0
    0.4888   41.1799   -8.0688 N   0  0  0  0  0  0  0  0  0  0  0  0
    1.8606   38.8062   -0.8676 N   0  0  0  0  0  0  0  0  0  0  0  0
  1  2  1  0  0  0  0
  1 39  1  0  0  0  0
  3  4  1  0  0  0  0
  5  6  1  0  0  0  0
  5 40  1  0  0  0  0
  9 10  1  6  0  0  0
  9 14  1  0  0  0  0
  9 35  1  0  0  0  0
 10  1  1  0  0  0  0
 11 16  1  0  0  0  0
 11 28  1  0  0  0  0
 11 26  1  6  0  0  0
 12 17  1  0  0  0  0
 12 34  1  0  0  0  0
 12 13  1  1  0  0  0
 14 15  1  1  0  0  0
 14 19  1  0  0  0  0
 16 13  1  1  0  0  0
 16 21  1  0  0  0  0
 17 18  1  6  0  0  0
 17 23  1  0  0  0  0
 18  8  1  0  0  0  0
 19 20  1  1  0  0  0
 19 25  1  0  0  0  0
 20  5  1  0  0  0  0
 21  3  1  6  0  0  0
 21 22  1  0  0  0  0
 21 27  1  0  0  0  0
 23 24  1  1  0  0  0
 23 29  1  0  0  0  0
 25 26  1  1  0  0  0
 25 31  1  0  0  0  0
 27  7  1  1  0  0  0
 27 28  1  0  0  0  0
 29 30  1  1  0  0  0
 29 33  1  0  0  0  0
 31 32  1  6  0  0  0
 31 35  1  0  0  0  0
 33 34  1  0  0  0  0
 33 37  1  1  0  0  0
 35 36  1  6  0  0  0
 37 38  1  0  0  0  0
M  END
>  <CHROM.1>
-111.62371914,-71.94687938,-75.34067767,159.65098357,95.72485414,-81.67807199
118.11428863,-74.37511537,-66.11077687,-122.68531886,179.75185898,-0.07158187
35.94959701,-2.89710126,0.50052511,-1.29116548,-1.78481418

>  <Name>
1ntb_lig

>  <RI>
0

>  <Rbt.Current_Directory>
/home/itssahil/PROJECTS/Mol_Feturizer/New_Systems/rnas/1ntb

>  <Rbt.Executable>
rbdock ($Id: //depot/dev/client3/rdock/2013.1/src/exe/rbdock.cxx#4 $)

>  <Rbt.Library>
libRbt.so (2013.1, Build901 2013/11/27)

>  <Rbt.Parameter_File>
/export/apps/rDock/src/rDock_2013.1_src/data/scripts/dock_solv.prm

>  <Rbt.Receptor>
prm/pocket_docking_6.prm

>  <SCORE>
-13.2804

>  <SCORE.INTER>
-4.13313

>  <SCORE.INTER.CONST>
1

>  <SCORE.INTER.POLAR>
-1.05873

>  <SCORE.INTER.ROT>
11

>  <SCORE.INTER.SOLV>
7.99969

>  <SCORE.INTER.VDW>
-12.8262

>  <SCORE.INTER.norm>
-0.103328

>  <SCORE.INTRA>
-9.14728

>  <SCORE.INTRA.DIHEDRAL>
3.51065

>  <SCORE.INTRA.DIHEDRAL.0>
15.4453

>  <SCORE.INTRA.POLAR>
0

>  <SCORE.INTRA.POLAR.0>
0

>  <SCORE.INTRA.REPUL>
-0.823958

>  <SCORE.INTRA.REPUL.0>
0.823958

>  <SCORE.INTRA.SOLV>
0.54525

>  <SCORE.INTRA.SOLV.lig_0>
-99.3069

>  <SCORE.INTRA.VDW>
-7.05545

>  <SCORE.INTRA.VDW.0>
0.946495

>  <SCORE.INTRA.norm>
-0.228682

>  <SCORE.RESTR>
0

>  <SCORE.RESTR.CAVITY>
0

>  <SCORE.RESTR.norm>
0

>  <SCORE.SYSTEM>
0

>  <SCORE.SYSTEM.CONST>
0

>  <SCORE.SYSTEM.DIHEDRAL>
0

>  <SCORE.SYSTEM.SOLV>
0

>  <SCORE.SYSTEM.norm>
0

>  <SCORE.heavy>
40

>  <SCORE.norm>
-0.33201

>  <RMSD>
6.883

$$$$
1ntb_lig
 OpenBabel11021811403D
libRbt.so/2013.1/901 2013/11/27
 40 42  0  0  0  0  0  0  0  0999 V2000
    4.0722   43.1930   -1.8282 C   0  0  0  0  0  0  0  0  0  0  0  0
    4.7620   43.0141   -0.7688 N   0  0  0  0  0  0  0  0  0  0  0  0
   -2.5538   35.5913   -6.3220 C   0  0  0  0  0  0  0  0  0  0  0  0
   -3.3760   36.5369   -5.6584 O   0  0  0  0  0  0  0  0  0  0  0  0
    1.6032   37.7106   -0.8084 C   0  0  0  0  0  0  0  0  0  0  0  0
    0.3474   37.7791   -0.5430 N   0  0  0  0  0  0  0  0  0  0  0  0
   -0.6038   37.1534   -8.4048 C   0  0  0  0  0  0  0  0  0  0  0  0
    0.0873   31.7804   -5.9019 C   0  0  0  0  0  0  0  0  0  0  0  0
    2.9297   41.4165   -2.8791 C   0  0  2  0  0  0  0  0  0  0  0  0
    4.1840   42.2534   -2.7473 N   0  0  0  0  0  0  0  0  0  0  0  0
    0.3774   37.4070   -5.0390 C   0  0  2  0  0  0  0  0  0  0  0  0
   -0.9355   34.1693   -4.0674 C   0  0  1  0  0  0  0  0  0  0  0  0
   -0.0195   35.2138   -4.3397 O   0  0  0  0  0  0  0  0  0  0  0  0
    3.1505   40.0106   -2.3318 C   0  0  1  0  0  0  0  0  0  0  0  0
    3.5672   40.2158   -0.9119 O   0  0  0  0  0  0  0  0  0  0  0  0
   -0.6416   36.2954   -4.8669 C   0  0  2  0  0  0  0  0  0  0  0  0
   -0.1584   32.9223   -3.7212 C   0  0  1  0  0  0  0  0  0  0  0  0
    0.6525   32.5392   -4.8226 N   0  0  0  0  0  0  0  0  0  0  0  0
    1.9199   39.1167   -2.4704 C   0  0  2  0  0  0  0  0  0  0  0  0
    2.0740   37.7697   -1.9612 N   0  0  0  0  0  0  0  0  0  0  0  0
   -1.1126   36.0425   -6.2745 C   0  0  1  0  0  0  0  0  0  0  0  0
   -0.2723   35.0694   -6.9039 O   0  0  0  0  0  0  0  0  0  0  0  0
    0.7191   33.2361   -2.5212 C   0  0  2  0  0  0  0  0  0  0  0  0
    1.4777   32.1026   -2.1603 O   0  0  0  0  0  0  0  0  0  0  0  0
    1.5638   39.0381   -3.9323 C   0  0  1  0  0  0  0  0  0  0  0  0
    0.2875   38.3411   -3.9683 O   0  0  0  0  0  0  0  0  0  0  0  0
   -0.9557   37.3529   -6.9533 C   0  0  1  0  0  0  0  0  0  0  0  0
    0.0979   38.0501   -6.2847 O   0  0  0  0  0  0  0  0  0  0  0  0
   -0.2147   33.6380   -1.3793 C   0  0  1  0  0  0  0  0  0  0  0  0
    0.5349   33.9543   -0.2167 O   0  0  0  0  0  0  0  0  0  0  0  0
    1.2864   40.4597   -4.4913 C   0  0  2  0  0  0  0  0  0  0  0  0
    0.9395   40.3616   -5.8639 O   0  0  0  0  0  0  0  0  0  0  0  0
   -1.0386   34.8496   -1.8162 C   0  0  1  0  0  0  0  0  0  0  0  0
   -1.7909   34.5300   -2.9855 O   0  0  0  0  0  0  0  0  0  0  0  0
    2.5534   41.3240   -4.3439 C   0  0  1  0  0  0  0  0  0  0  0  0
    2.3137   42.6403   -4.8560 O   0  0  0  0  0  0  0  0  0  0  0  0
   -1.9955   35.2320   -0.6867 C   0  0  0  0  0  0  0  0  0  0  0  0
   -2.8998   34.1627   -0.4604 O   0  0  0  0  0  0  0  0  0  0  0  0
    3.3344   44.2324   -2.0042 N   0  0  0  0  0  0  0  0  0  0  0  0
    2.4212   37.6335    0.1252 N   0  0  0  0  0  0  0  0  0  0  0  0
  1  2  1  0  0  0  0
  1 39  1  0  0  0  0
  3  4  1  0  0  0  0
  5  6  1  0  0  0  0
  5 40  1  0  0  0  0
  9 10  1  6  0  0  0
  9 14  1  0  0  0  0
  9 35  1  0  0  0  0
 10  1  1  0  0  0  0
 11 16  1  0  0  0  0
 11 28  1  0  0  0  0
 11 26  1  1  0  0  0
 12 17  1  0  0  0  0
 12 34  1  0  0  0  0
 12 13  1  1  0  0  0
 14 15  1  1  0  0  0
 14 19  1  0  0  0  0
 16 13  1  6  0  0  0
 16 21  1  0  0  0  0
 17 18  1  6  0  0  0
 17 23  1  0  0  0  0
 18  8  1  0  0  0  0
 19 20  1  6  0  0  0
 19 25  1  0  0  0  0
 20  5  1  0  0  0  0
 21  3  1  6  0  0  0
 21 22  1  0  0  0  0
 21 27  1  0  0  0  0
 23 24  1  1  0  0  0
 23 29  1  0  0  0  0
 25 26  1  1  0  0  0
 25 31  1  0  0  0  0
 27  7  1  6  0  0  0
 27 28  1  0  0  0  0
 29 30  1  1  0  0  0
 29 33  1  0  0  0  0
 31 32  1  6  0  0  0
 31 35  1  0  0  0  0
 33 34  1  0  0  0  0
 33 37  1  1  0  0  0
 35 36  1  1  0  0  0
 37 38  1  0  0  0  0
M  END
>  <CHROM.1>
-109.04189558,109.38776440,159.00482658,169.96255148,175.93247437,-82.36179423
97.24380993,70.30089129,55.25697762,-136.88731640,-62.98174123,0.68446603
37.31988731,-3.47691967,-0.46274473,1.05125642,2.25221583

>  <Name>
1ntb_lig

>  <RI>
0

>  <Rbt.Current_Directory>
/home/itssahil/PROJECTS/Mol_Feturizer/New_Systems/rnas/1ntb

>  <Rbt.Executable>
rbdock ($Id: //depot/dev/client3/rdock/2013.1/src/exe/rbdock.cxx#4 $)

>  <Rbt.Library>
libRbt.so (2013.1, Build901 2013/11/27)

>  <Rbt.Parameter_File>
/export/apps/rDock/src/rDock_2013.1_src/data/scripts/dock_solv.prm

>  <Rbt.Receptor>
prm/pocket_docking_7.prm

>  <SCORE>
-13.7944

>  <SCORE.INTER>
-1.52561

>  <SCORE.INTER.CONST>
1

>  <SCORE.INTER.POLAR>
-0.72111

>  <SCORE.INTER.ROT>
11

>  <SCORE.INTER.SOLV>
7.03007

>  <SCORE.INTER.VDW>
-11.8901

>  <SCORE.INTER.norm>
-0.0381401

>  <SCORE.INTRA>
-12.2688

>  <SCORE.INTRA.DIHEDRAL>
-3.35363

>  <SCORE.INTRA.DIHEDRAL.0>
15.4453

>  <SCORE.INTRA.POLAR>
0

>  <SCORE.INTRA.POLAR.0>
0

>  <SCORE.INTRA.REPUL>
-0.813938

>  <SCORE.INTRA.REPUL.0>
0.823958

>  <SCORE.INTRA.SOLV>
-0.0560129

>  <SCORE.INTRA.SOLV.lig_0>
-99.3069

>  <SCORE.INTRA.VDW>
-6.49428

>  <SCORE.INTRA.VDW.0>
0.946495

>  <SCORE.INTRA.norm>
-0.30672

>  <SCORE.RESTR>
0

>  <SCORE.RESTR.CAVITY>
0

>  <SCORE.RESTR.norm>
0

>  <SCORE.SYSTEM>
0

>  <SCORE.SYSTEM.CONST>
0

>  <SCORE.SYSTEM.DIHEDRAL>
0

>  <SCORE.SYSTEM.SOLV>
0

>  <SCORE.SYSTEM.norm>
0

>  <SCORE.heavy>
40

>  <SCORE.norm>
-0.34486

>  <RMSD>
6.901

$$$$
1ntb_lig
 OpenBabel11021811403D
libRbt.so/2013.1/901 2013/11/27
 40 42  0  0  0  0  0  0  0  0999 V2000
    4.1543   40.7899   -1.4130 C   0  0  0  0  0  0  0  0  0  0  0  0
    4.4716   41.1192   -2.6051 N   0  0  0  0  0  0  0  0  0  0  0  0
   -1.1611   32.1032    2.6919 C   0  0  0  0  0  0  0  0  0  0  0  0
    0.0990   31.6487    2.2274 O   0  0  0  0  0  0  0  0  0  0  0  0
    0.4910   36.0357   -3.2971 C   0  0  0  0  0  0  0  0  0  0  0  0
    0.4182   36.6156   -4.4419 N   0  0  0  0  0  0  0  0  0  0  0  0
   -0.9258   34.7606    4.5527 C   0  0  0  0  0  0  0  0  0  0  0  0
   -5.6254   32.9798    0.9080 C   0  0  0  0  0  0  0  0  0  0  0  0
    2.6155   39.0716   -0.9177 C   0  0  2  0  0  0  0  0  0  0  0  0
    2.8760   40.5331   -1.2130 N   0  0  0  0  0  0  0  0  0  0  0  0
   -0.3961   35.3436    1.1271 C   0  0  2  0  0  0  0  0  0  0  0  0
   -2.6078   32.7030   -0.0067 C   0  0  1  0  0  0  0  0  0  0  0  0
   -2.0772   33.9945    0.2265 O   0  0  0  0  0  0  0  0  0  0  0  0
    1.4555   38.5431   -1.7543 C   0  0  1  0  0  0  0  0  0  0  0  0
    1.8647   38.7873   -3.1702 O   0  0  0  0  0  0  0  0  0  0  0  0
   -0.9700   33.9437    1.0052 C   0  0  2  0  0  0  0  0  0  0  0  0
   -3.8677   32.8384   -0.8270 C   0  0  1  0  0  0  0  0  0  0  0  0
   -4.8285   33.6013   -0.1113 N   0  0  0  0  0  0  0  0  0  0  0  0
    1.1339   37.0775   -1.4693 C   0  0  2  0  0  0  0  0  0  0  0  0
    0.0412   36.5230   -2.2415 N   0  0  0  0  0  0  0  0  0  0  0  0
   -1.3003   33.5846    2.4296 C   0  0  1  0  0  0  0  0  0  0  0  0
   -2.6273   34.0171    2.7478 O   0  0  0  0  0  0  0  0  0  0  0  0
   -3.5088   33.5478   -2.1218 C   0  0  2  0  0  0  0  0  0  0  0  0
   -4.6573   33.7099   -2.9252 O   0  0  0  0  0  0  0  0  0  0  0  0
    0.7986   36.9505   -0.0058 C   0  0  1  0  0  0  0  0  0  0  0  0
    0.6957   35.5188    0.2303 O   0  0  0  0  0  0  0  0  0  0  0  0
   -0.3177   34.3497    3.2367 C   0  0  1  0  0  0  0  0  0  0  0  0
    0.0393   35.5078    2.4787 O   0  0  0  0  0  0  0  0  0  0  0  0
   -2.4771   32.6751   -2.8369 C   0  0  1  0  0  0  0  0  0  0  0  0
   -2.0845   33.2771   -4.0605 O   0  0  0  0  0  0  0  0  0  0  0  0
    1.9918   37.4382    0.8594 C   0  0  2  0  0  0  0  0  0  0  0  0
    1.6610   37.2969    2.2322 O   0  0  0  0  0  0  0  0  0  0  0  0
   -1.2612   32.4989   -1.9268 C   0  0  1  0  0  0  0  0  0  0  0  0
   -1.6580   31.8944   -0.6969 O   0  0  0  0  0  0  0  0  0  0  0  0
    2.2755   38.9210    0.5512 C   0  0  1  0  0  0  0  0  0  0  0  0
    3.3750   39.3868    1.3426 O   0  0  0  0  0  0  0  0  0  0  0  0
   -0.2429   31.5998   -2.6282 C   0  0  0  0  0  0  0  0  0  0  0  0
   -0.8207   30.3224   -2.8446 O   0  0  0  0  0  0  0  0  0  0  0  0
    5.0164   40.7353   -0.4593 N   0  0  0  0  0  0  0  0  0  0  0  0
    0.9873   34.8980   -3.2195 N   0  0  0  0  0  0  0  0  0  0  0  0
  1  2  1  0  0  0  0
  1 39  1  0  0  0  0
  3  4  1  0  0  0  0
  5  6  1  0  0  0  0
  5 40  1  0  0  0  0
  9 10  1  6  0  0  0
  9 14  1  0  0  0  0
  9 35  1  0  0  0  0
 10  1  1  0  0  0  0
 11 16  1  0  0  0  0
 11 28  1  0  0  0  0
 11 26  1  6  0  0  0
 12 17  1  0  0  0  0
 12 34  1  0  0  0  0
 12 13  1  6  0  0  0
 14 15  1  6  0  0  0
 14 19  1  0  0  0  0
 16 13  1  6  0  0  0
 16 21  1  0  0  0  0
 17 18  1  1  0  0  0
 17 23  1  0  0  0  0
 18  8  1  0  0  0  0
 19 20  1  6  0  0  0
 19 25  1  0  0  0  0
 20  5  1  0  0  0  0
 21  3  1  1  0  0  0
 21 22  1  0  0  0  0
 21 27  1  0  0  0  0
 23 24  1  6  0  0  0
 23 29  1  0  0  0  0
 25 26  1  1  0  0  0
 25 31  1  0  0  0  0
 27  7  1  1  0  0  0
 27 28  1  0  0  0  0
 29 30  1  6  0  0  0
 29 33  1  0  0  0  0
 31 32  1  1  0  0  0
 31 35  1  0  0  0  0
 33 34  1  0  0  0  0
 33 37  1  6  0  0  0
 35 36  1  1  0  0  0
 37 38  1  0  0  0  0
M  END
>  <CHROM.1>
-132.64145889,111.69922714,156.35999835,177.57600147,175.76080357,-80.73717299
90.04825574,-101.88313588,50.26925892,-141.00157632,-62.14683187,-0.19951633
35.38467386,-0.44141525,0.11110389,-0.86977031,-1.51610715

>  <Name>
1ntb_lig

>  <RI>
0

>  <Rbt.Current_Directory>
/home/itssahil/PROJECTS/Mol_Feturizer/New_Systems/rnas/1ntb

>  <Rbt.Executable>
rbdock ($Id: //depot/dev/client3/rdock/2013.1/src/exe/rbdock.cxx#4 $)

>  <Rbt.Library>
libRbt.so (2013.1, Build901 2013/11/27)

>  <Rbt.Parameter_File>
/export/apps/rDock/src/rDock_2013.1_src/data/scripts/dock_solv.prm

>  <Rbt.Receptor>
prm/pocket_docking_7.prm

>  <SCORE>
-9.52544

>  <SCORE.INTER>
2.26142

>  <SCORE.INTER.CONST>
1

>  <SCORE.INTER.POLAR>
-0.677988

>  <SCORE.INTER.ROT>
11

>  <SCORE.INTER.SOLV>
13.4898

>  <SCORE.INTER.VDW>
-11.6624

>  <SCORE.INTER.norm>
0.0565354

>  <SCORE.INTRA>
-11.7869

>  <SCORE.INTRA.DIHEDRAL>
-4.4251

>  <SCORE.INTRA.DIHEDRAL.0>
15.4453

>  <SCORE.INTRA.POLAR>
0

>  <SCORE.INTRA.POLAR.0>
0

>  <SCORE.INTRA.REPUL>
-0.810412

>  <SCORE.INTRA.REPUL.0>
0.823958

>  <SCORE.INTRA.SOLV>
0.0198977

>  <SCORE.INTRA.SOLV.lig_0>
-99.3069

>  <SCORE.INTRA.VDW>
-5.5322

>  <SCORE.INTRA.VDW.0>
0.946495

>  <SCORE.INTRA.norm>
-0.294671

>  <SCORE.RESTR>
0

>  <SCORE.RESTR.CAVITY>
0

>  <SCORE.RESTR.norm>
0

>  <SCORE.SYSTEM>
0

>  <SCORE.SYSTEM.CONST>
0

>  <SCORE.SYSTEM.DIHEDRAL>
0

>  <SCORE.SYSTEM.SOLV>
0

>  <SCORE.SYSTEM.norm>
0

>  <SCORE.heavy>
40

>  <SCORE.norm>
-0.238136

>  <RMSD>
6.912

$$$$
1ntb_lig
 OpenBabel11021811403D
libRbt.so/2013.1/901 2013/11/27
 40 42  0  0  0  0  0  0  0  0999 V2000
   -1.9978   30.3139   -2.8789 C   0  0  0  0  0  0  0  0  0  0  0  0
   -2.4509   30.1667   -1.6944 N   0  0  0  0  0  0  0  0  0  0  0  0
    3.1635   40.0259   -2.5347 C   0  0  0  0  0  0  0  0  0  0  0  0
    3.4891   40.9433   -3.5656 O   0  0  0  0  0  0  0  0  0  0  0  0
   -1.7953   35.3870    0.4668 C   0  0  0  0  0  0  0  0  0  0  0  0
   -0.8120   35.2831    1.2880 N   0  0  0  0  0  0  0  0  0  0  0  0
    1.4213   39.4318   -5.2164 C   0  0  0  0  0  0  0  0  0  0  0  0
    3.6619   37.2876    0.8867 C   0  0  0  0  0  0  0  0  0  0  0  0
   -1.1851   32.5277   -2.8116 C   0  0  2  0  0  0  0  0  0  0  0  0
   -2.1450   31.5165   -3.4007 N   0  0  0  0  0  0  0  0  0  0  0  0
    0.5223   37.4665   -2.4443 C   0  0  2  0  0  0  0  0  0  0  0  0
    0.5884   38.3280    0.4394 C   0  0  1  0  0  0  0  0  0  0  0  0
    0.6242   39.0809   -0.7589 O   0  0  0  0  0  0  0  0  0  0  0  0
   -1.9357   33.6152   -2.0508 C   0  0  1  0  0  0  0  0  0  0  0  0
   -2.7190   32.8815   -1.0116 O   0  0  0  0  0  0  0  0  0  0  0  0
    1.3820   38.4749   -1.7041 C   0  0  2  0  0  0  0  0  0  0  0  0
    1.7300   38.7699    1.3227 C   0  0  1  0  0  0  0  0  0  0  0  0
    2.9671   38.5246    0.6694 N   0  0  0  0  0  0  0  0  0  0  0  0
   -1.0103   34.6781   -1.4622 C   0  0  2  0  0  0  0  0  0  0  0  0
   -1.6723   35.7340   -0.7242 N   0  0  0  0  0  0  0  0  0  0  0  0
    1.7980   39.4317   -2.7897 C   0  0  1  0  0  0  0  0  0  0  0  0
    0.8257   40.4739   -2.9220 O   0  0  0  0  0  0  0  0  0  0  0  0
    1.5717   40.2586    1.5819 C   0  0  2  0  0  0  0  0  0  0  0  0
    2.6228   40.7274    2.3980 O   0  0  0  0  0  0  0  0  0  0  0  0
   -0.2350   35.2994   -2.5949 C   0  0  1  0  0  0  0  0  0  0  0  0
    0.7510   36.1516   -1.9486 O   0  0  0  0  0  0  0  0  0  0  0  0
    1.8137   38.6030   -4.0208 C   0  0  1  0  0  0  0  0  0  0  0  0
    0.8727   37.5444   -3.8279 O   0  0  0  0  0  0  0  0  0  0  0  0
    0.2268   40.4482    2.2838 C   0  0  1  0  0  0  0  0  0  0  0  0
    0.0015   41.8225    2.5561 O   0  0  0  0  0  0  0  0  0  0  0  0
    0.5750   34.2098   -3.3480 C   0  0  2  0  0  0  0  0  0  0  0  0
    1.3080   34.8175   -4.4004 O   0  0  0  0  0  0  0  0  0  0  0  0
   -0.8830   39.9045    1.3834 C   0  0  1  0  0  0  0  0  0  0  0  0
   -0.6543   38.5231    1.1101 O   0  0  0  0  0  0  0  0  0  0  0  0
   -0.3942   33.1659   -3.9355 C   0  0  1  0  0  0  0  0  0  0  0  0
    0.3384   32.1525   -4.6346 O   0  0  0  0  0  0  0  0  0  0  0  0
   -2.2248   40.0644    2.0986 C   0  0  0  0  0  0  0  0  0  0  0  0
   -2.5679   41.4402    2.1427 O   0  0  0  0  0  0  0  0  0  0  0  0
   -1.4550   29.3494   -3.5353 N   0  0  0  0  0  0  0  0  0  0  0  0
   -2.9399   35.0784    0.8428 N   0  0  0  0  0  0  0  0  0  0  0  0
  1  2  1  0  0  0  0
  1 39  1  0  0  0  0
  3  4  1  0  0  0  0
  5  6  1  0  0  0  0
  5 40  1  0  0  0  0
  9 10  1  6  0  0  0
  9 14  1  0  0  0  0
  9 35  1  0  0  0  0
 10  1  1  0  0  0  0
 11 16  1  0  0  0  0
 11 28  1  0  0  0  0
 11 26  1  1  0  0  0
 12 17  1  0  0  0  0
 12 34  1  0  0  0  0
 12 13  1  6  0  0  0
 14 15  1  1  0  0  0
 14 19  1  0  0  0  0
 16 13  1  1  0  0  0
 16 21  1  0  0  0  0
 17 18  1  6  0  0  0
 17 23  1  0  0  0  0
 18  8  1  0  0  0  0
 19 20  1  6  0  0  0
 19 25  1  0  0  0  0
 20  5  1  0  0  0  0
 21  3  1  1  0  0  0
 21 22  1  0  0  0  0
 21 27  1  0  0  0  0
 23 24  1  1  0  0  0
 23 29  1  0  0  0  0
 25 26  1  1  0  0  0
 25 31  1  0  0  0  0
 27  7  1  6  0  0  0
 27 28  1  0  0  0  0
 29 30  1  6  0  0  0
 29 33  1  0  0  0  0
 31 32  1  6  0  0  0
 31 35  1  0  0  0  0
 33 34  1  0  0  0  0
 33 37  1  1  0  0  0
 35 36  1  1  0  0  0
 37 38  1  0  0  0  0
M  END
>  <CHROM.1>
-115.42164072,74.30551769,172.80441264,89.90911597,85.28022575,-92.29872259
88.27552541,70.13469179,-178.45280246,-121.75546309,70.78129649,0.10013923
36.81019405,-1.21684346,1.98500856,-0.89552189,-2.42406151

>  <Name>
1ntb_lig

>  <RI>
0

>  <Rbt.Current_Directory>
/home/itssahil/PROJECTS/Mol_Feturizer/New_Systems/rnas/1ntb

>  <Rbt.Executable>
rbdock ($Id: //depot/dev/client3/rdock/2013.1/src/exe/rbdock.cxx#4 $)

>  <Rbt.Library>
libRbt.so (2013.1, Build901 2013/11/27)

>  <Rbt.Parameter_File>
/export/apps/rDock/src/rDock_2013.1_src/data/scripts/dock_solv.prm

>  <Rbt.Receptor>
prm/pocket_docking_5.prm

>  <SCORE>
-4.57642

>  <SCORE.INTER>
4.92433

>  <SCORE.INTER.CONST>
1

>  <SCORE.INTER.POLAR>
0

>  <SCORE.INTER.ROT>
11

>  <SCORE.INTER.SOLV>
10.4427

>  <SCORE.INTER.VDW>
-11.1314

>  <SCORE.INTER.norm>
0.123108

>  <SCORE.INTRA>
-9.50075

>  <SCORE.INTRA.DIHEDRAL>
2.68032

>  <SCORE.INTRA.DIHEDRAL.0>
15.4453

>  <SCORE.INTRA.POLAR>
0

>  <SCORE.INTRA.POLAR.0>
0

>  <SCORE.INTRA.REPUL>
-0.823958

>  <SCORE.INTRA.REPUL.0>
0.823958

>  <SCORE.INTRA.SOLV>
0.0104562

>  <SCORE.INTRA.SOLV.lig_0>
-99.3069

>  <SCORE.INTRA.VDW>
-6.72635

>  <SCORE.INTRA.VDW.0>
0.946495

>  <SCORE.INTRA.norm>
-0.237519

>  <SCORE.RESTR>
0

>  <SCORE.RESTR.CAVITY>
0

>  <SCORE.RESTR.norm>
0

>  <SCORE.SYSTEM>
0

>  <SCORE.SYSTEM.CONST>
0

>  <SCORE.SYSTEM.DIHEDRAL>
0

>  <SCORE.SYSTEM.SOLV>
0

>  <SCORE.SYSTEM.norm>
0

>  <SCORE.heavy>
40

>  <SCORE.norm>
-0.114411

>  <RMSD>
6.923

$$$$
1ntb_lig
 OpenBabel11021811403D
libRbt.so/2013.1/901 2013/11/27
 40 42  0  0  0  0  0  0  0  0999 V2000
    0.5356   33.4602    1.7535 C   0  0  0  0  0  0  0  0  0  0  0  0
    1.4660   34.2936    2.0181 N   0  0  0  0  0  0  0  0  0  0  0  0
    0.9258   33.3942   -9.2724 C   0  0  0  0  0  0  0  0  0  0  0  0
    2.2856   33.6137   -8.9359 O   0  0  0  0  0  0  0  0  0  0  0  0
   -2.3933   34.5305   -3.2684 C   0  0  0  0  0  0  0  0  0  0  0  0
   -3.4566   34.3256   -2.5760 N   0  0  0  0  0  0  0  0  0  0  0  0
    0.1967   30.5921   -7.7903 C   0  0  0  0  0  0  0  0  0  0  0  0
   -3.1801   34.6193  -10.1318 C   0  0  0  0  0  0  0  0  0  0  0  0
    0.8549   33.3417   -0.5810 C   0  0  2  0  0  0  0  0  0  0  0  0
    0.7773   32.6334    0.7544 N   0  0  0  0  0  0  0  0  0  0  0  0
    0.0704   33.4110   -5.6943 C   0  0  2  0  0  0  0  0  0  0  0  0
   -0.8870   35.7603   -8.2831 C   0  0  1  0  0  0  0  0  0  0  0  0
   -0.9583   34.9354   -7.1348 O   0  0  0  0  0  0  0  0  0  0  0  0
   -0.4229   33.1317   -1.3861 C   0  0  1  0  0  0  0  0  0  0  0  0
   -1.5147   33.6557   -0.5114 O   0  0  0  0  0  0  0  0  0  0  0  0
    0.1388   34.1495   -7.0187 C   0  0  2  0  0  0  0  0  0  0  0  0
   -2.2639   36.3070   -8.5724 C   0  0  1  0  0  0  0  0  0  0  0  0
   -3.1607   35.2378   -8.8367 N   0  0  0  0  0  0  0  0  0  0  0  0
   -0.3809   33.8035   -2.7571 C   0  0  2  0  0  0  0  0  0  0  0  0
   -1.5732   33.6389   -3.5628 N   0  0  0  0  0  0  0  0  0  0  0  0
    0.1422   33.0354   -8.0315 C   0  0  1  0  0  0  0  0  0  0  0  0
   -1.2019   32.6894   -8.3823 O   0  0  0  0  0  0  0  0  0  0  0  0
   -2.7284   37.0767   -7.3474 C   0  0  2  0  0  0  0  0  0  0  0  0
   -4.0200   37.6029   -7.5612 O   0  0  0  0  0  0  0  0  0  0  0  0
    0.7916   33.2390   -3.5165 C   0  0  1  0  0  0  0  0  0  0  0  0
    0.8843   34.0531   -4.7185 O   0  0  0  0  0  0  0  0  0  0  0  0
    0.7824   31.8993   -7.3230 C   0  0  1  0  0  0  0  0  0  0  0  0
    0.5313   32.0780   -5.9272 O   0  0  0  0  0  0  0  0  0  0  0  0
   -1.7231   38.2065   -7.1234 C   0  0  1  0  0  0  0  0  0  0  0  0
   -2.0868   38.9726   -5.9856 O   0  0  0  0  0  0  0  0  0  0  0  0
    2.1072   33.4908   -2.7315 C   0  0  2  0  0  0  0  0  0  0  0  0
    3.1990   32.9648   -3.4699 O   0  0  0  0  0  0  0  0  0  0  0  0
   -0.3334   37.6008   -6.9238 C   0  0  1  0  0  0  0  0  0  0  0  0
    0.0301   36.8304   -8.0681 O   0  0  0  0  0  0  0  0  0  0  0  0
    2.0290   32.7880   -1.3625 C   0  0  1  0  0  0  0  0  0  0  0  0
    3.2368   33.0108   -0.6250 O   0  0  0  0  0  0  0  0  0  0  0  0
    0.6775   38.7316   -6.7319 C   0  0  0  0  0  0  0  0  0  0  0  0
    0.7938   39.4626   -7.9421 O   0  0  0  0  0  0  0  0  0  0  0  0
   -0.5773   33.4401    2.3990 N   0  0  0  0  0  0  0  0  0  0  0  0
   -2.1733   35.6649   -3.7281 N   0  0  0  0  0  0  0  0  0  0  0  0
  1  2  1  0  0  0  0
  1 39  1  0  0  0  0
  3  4  1  0  0  0  0
  5  6  1  0  0  0  0
  5 40  1  0  0  0  0
  9 10  1  1  0  0  0
  9 14  1  0  0  0  0
  9 35  1  0  0  0  0
 10  1  1  0  0  0  0
 11 16  1  0  0  0  0
 11 28  1  0  0  0  0
 11 26  1  1  0  0  0
 12 17  1  0  0  0  0
 12 34  1  0  0  0  0
 12 13  1  1  0  0  0
 14 15  1  1  0  0  0
 14 19  1  0  0  0  0
 16 13  1  6  0  0  0
 16 21  1  0  0  0  0
 17 18  1  1  0  0  0
 17 23  1  0  0  0  0
 18  8  1  0  0  0  0
 19 20  1  6  0  0  0
 19 25  1  0  0  0  0
 20  5  1  0  0  0  0
 21  3  1  6  0  0  0
 21 22  1  0  0  0  0
 21 27  1  0  0  0  0
 23 24  1  6  0  0  0
 23 29  1  0  0  0  0
 25 26  1  6  0  0  0
 25 31  1  0  0  0  0
 27  7  1  6  0  0  0
 27 28  1  0  0  0  0
 29 30  1  1  0  0  0
 29 33  1  0  0  0  0
 31 32  1  6  0  0  0
 31 35  1  0  0  0  0
 33 34  1  0  0  0  0
 33 37  1  6  0  0  0
 35 36  1  1  0  0  0
 37 38  1  0  0  0  0
M  END
>  <CHROM.1>
-103.07050389,-66.92831930,-177.63469190,164.17672486,173.70493425,-80.06029133
86.25104230,-105.99828964,62.63808169,-89.90155676,-67.10997104,-0.30500272
34.55984821,-4.97335175,1.16629380,-0.98458150,1.54188917

>  <Name>
1ntb_lig

>  <RI>
0

>  <Rbt.Current_Directory>
/home/itssahil/PROJECTS/Mol_Feturizer/New_Systems/rnas/1ntb

>  <Rbt.Executable>
rbdock ($Id: //depot/dev/client3/rdock/2013.1/src/exe/rbdock.cxx#4 $)

>  <Rbt.Library>
libRbt.so (2013.1, Build901 2013/11/27)

>  <Rbt.Parameter_File>
/export/apps/rDock/src/rDock_2013.1_src/data/scripts/dock_solv.prm

>  <Rbt.Receptor>
prm/pocket_docking_8.prm

>  <SCORE>
-11.941

>  <SCORE.INTER>
0.291621

>  <SCORE.INTER.CONST>
1

>  <SCORE.INTER.POLAR>
-0.034941

>  <SCORE.INTER.ROT>
11

>  <SCORE.INTER.SOLV>
12.4058

>  <SCORE.INTER.VDW>
-14.7577

>  <SCORE.INTER.norm>
0.00729052

>  <SCORE.INTRA>
-12.2326

>  <SCORE.INTRA.DIHEDRAL>
-7.04616

>  <SCORE.INTRA.DIHEDRAL.0>
15.4453

>  <SCORE.INTRA.POLAR>
0

>  <SCORE.INTRA.POLAR.0>
0

>  <SCORE.INTRA.REPUL>
-0.823958

>  <SCORE.INTRA.REPUL.0>
0.823958

>  <SCORE.INTRA.SOLV>
0.267835

>  <SCORE.INTRA.SOLV.lig_0>
-99.3069

>  <SCORE.INTRA.VDW>
-4.72362

>  <SCORE.INTRA.VDW.0>
0.946495

>  <SCORE.INTRA.norm>
-0.305814

>  <SCORE.RESTR>
0

>  <SCORE.RESTR.CAVITY>
0

>  <SCORE.RESTR.norm>
0

>  <SCORE.SYSTEM>
0

>  <SCORE.SYSTEM.CONST>
0

>  <SCORE.SYSTEM.DIHEDRAL>
0

>  <SCORE.SYSTEM.SOLV>
0

>  <SCORE.SYSTEM.norm>
0

>  <SCORE.heavy>
40

>  <SCORE.norm>
-0.298524

>  <RMSD>
6.926

$$$$
1ntb_lig
 OpenBabel11021811403D
libRbt.so/2013.1/901 2013/11/27
 40 42  0  0  0  0  0  0  0  0999 V2000
   -1.2191   33.5018    6.9911 C   0  0  0  0  0  0  0  0  0  0  0  0
   -0.6718   32.3528    7.0939 N   0  0  0  0  0  0  0  0  0  0  0  0
    2.4079   34.0077   -3.1158 C   0  0  0  0  0  0  0  0  0  0  0  0
    3.4596   34.0398   -2.1654 O   0  0  0  0  0  0  0  0  0  0  0  0
   -1.3062   37.8458    2.2554 C   0  0  0  0  0  0  0  0  0  0  0  0
   -2.0900   38.5162    3.0223 N   0  0  0  0  0  0  0  0  0  0  0  0
    0.2926   31.6790   -2.2897 C   0  0  0  0  0  0  0  0  0  0  0  0
   -0.6742   36.7704   -5.8735 C   0  0  0  0  0  0  0  0  0  0  0  0
   -0.9997   34.2184    4.7541 C   0  0  2  0  0  0  0  0  0  0  0  0
   -1.8865   33.7179    5.8739 N   0  0  0  0  0  0  0  0  0  0  0  0
    0.0483   34.6050   -0.3572 C   0  0  2  0  0  0  0  0  0  0  0  0
    1.1070   36.8369   -3.0125 C   0  0  1  0  0  0  0  0  0  0  0  0
    0.2971   36.2136   -2.0328 O   0  0  0  0  0  0  0  0  0  0  0  0
   -1.7408   35.2211    3.8765 C   0  0  1  0  0  0  0  0  0  0  0  0
   -2.1653   36.3055    4.8122 O   0  0  0  0  0  0  0  0  0  0  0  0
    0.9321   35.1649   -1.4569 C   0  0  2  0  0  0  0  0  0  0  0  0
    0.2508   37.7855   -3.8159 C   0  0  1  0  0  0  0  0  0  0  0  0
   -0.7814   37.0639   -4.4726 N   0  0  0  0  0  0  0  0  0  0  0  0
   -0.8957   35.7333    2.7120 C   0  0  2  0  0  0  0  0  0  0  0  0
   -1.5510   36.6933    1.8480 N   0  0  0  0  0  0  0  0  0  0  0  0
    1.0746   34.0041   -2.4052 C   0  0  1  0  0  0  0  0  0  0  0  0
    0.0088   34.0195   -3.3606 O   0  0  0  0  0  0  0  0  0  0  0  0
   -0.3575   38.7939   -2.8558 C   0  0  2  0  0  0  0  0  0  0  0  0
   -1.1787   39.7024   -3.5564 O   0  0  0  0  0  0  0  0  0  0  0  0
   -0.4802   34.5470    1.8811 C   0  0  1  0  0  0  0  0  0  0  0  0
    0.4690   35.0812    0.9168 O   0  0  0  0  0  0  0  0  0  0  0  0
    0.9515   32.8063   -1.5376 C   0  0  1  0  0  0  0  0  0  0  0  0
    0.1506   33.1803   -0.4143 O   0  0  0  0  0  0  0  0  0  0  0  0
    0.8041   39.5308   -2.1886 C   0  0  1  0  0  0  0  0  0  0  0  0
    0.3145   40.4921   -1.2668 O   0  0  0  0  0  0  0  0  0  0  0  0
    0.3202   33.5403    2.7507 C   0  0  2  0  0  0  0  0  0  0  0  0
    0.7135   32.4390    1.9466 O   0  0  0  0  0  0  0  0  0  0  0  0
    1.6858   38.5130   -1.4643 C   0  0  1  0  0  0  0  0  0  0  0  0
    2.1763   37.5470   -2.3924 O   0  0  0  0  0  0  0  0  0  0  0  0
   -0.5700   33.0396    3.9045 C   0  0  1  0  0  0  0  0  0  0  0  0
    0.1546   32.1086    4.7171 O   0  0  0  0  0  0  0  0  0  0  0  0
    2.8653   39.2454   -0.8241 C   0  0  0  0  0  0  0  0  0  0  0  0
    3.6500   39.8442   -1.8429 O   0  0  0  0  0  0  0  0  0  0  0  0
   -1.1088   34.4031    7.9028 N   0  0  0  0  0  0  0  0  0  0  0  0
   -0.2607   38.3747    1.8385 N   0  0  0  0  0  0  0  0  0  0  0  0
  1  2  1  0  0  0  0
  1 39  1  0  0  0  0
  3  4  1  0  0  0  0
  5  6  1  0  0  0  0
  5 40  1  0  0  0  0
  9 10  1  1  0  0  0
  9 14  1  0  0  0  0
  9 35  1  0  0  0  0
 10  1  1  0  0  0  0
 11 16  1  0  0  0  0
 11 28  1  0  0  0  0
 11 26  1  1  0  0  0
 12 17  1  0  0  0  0
 12 34  1  0  0  0  0
 12 13  1  1  0  0  0
 14 15  1  1  0  0  0
 14 19  1  0  0  0  0
 16 13  1  6  0  0  0
 16 21  1  0  0  0  0
 17 18  1  1  0  0  0
 17 23  1  0  0  0  0
 18  8  1  0  0  0  0
 19 20  1  6  0  0  0
 19 25  1  0  0  0  0
 20  5  1  0  0  0  0
 21  3  1  6  0  0  0
 21 22  1  0  0  0  0
 21 27  1  0  0  0  0
 23 24  1  6  0  0  0
 23 29  1  0  0  0  0
 25 26  1  6  0  0  0
 25 31  1  0  0  0  0
 27  7  1  6  0  0  0
 27 28  1  0  0  0  0
 29 30  1  1  0  0  0
 29 33  1  0  0  0  0
 31 32  1  6  0  0  0
 31 35  1  0  0  0  0
 33 34  1  0  0  0  0
 33 37  1  6  0  0  0
 35 36  1  1  0  0  0
 37 38  1  0  0  0  0
M  END
>  <CHROM.1>
-144.69260285,-85.85604681,177.02380103,167.78079661,176.22109149,-102.68841510
91.95182707,-96.02989772,55.15204109,-130.58830949,-62.78148380,0.12990392
35.74547378,0.35965321,2.34319858,-1.27996778,2.72446689

>  <Name>
1ntb_lig

>  <RI>
0

>  <Rbt.Current_Directory>
/home/itssahil/PROJECTS/Mol_Feturizer/New_Systems/rnas/1ntb

>  <Rbt.Executable>
rbdock ($Id: //depot/dev/client3/rdock/2013.1/src/exe/rbdock.cxx#4 $)

>  <Rbt.Library>
libRbt.so (2013.1, Build901 2013/11/27)

>  <Rbt.Parameter_File>
/export/apps/rDock/src/rDock_2013.1_src/data/scripts/dock_solv.prm

>  <Rbt.Receptor>
prm/pocket_docking_8.prm

>  <SCORE>
-19.3524

>  <SCORE.INTER>
-7.4766

>  <SCORE.INTER.CONST>
1

>  <SCORE.INTER.POLAR>
-2.10417

>  <SCORE.INTER.ROT>
11

>  <SCORE.INTER.SOLV>
10.7407

>  <SCORE.INTER.VDW>
-12.4841

>  <SCORE.INTER.norm>
-0.186915

>  <SCORE.INTRA>
-11.8758

>  <SCORE.INTRA.DIHEDRAL>
-4.20267

>  <SCORE.INTRA.DIHEDRAL.0>
15.4453

>  <SCORE.INTRA.POLAR>
0

>  <SCORE.INTRA.POLAR.0>
0

>  <SCORE.INTRA.REPUL>
-0.823958

>  <SCORE.INTRA.REPUL.0>
0.823958

>  <SCORE.INTRA.SOLV>
-0.624471

>  <SCORE.INTRA.SOLV.lig_0>
-99.3069

>  <SCORE.INTRA.VDW>
-5.34241

>  <SCORE.INTRA.VDW.0>
0.946495

>  <SCORE.INTRA.norm>
-0.296894

>  <SCORE.RESTR>
0

>  <SCORE.RESTR.CAVITY>
0

>  <SCORE.RESTR.norm>
0

>  <SCORE.SYSTEM>
0

>  <SCORE.SYSTEM.CONST>
0

>  <SCORE.SYSTEM.DIHEDRAL>
0

>  <SCORE.SYSTEM.SOLV>
0

>  <SCORE.SYSTEM.norm>
0

>  <SCORE.heavy>
40

>  <SCORE.norm>
-0.483809

>  <RMSD>
6.932

$$$$
1ntb_lig
 OpenBabel11021811403D
libRbt.so/2013.1/901 2013/11/27
 40 42  0  0  0  0  0  0  0  0999 V2000
    0.4359   40.2243   -7.3704 C   0  0  0  0  0  0  0  0  0  0  0  0
   -0.4201   40.3798   -8.3049 N   0  0  0  0  0  0  0  0  0  0  0  0
   -1.2588   33.0261    0.0307 C   0  0  0  0  0  0  0  0  0  0  0  0
   -1.9450   32.3954   -1.0377 O   0  0  0  0  0  0  0  0  0  0  0  0
   -1.7064   34.3955   -6.2091 C   0  0  0  0  0  0  0  0  0  0  0  0
   -1.0028   33.3200   -6.1991 N   0  0  0  0  0  0  0  0  0  0  0  0
    1.8789   32.1873   -0.1472 C   0  0  0  0  0  0  0  0  0  0  0  0
   -0.6833   37.0349    2.5253 C   0  0  0  0  0  0  0  0  0  0  0  0
    0.3202   38.4236   -5.8505 C   0  0  2  0  0  0  0  0  0  0  0  0
   -0.0538   39.8468   -6.2051 N   0  0  0  0  0  0  0  0  0  0  0  0
    0.9098   34.6556   -2.4546 C   0  0  2  0  0  0  0  0  0  0  0  0
   -1.6685   36.1030   -0.3563 C   0  0  1  0  0  0  0  0  0  0  0  0
   -0.4668   35.9603   -1.0908 O   0  0  0  0  0  0  0  0  0  0  0  0
   -0.9191   37.5403   -5.7555 C   0  0  1  0  0  0  0  0  0  0  0  0
   -1.5718   37.6547   -7.0944 O   0  0  0  0  0  0  0  0  0  0  0  0
   -0.3285   34.7040   -1.5781 C   0  0  2  0  0  0  0  0  0  0  0  0
   -1.6758   37.4624    0.3000 C   0  0  1  0  0  0  0  0  0  0  0  0
   -0.5800   37.5696    1.1973 N   0  0  0  0  0  0  0  0  0  0  0  0
   -0.5954   36.0985   -5.3694 C   0  0  2  0  0  0  0  0  0  0  0  0
   -1.7379   35.2141   -5.2694 N   0  0  0  0  0  0  0  0  0  0  0  0
   -0.0167   33.7103   -0.4908 C   0  0  1  0  0  0  0  0  0  0  0  0
    0.6734   34.3599    0.5821 O   0  0  0  0  0  0  0  0  0  0  0  0
   -1.5499   38.5102   -0.7931 C   0  0  2  0  0  0  0  0  0  0  0  0
   -1.5415   39.8044   -0.2312 O   0  0  0  0  0  0  0  0  0  0  0  0
    0.1111   36.1202   -4.0388 C   0  0  1  0  0  0  0  0  0  0  0  0
    0.5557   34.7509   -3.8302 O   0  0  0  0  0  0  0  0  0  0  0  0
    0.8838   32.7266   -1.1419 C   0  0  1  0  0  0  0  0  0  0  0  0
    1.5655   33.4122   -2.1948 O   0  0  0  0  0  0  0  0  0  0  0  0
   -2.7560   38.3379   -1.7166 C   0  0  1  0  0  0  0  0  0  0  0  0
   -2.7071   39.2831   -2.7739 O   0  0  0  0  0  0  0  0  0  0  0  0
    1.4032   36.9755   -4.1344 C   0  0  2  0  0  0  0  0  0  0  0  0
    2.0598   36.9710   -2.8762 O   0  0  0  0  0  0  0  0  0  0  0  0
   -2.7471   36.9179   -2.2835 C   0  0  1  0  0  0  0  0  0  0  0  0
   -2.7954   35.9692   -1.2192 O   0  0  0  0  0  0  0  0  0  0  0  0
    1.0327   38.4224   -4.5133 C   0  0  1  0  0  0  0  0  0  0  0  0
    2.2154   39.2255   -4.6054 O   0  0  0  0  0  0  0  0  0  0  0  0
   -3.9707   36.7348   -3.1817 C   0  0  0  0  0  0  0  0  0  0  0  0
   -3.7712   37.4483   -4.3915 O   0  0  0  0  0  0  0  0  0  0  0  0
    1.6921   40.4446   -7.5412 N   0  0  0  0  0  0  0  0  0  0  0  0
   -2.3623   34.6865   -7.2249 N   0  0  0  0  0  0  0  0  0  0  0  0
  1  2  1  0  0  0  0
  1 39  1  0  0  0  0
  3  4  1  0  0  0  0
  5  6  1  0  0  0  0
  5 40  1  0  0  0  0
  9 10  1  1  0  0  0
  9 14  1  0  0  0  0
  9 35  1  0  0  0  0
 10  1  1  0  0  0  0
 11 16  1  0  0  0  0
 11 28  1  0  0  0  0
 11 26  1  6  0  0  0
 12 17  1  0  0  0  0
 12 34  1  0  0  0  0
 12 13  1  6  0  0  0
 14 15  1  6  0  0  0
 14 19  1  0  0  0  0
 16 13  1  1  0  0  0
 16 21  1  0  0  0  0
 17 18  1  1  0  0  0
 17 23  1  0  0  0  0
 18  8  1  0  0  0  0
 19 20  1  1  0  0  0
 19 25  1  0  0  0  0
 20  5  1  0  0  0  0
 21  3  1  1  0  0  0
 21 22  1  0  0  0  0
 21 27  1  0  0  0  0
 23 24  1  1  0  0  0
 23 29  1  0  0  0  0
 25 26  1  6  0  0  0
 25 31  1  0  0  0  0
 27  7  1  1  0  0  0
 27 28  1  0  0  0  0
 29 30  1  6  0  0  0
 29 33  1  0  0  0  0
 31 32  1  1  0  0  0
 31 35  1  0  0  0  0
 33 34  1  0  0  0  0
 33 37  1  6  0  0  0
 35 36  1  6  0  0  0
 37 38  1  0  0  0  0
M  END
>  <CHROM.1>
-116.51368833,110.05324809,70.87525254,172.93492066,174.94673931,-82.76198391
110.15509248,82.39887934,56.63274935,-165.21420048,73.31421511,-0.62798648
36.46942759,-3.08529687,1.49625216,1.35471437,-0.92920556

>  <Name>
1ntb_lig

>  <RI>
0

>  <Rbt.Current_Directory>
/home/itssahil/PROJECTS/Mol_Feturizer/New_Systems/rnas/1ntb

>  <Rbt.Executable>
rbdock ($Id: //depot/dev/client3/rdock/2013.1/src/exe/rbdock.cxx#4 $)

>  <Rbt.Library>
libRbt.so (2013.1, Build901 2013/11/27)

>  <Rbt.Parameter_File>
/export/apps/rDock/src/rDock_2013.1_src/data/scripts/dock_solv.prm

>  <Rbt.Receptor>
prm/pocket_docking_7.prm

>  <SCORE>
-13.13

>  <SCORE.INTER>
2.2998

>  <SCORE.INTER.CONST>
1

>  <SCORE.INTER.POLAR>
-0.637633

>  <SCORE.INTER.ROT>
11

>  <SCORE.INTER.SOLV>
5.67056

>  <SCORE.INTER.VDW>
-9.16488

>  <SCORE.INTER.norm>
0.057495

>  <SCORE.INTRA>
-15.4298

>  <SCORE.INTRA.DIHEDRAL>
-8.87907

>  <SCORE.INTRA.DIHEDRAL.0>
15.4453

>  <SCORE.INTRA.POLAR>
0

>  <SCORE.INTRA.POLAR.0>
0

>  <SCORE.INTRA.REPUL>
-0.809686

>  <SCORE.INTRA.REPUL.0>
0.823958

>  <SCORE.INTRA.SOLV>
-0.539838

>  <SCORE.INTRA.SOLV.lig_0>
-99.3069

>  <SCORE.INTRA.VDW>
-6.67191

>  <SCORE.INTRA.VDW.0>
0.946495

>  <SCORE.INTRA.norm>
-0.385745

>  <SCORE.RESTR>
0

>  <SCORE.RESTR.CAVITY>
0

>  <SCORE.RESTR.norm>
0

>  <SCORE.SYSTEM>
0

>  <SCORE.SYSTEM.CONST>
0

>  <SCORE.SYSTEM.DIHEDRAL>
0

>  <SCORE.SYSTEM.SOLV>
0

>  <SCORE.SYSTEM.norm>
0

>  <SCORE.heavy>
40

>  <SCORE.norm>
-0.32825

>  <RMSD>
7.008

$$$$
1ntb_lig
 OpenBabel11021811403D
libRbt.so/2013.1/901 2013/11/27
 40 42  0  0  0  0  0  0  0  0999 V2000
   -1.5417   34.9401   -7.5219 C   0  0  0  0  0  0  0  0  0  0  0  0
   -1.7407   36.1989   -7.5989 N   0  0  0  0  0  0  0  0  0  0  0  0
    5.5339   33.1107   -0.4087 C   0  0  0  0  0  0  0  0  0  0  0  0
    6.8150   32.6111   -0.7542 O   0  0  0  0  0  0  0  0  0  0  0  0
    0.6860   37.2908   -3.6717 C   0  0  0  0  0  0  0  0  0  0  0  0
    0.0511   37.9911   -4.5427 N   0  0  0  0  0  0  0  0  0  0  0  0
    5.9107   33.0422   -3.6388 C   0  0  0  0  0  0  0  0  0  0  0  0
    6.4365   38.2253    1.3327 C   0  0  0  0  0  0  0  0  0  0  0  0
   -1.4831   34.1203   -5.3105 C   0  0  2  0  0  0  0  0  0  0  0  0
   -2.2462   34.3061   -6.6043 N   0  0  0  0  0  0  0  0  0  0  0  0
    2.9422   34.5867   -2.5626 C   0  0  2  0  0  0  0  0  0  0  0  0
    3.9195   35.8143    0.6647 C   0  0  1  0  0  0  0  0  0  0  0  0
    3.7596   35.8006   -0.7418 O   0  0  0  0  0  0  0  0  0  0  0  0
   -1.0780   35.4650   -4.7168 C   0  0  1  0  0  0  0  0  0  0  0  0
   -2.3637   36.2034   -4.5338 O   0  0  0  0  0  0  0  0  0  0  0  0
    3.6414   34.5374   -1.2163 C   0  0  2  0  0  0  0  0  0  0  0  0
    4.1816   37.2332    1.1081 C   0  0  1  0  0  0  0  0  0  0  0  0
    5.3783   37.7110    0.5107 N   0  0  0  0  0  0  0  0  0  0  0  0
   -0.2775   35.3288   -3.4232 C   0  0  2  0  0  0  0  0  0  0  0  0
    0.1294   36.5780   -2.8137 N   0  0  0  0  0  0  0  0  0  0  0  0
    4.9802   33.9338   -1.5483 C   0  0  1  0  0  0  0  0  0  0  0  0
    5.9067   34.9653   -1.9046 O   0  0  0  0  0  0  0  0  0  0  0  0
    3.0071   38.0873    0.6612 C   0  0  2  0  0  0  0  0  0  0  0  0
    3.2063   39.4309    1.0432 O   0  0  0  0  0  0  0  0  0  0  0  0
    0.9566   34.5179   -3.7226 C   0  0  1  0  0  0  0  0  0  0  0  0
    1.5619   34.2666   -2.4238 O   0  0  0  0  0  0  0  0  0  0  0  0
    4.7111   33.0739   -2.7275 C   0  0  1  0  0  0  0  0  0  0  0  0
    3.5899   33.6371   -3.4124 O   0  0  0  0  0  0  0  0  0  0  0  0
    1.7599   37.5198    1.3392 C   0  0  1  0  0  0  0  0  0  0  0  0
    0.6120   38.2652    0.9645 O   0  0  0  0  0  0  0  0  0  0  0  0
    0.5578   33.1252   -4.2809 C   0  0  2  0  0  0  0  0  0  0  0  0
    1.7328   32.3735   -4.5424 O   0  0  0  0  0  0  0  0  0  0  0  0
    1.5925   36.0577    0.9247 C   0  0  1  0  0  0  0  0  0  0  0  0
    2.7478   35.3102    1.3014 O   0  0  0  0  0  0  0  0  0  0  0  0
   -0.2358   33.3063   -5.5892 C   0  0  1  0  0  0  0  0  0  0  0  0
   -0.6116   32.0289   -6.1179 O   0  0  0  0  0  0  0  0  0  0  0  0
    0.3637   35.4804    1.6277 C   0  0  0  0  0  0  0  0  0  0  0  0
    0.2017   34.1244    1.2437 O   0  0  0  0  0  0  0  0  0  0  0  0
   -0.6921   34.3285   -8.2702 N   0  0  0  0  0  0  0  0  0  0  0  0
    1.9291   37.2641   -3.6985 N   0  0  0  0  0  0  0  0  0  0  0  0
  1  2  1  0  0  0  0
  1 39  1  0  0  0  0
  3  4  1  0  0  0  0
  5  6  1  0  0  0  0
  5 40  1  0  0  0  0
  9 10  1  6  0  0  0
  9 14  1  0  0  0  0
  9 35  1  0  0  0  0
 10  1  1  0  0  0  0
 11 16  1  0  0  0  0
 11 28  1  0  0  0  0
 11 26  1  1  0  0  0
 12 17  1  0  0  0  0
 12 34  1  0  0  0  0
 12 13  1  6  0  0  0
 14 15  1  1  0  0  0
 14 19  1  0  0  0  0
 16 13  1  6  0  0  0
 16 21  1  0  0  0  0
 17 18  1  6  0  0  0
 17 23  1  0  0  0  0
 18  8  1  0  0  0  0
 19 20  1  6  0  0  0
 19 25  1  0  0  0  0
 20  5  1  0  0  0  0
 21  3  1  1  0  0  0
 21 22  1  0  0  0  0
 21 27  1  0  0  0  0
 23 24  1  1  0  0  0
 23 29  1  0  0  0  0
 25 26  1  1  0  0  0
 25 31  1  0  0  0  0
 27  7  1  6  0  0  0
 27 28  1  0  0  0  0
 29 30  1  6  0  0  0
 29 33  1  0  0  0  0
 31 32  1  6  0  0  0
 31 35  1  0  0  0  0
 33 34  1  0  0  0  0
 33 37  1  1  0  0  0
 35 36  1  1  0  0  0
 37 38  1  0  0  0  0
M  END
>  <CHROM.1>
59.86399589,-95.86057847,172.49790567,174.44735855,157.71715055,-124.68095578
-50.74985675,79.90905994,-177.72047152,-131.99848393,179.84773965,1.94537064
35.29423808,-2.35369369,2.33934827,0.50704729,-2.26208757

>  <Name>
1ntb_lig

>  <RI>
0

>  <Rbt.Current_Directory>
/home/itssahil/PROJECTS/Mol_Feturizer/New_Systems/rnas/1ntb

>  <Rbt.Executable>
rbdock ($Id: //depot/dev/client3/rdock/2013.1/src/exe/rbdock.cxx#4 $)

>  <Rbt.Library>
libRbt.so (2013.1, Build901 2013/11/27)

>  <Rbt.Parameter_File>
/export/apps/rDock/src/rDock_2013.1_src/data/scripts/dock_solv.prm

>  <Rbt.Receptor>
prm/pocket_docking_5.prm

>  <SCORE>
-16.4304

>  <SCORE.INTER>
-10.0527

>  <SCORE.INTER.CONST>
1

>  <SCORE.INTER.POLAR>
-0.701267

>  <SCORE.INTER.ROT>
11

>  <SCORE.INTER.SOLV>
16.2419

>  <SCORE.INTER.VDW>
-20.7115

>  <SCORE.INTER.norm>
-0.251316

>  <SCORE.INTRA>
-6.37771

>  <SCORE.INTRA.DIHEDRAL>
-3.71853

>  <SCORE.INTRA.DIHEDRAL.0>
15.4453

>  <SCORE.INTRA.POLAR>
0

>  <SCORE.INTRA.POLAR.0>
0

>  <SCORE.INTRA.REPUL>
-0.823958

>  <SCORE.INTRA.REPUL.0>
0.823958

>  <SCORE.INTRA.SOLV>
3.4563

>  <SCORE.INTRA.SOLV.lig_0>
-99.3069

>  <SCORE.INTRA.VDW>
-2.12681

>  <SCORE.INTRA.VDW.0>
0.946495

>  <SCORE.INTRA.norm>
-0.159443

>  <SCORE.RESTR>
0

>  <SCORE.RESTR.CAVITY>
0

>  <SCORE.RESTR.norm>
0

>  <SCORE.SYSTEM>
0

>  <SCORE.SYSTEM.CONST>
0

>  <SCORE.SYSTEM.DIHEDRAL>
0

>  <SCORE.SYSTEM.SOLV>
0

>  <SCORE.SYSTEM.norm>
0

>  <SCORE.heavy>
40

>  <SCORE.norm>
-0.410759

>  <RMSD>
7.040

$$$$
1ntb_lig
 OpenBabel11021811403D
libRbt.so/2013.1/901 2013/11/27
 40 42  0  0  0  0  0  0  0  0999 V2000
    5.3629   43.9145   -2.4632 C   0  0  0  0  0  0  0  0  0  0  0  0
    5.9233   43.8515   -3.6087 N   0  0  0  0  0  0  0  0  0  0  0  0
    0.4040   34.1200   -2.9530 C   0  0  0  0  0  0  0  0  0  0  0  0
    1.5283   33.9823   -3.8058 O   0  0  0  0  0  0  0  0  0  0  0  0
    1.1556   40.6691   -6.0168 C   0  0  0  0  0  0  0  0  0  0  0  0
    0.8121   41.7553   -6.6120 N   0  0  0  0  0  0  0  0  0  0  0  0
    1.6172   35.0911   -0.0955 C   0  0  0  0  0  0  0  0  0  0  0  0
   -4.0644   35.7449   -2.0227 C   0  0  0  0  0  0  0  0  0  0  0  0
    3.8438   42.1607   -2.8900 C   0  0  2  0  0  0  0  0  0  0  0  0
    4.0863   43.5833   -2.4336 N   0  0  0  0  0  0  0  0  0  0  0  0
    1.2725   37.6618   -2.4679 C   0  0  2  0  0  0  0  0  0  0  0  0
   -1.6324   36.1573   -4.0357 C   0  0  1  0  0  0  0  0  0  0  0  0
   -0.8054   37.0958   -3.3728 O   0  0  0  0  0  0  0  0  0  0  0  0
    2.5175   42.0436   -3.6331 C   0  0  1  0  0  0  0  0  0  0  0  0
    2.6305   43.0083   -4.7682 O   0  0  0  0  0  0  0  0  0  0  0  0
    0.4465   36.6123   -3.1890 C   0  0  2  0  0  0  0  0  0  0  0  0
   -3.0434   36.6929   -4.0668 C   0  0  1  0  0  0  0  0  0  0  0  0
   -3.5229   36.8635   -2.7408 N   0  0  0  0  0  0  0  0  0  0  0  0
    2.2129   40.6179   -4.0883 C   0  0  2  0  0  0  0  0  0  0  0  0
    0.9650   40.4510   -4.8043 N   0  0  0  0  0  0  0  0  0  0  0  0
    0.4650   35.4478   -2.2347 C   0  0  1  0  0  0  0  0  0  0  0  0
   -0.6221   35.5563   -1.3098 O   0  0  0  0  0  0  0  0  0  0  0  0
   -3.0191   38.0337   -4.7813 C   0  0  2  0  0  0  0  0  0  0  0  0
   -4.3167   38.5855   -4.8298 O   0  0  0  0  0  0  0  0  0  0  0  0
    2.1860   39.7352   -2.8675 C   0  0  1  0  0  0  0  0  0  0  0  0
    2.0861   38.3808   -3.3889 O   0  0  0  0  0  0  0  0  0  0  0  0
    1.7532   35.5886   -1.5113 C   0  0  1  0  0  0  0  0  0  0  0  0
    2.0874   36.9784   -1.5128 O   0  0  0  0  0  0  0  0  0  0  0  0
   -2.4964   37.7760   -6.1947 C   0  0  1  0  0  0  0  0  0  0  0  0
   -2.4382   38.9893   -6.9284 O   0  0  0  0  0  0  0  0  0  0  0  0
    3.5493   39.8053   -2.1281 C   0  0  2  0  0  0  0  0  0  0  0  0
    3.5075   38.9569   -0.9911 O   0  0  0  0  0  0  0  0  0  0  0  0
   -1.1030   37.1535   -6.1018 C   0  0  1  0  0  0  0  0  0  0  0  0
   -1.1633   35.9344   -5.3633 O   0  0  0  0  0  0  0  0  0  0  0  0
    3.8126   41.2546   -1.6760 C   0  0  1  0  0  0  0  0  0  0  0  0
    5.0682   41.3363   -0.9910 O   0  0  0  0  0  0  0  0  0  0  0  0
   -0.5932   36.8658   -7.5142 C   0  0  0  0  0  0  0  0  0  0  0  0
   -0.2772   38.0919   -8.1539 O   0  0  0  0  0  0  0  0  0  0  0  0
    5.9903   44.2998   -1.4079 N   0  0  0  0  0  0  0  0  0  0  0  0
    1.6620   39.7450   -6.6772 N   0  0  0  0  0  0  0  0  0  0  0  0
  1  2  1  0  0  0  0
  1 39  1  0  0  0  0
  3  4  1  0  0  0  0
  5  6  1  0  0  0  0
  5 40  1  0  0  0  0
  9 10  1  1  0  0  0
  9 14  1  0  0  0  0
  9 35  1  0  0  0  0
 10  1  1  0  0  0  0
 11 16  1  0  0  0  0
 11 28  1  0  0  0  0
 11 26  1  6  0  0  0
 12 17  1  0  0  0  0
 12 34  1  0  0  0  0
 12 13  1  6  0  0  0
 14 15  1  6  0  0  0
 14 19  1  0  0  0  0
 16 13  1  1  0  0  0
 16 21  1  0  0  0  0
 17 18  1  1  0  0  0
 17 23  1  0  0  0  0
 18  8  1  0  0  0  0
 19 20  1  1  0  0  0
 19 25  1  0  0  0  0
 20  5  1  0  0  0  0
 21  3  1  6  0  0  0
 21 22  1  0  0  0  0
 21 27  1  0  0  0  0
 23 24  1  6  0  0  0
 23 29  1  0  0  0  0
 25 26  1  6  0  0  0
 25 31  1  0  0  0  0
 27  7  1  1  0  0  0
 27 28  1  0  0  0  0
 29 30  1  6  0  0  0
 29 33  1  0  0  0  0
 31 32  1  1  0  0  0
 31 35  1  0  0  0  0
 33 34  1  0  0  0  0
 33 37  1  6  0  0  0
 35 36  1  6  0  0  0
 37 38  1  0  0  0  0
M  END
>  <CHROM.1>
-145.73868700,60.26775013,146.95278823,173.61623056,-179.62418407,-82.66353476
87.02247684,-103.15638250,60.82410178,-144.81728450,71.55083855,0.92280132
38.72527536,-3.66744809,0.45727599,-0.68653870,-0.68246169

>  <Name>
1ntb_lig

>  <RI>
0

>  <Rbt.Current_Directory>
/home/itssahil/PROJECTS/Mol_Feturizer/New_Systems/rnas/1ntb

>  <Rbt.Executable>
rbdock ($Id: //depot/dev/client3/rdock/2013.1/src/exe/rbdock.cxx#4 $)

>  <Rbt.Library>
libRbt.so (2013.1, Build901 2013/11/27)

>  <Rbt.Parameter_File>
/export/apps/rDock/src/rDock_2013.1_src/data/scripts/dock_solv.prm

>  <Rbt.Receptor>
prm/pocket_docking_8.prm

>  <SCORE>
-13.3046

>  <SCORE.INTER>
-2.85962

>  <SCORE.INTER.CONST>
1

>  <SCORE.INTER.POLAR>
-1.61998

>  <SCORE.INTER.ROT>
11

>  <SCORE.INTER.SOLV>
9.89729

>  <SCORE.INTER.VDW>
-10.7389

>  <SCORE.INTER.norm>
-0.0714906

>  <SCORE.INTRA>
-10.445

>  <SCORE.INTRA.DIHEDRAL>
-2.96797

>  <SCORE.INTRA.DIHEDRAL.0>
15.4453

>  <SCORE.INTRA.POLAR>
0

>  <SCORE.INTRA.POLAR.0>
0

>  <SCORE.INTRA.REPUL>
-0.80934

>  <SCORE.INTRA.REPUL.0>
0.823958

>  <SCORE.INTRA.SOLV>
0.544772

>  <SCORE.INTRA.SOLV.lig_0>
-99.3069

>  <SCORE.INTRA.VDW>
-5.18671

>  <SCORE.INTRA.VDW.0>
0.946495

>  <SCORE.INTRA.norm>
-0.261125

>  <SCORE.RESTR>
0

>  <SCORE.RESTR.CAVITY>
0

>  <SCORE.RESTR.norm>
0

>  <SCORE.SYSTEM>
0

>  <SCORE.SYSTEM.CONST>
0

>  <SCORE.SYSTEM.DIHEDRAL>
0

>  <SCORE.SYSTEM.SOLV>
0

>  <SCORE.SYSTEM.norm>
0

>  <SCORE.heavy>
40

>  <SCORE.norm>
-0.332616

>  <RMSD>
7.041

$$$$
1ntb_lig
 OpenBabel11021811403D
libRbt.so/2013.1/901 2013/11/27
 40 42  0  0  0  0  0  0  0  0999 V2000
    0.7084   32.3925   -8.4896 C   0  0  0  0  0  0  0  0  0  0  0  0
    1.3987   31.3677   -8.1681 N   0  0  0  0  0  0  0  0  0  0  0  0
   -2.6003   40.7442   -2.1977 C   0  0  0  0  0  0  0  0  0  0  0  0
   -2.7821   41.1807   -3.5344 O   0  0  0  0  0  0  0  0  0  0  0  0
    1.3048   35.4033   -2.9204 C   0  0  0  0  0  0  0  0  0  0  0  0
    2.0302   36.4549   -2.7792 N   0  0  0  0  0  0  0  0  0  0  0  0
   -4.0316   37.8413   -1.8739 C   0  0  0  0  0  0  0  0  0  0  0  0
    1.6990   40.2745    1.6261 C   0  0  0  0  0  0  0  0  0  0  0  0
    0.0571   34.1120   -7.0115 C   0  0  2  0  0  0  0  0  0  0  0  0
   -0.2159   32.7535   -7.6205 N   0  0  0  0  0  0  0  0  0  0  0  0
   -0.9224   37.7449   -3.5107 C   0  0  2  0  0  0  0  0  0  0  0  0
    0.4898   40.5788   -1.7441 C   0  0  1  0  0  0  0  0  0  0  0  0
    0.2746   39.2511   -2.1857 O   0  0  0  0  0  0  0  0  0  0  0  0
   -0.0272   34.0560   -5.4901 C   0  0  1  0  0  0  0  0  0  0  0  0
    0.9783   33.0258   -5.0906 O   0  0  0  0  0  0  0  0  0  0  0  0
   -0.8225   39.1616   -2.9751 C   0  0  2  0  0  0  0  0  0  0  0  0
    1.6885   40.5953   -0.8268 C   0  0  1  0  0  0  0  0  0  0  0  0
    1.4393   39.7751    0.3057 N   0  0  0  0  0  0  0  0  0  0  0  0
    0.2114   35.4121   -4.8294 C   0  0  2  0  0  0  0  0  0  0  0  0
    0.1471   35.4146   -3.3825 N   0  0  0  0  0  0  0  0  0  0  0  0
   -2.0961   39.3199   -2.1877 C   0  0  1  0  0  0  0  0  0  0  0  0
   -1.8961   38.8792   -0.8405 O   0  0  0  0  0  0  0  0  0  0  0  0
    2.8781   40.0541   -1.6018 C   0  0  2  0  0  0  0  0  0  0  0  0
    4.0280   40.0384   -0.7845 O   0  0  0  0  0  0  0  0  0  0  0  0
   -0.8210   36.3748   -5.3561 C   0  0  1  0  0  0  0  0  0  0  0  0
   -0.4175   37.6736   -4.8399 O   0  0  0  0  0  0  0  0  0  0  0  0
   -3.0613   38.4222   -2.8696 C   0  0  1  0  0  0  0  0  0  0  0  0
   -2.3034   37.3769   -3.4829 O   0  0  0  0  0  0  0  0  0  0  0  0
    3.0883   40.9807   -2.7996 C   0  0  1  0  0  0  0  0  0  0  0  0
    4.1855   40.5354   -3.5816 O   0  0  0  0  0  0  0  0  0  0  0  0
   -0.7131   36.4805   -6.9012 C   0  0  2  0  0  0  0  0  0  0  0  0
   -1.6834   37.4017   -7.3746 O   0  0  0  0  0  0  0  0  0  0  0  0
    1.8145   40.9940   -3.6453 C   0  0  1  0  0  0  0  0  0  0  0  0
    0.7124   41.4411   -2.8573 O   0  0  0  0  0  0  0  0  0  0  0  0
   -0.9717   35.0970   -7.5283 C   0  0  1  0  0  0  0  0  0  0  0  0
   -0.8759   35.1777   -8.9554 O   0  0  0  0  0  0  0  0  0  0  0  0
    2.0127   41.9454   -4.8256 C   0  0  0  0  0  0  0  0  0  0  0  0
    0.8468   41.9340   -5.6336 O   0  0  0  0  0  0  0  0  0  0  0  0
    0.8813   33.0209   -9.5991 N   0  0  0  0  0  0  0  0  0  0  0  0
    1.7814   34.2903   -2.6361 N   0  0  0  0  0  0  0  0  0  0  0  0
  1  2  1  0  0  0  0
  1 39  1  0  0  0  0
  3  4  1  0  0  0  0
  5  6  1  0  0  0  0
  5 40  1  0  0  0  0
  9 10  1  6  0  0  0
  9 14  1  0  0  0  0
  9 35  1  0  0  0  0
 10  1  1  0  0  0  0
 11 16  1  0  0  0  0
 11 28  1  0  0  0  0
 11 26  1  6  0  0  0
 12 17  1  0  0  0  0
 12 34  1  0  0  0  0
 12 13  1  6  0  0  0
 14 15  1  1  0  0  0
 14 19  1  0  0  0  0
 16 13  1  1  0  0  0
 16 21  1  0  0  0  0
 17 18  1  1  0  0  0
 17 23  1  0  0  0  0
 18  8  1  0  0  0  0
 19 20  1  1  0  0  0
 19 25  1  0  0  0  0
 20  5  1  0  0  0  0
 21  3  1  6  0  0  0
 21 22  1  0  0  0  0
 21 27  1  0  0  0  0
 23 24  1  1  0  0  0
 23 29  1  0  0  0  0
 25 26  1  1  0  0  0
 25 31  1  0  0  0  0
 27  7  1  1  0  0  0
 27 28  1  0  0  0  0
 29 30  1  6  0  0  0
 29 33  1  0  0  0  0
 31 32  1  6  0  0  0
 31 35  1  0  0  0  0
 33 34  1  0  0  0  0
 33 37  1  6  0  0  0
 35 36  1  6  0  0  0
 37 38  1  0  0  0  0
M  END
>  <CHROM.1>
-129.51246829,115.27309693,-167.87288737,177.65261252,174.99994192,-131.23471084
100.59489389,82.87221005,56.52598447,-82.41849352,178.43754233,0.20566633
37.67466201,-4.01318390,-1.66058853,-0.18028402,0.67413891

>  <Name>
1ntb_lig

>  <RI>
0

>  <Rbt.Current_Directory>
/home/itssahil/PROJECTS/Mol_Feturizer/New_Systems/rnas/1ntb

>  <Rbt.Executable>
rbdock ($Id: //depot/dev/client3/rdock/2013.1/src/exe/rbdock.cxx#4 $)

>  <Rbt.Library>
libRbt.so (2013.1, Build901 2013/11/27)

>  <Rbt.Parameter_File>
/export/apps/rDock/src/rDock_2013.1_src/data/scripts/dock_solv.prm

>  <Rbt.Receptor>
prm/pocket_docking_6.prm

>  <SCORE>
-10.3588

>  <SCORE.INTER>
1.60922

>  <SCORE.INTER.CONST>
1

>  <SCORE.INTER.POLAR>
-0.72111

>  <SCORE.INTER.ROT>
11

>  <SCORE.INTER.SOLV>
10.6427

>  <SCORE.INTER.VDW>
-11.0044

>  <SCORE.INTER.norm>
0.0402305

>  <SCORE.INTRA>
-11.968

>  <SCORE.INTRA.DIHEDRAL>
-7.9754

>  <SCORE.INTRA.DIHEDRAL.0>
15.4453

>  <SCORE.INTRA.POLAR>
0

>  <SCORE.INTRA.POLAR.0>
0

>  <SCORE.INTRA.REPUL>
-0.823958

>  <SCORE.INTRA.REPUL.0>
0.823958

>  <SCORE.INTRA.SOLV>
-0.259518

>  <SCORE.INTRA.SOLV.lig_0>
-99.3069

>  <SCORE.INTRA.VDW>
-3.73075

>  <SCORE.INTRA.VDW.0>
0.946495

>  <SCORE.INTRA.norm>
-0.2992

>  <SCORE.RESTR>
0

>  <SCORE.RESTR.CAVITY>
0

>  <SCORE.RESTR.norm>
0

>  <SCORE.SYSTEM>
0

>  <SCORE.SYSTEM.CONST>
0

>  <SCORE.SYSTEM.DIHEDRAL>
0

>  <SCORE.SYSTEM.SOLV>
0

>  <SCORE.SYSTEM.norm>
0

>  <SCORE.heavy>
40

>  <SCORE.norm>
-0.258969

>  <RMSD>
7.044

$$$$
1ntb_lig
 OpenBabel11021811403D
libRbt.so/2013.1/901 2013/11/27
 40 42  0  0  0  0  0  0  0  0999 V2000
   -2.2990   29.4568   -3.4566 C   0  0  0  0  0  0  0  0  0  0  0  0
   -1.6960   28.8857   -4.4263 N   0  0  0  0  0  0  0  0  0  0  0  0
    1.4036   38.0985    0.8277 C   0  0  0  0  0  0  0  0  0  0  0  0
    2.3011   39.1551    1.1250 O   0  0  0  0  0  0  0  0  0  0  0  0
   -1.1772   32.4846    1.9250 C   0  0  0  0  0  0  0  0  0  0  0  0
   -0.1616   32.4223    2.7103 N   0  0  0  0  0  0  0  0  0  0  0  0
    4.4620   36.9929    0.7627 C   0  0  0  0  0  0  0  0  0  0  0  0
    1.4005   39.2025   -3.7131 C   0  0  0  0  0  0  0  0  0  0  0  0
   -1.1015   31.1882   -2.3917 C   0  0  2  0  0  0  0  0  0  0  0  0
   -2.1587   30.7668   -3.3896 N   0  0  0  0  0  0  0  0  0  0  0  0
    2.0730   34.7059   -0.4281 C   0  0  2  0  0  0  0  0  0  0  0  0
   -0.1218   37.2877   -1.7234 C   0  0  1  0  0  0  0  0  0  0  0  0
    0.7193   36.1502   -1.6684 O   0  0  0  0  0  0  0  0  0  0  0  0
   -1.7194   31.9722   -1.2391 C   0  0  1  0  0  0  0  0  0  0  0  0
   -2.7381   31.0495   -0.6537 O   0  0  0  0  0  0  0  0  0  0  0  0
    1.1831   35.9354   -0.4140 C   0  0  2  0  0  0  0  0  0  0  0  0
   -0.4101   37.6066   -3.1704 C   0  0  1  0  0  0  0  0  0  0  0  0
    0.8018   37.9050   -3.8483 N   0  0  0  0  0  0  0  0  0  0  0  0
   -0.6862   32.4466   -0.2192 C   0  0  2  0  0  0  0  0  0  0  0  0
   -1.2209   33.1936    0.9005 N   0  0  0  0  0  0  0  0  0  0  0  0
    2.1168   37.0280    0.0350 C   0  0  1  0  0  0  0  0  0  0  0  0
    2.7701   37.6093   -1.0983 O   0  0  0  0  0  0  0  0  0  0  0  0
   -1.0629   36.3861   -3.7973 C   0  0  2  0  0  0  0  0  0  0  0  0
   -1.3456   36.6276   -5.1583 O   0  0  0  0  0  0  0  0  0  0  0  0
    0.3145   33.3132   -0.9387 C   0  0  1  0  0  0  0  0  0  0  0  0
    1.3612   33.5651    0.0397 O   0  0  0  0  0  0  0  0  0  0  0  0
    3.1142   36.3303    0.8841 C   0  0  1  0  0  0  0  0  0  0  0  0
    3.1886   34.9794    0.4229 O   0  0  0  0  0  0  0  0  0  0  0  0
   -2.3548   36.1246   -3.0228 C   0  0  1  0  0  0  0  0  0  0  0  0
   -3.0239   34.9887   -3.5480 O   0  0  0  0  0  0  0  0  0  0  0  0
    0.9890   32.5112   -2.0841 C   0  0  2  0  0  0  0  0  0  0  0  0
    1.9368   33.3403   -2.7387 O   0  0  0  0  0  0  0  0  0  0  0  0
   -2.0121   35.8955   -1.5504 C   0  0  1  0  0  0  0  0  0  0  0  0
   -1.3389   37.0381   -1.0244 O   0  0  0  0  0  0  0  0  0  0  0  0
   -0.0834   32.0624   -3.0954 C   0  0  1  0  0  0  0  0  0  0  0  0
    0.5235   31.3204   -4.1600 O   0  0  0  0  0  0  0  0  0  0  0  0
   -3.3066   35.6660   -0.7698 C   0  0  0  0  0  0  0  0  0  0  0  0
   -4.1100   36.8326   -0.8471 O   0  0  0  0  0  0  0  0  0  0  0  0
   -2.9795   28.8001   -2.5840 N   0  0  0  0  0  0  0  0  0  0  0  0
   -2.1670   31.7657    2.1487 N   0  0  0  0  0  0  0  0  0  0  0  0
  1  2  1  0  0  0  0
  1 39  1  0  0  0  0
  3  4  1  0  0  0  0
  5  6  1  0  0  0  0
  5 40  1  0  0  0  0
  9 10  1  6  0  0  0
  9 14  1  0  0  0  0
  9 35  1  0  0  0  0
 10  1  1  0  0  0  0
 11 16  1  0  0  0  0
 11 28  1  0  0  0  0
 11 26  1  1  0  0  0
 12 17  1  0  0  0  0
 12 34  1  0  0  0  0
 12 13  1  6  0  0  0
 14 15  1  1  0  0  0
 14 19  1  0  0  0  0
 16 13  1  6  0  0  0
 16 21  1  0  0  0  0
 17 18  1  6  0  0  0
 17 23  1  0  0  0  0
 18  8  1  0  0  0  0
 19 20  1  1  0  0  0
 19 25  1  0  0  0  0
 20  5  1  0  0  0  0
 21  3  1  1  0  0  0
 21 22  1  0  0  0  0
 21 27  1  0  0  0  0
 23 24  1  6  0  0  0
 23 29  1  0  0  0  0
 25 26  1  1  0  0  0
 25 31  1  0  0  0  0
 27  7  1  6  0  0  0
 27 28  1  0  0  0  0
 29 30  1  6  0  0  0
 29 33  1  0  0  0  0
 31 32  1  6  0  0  0
 31 35  1  0  0  0  0
 33 34  1  0  0  0  0
 33 37  1  1  0  0  0
 35 36  1  6  0  0  0
 37 38  1  0  0  0  0
M  END
>  <CHROM.1>
-115.28239890,-98.92664679,65.46666872,170.46886065,179.96388600,-79.47232180
107.40583401,87.97527199,-174.98031667,-161.13240879,-62.75635796,-0.19902589
34.52318137,-1.39462689,2.37380012,0.89018045,2.67168312

>  <Name>
1ntb_lig

>  <RI>
0

>  <Rbt.Current_Directory>
/home/itssahil/PROJECTS/Mol_Feturizer/New_Systems/rnas/1ntb

>  <Rbt.Executable>
rbdock ($Id: //depot/dev/client3/rdock/2013.1/src/exe/rbdock.cxx#4 $)

>  <Rbt.Library>
libRbt.so (2013.1, Build901 2013/11/27)

>  <Rbt.Parameter_File>
/export/apps/rDock/src/rDock_2013.1_src/data/scripts/dock_solv.prm

>  <Rbt.Receptor>
prm/pocket_docking_8.prm

>  <SCORE>
-13.5186

>  <SCORE.INTER>
1.79873

>  <SCORE.INTER.CONST>
1

>  <SCORE.INTER.POLAR>
-0.376761

>  <SCORE.INTER.ROT>
11

>  <SCORE.INTER.SOLV>
13.7304

>  <SCORE.INTER.VDW>
-13.0551

>  <SCORE.INTER.norm>
0.0449683

>  <SCORE.INTRA>
-15.3174

>  <SCORE.INTRA.DIHEDRAL>
-9.16811

>  <SCORE.INTRA.DIHEDRAL.0>
15.4453

>  <SCORE.INTRA.POLAR>
0

>  <SCORE.INTRA.POLAR.0>
0

>  <SCORE.INTRA.REPUL>
-0.793623

>  <SCORE.INTRA.REPUL.0>
0.823958

>  <SCORE.INTRA.SOLV>
-1.61779

>  <SCORE.INTRA.SOLV.lig_0>
-99.3069

>  <SCORE.INTRA.VDW>
-5.95631

>  <SCORE.INTRA.VDW.0>
0.946495

>  <SCORE.INTRA.norm>
-0.382934

>  <SCORE.RESTR>
0

>  <SCORE.RESTR.CAVITY>
0

>  <SCORE.RESTR.norm>
0

>  <SCORE.SYSTEM>
0

>  <SCORE.SYSTEM.CONST>
0

>  <SCORE.SYSTEM.DIHEDRAL>
0

>  <SCORE.SYSTEM.SOLV>
0

>  <SCORE.SYSTEM.norm>
0

>  <SCORE.heavy>
40

>  <SCORE.norm>
-0.337966

>  <RMSD>
7.063

$$$$
1ntb_lig
 OpenBabel11021811403D
libRbt.so/2013.1/901 2013/11/27
 40 42  0  0  0  0  0  0  0  0999 V2000
    1.3599   38.5698   -3.8845 C   0  0  0  0  0  0  0  0  0  0  0  0
    2.1552   38.4721   -2.8905 N   0  0  0  0  0  0  0  0  0  0  0  0
   -4.3029   29.9903   -3.8468 C   0  0  0  0  0  0  0  0  0  0  0  0
   -3.9859   30.0923   -5.2250 O   0  0  0  0  0  0  0  0  0  0  0  0
   -0.6493   33.4737   -7.1838 C   0  0  0  0  0  0  0  0  0  0  0  0
   -0.4528   34.3068   -8.1426 N   0  0  0  0  0  0  0  0  0  0  0  0
   -1.9779   28.2104   -2.4303 C   0  0  0  0  0  0  0  0  0  0  0  0
   -5.6219   32.1580    0.2764 C   0  0  0  0  0  0  0  0  0  0  0  0
    0.4279   36.4035   -3.9513 C   0  0  2  0  0  0  0  0  0  0  0  0
    0.2314   37.8946   -3.7809 N   0  0  0  0  0  0  0  0  0  0  0  0
   -1.0555   31.5396   -3.0792 C   0  0  2  0  0  0  0  0  0  0  0  0
   -4.4243   32.8058   -2.6232 C   0  0  1  0  0  0  0  0  0  0  0  0
   -3.0287   32.6289   -2.4650 O   0  0  0  0  0  0  0  0  0  0  0  0
   -0.5386   35.8397   -4.9871 C   0  0  1  0  0  0  0  0  0  0  0  0
   -0.2531   36.6111   -6.2342 O   0  0  0  0  0  0  0  0  0  0  0  0
   -2.5462   31.6948   -3.3191 C   0  0  2  0  0  0  0  0  0  0  0  0
   -4.9256   33.7078   -1.5216 C   0  0  1  0  0  0  0  0  0  0  0  0
   -4.6849   33.1046   -0.2585 N   0  0  0  0  0  0  0  0  0  0  0  0
   -0.3994   34.3301   -5.1729 C   0  0  2  0  0  0  0  0  0  0  0  0
   -1.2923   33.7427   -6.1503 N   0  0  0  0  0  0  0  0  0  0  0  0
   -3.0861   30.3225   -3.0150 C   0  0  1  0  0  0  0  0  0  0  0  0
   -3.3998   30.2181   -1.6222 O   0  0  0  0  0  0  0  0  0  0  0  0
   -4.1716   35.0237   -1.6151 C   0  0  2  0  0  0  0  0  0  0  0  0
   -4.5963   35.9040   -0.5976 O   0  0  0  0  0  0  0  0  0  0  0  0
   -0.6485   33.6721   -3.8406 C   0  0  1  0  0  0  0  0  0  0  0  0
   -0.3119   32.2720   -4.0474 O   0  0  0  0  0  0  0  0  0  0  0  0
   -1.9653   29.4074   -3.3453 C   0  0  1  0  0  0  0  0  0  0  0  0
   -0.7536   30.1454   -3.1707 O   0  0  0  0  0  0  0  0  0  0  0  0
   -4.4756   35.6145   -2.9920 C   0  0  1  0  0  0  0  0  0  0  0  0
   -3.7981   36.8501   -3.1595 O   0  0  0  0  0  0  0  0  0  0  0  0
    0.3626   34.1999   -2.7873 C   0  0  2  0  0  0  0  0  0  0  0  0
    0.1200   33.5577   -1.5451 O   0  0  0  0  0  0  0  0  0  0  0  0
   -4.0282   34.6228   -4.0664 C   0  0  1  0  0  0  0  0  0  0  0  0
   -4.7096   33.3811   -3.8960 O   0  0  0  0  0  0  0  0  0  0  0  0
    0.1815   35.7211   -2.6211 C   0  0  1  0  0  0  0  0  0  0  0  0
    1.1080   36.2242   -1.6513 O   0  0  0  0  0  0  0  0  0  0  0  0
   -4.3613   35.1991   -5.4428 C   0  0  0  0  0  0  0  0  0  0  0  0
   -3.5266   36.3185   -5.6934 O   0  0  0  0  0  0  0  0  0  0  0  0
    1.6461   39.2596   -4.9324 N   0  0  0  0  0  0  0  0  0  0  0  0
   -0.2287   32.3083   -7.2918 N   0  0  0  0  0  0  0  0  0  0  0  0
  1  2  1  0  0  0  0
  1 39  1  0  0  0  0
  3  4  1  0  0  0  0
  5  6  1  0  0  0  0
  5 40  1  0  0  0  0
  9 10  1  1  0  0  0
  9 14  1  0  0  0  0
  9 35  1  0  0  0  0
 10  1  1  0  0  0  0
 11 16  1  0  0  0  0
 11 28  1  0  0  0  0
 11 26  1  6  0  0  0
 12 17  1  0  0  0  0
 12 34  1  0  0  0  0
 12 13  1  1  0  0  0
 14 15  1  6  0  0  0
 14 19  1  0  0  0  0
 16 13  1  1  0  0  0
 16 21  1  0  0  0  0
 17 18  1  1  0  0  0
 17 23  1  0  0  0  0
 18  8  1  0  0  0  0
 19 20  1  6  0  0  0
 19 25  1  0  0  0  0
 20  5  1  0  0  0  0
 21  3  1  6  0  0  0
 21 22  1  0  0  0  0
 21 27  1  0  0  0  0
 23 24  1  1  0  0  0
 23 29  1  0  0  0  0
 25 26  1  6  0  0  0
 25 31  1  0  0  0  0
 27  7  1  1  0  0  0
 27 28  1  0  0  0  0
 29 30  1  6  0  0  0
 29 33  1  0  0  0  0
 31 32  1  1  0  0  0
 31 35  1  0  0  0  0
 33 34  1  0  0  0  0
 33 37  1  6  0  0  0
 35 36  1  1  0  0  0
 37 38  1  0  0  0  0
M  END
>  <CHROM.1>
-128.82977596,-73.61195205,63.50271476,172.16369005,-179.02517579,-84.70688762
104.98462401,-87.28907437,57.32195651,-154.95009999,68.87990657,-1.93810268
33.87761670,-3.58542801,0.79781756,0.72072609,0.27725674

>  <Name>
1ntb_lig

>  <RI>
0

>  <Rbt.Current_Directory>
/home/itssahil/PROJECTS/Mol_Feturizer/New_Systems/rnas/1ntb

>  <Rbt.Executable>
rbdock ($Id: //depot/dev/client3/rdock/2013.1/src/exe/rbdock.cxx#4 $)

>  <Rbt.Library>
libRbt.so (2013.1, Build901 2013/11/27)

>  <Rbt.Parameter_File>
/export/apps/rDock/src/rDock_2013.1_src/data/scripts/dock_solv.prm

>  <Rbt.Receptor>
prm/pocket_docking_5.prm

>  <SCORE>
-10.6403

>  <SCORE.INTER>
3.86486

>  <SCORE.INTER.CONST>
1

>  <SCORE.INTER.POLAR>
-0.642953

>  <SCORE.INTER.ROT>
11

>  <SCORE.INTER.SOLV>
9.5588

>  <SCORE.INTER.VDW>
-9.39985

>  <SCORE.INTER.norm>
0.0966215

>  <SCORE.INTRA>
-14.6238

>  <SCORE.INTRA.DIHEDRAL>
-7.971

>  <SCORE.INTRA.DIHEDRAL.0>
15.4453

>  <SCORE.INTRA.POLAR>
0

>  <SCORE.INTRA.POLAR.0>
0

>  <SCORE.INTRA.REPUL>
-0.761604

>  <SCORE.INTRA.REPUL.0>
0.823958

>  <SCORE.INTRA.SOLV>
-0.36039

>  <SCORE.INTRA.SOLV.lig_0>
-99.3069

>  <SCORE.INTRA.VDW>
-6.65011

>  <SCORE.INTRA.VDW.0>
0.946495

>  <SCORE.INTRA.norm>
-0.365596

>  <SCORE.RESTR>
0.118632

>  <SCORE.RESTR.CAVITY>
0.118632

>  <SCORE.RESTR.norm>
0.00296579

>  <SCORE.SYSTEM>
0

>  <SCORE.SYSTEM.CONST>
0

>  <SCORE.SYSTEM.DIHEDRAL>
0

>  <SCORE.SYSTEM.SOLV>
0

>  <SCORE.SYSTEM.norm>
0

>  <SCORE.heavy>
40

>  <SCORE.norm>
-0.266008

>  <RMSD>
7.068

$$$$
1ntb_lig
 OpenBabel11021811403D
libRbt.so/2013.1/901 2013/11/27
 40 42  0  0  0  0  0  0  0  0999 V2000
    4.8336   44.3516   -3.2766 C   0  0  0  0  0  0  0  0  0  0  0  0
    5.9848   43.8473   -3.5013 N   0  0  0  0  0  0  0  0  0  0  0  0
   -1.4590   35.5612   -2.7773 C   0  0  0  0  0  0  0  0  0  0  0  0
   -1.1343   35.6140   -4.1564 O   0  0  0  0  0  0  0  0  0  0  0  0
    1.1931   40.3794   -5.8788 C   0  0  0  0  0  0  0  0  0  0  0  0
    1.6310   39.3088   -6.4392 N   0  0  0  0  0  0  0  0  0  0  0  0
    1.0686   34.3993   -1.0918 C   0  0  0  0  0  0  0  0  0  0  0  0
   -2.1634   38.6791   -5.6739 C   0  0  0  0  0  0  0  0  0  0  0  0
    3.8431   42.2612   -2.8129 C   0  0  2  0  0  0  0  0  0  0  0  0
    4.0846   43.6996   -2.4083 N   0  0  0  0  0  0  0  0  0  0  0  0
    1.4390   37.7350   -2.1364 C   0  0  2  0  0  0  0  0  0  0  0  0
   -0.8702   39.7335   -2.4405 C   0  0  1  0  0  0  0  0  0  0  0  0
   -0.7166   38.5292   -1.7123 O   0  0  0  0  0  0  0  0  0  0  0  0
    2.5152   42.1158   -3.5481 C   0  0  1  0  0  0  0  0  0  0  0  0
    2.6241   43.0394   -4.7173 O   0  0  0  0  0  0  0  0  0  0  0  0
   -0.0440   37.5973   -2.4292 C   0  0  2  0  0  0  0  0  0  0  0  0
   -2.0460   39.5868   -3.3756 C   0  0  1  0  0  0  0  0  0  0  0  0
   -1.8028   38.5297   -4.2927 N   0  0  0  0  0  0  0  0  0  0  0  0
    2.2117   40.6743   -3.9513 C   0  0  2  0  0  0  0  0  0  0  0  0
    0.9624   40.4801   -4.6579 N   0  0  0  0  0  0  0  0  0  0  0  0
   -0.3554   36.1989   -1.9660 C   0  0  1  0  0  0  0  0  0  0  0  0
   -0.7094   36.2107   -0.5790 O   0  0  0  0  0  0  0  0  0  0  0  0
   -3.2730   39.2686   -2.5380 C   0  0  2  0  0  0  0  0  0  0  0  0
   -4.4037   39.1108   -3.3670 O   0  0  0  0  0  0  0  0  0  0  0  0
    2.1891   39.8357   -2.6997 C   0  0  1  0  0  0  0  0  0  0  0  0
    2.0900   38.4634   -3.1721 O   0  0  0  0  0  0  0  0  0  0  0  0
    0.9186   35.4605   -2.1509 C   0  0  1  0  0  0  0  0  0  0  0  0
    1.9777   36.4143   -2.0429 O   0  0  0  0  0  0  0  0  0  0  0  0
   -3.4748   40.4424   -1.5794 C   0  0  1  0  0  0  0  0  0  0  0  0
   -4.6060   40.2161   -0.7530 O   0  0  0  0  0  0  0  0  0  0  0  0
    3.5541   39.9342   -1.9666 C   0  0  2  0  0  0  0  0  0  0  0  0
    3.5162   39.1269   -0.7999 O   0  0  0  0  0  0  0  0  0  0  0  0
   -2.2211   40.5999   -0.7183 C   0  0  1  0  0  0  0  0  0  0  0  0
   -1.0849   40.8265   -1.5507 O   0  0  0  0  0  0  0  0  0  0  0  0
    3.8162   41.3991   -1.5672 C   0  0  1  0  0  0  0  0  0  0  0  0
    5.0733   41.5070   -0.8887 O   0  0  0  0  0  0  0  0  0  0  0  0
   -2.4095   41.7937    0.2181 C   0  0  0  0  0  0  0  0  0  0  0  0
   -2.6248   42.9631   -0.5556 O   0  0  0  0  0  0  0  0  0  0  0  0
    4.4159   45.4119   -3.8742 N   0  0  0  0  0  0  0  0  0  0  0  0
    1.0317   41.4049   -6.5637 N   0  0  0  0  0  0  0  0  0  0  0  0
  1  2  1  0  0  0  0
  1 39  1  0  0  0  0
  3  4  1  0  0  0  0
  5  6  1  0  0  0  0
  5 40  1  0  0  0  0
  9 10  1  1  0  0  0
  9 14  1  0  0  0  0
  9 35  1  0  0  0  0
 10  1  1  0  0  0  0
 11 16  1  0  0  0  0
 11 28  1  0  0  0  0
 11 26  1  6  0  0  0
 12 17  1  0  0  0  0
 12 34  1  0  0  0  0
 12 13  1  1  0  0  0
 14 15  1  6  0  0  0
 14 19  1  0  0  0  0
 16 13  1  1  0  0  0
 16 21  1  0  0  0  0
 17 18  1  6  0  0  0
 17 23  1  0  0  0  0
 18  8  1  0  0  0  0
 19 20  1  1  0  0  0
 19 25  1  0  0  0  0
 20  5  1  0  0  0  0
 21  3  1  6  0  0  0
 21 22  1  0  0  0  0
 21 27  1  0  0  0  0
 23 24  1  6  0  0  0
 23 29  1  0  0  0  0
 25 26  1  6  0  0  0
 25 31  1  0  0  0  0
 27  7  1  1  0  0  0
 27 28  1  0  0  0  0
 29 30  1  1  0  0  0
 29 33  1  0  0  0  0
 31 32  1  1  0  0  0
 31 35  1  0  0  0  0
 33 34  1  0  0  0  0
 33 37  1  1  0  0  0
 35 36  1  6  0  0  0
 37 38  1  0  0  0  0
M  END
>  <CHROM.1>
-95.75496582,-57.70304106,97.46864863,81.80619267,90.67878909,-138.72901370
100.63372773,78.75716976,54.20606814,-152.63558665,-59.52892451,0.60394033
39.79078422,-2.73571147,0.70894341,0.11530152,-0.05099305

>  <Name>
1ntb_lig

>  <RI>
0

>  <Rbt.Current_Directory>
/home/itssahil/PROJECTS/Mol_Feturizer/New_Systems/rnas/1ntb

>  <Rbt.Executable>
rbdock ($Id: //depot/dev/client3/rdock/2013.1/src/exe/rbdock.cxx#4 $)

>  <Rbt.Library>
libRbt.so (2013.1, Build901 2013/11/27)

>  <Rbt.Parameter_File>
/export/apps/rDock/src/rDock_2013.1_src/data/scripts/dock_solv.prm

>  <Rbt.Receptor>
prm/pocket_docking_8.prm

>  <SCORE>
-10.0225

>  <SCORE.INTER>
-1.16249

>  <SCORE.INTER.CONST>
1

>  <SCORE.INTER.POLAR>
-1.9294

>  <SCORE.INTER.ROT>
11

>  <SCORE.INTER.SOLV>
10.1182

>  <SCORE.INTER.VDW>
-8.64972

>  <SCORE.INTER.norm>
-0.0290623

>  <SCORE.INTRA>
-8.86003

>  <SCORE.INTRA.DIHEDRAL>
2.64774

>  <SCORE.INTRA.DIHEDRAL.0>
15.4453

>  <SCORE.INTRA.POLAR>
0

>  <SCORE.INTRA.POLAR.0>
0

>  <SCORE.INTRA.REPUL>
-0.823958

>  <SCORE.INTRA.REPUL.0>
0.823958

>  <SCORE.INTRA.SOLV>
1.78082

>  <SCORE.INTRA.SOLV.lig_0>
-99.3069

>  <SCORE.INTRA.VDW>
-6.95452

>  <SCORE.INTRA.VDW.0>
0.946495

>  <SCORE.INTRA.norm>
-0.221501

>  <SCORE.RESTR>
0

>  <SCORE.RESTR.CAVITY>
0

>  <SCORE.RESTR.norm>
0

>  <SCORE.SYSTEM>
0

>  <SCORE.SYSTEM.CONST>
0

>  <SCORE.SYSTEM.DIHEDRAL>
0

>  <SCORE.SYSTEM.SOLV>
0

>  <SCORE.SYSTEM.norm>
0

>  <SCORE.heavy>
40

>  <SCORE.norm>
-0.250563

>  <RMSD>
7.075

$$$$
1ntb_lig
 OpenBabel11021811403D
libRbt.so/2013.1/901 2013/11/27
 40 42  0  0  0  0  0  0  0  0999 V2000
    2.2304   43.9788   -3.7574 C   0  0  0  0  0  0  0  0  0  0  0  0
    2.4365   44.4444   -4.9282 N   0  0  0  0  0  0  0  0  0  0  0  0
    0.6228   33.1167   -3.9841 C   0  0  0  0  0  0  0  0  0  0  0  0
    1.3372   31.9873   -3.5105 O   0  0  0  0  0  0  0  0  0  0  0  0
   -0.0527   39.1393   -0.6558 C   0  0  0  0  0  0  0  0  0  0  0  0
   -1.3110   39.0162   -0.8871 N   0  0  0  0  0  0  0  0  0  0  0  0
    3.2748   34.2843   -2.5064 C   0  0  0  0  0  0  0  0  0  0  0  0
   -2.2706   33.1475    0.2591 C   0  0  0  0  0  0  0  0  0  0  0  0
    1.8827   41.6466   -3.6815 C   0  0  2  0  0  0  0  0  0  0  0  0
    2.8128   42.8255   -3.4912 N   0  0  0  0  0  0  0  0  0  0  0  0
    0.7440   36.6672   -3.0282 C   0  0  2  0  0  0  0  0  0  0  0  0
   -1.9069   34.2179   -2.6686 C   0  0  1  0  0  0  0  0  0  0  0  0
   -1.1311   35.3868   -2.4790 O   0  0  0  0  0  0  0  0  0  0  0  0
    1.8312   40.7828   -2.4261 C   0  0  1  0  0  0  0  0  0  0  0  0
    1.3825   41.7099   -1.3440 O   0  0  0  0  0  0  0  0  0  0  0  0
   -0.0805   35.4298   -3.3330 C   0  0  2  0  0  0  0  0  0  0  0  0
   -3.1156   34.2880   -1.7670 C   0  0  1  0  0  0  0  0  0  0  0  0
   -2.7012   34.3424   -0.4096 N   0  0  0  0  0  0  0  0  0  0  0  0
    0.9273   39.5612   -2.5796 C   0  0  2  0  0  0  0  0  0  0  0  0
    0.8385   38.7076   -1.4130 N   0  0  0  0  0  0  0  0  0  0  0  0
    0.8892   34.3042   -3.0887 C   0  0  1  0  0  0  0  0  0  0  0  0
    0.8386   33.9047   -1.7150 O   0  0  0  0  0  0  0  0  0  0  0  0
   -3.8895   35.5472   -2.1192 C   0  0  2  0  0  0  0  0  0  0  0  0
   -5.0288   35.6674   -1.2958 O   0  0  0  0  0  0  0  0  0  0  0  0
    1.4437   38.7421   -3.7340 C   0  0  1  0  0  0  0  0  0  0  0  0
    0.4355   37.7142   -3.9422 O   0  0  0  0  0  0  0  0  0  0  0  0
    2.2173   34.8942   -3.3896 C   0  0  1  0  0  0  0  0  0  0  0  0
    2.1205   36.2984   -3.1405 O   0  0  0  0  0  0  0  0  0  0  0  0
   -4.3027   35.4207   -3.5857 C   0  0  1  0  0  0  0  0  0  0  0  0
   -5.0297   36.5688   -3.9946 O   0  0  0  0  0  0  0  0  0  0  0  0
    1.4538   39.5949   -5.0312 C   0  0  2  0  0  0  0  0  0  0  0  0
    1.9293   38.8013   -6.1075 O   0  0  0  0  0  0  0  0  0  0  0  0
   -3.0462   35.2646   -4.4429 C   0  0  1  0  0  0  0  0  0  0  0  0
   -2.3163   34.1105   -4.0299 O   0  0  0  0  0  0  0  0  0  0  0  0
    2.3846   40.8078   -4.8393 C   0  0  1  0  0  0  0  0  0  0  0  0
    2.4052   41.6057   -6.0290 O   0  0  0  0  0  0  0  0  0  0  0  0
   -3.4605   35.1056   -5.9060 C   0  0  0  0  0  0  0  0  0  0  0  0
   -4.2103   33.9101   -6.0503 O   0  0  0  0  0  0  0  0  0  0  0  0
    1.4837   44.5781   -2.8978 N   0  0  0  0  0  0  0  0  0  0  0  0
    0.3247   39.7676    0.3489 N   0  0  0  0  0  0  0  0  0  0  0  0
  1  2  1  0  0  0  0
  1 39  1  0  0  0  0
  3  4  1  0  0  0  0
  5  6  1  0  0  0  0
  5 40  1  0  0  0  0
  9 10  1  1  0  0  0
  9 14  1  0  0  0  0
  9 35  1  0  0  0  0
 10  1  1  0  0  0  0
 11 16  1  0  0  0  0
 11 28  1  0  0  0  0
 11 26  1  6  0  0  0
 12 17  1  0  0  0  0
 12 34  1  0  0  0  0
 12 13  1  6  0  0  0
 14 15  1  1  0  0  0
 14 19  1  0  0  0  0
 16 13  1  1  0  0  0
 16 21  1  0  0  0  0
 17 18  1  1  0  0  0
 17 23  1  0  0  0  0
 18  8  1  0  0  0  0
 19 20  1  1  0  0  0
 19 25  1  0  0  0  0
 20  5  1  0  0  0  0
 21  3  1  6  0  0  0
 21 22  1  0  0  0  0
 21 27  1  0  0  0  0
 23 24  1  1  0  0  0
 23 29  1  0  0  0  0
 25 26  1  6  0  0  0
 25 31  1  0  0  0  0
 27  7  1  1  0  0  0
 27 28  1  0  0  0  0
 29 30  1  6  0  0  0
 29 33  1  0  0  0  0
 31 32  1  6  0  0  0
 31 35  1  0  0  0  0
 33 34  1  0  0  0  0
 33 37  1  6  0  0  0
 35 36  1  6  0  0  0
 37 38  1  0  0  0  0
M  END
>  <CHROM.1>
-126.17547574,-97.01714496,-169.30029277,-175.50758987,-177.14727601,-77.92281812
86.28534050,74.31806901,-166.26336521,-84.50091310,-63.57005676,-0.16280148
37.37682800,-3.10278306,1.07014621,0.17064029,0.00286943

>  <Name>
1ntb_lig

>  <RI>
0

>  <Rbt.Current_Directory>
/home/itssahil/PROJECTS/Mol_Feturizer/New_Systems/rnas/1ntb

>  <Rbt.Executable>
rbdock ($Id: //depot/dev/client3/rdock/2013.1/src/exe/rbdock.cxx#4 $)

>  <Rbt.Library>
libRbt.so (2013.1, Build901 2013/11/27)

>  <Rbt.Parameter_File>
/export/apps/rDock/src/rDock_2013.1_src/data/scripts/dock_solv.prm

>  <Rbt.Receptor>
prm/pocket_docking_5.prm

>  <SCORE>
-11.3292

>  <SCORE.INTER>
-0.175089

>  <SCORE.INTER.CONST>
1

>  <SCORE.INTER.POLAR>
-0.639526

>  <SCORE.INTER.ROT>
11

>  <SCORE.INTER.SOLV>
6.83971

>  <SCORE.INTER.VDW>
-11.1982

>  <SCORE.INTER.norm>
-0.00437722

>  <SCORE.INTRA>
-11.1548

>  <SCORE.INTRA.DIHEDRAL>
-7.94913

>  <SCORE.INTRA.DIHEDRAL.0>
15.4453

>  <SCORE.INTRA.POLAR>
0

>  <SCORE.INTRA.POLAR.0>
0

>  <SCORE.INTRA.REPUL>
-0.823958

>  <SCORE.INTRA.REPUL.0>
0.823958

>  <SCORE.INTRA.SOLV>
-1.30501

>  <SCORE.INTRA.SOLV.lig_0>
-99.3069

>  <SCORE.INTRA.VDW>
-2.40789

>  <SCORE.INTRA.VDW.0>
0.946495

>  <SCORE.INTRA.norm>
-0.278869

>  <SCORE.RESTR>
0.000628119

>  <SCORE.RESTR.CAVITY>
0.000628119

>  <SCORE.RESTR.norm>
1.5703e-05

>  <SCORE.SYSTEM>
0

>  <SCORE.SYSTEM.CONST>
0

>  <SCORE.SYSTEM.DIHEDRAL>
0

>  <SCORE.SYSTEM.SOLV>
0

>  <SCORE.SYSTEM.norm>
0

>  <SCORE.heavy>
40

>  <SCORE.norm>
-0.28323

>  <RMSD>
7.081

$$$$
1ntb_lig
 OpenBabel11021811403D
libRbt.so/2013.1/901 2013/11/27
 40 42  0  0  0  0  0  0  0  0999 V2000
   -3.1580   33.9335   -5.4040 C   0  0  0  0  0  0  0  0  0  0  0  0
   -4.0170   34.2997   -4.5333 N   0  0  0  0  0  0  0  0  0  0  0  0
    6.4554   33.2508   -0.3987 C   0  0  0  0  0  0  0  0  0  0  0  0
    6.7177   34.2724    0.5488 O   0  0  0  0  0  0  0  0  0  0  0  0
    1.2876   36.6142   -3.2568 C   0  0  0  0  0  0  0  0  0  0  0  0
    0.1801   37.1626   -3.6099 N   0  0  0  0  0  0  0  0  0  0  0  0
    6.1956   32.6418   -3.5833 C   0  0  0  0  0  0  0  0  0  0  0  0
    6.8758   37.1617    1.2270 C   0  0  0  0  0  0  0  0  0  0  0  0
   -1.4664   33.2063   -3.9291 C   0  0  2  0  0  0  0  0  0  0  0  0
   -2.4124   32.8979   -5.0696 N   0  0  0  0  0  0  0  0  0  0  0  0
    3.3050   34.0215   -2.1353 C   0  0  2  0  0  0  0  0  0  0  0  0
    4.1468   35.9105    0.6349 C   0  0  1  0  0  0  0  0  0  0  0  0
    4.2801   35.6261   -0.7455 O   0  0  0  0  0  0  0  0  0  0  0  0
   -0.3964   34.2031   -4.3607 C   0  0  1  0  0  0  0  0  0  0  0  0
   -1.1576   35.4013   -4.8263 O   0  0  0  0  0  0  0  0  0  0  0  0
    4.2549   34.2928   -0.9829 C   0  0  2  0  0  0  0  0  0  0  0  0
    4.4390   37.3746    0.8576 C   0  0  1  0  0  0  0  0  0  0  0  0
    5.7715   37.6654    0.4609 N   0  0  0  0  0  0  0  0  0  0  0  0
    0.6024   34.5237   -3.2506 C   0  0  2  0  0  0  0  0  0  0  0  0
    1.6391   35.4704   -3.6064 N   0  0  0  0  0  0  0  0  0  0  0  0
    5.5753   33.7891   -1.5025 C   0  0  1  0  0  0  0  0  0  0  0  0
    6.2544   34.8342   -2.2066 O   0  0  0  0  0  0  0  0  0  0  0  0
    3.4643   38.1796    0.0148 C   0  0  2  0  0  0  0  0  0  0  0  0
    3.7010   39.5608    0.1787 O   0  0  0  0  0  0  0  0  0  0  0  0
    1.2566   33.2345   -2.8263 C   0  0  1  0  0  0  0  0  0  0  0  0
    2.0401   33.5829   -1.6511 O   0  0  0  0  0  0  0  0  0  0  0  0
    5.2069   32.7063   -2.4481 C   0  0  1  0  0  0  0  0  0  0  0  0
    3.9034   33.0106   -2.9498 O   0  0  0  0  0  0  0  0  0  0  0  0
    2.0579   37.8194    0.4940 C   0  0  1  0  0  0  0  0  0  0  0  0
    1.0841   38.5309   -0.2539 O   0  0  0  0  0  0  0  0  0  0  0  0
    0.1821   32.2268   -2.3359 C   0  0  2  0  0  0  0  0  0  0  0  0
    0.8200   31.0264   -1.9282 O   0  0  0  0  0  0  0  0  0  0  0  0
    1.8481   36.3140    0.3276 C   0  0  1  0  0  0  0  0  0  0  0  0
    2.8283   35.6005    1.0795 O   0  0  0  0  0  0  0  0  0  0  0  0
   -0.7963   31.9215   -3.4864 C   0  0  1  0  0  0  0  0  0  0  0  0
   -1.7950   30.9919   -3.0497 O   0  0  0  0  0  0  0  0  0  0  0  0
    0.4536   35.9483    0.8367 C   0  0  0  0  0  0  0  0  0  0  0  0
    0.2662   36.5108    2.1255 O   0  0  0  0  0  0  0  0  0  0  0  0
   -3.0074   34.5463   -6.5254 N   0  0  0  0  0  0  0  0  0  0  0  0
    2.0972   37.2612   -2.5694 N   0  0  0  0  0  0  0  0  0  0  0  0
  1  2  1  0  0  0  0
  1 39  1  0  0  0  0
  3  4  1  0  0  0  0
  5  6  1  0  0  0  0
  5 40  1  0  0  0  0
  9 10  1  6  0  0  0
  9 14  1  0  0  0  0
  9 35  1  0  0  0  0
 10  1  1  0  0  0  0
 11 16  1  0  0  0  0
 11 28  1  0  0  0  0
 11 26  1  1  0  0  0
 12 17  1  0  0  0  0
 12 34  1  0  0  0  0
 12 13  1  6  0  0  0
 14 15  1  1  0  0  0
 14 19  1  0  0  0  0
 16 13  1  6  0  0  0
 16 21  1  0  0  0  0
 17 18  1  6  0  0  0
 17 23  1  0  0  0  0
 18  8  1  0  0  0  0
 19 20  1  6  0  0  0
 19 25  1  0  0  0  0
 20  5  1  0  0  0  0
 21  3  1  1  0  0  0
 21 22  1  0  0  0  0
 21 27  1  0  0  0  0
 23 24  1  1  0  0  0
 23 29  1  0  0  0  0
 25 26  1  1  0  0  0
 25 31  1  0  0  0  0
 27  7  1  6  0  0  0
 27 28  1  0  0  0  0
 29 30  1  6  0  0  0
 29 33  1  0  0  0  0
 31 32  1  6  0  0  0
 31 35  1  0  0  0  0
 33 34  1  0  0  0  0
 33 37  1  1  0  0  0
 35 36  1  1  0  0  0
 37 38  1  0  0  0  0
M  END
>  <CHROM.1>
-67.76812413,-67.53026001,-174.80865492,169.56324395,132.88900038,-69.70988895
94.80939923,-54.63424146,-59.84145173,-87.23985262,-49.73049137,2.05554645
34.94534095,-1.83021800,2.57791327,0.34872114,-2.60170858

>  <Name>
1ntb_lig

>  <RI>
0

>  <Rbt.Current_Directory>
/home/itssahil/PROJECTS/Mol_Feturizer/New_Systems/rnas/1ntb

>  <Rbt.Executable>
rbdock ($Id: //depot/dev/client3/rdock/2013.1/src/exe/rbdock.cxx#4 $)

>  <Rbt.Library>
libRbt.so (2013.1, Build901 2013/11/27)

>  <Rbt.Parameter_File>
/export/apps/rDock/src/rDock_2013.1_src/data/scripts/dock_solv.prm

>  <Rbt.Receptor>
prm/pocket_docking_2.prm

>  <SCORE>
-4.20508

>  <SCORE.INTER>
-7.00058

>  <SCORE.INTER.CONST>
1

>  <SCORE.INTER.POLAR>
-0.796801

>  <SCORE.INTER.ROT>
11

>  <SCORE.INTER.SOLV>
15.5524

>  <SCORE.INTER.VDW>
-18.1285

>  <SCORE.INTER.norm>
-0.175014

>  <SCORE.INTRA>
-5.23678

>  <SCORE.INTRA.DIHEDRAL>
-2.54824

>  <SCORE.INTRA.DIHEDRAL.0>
15.4453

>  <SCORE.INTRA.POLAR>
0

>  <SCORE.INTRA.POLAR.0>
0

>  <SCORE.INTRA.REPUL>
-0.823958

>  <SCORE.INTRA.REPUL.0>
0.823958

>  <SCORE.INTRA.SOLV>
6.20907

>  <SCORE.INTRA.SOLV.lig_0>
-99.3069

>  <SCORE.INTRA.VDW>
-2.94741

>  <SCORE.INTRA.VDW.0>
0.946495

>  <SCORE.INTRA.norm>
-0.130919

>  <SCORE.RESTR>
8.03228

>  <SCORE.RESTR.CAVITY>
8.03228

>  <SCORE.RESTR.norm>
0.200807

>  <SCORE.SYSTEM>
0

>  <SCORE.SYSTEM.CONST>
0

>  <SCORE.SYSTEM.DIHEDRAL>
0

>  <SCORE.SYSTEM.SOLV>
0

>  <SCORE.SYSTEM.norm>
0

>  <SCORE.heavy>
40

>  <SCORE.norm>
-0.105127

>  <RMSD>
7.089

$$$$
1ntb_lig
 OpenBabel11021811403D
libRbt.so/2013.1/901 2013/11/27
 40 42  0  0  0  0  0  0  0  0999 V2000
   -1.8953   38.4710   -0.6084 C   0  0  0  0  0  0  0  0  0  0  0  0
   -1.1112   39.4723   -0.7214 N   0  0  0  0  0  0  0  0  0  0  0  0
    5.5010   33.0913   -0.3358 C   0  0  0  0  0  0  0  0  0  0  0  0
    4.5716   32.0644   -0.0326 O   0  0  0  0  0  0  0  0  0  0  0  0
   -1.0612   32.6551   -0.9102 C   0  0  0  0  0  0  0  0  0  0  0  0
   -2.1342   32.5281   -0.2142 N   0  0  0  0  0  0  0  0  0  0  0  0
    6.1458   33.0880   -3.5240 C   0  0  0  0  0  0  0  0  0  0  0  0
    7.2645   36.5290    1.1518 C   0  0  0  0  0  0  0  0  0  0  0  0
   -1.4821   36.8431   -2.2652 C   0  0  2  0  0  0  0  0  0  0  0  0
   -2.3472   37.9694   -1.7417 N   0  0  0  0  0  0  0  0  0  0  0  0
    3.0260   34.4714   -2.6820 C   0  0  2  0  0  0  0  0  0  0  0  0
    3.7970   35.6999    0.6187 C   0  0  1  0  0  0  0  0  0  0  0  0
    3.6296   35.6969   -0.7870 O   0  0  0  0  0  0  0  0  0  0  0  0
   -1.3030   35.7562   -1.2109 C   0  0  1  0  0  0  0  0  0  0  0  0
   -2.6913   35.3173   -0.8766 O   0  0  0  0  0  0  0  0  0  0  0  0
    3.6134   34.4364   -1.2829 C   0  0  2  0  0  0  0  0  0  0  0  0
    4.8073   36.7604    0.9834 C   0  0  1  0  0  0  0  0  0  0  0  0
    6.0573   36.4630    0.3781 N   0  0  0  0  0  0  0  0  0  0  0  0
   -0.4107   34.6097   -1.6823 C   0  0  2  0  0  0  0  0  0  0  0  0
   -0.2106   33.5463   -0.7196 N   0  0  0  0  0  0  0  0  0  0  0  0
    5.0032   33.9032   -1.5088 C   0  0  1  0  0  0  0  0  0  0  0  0
    5.9039   34.9832   -1.7761 O   0  0  0  0  0  0  0  0  0  0  0  0
    4.2917   38.0941    0.4695 C   0  0  2  0  0  0  0  0  0  0  0  0
    5.2067   39.1233    0.7762 O   0  0  0  0  0  0  0  0  0  0  0  0
    0.9334   35.1851   -2.0462 C   0  0  1  0  0  0  0  0  0  0  0  0
    1.6565   34.0831   -2.6618 O   0  0  0  0  0  0  0  0  0  0  0  0
    4.8750   33.0485   -2.7153 C   0  0  1  0  0  0  0  0  0  0  0  0
    3.7877   33.5666   -3.4850 O   0  0  0  0  0  0  0  0  0  0  0  0
    2.9515   38.3495    1.1596 C   0  0  1  0  0  0  0  0  0  0  0  0
    2.3991   39.5820    0.7244 O   0  0  0  0  0  0  0  0  0  0  0  0
    0.7716   36.2585   -3.1561 C   0  0  2  0  0  0  0  0  0  0  0  0
    2.0490   36.7766   -3.4937 O   0  0  0  0  0  0  0  0  0  0  0  0
    1.9968   37.2022    0.8276 C   0  0  1  0  0  0  0  0  0  0  0  0
    2.5541   35.9639    1.2650 O   0  0  0  0  0  0  0  0  0  0  0  0
   -0.1233   37.4005   -2.6374 C   0  0  1  0  0  0  0  0  0  0  0  0
   -0.2824   38.4005   -3.6509 O   0  0  0  0  0  0  0  0  0  0  0  0
    0.6671   37.4407    1.5436 C   0  0  0  0  0  0  0  0  0  0  0  0
    0.9022   37.5491    2.9384 O   0  0  0  0  0  0  0  0  0  0  0  0
   -2.2457   37.9941    0.5342 N   0  0  0  0  0  0  0  0  0  0  0  0
   -0.8070   31.8217   -1.7977 N   0  0  0  0  0  0  0  0  0  0  0  0
  1  2  1  0  0  0  0
  1 39  1  0  0  0  0
  3  4  1  0  0  0  0
  5  6  1  0  0  0  0
  5 40  1  0  0  0  0
  9 10  1  1  0  0  0
  9 14  1  0  0  0  0
  9 35  1  0  0  0  0
 10  1  1  0  0  0  0
 11 16  1  0  0  0  0
 11 28  1  0  0  0  0
 11 26  1  1  0  0  0
 12 17  1  0  0  0  0
 12 34  1  0  0  0  0
 12 13  1  6  0  0  0
 14 15  1  6  0  0  0
 14 19  1  0  0  0  0
 16 13  1  6  0  0  0
 16 21  1  0  0  0  0
 17 18  1  6  0  0  0
 17 23  1  0  0  0  0
 18  8  1  0  0  0  0
 19 20  1  1  0  0  0
 19 25  1  0  0  0  0
 20  5  1  0  0  0  0
 21  3  1  1  0  0  0
 21 22  1  0  0  0  0
 21 27  1  0  0  0  0
 23 24  1  1  0  0  0
 23 29  1  0  0  0  0
 25 26  1  6  0  0  0
 25 31  1  0  0  0  0
 27  7  1  6  0  0  0
 27 28  1  0  0  0  0
 29 30  1  6  0  0  0
 29 33  1  0  0  0  0
 31 32  1  1  0  0  0
 31 35  1  0  0  0  0
 33 34  1  0  0  0  0
 33 37  1  1  0  0  0
 35 36  1  6  0  0  0
 37 38  1  0  0  0  0
M  END
>  <CHROM.1>
54.45869587,92.45980416,71.97296299,135.88459443,163.16905813,-133.03586289
93.01229035,-99.82278981,54.24817505,-164.44882301,-57.44938340,1.94681690
35.81591027,-0.87408210,-2.94015688,0.15408374,-2.64962353

>  <Name>
1ntb_lig

>  <RI>
0

>  <Rbt.Current_Directory>
/home/itssahil/PROJECTS/Mol_Feturizer/New_Systems/rnas/1ntb

>  <Rbt.Executable>
rbdock ($Id: //depot/dev/client3/rdock/2013.1/src/exe/rbdock.cxx#4 $)

>  <Rbt.Library>
libRbt.so (2013.1, Build901 2013/11/27)

>  <Rbt.Parameter_File>
/export/apps/rDock/src/rDock_2013.1_src/data/scripts/dock_solv.prm

>  <Rbt.Receptor>
prm/pocket_docking_3.prm

>  <SCORE>
-17.9388

>  <SCORE.INTER>
-8.69066

>  <SCORE.INTER.CONST>
1

>  <SCORE.INTER.POLAR>
-1.58716

>  <SCORE.INTER.ROT>
11

>  <SCORE.INTER.SOLV>
15.2799

>  <SCORE.INTER.VDW>
-16.5299

>  <SCORE.INTER.norm>
-0.217267

>  <SCORE.INTRA>
-9.2714

>  <SCORE.INTRA.DIHEDRAL>
-3.23355

>  <SCORE.INTRA.DIHEDRAL.0>
15.4453

>  <SCORE.INTRA.POLAR>
0

>  <SCORE.INTRA.POLAR.0>
0

>  <SCORE.INTRA.REPUL>
-0.823958

>  <SCORE.INTRA.REPUL.0>
0.823958

>  <SCORE.INTRA.SOLV>
3.49786

>  <SCORE.INTRA.SOLV.lig_0>
-99.3069

>  <SCORE.INTRA.VDW>
-5.28376

>  <SCORE.INTRA.VDW.0>
0.946495

>  <SCORE.INTRA.norm>
-0.231785

>  <SCORE.RESTR>
0.0232581

>  <SCORE.RESTR.CAVITY>
0.0232581

>  <SCORE.RESTR.norm>
0.000581452

>  <SCORE.SYSTEM>
0

>  <SCORE.SYSTEM.CONST>
0

>  <SCORE.SYSTEM.DIHEDRAL>
0

>  <SCORE.SYSTEM.SOLV>
0

>  <SCORE.SYSTEM.norm>
0

>  <SCORE.heavy>
40

>  <SCORE.norm>
-0.44847

>  <RMSD>
7.111

$$$$
1ntb_lig
 OpenBabel11021811403D
libRbt.so/2013.1/901 2013/11/27
 40 42  0  0  0  0  0  0  0  0999 V2000
    3.4950   42.4768   -0.2894 C   0  0  0  0  0  0  0  0  0  0  0  0
    3.7661   43.1674    0.7497 N   0  0  0  0  0  0  0  0  0  0  0  0
   -0.4122   32.9532    2.5895 C   0  0  0  0  0  0  0  0  0  0  0  0
    0.8751   33.2487    3.1050 O   0  0  0  0  0  0  0  0  0  0  0  0
    0.9578   37.6804   -3.4363 C   0  0  0  0  0  0  0  0  0  0  0  0
    0.6606   38.3941   -4.4631 N   0  0  0  0  0  0  0  0  0  0  0  0
   -2.1113   35.6274    3.3258 C   0  0  0  0  0  0  0  0  0  0  0  0
   -2.7925   30.6357   -0.8562 C   0  0  0  0  0  0  0  0  0  0  0  0
    2.2989   40.4436   -0.3238 C   0  0  2  0  0  0  0  0  0  0  0  0
    2.2832   41.9571   -0.3289 N   0  0  0  0  0  0  0  0  0  0  0  0
   -0.1953   35.8950    0.3910 C   0  0  2  0  0  0  0  0  0  0  0  0
   -0.1109   32.4593   -0.6628 C   0  0  1  0  0  0  0  0  0  0  0  0
   -0.5862   33.7868   -0.5361 O   0  0  0  0  0  0  0  0  0  0  0  0
    1.3270   39.8834   -1.3565 C   0  0  1  0  0  0  0  0  0  0  0  0
    1.7755   40.4661   -2.6570 O   0  0  0  0  0  0  0  0  0  0  0  0
   -0.0831   34.3916    0.5666 C   0  0  2  0  0  0  0  0  0  0  0  0
   -0.8286   31.7962   -1.8134 C   0  0  1  0  0  0  0  0  0  0  0  0
   -2.2239   31.7555   -1.5511 N   0  0  0  0  0  0  0  0  0  0  0  0
    1.2844   38.3567   -1.3686 C   0  0  2  0  0  0  0  0  0  0  0  0
    0.3793   37.7713   -2.3359 N   0  0  0  0  0  0  0  0  0  0  0  0
   -0.9246   34.1262    1.7867 C   0  0  1  0  0  0  0  0  0  0  0  0
   -2.2853   33.9018    1.4029 O   0  0  0  0  0  0  0  0  0  0  0  0
   -0.5643   32.6165   -3.0647 C   0  0  2  0  0  0  0  0  0  0  0  0
   -1.2232   32.0438   -4.1731 O   0  0  0  0  0  0  0  0  0  0  0  0
    0.8818   37.8913    0.0067 C   0  0  1  0  0  0  0  0  0  0  0  0
    1.0496   36.4466   -0.0246 O   0  0  0  0  0  0  0  0  0  0  0  0
   -0.8277   35.3787    2.5769 C   0  0  1  0  0  0  0  0  0  0  0  0
   -0.5852   36.4420    1.6529 O   0  0  0  0  0  0  0  0  0  0  0  0
    0.9485   32.6169   -3.2859 C   0  0  1  0  0  0  0  0  0  0  0  0
    1.2783   33.3729   -4.4407 O   0  0  0  0  0  0  0  0  0  0  0  0
    1.8922   38.4127    1.0637 C   0  0  2  0  0  0  0  0  0  0  0  0
    1.5030   37.9517    2.3483 O   0  0  0  0  0  0  0  0  0  0  0  0
    1.6290   33.2175   -2.0555 C   0  0  1  0  0  0  0  0  0  0  0  0
    1.2956   32.4568   -0.8956 O   0  0  0  0  0  0  0  0  0  0  0  0
    1.8959   39.9535    1.0522 C   0  0  1  0  0  0  0  0  0  0  0  0
    2.8241   40.4509    2.0234 O   0  0  0  0  0  0  0  0  0  0  0  0
    3.1435   33.1886   -2.2627 C   0  0  0  0  0  0  0  0  0  0  0  0
    3.4901   34.1002   -3.2928 O   0  0  0  0  0  0  0  0  0  0  0  0
    4.3522   42.2760   -1.2278 N   0  0  0  0  0  0  0  0  0  0  0  0
    1.8347   36.8040   -3.5351 N   0  0  0  0  0  0  0  0  0  0  0  0
  1  2  1  0  0  0  0
  1 39  1  0  0  0  0
  3  4  1  0  0  0  0
  5  6  1  0  0  0  0
  5 40  1  0  0  0  0
  9 10  1  1  0  0  0
  9 14  1  0  0  0  0
  9 35  1  0  0  0  0
 10  1  1  0  0  0  0
 11 16  1  0  0  0  0
 11 28  1  0  0  0  0
 11 26  1  1  0  0  0
 12 17  1  0  0  0  0
 12 34  1  0  0  0  0
 12 13  1  6  0  0  0
 14 15  1  6  0  0  0
 14 19  1  0  0  0  0
 16 13  1  6  0  0  0
 16 21  1  0  0  0  0
 17 18  1  1  0  0  0
 17 23  1  0  0  0  0
 18  8  1  0  0  0  0
 19 20  1  6  0  0  0
 19 25  1  0  0  0  0
 20  5  1  0  0  0  0
 21  3  1  1  0  0  0
 21 22  1  0  0  0  0
 21 27  1  0  0  0  0
 23 24  1  6  0  0  0
 23 29  1  0  0  0  0
 25 26  1  6  0  0  0
 25 31  1  0  0  0  0
 27  7  1  6  0  0  0
 27 28  1  0  0  0  0
 29 30  1  6  0  0  0
 29 33  1  0  0  0  0
 31 32  1  1  0  0  0
 31 35  1  0  0  0  0
 33 34  1  0  0  0  0
 33 37  1  6  0  0  0
 35 36  1  1  0  0  0
 37 38  1  0  0  0  0
M  END
>  <CHROM.1>
-135.31669201,-116.37194520,-172.78286957,173.55292882,159.55379915,-89.45973171
85.06446168,-110.16095631,64.29916845,-126.21647118,68.34870669,0.77599218
36.12472208,-0.63084571,-0.68017156,-1.10669905,-2.21010776

>  <Name>
1ntb_lig

>  <RI>
0

>  <Rbt.Current_Directory>
/home/itssahil/PROJECTS/Mol_Feturizer/New_Systems/rnas/1ntb

>  <Rbt.Executable>
rbdock ($Id: //depot/dev/client3/rdock/2013.1/src/exe/rbdock.cxx#4 $)

>  <Rbt.Library>
libRbt.so (2013.1, Build901 2013/11/27)

>  <Rbt.Parameter_File>
/export/apps/rDock/src/rDock_2013.1_src/data/scripts/dock_solv.prm

>  <Rbt.Receptor>
prm/pocket_docking_6.prm

>  <SCORE>
-13.416

>  <SCORE.INTER>
-2.32147

>  <SCORE.INTER.CONST>
1

>  <SCORE.INTER.POLAR>
-1.15606

>  <SCORE.INTER.ROT>
11

>  <SCORE.INTER.SOLV>
13.4833

>  <SCORE.INTER.VDW>
-13.1219

>  <SCORE.INTER.norm>
-0.0580368

>  <SCORE.INTRA>
-11.0945

>  <SCORE.INTRA.DIHEDRAL>
-2.77557

>  <SCORE.INTRA.DIHEDRAL.0>
15.4453

>  <SCORE.INTRA.POLAR>
0

>  <SCORE.INTRA.POLAR.0>
0

>  <SCORE.INTRA.REPUL>
-0.823958

>  <SCORE.INTRA.REPUL.0>
0.823958

>  <SCORE.INTRA.SOLV>
-0.26563

>  <SCORE.INTRA.SOLV.lig_0>
-99.3069

>  <SCORE.INTRA.VDW>
-5.45412

>  <SCORE.INTRA.VDW.0>
0.946495

>  <SCORE.INTRA.norm>
-0.277363

>  <SCORE.RESTR>
0

>  <SCORE.RESTR.CAVITY>
0

>  <SCORE.RESTR.norm>
0

>  <SCORE.SYSTEM>
0

>  <SCORE.SYSTEM.CONST>
0

>  <SCORE.SYSTEM.DIHEDRAL>
0

>  <SCORE.SYSTEM.SOLV>
0

>  <SCORE.SYSTEM.norm>
0

>  <SCORE.heavy>
40

>  <SCORE.norm>
-0.3354

>  <RMSD>
7.131

$$$$
1ntb_lig
 OpenBabel11021811403D
libRbt.so/2013.1/901 2013/11/27
 40 42  0  0  0  0  0  0  0  0999 V2000
    0.3858   42.5043   -6.3609 C   0  0  0  0  0  0  0  0  0  0  0  0
   -0.7770   42.5671   -6.8845 N   0  0  0  0  0  0  0  0  0  0  0  0
    0.4695   32.2947   -2.1159 C   0  0  0  0  0  0  0  0  0  0  0  0
    0.2140   31.0170   -2.6748 O   0  0  0  0  0  0  0  0  0  0  0  0
    2.3388   39.3827   -1.6543 C   0  0  0  0  0  0  0  0  0  0  0  0
    1.3590   39.2638   -0.8309 N   0  0  0  0  0  0  0  0  0  0  0  0
    0.3954   32.4380   -5.3646 C   0  0  0  0  0  0  0  0  0  0  0  0
    6.1718   32.3367   -1.2681 C   0  0  0  0  0  0  0  0  0  0  0  0
    0.6785   40.2858   -5.6134 C   0  0  2  0  0  0  0  0  0  0  0  0
    1.0517   41.3872   -6.5822 N   0  0  0  0  0  0  0  0  0  0  0  0
    1.3392   35.4443   -3.8066 C   0  0  2  0  0  0  0  0  0  0  0  0
    2.9056   33.8417   -0.9548 C   0  0  1  0  0  0  0  0  0  0  0  0
    2.7388   34.6065   -2.1344 O   0  0  0  0  0  0  0  0  0  0  0  0
    1.7976   40.0405   -4.6073 C   0  0  1  0  0  0  0  0  0  0  0  0
    2.0040   41.3600   -3.9378 O   0  0  0  0  0  0  0  0  0  0  0  0
    1.4658   34.5417   -2.5928 C   0  0  2  0  0  0  0  0  0  0  0  0
    4.3628   33.8694   -0.5622 C   0  0  1  0  0  0  0  0  0  0  0  0
    5.1502   33.2911   -1.5932 N   0  0  0  0  0  0  0  0  0  0  0  0
    1.4801   38.9149   -3.6249 C   0  0  2  0  0  0  0  0  0  0  0  0
    2.5094   38.6429   -2.6430 N   0  0  0  0  0  0  0  0  0  0  0  0
    1.1352   33.1799   -3.1435 C   0  0  1  0  0  0  0  0  0  0  0  0
    2.3222   32.5512   -3.6383 O   0  0  0  0  0  0  0  0  0  0  0  0
    4.7654   35.3206   -0.3604 C   0  0  2  0  0  0  0  0  0  0  0  0
    6.1269   35.4048   -0.0003 O   0  0  0  0  0  0  0  0  0  0  0  0
    1.2330   37.6591   -4.4199 C   0  0  1  0  0  0  0  0  0  0  0  0
    0.7521   36.6904   -3.4469 O   0  0  0  0  0  0  0  0  0  0  0  0
    0.2088   33.4562   -4.2696 C   0  0  1  0  0  0  0  0  0  0  0  0
    0.5176   34.7636   -4.7579 O   0  0  0  0  0  0  0  0  0  0  0  0
    3.8830   35.8763    0.7576 C   0  0  1  0  0  0  0  0  0  0  0  0
    4.1963   37.2385    1.0028 O   0  0  0  0  0  0  0  0  0  0  0  0
    0.0611   37.8787   -5.4142 C   0  0  2  0  0  0  0  0  0  0  0  0
   -0.1641   36.6811   -6.1417 O   0  0  0  0  0  0  0  0  0  0  0  0
    2.4170   35.7429    0.3444 C   0  0  1  0  0  0  0  0  0  0  0  0
    2.1041   34.3731    0.0976 O   0  0  0  0  0  0  0  0  0  0  0  0
    0.4256   39.0115   -6.3931 C   0  0  1  0  0  0  0  0  0  0  0  0
   -0.6466   39.2267   -7.3184 O   0  0  0  0  0  0  0  0  0  0  0  0
    1.5331   36.2689    1.4756 C   0  0  0  0  0  0  0  0  0  0  0  0
    1.7057   37.6725    1.5872 O   0  0  0  0  0  0  0  0  0  0  0  0
    0.8715   43.4546   -5.6421 N   0  0  0  0  0  0  0  0  0  0  0  0
    3.1489   40.3150   -1.5086 N   0  0  0  0  0  0  0  0  0  0  0  0
  1  2  1  0  0  0  0
  1 39  1  0  0  0  0
  3  4  1  0  0  0  0
  5  6  1  0  0  0  0
  5 40  1  0  0  0  0
  9 10  1  6  0  0  0
  9 14  1  0  0  0  0
  9 35  1  0  0  0  0
 10  1  1  0  0  0  0
 11 16  1  0  0  0  0
 11 28  1  0  0  0  0
 11 26  1  1  0  0  0
 12 17  1  0  0  0  0
 12 34  1  0  0  0  0
 12 13  1  6  0  0  0
 14 15  1  1  0  0  0
 14 19  1  0  0  0  0
 16 13  1  6  0  0  0
 16 21  1  0  0  0  0
 17 18  1  6  0  0  0
 17 23  1  0  0  0  0
 18  8  1  0  0  0  0
 19 20  1  1  0  0  0
 19 25  1  0  0  0  0
 20  5  1  0  0  0  0
 21  3  1  1  0  0  0
 21 22  1  0  0  0  0
 21 27  1  0  0  0  0
 23 24  1  1  0  0  0
 23 29  1  0  0  0  0
 25 26  1  1  0  0  0
 25 31  1  0  0  0  0
 27  7  1  6  0  0  0
 27 28  1  0  0  0  0
 29 30  1  6  0  0  0
 29 33  1  0  0  0  0
 31 32  1  6  0  0  0
 31 35  1  0  0  0  0
 33 34  1  0  0  0  0
 33 37  1  1  0  0  0
 35 36  1  6  0  0  0
 37 38  1  0  0  0  0
M  END
>  <CHROM.1>
-107.43623893,-83.62262814,153.61478617,175.58190917,176.74949832,-133.84218445
87.36675737,69.58936735,-178.42415548,-141.23654145,68.27600604,1.87193966
36.72316451,-2.90751900,-2.14987246,1.01613369,3.07699010

>  <Name>
1ntb_lig

>  <RI>
0

>  <Rbt.Current_Directory>
/home/itssahil/PROJECTS/Mol_Feturizer/New_Systems/rnas/1ntb

>  <Rbt.Executable>
rbdock ($Id: //depot/dev/client3/rdock/2013.1/src/exe/rbdock.cxx#4 $)

>  <Rbt.Library>
libRbt.so (2013.1, Build901 2013/11/27)

>  <Rbt.Parameter_File>
/export/apps/rDock/src/rDock_2013.1_src/data/scripts/dock_solv.prm

>  <Rbt.Receptor>
prm/pocket_docking_7.prm

>  <SCORE>
-19.5104

>  <SCORE.INTER>
-8.69625

>  <SCORE.INTER.CONST>
1

>  <SCORE.INTER.POLAR>
-0.505751

>  <SCORE.INTER.ROT>
11

>  <SCORE.INTER.SOLV>
13.3804

>  <SCORE.INTER.VDW>
-19.5051

>  <SCORE.INTER.norm>
-0.217406

>  <SCORE.INTRA>
-10.8141

>  <SCORE.INTRA.DIHEDRAL>
-2.66588

>  <SCORE.INTRA.DIHEDRAL.0>
15.4453

>  <SCORE.INTRA.POLAR>
0

>  <SCORE.INTRA.POLAR.0>
0

>  <SCORE.INTRA.REPUL>
-0.804859

>  <SCORE.INTRA.REPUL.0>
0.823958

>  <SCORE.INTRA.SOLV>
0.349867

>  <SCORE.INTRA.SOLV.lig_0>
-99.3069

>  <SCORE.INTRA.VDW>
-5.63181

>  <SCORE.INTRA.VDW.0>
0.946495

>  <SCORE.INTRA.norm>
-0.270353

>  <SCORE.RESTR>
0

>  <SCORE.RESTR.CAVITY>
0

>  <SCORE.RESTR.norm>
0

>  <SCORE.SYSTEM>
0

>  <SCORE.SYSTEM.CONST>
0

>  <SCORE.SYSTEM.DIHEDRAL>
0

>  <SCORE.SYSTEM.SOLV>
0

>  <SCORE.SYSTEM.norm>
0

>  <SCORE.heavy>
40

>  <SCORE.norm>
-0.487759

>  <RMSD>
7.133

$$$$
1ntb_lig
 OpenBabel11021811403D
libRbt.so/2013.1/901 2013/11/27
 40 42  0  0  0  0  0  0  0  0999 V2000
    0.3262   42.5033   -6.3460 C   0  0  0  0  0  0  0  0  0  0  0  0
   -0.7524   42.5659   -7.0264 N   0  0  0  0  0  0  0  0  0  0  0  0
    0.4707   32.2815   -2.1072 C   0  0  0  0  0  0  0  0  0  0  0  0
   -0.6773   32.9203   -1.5739 O   0  0  0  0  0  0  0  0  0  0  0  0
    2.1883   39.1411   -1.5401 C   0  0  0  0  0  0  0  0  0  0  0  0
    1.2507   38.7289   -0.7635 N   0  0  0  0  0  0  0  0  0  0  0  0
    0.3446   32.4170   -5.3546 C   0  0  0  0  0  0  0  0  0  0  0  0
    6.2018   32.3563   -1.3366 C   0  0  0  0  0  0  0  0  0  0  0  0
    0.6651   40.3024   -5.5671 C   0  0  2  0  0  0  0  0  0  0  0  0
    1.0486   41.4134   -6.5207 N   0  0  0  0  0  0  0  0  0  0  0  0
    1.2932   35.4328   -3.8182 C   0  0  2  0  0  0  0  0  0  0  0  0
    2.9052   33.8794   -0.9661 C   0  0  1  0  0  0  0  0  0  0  0  0
    2.7243   34.6079   -2.1663 O   0  0  0  0  0  0  0  0  0  0  0  0
    1.7829   40.0310   -4.5662 C   0  0  1  0  0  0  0  0  0  0  0  0
    2.0040   41.3386   -3.8783 O   0  0  0  0  0  0  0  0  0  0  0  0
    1.4448   34.5338   -2.6046 C   0  0  2  0  0  0  0  0  0  0  0  0
    4.3756   33.8659   -0.6252 C   0  0  1  0  0  0  0  0  0  0  0  0
    5.1040   33.2223   -1.6609 N   0  0  0  0  0  0  0  0  0  0  0  0
    1.4549   38.8950   -3.5995 C   0  0  2  0  0  0  0  0  0  0  0  0
    2.4825   38.5982   -2.6230 N   0  0  0  0  0  0  0  0  0  0  0  0
    1.1144   33.1687   -3.1471 C   0  0  1  0  0  0  0  0  0  0  0  0
    2.2975   32.5465   -3.6591 O   0  0  0  0  0  0  0  0  0  0  0  0
    4.8378   35.3070   -0.4905 C   0  0  2  0  0  0  0  0  0  0  0  0
    6.2135   35.3525   -0.1808 O   0  0  0  0  0  0  0  0  0  0  0  0
    1.1935   37.6533   -4.4118 C   0  0  1  0  0  0  0  0  0  0  0  0
    0.7038   36.6759   -3.4520 O   0  0  0  0  0  0  0  0  0  0  0  0
    0.1687   33.4364   -4.2590 C   0  0  1  0  0  0  0  0  0  0  0  0
    0.4612   34.7447   -4.7550 O   0  0  0  0  0  0  0  0  0  0  0  0
    4.0169   35.9348    0.6361 C   0  0  1  0  0  0  0  0  0  0  0  0
    4.3882   37.2919    0.8204 O   0  0  0  0  0  0  0  0  0  0  0  0
    0.0227   37.8993   -5.4012 C   0  0  2  0  0  0  0  0  0  0  0  0
   -0.2160   36.7146   -6.1453 O   0  0  0  0  0  0  0  0  0  0  0  0
    2.5331   35.8423    0.2789 C   0  0  1  0  0  0  0  0  0  0  0  0
    2.1618   34.4774    0.0932 O   0  0  0  0  0  0  0  0  0  0  0  0
    0.3978   39.0420   -6.3644 C   0  0  1  0  0  0  0  0  0  0  0  0
   -0.6733   39.2815   -7.2850 O   0  0  0  0  0  0  0  0  0  0  0  0
    1.7100   36.4408    1.4198 C   0  0  0  0  0  0  0  0  0  0  0  0
    0.3343   36.3915    1.0772 O   0  0  0  0  0  0  0  0  0  0  0  0
    0.6780   43.4279   -5.5232 N   0  0  0  0  0  0  0  0  0  0  0  0
    2.8192   40.1706   -1.2423 N   0  0  0  0  0  0  0  0  0  0  0  0
  1  2  1  0  0  0  0
  1 39  1  0  0  0  0
  3  4  1  0  0  0  0
  5  6  1  0  0  0  0
  5 40  1  0  0  0  0
  9 10  1  6  0  0  0
  9 14  1  0  0  0  0
  9 35  1  0  0  0  0
 10  1  1  0  0  0  0
 11 16  1  0  0  0  0
 11 28  1  0  0  0  0
 11 26  1  1  0  0  0
 12 17  1  0  0  0  0
 12 34  1  0  0  0  0
 12 13  1  6  0  0  0
 14 15  1  1  0  0  0
 14 19  1  0  0  0  0
 16 13  1  6  0  0  0
 16 21  1  0  0  0  0
 17 18  1  6  0  0  0
 17 23  1  0  0  0  0
 18  8  1  0  0  0  0
 19 20  1  1  0  0  0
 19 25  1  0  0  0  0
 20  5  1  0  0  0  0
 21  3  1  1  0  0  0
 21 22  1  0  0  0  0
 21 27  1  0  0  0  0
 23 24  1  1  0  0  0
 23 29  1  0  0  0  0
 25 26  1  1  0  0  0
 25 31  1  0  0  0  0
 27  7  1  6  0  0  0
 27 28  1  0  0  0  0
 29 30  1  6  0  0  0
 29 33  1  0  0  0  0
 31 32  1  6  0  0  0
 31 35  1  0  0  0  0
 33 34  1  0  0  0  0
 33 37  1  1  0  0  0
 35 36  1  6  0  0  0
 37 38  1  0  0  0  0
M  END
>  <CHROM.1>
-112.06682853,-89.41183123,152.02389469,173.30091387,174.99650629,-140.87048215
99.17947041,73.10420790,55.40477349,-140.38372140,178.38802021,1.79478507
36.72694022,-2.89763912,-2.14506918,0.97903114,3.03558382

>  <Name>
1ntb_lig

>  <RI>
0

>  <Rbt.Current_Directory>
/home/itssahil/PROJECTS/Mol_Feturizer/New_Systems/rnas/1ntb

>  <Rbt.Executable>
rbdock ($Id: //depot/dev/client3/rdock/2013.1/src/exe/rbdock.cxx#4 $)

>  <Rbt.Library>
libRbt.so (2013.1, Build901 2013/11/27)

>  <Rbt.Parameter_File>
/export/apps/rDock/src/rDock_2013.1_src/data/scripts/dock_solv.prm

>  <Rbt.Receptor>
prm/pocket_docking_8.prm

>  <SCORE>
-20.0759

>  <SCORE.INTER>
-8.3551

>  <SCORE.INTER.CONST>
1

>  <SCORE.INTER.POLAR>
-0.527232

>  <SCORE.INTER.ROT>
11

>  <SCORE.INTER.SOLV>
11.181

>  <SCORE.INTER.VDW>
-18.4729

>  <SCORE.INTER.norm>
-0.208877

>  <SCORE.INTRA>
-11.7208

>  <SCORE.INTRA.DIHEDRAL>
-2.12441

>  <SCORE.INTRA.DIHEDRAL.0>
15.4453

>  <SCORE.INTRA.POLAR>
0

>  <SCORE.INTRA.POLAR.0>
0

>  <SCORE.INTRA.REPUL>
-0.819594

>  <SCORE.INTRA.REPUL.0>
0.823958

>  <SCORE.INTRA.SOLV>
1.12819

>  <SCORE.INTRA.SOLV.lig_0>
-99.3069

>  <SCORE.INTRA.VDW>
-7.12476

>  <SCORE.INTRA.VDW.0>
0.946495

>  <SCORE.INTRA.norm>
-0.293021

>  <SCORE.RESTR>
0

>  <SCORE.RESTR.CAVITY>
0

>  <SCORE.RESTR.norm>
0

>  <SCORE.SYSTEM>
0

>  <SCORE.SYSTEM.CONST>
0

>  <SCORE.SYSTEM.DIHEDRAL>
0

>  <SCORE.SYSTEM.SOLV>
0

>  <SCORE.SYSTEM.norm>
0

>  <SCORE.heavy>
40

>  <SCORE.norm>
-0.501898

>  <RMSD>
7.140

$$$$
1ntb_lig
 OpenBabel11021811403D
libRbt.so/2013.1/901 2013/11/27
 40 42  0  0  0  0  0  0  0  0999 V2000
    2.3138   41.9515   -1.8341 C   0  0  0  0  0  0  0  0  0  0  0  0
    1.6972   42.5797   -2.7589 N   0  0  0  0  0  0  0  0  0  0  0  0
   -2.3125   33.2252    0.6396 C   0  0  0  0  0  0  0  0  0  0  0  0
   -3.5461   33.2039    1.3383 O   0  0  0  0  0  0  0  0  0  0  0  0
    0.0133   37.1726   -4.2777 C   0  0  0  0  0  0  0  0  0  0  0  0
    0.7620   36.1707   -4.5737 N   0  0  0  0  0  0  0  0  0  0  0  0
   -3.3999   36.2598    1.0746 C   0  0  0  0  0  0  0  0  0  0  0  0
    1.8962   32.5589   -0.5160 C   0  0  0  0  0  0  0  0  0  0  0  0
    2.8933   39.6760   -2.0617 C   0  0  2  0  0  0  0  0  0  0  0  0
    3.2659   41.1324   -2.2375 N   0  0  0  0  0  0  0  0  0  0  0  0
   -0.5954   36.0174   -1.0305 C   0  0  2  0  0  0  0  0  0  0  0  0
    0.0147   33.7188   -2.9041 C   0  0  1  0  0  0  0  0  0  0  0  0
   -1.1809   34.1200   -2.2609 O   0  0  0  0  0  0  0  0  0  0  0  0
    1.5414   39.3767   -2.7003 C   0  0  1  0  0  0  0  0  0  0  0  0
    1.7020   39.7680   -4.1331 O   0  0  0  0  0  0  0  0  0  0  0  0
   -0.9468   34.5413   -0.9950 C   0  0  2  0  0  0  0  0  0  0  0  0
    0.3663   32.3242   -2.4458 C   0  0  1  0  0  0  0  0  0  0  0  0
    0.5824   32.3190   -1.0420 N   0  0  0  0  0  0  0  0  0  0  0  0
    1.1068   37.9234   -2.5226 C   0  0  2  0  0  0  0  0  0  0  0  0
   -0.1703   37.5833   -3.1151 N   0  0  0  0  0  0  0  0  0  0  0  0
   -2.1936   34.5070   -0.1514 C   0  0  1  0  0  0  0  0  0  0  0  0
   -3.3486   34.6826   -0.9786 O   0  0  0  0  0  0  0  0  0  0  0  0
   -0.7984   31.4112   -2.7901 C   0  0  2  0  0  0  0  0  0  0  0  0
   -0.5252   30.0915   -2.3725 O   0  0  0  0  0  0  0  0  0  0  0  0
    1.0413   37.6343   -1.0453 C   0  0  1  0  0  0  0  0  0  0  0  0
    0.8146   36.2001   -0.9557 O   0  0  0  0  0  0  0  0  0  0  0  0
   -2.0499   35.6690    0.7605 C   0  0  1  0  0  0  0  0  0  0  0  0
   -1.2367   36.6336    0.0886 O   0  0  0  0  0  0  0  0  0  0  0  0
   -0.9728   31.4646   -4.3080 C   0  0  1  0  0  0  0  0  0  0  0  0
   -2.0528   30.6367   -4.7102 O   0  0  0  0  0  0  0  0  0  0  0  0
    2.4260   37.8863   -0.3902 C   0  0  2  0  0  0  0  0  0  0  0  0
    2.3460   37.5948    0.9964 O   0  0  0  0  0  0  0  0  0  0  0  0
   -1.2389   32.9112   -4.7256 C   0  0  1  0  0  0  0  0  0  0  0  0
   -0.1525   33.7421   -4.3197 O   0  0  0  0  0  0  0  0  0  0  0  0
    2.8213   39.3634   -0.5809 C   0  0  1  0  0  0  0  0  0  0  0  0
    4.0982   39.6126    0.0189 O   0  0  0  0  0  0  0  0  0  0  0  0
   -1.3813   32.9701   -6.2467 C   0  0  0  0  0  0  0  0  0  0  0  0
   -1.6535   34.3064   -6.6375 O   0  0  0  0  0  0  0  0  0  0  0  0
    2.0136   42.0853   -0.5900 N   0  0  0  0  0  0  0  0  0  0  0  0
   -0.5295   37.8199   -5.1904 N   0  0  0  0  0  0  0  0  0  0  0  0
  1  2  1  0  0  0  0
  1 39  1  0  0  0  0
  3  4  1  0  0  0  0
  5  6  1  0  0  0  0
  5 40  1  0  0  0  0
  9 10  1  1  0  0  0
  9 14  1  0  0  0  0
  9 35  1  0  0  0  0
 10  1  1  0  0  0  0
 11 16  1  0  0  0  0
 11 28  1  0  0  0  0
 11 26  1  1  0  0  0
 12 17  1  0  0  0  0
 12 34  1  0  0  0  0
 12 13  1  1  0  0  0
 14 15  1  6  0  0  0
 14 19  1  0  0  0  0
 16 13  1  6  0  0  0
 16 21  1  0  0  0  0
 17 18  1  1  0  0  0
 17 23  1  0  0  0  0
 18  8  1  0  0  0  0
 19 20  1  1  0  0  0
 19 25  1  0  0  0  0
 20  5  1  0  0  0  0
 21  3  1  1  0  0  0
 21 22  1  0  0  0  0
 21 27  1  0  0  0  0
 23 24  1  6  0  0  0
 23 29  1  0  0  0  0
 25 26  1  6  0  0  0
 25 31  1  0  0  0  0
 27  7  1  6  0  0  0
 27 28  1  0  0  0  0
 29 30  1  1  0  0  0
 29 33  1  0  0  0  0
 31 32  1  1  0  0  0
 31 35  1  0  0  0  0
 33 34  1  0  0  0  0
 33 37  1  6  0  0  0
 35 36  1  6  0  0  0
 37 38  1  0  0  0  0
M  END
>  <CHROM.1>
52.24701082,-109.10353609,178.01654531,79.91733078,86.86327588,-90.01941273
91.52231722,57.62258225,-175.80355463,-86.60548147,178.90735433,0.05898731
35.92555724,-2.05605079,-0.40999939,-1.10348779,-1.88807069

>  <Name>
1ntb_lig

>  <RI>
0

>  <Rbt.Current_Directory>
/home/itssahil/PROJECTS/Mol_Feturizer/New_Systems/rnas/1ntb

>  <Rbt.Executable>
rbdock ($Id: //depot/dev/client3/rdock/2013.1/src/exe/rbdock.cxx#4 $)

>  <Rbt.Library>
libRbt.so (2013.1, Build901 2013/11/27)

>  <Rbt.Parameter_File>
/export/apps/rDock/src/rDock_2013.1_src/data/scripts/dock_solv.prm

>  <Rbt.Receptor>
prm/pocket_docking_3.prm

>  <SCORE>
-0.943423

>  <SCORE.INTER>
6.31053

>  <SCORE.INTER.CONST>
1

>  <SCORE.INTER.POLAR>
0

>  <SCORE.INTER.ROT>
11

>  <SCORE.INTER.SOLV>
8.32404

>  <SCORE.INTER.VDW>
-9.50099

>  <SCORE.INTER.norm>
0.157763

>  <SCORE.INTRA>
-7.45131

>  <SCORE.INTRA.DIHEDRAL>
-4.94277

>  <SCORE.INTRA.DIHEDRAL.0>
15.4453

>  <SCORE.INTRA.POLAR>
0

>  <SCORE.INTRA.POLAR.0>
0

>  <SCORE.INTRA.REPUL>
-0.823958

>  <SCORE.INTRA.REPUL.0>
0.823958

>  <SCORE.INTRA.SOLV>
4.67145

>  <SCORE.INTRA.SOLV.lig_0>
-99.3069

>  <SCORE.INTRA.VDW>
-3.19586

>  <SCORE.INTRA.VDW.0>
0.946495

>  <SCORE.INTRA.norm>
-0.186283

>  <SCORE.RESTR>
0.197352

>  <SCORE.RESTR.CAVITY>
0.197352

>  <SCORE.RESTR.norm>
0.00493381

>  <SCORE.SYSTEM>
0

>  <SCORE.SYSTEM.CONST>
0

>  <SCORE.SYSTEM.DIHEDRAL>
0

>  <SCORE.SYSTEM.SOLV>
0

>  <SCORE.SYSTEM.norm>
0

>  <SCORE.heavy>
40

>  <SCORE.norm>
-0.0235856

>  <RMSD>
7.143

$$$$
1ntb_lig
 OpenBabel11021811403D
libRbt.so/2013.1/901 2013/11/27
 40 42  0  0  0  0  0  0  0  0999 V2000
    3.4866   42.5017   -0.2593 C   0  0  0  0  0  0  0  0  0  0  0  0
    3.7562   43.1488    0.8079 N   0  0  0  0  0  0  0  0  0  0  0  0
   -0.3909   33.0127    2.6653 C   0  0  0  0  0  0  0  0  0  0  0  0
    0.9204   33.2979    3.1230 O   0  0  0  0  0  0  0  0  0  0  0  0
    0.9082   37.7193   -3.4211 C   0  0  0  0  0  0  0  0  0  0  0  0
    0.6060   38.4436   -4.4389 N   0  0  0  0  0  0  0  0  0  0  0  0
   -2.0807   35.6935    3.3986 C   0  0  0  0  0  0  0  0  0  0  0  0
   -2.8478   30.7105   -0.6983 C   0  0  0  0  0  0  0  0  0  0  0  0
    2.2857   40.4719   -0.3179 C   0  0  2  0  0  0  0  0  0  0  0  0
    2.2743   41.9854   -0.3227 N   0  0  0  0  0  0  0  0  0  0  0  0
   -0.2103   35.9306    0.4319 C   0  0  2  0  0  0  0  0  0  0  0  0
   -0.1537   32.4777   -0.5755 C   0  0  1  0  0  0  0  0  0  0  0  0
   -0.6136   33.8121   -0.4662 O   0  0  0  0  0  0  0  0  0  0  0  0
    1.3036   39.9146   -1.3425 C   0  0  1  0  0  0  0  0  0  0  0  0
    1.7426   40.4963   -2.6466 O   0  0  0  0  0  0  0  0  0  0  0  0
   -0.0941   34.4292    0.6221 C   0  0  2  0  0  0  0  0  0  0  0  0
   -0.8789   31.8080   -1.7175 C   0  0  1  0  0  0  0  0  0  0  0  0
   -2.2746   31.7870   -1.4552 N   0  0  0  0  0  0  0  0  0  0  0  0
    1.2565   38.3881   -1.3544 C   0  0  2  0  0  0  0  0  0  0  0  0
    0.3415   37.8054   -2.3140 N   0  0  0  0  0  0  0  0  0  0  0  0
   -0.9165   34.1765    1.8578 C   0  0  1  0  0  0  0  0  0  0  0  0
   -2.2828   33.9470    1.4974 O   0  0  0  0  0  0  0  0  0  0  0  0
   -0.6048   32.6089   -2.9793 C   0  0  2  0  0  0  0  0  0  0  0  0
   -1.2702   32.0296   -4.0804 O   0  0  0  0  0  0  0  0  0  0  0  0
    0.8642   37.9235    0.0242 C   0  0  1  0  0  0  0  0  0  0  0  0
    1.0277   36.4784   -0.0087 O   0  0  0  0  0  0  0  0  0  0  0  0
   -0.8085   35.4375    2.6327 C   0  0  1  0  0  0  0  0  0  0  0  0
   -0.5811   36.4909    1.6936 O   0  0  0  0  0  0  0  0  0  0  0  0
    0.9079   32.5888   -3.2000 C   0  0  1  0  0  0  0  0  0  0  0  0
    1.2467   33.3259   -4.3644 O   0  0  0  0  0  0  0  0  0  0  0  0
    1.8851   38.4419    1.0727 C   0  0  2  0  0  0  0  0  0  0  0  0
    1.5054   37.9818    2.3605 O   0  0  0  0  0  0  0  0  0  0  0  0
    1.5951   33.1975   -1.9773 C   0  0  1  0  0  0  0  0  0  0  0  0
    1.2527   32.4558   -0.8077 O   0  0  0  0  0  0  0  0  0  0  0  0
    1.8930   39.9827    1.0613 C   0  0  1  0  0  0  0  0  0  0  0  0
    2.8308   40.4773    2.0247 O   0  0  0  0  0  0  0  0  0  0  0  0
    3.1092   33.1482   -2.1835 C   0  0  0  0  0  0  0  0  0  0  0  0
    3.4655   34.0358   -3.2313 O   0  0  0  0  0  0  0  0  0  0  0  0
    4.3455   42.3388   -1.2035 N   0  0  0  0  0  0  0  0  0  0  0  0
    1.7774   36.8373   -3.5359 N   0  0  0  0  0  0  0  0  0  0  0  0
  1  2  1  0  0  0  0
  1 39  1  0  0  0  0
  3  4  1  0  0  0  0
  5  6  1  0  0  0  0
  5 40  1  0  0  0  0
  9 10  1  1  0  0  0
  9 14  1  0  0  0  0
  9 35  1  0  0  0  0
 10  1  1  0  0  0  0
 11 16  1  0  0  0  0
 11 28  1  0  0  0  0
 11 26  1  1  0  0  0
 12 17  1  0  0  0  0
 12 34  1  0  0  0  0
 12 13  1  6  0  0  0
 14 15  1  6  0  0  0
 14 19  1  0  0  0  0
 16 13  1  6  0  0  0
 16 21  1  0  0  0  0
 17 18  1  1  0  0  0
 17 23  1  0  0  0  0
 18  8  1  0  0  0  0
 19 20  1  6  0  0  0
 19 25  1  0  0  0  0
 20  5  1  0  0  0  0
 21  3  1  1  0  0  0
 21 22  1  0  0  0  0
 21 27  1  0  0  0  0
 23 24  1  6  0  0  0
 23 29  1  0  0  0  0
 25 26  1  6  0  0  0
 25 31  1  0  0  0  0
 27  7  1  6  0  0  0
 27 28  1  0  0  0  0
 29 30  1  6  0  0  0
 29 33  1  0  0  0  0
 31 32  1  1  0  0  0
 31 35  1  0  0  0  0
 33 34  1  0  0  0  0
 33 37  1  6  0  0  0
 35 36  1  1  0  0  0
 37 38  1  0  0  0  0
M  END
>  <CHROM.1>
-136.91918679,-113.83106927,-172.14463199,174.11329537,160.37208292,-86.88806864
84.73107859,-109.60968194,62.49988221,-126.86298516,67.96851332,0.75654795
36.14800892,-0.58136345,-0.66750969,-1.11205354,-2.20311287

>  <Name>
1ntb_lig

>  <RI>
0

>  <Rbt.Current_Directory>
/home/itssahil/PROJECTS/Mol_Feturizer/New_Systems/rnas/1ntb

>  <Rbt.Executable>
rbdock ($Id: //depot/dev/client3/rdock/2013.1/src/exe/rbdock.cxx#4 $)

>  <Rbt.Library>
libRbt.so (2013.1, Build901 2013/11/27)

>  <Rbt.Parameter_File>
/export/apps/rDock/src/rDock_2013.1_src/data/scripts/dock_solv.prm

>  <Rbt.Receptor>
prm/pocket_docking_6.prm

>  <SCORE>
-13.4408

>  <SCORE.INTER>
-2.20885

>  <SCORE.INTER.CONST>
1

>  <SCORE.INTER.POLAR>
-1.14454

>  <SCORE.INTER.ROT>
11

>  <SCORE.INTER.SOLV>
13.1977

>  <SCORE.INTER.VDW>
-12.99

>  <SCORE.INTER.norm>
-0.0552213

>  <SCORE.INTRA>
-11.232

>  <SCORE.INTRA.DIHEDRAL>
-3.14124

>  <SCORE.INTRA.DIHEDRAL.0>
15.4453

>  <SCORE.INTRA.POLAR>
0

>  <SCORE.INTRA.POLAR.0>
0

>  <SCORE.INTRA.REPUL>
-0.823958

>  <SCORE.INTRA.REPUL.0>
0.823958

>  <SCORE.INTRA.SOLV>
-0.460696

>  <SCORE.INTRA.SOLV.lig_0>
-99.3069

>  <SCORE.INTRA.VDW>
-5.31121

>  <SCORE.INTRA.VDW.0>
0.946495

>  <SCORE.INTRA.norm>
-0.280799

>  <SCORE.RESTR>
0

>  <SCORE.RESTR.CAVITY>
0

>  <SCORE.RESTR.norm>
0

>  <SCORE.SYSTEM>
0

>  <SCORE.SYSTEM.CONST>
0

>  <SCORE.SYSTEM.DIHEDRAL>
0

>  <SCORE.SYSTEM.SOLV>
0

>  <SCORE.SYSTEM.norm>
0

>  <SCORE.heavy>
40

>  <SCORE.norm>
-0.33602

>  <RMSD>
7.154

$$$$
1ntb_lig
 OpenBabel11021811403D
libRbt.so/2013.1/901 2013/11/27
 40 42  0  0  0  0  0  0  0  0999 V2000
    3.1743   42.5215   -0.5869 C   0  0  0  0  0  0  0  0  0  0  0  0
    3.3428   43.0184   -1.7509 N   0  0  0  0  0  0  0  0  0  0  0  0
    0.0235   32.7606    2.6661 C   0  0  0  0  0  0  0  0  0  0  0  0
   -0.3665   31.5452    2.0489 O   0  0  0  0  0  0  0  0  0  0  0  0
    0.8324   37.4593   -3.3583 C   0  0  0  0  0  0  0  0  0  0  0  0
    1.8527   36.6941   -3.5182 N   0  0  0  0  0  0  0  0  0  0  0  0
   -1.7106   35.3421    3.6195 C   0  0  0  0  0  0  0  0  0  0  0  0
   -2.6474   30.2825   -1.4813 C   0  0  0  0  0  0  0  0  0  0  0  0
    2.1102   40.4279   -0.3619 C   0  0  2  0  0  0  0  0  0  0  0  0
    2.0096   41.9380   -0.3787 N   0  0  0  0  0  0  0  0  0  0  0  0
   -0.0781   35.7573    0.5344 C   0  0  2  0  0  0  0  0  0  0  0  0
    0.0845   32.3708   -0.6396 C   0  0  1  0  0  0  0  0  0  0  0  0
   -0.4639   33.6553   -0.4090 O   0  0  0  0  0  0  0  0  0  0  0  0
    1.1273   39.8036   -1.3463 C   0  0  1  0  0  0  0  0  0  0  0  0
    1.4853   40.3966   -2.6699 O   0  0  0  0  0  0  0  0  0  0  0  0
    0.1108   34.2565    0.6601 C   0  0  2  0  0  0  0  0  0  0  0  0
   -0.6602   31.7247   -1.7826 C   0  0  1  0  0  0  0  0  0  0  0  0
   -2.0314   31.5783   -1.4422 N   0  0  0  0  0  0  0  0  0  0  0  0
    1.1698   38.2769   -1.3440 C   0  0  2  0  0  0  0  0  0  0  0  0
    0.2576   37.6318   -2.2657 N   0  0  0  0  0  0  0  0  0  0  0  0
   -0.6063   33.9280    1.9427 C   0  0  1  0  0  0  0  0  0  0  0  0
   -1.9856   33.6539    1.6754 O   0  0  0  0  0  0  0  0  0  0  0  0
   -0.5256   32.6268   -2.9978 C   0  0  2  0  0  0  0  0  0  0  0  0
   -1.2149   32.0725   -4.0971 O   0  0  0  0  0  0  0  0  0  0  0  0
    0.8540   37.8044    0.0514 C   0  0  1  0  0  0  0  0  0  0  0  0
    1.1010   36.3710    0.0246 O   0  0  0  0  0  0  0  0  0  0  0  0
   -0.4902   35.1656    2.7535 C   0  0  1  0  0  0  0  0  0  0  0  0
   -0.3752   36.2587    1.8397 O   0  0  0  0  0  0  0  0  0  0  0  0
    0.9676   32.7386   -3.3065 C   0  0  1  0  0  0  0  0  0  0  0  0
    1.1775   33.5757   -4.4330 O   0  0  0  0  0  0  0  0  0  0  0  0
    1.8787   38.3924    1.0587 C   0  0  2  0  0  0  0  0  0  0  0  0
    1.5722   37.9241    2.3628 O   0  0  0  0  0  0  0  0  0  0  0  0
    1.6841   33.3156   -2.0853 C   0  0  1  0  0  0  0  0  0  0  0  0
    1.4713   32.4733   -0.9537 O   0  0  0  0  0  0  0  0  0  0  0  0
    1.7956   39.9308    1.0344 C   0  0  1  0  0  0  0  0  0  0  0  0
    2.7359   40.4893    1.9597 O   0  0  0  0  0  0  0  0  0  0  0  0
    3.1818   33.3975   -2.3817 C   0  0  0  0  0  0  0  0  0  0  0  0
    3.8483   33.9570   -1.2614 O   0  0  0  0  0  0  0  0  0  0  0  0
    4.0683   42.6037    0.3349 N   0  0  0  0  0  0  0  0  0  0  0  0
    0.4062   38.1181   -4.3232 N   0  0  0  0  0  0  0  0  0  0  0  0
  1  2  1  0  0  0  0
  1 39  1  0  0  0  0
  3  4  1  0  0  0  0
  5  6  1  0  0  0  0
  5 40  1  0  0  0  0
  9 10  1  1  0  0  0
  9 14  1  0  0  0  0
  9 35  1  0  0  0  0
 10  1  1  0  0  0  0
 11 16  1  0  0  0  0
 11 28  1  0  0  0  0
 11 26  1  1  0  0  0
 12 17  1  0  0  0  0
 12 34  1  0  0  0  0
 12 13  1  6  0  0  0
 14 15  1  6  0  0  0
 14 19  1  0  0  0  0
 16 13  1  6  0  0  0
 16 21  1  0  0  0  0
 17 18  1  1  0  0  0
 17 23  1  0  0  0  0
 18  8  1  0  0  0  0
 19 20  1  6  0  0  0
 19 25  1  0  0  0  0
 20  5  1  0  0  0  0
 21  3  1  1  0  0  0
 21 22  1  0  0  0  0
 21 27  1  0  0  0  0
 23 24  1  6  0  0  0
 23 29  1  0  0  0  0
 25 26  1  6  0  0  0
 25 31  1  0  0  0  0
 27  7  1  6  0  0  0
 27 28  1  0  0  0  0
 29 30  1  6  0  0  0
 29 33  1  0  0  0  0
 31 32  1  1  0  0  0
 31 35  1  0  0  0  0
 33 34  1  0  0  0  0
 33 37  1  6  0  0  0
 35 36  1  1  0  0  0
 37 38  1  0  0  0  0
M  END
>  <CHROM.1>
-126.33043062,105.56774431,-175.30672846,176.32965986,157.53523435,-123.46247010
90.63588026,64.37654948,-78.00568770,-127.80646866,178.86127480,0.76940554
36.00550821,-0.60262634,-0.56474555,-1.18632857,-2.11968923

>  <Name>
1ntb_lig

>  <RI>
0

>  <Rbt.Current_Directory>
/home/itssahil/PROJECTS/Mol_Feturizer/New_Systems/rnas/1ntb

>  <Rbt.Executable>
rbdock ($Id: //depot/dev/client3/rdock/2013.1/src/exe/rbdock.cxx#4 $)

>  <Rbt.Library>
libRbt.so (2013.1, Build901 2013/11/27)

>  <Rbt.Parameter_File>
/export/apps/rDock/src/rDock_2013.1_src/data/scripts/dock_solv.prm

>  <Rbt.Receptor>
prm/pocket_docking_6.prm

>  <SCORE>
-14.3794

>  <SCORE.INTER>
-2.82064

>  <SCORE.INTER.CONST>
1

>  <SCORE.INTER.POLAR>
-1.29845

>  <SCORE.INTER.ROT>
11

>  <SCORE.INTER.SOLV>
12.8941

>  <SCORE.INTER.VDW>
-12.7836

>  <SCORE.INTER.norm>
-0.070516

>  <SCORE.INTRA>
-11.5587

>  <SCORE.INTRA.DIHEDRAL>
-1.08656

>  <SCORE.INTRA.DIHEDRAL.0>
15.4453

>  <SCORE.INTRA.POLAR>
0

>  <SCORE.INTRA.POLAR.0>
0

>  <SCORE.INTRA.REPUL>
-0.823958

>  <SCORE.INTRA.REPUL.0>
0.823958

>  <SCORE.INTRA.SOLV>
-0.0910882

>  <SCORE.INTRA.SOLV.lig_0>
-99.3069

>  <SCORE.INTRA.VDW>
-6.85011

>  <SCORE.INTRA.VDW.0>
0.946495

>  <SCORE.INTRA.norm>
-0.288968

>  <SCORE.RESTR>
0

>  <SCORE.RESTR.CAVITY>
0

>  <SCORE.RESTR.norm>
0

>  <SCORE.SYSTEM>
0

>  <SCORE.SYSTEM.CONST>
0

>  <SCORE.SYSTEM.DIHEDRAL>
0

>  <SCORE.SYSTEM.SOLV>
0

>  <SCORE.SYSTEM.norm>
0

>  <SCORE.heavy>
40

>  <SCORE.norm>
-0.359484

>  <RMSD>
7.162

$$$$
1ntb_lig
 OpenBabel11021811403D
libRbt.so/2013.1/901 2013/11/27
 40 42  0  0  0  0  0  0  0  0999 V2000
    3.1856   42.5562   -0.5340 C   0  0  0  0  0  0  0  0  0  0  0  0
    3.7759   42.9985    0.5082 N   0  0  0  0  0  0  0  0  0  0  0  0
    0.0812   32.6742    2.5178 C   0  0  0  0  0  0  0  0  0  0  0  0
   -0.5874   32.3805    3.7331 O   0  0  0  0  0  0  0  0  0  0  0  0
    1.0007   37.5597   -3.3948 C   0  0  0  0  0  0  0  0  0  0  0  0
    0.6855   38.2314   -4.4444 N   0  0  0  0  0  0  0  0  0  0  0  0
   -1.5936   35.2307    3.6311 C   0  0  0  0  0  0  0  0  0  0  0  0
   -2.7331   30.5736   -1.0717 C   0  0  0  0  0  0  0  0  0  0  0  0
    2.1376   40.4547   -0.3075 C   0  0  2  0  0  0  0  0  0  0  0  0
    2.0255   41.9641   -0.3246 N   0  0  0  0  0  0  0  0  0  0  0  0
   -0.0306   35.7670    0.5287 C   0  0  2  0  0  0  0  0  0  0  0  0
   -0.0096   32.3993   -0.7466 C   0  0  1  0  0  0  0  0  0  0  0  0
   -0.4680   33.7158   -0.5001 O   0  0  0  0  0  0  0  0  0  0  0  0
    1.2078   39.8258   -1.3395 C   0  0  1  0  0  0  0  0  0  0  0  0
    1.6239   40.4261   -2.6428 O   0  0  0  0  0  0  0  0  0  0  0  0
    0.1406   34.2597    0.5809 C   0  0  2  0  0  0  0  0  0  0  0  0
   -0.7768   31.8308   -1.9157 C   0  0  1  0  0  0  0  0  0  0  0  0
   -2.1613   31.7782   -1.6031 N   0  0  0  0  0  0  0  0  0  0  0  0
    1.2627   38.2995   -1.3397 C   0  0  2  0  0  0  0  0  0  0  0  0
    0.4008   37.6502   -2.3058 N   0  0  0  0  0  0  0  0  0  0  0  0
   -0.5497   33.8816    1.8644 C   0  0  1  0  0  0  0  0  0  0  0  0
   -1.9387   33.6375    1.6191 O   0  0  0  0  0  0  0  0  0  0  0  0
   -0.5537   32.7434   -3.1099 C   0  0  2  0  0  0  0  0  0  0  0  0
   -1.2597   32.2615   -4.2323 O   0  0  0  0  0  0  0  0  0  0  0  0
    0.8845   37.8199    0.0376 C   0  0  1  0  0  0  0  0  0  0  0  0
    1.1442   36.3886    0.0184 O   0  0  0  0  0  0  0  0  0  0  0  0
   -0.3971   35.0789    2.7279 C   0  0  1  0  0  0  0  0  0  0  0  0
   -0.2891   36.2114    1.8625 O   0  0  0  0  0  0  0  0  0  0  0  0
    0.9494   32.7521   -3.3893 C   0  0  1  0  0  0  0  0  0  0  0  0
    1.2412   33.5927   -4.4947 O   0  0  0  0  0  0  0  0  0  0  0  0
    1.8551   38.4127    1.0944 C   0  0  2  0  0  0  0  0  0  0  0  0
    1.4904   37.9376    2.3811 O   0  0  0  0  0  0  0  0  0  0  0  0
    1.6820   33.2524   -2.1439 C   0  0  1  0  0  0  0  0  0  0  0  0
    1.3868   32.4067   -1.0336 O   0  0  0  0  0  0  0  0  0  0  0  0
    1.7606   39.9505    1.0707 C   0  0  1  0  0  0  0  0  0  0  0  0
    2.6511   40.5134    2.0415 O   0  0  0  0  0  0  0  0  0  0  0  0
    3.1871   33.2307   -2.4116 C   0  0  0  0  0  0  0  0  0  0  0  0
    3.5052   34.2333   -3.3635 O   0  0  0  0  0  0  0  0  0  0  0  0
    3.6958   42.6559   -1.7110 N   0  0  0  0  0  0  0  0  0  0  0  0
    1.9206   36.7251   -3.4576 N   0  0  0  0  0  0  0  0  0  0  0  0
  1  2  1  0  0  0  0
  1 39  1  0  0  0  0
  3  4  1  0  0  0  0
  5  6  1  0  0  0  0
  5 40  1  0  0  0  0
  9 10  1  1  0  0  0
  9 14  1  0  0  0  0
  9 35  1  0  0  0  0
 10  1  1  0  0  0  0
 11 16  1  0  0  0  0
 11 28  1  0  0  0  0
 11 26  1  1  0  0  0
 12 17  1  0  0  0  0
 12 34  1  0  0  0  0
 12 13  1  6  0  0  0
 14 15  1  6  0  0  0
 14 19  1  0  0  0  0
 16 13  1  6  0  0  0
 16 21  1  0  0  0  0
 17 18  1  1  0  0  0
 17 23  1  0  0  0  0
 18  8  1  0  0  0  0
 19 20  1  6  0  0  0
 19 25  1  0  0  0  0
 20  5  1  0  0  0  0
 21  3  1  1  0  0  0
 21 22  1  0  0  0  0
 21 27  1  0  0  0  0
 23 24  1  6  0  0  0
 23 29  1  0  0  0  0
 25 26  1  6  0  0  0
 25 31  1  0  0  0  0
 27  7  1  1  0  0  0
 27 28  1  0  0  0  0
 29 30  1  6  0  0  0
 29 33  1  0  0  0  0
 31 32  1  1  0  0  0
 31 35  1  0  0  0  0
 33 34  1  0  0  0  0
 33 37  1  6  0  0  0
 35 36  1  1  0  0  0
 37 38  1  0  0  0  0
M  END
>  <CHROM.1>
-123.53475039,-99.38649311,-178.83374282,177.12972892,161.65277112,-94.37084623
86.61590011,-110.36600343,178.74342433,-130.45823406,69.40785024,0.77611814
36.05984756,-0.62767584,-0.59505253,-1.16394571,-2.15470905

>  <Name>
1ntb_lig

>  <RI>
0

>  <Rbt.Current_Directory>
/home/itssahil/PROJECTS/Mol_Feturizer/New_Systems/rnas/1ntb

>  <Rbt.Executable>
rbdock ($Id: //depot/dev/client3/rdock/2013.1/src/exe/rbdock.cxx#4 $)

>  <Rbt.Library>
libRbt.so (2013.1, Build901 2013/11/27)

>  <Rbt.Parameter_File>
/export/apps/rDock/src/rDock_2013.1_src/data/scripts/dock_solv.prm

>  <Rbt.Receptor>
prm/pocket_docking_5.prm

>  <SCORE>
-14.2636

>  <SCORE.INTER>
-2.85077

>  <SCORE.INTER.CONST>
1

>  <SCORE.INTER.POLAR>
-1.16551

>  <SCORE.INTER.ROT>
11

>  <SCORE.INTER.SOLV>
13.2995

>  <SCORE.INTER.VDW>
-13.382

>  <SCORE.INTER.norm>
-0.0712694

>  <SCORE.INTRA>
-11.4324

>  <SCORE.INTRA.DIHEDRAL>
-3.44653

>  <SCORE.INTRA.DIHEDRAL.0>
15.4453

>  <SCORE.INTRA.POLAR>
0

>  <SCORE.INTRA.POLAR.0>
0

>  <SCORE.INTRA.REPUL>
-0.823789

>  <SCORE.INTRA.REPUL.0>
0.823958

>  <SCORE.INTRA.SOLV>
0.117352

>  <SCORE.INTRA.SOLV.lig_0>
-99.3069

>  <SCORE.INTRA.VDW>
-5.64883

>  <SCORE.INTRA.VDW.0>
0.946495

>  <SCORE.INTRA.norm>
-0.285809

>  <SCORE.RESTR>
0.0195197

>  <SCORE.RESTR.CAVITY>
0.0195197

>  <SCORE.RESTR.norm>
0.000487993

>  <SCORE.SYSTEM>
0

>  <SCORE.SYSTEM.CONST>
0

>  <SCORE.SYSTEM.DIHEDRAL>
0

>  <SCORE.SYSTEM.SOLV>
0

>  <SCORE.SYSTEM.norm>
0

>  <SCORE.heavy>
40

>  <SCORE.norm>
-0.35659

>  <RMSD>
7.174

$$$$
1ntb_lig
 OpenBabel11021811403D
libRbt.so/2013.1/901 2013/11/27
 40 42  0  0  0  0  0  0  0  0999 V2000
    4.1950   42.9226   -0.9341 C   0  0  0  0  0  0  0  0  0  0  0  0
    4.0075   44.1403   -1.2691 N   0  0  0  0  0  0  0  0  0  0  0  0
   -2.2944   37.1681   -7.6192 C   0  0  0  0  0  0  0  0  0  0  0  0
   -2.8012   35.8945   -7.2565 O   0  0  0  0  0  0  0  0  0  0  0  0
    1.4651   37.3482   -1.3074 C   0  0  0  0  0  0  0  0  0  0  0  0
    0.1899   37.3759   -1.1489 N   0  0  0  0  0  0  0  0  0  0  0  0
    0.3180   38.5826   -8.9439 C   0  0  0  0  0  0  0  0  0  0  0  0
   -2.7094   37.8211   -3.0139 C   0  0  0  0  0  0  0  0  0  0  0  0
    3.0998   41.3668   -2.3290 C   0  0  2  0  0  0  0  0  0  0  0  0
    4.3754   42.0779   -1.9311 N   0  0  0  0  0  0  0  0  0  0  0  0
    0.5642   38.0507   -5.4781 C   0  0  2  0  0  0  0  0  0  0  0  0
   -0.4006   35.7924   -3.9232 C   0  0  1  0  0  0  0  0  0  0  0  0
   -0.3712   35.9150   -5.3332 O   0  0  0  0  0  0  0  0  0  0  0  0
    3.2278   39.8609   -2.1273 C   0  0  1  0  0  0  0  0  0  0  0  0
    3.5586   39.6972   -0.6797 O   0  0  0  0  0  0  0  0  0  0  0  0
   -0.6535   37.1796   -5.7280 C   0  0  2  0  0  0  0  0  0  0  0  0
   -1.8268   35.5591   -3.4874 C   0  0  1  0  0  0  0  0  0  0  0  0
   -2.6324   36.6667   -3.8635 N   0  0  0  0  0  0  0  0  0  0  0  0
    1.9740   39.0948   -2.5443 C   0  0  2  0  0  0  0  0  0  0  0  0
    2.0403   37.6587   -2.3689 N   0  0  0  0  0  0  0  0  0  0  0  0
   -0.8414   37.2745   -7.2189 C   0  0  1  0  0  0  0  0  0  0  0  0
   -0.0758   36.2576   -7.8739 O   0  0  0  0  0  0  0  0  0  0  0  0
   -2.3271   34.3015   -4.1779 C   0  0  2  0  0  0  0  0  0  0  0  0
   -3.6647   34.0417   -3.8117 O   0  0  0  0  0  0  0  0  0  0  0  0
    1.7115   39.3878   -3.9987 C   0  0  1  0  0  0  0  0  0  0  0  0
    0.4133   38.7905   -4.2711 O   0  0  0  0  0  0  0  0  0  0  0  0
   -0.3020   38.6115   -7.5709 C   0  0  1  0  0  0  0  0  0  0  0  0
    0.6880   38.9372   -6.5926 O   0  0  0  0  0  0  0  0  0  0  0  0
   -1.4196   33.1558   -3.7292 C   0  0  1  0  0  0  0  0  0  0  0  0
   -1.8213   31.9396   -4.3400 O   0  0  0  0  0  0  0  0  0  0  0  0
    1.5285   40.9148   -4.2110 C   0  0  2  0  0  0  0  0  0  0  0  0
    1.2685   41.1672   -5.5832 O   0  0  0  0  0  0  0  0  0  0  0  0
    0.0223   33.4848   -4.1172 C   0  0  1  0  0  0  0  0  0  0  0  0
    0.4241   34.7081   -3.5029 O   0  0  0  0  0  0  0  0  0  0  0  0
    2.8168   41.6482   -3.7907 C   0  0  1  0  0  0  0  0  0  0  0  0
    2.6641   43.0599   -3.9809 O   0  0  0  0  0  0  0  0  0  0  0  0
    0.9345   32.3544   -3.6401 C   0  0  0  0  0  0  0  0  0  0  0  0
    0.8585   32.2599   -2.2267 O   0  0  0  0  0  0  0  0  0  0  0  0
    4.1843   42.5347    0.2927 N   0  0  0  0  0  0  0  0  0  0  0  0
    2.1935   37.0481   -0.3451 N   0  0  0  0  0  0  0  0  0  0  0  0
  1  2  1  0  0  0  0
  1 39  1  0  0  0  0
  3  4  1  0  0  0  0
  5  6  1  0  0  0  0
  5 40  1  0  0  0  0
  9 10  1  6  0  0  0
  9 14  1  0  0  0  0
  9 35  1  0  0  0  0
 10  1  1  0  0  0  0
 11 16  1  0  0  0  0
 11 28  1  0  0  0  0
 11 26  1  1  0  0  0
 12 17  1  0  0  0  0
 12 34  1  0  0  0  0
 12 13  1  6  0  0  0
 14 15  1  1  0  0  0
 14 19  1  0  0  0  0
 16 13  1  6  0  0  0
 16 21  1  0  0  0  0
 17 18  1  6  0  0  0
 17 23  1  0  0  0  0
 18  8  1  0  0  0  0
 19 20  1  6  0  0  0
 19 25  1  0  0  0  0
 20  5  1  0  0  0  0
 21  3  1  6  0  0  0
 21 22  1  0  0  0  0
 21 27  1  0  0  0  0
 23 24  1  1  0  0  0
 23 29  1  0  0  0  0
 25 26  1  1  0  0  0
 25 31  1  0  0  0  0
 27  7  1  6  0  0  0
 27 28  1  0  0  0  0
 29 30  1  6  0  0  0
 29 33  1  0  0  0  0
 31 32  1  6  0  0  0
 31 35  1  0  0  0  0
 33 34  1  0  0  0  0
 33 37  1  1  0  0  0
 35 36  1  1  0  0  0
 37 38  1  0  0  0  0
M  END
>  <CHROM.1>
-118.11789616,-96.14501765,169.69299110,84.39754493,75.85658814,-84.88706314
98.81048279,72.54144590,-63.14239682,-132.52890311,-61.65494745,0.58449915
37.75926695,-3.93086750,-0.39015159,0.97897941,2.39215989

>  <Name>
1ntb_lig

>  <RI>
0

>  <Rbt.Current_Directory>
/home/itssahil/PROJECTS/Mol_Feturizer/New_Systems/rnas/1ntb

>  <Rbt.Executable>
rbdock ($Id: //depot/dev/client3/rdock/2013.1/src/exe/rbdock.cxx#4 $)

>  <Rbt.Library>
libRbt.so (2013.1, Build901 2013/11/27)

>  <Rbt.Parameter_File>
/export/apps/rDock/src/rDock_2013.1_src/data/scripts/dock_solv.prm

>  <Rbt.Receptor>
prm/pocket_docking_6.prm

>  <SCORE>
-10.7146

>  <SCORE.INTER>
-0.295763

>  <SCORE.INTER.CONST>
1

>  <SCORE.INTER.POLAR>
-0.72111

>  <SCORE.INTER.ROT>
11

>  <SCORE.INTER.SOLV>
5.93028

>  <SCORE.INTER.VDW>
-10.7036

>  <SCORE.INTER.norm>
-0.00739406

>  <SCORE.INTRA>
-10.4189

>  <SCORE.INTRA.DIHEDRAL>
-0.857591

>  <SCORE.INTRA.DIHEDRAL.0>
15.4453

>  <SCORE.INTRA.POLAR>
0

>  <SCORE.INTRA.POLAR.0>
0

>  <SCORE.INTRA.REPUL>
-0.765045

>  <SCORE.INTRA.REPUL.0>
0.823958

>  <SCORE.INTRA.SOLV>
2.18403

>  <SCORE.INTRA.SOLV.lig_0>
-99.3069

>  <SCORE.INTRA.VDW>
-7.25686

>  <SCORE.INTRA.VDW.0>
0.946495

>  <SCORE.INTRA.norm>
-0.260472

>  <SCORE.RESTR>
0

>  <SCORE.RESTR.CAVITY>
0

>  <SCORE.RESTR.norm>
0

>  <SCORE.SYSTEM>
0

>  <SCORE.SYSTEM.CONST>
0

>  <SCORE.SYSTEM.DIHEDRAL>
0

>  <SCORE.SYSTEM.SOLV>
0

>  <SCORE.SYSTEM.norm>
0

>  <SCORE.heavy>
40

>  <SCORE.norm>
-0.267866

>  <RMSD>
7.184

$$$$
1ntb_lig
 OpenBabel11021811403D
libRbt.so/2013.1/901 2013/11/27
 40 42  0  0  0  0  0  0  0  0999 V2000
    1.2043   43.0420   -4.4986 C   0  0  0  0  0  0  0  0  0  0  0  0
    0.3954   44.0277   -4.4328 N   0  0  0  0  0  0  0  0  0  0  0  0
   -1.7503   32.9777   -2.1515 C   0  0  0  0  0  0  0  0  0  0  0  0
   -1.4664   31.5890   -2.1179 O   0  0  0  0  0  0  0  0  0  0  0  0
   -3.1303   38.8097   -5.1346 C   0  0  0  0  0  0  0  0  0  0  0  0
   -3.8166   39.8871   -5.2772 N   0  0  0  0  0  0  0  0  0  0  0  0
    0.8856   32.2648   -3.9190 C   0  0  0  0  0  0  0  0  0  0  0  0
    0.7280   34.3252    1.7354 C   0  0  0  0  0  0  0  0  0  0  0  0
    0.7363   40.7571   -4.1440 C   0  0  2  0  0  0  0  0  0  0  0  0
    1.0566   42.1194   -3.5674 N   0  0  0  0  0  0  0  0  0  0  0  0
    0.1973   35.7030   -3.6728 C   0  0  2  0  0  0  0  0  0  0  0  0
   -1.2672   35.4533   -0.3633 C   0  0  1  0  0  0  0  0  0  0  0  0
   -0.4025   35.8310   -1.4187 O   0  0  0  0  0  0  0  0  0  0  0  0
   -0.7065   40.3634   -3.8473 C   0  0  1  0  0  0  0  0  0  0  0  0
   -1.5303   41.4570   -4.4449 O   0  0  0  0  0  0  0  0  0  0  0  0
   -0.7482   35.2313   -2.5831 C   0  0  2  0  0  0  0  0  0  0  0  0
   -0.7852   36.1007    0.9123 C   0  0  1  0  0  0  0  0  0  0  0  0
    0.5263   35.6480    1.2161 N   0  0  0  0  0  0  0  0  0  0  0  0
   -1.0695   38.9802   -4.3839 C   0  0  2  0  0  0  0  0  0  0  0  0
   -2.4320   38.5580   -4.1331 N   0  0  0  0  0  0  0  0  0  0  0  0
   -0.5091   33.7453   -2.5428 C   0  0  1  0  0  0  0  0  0  0  0  0
    0.5590   33.4462   -1.6380 O   0  0  0  0  0  0  0  0  0  0  0  0
   -0.7732   37.6048    0.6979 C   0  0  2  0  0  0  0  0  0  0  0  0
   -0.3191   38.2610    1.8614 O   0  0  0  0  0  0  0  0  0  0  0  0
   -0.1348   37.9780   -3.7578 C   0  0  1  0  0  0  0  0  0  0  0  0
   -0.4072   36.7293   -4.4527 O   0  0  0  0  0  0  0  0  0  0  0  0
   -0.1017   33.4030   -3.9282 C   0  0  1  0  0  0  0  0  0  0  0  0
    0.5013   34.5707   -4.4906 O   0  0  0  0  0  0  0  0  0  0  0  0
   -2.2091   38.0207    0.3776 C   0  0  1  0  0  0  0  0  0  0  0  0
   -2.2800   39.4207    0.1568 O   0  0  0  0  0  0  0  0  0  0  0  0
    1.3373   38.3381   -4.0945 C   0  0  2  0  0  0  0  0  0  0  0  0
    2.1990   37.3749   -3.5081 O   0  0  0  0  0  0  0  0  0  0  0  0
   -2.6757   37.2701   -0.8701 C   0  0  1  0  0  0  0  0  0  0  0  0
   -2.6030   35.8630   -0.6466 O   0  0  0  0  0  0  0  0  0  0  0  0
    1.6661   39.7323   -3.5266 C   0  0  1  0  0  0  0  0  0  0  0  0
    3.0226   40.0797   -3.8290 O   0  0  0  0  0  0  0  0  0  0  0  0
   -4.1226   37.6612   -1.1721 C   0  0  0  0  0  0  0  0  0  0  0  0
   -4.6096   36.8586   -2.2357 O   0  0  0  0  0  0  0  0  0  0  0  0
    2.1222   42.9611   -5.3968 N   0  0  0  0  0  0  0  0  0  0  0  0
   -3.1907   37.9272   -6.0089 N   0  0  0  0  0  0  0  0  0  0  0  0
  1  2  1  0  0  0  0
  1 39  1  0  0  0  0
  3  4  1  0  0  0  0
  5  6  1  0  0  0  0
  5 40  1  0  0  0  0
  9 10  1  1  0  0  0
  9 14  1  0  0  0  0
  9 35  1  0  0  0  0
 10  1  1  0  0  0  0
 11 16  1  0  0  0  0
 11 28  1  0  0  0  0
 11 26  1  6  0  0  0
 12 17  1  0  0  0  0
 12 34  1  0  0  0  0
 12 13  1  6  0  0  0
 14 15  1  6  0  0  0
 14 19  1  0  0  0  0
 16 13  1  1  0  0  0
 16 21  1  0  0  0  0
 17 18  1  6  0  0  0
 17 23  1  0  0  0  0
 18  8  1  0  0  0  0
 19 20  1  1  0  0  0
 19 25  1  0  0  0  0
 20  5  1  0  0  0  0
 21  3  1  1  0  0  0
 21 22  1  0  0  0  0
 21 27  1  0  0  0  0
 23 24  1  1  0  0  0
 23 29  1  0  0  0  0
 25 26  1  6  0  0  0
 25 31  1  0  0  0  0
 27  7  1  1  0  0  0
 27 28  1  0  0  0  0
 29 30  1  6  0  0  0
 29 33  1  0  0  0  0
 31 32  1  1  0  0  0
 31 35  1  0  0  0  0
 33 34  1  0  0  0  0
 33 37  1  1  0  0  0
 35 36  1  6  0  0  0
 37 38  1  0  0  0  0
M  END
>  <CHROM.1>
-109.39433576,119.84339678,86.33142408,177.21282572,178.75619973,-74.73365086
96.19366506,-94.04545129,-179.48582755,-165.58880860,-173.51306468,-0.64475868
37.46531357,-2.60734321,-1.26526665,-1.16610357,3.02223181

>  <Name>
1ntb_lig

>  <RI>
0

>  <Rbt.Current_Directory>
/home/itssahil/PROJECTS/Mol_Feturizer/New_Systems/rnas/1ntb

>  <Rbt.Executable>
rbdock ($Id: //depot/dev/client3/rdock/2013.1/src/exe/rbdock.cxx#4 $)

>  <Rbt.Library>
libRbt.so (2013.1, Build901 2013/11/27)

>  <Rbt.Parameter_File>
/export/apps/rDock/src/rDock_2013.1_src/data/scripts/dock_solv.prm

>  <Rbt.Receptor>
prm/pocket_docking_6.prm

>  <SCORE>
-10.2286

>  <SCORE.INTER>
4.06657

>  <SCORE.INTER.CONST>
1

>  <SCORE.INTER.POLAR>
-0.72111

>  <SCORE.INTER.ROT>
11

>  <SCORE.INTER.SOLV>
5.31039

>  <SCORE.INTER.VDW>
-7.58871

>  <SCORE.INTER.norm>
0.101664

>  <SCORE.INTRA>
-14.2952

>  <SCORE.INTRA.DIHEDRAL>
-8.10759

>  <SCORE.INTRA.DIHEDRAL.0>
15.4453

>  <SCORE.INTRA.POLAR>
0

>  <SCORE.INTRA.POLAR.0>
0

>  <SCORE.INTRA.REPUL>
-0.823958

>  <SCORE.INTRA.REPUL.0>
0.823958

>  <SCORE.INTRA.SOLV>
-1.94937

>  <SCORE.INTRA.SOLV.lig_0>
-99.3069

>  <SCORE.INTRA.VDW>
-5.14691

>  <SCORE.INTRA.VDW.0>
0.946495

>  <SCORE.INTRA.norm>
-0.357379

>  <SCORE.RESTR>
0

>  <SCORE.RESTR.CAVITY>
0

>  <SCORE.RESTR.norm>
0

>  <SCORE.SYSTEM>
0

>  <SCORE.SYSTEM.CONST>
0

>  <SCORE.SYSTEM.DIHEDRAL>
0

>  <SCORE.SYSTEM.SOLV>
0

>  <SCORE.SYSTEM.norm>
0

>  <SCORE.heavy>
40

>  <SCORE.norm>
-0.255715

>  <RMSD>
7.189

$$$$
1ntb_lig
 OpenBabel11021811403D
libRbt.so/2013.1/901 2013/11/27
 40 42  0  0  0  0  0  0  0  0999 V2000
   -2.1124   29.4017   -4.9512 C   0  0  0  0  0  0  0  0  0  0  0  0
   -2.5367   28.9669   -3.8282 N   0  0  0  0  0  0  0  0  0  0  0  0
    1.9871   39.5487   -3.8962 C   0  0  0  0  0  0  0  0  0  0  0  0
    2.1399   40.6201   -4.8123 O   0  0  0  0  0  0  0  0  0  0  0  0
   -1.9225   34.0282   -0.9419 C   0  0  0  0  0  0  0  0  0  0  0  0
   -0.7793   34.0186   -0.3545 N   0  0  0  0  0  0  0  0  0  0  0  0
    0.2087   38.9875   -6.5613 C   0  0  0  0  0  0  0  0  0  0  0  0
   -0.8348   41.8830   -1.4615 C   0  0  0  0  0  0  0  0  0  0  0  0
   -1.5742   31.6818   -4.6727 C   0  0  2  0  0  0  0  0  0  0  0  0
   -2.4843   30.6277   -5.2657 N   0  0  0  0  0  0  0  0  0  0  0  0
   -0.3679   36.7225   -3.9358 C   0  0  2  0  0  0  0  0  0  0  0  0
    0.3816   38.9570   -1.1924 C   0  0  1  0  0  0  0  0  0  0  0  0
   -0.3660   38.1990   -2.1255 O   0  0  0  0  0  0  0  0  0  0  0  0
   -2.3221   32.5434   -3.6612 C   0  0  1  0  0  0  0  0  0  0  0  0
   -2.8351   31.5775   -2.6436 O   0  0  0  0  0  0  0  0  0  0  0  0
    0.4117   37.7548   -3.1418 C   0  0  2  0  0  0  0  0  0  0  0  0
   -0.5770   39.7120   -0.3038 C   0  0  1  0  0  0  0  0  0  0  0  0
   -1.3606   40.6010   -1.0867 N   0  0  0  0  0  0  0  0  0  0  0  0
   -1.4521   33.6434   -3.0562 C   0  0  2  0  0  0  0  0  0  0  0  0
   -2.1130   34.4896   -2.0842 N   0  0  0  0  0  0  0  0  0  0  0  0
    0.6816   38.8341   -4.1564 C   0  0  1  0  0  0  0  0  0  0  0  0
   -0.3984   39.7736   -4.1699 O   0  0  0  0  0  0  0  0  0  0  0  0
   -1.4785   38.6980    0.3799 C   0  0  2  0  0  0  0  0  0  0  0  0
   -2.4044   39.3538    1.2185 O   0  0  0  0  0  0  0  0  0  0  0  0
   -0.9480   34.5098   -4.1811 C   0  0  1  0  0  0  0  0  0  0  0  0
    0.0162   35.4043   -3.5594 O   0  0  0  0  0  0  0  0  0  0  0  0
    0.7333   38.1127   -5.4523 C   0  0  1  0  0  0  0  0  0  0  0  0
   -0.0839   36.9475   -5.3186 O   0  0  0  0  0  0  0  0  0  0  0  0
   -0.5735   37.7793    1.2010 C   0  0  1  0  0  0  0  0  0  0  0  0
   -1.3459   36.7942    1.8694 O   0  0  0  0  0  0  0  0  0  0  0  0
   -0.1405   33.6537   -5.1936 C   0  0  2  0  0  0  0  0  0  0  0  0
    0.3365   34.4905   -6.2359 O   0  0  0  0  0  0  0  0  0  0  0  0
    0.4324   37.1089    0.2648 C   0  0  1  0  0  0  0  0  0  0  0  0
    1.2073   38.1006   -0.4069 O   0  0  0  0  0  0  0  0  0  0  0  0
   -1.0554   32.5659   -5.7886 C   0  0  1  0  0  0  0  0  0  0  0  0
   -0.3245   31.7665   -6.7261 O   0  0  0  0  0  0  0  0  0  0  0  0
    1.3584   36.2149    1.0899 C   0  0  0  0  0  0  0  0  0  0  0  0
    2.0398   37.0088    2.0480 O   0  0  0  0  0  0  0  0  0  0  0  0
   -1.3904   28.6864   -5.7402 N   0  0  0  0  0  0  0  0  0  0  0  0
   -2.9015   33.5052   -0.3810 N   0  0  0  0  0  0  0  0  0  0  0  0
  1  2  1  0  0  0  0
  1 39  1  0  0  0  0
  3  4  1  0  0  0  0
  5  6  1  0  0  0  0
  5 40  1  0  0  0  0
  9 10  1  6  0  0  0
  9 14  1  0  0  0  0
  9 35  1  0  0  0  0
 10  1  1  0  0  0  0
 11 16  1  0  0  0  0
 11 28  1  0  0  0  0
 11 26  1  1  0  0  0
 12 17  1  0  0  0  0
 12 34  1  0  0  0  0
 12 13  1  6  0  0  0
 14 15  1  1  0  0  0
 14 19  1  0  0  0  0
 16 13  1  1  0  0  0
 16 21  1  0  0  0  0
 17 18  1  6  0  0  0
 17 23  1  0  0  0  0
 18  8  1  0  0  0  0
 19 20  1  1  0  0  0
 19 25  1  0  0  0  0
 20  5  1  0  0  0  0
 21  3  1  1  0  0  0
 21 22  1  0  0  0  0
 21 27  1  0  0  0  0
 23 24  1  1  0  0  0
 23 29  1  0  0  0  0
 25 26  1  1  0  0  0
 25 31  1  0  0  0  0
 27  7  1  6  0  0  0
 27 28  1  0  0  0  0
 29 30  1  6  0  0  0
 29 33  1  0  0  0  0
 31 32  1  6  0  0  0
 31 35  1  0  0  0  0
 33 34  1  0  0  0  0
 33 37  1  1  0  0  0
 35 36  1  6  0  0  0
 37 38  1  0  0  0  0
M  END
>  <CHROM.1>
-115.23970714,84.91168597,169.62296989,165.37988442,168.20681121,-82.28379674
92.88688558,68.54267453,-175.37349810,-127.74465509,-59.80408819,-0.59842418
35.88451146,-2.72160805,2.19147453,-1.24008996,-2.13556908

>  <Name>
1ntb_lig

>  <RI>
0

>  <Rbt.Current_Directory>
/home/itssahil/PROJECTS/Mol_Feturizer/New_Systems/rnas/1ntb

>  <Rbt.Executable>
rbdock ($Id: //depot/dev/client3/rdock/2013.1/src/exe/rbdock.cxx#4 $)

>  <Rbt.Library>
libRbt.so (2013.1, Build901 2013/11/27)

>  <Rbt.Parameter_File>
/export/apps/rDock/src/rDock_2013.1_src/data/scripts/dock_solv.prm

>  <Rbt.Receptor>
prm/pocket_docking_6.prm

>  <SCORE>
-7.67732

>  <SCORE.INTER>
4.59532

>  <SCORE.INTER.CONST>
1

>  <SCORE.INTER.POLAR>
-0.623118

>  <SCORE.INTER.ROT>
11

>  <SCORE.INTER.SOLV>
6.69612

>  <SCORE.INTER.VDW>
-8.02476

>  <SCORE.INTER.norm>
0.114883

>  <SCORE.INTRA>
-12.2726

>  <SCORE.INTRA.DIHEDRAL>
-2.42075

>  <SCORE.INTRA.DIHEDRAL.0>
15.4453

>  <SCORE.INTRA.POLAR>
0

>  <SCORE.INTRA.POLAR.0>
0

>  <SCORE.INTRA.REPUL>
-0.81903

>  <SCORE.INTRA.REPUL.0>
0.823958

>  <SCORE.INTRA.SOLV>
0.118949

>  <SCORE.INTRA.SOLV.lig_0>
-99.3069

>  <SCORE.INTRA.VDW>
-7.02659

>  <SCORE.INTRA.VDW.0>
0.946495

>  <SCORE.INTRA.norm>
-0.306816

>  <SCORE.RESTR>
0

>  <SCORE.RESTR.CAVITY>
0

>  <SCORE.RESTR.norm>
0

>  <SCORE.SYSTEM>
0

>  <SCORE.SYSTEM.CONST>
0

>  <SCORE.SYSTEM.DIHEDRAL>
0

>  <SCORE.SYSTEM.SOLV>
0

>  <SCORE.SYSTEM.norm>
0

>  <SCORE.heavy>
40

>  <SCORE.norm>
-0.191933

>  <RMSD>
7.194

$$$$
1ntb_lig
 OpenBabel11021811403D
libRbt.so/2013.1/901 2013/11/27
 40 42  0  0  0  0  0  0  0  0999 V2000
   -3.2338   35.8344   -6.2985 C   0  0  0  0  0  0  0  0  0  0  0  0
   -4.2127   35.0975   -5.9394 N   0  0  0  0  0  0  0  0  0  0  0  0
    5.7133   33.1421   -0.3654 C   0  0  0  0  0  0  0  0  0  0  0  0
    4.8695   32.0330   -0.1040 O   0  0  0  0  0  0  0  0  0  0  0  0
    1.3312   37.8282   -3.2362 C   0  0  0  0  0  0  0  0  0  0  0  0
    1.3714   38.8865   -3.9645 N   0  0  0  0  0  0  0  0  0  0  0  0
    6.1099   33.0453   -3.5924 C   0  0  0  0  0  0  0  0  0  0  0  0
    6.5846   38.2219    1.3308 C   0  0  0  0  0  0  0  0  0  0  0  0
   -1.3345   35.0143   -5.1644 C   0  0  2  0  0  0  0  0  0  0  0  0
   -2.0825   35.2124   -6.4653 N   0  0  0  0  0  0  0  0  0  0  0  0
    3.1200   34.5709   -2.5490 C   0  0  2  0  0  0  0  0  0  0  0  0
    4.0673   35.8399    0.6715 C   0  0  1  0  0  0  0  0  0  0  0  0
    3.9146   35.8108   -0.7356 O   0  0  0  0  0  0  0  0  0  0  0  0
   -0.1686   35.9902   -5.0502 C   0  0  1  0  0  0  0  0  0  0  0  0
   -0.7919   37.3432   -5.1635 O   0  0  0  0  0  0  0  0  0  0  0  0
    3.8116   34.5418   -1.1982 C   0  0  2  0  0  0  0  0  0  0  0  0
    4.3147   37.2654    1.1019 C   0  0  1  0  0  0  0  0  0  0  0  0
    5.5101   37.7478    0.5056 N   0  0  0  0  0  0  0  0  0  0  0  0
    0.6370   35.8089   -3.7654 C   0  0  2  0  0  0  0  0  0  0  0  0
    1.7552   36.7151   -3.6039 N   0  0  0  0  0  0  0  0  0  0  0  0
    5.1583   33.9483   -1.5164 C   0  0  1  0  0  0  0  0  0  0  0  0
    6.0767   34.9853   -1.8775 O   0  0  0  0  0  0  0  0  0  0  0  0
    3.1350   38.1047    0.6407 C   0  0  2  0  0  0  0  0  0  0  0  0
    3.3204   39.4536    1.0102 O   0  0  0  0  0  0  0  0  0  0  0  0
    1.1585   34.3956   -3.7384 C   0  0  1  0  0  0  0  0  0  0  0  0
    1.7421   34.2386   -2.4151 O   0  0  0  0  0  0  0  0  0  0  0  0
    4.9046   33.0742   -2.6886 C   0  0  1  0  0  0  0  0  0  0  0  0
    3.7820   33.6194   -3.3855 O   0  0  0  0  0  0  0  0  0  0  0  0
    1.8894   37.5329    1.3182 C   0  0  1  0  0  0  0  0  0  0  0  0
    0.7369   38.2643    0.9304 O   0  0  0  0  0  0  0  0  0  0  0  0
   -0.0223   33.3897   -3.8029 C   0  0  2  0  0  0  0  0  0  0  0  0
    0.4894   32.0665   -3.7619 O   0  0  0  0  0  0  0  0  0  0  0  0
    1.7370   36.0653    0.9175 C   0  0  1  0  0  0  0  0  0  0  0  0
    2.8969   35.3318    1.3074 O   0  0  0  0  0  0  0  0  0  0  0  0
   -0.8004   33.5972   -5.1166 C   0  0  1  0  0  0  0  0  0  0  0  0
   -1.8944   32.6753   -5.1917 O   0  0  0  0  0  0  0  0  0  0  0  0
    0.5099   35.4841    1.6203 C   0  0  0  0  0  0  0  0  0  0  0  0
   -0.6618   36.0500    1.0551 O   0  0  0  0  0  0  0  0  0  0  0  0
   -3.3505   37.1052   -6.4635 N   0  0  0  0  0  0  0  0  0  0  0  0
    0.8970   37.9036   -2.0733 N   0  0  0  0  0  0  0  0  0  0  0  0
  1  2  1  0  0  0  0
  1 39  1  0  0  0  0
  3  4  1  0  0  0  0
  5  6  1  0  0  0  0
  5 40  1  0  0  0  0
  9 10  1  6  0  0  0
  9 14  1  0  0  0  0
  9 35  1  0  0  0  0
 10  1  1  0  0  0  0
 11 16  1  0  0  0  0
 11 28  1  0  0  0  0
 11 26  1  1  0  0  0
 12 17  1  0  0  0  0
 12 34  1  0  0  0  0
 12 13  1  6  0  0  0
 14 15  1  1  0  0  0
 14 19  1  0  0  0  0
 16 13  1  6  0  0  0
 16 21  1  0  0  0  0
 17 18  1  6  0  0  0
 17 23  1  0  0  0  0
 18  8  1  0  0  0  0
 19 20  1  6  0  0  0
 19 25  1  0  0  0  0
 20  5  1  0  0  0  0
 21  3  1  1  0  0  0
 21 22  1  0  0  0  0
 21 27  1  0  0  0  0
 23 24  1  1  0  0  0
 23 29  1  0  0  0  0
 25 26  1  1  0  0  0
 25 31  1  0  0  0  0
 27  7  1  6  0  0  0
 27 28  1  0  0  0  0
 29 30  1  6  0  0  0
 29 33  1  0  0  0  0
 31 32  1  6  0  0  0
 31 35  1  0  0  0  0
 33 34  1  0  0  0  0
 33 37  1  1  0  0  0
 35 36  1  1  0  0  0
 37 38  1  0  0  0  0
M  END
>  <CHROM.1>
-104.67066945,-82.78236704,175.75326199,174.36811677,157.77486953,-121.77419270
77.99235302,-111.92202043,63.31756321,-92.66725116,70.20323224,1.84664649
35.56960823,-2.13612563,2.60118987,0.54060201,-2.42964712

>  <Name>
1ntb_lig

>  <RI>
0

>  <Rbt.Current_Directory>
/home/itssahil/PROJECTS/Mol_Feturizer/New_Systems/rnas/1ntb

>  <Rbt.Executable>
rbdock ($Id: //depot/dev/client3/rdock/2013.1/src/exe/rbdock.cxx#4 $)

>  <Rbt.Library>
libRbt.so (2013.1, Build901 2013/11/27)

>  <Rbt.Parameter_File>
/export/apps/rDock/src/rDock_2013.1_src/data/scripts/dock_solv.prm

>  <Rbt.Receptor>
prm/pocket_docking_5.prm

>  <SCORE>
-22.2641

>  <SCORE.INTER>
-10.6806

>  <SCORE.INTER.CONST>
1

>  <SCORE.INTER.POLAR>
-0.974741

>  <SCORE.INTER.ROT>
11

>  <SCORE.INTER.SOLV>
16.1219

>  <SCORE.INTER.VDW>
-20.1786

>  <SCORE.INTER.norm>
-0.267014

>  <SCORE.INTRA>
-11.5836

>  <SCORE.INTRA.DIHEDRAL>
-4.8221

>  <SCORE.INTRA.DIHEDRAL.0>
15.4453

>  <SCORE.INTRA.POLAR>
0

>  <SCORE.INTRA.POLAR.0>
0

>  <SCORE.INTRA.REPUL>
-0.821054

>  <SCORE.INTRA.REPUL.0>
0.823958

>  <SCORE.INTRA.SOLV>
1.40684

>  <SCORE.INTRA.SOLV.lig_0>
-99.3069

>  <SCORE.INTRA.VDW>
-5.77066

>  <SCORE.INTRA.VDW.0>
0.946495

>  <SCORE.INTRA.norm>
-0.289589

>  <SCORE.RESTR>
0

>  <SCORE.RESTR.CAVITY>
0

>  <SCORE.RESTR.norm>
0

>  <SCORE.SYSTEM>
0

>  <SCORE.SYSTEM.CONST>
0

>  <SCORE.SYSTEM.DIHEDRAL>
0

>  <SCORE.SYSTEM.SOLV>
0

>  <SCORE.SYSTEM.norm>
0

>  <SCORE.heavy>
40

>  <SCORE.norm>
-0.556603

>  <RMSD>
7.202

$$$$
1ntb_lig
 OpenBabel11021811403D
libRbt.so/2013.1/901 2013/11/27
 40 42  0  0  0  0  0  0  0  0999 V2000
    5.1474   45.3198   -2.4919 C   0  0  0  0  0  0  0  0  0  0  0  0
    4.3405   46.2574   -2.8080 N   0  0  0  0  0  0  0  0  0  0  0  0
   -1.1308   36.3343   -2.8662 C   0  0  0  0  0  0  0  0  0  0  0  0
   -0.8240   34.9774   -2.5923 O   0  0  0  0  0  0  0  0  0  0  0  0
    4.9406   39.4100   -0.3984 C   0  0  0  0  0  0  0  0  0  0  0  0
    3.9998   39.1645    0.4423 N   0  0  0  0  0  0  0  0  0  0  0  0
   -0.8374   38.0702   -5.6012 C   0  0  0  0  0  0  0  0  0  0  0  0
    1.1225   32.7647   -3.7402 C   0  0  0  0  0  0  0  0  0  0  0  0
    4.1924   43.1733   -2.7072 C   0  0  2  0  0  0  0  0  0  0  0  0
    5.1048   44.2475   -3.2591 N   0  0  0  0  0  0  0  0  0  0  0  0
    1.7349   38.6063   -3.2664 C   0  0  2  0  0  0  0  0  0  0  0  0
    1.6968   35.3425   -1.7129 C   0  0  1  0  0  0  0  0  0  0  0  0
    2.0927   36.4106   -2.5535 O   0  0  0  0  0  0  0  0  0  0  0  0
    4.9643   41.8864   -2.4369 C   0  0  1  0  0  0  0  0  0  0  0  0
    6.0424   42.2824   -1.4815 O   0  0  0  0  0  0  0  0  0  0  0  0
    1.1369   37.3678   -2.6242 C   0  0  2  0  0  0  0  0  0  0  0  0
    2.4431   34.0979   -2.1282 C   0  0  1  0  0  0  0  0  0  0  0  0
    2.1156   33.7652   -3.4696 N   0  0  0  0  0  0  0  0  0  0  0  0
    4.0792   40.7606   -1.9062 C   0  0  2  0  0  0  0  0  0  0  0  0
    4.7638   39.5150   -1.6279 N   0  0  0  0  0  0  0  0  0  0  0  0
    0.0317   36.9898   -3.5744 C   0  0  1  0  0  0  0  0  0  0  0  0
    0.5387   36.1218   -4.5935 O   0  0  0  0  0  0  0  0  0  0  0  0
    3.9309   34.3861   -2.0186 C   0  0  2  0  0  0  0  0  0  0  0  0
    4.6783   33.2540   -2.4065 O   0  0  0  0  0  0  0  0  0  0  0  0
    3.0007   40.4968   -2.9247 C   0  0  1  0  0  0  0  0  0  0  0  0
    2.0945   39.5625   -2.2749 O   0  0  0  0  0  0  0  0  0  0  0  0
   -0.3878   38.2789   -4.1783 C   0  0  1  0  0  0  0  0  0  0  0  0
    0.7462   39.1485   -4.1449 O   0  0  0  0  0  0  0  0  0  0  0  0
    4.2108   34.7342   -0.5565 C   0  0  1  0  0  0  0  0  0  0  0  0
    5.5878   35.0241   -0.3729 O   0  0  0  0  0  0  0  0  0  0  0  0
    2.1734   41.7869   -3.1725 C   0  0  2  0  0  0  0  0  0  0  0  0
    1.1556   41.5131   -4.1229 O   0  0  0  0  0  0  0  0  0  0  0  0
    3.3644   35.9458   -0.1648 C   0  0  1  0  0  0  0  0  0  0  0  0
    1.9806   35.6527   -0.3508 O   0  0  0  0  0  0  0  0  0  0  0  0
    3.0989   42.8918   -3.7175 C   0  0  1  0  0  0  0  0  0  0  0  0
    2.3498   44.0902   -3.9518 O   0  0  0  0  0  0  0  0  0  0  0  0
    3.6197   36.2743    1.3064 C   0  0  0  0  0  0  0  0  0  0  0  0
    4.9572   36.7222    1.4582 O   0  0  0  0  0  0  0  0  0  0  0  0
    5.9349   45.3995   -1.4774 N   0  0  0  0  0  0  0  0  0  0  0  0
    6.0949   39.6107    0.0186 N   0  0  0  0  0  0  0  0  0  0  0  0
  1  2  1  0  0  0  0
  1 39  1  0  0  0  0
  3  4  1  0  0  0  0
  5  6  1  0  0  0  0
  5 40  1  0  0  0  0
  9 10  1  6  0  0  0
  9 14  1  0  0  0  0
  9 35  1  0  0  0  0
 10  1  1  0  0  0  0
 11 16  1  0  0  0  0
 11 28  1  0  0  0  0
 11 26  1  1  0  0  0
 12 17  1  0  0  0  0
 12 34  1  0  0  0  0
 12 13  1  6  0  0  0
 14 15  1  1  0  0  0
 14 19  1  0  0  0  0
 16 13  1  6  0  0  0
 16 21  1  0  0  0  0
 17 18  1  6  0  0  0
 17 23  1  0  0  0  0
 18  8  1  0  0  0  0
 19 20  1  6  0  0  0
 19 25  1  0  0  0  0
 20  5  1  0  0  0  0
 21  3  1  1  0  0  0
 21 22  1  0  0  0  0
 21 27  1  0  0  0  0
 23 24  1  1  0  0  0
 23 29  1  0  0  0  0
 25 26  1  1  0  0  0
 25 31  1  0  0  0  0
 27  7  1  6  0  0  0
 27 28  1  0  0  0  0
 29 30  1  6  0  0  0
 29 33  1  0  0  0  0
 31 32  1  6  0  0  0
 31 35  1  0  0  0  0
 33 34  1  0  0  0  0
 33 37  1  1  0  0  0
 35 36  1  1  0  0  0
 37 38  1  0  0  0  0
M  END
>  <CHROM.1>
-119.83877589,-94.42619449,163.18942922,155.14899550,167.23606785,-98.10148428
102.32156812,72.21630049,-78.83164590,-138.73772587,66.87951649,2.88933610
38.64206274,-2.26572137,-1.24314212,0.65118529,2.89764367

>  <Name>
1ntb_lig

>  <RI>
0

>  <Rbt.Current_Directory>
/home/itssahil/PROJECTS/Mol_Feturizer/New_Systems/rnas/1ntb

>  <Rbt.Executable>
rbdock ($Id: //depot/dev/client3/rdock/2013.1/src/exe/rbdock.cxx#4 $)

>  <Rbt.Library>
libRbt.so (2013.1, Build901 2013/11/27)

>  <Rbt.Parameter_File>
/export/apps/rDock/src/rDock_2013.1_src/data/scripts/dock_solv.prm

>  <Rbt.Receptor>
prm/pocket_docking_8.prm

>  <SCORE>
-15.6704

>  <SCORE.INTER>
-6.69091

>  <SCORE.INTER.CONST>
1

>  <SCORE.INTER.POLAR>
-0.72111

>  <SCORE.INTER.ROT>
11

>  <SCORE.INTER.SOLV>
15.6128

>  <SCORE.INTER.VDW>
-18.1945

>  <SCORE.INTER.norm>
-0.167273

>  <SCORE.INTRA>
-8.97952

>  <SCORE.INTRA.DIHEDRAL>
0.356205

>  <SCORE.INTRA.DIHEDRAL.0>
15.4453

>  <SCORE.INTRA.POLAR>
0

>  <SCORE.INTRA.POLAR.0>
0

>  <SCORE.INTRA.REPUL>
-0.823958

>  <SCORE.INTRA.REPUL.0>
0.823958

>  <SCORE.INTRA.SOLV>
2.98339

>  <SCORE.INTRA.SOLV.lig_0>
-99.3069

>  <SCORE.INTRA.VDW>
-6.52953

>  <SCORE.INTRA.VDW.0>
0.946495

>  <SCORE.INTRA.norm>
-0.224488

>  <SCORE.RESTR>
0

>  <SCORE.RESTR.CAVITY>
0

>  <SCORE.RESTR.norm>
0

>  <SCORE.SYSTEM>
0

>  <SCORE.SYSTEM.CONST>
0

>  <SCORE.SYSTEM.DIHEDRAL>
0

>  <SCORE.SYSTEM.SOLV>
0

>  <SCORE.SYSTEM.norm>
0

>  <SCORE.heavy>
40

>  <SCORE.norm>
-0.391761

>  <RMSD>
7.207

$$$$
1ntb_lig
 OpenBabel11021811403D
libRbt.so/2013.1/901 2013/11/27
 40 42  0  0  0  0  0  0  0  0999 V2000
    3.4687   43.1011   -2.7241 C   0  0  0  0  0  0  0  0  0  0  0  0
    3.0441   43.7389   -3.7454 N   0  0  0  0  0  0  0  0  0  0  0  0
    0.7310   33.9016    2.5751 C   0  0  0  0  0  0  0  0  0  0  0  0
   -0.0330   33.6475    3.7422 O   0  0  0  0  0  0  0  0  0  0  0  0
    0.9107   37.5980   -3.7047 C   0  0  0  0  0  0  0  0  0  0  0  0
    1.8419   36.7124   -3.7334 N   0  0  0  0  0  0  0  0  0  0  0  0
   -0.9037   36.5969    3.3773 C   0  0  0  0  0  0  0  0  0  0  0  0
   -2.2851   31.8157    0.2218 C   0  0  0  0  0  0  0  0  0  0  0  0
    2.6546   41.1630   -1.6533 C   0  0  2  0  0  0  0  0  0  0  0  0
    2.5379   42.6509   -1.9049 N   0  0  0  0  0  0  0  0  0  0  0  0
    0.6096   36.7143    0.2069 C   0  0  2  0  0  0  0  0  0  0  0  0
    0.4596   33.1741   -0.5226 C   0  0  1  0  0  0  0  0  0  0  0  0
    0.1380   34.5525   -0.5424 O   0  0  0  0  0  0  0  0  0  0  0  0
    1.5037   40.4061   -2.3073 C   0  0  1  0  0  0  0  0  0  0  0  0
    1.5894   40.7603   -3.7561 O   0  0  0  0  0  0  0  0  0  0  0  0
    0.7696   35.2246    0.4497 C   0  0  2  0  0  0  0  0  0  0  0  0
   -0.5223   32.4354   -1.3994 C   0  0  1  0  0  0  0  0  0  0  0  0
   -1.8390   32.6015   -0.8935 N   0  0  0  0  0  0  0  0  0  0  0  0
    1.5607   38.9008   -2.0555 C   0  0  2  0  0  0  0  0  0  0  0  0
    0.4918   38.1322   -2.6592 N   0  0  0  0  0  0  0  0  0  0  0  0
    0.0986   35.0215    1.7822 C   0  0  1  0  0  0  0  0  0  0  0  0
   -1.2964   34.7621    1.5927 O   0  0  0  0  0  0  0  0  0  0  0  0
   -0.4316   33.0202   -2.7988 C   0  0  2  0  0  0  0  0  0  0  0  0
   -1.3399   32.3697   -3.6605 O   0  0  0  0  0  0  0  0  0  0  0  0
    1.5295   38.6763   -0.5660 C   0  0  1  0  0  0  0  0  0  0  0  0
    1.7804   37.2533   -0.3979 O   0  0  0  0  0  0  0  0  0  0  0  0
    0.2758   36.3181    2.4820 C   0  0  1  0  0  0  0  0  0  0  0  0
    0.3778   37.3289    1.4765 O   0  0  0  0  0  0  0  0  0  0  0  0
    1.0042   32.8068   -3.2787 C   0  0  1  0  0  0  0  0  0  0  0  0
    1.1718   33.3352   -4.5850 O   0  0  0  0  0  0  0  0  0  0  0  0
    2.7261   39.4002    0.1081 C   0  0  2  0  0  0  0  0  0  0  0  0
    2.6859   39.1644    1.5070 O   0  0  0  0  0  0  0  0  0  0  0  0
    1.9596   33.5007   -2.3072 C   0  0  1  0  0  0  0  0  0  0  0  0
    1.7891   32.9688   -0.9945 O   0  0  0  0  0  0  0  0  0  0  0  0
    2.6248   40.9144   -0.1589 C   0  0  1  0  0  0  0  0  0  0  0  0
    3.7228   41.5975    0.4574 O   0  0  0  0  0  0  0  0  0  0  0  0
    3.3972   33.2603   -2.7688 C   0  0  0  0  0  0  0  0  0  0  0  0
    4.2836   33.9742   -1.9219 O   0  0  0  0  0  0  0  0  0  0  0  0
    4.7222   42.9277   -2.4905 N   0  0  0  0  0  0  0  0  0  0  0  0
    0.4186   38.0011   -4.7733 N   0  0  0  0  0  0  0  0  0  0  0  0
  1  2  1  0  0  0  0
  1 39  1  0  0  0  0
  3  4  1  0  0  0  0
  5  6  1  0  0  0  0
  5 40  1  0  0  0  0
  9 10  1  1  0  0  0
  9 14  1  0  0  0  0
  9 35  1  0  0  0  0
 10  1  1  0  0  0  0
 11 16  1  0  0  0  0
 11 28  1  0  0  0  0
 11 26  1  1  0  0  0
 12 17  1  0  0  0  0
 12 34  1  0  0  0  0
 12 13  1  6  0  0  0
 14 15  1  6  0  0  0
 14 19  1  0  0  0  0
 16 13  1  6  0  0  0
 16 21  1  0  0  0  0
 17 18  1  1  0  0  0
 17 23  1  0  0  0  0
 18  8  1  0  0  0  0
 19 20  1  6  0  0  0
 19 25  1  0  0  0  0
 20  5  1  0  0  0  0
 21  3  1  1  0  0  0
 21 22  1  0  0  0  0
 21 27  1  0  0  0  0
 23 24  1  6  0  0  0
 23 29  1  0  0  0  0
 25 26  1  6  0  0  0
 25 31  1  0  0  0  0
 27  7  1  1  0  0  0
 27 28  1  0  0  0  0
 29 30  1  6  0  0  0
 29 33  1  0  0  0  0
 31 32  1  1  0  0  0
 31 35  1  0  0  0  0
 33 34  1  0  0  0  0
 33 37  1  6  0  0  0
 35 36  1  1  0  0  0
 37 38  1  0  0  0  0
M  END
>  <CHROM.1>
-110.21994617,125.51028291,-179.15933955,165.71283517,168.76211811,-79.30923348
100.54765778,64.03971581,-173.05815446,-117.04942973,176.21401737,1.19778376
36.71536143,-1.03227177,-0.33231850,-1.22265780,-2.09103894

>  <Name>
1ntb_lig

>  <RI>
0

>  <Rbt.Current_Directory>
/home/itssahil/PROJECTS/Mol_Feturizer/New_Systems/rnas/1ntb

>  <Rbt.Executable>
rbdock ($Id: //depot/dev/client3/rdock/2013.1/src/exe/rbdock.cxx#4 $)

>  <Rbt.Library>
libRbt.so (2013.1, Build901 2013/11/27)

>  <Rbt.Parameter_File>
/export/apps/rDock/src/rDock_2013.1_src/data/scripts/dock_solv.prm

>  <Rbt.Receptor>
prm/pocket_docking_6.prm

>  <SCORE>
-13.3715

>  <SCORE.INTER>
-0.943271

>  <SCORE.INTER.CONST>
1

>  <SCORE.INTER.POLAR>
-0.636368

>  <SCORE.INTER.ROT>
11

>  <SCORE.INTER.SOLV>
12.8786

>  <SCORE.INTER.VDW>
-13.7338

>  <SCORE.INTER.norm>
-0.0235818

>  <SCORE.INTRA>
-12.4283

>  <SCORE.INTRA.DIHEDRAL>
-2.75703

>  <SCORE.INTRA.DIHEDRAL.0>
15.4453

>  <SCORE.INTRA.POLAR>
0

>  <SCORE.INTRA.POLAR.0>
0

>  <SCORE.INTRA.REPUL>
-0.823958

>  <SCORE.INTRA.REPUL.0>
0.823958

>  <SCORE.INTRA.SOLV>
-0.547142

>  <SCORE.INTRA.SOLV.lig_0>
-99.3069

>  <SCORE.INTRA.VDW>
-6.65639

>  <SCORE.INTRA.VDW.0>
0.946495

>  <SCORE.INTRA.norm>
-0.310707

>  <SCORE.RESTR>
0

>  <SCORE.RESTR.CAVITY>
0

>  <SCORE.RESTR.norm>
0

>  <SCORE.SYSTEM>
0

>  <SCORE.SYSTEM.CONST>
0

>  <SCORE.SYSTEM.DIHEDRAL>
0

>  <SCORE.SYSTEM.SOLV>
0

>  <SCORE.SYSTEM.norm>
0

>  <SCORE.heavy>
40

>  <SCORE.norm>
-0.334288

>  <RMSD>
7.211

$$$$
1ntb_lig
 OpenBabel11021811403D
libRbt.so/2013.1/901 2013/11/27
 40 42  0  0  0  0  0  0  0  0999 V2000
   -3.2325   35.5167   -6.6474 C   0  0  0  0  0  0  0  0  0  0  0  0
   -3.7149   36.6987   -6.6670 N   0  0  0  0  0  0  0  0  0  0  0  0
    5.5120   33.0343   -0.3452 C   0  0  0  0  0  0  0  0  0  0  0  0
    6.7383   32.4086   -0.6843 O   0  0  0  0  0  0  0  0  0  0  0  0
    1.3002   37.9542   -3.2329 C   0  0  0  0  0  0  0  0  0  0  0  0
    1.2316   39.0173   -3.9520 N   0  0  0  0  0  0  0  0  0  0  0  0
    6.0495   33.0182   -3.5531 C   0  0  0  0  0  0  0  0  0  0  0  0
    6.5880   37.4213    1.2258 C   0  0  0  0  0  0  0  0  0  0  0  0
   -1.2429   35.2002   -5.4197 C   0  0  2  0  0  0  0  0  0  0  0  0
   -1.9201   35.4343   -6.7529 N   0  0  0  0  0  0  0  0  0  0  0  0
    3.0787   34.6335   -2.5938 C   0  0  2  0  0  0  0  0  0  0  0  0
    3.9559   35.7632    0.7019 C   0  0  1  0  0  0  0  0  0  0  0  0
    3.8394   35.7847   -0.7088 O   0  0  0  0  0  0  0  0  0  0  0  0
   -0.0903   36.1768   -5.2131 C   0  0  1  0  0  0  0  0  0  0  0  0
   -0.7141   37.5301   -5.3198 O   0  0  0  0  0  0  0  0  0  0  0  0
    3.7070   34.5355   -1.2156 C   0  0  2  0  0  0  0  0  0  0  0  0
    4.1262   37.1798    1.1949 C   0  0  1  0  0  0  0  0  0  0  0  0
    5.3123   37.7398    0.6501 N   0  0  0  0  0  0  0  0  0  0  0  0
    0.6453   35.9602   -3.8922 C   0  0  2  0  0  0  0  0  0  0  0  0
    1.7480   36.8655   -3.6431 N   0  0  0  0  0  0  0  0  0  0  0  0
    5.0420   33.8969   -1.4932 C   0  0  1  0  0  0  0  0  0  0  0  0
    6.0162   34.9055   -1.7805 O   0  0  0  0  0  0  0  0  0  0  0  0
    2.9207   37.9828    0.7362 C   0  0  2  0  0  0  0  0  0  0  0  0
    3.0342   39.3226    1.1636 O   0  0  0  0  0  0  0  0  0  0  0  0
    1.1724   34.5487   -3.8789 C   0  0  1  0  0  0  0  0  0  0  0  0
    1.6840   34.3544   -2.5311 O   0  0  0  0  0  0  0  0  0  0  0  0
    4.8068   33.0695   -2.7025 C   0  0  1  0  0  0  0  0  0  0  0  0
    3.7394   33.6811   -3.4303 O   0  0  0  0  0  0  0  0  0  0  0  0
    1.6866   37.3280    1.3573 C   0  0  1  0  0  0  0  0  0  0  0  0
    0.5113   38.0216    0.9684 O   0  0  0  0  0  0  0  0  0  0  0  0
    0.0025   33.5406   -4.0377 C   0  0  2  0  0  0  0  0  0  0  0  0
    0.5185   32.2188   -4.0083 O   0  0  0  0  0  0  0  0  0  0  0  0
    1.6123   35.8725    0.8948 C   0  0  1  0  0  0  0  0  0  0  0  0
    2.7950   35.1771    1.2859 O   0  0  0  0  0  0  0  0  0  0  0  0
   -0.7042   33.7844   -5.3851 C   0  0  1  0  0  0  0  0  0  0  0  0
   -1.7874   32.8609   -5.5471 O   0  0  0  0  0  0  0  0  0  0  0  0
    0.3965   35.2082    1.5413 C   0  0  0  0  0  0  0  0  0  0  0  0
   -0.7833   35.6877    0.9163 O   0  0  0  0  0  0  0  0  0  0  0  0
   -3.9747   34.4695   -6.5566 N   0  0  0  0  0  0  0  0  0  0  0  0
    0.9548   38.0013   -2.0391 N   0  0  0  0  0  0  0  0  0  0  0  0
  1  2  1  0  0  0  0
  1 39  1  0  0  0  0
  3  4  1  0  0  0  0
  5  6  1  0  0  0  0
  5 40  1  0  0  0  0
  9 10  1  6  0  0  0
  9 14  1  0  0  0  0
  9 35  1  0  0  0  0
 10  1  1  0  0  0  0
 11 16  1  0  0  0  0
 11 28  1  0  0  0  0
 11 26  1  1  0  0  0
 12 17  1  0  0  0  0
 12 34  1  0  0  0  0
 12 13  1  6  0  0  0
 14 15  1  1  0  0  0
 14 19  1  0  0  0  0
 16 13  1  6  0  0  0
 16 21  1  0  0  0  0
 17 18  1  6  0  0  0
 17 23  1  0  0  0  0
 18  8  1  0  0  0  0
 19 20  1  6  0  0  0
 19 25  1  0  0  0  0
 20  5  1  0  0  0  0
 21  3  1  1  0  0  0
 21 22  1  0  0  0  0
 21 27  1  0  0  0  0
 23 24  1  1  0  0  0
 23 29  1  0  0  0  0
 25 26  1  1  0  0  0
 25 31  1  0  0  0  0
 27  7  1  6  0  0  0
 27 28  1  0  0  0  0
 29 30  1  6  0  0  0
 29 33  1  0  0  0  0
 31 32  1  6  0  0  0
 31 35  1  0  0  0  0
 33 34  1  0  0  0  0
 33 37  1  1  0  0  0
 35 36  1  1  0  0  0
 37 38  1  0  0  0  0
M  END
>  <CHROM.1>
-130.81781631,101.05315411,176.87204436,178.92572854,158.92691214,-79.62338293
79.69787674,-104.53849413,177.21458140,-95.40671687,73.44505006,1.84164941
35.53298541,-2.23172026,2.56348119,0.52365477,-2.32625147

>  <Name>
1ntb_lig

>  <RI>
0

>  <Rbt.Current_Directory>
/home/itssahil/PROJECTS/Mol_Feturizer/New_Systems/rnas/1ntb

>  <Rbt.Executable>
rbdock ($Id: //depot/dev/client3/rdock/2013.1/src/exe/rbdock.cxx#4 $)

>  <Rbt.Library>
libRbt.so (2013.1, Build901 2013/11/27)

>  <Rbt.Parameter_File>
/export/apps/rDock/src/rDock_2013.1_src/data/scripts/dock_solv.prm

>  <Rbt.Receptor>
prm/pocket_docking_5.prm

>  <SCORE>
-22.1109

>  <SCORE.INTER>
-10.051

>  <SCORE.INTER.CONST>
1

>  <SCORE.INTER.POLAR>
-0.713211

>  <SCORE.INTER.ROT>
11

>  <SCORE.INTER.SOLV>
14.7561

>  <SCORE.INTER.VDW>
-20.1753

>  <SCORE.INTER.norm>
-0.251274

>  <SCORE.INTRA>
-12.06

>  <SCORE.INTRA.DIHEDRAL>
-5.46065

>  <SCORE.INTRA.DIHEDRAL.0>
15.4453

>  <SCORE.INTRA.POLAR>
0

>  <SCORE.INTRA.POLAR.0>
0

>  <SCORE.INTRA.REPUL>
-0.821897

>  <SCORE.INTRA.REPUL.0>
0.823958

>  <SCORE.INTRA.SOLV>
1.03055

>  <SCORE.INTRA.SOLV.lig_0>
-99.3069

>  <SCORE.INTRA.VDW>
-5.73543

>  <SCORE.INTRA.VDW.0>
0.946495

>  <SCORE.INTRA.norm>
-0.301499

>  <SCORE.RESTR>
0

>  <SCORE.RESTR.CAVITY>
0

>  <SCORE.RESTR.norm>
0

>  <SCORE.SYSTEM>
0

>  <SCORE.SYSTEM.CONST>
0

>  <SCORE.SYSTEM.DIHEDRAL>
0

>  <SCORE.SYSTEM.SOLV>
0

>  <SCORE.SYSTEM.norm>
0

>  <SCORE.heavy>
40

>  <SCORE.norm>
-0.552773

>  <RMSD>
7.231

$$$$
1ntb_lig
 OpenBabel11021811403D
libRbt.so/2013.1/901 2013/11/27
 40 42  0  0  0  0  0  0  0  0999 V2000
    3.7745   43.3179   -2.1161 C   0  0  0  0  0  0  0  0  0  0  0  0
    3.9050   44.3509   -1.3772 N   0  0  0  0  0  0  0  0  0  0  0  0
    0.7571   33.8770    2.5509 C   0  0  0  0  0  0  0  0  0  0  0  0
    0.4884   32.5908    2.0183 O   0  0  0  0  0  0  0  0  0  0  0  0
    0.9042   37.5806   -3.2511 C   0  0  0  0  0  0  0  0  0  0  0  0
    1.8828   36.7998   -3.5422 N   0  0  0  0  0  0  0  0  0  0  0  0
   -1.3148   36.3751    2.7672 C   0  0  0  0  0  0  0  0  0  0  0  0
   -0.6854   31.2194   -2.5432 C   0  0  0  0  0  0  0  0  0  0  0  0
    2.8514   41.1989   -1.6431 C   0  0  2  0  0  0  0  0  0  0  0  0
    2.6396   42.6591   -1.9806 N   0  0  0  0  0  0  0  0  0  0  0  0
    1.0852   36.7045    0.2202 C   0  0  2  0  0  0  0  0  0  0  0  0
    1.5724   33.1928   -0.4819 C   0  0  1  0  0  0  0  0  0  0  0  0
    1.0946   34.5195   -0.6062 O   0  0  0  0  0  0  0  0  0  0  0  0
    1.6518   40.3598   -2.0695 C   0  0  1  0  0  0  0  0  0  0  0  0
    1.5180   40.6049   -3.5371 O   0  0  0  0  0  0  0  0  0  0  0  0
    1.3151   35.2349    0.5227 C   0  0  2  0  0  0  0  0  0  0  0  0
    1.3119   32.4614   -1.7764 C   0  0  1  0  0  0  0  0  0  0  0  0
   -0.0845   32.4187   -2.0327 N   0  0  0  0  0  0  0  0  0  0  0  0
    1.8053   38.8805   -1.7220 C   0  0  2  0  0  0  0  0  0  0  0  0
    0.6943   38.0360   -2.1098 N   0  0  0  0  0  0  0  0  0  0  0  0
    0.2892   34.9400    1.5846 C   0  0  1  0  0  0  0  0  0  0  0  0
   -0.9439   34.5421    0.9761 O   0  0  0  0  0  0  0  0  0  0  0  0
    2.0162   33.2172   -2.8906 C   0  0  2  0  0  0  0  0  0  0  0  0
    1.7961   32.5791   -4.1295 O   0  0  0  0  0  0  0  0  0  0  0  0
    1.9934   38.7695   -0.2312 C   0  0  1  0  0  0  0  0  0  0  0  0
    2.3234   37.3717   -0.0001 O   0  0  0  0  0  0  0  0  0  0  0  0
    0.1061   36.2352    2.2856 C   0  0  1  0  0  0  0  0  0  0  0  0
    0.4095   37.2691    1.3463 O   0  0  0  0  0  0  0  0  0  0  0  0
    3.5070   33.2232   -2.5517 C   0  0  1  0  0  0  0  0  0  0  0  0
    4.2372   33.9206   -3.5488 O   0  0  0  0  0  0  0  0  0  0  0  0
    3.2423   39.5787    0.2109 C   0  0  2  0  0  0  0  0  0  0  0  0
    3.4093   39.4492    1.6143 O   0  0  0  0  0  0  0  0  0  0  0  0
    3.7035   33.8960   -1.1928 C   0  0  1  0  0  0  0  0  0  0  0  0
    2.9682   33.1940   -0.1919 O   0  0  0  0  0  0  0  0  0  0  0  0
    3.0426   41.0643   -0.1460 C   0  0  1  0  0  0  0  0  0  0  0  0
    4.1876   41.8255    0.2561 O   0  0  0  0  0  0  0  0  0  0  0  0
    5.1907   33.8734   -0.8386 C   0  0  0  0  0  0  0  0  0  0  0  0
    5.6177   32.5270   -0.7075 O   0  0  0  0  0  0  0  0  0  0  0  0
    4.6966   42.9255   -2.9233 N   0  0  0  0  0  0  0  0  0  0  0  0
    0.1377   37.9614   -4.1535 N   0  0  0  0  0  0  0  0  0  0  0  0
  1  2  1  0  0  0  0
  1 39  1  0  0  0  0
  3  4  1  0  0  0  0
  5  6  1  0  0  0  0
  5 40  1  0  0  0  0
  9 10  1  1  0  0  0
  9 14  1  0  0  0  0
  9 35  1  0  0  0  0
 10  1  1  0  0  0  0
 11 16  1  0  0  0  0
 11 28  1  0  0  0  0
 11 26  1  1  0  0  0
 12 17  1  0  0  0  0
 12 34  1  0  0  0  0
 12 13  1  6  0  0  0
 14 15  1  6  0  0  0
 14 19  1  0  0  0  0
 16 13  1  6  0  0  0
 16 21  1  0  0  0  0
 17 18  1  6  0  0  0
 17 23  1  0  0  0  0
 18  8  1  0  0  0  0
 19 20  1  1  0  0  0
 19 25  1  0  0  0  0
 20  5  1  0  0  0  0
 21  3  1  1  0  0  0
 21 22  1  0  0  0  0
 21 27  1  0  0  0  0
 23 24  1  6  0  0  0
 23 29  1  0  0  0  0
 25 26  1  6  0  0  0
 25 31  1  0  0  0  0
 27  7  1  6  0  0  0
 27 28  1  0  0  0  0
 29 30  1  6  0  0  0
 29 33  1  0  0  0  0
 31 32  1  1  0  0  0
 31 35  1  0  0  0  0
 33 34  1  0  0  0  0
 33 37  1  1  0  0  0
 35 36  1  6  0  0  0
 37 38  1  0  0  0  0
M  END
>  <CHROM.1>
-155.63904611,-124.46011777,-178.01419902,-179.25163827,166.93969344,-138.76534540
91.47882168,63.27661186,-84.31309185,-90.48739865,-63.16806602,1.98059408
36.71462978,-0.93350998,-1.17336499,-1.09175847,-2.85848803

>  <Name>
1ntb_lig

>  <RI>
0

>  <Rbt.Current_Directory>
/home/itssahil/PROJECTS/Mol_Feturizer/New_Systems/rnas/1ntb

>  <Rbt.Executable>
rbdock ($Id: //depot/dev/client3/rdock/2013.1/src/exe/rbdock.cxx#4 $)

>  <Rbt.Library>
libRbt.so (2013.1, Build901 2013/11/27)

>  <Rbt.Parameter_File>
/export/apps/rDock/src/rDock_2013.1_src/data/scripts/dock_solv.prm

>  <Rbt.Receptor>
prm/pocket_docking_5.prm

>  <SCORE>
-16.2187

>  <SCORE.INTER>
-4.89545

>  <SCORE.INTER.CONST>
1

>  <SCORE.INTER.POLAR>
-0.71429

>  <SCORE.INTER.ROT>
11

>  <SCORE.INTER.SOLV>
16.1

>  <SCORE.INTER.VDW>
-17.1827

>  <SCORE.INTER.norm>
-0.122386

>  <SCORE.INTRA>
-11.3232

>  <SCORE.INTRA.DIHEDRAL>
-6.06011

>  <SCORE.INTRA.DIHEDRAL.0>
15.4453

>  <SCORE.INTRA.POLAR>
0

>  <SCORE.INTRA.POLAR.0>
0

>  <SCORE.INTRA.REPUL>
-0.823958

>  <SCORE.INTRA.REPUL.0>
0.823958

>  <SCORE.INTRA.SOLV>
0.758059

>  <SCORE.INTRA.SOLV.lig_0>
-99.3069

>  <SCORE.INTRA.VDW>
-4.5524

>  <SCORE.INTRA.VDW.0>
0.946495

>  <SCORE.INTRA.norm>
-0.28308

>  <SCORE.RESTR>
0

>  <SCORE.RESTR.CAVITY>
0

>  <SCORE.RESTR.norm>
0

>  <SCORE.SYSTEM>
0

>  <SCORE.SYSTEM.CONST>
0

>  <SCORE.SYSTEM.DIHEDRAL>
0

>  <SCORE.SYSTEM.SOLV>
0

>  <SCORE.SYSTEM.norm>
0

>  <SCORE.heavy>
40

>  <SCORE.norm>
-0.405467

>  <RMSD>
7.231

$$$$
1ntb_lig
 OpenBabel11021811403D
libRbt.so/2013.1/901 2013/11/27
 40 42  0  0  0  0  0  0  0  0999 V2000
   -3.1432   35.1405   -6.2125 C   0  0  0  0  0  0  0  0  0  0  0  0
   -3.9855   34.2245   -5.9265 N   0  0  0  0  0  0  0  0  0  0  0  0
    5.9472   32.8333   -0.4946 C   0  0  0  0  0  0  0  0  0  0  0  0
    4.9335   31.9274   -0.0920 O   0  0  0  0  0  0  0  0  0  0  0  0
    1.2206   37.8988   -3.3959 C   0  0  0  0  0  0  0  0  0  0  0  0
    0.5870   38.1554   -2.3075 N   0  0  0  0  0  0  0  0  0  0  0  0
    6.1688   32.7661   -3.7391 C   0  0  0  0  0  0  0  0  0  0  0  0
    7.5386   35.8537    1.0297 C   0  0  0  0  0  0  0  0  0  0  0  0
   -1.1264   34.6967   -5.0718 C   0  0  2  0  0  0  0  0  0  0  0  0
   -1.8969   34.7394   -6.3739 N   0  0  0  0  0  0  0  0  0  0  0  0
    3.4259   34.5923   -2.5154 C   0  0  2  0  0  0  0  0  0  0  0  0
    4.5305   35.6982    0.6878 C   0  0  1  0  0  0  0  0  0  0  0  0
    4.4449   35.6941   -0.7253 O   0  0  0  0  0  0  0  0  0  0  0  0
   -0.0724   35.7975   -5.0240 C   0  0  1  0  0  0  0  0  0  0  0  0
   -0.8388   37.0669   -5.2059 O   0  0  0  0  0  0  0  0  0  0  0  0
    4.1764   34.4555   -1.2032 C   0  0  2  0  0  0  0  0  0  0  0  0
    5.3072   36.9176    1.1219 C   0  0  1  0  0  0  0  0  0  0  0  0
    6.6222   36.8662    0.5877 N   0  0  0  0  0  0  0  0  0  0  0  0
    0.7536   35.7767   -3.7395 C   0  0  2  0  0  0  0  0  0  0  0  0
    1.7679   36.8057   -3.6402 N   0  0  0  0  0  0  0  0  0  0  0  0
    5.4300   33.7225   -1.6012 C   0  0  1  0  0  0  0  0  0  0  0  0
    6.4403   34.6582   -1.9922 O   0  0  0  0  0  0  0  0  0  0  0  0
    4.5849   38.1451    0.5926 C   0  0  2  0  0  0  0  0  0  0  0  0
    5.2771   39.3175    0.9630 O   0  0  0  0  0  0  0  0  0  0  0  0
    1.4250   34.4316   -3.6394 C   0  0  1  0  0  0  0  0  0  0  0  0
    2.0278   34.4132   -2.3155 O   0  0  0  0  0  0  0  0  0  0  0  0
    5.0211   32.9090   -2.7732 C   0  0  1  0  0  0  0  0  0  0  0  0
    3.9338   33.5920   -3.4013 O   0  0  0  0  0  0  0  0  0  0  0  0
    3.1844   38.1370    1.2058 C   0  0  1  0  0  0  0  0  0  0  0  0
    2.4403   39.2568    0.7520 O   0  0  0  0  0  0  0  0  0  0  0  0
    0.3597   33.3023   -3.6358 C   0  0  2  0  0  0  0  0  0  0  0  0
    1.0116   32.0464   -3.5266 O   0  0  0  0  0  0  0  0  0  0  0  0
    2.4764   36.8419    0.8068 C   0  0  1  0  0  0  0  0  0  0  0  0
    3.2263   35.7173    1.2631 O   0  0  0  0  0  0  0  0  0  0  0  0
   -0.4419   33.3504   -4.9508 C   0  0  1  0  0  0  0  0  0  0  0  0
   -1.4301   32.3132   -4.9633 O   0  0  0  0  0  0  0  0  0  0  0  0
    1.0878   36.8184    1.4462 C   0  0  0  0  0  0  0  0  0  0  0  0
    0.4297   35.6144    1.0863 O   0  0  0  0  0  0  0  0  0  0  0  0
   -3.4777   36.3790   -6.3129 N   0  0  0  0  0  0  0  0  0  0  0  0
    1.2599   38.7561   -4.2960 N   0  0  0  0  0  0  0  0  0  0  0  0
  1  2  1  0  0  0  0
  1 39  1  0  0  0  0
  3  4  1  0  0  0  0
  5  6  1  0  0  0  0
  5 40  1  0  0  0  0
  9 10  1  6  0  0  0
  9 14  1  0  0  0  0
  9 35  1  0  0  0  0
 10  1  1  0  0  0  0
 11 16  1  0  0  0  0
 11 28  1  0  0  0  0
 11 26  1  1  0  0  0
 12 17  1  0  0  0  0
 12 34  1  0  0  0  0
 12 13  1  6  0  0  0
 14 15  1  1  0  0  0
 14 19  1  0  0  0  0
 16 13  1  6  0  0  0
 16 21  1  0  0  0  0
 17 18  1  6  0  0  0
 17 23  1  0  0  0  0
 18  8  1  0  0  0  0
 19 20  1  6  0  0  0
 19 25  1  0  0  0  0
 20  5  1  0  0  0  0
 21  3  1  1  0  0  0
 21 22  1  0  0  0  0
 21 27  1  0  0  0  0
 23 24  1  1  0  0  0
 23 29  1  0  0  0  0
 25 26  1  1  0  0  0
 25 31  1  0  0  0  0
 27  7  1  6  0  0  0
 27 28  1  0  0  0  0
 29 30  1  6  0  0  0
 29 33  1  0  0  0  0
 31 32  1  6  0  0  0
 31 35  1  0  0  0  0
 33 34  1  0  0  0  0
 33 37  1  1  0  0  0
 35 36  1  1  0  0  0
 37 38  1  0  0  0  0
M  END
>  <CHROM.1>
-109.80424779,-87.01118468,-174.52319750,159.34688392,151.57814724,-66.66555054
74.72866801,65.21081370,55.96911738,-105.28691360,-179.61727657,2.29570808
35.42794153,-2.15402236,2.66689112,0.54381832,-2.55666534

>  <Name>
1ntb_lig

>  <RI>
0

>  <Rbt.Current_Directory>
/home/itssahil/PROJECTS/Mol_Feturizer/New_Systems/rnas/1ntb

>  <Rbt.Executable>
rbdock ($Id: //depot/dev/client3/rdock/2013.1/src/exe/rbdock.cxx#4 $)

>  <Rbt.Library>
libRbt.so (2013.1, Build901 2013/11/27)

>  <Rbt.Parameter_File>
/export/apps/rDock/src/rDock_2013.1_src/data/scripts/dock_solv.prm

>  <Rbt.Receptor>
prm/pocket_docking_4.prm

>  <SCORE>
-21.6819

>  <SCORE.INTER>
-10.9009

>  <SCORE.INTER.CONST>
1

>  <SCORE.INTER.POLAR>
-0.935556

>  <SCORE.INTER.ROT>
11

>  <SCORE.INTER.SOLV>
17.2066

>  <SCORE.INTER.VDW>
-20.8176

>  <SCORE.INTER.norm>
-0.272522

>  <SCORE.INTRA>
-10.781

>  <SCORE.INTRA.DIHEDRAL>
-1.15042

>  <SCORE.INTRA.DIHEDRAL.0>
15.4453

>  <SCORE.INTRA.POLAR>
0

>  <SCORE.INTRA.POLAR.0>
0

>  <SCORE.INTRA.REPUL>
-0.811876

>  <SCORE.INTRA.REPUL.0>
0.823958

>  <SCORE.INTRA.SOLV>
-0.676152

>  <SCORE.INTRA.SOLV.lig_0>
-99.3069

>  <SCORE.INTRA.VDW>
-5.8083

>  <SCORE.INTRA.VDW.0>
0.946495

>  <SCORE.INTRA.norm>
-0.269524

>  <SCORE.RESTR>
0

>  <SCORE.RESTR.CAVITY>
0

>  <SCORE.RESTR.norm>
0

>  <SCORE.SYSTEM>
0

>  <SCORE.SYSTEM.CONST>
0

>  <SCORE.SYSTEM.DIHEDRAL>
0

>  <SCORE.SYSTEM.SOLV>
0

>  <SCORE.SYSTEM.norm>
0

>  <SCORE.heavy>
40

>  <SCORE.norm>
-0.542046

>  <RMSD>
7.237

$$$$
1ntb_lig
 OpenBabel11021811403D
libRbt.so/2013.1/901 2013/11/27
 40 42  0  0  0  0  0  0  0  0999 V2000
    0.6981   32.8444   -8.2911 C   0  0  0  0  0  0  0  0  0  0  0  0
    1.6101   32.0038   -7.9882 N   0  0  0  0  0  0  0  0  0  0  0  0
    1.4702   38.0488    0.6423 C   0  0  0  0  0  0  0  0  0  0  0  0
    2.0883   37.6616    1.8581 O   0  0  0  0  0  0  0  0  0  0  0  0
   -1.4996   37.7007   -5.9979 C   0  0  0  0  0  0  0  0  0  0  0  0
   -2.5425   37.7930   -5.2524 N   0  0  0  0  0  0  0  0  0  0  0  0
    2.7520   35.0631    0.4918 C   0  0  0  0  0  0  0  0  0  0  0  0
    4.9200   41.1837   -2.4852 C   0  0  0  0  0  0  0  0  0  0  0  0
   -0.6792   33.4276   -6.4666 C   0  0  2  0  0  0  0  0  0  0  0  0
   -0.4806   32.6314   -7.7385 N   0  0  0  0  0  0  0  0  0  0  0  0
    1.2607   36.1481   -2.5006 C   0  0  2  0  0  0  0  0  0  0  0  0
    1.8652   39.6889   -2.0612 C   0  0  1  0  0  0  0  0  0  0  0  0
    2.0025   38.3629   -2.5377 O   0  0  0  0  0  0  0  0  0  0  0  0
   -0.4600   34.9161   -6.7137 C   0  0  1  0  0  0  0  0  0  0  0  0
   -1.4399   35.2731   -7.7833 O   0  0  0  0  0  0  0  0  0  0  0  0
    1.2847   37.4898   -1.7913 C   0  0  2  0  0  0  0  0  0  0  0  0
    2.5701   40.6216   -3.0161 C   0  0  1  0  0  0  0  0  0  0  0  0
    3.9525   40.2999   -3.0708 N   0  0  0  0  0  0  0  0  0  0  0  0
   -0.6197   35.7600   -5.4508 C   0  0  2  0  0  0  0  0  0  0  0  0
   -0.4262   37.1841   -5.6304 N   0  0  0  0  0  0  0  0  0  0  0  0
    1.9652   37.1741   -0.4858 C   0  0  1  0  0  0  0  0  0  0  0  0
    3.3830   37.3112   -0.6278 O   0  0  0  0  0  0  0  0  0  0  0  0
    1.9460   40.4438   -4.3899 C   0  0  2  0  0  0  0  0  0  0  0  0
    2.5773   41.2889   -5.3269 O   0  0  0  0  0  0  0  0  0  0  0  0
    0.3747   35.2665   -4.4321 C   0  0  1  0  0  0  0  0  0  0  0  0
    0.0370   35.9753   -3.2075 O   0  0  0  0  0  0  0  0  0  0  0  0
    1.6232   35.7528   -0.2297 C   0  0  1  0  0  0  0  0  0  0  0  0
    1.4046   35.1366   -1.5008 O   0  0  0  0  0  0  0  0  0  0  0  0
    0.4666   40.8060   -4.2575 C   0  0  1  0  0  0  0  0  0  0  0  0
   -0.1914   40.6582   -5.5061 O   0  0  0  0  0  0  0  0  0  0  0  0
    0.1306   33.7629   -4.1328 C   0  0  2  0  0  0  0  0  0  0  0  0
    1.0674   33.3225   -3.1619 O   0  0  0  0  0  0  0  0  0  0  0  0
   -0.1764   39.8900   -3.2157 C   0  0  1  0  0  0  0  0  0  0  0  0
    0.4869   40.0392   -1.9615 O   0  0  0  0  0  0  0  0  0  0  0  0
    0.3129   32.9469   -5.4271 C   0  0  1  0  0  0  0  0  0  0  0  0
    0.0909   31.5557   -5.1674 O   0  0  0  0  0  0  0  0  0  0  0  0
   -1.6483   40.2731   -3.0595 C   0  0  0  0  0  0  0  0  0  0  0  0
   -2.2594   39.4010   -2.1222 O   0  0  0  0  0  0  0  0  0  0  0  0
    0.9025   33.8225   -9.1018 N   0  0  0  0  0  0  0  0  0  0  0  0
   -1.5547   38.0947   -7.1762 N   0  0  0  0  0  0  0  0  0  0  0  0
  1  2  1  0  0  0  0
  1 39  1  0  0  0  0
  3  4  1  0  0  0  0
  5  6  1  0  0  0  0
  5 40  1  0  0  0  0
  9 10  1  6  0  0  0
  9 14  1  0  0  0  0
  9 35  1  0  0  0  0
 10  1  1  0  0  0  0
 11 16  1  0  0  0  0
 11 28  1  0  0  0  0
 11 26  1  1  0  0  0
 12 17  1  0  0  0  0
 12 34  1  0  0  0  0
 12 13  1  6  0  0  0
 14 15  1  6  0  0  0
 14 19  1  0  0  0  0
 16 13  1  6  0  0  0
 16 21  1  0  0  0  0
 17 18  1  6  0  0  0
 17 23  1  0  0  0  0
 18  8  1  0  0  0  0
 19 20  1  6  0  0  0
 19 25  1  0  0  0  0
 20  5  1  0  0  0  0
 21  3  1  1  0  0  0
 21 22  1  0  0  0  0
 21 27  1  0  0  0  0
 23 24  1  6  0  0  0
 23 29  1  0  0  0  0
 25 26  1  1  0  0  0
 25 31  1  0  0  0  0
 27  7  1  6  0  0  0
 27 28  1  0  0  0  0
 29 30  1  6  0  0  0
 29 33  1  0  0  0  0
 31 32  1  1  0  0  0
 31 35  1  0  0  0  0
 33 34  1  0  0  0  0
 33 37  1  1  0  0  0
 35 36  1  1  0  0  0
 37 38  1  0  0  0  0
M  END
>  <CHROM.1>
55.20636513,95.13107377,143.49010175,-174.24657756,169.38327384,-109.17359711
85.62724849,68.04548102,176.82971058,-148.53661746,178.32705051,0.74464037
36.94513057,-3.86346768,2.26999542,1.17155698,-3.07681390

>  <Name>
1ntb_lig

>  <RI>
0

>  <Rbt.Current_Directory>
/home/itssahil/PROJECTS/Mol_Feturizer/New_Systems/rnas/1ntb

>  <Rbt.Executable>
rbdock ($Id: //depot/dev/client3/rdock/2013.1/src/exe/rbdock.cxx#4 $)

>  <Rbt.Library>
libRbt.so (2013.1, Build901 2013/11/27)

>  <Rbt.Parameter_File>
/export/apps/rDock/src/rDock_2013.1_src/data/scripts/dock_solv.prm

>  <Rbt.Receptor>
prm/pocket_docking_5.prm

>  <SCORE>
-11.9306

>  <SCORE.INTER>
-3.19675

>  <SCORE.INTER.CONST>
1

>  <SCORE.INTER.POLAR>
-1.11195

>  <SCORE.INTER.ROT>
11

>  <SCORE.INTER.SOLV>
12.3296

>  <SCORE.INTER.VDW>
-13.4679

>  <SCORE.INTER.norm>
-0.0799188

>  <SCORE.INTRA>
-8.74579

>  <SCORE.INTRA.DIHEDRAL>
-3.00261

>  <SCORE.INTRA.DIHEDRAL.0>
15.4453

>  <SCORE.INTRA.POLAR>
0

>  <SCORE.INTRA.POLAR.0>
0

>  <SCORE.INTRA.REPUL>
-0.823958

>  <SCORE.INTRA.REPUL.0>
0.823958

>  <SCORE.INTRA.SOLV>
3.2638

>  <SCORE.INTRA.SOLV.lig_0>
-99.3069

>  <SCORE.INTRA.VDW>
-4.7566

>  <SCORE.INTRA.VDW.0>
0.946495

>  <SCORE.INTRA.norm>
-0.218645

>  <SCORE.RESTR>
0.0119262

>  <SCORE.RESTR.CAVITY>
0.0119262

>  <SCORE.RESTR.norm>
0.000298155

>  <SCORE.SYSTEM>
0

>  <SCORE.SYSTEM.CONST>
0

>  <SCORE.SYSTEM.DIHEDRAL>
0

>  <SCORE.SYSTEM.SOLV>
0

>  <SCORE.SYSTEM.norm>
0

>  <SCORE.heavy>
40

>  <SCORE.norm>
-0.298265

>  <RMSD>
7.243

$$$$
1ntb_lig
 OpenBabel11021811403D
libRbt.so/2013.1/901 2013/11/27
 40 42  0  0  0  0  0  0  0  0999 V2000
   -3.1673   35.3759   -6.3004 C   0  0  0  0  0  0  0  0  0  0  0  0
   -4.0123   34.4971   -5.9213 N   0  0  0  0  0  0  0  0  0  0  0  0
    5.9110   32.9386   -0.4619 C   0  0  0  0  0  0  0  0  0  0  0  0
    4.9560   31.9644   -0.0757 O   0  0  0  0  0  0  0  0  0  0  0  0
    1.2304   37.7448   -3.1532 C   0  0  0  0  0  0  0  0  0  0  0  0
    1.1096   38.8132   -3.8576 N   0  0  0  0  0  0  0  0  0  0  0  0
    6.2471   32.7858   -3.6936 C   0  0  0  0  0  0  0  0  0  0  0  0
    7.9815   36.1478    1.0672 C   0  0  0  0  0  0  0  0  0  0  0  0
   -1.1744   34.7699   -5.1927 C   0  0  2  0  0  0  0  0  0  0  0  0
   -1.9366   34.9401   -6.4893 N   0  0  0  0  0  0  0  0  0  0  0  0
    3.3472   34.4570   -2.6198 C   0  0  2  0  0  0  0  0  0  0  0  0
    4.3508   35.7254    0.5738 C   0  0  1  0  0  0  0  0  0  0  0  0
    4.2278   35.6812   -0.8358 O   0  0  0  0  0  0  0  0  0  0  0  0
   -0.1006   35.8423   -5.0452 C   0  0  1  0  0  0  0  0  0  0  0  0
   -0.8424   37.1369   -5.1192 O   0  0  0  0  0  0  0  0  0  0  0  0
    4.0600   34.4128   -1.2805 C   0  0  2  0  0  0  0  0  0  0  0  0
    5.5485   36.5730    0.9287 C   0  0  1  0  0  0  0  0  0  0  0  0
    6.7265   35.9920    0.3883 N   0  0  0  0  0  0  0  0  0  0  0  0
    0.7176   35.6945   -3.7640 C   0  0  2  0  0  0  0  0  0  0  0  0
    1.7501   36.6918   -3.5715 N   0  0  0  0  0  0  0  0  0  0  0  0
    5.3730   33.7554   -1.6136 C   0  0  1  0  0  0  0  0  0  0  0  0
    6.3306   34.7455   -2.0031 O   0  0  0  0  0  0  0  0  0  0  0  0
    5.3367   37.9546    0.3330 C   0  0  2  0  0  0  0  0  0  0  0  0
    6.4364   38.7880    0.6277 O   0  0  0  0  0  0  0  0  0  0  0  0
    1.3635   34.3334   -3.7784 C   0  0  1  0  0  0  0  0  0  0  0  0
    1.9583   34.1888   -2.4587 O   0  0  0  0  0  0  0  0  0  0  0  0
    5.0601   32.8797   -2.7702 C   0  0  1  0  0  0  0  0  0  0  0  0
    3.9513   33.4667   -3.4551 O   0  0  0  0  0  0  0  0  0  0  0  0
    4.0593   38.5176    0.9564 C   0  0  1  0  0  0  0  0  0  0  0  0
    3.7883   39.8123    0.4426 O   0  0  0  0  0  0  0  0  0  0  0  0
    0.2775   33.2283   -3.8773 C   0  0  2  0  0  0  0  0  0  0  0  0
    0.9055   31.9556   -3.8750 O   0  0  0  0  0  0  0  0  0  0  0  0
    2.8970   37.5756    0.6405 C   0  0  1  0  0  0  0  0  0  0  0  0
    3.1716   36.2744    1.1570 O   0  0  0  0  0  0  0  0  0  0  0  0
   -0.5156   33.4055   -5.1864 C   0  0  1  0  0  0  0  0  0  0  0  0
   -1.5226   32.3922   -5.2929 O   0  0  0  0  0  0  0  0  0  0  0  0
    1.6255   38.1213    1.2910 C   0  0  0  0  0  0  0  0  0  0  0  0
    1.1943   39.2700    0.5789 O   0  0  0  0  0  0  0  0  0  0  0  0
   -3.4837   36.6123   -6.4645 N   0  0  0  0  0  0  0  0  0  0  0  0
    0.8629   37.7521   -1.9651 N   0  0  0  0  0  0  0  0  0  0  0  0
  1  2  1  0  0  0  0
  1 39  1  0  0  0  0
  3  4  1  0  0  0  0
  5  6  1  0  0  0  0
  5 40  1  0  0  0  0
  9 10  1  6  0  0  0
  9 14  1  0  0  0  0
  9 35  1  0  0  0  0
 10  1  1  0  0  0  0
 11 16  1  0  0  0  0
 11 28  1  0  0  0  0
 11 26  1  1  0  0  0
 12 17  1  0  0  0  0
 12 34  1  0  0  0  0
 12 13  1  6  0  0  0
 14 15  1  1  0  0  0
 14 19  1  0  0  0  0
 16 13  1  6  0  0  0
 16 21  1  0  0  0  0
 17 18  1  6  0  0  0
 17 23  1  0  0  0  0
 18  8  1  0  0  0  0
 19 20  1  6  0  0  0
 19 25  1  0  0  0  0
 20  5  1  0  0  0  0
 21  3  1  1  0  0  0
 21 22  1  0  0  0  0
 21 27  1  0  0  0  0
 23 24  1  1  0  0  0
 23 29  1  0  0  0  0
 25 26  1  1  0  0  0
 25 31  1  0  0  0  0
 27  7  1  6  0  0  0
 27 28  1  0  0  0  0
 29 30  1  6  0  0  0
 29 33  1  0  0  0  0
 31 32  1  6  0  0  0
 31 35  1  0  0  0  0
 33 34  1  0  0  0  0
 33 37  1  1  0  0  0
 35 36  1  1  0  0  0
 37 38  1  0  0  0  0
M  END
>  <CHROM.1>
-108.46830819,-78.59189768,176.72131743,131.48117880,155.35360764,-148.74111087
78.92949923,-108.52681394,56.88672324,-101.04941083,72.37727912,2.43577424
35.57958907,-2.24706698,2.68312161,0.54253810,-2.62712597

>  <Name>
1ntb_lig

>  <RI>
0

>  <Rbt.Current_Directory>
/home/itssahil/PROJECTS/Mol_Feturizer/New_Systems/rnas/1ntb

>  <Rbt.Executable>
rbdock ($Id: //depot/dev/client3/rdock/2013.1/src/exe/rbdock.cxx#4 $)

>  <Rbt.Library>
libRbt.so (2013.1, Build901 2013/11/27)

>  <Rbt.Parameter_File>
/export/apps/rDock/src/rDock_2013.1_src/data/scripts/dock_solv.prm

>  <Rbt.Receptor>
prm/pocket_docking_4.prm

>  <SCORE>
-19.6634

>  <SCORE.INTER>
-11.6337

>  <SCORE.INTER.CONST>
1

>  <SCORE.INTER.POLAR>
-0.91772

>  <SCORE.INTER.ROT>
11

>  <SCORE.INTER.SOLV>
16.764

>  <SCORE.INTER.VDW>
-21.2181

>  <SCORE.INTER.norm>
-0.290843

>  <SCORE.INTRA>
-8.03065

>  <SCORE.INTRA.DIHEDRAL>
3.07485

>  <SCORE.INTRA.DIHEDRAL.0>
15.4453

>  <SCORE.INTRA.POLAR>
0

>  <SCORE.INTRA.POLAR.0>
0

>  <SCORE.INTRA.REPUL>
-0.800533

>  <SCORE.INTRA.REPUL.0>
0.823958

>  <SCORE.INTRA.SOLV>
1.85973

>  <SCORE.INTRA.SOLV.lig_0>
-99.3069

>  <SCORE.INTRA.VDW>
-6.49528

>  <SCORE.INTRA.VDW.0>
0.946495

>  <SCORE.INTRA.norm>
-0.200766

>  <SCORE.RESTR>
0.000953536

>  <SCORE.RESTR.CAVITY>
0.000953536

>  <SCORE.RESTR.norm>
2.38384e-05

>  <SCORE.SYSTEM>
0

>  <SCORE.SYSTEM.CONST>
0

>  <SCORE.SYSTEM.DIHEDRAL>
0

>  <SCORE.SYSTEM.SOLV>
0

>  <SCORE.SYSTEM.norm>
0

>  <SCORE.heavy>
40

>  <SCORE.norm>
-0.491586

>  <RMSD>
7.248

$$$$
1ntb_lig
 OpenBabel11021811403D
libRbt.so/2013.1/901 2013/11/27
 40 42  0  0  0  0  0  0  0  0999 V2000
   -3.2215   35.3587   -6.5900 C   0  0  0  0  0  0  0  0  0  0  0  0
   -3.8480   34.2832   -6.8744 N   0  0  0  0  0  0  0  0  0  0  0  0
    5.6114   33.0078   -0.3665 C   0  0  0  0  0  0  0  0  0  0  0  0
    6.8954   32.4876   -0.6681 O   0  0  0  0  0  0  0  0  0  0  0  0
    1.2596   37.8831   -3.1624 C   0  0  0  0  0  0  0  0  0  0  0  0
    1.2105   38.9819   -3.8275 N   0  0  0  0  0  0  0  0  0  0  0  0
    6.1171   32.9925   -3.5796 C   0  0  0  0  0  0  0  0  0  0  0  0
    6.7074   37.9043    1.4304 C   0  0  0  0  0  0  0  0  0  0  0  0
   -1.2161   35.0791   -5.3792 C   0  0  2  0  0  0  0  0  0  0  0  0
   -1.9087   35.3021   -6.7065 N   0  0  0  0  0  0  0  0  0  0  0  0
    3.1456   34.5894   -2.5920 C   0  0  2  0  0  0  0  0  0  0  0  0
    4.0649   35.7264    0.6923 C   0  0  1  0  0  0  0  0  0  0  0  0
    3.9175   35.7470   -0.7155 O   0  0  0  0  0  0  0  0  0  0  0  0
   -0.0921   36.0884   -5.1728 C   0  0  1  0  0  0  0  0  0  0  0  0
   -0.7568   37.4231   -5.2658 O   0  0  0  0  0  0  0  0  0  0  0  0
    3.7882   34.4966   -1.2200 C   0  0  2  0  0  0  0  0  0  0  0  0
    4.3741   37.1256    1.1669 C   0  0  1  0  0  0  0  0  0  0  0  0
    5.5928   37.5715    0.5895 N   0  0  0  0  0  0  0  0  0  0  0  0
    0.6582   35.8846   -3.8582 C   0  0  2  0  0  0  0  0  0  0  0  0
    1.7348   36.8209   -3.6094 N   0  0  0  0  0  0  0  0  0  0  0  0
    5.1244   33.8664   -1.5103 C   0  0  1  0  0  0  0  0  0  0  0  0
    6.0892   34.8811   -1.8081 O   0  0  0  0  0  0  0  0  0  0  0  0
    3.2356   38.0308    0.7278 C   0  0  2  0  0  0  0  0  0  0  0  0
    3.4797   39.3582    1.1389 O   0  0  0  0  0  0  0  0  0  0  0  0
    1.2275   34.4896   -3.8584 C   0  0  1  0  0  0  0  0  0  0  0  0
    1.7534   34.3013   -2.5152 O   0  0  0  0  0  0  0  0  0  0  0  0
    4.8827   33.0365   -2.7167 C   0  0  1  0  0  0  0  0  0  0  0  0
    3.8041   33.6406   -3.4343 O   0  0  0  0  0  0  0  0  0  0  0  0
    1.9624   37.4954    1.3835 C   0  0  1  0  0  0  0  0  0  0  0  0
    0.8457   38.2895    1.0145 O   0  0  0  0  0  0  0  0  0  0  0  0
    0.0873   33.4479   -4.0171 C   0  0  2  0  0  0  0  0  0  0  0  0
    0.6429   32.1421   -4.0005 O   0  0  0  0  0  0  0  0  0  0  0  0
    1.7460   36.0490    0.9376 C   0  0  1  0  0  0  0  0  0  0  0  0
    2.8700   35.2525    1.3086 O   0  0  0  0  0  0  0  0  0  0  0  0
   -0.6351   33.6799   -5.3582 C   0  0  1  0  0  0  0  0  0  0  0  0
   -1.6911   32.7254   -5.5201 O   0  0  0  0  0  0  0  0  0  0  0  0
    0.4908   35.5027    1.6184 C   0  0  0  0  0  0  0  0  0  0  0  0
    0.3007   34.1518    1.2294 O   0  0  0  0  0  0  0  0  0  0  0  0
   -3.8238   36.4235   -6.1909 N   0  0  0  0  0  0  0  0  0  0  0  0
    0.8643   37.8650   -1.9834 N   0  0  0  0  0  0  0  0  0  0  0  0
  1  2  1  0  0  0  0
  1 39  1  0  0  0  0
  3  4  1  0  0  0  0
  5  6  1  0  0  0  0
  5 40  1  0  0  0  0
  9 10  1  6  0  0  0
  9 14  1  0  0  0  0
  9 35  1  0  0  0  0
 10  1  1  0  0  0  0
 11 16  1  0  0  0  0
 11 28  1  0  0  0  0
 11 26  1  1  0  0  0
 12 17  1  0  0  0  0
 12 34  1  0  0  0  0
 12 13  1  6  0  0  0
 14 15  1  1  0  0  0
 14 19  1  0  0  0  0
 16 13  1  6  0  0  0
 16 21  1  0  0  0  0
 17 18  1  6  0  0  0
 17 23  1  0  0  0  0
 18  8  1  0  0  0  0
 19 20  1  6  0  0  0
 19 25  1  0  0  0  0
 20  5  1  0  0  0  0
 21  3  1  1  0  0  0
 21 22  1  0  0  0  0
 21 27  1  0  0  0  0
 23 24  1  1  0  0  0
 23 29  1  0  0  0  0
 25 26  1  1  0  0  0
 25 31  1  0  0  0  0
 27  7  1  6  0  0  0
 27 28  1  0  0  0  0
 29 30  1  6  0  0  0
 29 33  1  0  0  0  0
 31 32  1  6  0  0  0
 31 35  1  0  0  0  0
 33 34  1  0  0  0  0
 33 37  1  1  0  0  0
 35 36  1  1  0  0  0
 37 38  1  0  0  0  0
M  END
>  <CHROM.1>
-130.13362381,-98.94748322,176.93737217,173.06335205,159.66300773,-118.48905088
81.05869057,-108.74991066,-177.47772647,-96.86103797,-178.81347535,1.96457214
35.46983076,-2.19752187,2.56742499,0.53511189,-2.39073045

>  <Name>
1ntb_lig

>  <RI>
0

>  <Rbt.Current_Directory>
/home/itssahil/PROJECTS/Mol_Feturizer/New_Systems/rnas/1ntb

>  <Rbt.Executable>
rbdock ($Id: //depot/dev/client3/rdock/2013.1/src/exe/rbdock.cxx#4 $)

>  <Rbt.Library>
libRbt.so (2013.1, Build901 2013/11/27)

>  <Rbt.Parameter_File>
/export/apps/rDock/src/rDock_2013.1_src/data/scripts/dock_solv.prm

>  <Rbt.Receptor>
prm/pocket_docking_6.prm

>  <SCORE>
-23.2075

>  <SCORE.INTER>
-10.5426

>  <SCORE.INTER.CONST>
1

>  <SCORE.INTER.POLAR>
-0.718896

>  <SCORE.INTER.ROT>
11

>  <SCORE.INTER.SOLV>
15.3556

>  <SCORE.INTER.VDW>
-20.6839

>  <SCORE.INTER.norm>
-0.263565

>  <SCORE.INTRA>
-12.6649

>  <SCORE.INTRA.DIHEDRAL>
-4.69053

>  <SCORE.INTRA.DIHEDRAL.0>
15.4453

>  <SCORE.INTRA.POLAR>
0

>  <SCORE.INTRA.POLAR.0>
0

>  <SCORE.INTRA.REPUL>
-0.823958

>  <SCORE.INTRA.REPUL.0>
0.823958

>  <SCORE.INTRA.SOLV>
0.587693

>  <SCORE.INTRA.SOLV.lig_0>
-99.3069

>  <SCORE.INTRA.VDW>
-6.49366

>  <SCORE.INTRA.VDW.0>
0.946495

>  <SCORE.INTRA.norm>
-0.316622

>  <SCORE.RESTR>
0

>  <SCORE.RESTR.CAVITY>
0

>  <SCORE.RESTR.norm>
0

>  <SCORE.SYSTEM>
0

>  <SCORE.SYSTEM.CONST>
0

>  <SCORE.SYSTEM.DIHEDRAL>
0

>  <SCORE.SYSTEM.SOLV>
0

>  <SCORE.SYSTEM.norm>
0

>  <SCORE.heavy>
40

>  <SCORE.norm>
-0.580187

>  <RMSD>
7.261

$$$$
1ntb_lig
 OpenBabel11021811403D
libRbt.so/2013.1/901 2013/11/27
 40 42  0  0  0  0  0  0  0  0999 V2000
   -0.7132   34.6943    4.8566 C   0  0  0  0  0  0  0  0  0  0  0  0
   -1.5099   33.8818    5.4356 N   0  0  0  0  0  0  0  0  0  0  0  0
    2.2745   34.6742   -3.1590 C   0  0  0  0  0  0  0  0  0  0  0  0
    2.4051   34.8281   -1.7556 O   0  0  0  0  0  0  0  0  0  0  0  0
   -3.8549   32.8451   -0.4286 C   0  0  0  0  0  0  0  0  0  0  0  0
   -4.6287   32.2419    0.4017 N   0  0  0  0  0  0  0  0  0  0  0  0
    0.5334   32.0000   -3.7892 C   0  0  0  0  0  0  0  0  0  0  0  0
    1.5612   39.4520   -6.2266 C   0  0  0  0  0  0  0  0  0  0  0  0
   -0.8991   34.6983    2.5048 C   0  0  2  0  0  0  0  0  0  0  0  0
   -0.1557   34.2526    3.7456 N   0  0  0  0  0  0  0  0  0  0  0  0
   -1.3764   34.7472   -2.7117 C   0  0  2  0  0  0  0  0  0  0  0  0
   -0.0421   37.7485   -3.3940 C   0  0  1  0  0  0  0  0  0  0  0  0
   -0.3246   36.4586   -3.9042 O   0  0  0  0  0  0  0  0  0  0  0  0
   -1.3883   33.4989    1.7003 C   0  0  1  0  0  0  0  0  0  0  0  0
   -2.2477   32.7289    2.6491 O   0  0  0  0  0  0  0  0  0  0  0  0
   -0.0841   35.4959   -2.9821 C   0  0  2  0  0  0  0  0  0  0  0  0
   -0.0934   38.7403   -4.5309 C   0  0  1  0  0  0  0  0  0  0  0  0
    0.8896   38.4110   -5.5017 N   0  0  0  0  0  0  0  0  0  0  0  0
   -2.1198   33.8978    0.4203 C   0  0  2  0  0  0  0  0  0  0  0  0
   -2.6102   32.7952   -0.3805 N   0  0  0  0  0  0  0  0  0  0  0  0
    0.8278   34.4225   -3.5146 C   0  0  1  0  0  0  0  0  0  0  0  0
    0.6822   34.3175   -4.9348 O   0  0  0  0  0  0  0  0  0  0  0  0
   -1.4770   38.6660   -5.1544 C   0  0  2  0  0  0  0  0  0  0  0  0
   -1.5764   39.5698   -6.2332 O   0  0  0  0  0  0  0  0  0  0  0  0
   -1.1746   34.7166   -0.4202 C   0  0  1  0  0  0  0  0  0  0  0  0
   -1.9892   35.2183   -1.5161 O   0  0  0  0  0  0  0  0  0  0  0  0
    0.3429   33.1775   -2.8686 C   0  0  1  0  0  0  0  0  0  0  0  0
   -1.0468   33.3617   -2.5891 O   0  0  0  0  0  0  0  0  0  0  0  0
   -2.4794   39.0311   -4.0592 C   0  0  1  0  0  0  0  0  0  0  0  0
   -3.8042   38.9782   -4.5651 O   0  0  0  0  0  0  0  0  0  0  0  0
   -0.7074   35.9694    0.3688 C   0  0  2  0  0  0  0  0  0  0  0  0
    0.1695   36.7330   -0.4450 O   0  0  0  0  0  0  0  0  0  0  0  0
   -2.3235   38.0493   -2.8975 C   0  0  1  0  0  0  0  0  0  0  0  0
   -0.9909   38.1032   -2.3909 O   0  0  0  0  0  0  0  0  0  0  0  0
    0.0347   35.5243    1.6437 C   0  0  1  0  0  0  0  0  0  0  0  0
    0.4729   36.6701    2.3836 O   0  0  0  0  0  0  0  0  0  0  0  0
   -3.3033   38.4335   -1.7886 C   0  0  0  0  0  0  0  0  0  0  0  0
   -3.1161   37.5670   -0.6810 O   0  0  0  0  0  0  0  0  0  0  0  0
   -0.4478   35.8592    5.3344 N   0  0  0  0  0  0  0  0  0  0  0  0
   -4.3518   33.4794   -1.3759 N   0  0  0  0  0  0  0  0  0  0  0  0
  1  2  1  0  0  0  0
  1 39  1  0  0  0  0
  3  4  1  0  0  0  0
  5  6  1  0  0  0  0
  5 40  1  0  0  0  0
  9 10  1  1  0  0  0
  9 14  1  0  0  0  0
  9 35  1  0  0  0  0
 10  1  1  0  0  0  0
 11 16  1  0  0  0  0
 11 28  1  0  0  0  0
 11 26  1  1  0  0  0
 12 17  1  0  0  0  0
 12 34  1  0  0  0  0
 12 13  1  6  0  0  0
 14 15  1  1  0  0  0
 14 19  1  0  0  0  0
 16 13  1  6  0  0  0
 16 21  1  0  0  0  0
 17 18  1  6  0  0  0
 17 23  1  0  0  0  0
 18  8  1  0  0  0  0
 19 20  1  6  0  0  0
 19 25  1  0  0  0  0
 20  5  1  0  0  0  0
 21  3  1  1  0  0  0
 21 22  1  0  0  0  0
 21 27  1  0  0  0  0
 23 24  1  6  0  0  0
 23 29  1  0  0  0  0
 25 26  1  6  0  0  0
 25 31  1  0  0  0  0
 27  7  1  6  0  0  0
 27 28  1  0  0  0  0
 29 30  1  6  0  0  0
 29 33  1  0  0  0  0
 31 32  1  6  0  0  0
 31 35  1  0  0  0  0
 33 34  1  0  0  0  0
 33 37  1  1  0  0  0
 35 36  1  1  0  0  0
 37 38  1  0  0  0  0
M  END
>  <CHROM.1>
-120.26441865,95.96122552,-72.49150961,170.08750770,119.77023727,-145.51334543
116.46119869,-91.50362953,54.97995488,-121.66820844,-177.08994663,-1.00850170
35.67481806,-1.35862257,1.88439257,-1.24815435,2.34134093

>  <Name>
1ntb_lig

>  <RI>
0

>  <Rbt.Current_Directory>
/home/itssahil/PROJECTS/Mol_Feturizer/New_Systems/rnas/1ntb

>  <Rbt.Executable>
rbdock ($Id: //depot/dev/client3/rdock/2013.1/src/exe/rbdock.cxx#4 $)

>  <Rbt.Library>
libRbt.so (2013.1, Build901 2013/11/27)

>  <Rbt.Parameter_File>
/export/apps/rDock/src/rDock_2013.1_src/data/scripts/dock_solv.prm

>  <Rbt.Receptor>
prm/pocket_docking_7.prm

>  <SCORE>
-2.65939

>  <SCORE.INTER>
6.39167

>  <SCORE.INTER.CONST>
1

>  <SCORE.INTER.POLAR>
0

>  <SCORE.INTER.ROT>
11

>  <SCORE.INTER.SOLV>
8.27206

>  <SCORE.INTER.VDW>
-9.42958

>  <SCORE.INTER.norm>
0.159792

>  <SCORE.INTRA>
-9.05105

>  <SCORE.INTRA.DIHEDRAL>
4.2921

>  <SCORE.INTRA.DIHEDRAL.0>
15.4453

>  <SCORE.INTRA.POLAR>
0

>  <SCORE.INTRA.POLAR.0>
0

>  <SCORE.INTRA.REPUL>
-0.819089

>  <SCORE.INTRA.REPUL.0>
0.823958

>  <SCORE.INTRA.SOLV>
0.678706

>  <SCORE.INTRA.SOLV.lig_0>
-99.3069

>  <SCORE.INTRA.VDW>
-7.44101

>  <SCORE.INTRA.VDW.0>
0.946495

>  <SCORE.INTRA.norm>
-0.226276

>  <SCORE.RESTR>
0

>  <SCORE.RESTR.CAVITY>
0

>  <SCORE.RESTR.norm>
0

>  <SCORE.SYSTEM>
0

>  <SCORE.SYSTEM.CONST>
0

>  <SCORE.SYSTEM.DIHEDRAL>
0

>  <SCORE.SYSTEM.SOLV>
0

>  <SCORE.SYSTEM.norm>
0

>  <SCORE.heavy>
40

>  <SCORE.norm>
-0.0664847

>  <RMSD>
7.267

$$$$
1ntb_lig
 OpenBabel11021811403D
libRbt.so/2013.1/901 2013/11/27
 40 42  0  0  0  0  0  0  0  0999 V2000
   -1.0927   32.8083   -6.9230 C   0  0  0  0  0  0  0  0  0  0  0  0
   -1.7897   33.5612   -7.6830 N   0  0  0  0  0  0  0  0  0  0  0  0
   -0.9399   35.3588    2.9151 C   0  0  0  0  0  0  0  0  0  0  0  0
   -0.6043   35.4284    4.2909 O   0  0  0  0  0  0  0  0  0  0  0  0
   -4.3796   32.8216   -1.6907 C   0  0  0  0  0  0  0  0  0  0  0  0
   -4.5339   32.0979   -0.6397 N   0  0  0  0  0  0  0  0  0  0  0  0
   -0.0761   32.4161    3.9987 C   0  0  0  0  0  0  0  0  0  0  0  0
    3.4734   36.8249    0.7680 C   0  0  0  0  0  0  0  0  0  0  0  0
   -0.8434   32.7845   -4.5771 C   0  0  2  0  0  0  0  0  0  0  0  0
   -0.4993   33.4116   -5.9110 N   0  0  0  0  0  0  0  0  0  0  0  0
   -0.5025   32.6054    0.5147 C   0  0  2  0  0  0  0  0  0  0  0  0
    0.4696   36.0825    0.1991 C   0  0  1  0  0  0  0  0  0  0  0  0
    0.5067   34.6708    0.0993 O   0  0  0  0  0  0  0  0  0  0  0  0
   -1.9880   33.5312   -3.9011 C   0  0  1  0  0  0  0  0  0  0  0  0
   -3.1140   33.4702   -4.8811 O   0  0  0  0  0  0  0  0  0  0  0  0
   -0.5022   34.0966    0.7974 C   0  0  2  0  0  0  0  0  0  0  0  0
    1.5106   36.6605   -0.7287 C   0  0  1  0  0  0  0  0  0  0  0  0
    2.8018   36.2121   -0.3427 N   0  0  0  0  0  0  0  0  0  0  0  0
   -2.3525   32.9533   -2.5351 C   0  0  2  0  0  0  0  0  0  0  0  0
   -3.4385   33.6234   -1.8502 N   0  0  0  0  0  0  0  0  0  0  0  0
   -0.2668   34.1629    2.2831 C   0  0  1  0  0  0  0  0  0  0  0  0
    1.1384   34.1897    2.5548 O   0  0  0  0  0  0  0  0  0  0  0  0
    1.1997   36.1818   -2.1368 C   0  0  2  0  0  0  0  0  0  0  0  0
    2.1523   36.6872   -3.0466 O   0  0  0  0  0  0  0  0  0  0  0  0
   -1.1261   33.0136   -1.6618 C   0  0  1  0  0  0  0  0  0  0  0  0
   -1.4880   32.2789   -0.4595 O   0  0  0  0  0  0  0  0  0  0  0  0
   -0.8528   32.9021    2.8025 C   0  0  1  0  0  0  0  0  0  0  0  0
   -0.7828   31.9394    1.7482 O   0  0  0  0  0  0  0  0  0  0  0  0
   -0.1964   36.6986   -2.4851 C   0  0  1  0  0  0  0  0  0  0  0  0
   -0.5641   36.2850   -3.7918 O   0  0  0  0  0  0  0  0  0  0  0  0
    0.0337   32.2140   -2.3143 C   0  0  2  0  0  0  0  0  0  0  0  0
    1.1729   32.2718   -1.4699 O   0  0  0  0  0  0  0  0  0  0  0  0
   -1.1953   36.1540   -1.4636 C   0  0  1  0  0  0  0  0  0  0  0  0
   -0.8236   36.5700   -0.1505 O   0  0  0  0  0  0  0  0  0  0  0  0
    0.3779   32.8352   -3.6817 C   0  0  1  0  0  0  0  0  0  0  0  0
    1.4478   32.1081   -4.2974 O   0  0  0  0  0  0  0  0  0  0  0  0
   -2.5864   36.6965   -1.7924 C   0  0  0  0  0  0  0  0  0  0  0  0
   -2.5699   38.1115   -1.6924 O   0  0  0  0  0  0  0  0  0  0  0  0
   -0.9538   31.5476   -7.1396 N   0  0  0  0  0  0  0  0  0  0  0  0
   -5.1722   32.6952   -2.6407 N   0  0  0  0  0  0  0  0  0  0  0  0
  1  2  1  0  0  0  0
  1 39  1  0  0  0  0
  3  4  1  0  0  0  0
  5  6  1  0  0  0  0
  5 40  1  0  0  0  0
  9 10  1  6  0  0  0
  9 14  1  0  0  0  0
  9 35  1  0  0  0  0
 10  1  1  0  0  0  0
 11 16  1  0  0  0  0
 11 28  1  0  0  0  0
 11 26  1  6  0  0  0
 12 17  1  0  0  0  0
 12 34  1  0  0  0  0
 12 13  1  6  0  0  0
 14 15  1  6  0  0  0
 14 19  1  0  0  0  0
 16 13  1  6  0  0  0
 16 21  1  0  0  0  0
 17 18  1  1  0  0  0
 17 23  1  0  0  0  0
 18  8  1  0  0  0  0
 19 20  1  1  0  0  0
 19 25  1  0  0  0  0
 20  5  1  0  0  0  0
 21  3  1  1  0  0  0
 21 22  1  0  0  0  0
 21 27  1  0  0  0  0
 23 24  1  6  0  0  0
 23 29  1  0  0  0  0
 25 26  1  1  0  0  0
 25 31  1  0  0  0  0
 27  7  1  1  0  0  0
 27 28  1  0  0  0  0
 29 30  1  6  0  0  0
 29 33  1  0  0  0  0
 31 32  1  1  0  0  0
 31 35  1  0  0  0  0
 33 34  1  0  0  0  0
 33 37  1  6  0  0  0
 35 36  1  6  0  0  0
 37 38  1  0  0  0  0
M  END
>  <CHROM.1>
-95.90186023,125.09876494,60.67346885,-173.27109195,173.33879656,-78.72944058
117.74456680,92.39894575,-175.63714816,-165.26453761,-61.80193176,-0.69883311
34.19383184,-1.43812387,-1.87925160,0.74816682,1.58288765

>  <Name>
1ntb_lig

>  <RI>
0

>  <Rbt.Current_Directory>
/home/itssahil/PROJECTS/Mol_Feturizer/New_Systems/rnas/1ntb

>  <Rbt.Executable>
rbdock ($Id: //depot/dev/client3/rdock/2013.1/src/exe/rbdock.cxx#4 $)

>  <Rbt.Library>
libRbt.so (2013.1, Build901 2013/11/27)

>  <Rbt.Parameter_File>
/export/apps/rDock/src/rDock_2013.1_src/data/scripts/dock_solv.prm

>  <Rbt.Receptor>
prm/pocket_docking_5.prm

>  <SCORE>
-14.2686

>  <SCORE.INTER>
0.708431

>  <SCORE.INTER.CONST>
1

>  <SCORE.INTER.POLAR>
-0.722303

>  <SCORE.INTER.ROT>
11

>  <SCORE.INTER.SOLV>
8.28258

>  <SCORE.INTER.VDW>
-10.8142

>  <SCORE.INTER.norm>
0.0177108

>  <SCORE.INTRA>
-14.977

>  <SCORE.INTRA.DIHEDRAL>
-10.4058

>  <SCORE.INTRA.DIHEDRAL.0>
15.4453

>  <SCORE.INTRA.POLAR>
0

>  <SCORE.INTRA.POLAR.0>
0

>  <SCORE.INTRA.REPUL>
-0.823958

>  <SCORE.INTRA.REPUL.0>
0.823958

>  <SCORE.INTRA.SOLV>
-0.284128

>  <SCORE.INTRA.SOLV.lig_0>
-99.3069

>  <SCORE.INTRA.VDW>
-5.51229

>  <SCORE.INTRA.VDW.0>
0.946495

>  <SCORE.INTRA.norm>
-0.374425

>  <SCORE.RESTR>
0

>  <SCORE.RESTR.CAVITY>
0

>  <SCORE.RESTR.norm>
0

>  <SCORE.SYSTEM>
0

>  <SCORE.SYSTEM.CONST>
0

>  <SCORE.SYSTEM.DIHEDRAL>
0

>  <SCORE.SYSTEM.SOLV>
0

>  <SCORE.SYSTEM.norm>
0

>  <SCORE.heavy>
40

>  <SCORE.norm>
-0.356715

>  <RMSD>
7.297

$$$$
1ntb_lig
 OpenBabel11021811403D
libRbt.so/2013.1/901 2013/11/27
 40 42  0  0  0  0  0  0  0  0999 V2000
   -0.5370   38.0618    3.5946 C   0  0  0  0  0  0  0  0  0  0  0  0
   -0.8351   39.2622    3.2780 N   0  0  0  0  0  0  0  0  0  0  0  0
   -4.4805   34.4701   -0.6365 C   0  0  0  0  0  0  0  0  0  0  0  0
   -5.7895   34.9998   -0.7645 O   0  0  0  0  0  0  0  0  0  0  0  0
    0.9459   38.4874   -2.3559 C   0  0  0  0  0  0  0  0  0  0  0  0
    1.6229   37.5958   -2.9876 N   0  0  0  0  0  0  0  0  0  0  0  0
   -4.4940   37.0345   -2.6374 C   0  0  0  0  0  0  0  0  0  0  0  0
   -2.8284   29.4621   -1.4100 C   0  0  0  0  0  0  0  0  0  0  0  0
    0.8219   37.0448    1.9561 C   0  0  2  0  0  0  0  0  0  0  0  0
    0.6983   37.6893    3.3201 N   0  0  0  0  0  0  0  0  0  0  0  0
   -1.4135   35.3502   -2.4677 C   0  0  2  0  0  0  0  0  0  0  0  0
   -1.2135   32.2608   -1.8981 C   0  0  1  0  0  0  0  0  0  0  0  0
   -2.1655   33.1386   -2.4702 O   0  0  0  0  0  0  0  0  0  0  0  0
    0.3411   37.9890    0.8597 C   0  0  1  0  0  0  0  0  0  0  0  0
    1.1917   39.2083    1.0071 O   0  0  0  0  0  0  0  0  0  0  0  0
   -2.2561   34.2962   -1.7728 C   0  0  2  0  0  0  0  0  0  0  0  0
   -1.2683   30.9428   -2.6320 C   0  0  1  0  0  0  0  0  0  0  0  0
   -2.5589   30.3667   -2.4913 N   0  0  0  0  0  0  0  0  0  0  0  0
    0.4180   37.3715   -0.5350 C   0  0  2  0  0  0  0  0  0  0  0  0
   -0.0233   38.2288   -1.6157 N   0  0  0  0  0  0  0  0  0  0  0  0
   -3.6439   34.8780   -1.8266 C   0  0  1  0  0  0  0  0  0  0  0  0
   -4.2922   34.4846   -3.0408 O   0  0  0  0  0  0  0  0  0  0  0  0
   -0.9829   31.2126   -4.0998 C   0  0  2  0  0  0  0  0  0  0  0  0
   -1.0317   30.0103   -4.8365 O   0  0  0  0  0  0  0  0  0  0  0  0
   -0.4262   36.1235   -0.5389 C   0  0  1  0  0  0  0  0  0  0  0  0
   -0.1532   35.4925   -1.8209 O   0  0  0  0  0  0  0  0  0  0  0  0
   -3.4249   36.3458   -1.8293 C   0  0  1  0  0  0  0  0  0  0  0  0
   -2.1416   36.5792   -2.4140 O   0  0  0  0  0  0  0  0  0  0  0  0
    0.4146   31.8279   -4.1762 C   0  0  1  0  0  0  0  0  0  0  0  0
    0.7542   32.1160   -5.5236 O   0  0  0  0  0  0  0  0  0  0  0  0
    0.0843   35.1304    0.5397 C   0  0  2  0  0  0  0  0  0  0  0  0
   -0.7145   33.9577    0.5095 O   0  0  0  0  0  0  0  0  0  0  0  0
    0.4370   33.1112   -3.3452 C   0  0  1  0  0  0  0  0  0  0  0  0
    0.0946   32.8198   -1.9913 O   0  0  0  0  0  0  0  0  0  0  0  0
   -0.0210   35.7860    1.9302 C   0  0  1  0  0  0  0  0  0  0  0  0
    0.4466   34.8813    2.9377 O   0  0  0  0  0  0  0  0  0  0  0  0
    1.8429   33.7098   -3.3949 C   0  0  0  0  0  0  0  0  0  0  0  0
    2.7663   32.7746   -2.8610 O   0  0  0  0  0  0  0  0  0  0  0  0
   -1.3890   37.2555    4.1236 N   0  0  0  0  0  0  0  0  0  0  0  0
    1.2898   39.6803   -2.4288 N   0  0  0  0  0  0  0  0  0  0  0  0
  1  2  1  0  0  0  0
  1 39  1  0  0  0  0
  3  4  1  0  0  0  0
  5  6  1  0  0  0  0
  5 40  1  0  0  0  0
  9 10  1  1  0  0  0
  9 14  1  0  0  0  0
  9 35  1  0  0  0  0
 10  1  1  0  0  0  0
 11 16  1  0  0  0  0
 11 28  1  0  0  0  0
 11 26  1  1  0  0  0
 12 17  1  0  0  0  0
 12 34  1  0  0  0  0
 12 13  1  6  0  0  0
 14 15  1  6  0  0  0
 14 19  1  0  0  0  0
 16 13  1  6  0  0  0
 16 21  1  0  0  0  0
 17 18  1  6  0  0  0
 17 23  1  0  0  0  0
 18  8  1  0  0  0  0
 19 20  1  6  0  0  0
 19 25  1  0  0  0  0
 20  5  1  0  0  0  0
 21  3  1  1  0  0  0
 21 22  1  0  0  0  0
 21 27  1  0  0  0  0
 23 24  1  6  0  0  0
 23 29  1  0  0  0  0
 25 26  1  6  0  0  0
 25 31  1  0  0  0  0
 27  7  1  6  0  0  0
 27 28  1  0  0  0  0
 29 30  1  6  0  0  0
 29 33  1  0  0  0  0
 31 32  1  1  0  0  0
 31 35  1  0  0  0  0
 33 34  1  0  0  0  0
 33 37  1  1  0  0  0
 35 36  1  1  0  0  0
 37 38  1  0  0  0  0
M  END
>  <CHROM.1>
57.87390525,-92.04885871,-70.20652472,174.08811908,98.12966829,-91.48050679
114.72005399,60.36284652,-177.68486885,-123.22265980,-60.07627325,-0.86080881
34.99368706,-1.19824685,1.40842517,0.37984634,0.72792139

>  <Name>
1ntb_lig

>  <RI>
0

>  <Rbt.Current_Directory>
/home/itssahil/PROJECTS/Mol_Feturizer/New_Systems/rnas/1ntb

>  <Rbt.Executable>
rbdock ($Id: //depot/dev/client3/rdock/2013.1/src/exe/rbdock.cxx#4 $)

>  <Rbt.Library>
libRbt.so (2013.1, Build901 2013/11/27)

>  <Rbt.Parameter_File>
/export/apps/rDock/src/rDock_2013.1_src/data/scripts/dock_solv.prm

>  <Rbt.Receptor>
prm/pocket_docking_7.prm

>  <SCORE>
-7.4041

>  <SCORE.INTER>
-0.659294

>  <SCORE.INTER.CONST>
1

>  <SCORE.INTER.POLAR>
-1.29595

>  <SCORE.INTER.ROT>
11

>  <SCORE.INTER.SOLV>
10.2348

>  <SCORE.INTER.VDW>
-10.4646

>  <SCORE.INTER.norm>
-0.0164823

>  <SCORE.INTRA>
-6.7448

>  <SCORE.INTRA.DIHEDRAL>
0.652342

>  <SCORE.INTRA.DIHEDRAL.0>
15.4453

>  <SCORE.INTRA.POLAR>
0

>  <SCORE.INTRA.POLAR.0>
0

>  <SCORE.INTRA.REPUL>
-0.807704

>  <SCORE.INTRA.REPUL.0>
0.823958

>  <SCORE.INTRA.SOLV>
1.67346

>  <SCORE.INTRA.SOLV.lig_0>
-99.3069

>  <SCORE.INTRA.VDW>
-3.86918

>  <SCORE.INTRA.VDW.0>
0.946495

>  <SCORE.INTRA.norm>
-0.16862

>  <SCORE.RESTR>
0

>  <SCORE.RESTR.CAVITY>
0

>  <SCORE.RESTR.norm>
0

>  <SCORE.SYSTEM>
0

>  <SCORE.SYSTEM.CONST>
0

>  <SCORE.SYSTEM.DIHEDRAL>
0

>  <SCORE.SYSTEM.SOLV>
0

>  <SCORE.SYSTEM.norm>
0

>  <SCORE.heavy>
40

>  <SCORE.norm>
-0.185102

>  <RMSD>
7.299

$$$$
1ntb_lig
 OpenBabel11021811403D
libRbt.so/2013.1/901 2013/11/27
 40 42  0  0  0  0  0  0  0  0999 V2000
   -3.2694   36.3664   -4.6972 C   0  0  0  0  0  0  0  0  0  0  0  0
   -4.0514   35.3998   -4.4069 N   0  0  0  0  0  0  0  0  0  0  0  0
    4.9705   35.9027    1.9308 C   0  0  0  0  0  0  0  0  0  0  0  0
    6.3488   35.7456    2.2238 O   0  0  0  0  0  0  0  0  0  0  0  0
   -0.6757   33.6715    0.6465 C   0  0  0  0  0  0  0  0  0  0  0  0
    0.1696   32.7058    0.7159 N   0  0  0  0  0  0  0  0  0  0  0  0
    6.5192   34.4003   -0.5032 C   0  0  0  0  0  0  0  0  0  0  0  0
    5.1434   40.2449   -0.0736 C   0  0  0  0  0  0  0  0  0  0  0  0
   -1.5030   35.9488   -3.1901 C   0  0  2  0  0  0  0  0  0  0  0  0
   -2.5919   36.8756   -3.6863 N   0  0  0  0  0  0  0  0  0  0  0  0
    3.1549   35.1599   -1.1815 C   0  0  2  0  0  0  0  0  0  0  0  0
    3.1070   38.1461    0.8770 C   0  0  1  0  0  0  0  0  0  0  0  0
    3.0336   37.3016   -0.2568 O   0  0  0  0  0  0  0  0  0  0  0  0
   -1.5110   35.8615   -1.6679 C   0  0  1  0  0  0  0  0  0  0  0  0
   -2.8839   35.3854   -1.3209 O   0  0  0  0  0  0  0  0  0  0  0  0
    3.3055   36.0141    0.0641 C   0  0  2  0  0  0  0  0  0  0  0  0
    2.8222   39.5638    0.4437 C   0  0  1  0  0  0  0  0  0  0  0  0
    3.7976   39.9841   -0.4992 N   0  0  0  0  0  0  0  0  0  0  0  0
   -0.4085   34.9598   -1.1166 C   0  0  2  0  0  0  0  0  0  0  0  0
   -0.3736   34.8378    0.3262 N   0  0  0  0  0  0  0  0  0  0  0  0
    4.7512   35.8211    0.4382 C   0  0  1  0  0  0  0  0  0  0  0  0
    5.5632   36.7915   -0.2313 O   0  0  0  0  0  0  0  0  0  0  0  0
    1.4442   39.5894   -0.1959 C   0  0  2  0  0  0  0  0  0  0  0  0
    1.1307   40.8949   -0.6297 O   0  0  0  0  0  0  0  0  0  0  0  0
    0.9162   35.5057   -1.5829 C   0  0  1  0  0  0  0  0  0  0  0  0
    1.8926   34.5016   -1.1897 O   0  0  0  0  0  0  0  0  0  0  0  0
    5.0799   34.4630   -0.0619 C   0  0  1  0  0  0  0  0  0  0  0  0
    4.2155   34.2015   -1.1699 O   0  0  0  0  0  0  0  0  0  0  0  0
    0.4496   39.1289    0.8699 C   0  0  1  0  0  0  0  0  0  0  0  0
   -0.8685   39.1199    0.3442 O   0  0  0  0  0  0  0  0  0  0  0  0
    0.9577   35.5527   -3.1342 C   0  0  2  0  0  0  0  0  0  0  0  0
    2.2173   36.0557   -3.5520 O   0  0  0  0  0  0  0  0  0  0  0  0
    0.8367   37.7247    1.3351 C   0  0  1  0  0  0  0  0  0  0  0  0
    2.1623   37.7355    1.8625 O   0  0  0  0  0  0  0  0  0  0  0  0
   -0.1601   36.4802   -3.6484 C   0  0  1  0  0  0  0  0  0  0  0  0
   -0.1351   36.5346   -5.0798 O   0  0  0  0  0  0  0  0  0  0  0  0
   -0.1384   37.2766    2.4241 C   0  0  0  0  0  0  0  0  0  0  0  0
   -0.1070   38.2113    3.4907 O   0  0  0  0  0  0  0  0  0  0  0  0
   -3.1639   36.8344   -5.8912 N   0  0  0  0  0  0  0  0  0  0  0  0
   -1.8805   33.4444    0.8553 N   0  0  0  0  0  0  0  0  0  0  0  0
  1  2  1  0  0  0  0
  1 39  1  0  0  0  0
  3  4  1  0  0  0  0
  5  6  1  0  0  0  0
  5 40  1  0  0  0  0
  9 10  1  1  0  0  0
  9 14  1  0  0  0  0
  9 35  1  0  0  0  0
 10  1  1  0  0  0  0
 11 16  1  0  0  0  0
 11 28  1  0  0  0  0
 11 26  1  1  0  0  0
 12 17  1  0  0  0  0
 12 34  1  0  0  0  0
 12 13  1  6  0  0  0
 14 15  1  6  0  0  0
 14 19  1  0  0  0  0
 16 13  1  6  0  0  0
 16 21  1  0  0  0  0
 17 18  1  6  0  0  0
 17 23  1  0  0  0  0
 18  8  1  0  0  0  0
 19 20  1  1  0  0  0
 19 25  1  0  0  0  0
 20  5  1  0  0  0  0
 21  3  1  1  0  0  0
 21 22  1  0  0  0  0
 21 27  1  0  0  0  0
 23 24  1  1  0  0  0
 23 29  1  0  0  0  0
 25 26  1  6  0  0  0
 25 31  1  0  0  0  0
 27  7  1  6  0  0  0
 27 28  1  0  0  0  0
 29 30  1  6  0  0  0
 29 33  1  0  0  0  0
 31 32  1  1  0  0  0
 31 35  1  0  0  0  0
 33 34  1  0  0  0  0
 33 37  1  1  0  0  0
 35 36  1  6  0  0  0
 37 38  1  0  0  0  0
M  END
>  <CHROM.1>
-134.35502753,71.53193362,77.27934461,178.84933526,177.76362459,-71.29550767
112.71282813,86.31072745,-178.65337279,-160.27475390,-57.71901439,1.29696547
36.52929242,-0.73562085,2.81315396,0.44646323,-2.71294725

>  <Name>
1ntb_lig

>  <RI>
0

>  <Rbt.Current_Directory>
/home/itssahil/PROJECTS/Mol_Feturizer/New_Systems/rnas/1ntb

>  <Rbt.Executable>
rbdock ($Id: //depot/dev/client3/rdock/2013.1/src/exe/rbdock.cxx#4 $)

>  <Rbt.Library>
libRbt.so (2013.1, Build901 2013/11/27)

>  <Rbt.Parameter_File>
/export/apps/rDock/src/rDock_2013.1_src/data/scripts/dock_solv.prm

>  <Rbt.Receptor>
prm/pocket_docking_4.prm

>  <SCORE>
-14.739

>  <SCORE.INTER>
-0.0297632

>  <SCORE.INTER.CONST>
1

>  <SCORE.INTER.POLAR>
-0.816798

>  <SCORE.INTER.ROT>
11

>  <SCORE.INTER.SOLV>
10.501

>  <SCORE.INTER.VDW>
-11.7309

>  <SCORE.INTER.norm>
-0.00074408

>  <SCORE.INTRA>
-14.7092

>  <SCORE.INTRA.DIHEDRAL>
-8.33408

>  <SCORE.INTRA.DIHEDRAL.0>
15.4453

>  <SCORE.INTRA.POLAR>
0

>  <SCORE.INTRA.POLAR.0>
0

>  <SCORE.INTRA.REPUL>
-0.823958

>  <SCORE.INTRA.REPUL.0>
0.823958

>  <SCORE.INTRA.SOLV>
-1.30337

>  <SCORE.INTRA.SOLV.lig_0>
-99.3069

>  <SCORE.INTRA.VDW>
-5.77073

>  <SCORE.INTRA.VDW.0>
0.946495

>  <SCORE.INTRA.norm>
-0.367731

>  <SCORE.RESTR>
0

>  <SCORE.RESTR.CAVITY>
0

>  <SCORE.RESTR.norm>
0

>  <SCORE.SYSTEM>
0

>  <SCORE.SYSTEM.CONST>
0

>  <SCORE.SYSTEM.DIHEDRAL>
0

>  <SCORE.SYSTEM.SOLV>
0

>  <SCORE.SYSTEM.norm>
0

>  <SCORE.heavy>
40

>  <SCORE.norm>
-0.368475

>  <RMSD>
7.302

$$$$
1ntb_lig
 OpenBabel11021811403D
libRbt.so/2013.1/901 2013/11/27
 40 42  0  0  0  0  0  0  0  0999 V2000
   -0.4170   32.3548   -4.6323 C   0  0  0  0  0  0  0  0  0  0  0  0
   -1.3264   32.1555   -5.5061 N   0  0  0  0  0  0  0  0  0  0  0  0
   -0.7712   41.4422   -0.1910 C   0  0  0  0  0  0  0  0  0  0  0  0
   -1.9849   40.8111    0.1818 O   0  0  0  0  0  0  0  0  0  0  0  0
   -2.8426   35.2503   -0.1197 C   0  0  0  0  0  0  0  0  0  0  0  0
   -2.6022   35.3709    1.1371 N   0  0  0  0  0  0  0  0  0  0  0  0
    1.5456   40.8353    2.0099 C   0  0  0  0  0  0  0  0  0  0  0  0
    2.0279   42.1599   -4.2049 C   0  0  0  0  0  0  0  0  0  0  0  0
    0.2044   34.1604   -3.2468 C   0  0  2  0  0  0  0  0  0  0  0  0
    0.1212   33.5592   -4.6334 N   0  0  0  0  0  0  0  0  0  0  0  0
    0.8253   38.1287   -0.1140 C   0  0  2  0  0  0  0  0  0  0  0  0
   -0.1443   40.1157   -2.9842 C   0  0  1  0  0  0  0  0  0  0  0  0
    0.6110   39.2603   -2.1463 O   0  0  0  0  0  0  0  0  0  0  0  0
   -1.1351   34.7567   -2.8282 C   0  0  1  0  0  0  0  0  0  0  0  0
   -2.1011   33.6203   -2.9134 O   0  0  0  0  0  0  0  0  0  0  0  0
    0.0888   39.1995   -0.8980 C   0  0  2  0  0  0  0  0  0  0  0  0
    0.5318   40.1938   -4.3315 C   0  0  1  0  0  0  0  0  0  0  0  0
    1.8357   40.7376   -4.1850 N   0  0  0  0  0  0  0  0  0  0  0  0
   -1.0936   35.4037   -1.4454 C   0  0  2  0  0  0  0  0  0  0  0  0
   -2.3429   35.9826   -0.9962 N   0  0  0  0  0  0  0  0  0  0  0  0
    0.3672   40.4522   -0.1104 C   0  0  1  0  0  0  0  0  0  0  0  0
    1.5795   41.0592   -0.5697 O   0  0  0  0  0  0  0  0  0  0  0  0
    0.6225   38.7843   -4.8917 C   0  0  2  0  0  0  0  0  0  0  0  0
    1.2582   38.7987   -6.1512 O   0  0  0  0  0  0  0  0  0  0  0  0
   -0.0457   36.4860   -1.4690 C   0  0  1  0  0  0  0  0  0  0  0  0
    0.0733   36.9201   -0.0856 O   0  0  0  0  0  0  0  0  0  0  0  0
    0.5435   39.9755    1.2840 C   0  0  1  0  0  0  0  0  0  0  0  0
    1.0146   38.6279    1.2120 O   0  0  0  0  0  0  0  0  0  0  0  0
   -0.8091   38.2641   -5.0232 C   0  0  1  0  0  0  0  0  0  0  0  0
   -0.8084   36.9417   -5.5379 O   0  0  0  0  0  0  0  0  0  0  0  0
    1.3351   35.8839   -1.8446 C   0  0  2  0  0  0  0  0  0  0  0  0
    2.3090   36.9162   -1.8471 O   0  0  0  0  0  0  0  0  0  0  0  0
   -1.4738   38.2893   -3.6465 C   0  0  1  0  0  0  0  0  0  0  0  0
   -1.4727   39.6193   -3.1303 O   0  0  0  0  0  0  0  0  0  0  0  0
    1.2539   35.2532   -3.2481 C   0  0  1  0  0  0  0  0  0  0  0  0
    2.5216   34.6927   -3.6101 O   0  0  0  0  0  0  0  0  0  0  0  0
   -2.9157   37.7997   -3.7829 C   0  0  0  0  0  0  0  0  0  0  0  0
   -3.5680   37.9174   -2.5287 O   0  0  0  0  0  0  0  0  0  0  0  0
   -0.0289   31.4371   -3.8182 N   0  0  0  0  0  0  0  0  0  0  0  0
   -3.5716   34.3238   -0.5158 N   0  0  0  0  0  0  0  0  0  0  0  0
  1  2  1  0  0  0  0
  1 39  1  0  0  0  0
  3  4  1  0  0  0  0
  5  6  1  0  0  0  0
  5 40  1  0  0  0  0
  9 10  1  6  0  0  0
  9 14  1  0  0  0  0
  9 35  1  0  0  0  0
 10  1  1  0  0  0  0
 11 16  1  0  0  0  0
 11 28  1  0  0  0  0
 11 26  1  1  0  0  0
 12 17  1  0  0  0  0
 12 34  1  0  0  0  0
 12 13  1  1  0  0  0
 14 15  1  1  0  0  0
 14 19  1  0  0  0  0
 16 13  1  6  0  0  0
 16 21  1  0  0  0  0
 17 18  1  1  0  0  0
 17 23  1  0  0  0  0
 18  8  1  0  0  0  0
 19 20  1  6  0  0  0
 19 25  1  0  0  0  0
 20  5  1  0  0  0  0
 21  3  1  6  0  0  0
 21 22  1  0  0  0  0
 21 27  1  0  0  0  0
 23 24  1  6  0  0  0
 23 29  1  0  0  0  0
 25 26  1  1  0  0  0
 25 31  1  0  0  0  0
 27  7  1  6  0  0  0
 27 28  1  0  0  0  0
 29 30  1  1  0  0  0
 29 33  1  0  0  0  0
 31 32  1  6  0  0  0
 31 35  1  0  0  0  0
 33 34  1  0  0  0  0
 33 37  1  6  0  0  0
 35 36  1  1  0  0  0
 37 38  1  0  0  0  0
M  END
>  <CHROM.1>
-80.69494235,132.45821751,62.26751978,177.04127996,172.31279714,-86.75340105
106.06866823,89.71649171,53.39959815,-167.42091824,-175.58452407,-0.25824194
37.38616126,-2.28136081,-2.03167604,1.14464011,0.77969909

>  <Name>
1ntb_lig

>  <RI>
0

>  <Rbt.Current_Directory>
/home/itssahil/PROJECTS/Mol_Feturizer/New_Systems/rnas/1ntb

>  <Rbt.Executable>
rbdock ($Id: //depot/dev/client3/rdock/2013.1/src/exe/rbdock.cxx#4 $)

>  <Rbt.Library>
libRbt.so (2013.1, Build901 2013/11/27)

>  <Rbt.Parameter_File>
/export/apps/rDock/src/rDock_2013.1_src/data/scripts/dock_solv.prm

>  <Rbt.Receptor>
prm/pocket_docking_4.prm

>  <SCORE>
-8.64006

>  <SCORE.INTER>
6.42241

>  <SCORE.INTER.CONST>
1

>  <SCORE.INTER.POLAR>
-0.640698

>  <SCORE.INTER.ROT>
11

>  <SCORE.INTER.SOLV>
7.3942

>  <SCORE.INTER.VDW>
-6.9808

>  <SCORE.INTER.norm>
0.16056

>  <SCORE.INTRA>
-15.07

>  <SCORE.INTRA.DIHEDRAL>
-11.1049

>  <SCORE.INTRA.DIHEDRAL.0>
15.4453

>  <SCORE.INTRA.POLAR>
0

>  <SCORE.INTRA.POLAR.0>
0

>  <SCORE.INTRA.REPUL>
-0.821127

>  <SCORE.INTRA.REPUL.0>
0.823958

>  <SCORE.INTRA.SOLV>
0.478294

>  <SCORE.INTRA.SOLV.lig_0>
-99.3069

>  <SCORE.INTRA.VDW>
-5.65108

>  <SCORE.INTRA.VDW.0>
0.946495

>  <SCORE.INTRA.norm>
-0.376751

>  <SCORE.RESTR>
0.00754839

>  <SCORE.RESTR.CAVITY>
0.00754839

>  <SCORE.RESTR.norm>
0.00018871

>  <SCORE.SYSTEM>
0

>  <SCORE.SYSTEM.CONST>
0

>  <SCORE.SYSTEM.DIHEDRAL>
0

>  <SCORE.SYSTEM.SOLV>
0

>  <SCORE.SYSTEM.norm>
0

>  <SCORE.heavy>
40

>  <SCORE.norm>
-0.216002

>  <RMSD>
7.317

$$$$
1ntb_lig
 OpenBabel11021811403D
libRbt.so/2013.1/901 2013/11/27
 40 42  0  0  0  0  0  0  0  0999 V2000
    2.0237   40.8415    0.6914 C   0  0  0  0  0  0  0  0  0  0  0  0
    2.6205   41.1653   -0.3899 N   0  0  0  0  0  0  0  0  0  0  0  0
    0.4910   32.5827    1.2711 C   0  0  0  0  0  0  0  0  0  0  0  0
    1.2562   33.7675    1.4161 O   0  0  0  0  0  0  0  0  0  0  0  0
   -3.5100   37.8590    1.0142 C   0  0  0  0  0  0  0  0  0  0  0  0
   -3.8281   39.0605    1.3414 N   0  0  0  0  0  0  0  0  0  0  0  0
   -2.3400   33.0482    2.8037 C   0  0  0  0  0  0  0  0  0  0  0  0
   -1.8876   28.9511   -2.8686 C   0  0  0  0  0  0  0  0  0  0  0  0
    0.8793   38.8292    0.2365 C   0  0  2  0  0  0  0  0  0  0  0  0
    1.9944   39.5508    0.9623 N   0  0  0  0  0  0  0  0  0  0  0  0
   -2.1346   34.5852   -0.3508 C   0  0  2  0  0  0  0  0  0  0  0  0
   -0.0599   31.8965   -1.6062 C   0  0  1  0  0  0  0  0  0  0  0  0
   -1.0659   32.8911   -1.5529 O   0  0  0  0  0  0  0  0  0  0  0  0
   -0.2374   38.4400    1.1990 C   0  0  1  0  0  0  0  0  0  0  0  0
   -0.6793   39.7293    1.8110 O   0  0  0  0  0  0  0  0  0  0  0  0
   -0.9074   33.7011   -0.4789 C   0  0  2  0  0  0  0  0  0  0  0  0
   -0.4010   30.9219   -2.7073 C   0  0  1  0  0  0  0  0  0  0  0  0
   -1.6445   30.2952   -2.4274 N   0  0  0  0  0  0  0  0  0  0  0  0
   -1.3742   37.6810    0.5177 C   0  0  2  0  0  0  0  0  0  0  0  0
   -2.4650   37.2907    1.3870 N   0  0  0  0  0  0  0  0  0  0  0  0
   -0.9068   32.9281    0.8132 C   0  0  1  0  0  0  0  0  0  0  0  0
   -1.6854   31.7355    0.6698 O   0  0  0  0  0  0  0  0  0  0  0  0
   -0.4993   31.7012   -4.0079 C   0  0  2  0  0  0  0  0  0  0  0  0
   -0.8273   30.8359   -5.0729 O   0  0  0  0  0  0  0  0  0  0  0  0
   -0.7949   36.4399   -0.1101 C   0  0  1  0  0  0  0  0  0  0  0  0
   -1.8825   35.8765   -0.8948 O   0  0  0  0  0  0  0  0  0  0  0  0
   -1.5615   33.8392    1.7845 C   0  0  1  0  0  0  0  0  0  0  0  0
   -2.4435   34.6837    1.0414 O   0  0  0  0  0  0  0  0  0  0  0  0
    0.8668   32.3451   -4.2458 C   0  0  1  0  0  0  0  0  0  0  0  0
    0.8540   33.1007   -5.4469 O   0  0  0  0  0  0  0  0  0  0  0  0
    0.3098   36.8241   -1.1311 C   0  0  2  0  0  0  0  0  0  0  0  0
    0.8314   35.6431   -1.7203 O   0  0  0  0  0  0  0  0  0  0  0  0
    1.2002   33.2520   -3.0608 C   0  0  1  0  0  0  0  0  0  0  0  0
    1.2118   32.4909   -1.8542 O   0  0  0  0  0  0  0  0  0  0  0  0
    1.4409   37.5756   -0.4030 C   0  0  1  0  0  0  0  0  0  0  0  0
    2.4694   37.9374   -1.3323 O   0  0  0  0  0  0  0  0  0  0  0  0
    2.5804   33.8710   -3.2830 C   0  0  0  0  0  0  0  0  0  0  0  0
    3.5386   32.8343   -3.4230 O   0  0  0  0  0  0  0  0  0  0  0  0
    1.4635   41.7103    1.4576 N   0  0  0  0  0  0  0  0  0  0  0  0
   -4.2985   37.1837    0.3294 N   0  0  0  0  0  0  0  0  0  0  0  0
  1  2  1  0  0  0  0
  1 39  1  0  0  0  0
  3  4  1  0  0  0  0
  5  6  1  0  0  0  0
  5 40  1  0  0  0  0
  9 10  1  1  0  0  0
  9 14  1  0  0  0  0
  9 35  1  0  0  0  0
 10  1  1  0  0  0  0
 11 16  1  0  0  0  0
 11 28  1  0  0  0  0
 11 26  1  1  0  0  0
 12 17  1  0  0  0  0
 12 34  1  0  0  0  0
 12 13  1  6  0  0  0
 14 15  1  6  0  0  0
 14 19  1  0  0  0  0
 16 13  1  6  0  0  0
 16 21  1  0  0  0  0
 17 18  1  1  0  0  0
 17 23  1  0  0  0  0
 18  8  1  0  0  0  0
 19 20  1  1  0  0  0
 19 25  1  0  0  0  0
 20  5  1  0  0  0  0
 21  3  1  1  0  0  0
 21 22  1  0  0  0  0
 21 27  1  0  0  0  0
 23 24  1  6  0  0  0
 23 29  1  0  0  0  0
 25 26  1  6  0  0  0
 25 31  1  0  0  0  0
 27  7  1  1  0  0  0
 27 28  1  0  0  0  0
 29 30  1  6  0  0  0
 29 33  1  0  0  0  0
 31 32  1  1  0  0  0
 31 35  1  0  0  0  0
 33 34  1  0  0  0  0
 33 37  1  6  0  0  0
 35 36  1  6  0  0  0
 37 38  1  0  0  0  0
M  END
>  <CHROM.1>
-107.41375833,-82.60978182,-61.32837005,172.33792204,-170.57751684,-148.90479170
117.20862317,-82.95892580,57.39742709,-118.89051296,-58.32610675,-0.27149186
35.09655352,-0.71894277,-1.53387286,-0.64596826,-2.68652065

>  <Name>
1ntb_lig

>  <RI>
0

>  <Rbt.Current_Directory>
/home/itssahil/PROJECTS/Mol_Feturizer/New_Systems/rnas/1ntb

>  <Rbt.Executable>
rbdock ($Id: //depot/dev/client3/rdock/2013.1/src/exe/rbdock.cxx#4 $)

>  <Rbt.Library>
libRbt.so (2013.1, Build901 2013/11/27)

>  <Rbt.Parameter_File>
/export/apps/rDock/src/rDock_2013.1_src/data/scripts/dock_solv.prm

>  <Rbt.Receptor>
prm/pocket_docking_5.prm

>  <SCORE>
-11.0046

>  <SCORE.INTER>
-1.62613

>  <SCORE.INTER.CONST>
1

>  <SCORE.INTER.POLAR>
-0.753873

>  <SCORE.INTER.ROT>
11

>  <SCORE.INTER.SOLV>
9.55461

>  <SCORE.INTER.VDW>
-12.6894

>  <SCORE.INTER.norm>
-0.0406533

>  <SCORE.INTRA>
-9.37847

>  <SCORE.INTRA.DIHEDRAL>
-3.1622

>  <SCORE.INTRA.DIHEDRAL.0>
15.4453

>  <SCORE.INTRA.POLAR>
0

>  <SCORE.INTRA.POLAR.0>
0

>  <SCORE.INTRA.REPUL>
-0.823252

>  <SCORE.INTRA.REPUL.0>
0.823958

>  <SCORE.INTRA.SOLV>
1.09629

>  <SCORE.INTRA.SOLV.lig_0>
-99.3069

>  <SCORE.INTRA.VDW>
-4.22925

>  <SCORE.INTRA.VDW.0>
0.946495

>  <SCORE.INTRA.norm>
-0.234462

>  <SCORE.RESTR>
0

>  <SCORE.RESTR.CAVITY>
0

>  <SCORE.RESTR.norm>
0

>  <SCORE.SYSTEM>
0

>  <SCORE.SYSTEM.CONST>
0

>  <SCORE.SYSTEM.DIHEDRAL>
0

>  <SCORE.SYSTEM.SOLV>
0

>  <SCORE.SYSTEM.norm>
0

>  <SCORE.heavy>
40

>  <SCORE.norm>
-0.275115

>  <RMSD>
7.343

$$$$
1ntb_lig
 OpenBabel11021811403D
libRbt.so/2013.1/901 2013/11/27
 40 42  0  0  0  0  0  0  0  0999 V2000
   -1.8387   32.8701   -5.5974 C   0  0  0  0  0  0  0  0  0  0  0  0
   -2.6973   33.1582   -6.4974 N   0  0  0  0  0  0  0  0  0  0  0  0
    4.2027   41.6105   -2.4525 C   0  0  0  0  0  0  0  0  0  0  0  0
    5.1981   40.8629   -3.1311 O   0  0  0  0  0  0  0  0  0  0  0  0
    3.0562   34.4073   -2.5094 C   0  0  0  0  0  0  0  0  0  0  0  0
    2.7932   33.3791   -1.7844 N   0  0  0  0  0  0  0  0  0  0  0  0
    1.9446   42.4025   -4.6557 C   0  0  0  0  0  0  0  0  0  0  0  0
    1.4890   41.9606    1.7687 C   0  0  0  0  0  0  0  0  0  0  0  0
   -0.6055   34.6752   -4.7106 C   0  0  2  0  0  0  0  0  0  0  0  0
   -1.7677   33.7137   -4.5857 N   0  0  0  0  0  0  0  0  0  0  0  0
    1.7248   39.0951   -3.4858 C   0  0  2  0  0  0  0  0  0  0  0  0
    3.0505   39.7599   -0.1795 C   0  0  1  0  0  0  0  0  0  0  0  0
    2.1355   39.4461   -1.2131 O   0  0  0  0  0  0  0  0  0  0  0  0
    0.3251   34.5671   -3.5076 C   0  0  1  0  0  0  0  0  0  0  0  0
    0.7530   33.1360   -3.4844 O   0  0  0  0  0  0  0  0  0  0  0  0
    2.6912   39.6144   -2.4368 C   0  0  2  0  0  0  0  0  0  0  0  0
    2.3215   39.7171    1.1416 C   0  0  1  0  0  0  0  0  0  0  0  0
    1.2803   40.6831    1.1485 N   0  0  0  0  0  0  0  0  0  0  0  0
    1.4996   35.5412   -3.5728 C   0  0  2  0  0  0  0  0  0  0  0  0
    2.4186   35.4772   -2.4552 N   0  0  0  0  0  0  0  0  0  0  0  0
    2.8338   41.0701   -2.7942 C   0  0  1  0  0  0  0  0  0  0  0  0
    1.8233   41.8375   -2.1315 O   0  0  0  0  0  0  0  0  0  0  0  0
    1.7332   38.3259    1.3063 C   0  0  2  0  0  0  0  0  0  0  0  0
    1.0295   38.2337    2.5257 O   0  0  0  0  0  0  0  0  0  0  0  0
    0.9417   36.9385   -3.6543 C   0  0  1  0  0  0  0  0  0  0  0  0
    2.0961   37.7868   -3.9070 O   0  0  0  0  0  0  0  0  0  0  0  0
    2.6107   41.1098   -4.2609 C   0  0  1  0  0  0  0  0  0  0  0  0
    1.7671   40.0035   -4.5887 O   0  0  0  0  0  0  0  0  0  0  0  0
    2.9037   37.3425    1.2909 C   0  0  1  0  0  0  0  0  0  0  0  0
    2.4324   36.0117    1.4346 O   0  0  0  0  0  0  0  0  0  0  0  0
    0.0315   37.0777   -4.9043 C   0  0  2  0  0  0  0  0  0  0  0  0
   -0.4714   38.4032   -4.9698 O   0  0  0  0  0  0  0  0  0  0  0  0
    3.6578   37.4904   -0.0310 C   0  0  1  0  0  0  0  0  0  0  0  0
    4.1301   38.8290   -0.1741 O   0  0  0  0  0  0  0  0  0  0  0  0
   -1.1449   36.0887   -4.7937 C   0  0  1  0  0  0  0  0  0  0  0  0
   -1.9953   36.2050   -5.9407 O   0  0  0  0  0  0  0  0  0  0  0  0
    4.8474   36.5301   -0.0335 C   0  0  0  0  0  0  0  0  0  0  0  0
    5.7067   36.8504    1.0489 O   0  0  0  0  0  0  0  0  0  0  0  0
   -1.0724   31.8397   -5.6790 N   0  0  0  0  0  0  0  0  0  0  0  0
    4.0315   34.3773   -3.2804 N   0  0  0  0  0  0  0  0  0  0  0  0
  1  2  1  0  0  0  0
  1 39  1  0  0  0  0
  3  4  1  0  0  0  0
  5  6  1  0  0  0  0
  5 40  1  0  0  0  0
  9 10  1  1  0  0  0
  9 14  1  0  0  0  0
  9 35  1  0  0  0  0
 10  1  1  0  0  0  0
 11 16  1  0  0  0  0
 11 28  1  0  0  0  0
 11 26  1  6  0  0  0
 12 17  1  0  0  0  0
 12 34  1  0  0  0  0
 12 13  1  6  0  0  0
 14 15  1  6  0  0  0
 14 19  1  0  0  0  0
 16 13  1  1  0  0  0
 16 21  1  0  0  0  0
 17 18  1  6  0  0  0
 17 23  1  0  0  0  0
 18  8  1  0  0  0  0
 19 20  1  1  0  0  0
 19 25  1  0  0  0  0
 20  5  1  0  0  0  0
 21  3  1  1  0  0  0
 21 22  1  0  0  0  0
 21 27  1  0  0  0  0
 23 24  1  1  0  0  0
 23 29  1  0  0  0  0
 25 26  1  6  0  0  0
 25 31  1  0  0  0  0
 27  7  1  1  0  0  0
 27 28  1  0  0  0  0
 29 30  1  6  0  0  0
 29 33  1  0  0  0  0
 31 32  1  1  0  0  0
 31 35  1  0  0  0  0
 33 34  1  0  0  0  0
 33 37  1  1  0  0  0
 35 36  1  6  0  0  0
 37 38  1  0  0  0  0
M  END
>  <CHROM.1>
-121.85330662,-100.28758138,122.78514984,173.08067921,172.85166037,-97.97222287
69.96391920,-101.58387895,58.27847866,-158.09732519,-60.09004398,1.71511747
37.50181212,-2.37102293,-2.59497210,-1.02774211,-0.29618173

>  <Name>
1ntb_lig

>  <RI>
0

>  <Rbt.Current_Directory>
/home/itssahil/PROJECTS/Mol_Feturizer/New_Systems/rnas/1ntb

>  <Rbt.Executable>
rbdock ($Id: //depot/dev/client3/rdock/2013.1/src/exe/rbdock.cxx#4 $)

>  <Rbt.Library>
libRbt.so (2013.1, Build901 2013/11/27)

>  <Rbt.Parameter_File>
/export/apps/rDock/src/rDock_2013.1_src/data/scripts/dock_solv.prm

>  <Rbt.Receptor>
prm/pocket_docking_7.prm

>  <SCORE>
-16.9988

>  <SCORE.INTER>
-6.09294

>  <SCORE.INTER.CONST>
1

>  <SCORE.INTER.POLAR>
-0.913018

>  <SCORE.INTER.ROT>
11

>  <SCORE.INTER.SOLV>
16.1143

>  <SCORE.INTER.VDW>
-17.3233

>  <SCORE.INTER.norm>
-0.152323

>  <SCORE.INTRA>
-10.9059

>  <SCORE.INTRA.DIHEDRAL>
-2.41183

>  <SCORE.INTRA.DIHEDRAL.0>
15.4453

>  <SCORE.INTRA.POLAR>
0

>  <SCORE.INTRA.POLAR.0>
0

>  <SCORE.INTRA.REPUL>
-0.823958

>  <SCORE.INTRA.REPUL.0>
0.823958

>  <SCORE.INTRA.SOLV>
-0.237837

>  <SCORE.INTRA.SOLV.lig_0>
-99.3069

>  <SCORE.INTRA.VDW>
-5.46128

>  <SCORE.INTRA.VDW.0>
0.946495

>  <SCORE.INTRA.norm>
-0.272648

>  <SCORE.RESTR>
0

>  <SCORE.RESTR.CAVITY>
0

>  <SCORE.RESTR.norm>
0

>  <SCORE.SYSTEM>
0

>  <SCORE.SYSTEM.CONST>
0

>  <SCORE.SYSTEM.DIHEDRAL>
0

>  <SCORE.SYSTEM.SOLV>
0

>  <SCORE.SYSTEM.norm>
0

>  <SCORE.heavy>
40

>  <SCORE.norm>
-0.424971

>  <RMSD>
7.355

$$$$
1ntb_lig
 OpenBabel11021811403D
libRbt.so/2013.1/901 2013/11/27
 40 42  0  0  0  0  0  0  0  0999 V2000
   -1.9158   30.1513   -3.1834 C   0  0  0  0  0  0  0  0  0  0  0  0
   -3.0684   29.6086   -3.2679 N   0  0  0  0  0  0  0  0  0  0  0  0
    0.1170   39.6742    1.9929 C   0  0  0  0  0  0  0  0  0  0  0  0
   -0.5034   40.3001    3.1036 O   0  0  0  0  0  0  0  0  0  0  0  0
    2.4358   34.5481   -2.2387 C   0  0  0  0  0  0  0  0  0  0  0  0
    3.1955   33.9152   -3.0599 N   0  0  0  0  0  0  0  0  0  0  0  0
   -1.8044   37.5759    3.5693 C   0  0  0  0  0  0  0  0  0  0  0  0
    1.6317   39.0406   -1.9215 C   0  0  0  0  0  0  0  0  0  0  0  0
   -1.2606   31.9914   -1.8603 C   0  0  2  0  0  0  0  0  0  0  0  0
   -1.5407   30.5080   -1.9700 N   0  0  0  0  0  0  0  0  0  0  0  0
    0.1136   36.1311    1.0024 C   0  0  2  0  0  0  0  0  0  0  0  0
    2.9002   37.0099    0.1762 C   0  0  1  0  0  0  0  0  0  0  0  0
    2.1448   37.2303    1.3531 O   0  0  0  0  0  0  0  0  0  0  0  0
    0.2198   32.2507   -1.6034 C   0  0  1  0  0  0  0  0  0  0  0  0
    0.9242   31.6085   -2.7537 O   0  0  0  0  0  0  0  0  0  0  0  0
    0.8405   37.4618    1.0703 C   0  0  2  0  0  0  0  0  0  0  0  0
    3.3968   38.3400   -0.3362 C   0  0  1  0  0  0  0  0  0  0  0  0
    2.2933   39.1756   -0.6549 N   0  0  0  0  0  0  0  0  0  0  0  0
    0.5481   33.7348   -1.4545 C   0  0  2  0  0  0  0  0  0  0  0  0
    1.9437   34.0379   -1.2133 N   0  0  0  0  0  0  0  0  0  0  0  0
    0.1398   38.1771    2.1949 C   0  0  1  0  0  0  0  0  0  0  0  0
    0.7663   37.8592    3.4421 O   0  0  0  0  0  0  0  0  0  0  0  0
    4.2285   38.9829    0.7610 C   0  0  2  0  0  0  0  0  0  0  0  0
    4.7112   40.2388    0.3364 O   0  0  0  0  0  0  0  0  0  0  0  0
   -0.2649   34.2789   -0.3087 C   0  0  1  0  0  0  0  0  0  0  0  0
   -0.0514   35.7173   -0.3498 O   0  0  0  0  0  0  0  0  0  0  0  0
   -1.2391   37.6288    2.1736 C   0  0  1  0  0  0  0  0  0  0  0  0
   -1.1599   36.3107    1.6264 O   0  0  0  0  0  0  0  0  0  0  0  0
    5.3924   38.0350    1.0512 C   0  0  1  0  0  0  0  0  0  0  0  0
    6.2174   38.5658    2.0765 O   0  0  0  0  0  0  0  0  0  0  0  0
   -1.7787   34.0671   -0.5804 C   0  0  2  0  0  0  0  0  0  0  0  0
   -2.5259   34.5987    0.5028 O   0  0  0  0  0  0  0  0  0  0  0  0
    4.8317   36.6789    1.4805 C   0  0  1  0  0  0  0  0  0  0  0  0
    4.0019   36.1472    0.4489 O   0  0  0  0  0  0  0  0  0  0  0  0
   -2.0693   32.5596   -0.7118 C   0  0  1  0  0  0  0  0  0  0  0  0
   -3.4636   32.3471   -0.9628 O   0  0  0  0  0  0  0  0  0  0  0  0
    5.9947   35.7209    1.7397 C   0  0  0  0  0  0  0  0  0  0  0  0
    6.6707   35.4681    0.5184 O   0  0  0  0  0  0  0  0  0  0  0  0
   -1.1749   30.3624   -4.2140 N   0  0  0  0  0  0  0  0  0  0  0  0
    2.2052   35.7556   -2.4271 N   0  0  0  0  0  0  0  0  0  0  0  0
  1  2  1  0  0  0  0
  1 39  1  0  0  0  0
  3  4  1  0  0  0  0
  5  6  1  0  0  0  0
  5 40  1  0  0  0  0
  9 10  1  1  0  0  0
  9 14  1  0  0  0  0
  9 35  1  0  0  0  0
 10  1  1  0  0  0  0
 11 16  1  0  0  0  0
 11 28  1  0  0  0  0
 11 26  1  6  0  0  0
 12 17  1  0  0  0  0
 12 34  1  0  0  0  0
 12 13  1  1  0  0  0
 14 15  1  6  0  0  0
 14 19  1  0  0  0  0
 16 13  1  1  0  0  0
 16 21  1  0  0  0  0
 17 18  1  1  0  0  0
 17 23  1  0  0  0  0
 18  8  1  0  0  0  0
 19 20  1  1  0  0  0
 19 25  1  0  0  0  0
 20  5  1  0  0  0  0
 21  3  1  6  0  0  0
 21 22  1  0  0  0  0
 21 27  1  0  0  0  0
 23 24  1  6  0  0  0
 23 29  1  0  0  0  0
 25 26  1  6  0  0  0
 25 31  1  0  0  0  0
 27  7  1  1  0  0  0
 27 28  1  0  0  0  0
 29 30  1  1  0  0  0
 29 33  1  0  0  0  0
 31 32  1  1  0  0  0
 31 35  1  0  0  0  0
 33 34  1  0  0  0  0
 33 37  1  6  0  0  0
 35 36  1  6  0  0  0
 37 38  1  0  0  0  0
M  END
>  <CHROM.1>
-113.18233700,-120.47920033,158.77793090,88.55085759,87.67158507,-82.60895241
107.86428370,-103.02350626,-177.60204675,-138.32595438,-65.89942721,1.11830760
35.63804047,-0.07361966,-2.15580986,0.20899554,0.61340340

>  <Name>
1ntb_lig

>  <RI>
0

>  <Rbt.Current_Directory>
/home/itssahil/PROJECTS/Mol_Feturizer/New_Systems/rnas/1ntb

>  <Rbt.Executable>
rbdock ($Id: //depot/dev/client3/rdock/2013.1/src/exe/rbdock.cxx#4 $)

>  <Rbt.Library>
libRbt.so (2013.1, Build901 2013/11/27)

>  <Rbt.Parameter_File>
/export/apps/rDock/src/rDock_2013.1_src/data/scripts/dock_solv.prm

>  <Rbt.Receptor>
prm/pocket_docking_4.prm

>  <SCORE>
-9.91603

>  <SCORE.INTER>
-2.04273

>  <SCORE.INTER.CONST>
1

>  <SCORE.INTER.POLAR>
-0.588175

>  <SCORE.INTER.ROT>
11

>  <SCORE.INTER.SOLV>
18.1113

>  <SCORE.INTER.VDW>
-16.3717

>  <SCORE.INTER.norm>
-0.0510683

>  <SCORE.INTRA>
-7.8733

>  <SCORE.INTRA.DIHEDRAL>
2.41776

>  <SCORE.INTRA.DIHEDRAL.0>
15.4453

>  <SCORE.INTRA.POLAR>
0

>  <SCORE.INTRA.POLAR.0>
0

>  <SCORE.INTRA.REPUL>
-0.669511

>  <SCORE.INTRA.REPUL.0>
0.823958

>  <SCORE.INTRA.SOLV>
2.00142

>  <SCORE.INTRA.SOLV.lig_0>
-99.3069

>  <SCORE.INTRA.VDW>
-6.73533

>  <SCORE.INTRA.VDW.0>
0.946495

>  <SCORE.INTRA.norm>
-0.196832

>  <SCORE.RESTR>
0

>  <SCORE.RESTR.CAVITY>
0

>  <SCORE.RESTR.norm>
0

>  <SCORE.SYSTEM>
0

>  <SCORE.SYSTEM.CONST>
0

>  <SCORE.SYSTEM.DIHEDRAL>
0

>  <SCORE.SYSTEM.SOLV>
0

>  <SCORE.SYSTEM.norm>
0

>  <SCORE.heavy>
40

>  <SCORE.norm>
-0.247901

>  <RMSD>
7.382

$$$$
1ntb_lig
 OpenBabel11021811403D
libRbt.so/2013.1/901 2013/11/27
 40 42  0  0  0  0  0  0  0  0999 V2000
   -2.7136   39.8133   -6.0649 C   0  0  0  0  0  0  0  0  0  0  0  0
   -1.9791   40.6244   -6.7229 N   0  0  0  0  0  0  0  0  0  0  0  0
    2.2448   32.4589   -0.3153 C   0  0  0  0  0  0  0  0  0  0  0  0
    1.6008   32.9143    0.8629 O   0  0  0  0  0  0  0  0  0  0  0  0
   -1.7512   33.6943   -4.9895 C   0  0  0  0  0  0  0  0  0  0  0  0
   -0.7913   32.9265   -5.3652 N   0  0  0  0  0  0  0  0  0  0  0  0
    4.9086   33.1208   -2.0607 C   0  0  0  0  0  0  0  0  0  0  0  0
   -1.6861   32.7872   -1.0747 C   0  0  0  0  0  0  0  0  0  0  0  0
   -1.3111   38.2308   -5.0187 C   0  0  2  0  0  0  0  0  0  0  0  0
   -2.2328   39.4254   -4.8993 N   0  0  0  0  0  0  0  0  0  0  0  0
    2.0630   34.9494   -3.0170 C   0  0  2  0  0  0  0  0  0  0  0  0
   -0.1956   35.7410   -0.9748 C   0  0  1  0  0  0  0  0  0  0  0  0
    1.1912   35.4637   -0.9116 O   0  0  0  0  0  0  0  0  0  0  0  0
   -1.9777   36.9700   -4.4791 C   0  0  1  0  0  0  0  0  0  0  0  0
   -3.2269   36.8248   -5.2855 O   0  0  0  0  0  0  0  0  0  0  0  0
    1.5249   34.4155   -1.7019 C   0  0  2  0  0  0  0  0  0  0  0  0
   -0.9105   34.8636    0.0239 C   0  0  1  0  0  0  0  0  0  0  0  0
   -0.7057   33.4966   -0.3029 N   0  0  0  0  0  0  0  0  0  0  0  0
   -1.0740   35.7408   -4.5501 C   0  0  2  0  0  0  0  0  0  0  0  0
   -1.6605   34.5130   -4.0538 N   0  0  0  0  0  0  0  0  0  0  0  0
    2.6896   33.6402   -1.1456 C   0  0  1  0  0  0  0  0  0  0  0  0
    3.5233   34.5032   -0.3650 O   0  0  0  0  0  0  0  0  0  0  0  0
   -0.3346   35.1553    1.3994 C   0  0  2  0  0  0  0  0  0  0  0  0
   -0.9634   34.3512    2.3734 O   0  0  0  0  0  0  0  0  0  0  0  0
    0.1717   36.0321   -3.7543 C   0  0  1  0  0  0  0  0  0  0  0  0
    1.0575   34.9102   -4.0241 O   0  0  0  0  0  0  0  0  0  0  0  0
    3.4305   33.1814   -2.3470 C   0  0  1  0  0  0  0  0  0  0  0  0
    3.1710   34.1259   -3.3880 O   0  0  0  0  0  0  0  0  0  0  0  0
   -0.5899   36.6354    1.6846 C   0  0  1  0  0  0  0  0  0  0  0  0
   -0.0720   36.9894    2.9575 O   0  0  0  0  0  0  0  0  0  0  0  0
    0.8888   37.2852   -4.3250 C   0  0  2  0  0  0  0  0  0  0  0  0
    2.0654   37.5332   -3.5711 O   0  0  0  0  0  0  0  0  0  0  0  0
    0.0814   37.4728    0.5955 C   0  0  1  0  0  0  0  0  0  0  0  0
   -0.4397   37.1150   -0.6835 O   0  0  0  0  0  0  0  0  0  0  0  0
   -0.0500   38.5028   -4.2240 C   0  0  1  0  0  0  0  0  0  0  0  0
    0.5977   39.6687   -4.7470 O   0  0  0  0  0  0  0  0  0  0  0  0
   -0.2008   38.9516    0.8622 C   0  0  0  0  0  0  0  0  0  0  0  0
    0.5162   39.3617    2.0155 O   0  0  0  0  0  0  0  0  0  0  0  0
   -3.8380   39.3793   -6.5155 N   0  0  0  0  0  0  0  0  0  0  0  0
   -2.8271   33.6764   -5.6131 N   0  0  0  0  0  0  0  0  0  0  0  0
  1  2  1  0  0  0  0
  1 39  1  0  0  0  0
  3  4  1  0  0  0  0
  5  6  1  0  0  0  0
  5 40  1  0  0  0  0
  9 10  1  1  0  0  0
  9 14  1  0  0  0  0
  9 35  1  0  0  0  0
 10  1  1  0  0  0  0
 11 16  1  0  0  0  0
 11 28  1  0  0  0  0
 11 26  1  6  0  0  0
 12 17  1  0  0  0  0
 12 34  1  0  0  0  0
 12 13  1  1  0  0  0
 14 15  1  6  0  0  0
 14 19  1  0  0  0  0
 16 13  1  1  0  0  0
 16 21  1  0  0  0  0
 17 18  1  6  0  0  0
 17 23  1  0  0  0  0
 18  8  1  0  0  0  0
 19 20  1  1  0  0  0
 19 25  1  0  0  0  0
 20  5  1  0  0  0  0
 21  3  1  1  0  0  0
 21 22  1  0  0  0  0
 21 27  1  0  0  0  0
 23 24  1  1  0  0  0
 23 29  1  0  0  0  0
 25 26  1  6  0  0  0
 25 31  1  0  0  0  0
 27  7  1  1  0  0  0
 27 28  1  0  0  0  0
 29 30  1  1  0  0  0
 29 33  1  0  0  0  0
 31 32  1  1  0  0  0
 31 35  1  0  0  0  0
 33 34  1  0  0  0  0
 33 37  1  1  0  0  0
 35 36  1  6  0  0  0
 37 38  1  0  0  0  0
M  END
>  <CHROM.1>
-107.46972982,-86.15708629,76.93453670,85.78876498,97.96001326,-96.01075177
116.42404851,84.17415493,-67.16805212,-163.80814338,70.02075335,0.03765604
35.93581748,-2.28992723,2.58581562,1.04238136,-1.94584102

>  <Name>
1ntb_lig

>  <RI>
0

>  <Rbt.Current_Directory>
/home/itssahil/PROJECTS/Mol_Feturizer/New_Systems/rnas/1ntb

>  <Rbt.Executable>
rbdock ($Id: //depot/dev/client3/rdock/2013.1/src/exe/rbdock.cxx#4 $)

>  <Rbt.Library>
libRbt.so (2013.1, Build901 2013/11/27)

>  <Rbt.Parameter_File>
/export/apps/rDock/src/rDock_2013.1_src/data/scripts/dock_solv.prm

>  <Rbt.Receptor>
prm/pocket_docking_7.prm

>  <SCORE>
-9.7435

>  <SCORE.INTER>
0.162826

>  <SCORE.INTER.CONST>
1

>  <SCORE.INTER.POLAR>
-0.71948

>  <SCORE.INTER.ROT>
11

>  <SCORE.INTER.SOLV>
7.09647

>  <SCORE.INTER.VDW>
-10.792

>  <SCORE.INTER.norm>
0.00407065

>  <SCORE.INTRA>
-9.90633

>  <SCORE.INTRA.DIHEDRAL>
-0.266563

>  <SCORE.INTRA.DIHEDRAL.0>
15.4453

>  <SCORE.INTRA.POLAR>
0

>  <SCORE.INTRA.POLAR.0>
0

>  <SCORE.INTRA.REPUL>
-0.823958

>  <SCORE.INTRA.REPUL.0>
0.823958

>  <SCORE.INTRA.SOLV>
0.966806

>  <SCORE.INTRA.SOLV.lig_0>
-99.3069

>  <SCORE.INTRA.VDW>
-6.13666

>  <SCORE.INTRA.VDW.0>
0.946495

>  <SCORE.INTRA.norm>
-0.247658

>  <SCORE.RESTR>
0

>  <SCORE.RESTR.CAVITY>
0

>  <SCORE.RESTR.norm>
0

>  <SCORE.SYSTEM>
0

>  <SCORE.SYSTEM.CONST>
0

>  <SCORE.SYSTEM.DIHEDRAL>
0

>  <SCORE.SYSTEM.SOLV>
0

>  <SCORE.SYSTEM.norm>
0

>  <SCORE.heavy>
40

>  <SCORE.norm>
-0.243588

>  <RMSD>
7.382

$$$$
1ntb_lig
 OpenBabel11021811403D
libRbt.so/2013.1/901 2013/11/27
 40 42  0  0  0  0  0  0  0  0999 V2000
    0.3527   38.9264   -6.1933 C   0  0  0  0  0  0  0  0  0  0  0  0
   -0.5210   39.2772   -7.0557 N   0  0  0  0  0  0  0  0  0  0  0  0
   -1.7227   31.8715    1.4178 C   0  0  0  0  0  0  0  0  0  0  0  0
   -0.9212   32.7184    2.2245 O   0  0  0  0  0  0  0  0  0  0  0  0
    1.1744   36.9233   -0.1239 C   0  0  0  0  0  0  0  0  0  0  0  0
    2.0547   37.8598   -0.1371 N   0  0  0  0  0  0  0  0  0  0  0  0
   -4.6842   33.2011    1.6207 C   0  0  0  0  0  0  0  0  0  0  0  0
   -2.0742   28.8140   -2.6724 C   0  0  0  0  0  0  0  0  0  0  0  0
   -0.3214   37.5456   -4.4031 C   0  0  2  0  0  0  0  0  0  0  0  0
    0.2812   37.6738   -5.7857 N   0  0  0  0  0  0  0  0  0  0  0  0
   -2.5638   34.7459   -0.7187 C   0  0  2  0  0  0  0  0  0  0  0  0
   -0.5434   31.8815   -1.5882 C   0  0  1  0  0  0  0  0  0  0  0  0
   -1.5668   32.8567   -1.6643 O   0  0  0  0  0  0  0  0  0  0  0  0
    0.6665   36.9061   -3.4335 C   0  0  1  0  0  0  0  0  0  0  0  0
    1.8642   37.7984   -3.4664 O   0  0  0  0  0  0  0  0  0  0  0  0
   -1.7285   33.5005   -0.4836 C   0  0  2  0  0  0  0  0  0  0  0  0
   -0.7331   30.8923   -2.7125 C   0  0  1  0  0  0  0  0  0  0  0  0
   -1.9892   30.2436   -2.5761 N   0  0  0  0  0  0  0  0  0  0  0  0
    0.0927   36.7272   -2.0294 C   0  0  2  0  0  0  0  0  0  0  0  0
    0.9924   36.1274   -1.0659 N   0  0  0  0  0  0  0  0  0  0  0  0
   -2.5665   32.7040    0.4811 C   0  0  1  0  0  0  0  0  0  0  0  0
   -3.4754   31.8644   -0.2386 O   0  0  0  0  0  0  0  0  0  0  0  0
   -0.6905   31.6600   -4.0231 C   0  0  2  0  0  0  0  0  0  0  0  0
   -0.8736   30.7806   -5.1111 O   0  0  0  0  0  0  0  0  0  0  0  0
   -1.1385   35.8652   -2.1359 C   0  0  1  0  0  0  0  0  0  0  0  0
   -1.7330   35.8985   -0.8086 O   0  0  0  0  0  0  0  0  0  0  0  0
   -3.3259   33.7297    1.2386 C   0  0  1  0  0  0  0  0  0  0  0  0
   -3.4650   34.8672    0.3843 O   0  0  0  0  0  0  0  0  0  0  0  0
    0.6820   32.3287   -4.1034 C   0  0  1  0  0  0  0  0  0  0  0  0
    0.7980   33.0749   -5.3048 O   0  0  0  0  0  0  0  0  0  0  0  0
   -2.1751   36.5296   -3.0815 C   0  0  2  0  0  0  0  0  0  0  0  0
   -3.3310   35.7096   -3.1564 O   0  0  0  0  0  0  0  0  0  0  0  0
    0.8553   33.2507   -2.8961 C   0  0  1  0  0  0  0  0  0  0  0  0
    0.7376   32.4989   -1.6893 O   0  0  0  0  0  0  0  0  0  0  0  0
   -1.5627   36.6807   -4.4873 C   0  0  1  0  0  0  0  0  0  0  0  0
   -2.5078   37.2928   -5.3729 O   0  0  0  0  0  0  0  0  0  0  0  0
    2.2405   33.8949   -2.9588 C   0  0  0  0  0  0  0  0  0  0  0  0
    3.2296   32.8831   -2.8568 O   0  0  0  0  0  0  0  0  0  0  0  0
    1.2318   39.7435   -5.7295 N   0  0  0  0  0  0  0  0  0  0  0  0
    0.4869   36.7462    0.8972 N   0  0  0  0  0  0  0  0  0  0  0  0
  1  2  1  0  0  0  0
  1 39  1  0  0  0  0
  3  4  1  0  0  0  0
  5  6  1  0  0  0  0
  5 40  1  0  0  0  0
  9 10  1  6  0  0  0
  9 14  1  0  0  0  0
  9 35  1  0  0  0  0
 10  1  1  0  0  0  0
 11 16  1  0  0  0  0
 11 28  1  0  0  0  0
 11 26  1  1  0  0  0
 12 17  1  0  0  0  0
 12 34  1  0  0  0  0
 12 13  1  6  0  0  0
 14 15  1  1  0  0  0
 14 19  1  0  0  0  0
 16 13  1  6  0  0  0
 16 21  1  0  0  0  0
 17 18  1  1  0  0  0
 17 23  1  0  0  0  0
 18  8  1  0  0  0  0
 19 20  1  1  0  0  0
 19 25  1  0  0  0  0
 20  5  1  0  0  0  0
 21  3  1  1  0  0  0
 21 22  1  0  0  0  0
 21 27  1  0  0  0  0
 23 24  1  6  0  0  0
 23 29  1  0  0  0  0
 25 26  1  1  0  0  0
 25 31  1  0  0  0  0
 27  7  1  6  0  0  0
 27 28  1  0  0  0  0
 29 30  1  6  0  0  0
 29 33  1  0  0  0  0
 31 32  1  6  0  0  0
 31 35  1  0  0  0  0
 33 34  1  0  0  0  0
 33 37  1  6  0  0  0
 35 36  1  6  0  0  0
 37 38  1  0  0  0  0
M  END
>  <CHROM.1>
-119.30354856,-104.01376870,77.12805558,160.01754425,165.65617493,-131.56976444
119.81489908,-85.13186818,63.08186063,-158.57362281,-63.35573440,-0.72513288
34.57351910,-2.28881216,-0.67369674,-1.16040578,-2.90639830

>  <Name>
1ntb_lig

>  <RI>
0

>  <Rbt.Current_Directory>
/home/itssahil/PROJECTS/Mol_Feturizer/New_Systems/rnas/1ntb

>  <Rbt.Executable>
rbdock ($Id: //depot/dev/client3/rdock/2013.1/src/exe/rbdock.cxx#4 $)

>  <Rbt.Library>
libRbt.so (2013.1, Build901 2013/11/27)

>  <Rbt.Parameter_File>
/export/apps/rDock/src/rDock_2013.1_src/data/scripts/dock_solv.prm

>  <Rbt.Receptor>
prm/pocket_docking_8.prm

>  <SCORE>
-16.7501

>  <SCORE.INTER>
-2.06077

>  <SCORE.INTER.CONST>
1

>  <SCORE.INTER.POLAR>
-0.728058

>  <SCORE.INTER.ROT>
11

>  <SCORE.INTER.SOLV>
9.80594

>  <SCORE.INTER.VDW>
-13.149

>  <SCORE.INTER.norm>
-0.0515192

>  <SCORE.INTRA>
-14.6893

>  <SCORE.INTRA.DIHEDRAL>
-4.39929

>  <SCORE.INTRA.DIHEDRAL.0>
15.4453

>  <SCORE.INTRA.POLAR>
0

>  <SCORE.INTRA.POLAR.0>
0

>  <SCORE.INTRA.REPUL>
-0.823958

>  <SCORE.INTRA.REPUL.0>
0.823958

>  <SCORE.INTRA.SOLV>
-0.681995

>  <SCORE.INTRA.SOLV.lig_0>
-99.3069

>  <SCORE.INTRA.VDW>
-8.02885

>  <SCORE.INTRA.VDW.0>
0.946495

>  <SCORE.INTRA.norm>
-0.367232

>  <SCORE.RESTR>
0

>  <SCORE.RESTR.CAVITY>
0

>  <SCORE.RESTR.norm>
0

>  <SCORE.SYSTEM>
0

>  <SCORE.SYSTEM.CONST>
0

>  <SCORE.SYSTEM.DIHEDRAL>
0

>  <SCORE.SYSTEM.SOLV>
0

>  <SCORE.SYSTEM.norm>
0

>  <SCORE.heavy>
40

>  <SCORE.norm>
-0.418751

>  <RMSD>
7.403

$$$$
1ntb_lig
 OpenBabel11021811403D
libRbt.so/2013.1/901 2013/11/27
 40 42  0  0  0  0  0  0  0  0999 V2000
   -0.2478   38.6828    4.6962 C   0  0  0  0  0  0  0  0  0  0  0  0
   -0.6688   38.0351    5.7127 N   0  0  0  0  0  0  0  0  0  0  0  0
    0.3519   33.1407   -4.8102 C   0  0  0  0  0  0  0  0  0  0  0  0
   -0.4035   32.0035   -5.1929 O   0  0  0  0  0  0  0  0  0  0  0  0
   -1.0021   33.1696    2.2419 C   0  0  0  0  0  0  0  0  0  0  0  0
   -0.6969   32.6475    3.3760 N   0  0  0  0  0  0  0  0  0  0  0  0
    3.0947   33.4342   -3.0864 C   0  0  0  0  0  0  0  0  0  0  0  0
   -2.1806   28.3680   -2.9344 C   0  0  0  0  0  0  0  0  0  0  0  0
   -0.0398   37.3794    2.7407 C   0  0  2  0  0  0  0  0  0  0  0  0
    0.6169   38.0447    3.9311 N   0  0  0  0  0  0  0  0  0  0  0  0
    0.1622   34.0711   -1.2559 C   0  0  2  0  0  0  0  0  0  0  0  0
   -2.1407   31.9655   -3.0590 C   0  0  1  0  0  0  0  0  0  0  0  0
   -1.2014   32.3610   -2.0764 O   0  0  0  0  0  0  0  0  0  0  0  0
    0.2224   35.8773    2.7405 C   0  0  1  0  0  0  0  0  0  0  0  0
   -0.3173   35.3962    4.0478 O   0  0  0  0  0  0  0  0  0  0  0  0
   -0.4939   33.4458   -2.4734 C   0  0  2  0  0  0  0  0  0  0  0  0
   -2.8498   30.7227   -2.5780 C   0  0  1  0  0  0  0  0  0  0  0  0
   -1.9112   29.6720   -2.3984 N   0  0  0  0  0  0  0  0  0  0  0  0
   -0.3959   35.1644    1.5397 C   0  0  2  0  0  0  0  0  0  0  0  0
   -0.1804   33.7329    1.4925 N   0  0  0  0  0  0  0  0  0  0  0  0
    0.6796   33.0664   -3.3371 C   0  0  1  0  0  0  0  0  0  0  0  0
    1.1296   31.7500   -2.9999 O   0  0  0  0  0  0  0  0  0  0  0  0
   -3.5169   31.0484   -1.2522 C   0  0  2  0  0  0  0  0  0  0  0  0
   -4.1887   29.9134   -0.7511 O   0  0  0  0  0  0  0  0  0  0  0  0
    0.1785   35.7763    0.2884 C   0  0  1  0  0  0  0  0  0  0  0  0
   -0.5895   35.1907   -0.7996 O   0  0  0  0  0  0  0  0  0  0  0  0
    1.7267   34.0581   -2.9870 C   0  0  1  0  0  0  0  0  0  0  0  0
    1.4761   34.4790   -1.6442 O   0  0  0  0  0  0  0  0  0  0  0  0
   -4.5093   32.1804   -1.5190 C   0  0  1  0  0  0  0  0  0  0  0  0
   -5.1729   32.5480   -0.3197 O   0  0  0  0  0  0  0  0  0  0  0  0
   -0.1254   37.2983    0.2505 C   0  0  2  0  0  0  0  0  0  0  0  0
    0.4110   37.8516   -0.9412 O   0  0  0  0  0  0  0  0  0  0  0  0
   -3.7508   33.3807   -2.0862 C   0  0  1  0  0  0  0  0  0  0  0  0
   -3.0837   33.0091   -3.2913 O   0  0  0  0  0  0  0  0  0  0  0  0
    0.5245   37.9807    1.4696 C   0  0  1  0  0  0  0  0  0  0  0  0
    0.2532   39.3872    1.4493 O   0  0  0  0  0  0  0  0  0  0  0  0
   -4.7472   34.5016   -2.3834 C   0  0  0  0  0  0  0  0  0  0  0  0
   -4.0523   35.6077   -2.9367 O   0  0  0  0  0  0  0  0  0  0  0  0
   -0.6194   39.8885    4.4434 N   0  0  0  0  0  0  0  0  0  0  0  0
   -2.1683   33.0747    1.8202 N   0  0  0  0  0  0  0  0  0  0  0  0
  1  2  1  0  0  0  0
  1 39  1  0  0  0  0
  3  4  1  0  0  0  0
  5  6  1  0  0  0  0
  5 40  1  0  0  0  0
  9 10  1  1  0  0  0
  9 14  1  0  0  0  0
  9 35  1  0  0  0  0
 10  1  1  0  0  0  0
 11 16  1  0  0  0  0
 11 28  1  0  0  0  0
 11 26  1  6  0  0  0
 12 17  1  0  0  0  0
 12 34  1  0  0  0  0
 12 13  1  1  0  0  0
 14 15  1  1  0  0  0
 14 19  1  0  0  0  0
 16 13  1  1  0  0  0
 16 21  1  0  0  0  0
 17 18  1  1  0  0  0
 17 23  1  0  0  0  0
 18  8  1  0  0  0  0
 19 20  1  1  0  0  0
 19 25  1  0  0  0  0
 20  5  1  0  0  0  0
 21  3  1  6  0  0  0
 21 22  1  0  0  0  0
 21 27  1  0  0  0  0
 23 24  1  6  0  0  0
 23 29  1  0  0  0  0
 25 26  1  6  0  0  0
 25 31  1  0  0  0  0
 27  7  1  1  0  0  0
 27 28  1  0  0  0  0
 29 30  1  1  0  0  0
 29 33  1  0  0  0  0
 31 32  1  6  0  0  0
 31 35  1  0  0  0  0
 33 34  1  0  0  0  0
 33 37  1  6  0  0  0
 35 36  1  1  0  0  0
 37 38  1  0  0  0  0
M  END
>  <CHROM.1>
-121.59893071,96.47686993,-175.36496381,177.64647444,162.63770869,-132.23611310
80.88934717,-106.65381619,-77.63039333,-94.74819794,-178.76528542,-1.02390047
34.21232780,-0.41790431,1.28912598,0.65559579,0.95410071

>  <Name>
1ntb_lig

>  <RI>
0

>  <Rbt.Current_Directory>
/home/itssahil/PROJECTS/Mol_Feturizer/New_Systems/rnas/1ntb

>  <Rbt.Executable>
rbdock ($Id: //depot/dev/client3/rdock/2013.1/src/exe/rbdock.cxx#4 $)

>  <Rbt.Library>
libRbt.so (2013.1, Build901 2013/11/27)

>  <Rbt.Parameter_File>
/export/apps/rDock/src/rDock_2013.1_src/data/scripts/dock_solv.prm

>  <Rbt.Receptor>
prm/pocket_docking_8.prm

>  <SCORE>
-9.2938

>  <SCORE.INTER>
3.03974

>  <SCORE.INTER.CONST>
1

>  <SCORE.INTER.POLAR>
-0.365972

>  <SCORE.INTER.ROT>
11

>  <SCORE.INTER.SOLV>
9.68513

>  <SCORE.INTER.VDW>
-10.9153

>  <SCORE.INTER.norm>
0.0759936

>  <SCORE.INTRA>
-12.3335

>  <SCORE.INTRA.DIHEDRAL>
-4.98138

>  <SCORE.INTRA.DIHEDRAL.0>
15.4453

>  <SCORE.INTRA.POLAR>
0

>  <SCORE.INTRA.POLAR.0>
0

>  <SCORE.INTRA.REPUL>
-0.823958

>  <SCORE.INTRA.REPUL.0>
0.823958

>  <SCORE.INTRA.SOLV>
-0.464613

>  <SCORE.INTRA.SOLV.lig_0>
-99.3069

>  <SCORE.INTRA.VDW>
-5.49075

>  <SCORE.INTRA.VDW.0>
0.946495

>  <SCORE.INTRA.norm>
-0.308339

>  <SCORE.RESTR>
0

>  <SCORE.RESTR.CAVITY>
0

>  <SCORE.RESTR.norm>
0

>  <SCORE.SYSTEM>
0

>  <SCORE.SYSTEM.CONST>
0

>  <SCORE.SYSTEM.DIHEDRAL>
0

>  <SCORE.SYSTEM.SOLV>
0

>  <SCORE.SYSTEM.norm>
0

>  <SCORE.heavy>
40

>  <SCORE.norm>
-0.232345

>  <RMSD>
7.463

$$$$
1ntb_lig
 OpenBabel11021811403D
libRbt.so/2013.1/901 2013/11/27
 40 42  0  0  0  0  0  0  0  0999 V2000
   -3.4701   27.7547   -0.5557 C   0  0  0  0  0  0  0  0  0  0  0  0
   -2.8332   26.8350   -1.1710 N   0  0  0  0  0  0  0  0  0  0  0  0
    0.9444   37.4570   -3.6322 C   0  0  0  0  0  0  0  0  0  0  0  0
    2.0440   36.5923   -3.4007 O   0  0  0  0  0  0  0  0  0  0  0  0
   -3.3695   33.9111    0.4412 C   0  0  0  0  0  0  0  0  0  0  0  0
   -2.4535   33.9417    1.3425 N   0  0  0  0  0  0  0  0  0  0  0  0
   -1.2262   36.2971   -5.7590 C   0  0  0  0  0  0  0  0  0  0  0  0
   -2.1931   40.0729   -0.7510 C   0  0  0  0  0  0  0  0  0  0  0  0
   -2.8130   29.9226   -1.2148 C   0  0  2  0  0  0  0  0  0  0  0  0
   -3.8197   28.7946   -1.2882 N   0  0  0  0  0  0  0  0  0  0  0  0
   -1.2411   34.6672   -2.6447 C   0  0  2  0  0  0  0  0  0  0  0  0
   -0.2139   37.5714   -0.7322 C   0  0  1  0  0  0  0  0  0  0  0  0
   -1.0083   36.5094   -1.2274 O   0  0  0  0  0  0  0  0  0  0  0  0
   -3.5091   31.2644   -1.0155 C   0  0  1  0  0  0  0  0  0  0  0  0
   -4.2951   31.1023    0.2447 O   0  0  0  0  0  0  0  0  0  0  0  0
   -0.3913   35.8588   -2.2426 C   0  0  2  0  0  0  0  0  0  0  0  0
   -0.9619   38.2540    0.3872 C   0  0  1  0  0  0  0  0  0  0  0  0
   -2.1810   38.7908   -0.1056 N   0  0  0  0  0  0  0  0  0  0  0  0
   -2.5351   32.4398   -0.9655 C   0  0  2  0  0  0  0  0  0  0  0  0
   -3.1443   33.7396   -0.7728 N   0  0  0  0  0  0  0  0  0  0  0  0
   -0.3493   36.6881   -3.4987 C   0  0  1  0  0  0  0  0  0  0  0  0
   -1.4613   37.5891   -3.5272 O   0  0  0  0  0  0  0  0  0  0  0  0
   -1.2529   37.2150    1.4571 C   0  0  2  0  0  0  0  0  0  0  0  0
   -1.9626   37.8003    2.5269 O   0  0  0  0  0  0  0  0  0  0  0  0
   -1.7631   32.4600   -2.2592 C   0  0  1  0  0  0  0  0  0  0  0  0
   -0.7346   33.4701   -2.0639 O   0  0  0  0  0  0  0  0  0  0  0  0
   -0.4803   35.6969   -4.5955 C   0  0  1  0  0  0  0  0  0  0  0  0
   -1.2048   34.5818   -4.0712 O   0  0  0  0  0  0  0  0  0  0  0  0
    0.0965   36.6832    1.9404 C   0  0  1  0  0  0  0  0  0  0  0  0
   -0.0921   35.6970    2.9432 O   0  0  0  0  0  0  0  0  0  0  0  0
   -1.0076   31.1173   -2.4509 C   0  0  2  0  0  0  0  0  0  0  0  0
   -0.2765   31.1629   -3.6665 O   0  0  0  0  0  0  0  0  0  0  0  0
    0.8472   36.0830    0.7512 C   0  0  1  0  0  0  0  0  0  0  0  0
    1.0351   37.0755   -0.2562 O   0  0  0  0  0  0  0  0  0  0  0  0
   -2.0246   29.9612   -2.5081 C   0  0  1  0  0  0  0  0  0  0  0  0
   -1.3426   28.7139   -2.6852 O   0  0  0  0  0  0  0  0  0  0  0  0
    2.2101   35.5800    1.2277 C   0  0  0  0  0  0  0  0  0  0  0  0
    2.9153   35.0316    0.1258 O   0  0  0  0  0  0  0  0  0  0  0  0
   -3.7342   27.6888    0.7019 N   0  0  0  0  0  0  0  0  0  0  0  0
   -4.5625   34.0030    0.7800 N   0  0  0  0  0  0  0  0  0  0  0  0
  1  2  1  0  0  0  0
  1 39  1  0  0  0  0
  3  4  1  0  0  0  0
  5  6  1  0  0  0  0
  5 40  1  0  0  0  0
  9 10  1  6  0  0  0
  9 14  1  0  0  0  0
  9 35  1  0  0  0  0
 10  1  1  0  0  0  0
 11 16  1  0  0  0  0
 11 28  1  0  0  0  0
 11 26  1  1  0  0  0
 12 17  1  0  0  0  0
 12 34  1  0  0  0  0
 12 13  1  1  0  0  0
 14 15  1  1  0  0  0
 14 19  1  0  0  0  0
 16 13  1  1  0  0  0
 16 21  1  0  0  0  0
 17 18  1  6  0  0  0
 17 23  1  0  0  0  0
 18  8  1  0  0  0  0
 19 20  1  6  0  0  0
 19 25  1  0  0  0  0
 20  5  1  0  0  0  0
 21  3  1  6  0  0  0
 21 22  1  0  0  0  0
 21 27  1  0  0  0  0
 23 24  1  1  0  0  0
 23 29  1  0  0  0  0
 25 26  1  1  0  0  0
 25 31  1  0  0  0  0
 27  7  1  6  0  0  0
 27 28  1  0  0  0  0
 29 30  1  1  0  0  0
 29 33  1  0  0  0  0
 31 32  1  6  0  0  0
 31 35  1  0  0  0  0
 33 34  1  0  0  0  0
 33 37  1  1  0  0  0
 35 36  1  1  0  0  0
 37 38  1  0  0  0  0
M  END
>  <CHROM.1>
-134.52992412,-94.28080383,167.79218845,179.71644031,175.26920102,-83.29479870
82.07037270,61.96563896,48.36451394,-96.68708389,-179.54303731,-1.31132842
34.18670315,-1.11303241,2.39750840,-1.14482332,-2.31117609

>  <Name>
1ntb_lig

>  <RI>
0

>  <Rbt.Current_Directory>
/home/itssahil/PROJECTS/Mol_Feturizer/New_Systems/rnas/1ntb

>  <Rbt.Executable>
rbdock ($Id: //depot/dev/client3/rdock/2013.1/src/exe/rbdock.cxx#4 $)

>  <Rbt.Library>
libRbt.so (2013.1, Build901 2013/11/27)

>  <Rbt.Parameter_File>
/export/apps/rDock/src/rDock_2013.1_src/data/scripts/dock_solv.prm

>  <Rbt.Receptor>
prm/pocket_docking_8.prm

>  <SCORE>
-10.1479

>  <SCORE.INTER>
2.77268

>  <SCORE.INTER.CONST>
1

>  <SCORE.INTER.POLAR>
-0.683821

>  <SCORE.INTER.ROT>
11

>  <SCORE.INTER.SOLV>
11.0775

>  <SCORE.INTER.VDW>
-10.498

>  <SCORE.INTER.norm>
0.0693171

>  <SCORE.INTRA>
-12.9206

>  <SCORE.INTRA.DIHEDRAL>
-6.21083

>  <SCORE.INTRA.DIHEDRAL.0>
15.4453

>  <SCORE.INTRA.POLAR>
0

>  <SCORE.INTRA.POLAR.0>
0

>  <SCORE.INTRA.REPUL>
-0.823667

>  <SCORE.INTRA.REPUL.0>
0.823958

>  <SCORE.INTRA.SOLV>
0.605462

>  <SCORE.INTRA.SOLV.lig_0>
-99.3069

>  <SCORE.INTRA.VDW>
-5.9996

>  <SCORE.INTRA.VDW.0>
0.946495

>  <SCORE.INTRA.norm>
-0.323015

>  <SCORE.RESTR>
0

>  <SCORE.RESTR.CAVITY>
0

>  <SCORE.RESTR.norm>
0

>  <SCORE.SYSTEM>
0

>  <SCORE.SYSTEM.CONST>
0

>  <SCORE.SYSTEM.DIHEDRAL>
0

>  <SCORE.SYSTEM.SOLV>
0

>  <SCORE.SYSTEM.norm>
0

>  <SCORE.heavy>
40

>  <SCORE.norm>
-0.253698

>  <RMSD>
7.464

$$$$
1ntb_lig
 OpenBabel11021811403D
libRbt.so/2013.1/901 2013/11/27
 40 42  0  0  0  0  0  0  0  0999 V2000
    5.2659   43.7797   -2.5990 C   0  0  0  0  0  0  0  0  0  0  0  0
    6.1403   43.2558   -3.3679 N   0  0  0  0  0  0  0  0  0  0  0  0
   -3.3739   38.0591   -4.4190 C   0  0  0  0  0  0  0  0  0  0  0  0
   -4.1206   36.8733   -4.6356 O   0  0  0  0  0  0  0  0  0  0  0  0
    0.6626   42.8291   -6.3167 C   0  0  0  0  0  0  0  0  0  0  0  0
    0.5534   42.0895   -7.3622 N   0  0  0  0  0  0  0  0  0  0  0  0
   -1.4341   35.6475   -5.4196 C   0  0  0  0  0  0  0  0  0  0  0  0
   -3.0152   41.9189   -4.2971 C   0  0  0  0  0  0  0  0  0  0  0  0
    3.7228   42.0696   -3.1088 C   0  0  2  0  0  0  0  0  0  0  0  0
    4.3954   42.9413   -2.0703 N   0  0  0  0  0  0  0  0  0  0  0  0
    0.2688   38.5715   -4.4679 C   0  0  2  0  0  0  0  0  0  0  0  0
   -0.8957   40.5244   -2.2550 C   0  0  1  0  0  0  0  0  0  0  0  0
   -0.9523   39.1432   -2.5603 O   0  0  0  0  0  0  0  0  0  0  0  0
    2.4344   42.7124   -3.6106 C   0  0  1  0  0  0  0  0  0  0  0  0
    2.8562   44.0404   -4.1495 O   0  0  0  0  0  0  0  0  0  0  0  0
   -1.0879   38.9337   -3.8917 C   0  0  2  0  0  0  0  0  0  0  0  0
   -2.3044   41.0428   -2.0955 C   0  0  1  0  0  0  0  0  0  0  0  0
   -3.0195   40.8756   -3.3113 N   0  0  0  0  0  0  0  0  0  0  0  0
    1.7018   41.8547   -4.6403 C   0  0  2  0  0  0  0  0  0  0  0  0
    0.4720   42.4214   -5.1541 N   0  0  0  0  0  0  0  0  0  0  0  0
   -1.9212   37.7149   -4.1871 C   0  0  1  0  0  0  0  0  0  0  0  0
   -1.8047   36.7718   -3.1166 O   0  0  0  0  0  0  0  0  0  0  0  0
   -2.9747   40.2435   -0.9908 C   0  0  2  0  0  0  0  0  0  0  0  0
   -4.3028   40.6824   -0.8063 O   0  0  0  0  0  0  0  0  0  0  0  0
    1.3867   40.5272   -4.0009 C   0  0  1  0  0  0  0  0  0  0  0  0
    0.8715   39.7044   -5.0844 O   0  0  0  0  0  0  0  0  0  0  0  0
   -1.3179   37.1498   -5.4196 C   0  0  1  0  0  0  0  0  0  0  0  0
    0.0586   37.5351   -5.4297 O   0  0  0  0  0  0  0  0  0  0  0  0
   -2.1573   40.4693    0.2813 C   0  0  1  0  0  0  0  0  0  0  0  0
   -2.7200   39.7458    1.3647 O   0  0  0  0  0  0  0  0  0  0  0  0
    2.6955   39.8375   -3.5303 C   0  0  2  0  0  0  0  0  0  0  0  0
    2.3778   38.5843   -2.9448 O   0  0  0  0  0  0  0  0  0  0  0  0
   -0.7202   40.0088    0.0351 C   0  0  1  0  0  0  0  0  0  0  0  0
   -0.1564   40.7366   -1.0547 O   0  0  0  0  0  0  0  0  0  0  0  0
    3.3963   40.7275   -2.4858 C   0  0  1  0  0  0  0  0  0  0  0  0
    4.6070   40.1043   -2.0407 O   0  0  0  0  0  0  0  0  0  0  0  0
    0.1054   40.2643    1.2963 C   0  0  0  0  0  0  0  0  0  0  0  0
    0.1654   41.6608    1.5386 O   0  0  0  0  0  0  0  0  0  0  0  0
    5.2163   45.0451   -2.3713 N   0  0  0  0  0  0  0  0  0  0  0  0
    1.0298   44.0108   -6.4405 N   0  0  0  0  0  0  0  0  0  0  0  0
  1  2  1  0  0  0  0
  1 39  1  0  0  0  0
  3  4  1  0  0  0  0
  5  6  1  0  0  0  0
  5 40  1  0  0  0  0
  9 10  1  1  0  0  0
  9 14  1  0  0  0  0
  9 35  1  0  0  0  0
 10  1  1  0  0  0  0
 11 16  1  0  0  0  0
 11 28  1  0  0  0  0
 11 26  1  6  0  0  0
 12 17  1  0  0  0  0
 12 34  1  0  0  0  0
 12 13  1  1  0  0  0
 14 15  1  6  0  0  0
 14 19  1  0  0  0  0
 16 13  1  1  0  0  0
 16 21  1  0  0  0  0
 17 18  1  6  0  0  0
 17 23  1  0  0  0  0
 18  8  1  0  0  0  0
 19 20  1  1  0  0  0
 19 25  1  0  0  0  0
 20  5  1  0  0  0  0
 21  3  1  6  0  0  0
 21 22  1  0  0  0  0
 21 27  1  0  0  0  0
 23 24  1  1  0  0  0
 23 29  1  0  0  0  0
 25 26  1  6  0  0  0
 25 31  1  0  0  0  0
 27  7  1  1  0  0  0
 27 28  1  0  0  0  0
 29 30  1  1  0  0  0
 29 33  1  0  0  0  0
 31 32  1  1  0  0  0
 31 35  1  0  0  0  0
 33 34  1  0  0  0  0
 33 37  1  1  0  0  0
 35 36  1  6  0  0  0
 37 38  1  0  0  0  0
M  END
>  <CHROM.1>
-91.32503753,-52.09946053,77.20226089,86.48727376,100.55113853,-90.31608529
105.71606701,86.50510866,-177.52792208,-166.31174709,-64.07392869,0.26838866
40.48854698,-3.10187391,0.12222709,0.59292893,1.27211516

>  <Name>
1ntb_lig

>  <RI>
0

>  <Rbt.Current_Directory>
/home/itssahil/PROJECTS/Mol_Feturizer/New_Systems/rnas/1ntb

>  <Rbt.Executable>
rbdock ($Id: //depot/dev/client3/rdock/2013.1/src/exe/rbdock.cxx#4 $)

>  <Rbt.Library>
libRbt.so (2013.1, Build901 2013/11/27)

>  <Rbt.Parameter_File>
/export/apps/rDock/src/rDock_2013.1_src/data/scripts/dock_solv.prm

>  <Rbt.Receptor>
prm/pocket_docking_8.prm

>  <SCORE>
-7.59374

>  <SCORE.INTER>
1.91606

>  <SCORE.INTER.CONST>
1

>  <SCORE.INTER.POLAR>
-1.30152

>  <SCORE.INTER.ROT>
11

>  <SCORE.INTER.SOLV>
7.51554

>  <SCORE.INTER.VDW>
-7.82272

>  <SCORE.INTER.norm>
0.0479015

>  <SCORE.INTRA>
-9.5098

>  <SCORE.INTRA.DIHEDRAL>
-0.949246

>  <SCORE.INTRA.DIHEDRAL.0>
15.4453

>  <SCORE.INTRA.POLAR>
0

>  <SCORE.INTRA.POLAR.0>
0

>  <SCORE.INTRA.REPUL>
-0.823958

>  <SCORE.INTRA.REPUL.0>
0.823958

>  <SCORE.INTRA.SOLV>
-0.608649

>  <SCORE.INTRA.SOLV.lig_0>
-99.3069

>  <SCORE.INTRA.VDW>
-4.61107

>  <SCORE.INTRA.VDW.0>
0.946495

>  <SCORE.INTRA.norm>
-0.237745

>  <SCORE.RESTR>
0

>  <SCORE.RESTR.CAVITY>
0

>  <SCORE.RESTR.norm>
0

>  <SCORE.SYSTEM>
0

>  <SCORE.SYSTEM.CONST>
0

>  <SCORE.SYSTEM.DIHEDRAL>
0

>  <SCORE.SYSTEM.SOLV>
0

>  <SCORE.SYSTEM.norm>
0

>  <SCORE.heavy>
40

>  <SCORE.norm>
-0.189843

>  <RMSD>
7.470

$$$$
1ntb_lig
 OpenBabel11021811403D
libRbt.so/2013.1/901 2013/11/27
 40 42  0  0  0  0  0  0  0  0999 V2000
    1.8655   42.0492   -4.2017 C   0  0  0  0  0  0  0  0  0  0  0  0
    1.6718   42.2546   -5.4469 N   0  0  0  0  0  0  0  0  0  0  0  0
   -0.1175   33.1882    2.0116 C   0  0  0  0  0  0  0  0  0  0  0  0
    1.1865   33.6566    2.3123 O   0  0  0  0  0  0  0  0  0  0  0  0
   -0.5300   36.2215   -4.4447 C   0  0  0  0  0  0  0  0  0  0  0  0
    0.4828   35.4437   -4.5907 N   0  0  0  0  0  0  0  0  0  0  0  0
   -2.0986   35.7310    2.4475 C   0  0  0  0  0  0  0  0  0  0  0  0
   -2.4440   29.8103   -1.9226 C   0  0  0  0  0  0  0  0  0  0  0  0
    1.1379   40.0963   -3.0961 C   0  0  2  0  0  0  0  0  0  0  0  0
    0.8533   41.5126   -3.5477 N   0  0  0  0  0  0  0  0  0  0  0  0
   -0.3653   35.7571   -0.6103 C   0  0  2  0  0  0  0  0  0  0  0  0
    0.1431   32.2564   -1.1877 C   0  0  1  0  0  0  0  0  0  0  0  0
   -0.5345   33.4994   -1.1859 O   0  0  0  0  0  0  0  0  0  0  0  0
   -0.0000   39.1592   -3.4859 C   0  0  1  0  0  0  0  0  0  0  0  0
   -0.1069   39.2869   -4.9706 O   0  0  0  0  0  0  0  0  0  0  0  0
   -0.0605   34.3223   -0.2200 C   0  0  2  0  0  0  0  0  0  0  0  0
   -0.5218   31.3444   -2.1901 C   0  0  1  0  0  0  0  0  0  0  0  0
   -1.8743   31.1235   -1.8169 N   0  0  0  0  0  0  0  0  0  0  0  0
    0.2271   37.7212   -3.0244 C   0  0  2  0  0  0  0  0  0  0  0  0
   -0.8232   36.7869   -3.3731 N   0  0  0  0  0  0  0  0  0  0  0  0
   -0.8066   34.1551    1.0771 C   0  0  1  0  0  0  0  0  0  0  0  0
   -2.1451   33.7187    0.8185 O   0  0  0  0  0  0  0  0  0  0  0  0
   -0.4675   32.0234   -3.5483 C   0  0  2  0  0  0  0  0  0  0  0  0
   -1.0869   31.2147   -4.5244 O   0  0  0  0  0  0  0  0  0  0  0  0
    0.3800   37.7319   -1.5255 C   0  0  1  0  0  0  0  0  0  0  0  0
    0.7820   36.3767   -1.1819 O   0  0  0  0  0  0  0  0  0  0  0  0
   -0.8293   35.5180    1.6639 C   0  0  1  0  0  0  0  0  0  0  0  0
   -0.7620   36.4453    0.5781 O   0  0  0  0  0  0  0  0  0  0  0  0
    1.0096   32.2285   -3.8852 C   0  0  1  0  0  0  0  0  0  0  0  0
    1.1445   32.8674   -5.1450 O   0  0  0  0  0  0  0  0  0  0  0  0
    1.5685   38.6432   -1.1167 C   0  0  2  0  0  0  0  0  0  0  0  0
    1.7037   38.6279    0.2960 O   0  0  0  0  0  0  0  0  0  0  0  0
    1.6526   33.0841   -2.7933 C   0  0  1  0  0  0  0  0  0  0  0  0
    1.5153   32.4407   -1.5274 O   0  0  0  0  0  0  0  0  0  0  0  0
    1.2950   40.0841   -1.5891 C   0  0  1  0  0  0  0  0  0  0  0  0
    2.3836   40.9386   -1.2190 O   0  0  0  0  0  0  0  0  0  0  0  0
    3.1371   33.2625   -3.1128 C   0  0  0  0  0  0  0  0  0  0  0  0
    3.7335   34.0762   -2.1155 O   0  0  0  0  0  0  0  0  0  0  0  0
    2.9646   42.3663   -3.6126 N   0  0  0  0  0  0  0  0  0  0  0  0
   -1.2451   36.4836   -5.4279 N   0  0  0  0  0  0  0  0  0  0  0  0
  1  2  1  0  0  0  0
  1 39  1  0  0  0  0
  3  4  1  0  0  0  0
  5  6  1  0  0  0  0
  5 40  1  0  0  0  0
  9 10  1  1  0  0  0
  9 14  1  0  0  0  0
  9 35  1  0  0  0  0
 10  1  1  0  0  0  0
 11 16  1  0  0  0  0
 11 28  1  0  0  0  0
 11 26  1  1  0  0  0
 12 17  1  0  0  0  0
 12 34  1  0  0  0  0
 12 13  1  6  0  0  0
 14 15  1  6  0  0  0
 14 19  1  0  0  0  0
 16 13  1  6  0  0  0
 16 21  1  0  0  0  0
 17 18  1  1  0  0  0
 17 23  1  0  0  0  0
 18  8  1  0  0  0  0
 19 20  1  1  0  0  0
 19 25  1  0  0  0  0
 20  5  1  0  0  0  0
 21  3  1  1  0  0  0
 21 22  1  0  0  0  0
 21 27  1  0  0  0  0
 23 24  1  6  0  0  0
 23 29  1  0  0  0  0
 25 26  1  6  0  0  0
 25 31  1  0  0  0  0
 27  7  1  6  0  0  0
 27 28  1  0  0  0  0
 29 30  1  6  0  0  0
 29 33  1  0  0  0  0
 31 32  1  1  0  0  0
 31 35  1  0  0  0  0
 33 34  1  0  0  0  0
 33 37  1  6  0  0  0
 35 36  1  6  0  0  0
 37 38  1  0  0  0  0
M  END
>  <CHROM.1>
-130.35792697,111.40695673,179.59583526,174.47687349,156.50697360,-138.16438656
94.15144220,64.53773446,59.81454708,-105.19571514,178.94420557,0.35622278
35.79972316,-1.98606170,-0.37518368,-1.34687310,-2.17831763

>  <Name>
1ntb_lig

>  <RI>
0

>  <Rbt.Current_Directory>
/home/itssahil/PROJECTS/Mol_Feturizer/New_Systems/rnas/1ntb

>  <Rbt.Executable>
rbdock ($Id: //depot/dev/client3/rdock/2013.1/src/exe/rbdock.cxx#4 $)

>  <Rbt.Library>
libRbt.so (2013.1, Build901 2013/11/27)

>  <Rbt.Parameter_File>
/export/apps/rDock/src/rDock_2013.1_src/data/scripts/dock_solv.prm

>  <Rbt.Receptor>
prm/pocket_docking_6.prm

>  <SCORE>
-10.0504

>  <SCORE.INTER>
1.98948

>  <SCORE.INTER.CONST>
1

>  <SCORE.INTER.POLAR>
0

>  <SCORE.INTER.ROT>
11

>  <SCORE.INTER.SOLV>
10.5948

>  <SCORE.INTER.VDW>
-13.1386

>  <SCORE.INTER.norm>
0.0497369

>  <SCORE.INTRA>
-12.0398

>  <SCORE.INTRA.DIHEDRAL>
-2.66658

>  <SCORE.INTRA.DIHEDRAL.0>
15.4453

>  <SCORE.INTRA.POLAR>
0

>  <SCORE.INTRA.POLAR.0>
0

>  <SCORE.INTRA.REPUL>
-0.823958

>  <SCORE.INTRA.REPUL.0>
0.823958

>  <SCORE.INTRA.SOLV>
1.23979

>  <SCORE.INTRA.SOLV.lig_0>
-99.3069

>  <SCORE.INTRA.VDW>
-7.20665

>  <SCORE.INTRA.VDW.0>
0.946495

>  <SCORE.INTRA.norm>
-0.300996

>  <SCORE.RESTR>
0

>  <SCORE.RESTR.CAVITY>
0

>  <SCORE.RESTR.norm>
0

>  <SCORE.SYSTEM>
0

>  <SCORE.SYSTEM.CONST>
0

>  <SCORE.SYSTEM.DIHEDRAL>
0

>  <SCORE.SYSTEM.SOLV>
0

>  <SCORE.SYSTEM.norm>
0

>  <SCORE.heavy>
40

>  <SCORE.norm>
-0.251259

>  <RMSD>
7.478

$$$$
1ntb_lig
 OpenBabel11021811403D
libRbt.so/2013.1/901 2013/11/27
 40 42  0  0  0  0  0  0  0  0999 V2000
   -2.3932   37.5560    5.1482 C   0  0  0  0  0  0  0  0  0  0  0  0
   -3.4681   38.2104    4.9326 N   0  0  0  0  0  0  0  0  0  0  0  0
    1.0201   32.3487   -3.9135 C   0  0  0  0  0  0  0  0  0  0  0  0
    0.5995   32.4852   -5.2607 O   0  0  0  0  0  0  0  0  0  0  0  0
    0.2524   32.4478    3.3209 C   0  0  0  0  0  0  0  0  0  0  0  0
    0.2737   32.1648    4.5745 N   0  0  0  0  0  0  0  0  0  0  0  0
   -1.1292   34.7712   -4.2178 C   0  0  0  0  0  0  0  0  0  0  0  0
    6.2099   32.0885   -1.0830 C   0  0  0  0  0  0  0  0  0  0  0  0
   -1.4013   36.6018    3.2320 C   0  0  2  0  0  0  0  0  0  0  0  0
   -1.4373   37.7181    4.2536 N   0  0  0  0  0  0  0  0  0  0  0  0
    0.2907   34.4930   -1.0144 C   0  0  2  0  0  0  0  0  0  0  0  0
    3.0055   33.8319   -0.2893 C   0  0  1  0  0  0  0  0  0  0  0  0
    2.5099   34.0538   -1.5967 O   0  0  0  0  0  0  0  0  0  0  0  0
   -0.3161   35.5857    3.5708 C   0  0  1  0  0  0  0  0  0  0  0  0
   -0.6576   35.1075    4.9444 O   0  0  0  0  0  0  0  0  0  0  0  0
    1.2528   33.5703   -1.7403 C   0  0  2  0  0  0  0  0  0  0  0  0
    4.5103   33.7311   -0.3529 C   0  0  1  0  0  0  0  0  0  0  0  0
    4.8850   32.6334   -1.1727 N   0  0  0  0  0  0  0  0  0  0  0  0
   -0.2200   34.4535    2.5503 C   0  0  2  0  0  0  0  0  0  0  0  0
    0.7934   33.4564    2.8270 N   0  0  0  0  0  0  0  0  0  0  0  0
    0.7826   33.6418   -3.1689 C   0  0  1  0  0  0  0  0  0  0  0  0
    1.4327   34.7238   -3.8440 O   0  0  0  0  0  0  0  0  0  0  0  0
    5.0408   35.0236   -0.9501 C   0  0  2  0  0  0  0  0  0  0  0  0
    6.4480   34.9785   -1.0418 O   0  0  0  0  0  0  0  0  0  0  0  0
    0.0647   35.0642    1.2027 C   0  0  1  0  0  0  0  0  0  0  0  0
   -0.0495   33.9608    0.2616 O   0  0  0  0  0  0  0  0  0  0  0  0
   -0.6711   33.9203   -3.0617 C   0  0  1  0  0  0  0  0  0  0  0  0
   -0.8772   34.6151   -1.8297 O   0  0  0  0  0  0  0  0  0  0  0  0
    4.6033   36.1562   -0.0211 C   0  0  1  0  0  0  0  0  0  0  0  0
    5.0584   37.4054   -0.5173 O   0  0  0  0  0  0  0  0  0  0  0  0
   -1.0598   36.0645    0.8217 C   0  0  2  0  0  0  0  0  0  0  0  0
   -0.7799   36.6167   -0.4553 O   0  0  0  0  0  0  0  0  0  0  0  0
    3.0774   36.1563    0.0756 C   0  0  1  0  0  0  0  0  0  0  0  0
    2.6217   34.8996    0.5738 O   0  0  0  0  0  0  0  0  0  0  0  0
   -1.1154   37.1949    1.8673 C   0  0  1  0  0  0  0  0  0  0  0  0
   -2.1491   38.1275    1.5296 O   0  0  0  0  0  0  0  0  0  0  0  0
    2.6410   37.2683    1.0299 C   0  0  0  0  0  0  0  0  0  0  0  0
    3.3487   37.1372    2.2523 O   0  0  0  0  0  0  0  0  0  0  0  0
   -2.2548   36.7685    6.1564 N   0  0  0  0  0  0  0  0  0  0  0  0
   -0.2879   31.6586    2.5260 N   0  0  0  0  0  0  0  0  0  0  0  0
  1  2  1  0  0  0  0
  1 39  1  0  0  0  0
  3  4  1  0  0  0  0
  5  6  1  0  0  0  0
  5 40  1  0  0  0  0
  9 10  1  1  0  0  0
  9 14  1  0  0  0  0
  9 35  1  0  0  0  0
 10  1  1  0  0  0  0
 11 16  1  0  0  0  0
 11 28  1  0  0  0  0
 11 26  1  1  0  0  0
 12 17  1  0  0  0  0
 12 34  1  0  0  0  0
 12 13  1  6  0  0  0
 14 15  1  1  0  0  0
 14 19  1  0  0  0  0
 16 13  1  6  0  0  0
 16 21  1  0  0  0  0
 17 18  1  6  0  0  0
 17 23  1  0  0  0  0
 18  8  1  0  0  0  0
 19 20  1  1  0  0  0
 19 25  1  0  0  0  0
 20  5  1  0  0  0  0
 21  3  1  6  0  0  0
 21 22  1  0  0  0  0
 21 27  1  0  0  0  0
 23 24  1  1  0  0  0
 23 29  1  0  0  0  0
 25 26  1  6  0  0  0
 25 31  1  0  0  0  0
 27  7  1  6  0  0  0
 27 28  1  0  0  0  0
 29 30  1  6  0  0  0
 29 33  1  0  0  0  0
 31 32  1  6  0  0  0
 31 35  1  0  0  0  0
 33 34  1  0  0  0  0
 33 37  1  1  0  0  0
 35 36  1  6  0  0  0
 37 38  1  0  0  0  0
M  END
>  <CHROM.1>
-99.70656008,-98.14639507,133.85206355,152.17792339,74.05012300,-161.69554705
101.29802588,-102.23153672,-178.14621644,-176.73571690,-52.01625145,1.03878222
34.97801019,0.50403071,-2.16330601,0.09276861,-1.89058525

>  <Name>
1ntb_lig

>  <RI>
0

>  <Rbt.Current_Directory>
/home/itssahil/PROJECTS/Mol_Feturizer/New_Systems/rnas/1ntb

>  <Rbt.Executable>
rbdock ($Id: //depot/dev/client3/rdock/2013.1/src/exe/rbdock.cxx#4 $)

>  <Rbt.Library>
libRbt.so (2013.1, Build901 2013/11/27)

>  <Rbt.Parameter_File>
/export/apps/rDock/src/rDock_2013.1_src/data/scripts/dock_solv.prm

>  <Rbt.Receptor>
prm/pocket_docking_7.prm

>  <SCORE>
-0.558137

>  <SCORE.INTER>
3.50955

>  <SCORE.INTER.CONST>
1

>  <SCORE.INTER.POLAR>
-1.03797

>  <SCORE.INTER.ROT>
11

>  <SCORE.INTER.SOLV>
22.1127

>  <SCORE.INTER.VDW>
-12.5046

>  <SCORE.INTER.norm>
0.0877387

>  <SCORE.INTRA>
-4.06768

>  <SCORE.INTRA.DIHEDRAL>
-1.45123

>  <SCORE.INTRA.DIHEDRAL.0>
15.4453

>  <SCORE.INTRA.POLAR>
0

>  <SCORE.INTRA.POLAR.0>
0

>  <SCORE.INTRA.REPUL>
-0.451775

>  <SCORE.INTRA.REPUL.0>
0.823958

>  <SCORE.INTRA.SOLV>
-1.51574

>  <SCORE.INTRA.SOLV.lig_0>
-99.3069

>  <SCORE.INTRA.VDW>
-0.325326

>  <SCORE.INTRA.VDW.0>
0.946495

>  <SCORE.INTRA.norm>
-0.101692

>  <SCORE.RESTR>
0

>  <SCORE.RESTR.CAVITY>
0

>  <SCORE.RESTR.norm>
0

>  <SCORE.SYSTEM>
0

>  <SCORE.SYSTEM.CONST>
0

>  <SCORE.SYSTEM.DIHEDRAL>
0

>  <SCORE.SYSTEM.SOLV>
0

>  <SCORE.SYSTEM.norm>
0

>  <SCORE.heavy>
40

>  <SCORE.norm>
-0.0139534

>  <RMSD>
7.501

$$$$
1ntb_lig
 OpenBabel11021811403D
libRbt.so/2013.1/901 2013/11/27
 40 42  0  0  0  0  0  0  0  0999 V2000
    2.5563   41.3241   -0.7480 C   0  0  0  0  0  0  0  0  0  0  0  0
    2.3628   41.8523    0.3982 N   0  0  0  0  0  0  0  0  0  0  0  0
   -5.2236   33.4806   -0.3119 C   0  0  0  0  0  0  0  0  0  0  0  0
   -4.8834   32.1374   -0.6126 O   0  0  0  0  0  0  0  0  0  0  0  0
    0.7604   36.2835   -3.0559 C   0  0  0  0  0  0  0  0  0  0  0  0
    1.7833   36.7327   -3.6916 N   0  0  0  0  0  0  0  0  0  0  0  0
   -6.1088   36.1566   -1.9352 C   0  0  0  0  0  0  0  0  0  0  0  0
   -1.9036   29.9915   -4.0214 C   0  0  0  0  0  0  0  0  0  0  0  0
    0.7688   39.7881   -0.8542 C   0  0  2  0  0  0  0  0  0  0  0  0
    1.4671   41.0056   -1.4207 N   0  0  0  0  0  0  0  0  0  0  0  0
   -2.6452   35.8623   -1.4135 C   0  0  2  0  0  0  0  0  0  0  0  0
   -2.1846   32.3231   -1.2182 C   0  0  1  0  0  0  0  0  0  0  0  0
   -2.3684   33.5821   -1.8389 O   0  0  0  0  0  0  0  0  0  0  0  0
    1.1361   38.5330   -1.6384 C   0  0  1  0  0  0  0  0  0  0  0  0
    2.6246   38.4471   -1.5444 O   0  0  0  0  0  0  0  0  0  0  0  0
   -3.0266   34.4446   -1.0280 C   0  0  2  0  0  0  0  0  0  0  0  0
   -1.3302   31.4612   -2.1158 C   0  0  1  0  0  0  0  0  0  0  0  0
   -1.9868   31.2625   -3.3595 N   0  0  0  0  0  0  0  0  0  0  0  0
    0.4312   37.2801   -1.1226 C   0  0  2  0  0  0  0  0  0  0  0  0
    0.7485   36.0569   -1.8302 N   0  0  0  0  0  0  0  0  0  0  0  0
   -4.5134   34.4146   -1.2637 C   0  0  1  0  0  0  0  0  0  0  0  0
   -4.7864   34.0373   -2.6173 O   0  0  0  0  0  0  0  0  0  0  0  0
   -0.0117   32.1823   -2.3399 C   0  0  2  0  0  0  0  0  0  0  0  0
    0.8245   31.4216   -3.1840 O   0  0  0  0  0  0  0  0  0  0  0  0
   -1.0549   37.5124   -1.2106 C   0  0  1  0  0  0  0  0  0  0  0  0
   -1.6513   36.3727   -0.5311 O   0  0  0  0  0  0  0  0  0  0  0  0
   -4.9476   35.8156   -1.0376 C   0  0  1  0  0  0  0  0  0  0  0  0
   -3.8315   36.6563   -1.3390 O   0  0  0  0  0  0  0  0  0  0  0  0
    0.6373   32.3609   -0.9672 C   0  0  1  0  0  0  0  0  0  0  0  0
    1.8788   33.0368   -1.0923 O   0  0  0  0  0  0  0  0  0  0  0  0
   -1.4507   38.7591   -0.3744 C   0  0  2  0  0  0  0  0  0  0  0  0
   -2.8543   38.9513   -0.4593 O   0  0  0  0  0  0  0  0  0  0  0  0
   -0.3077   33.1642   -0.0730 C   0  0  1  0  0  0  0  0  0  0  0  0
   -1.5555   32.4837    0.0509 O   0  0  0  0  0  0  0  0  0  0  0  0
   -0.7293   40.0006   -0.9335 C   0  0  1  0  0  0  0  0  0  0  0  0
   -1.0845   41.1610   -0.1721 O   0  0  0  0  0  0  0  0  0  0  0  0
    0.3268   33.3154    1.3098 C   0  0  0  0  0  0  0  0  0  0  0  0
    0.3559   32.0496    1.9496 O   0  0  0  0  0  0  0  0  0  0  0  0
    3.7341   41.0918   -1.2111 N   0  0  0  0  0  0  0  0  0  0  0  0
   -0.3082   36.1058   -3.6667 N   0  0  0  0  0  0  0  0  0  0  0  0
  1  2  1  0  0  0  0
  1 39  1  0  0  0  0
  3  4  1  0  0  0  0
  5  6  1  0  0  0  0
  5 40  1  0  0  0  0
  9 10  1  6  0  0  0
  9 14  1  0  0  0  0
  9 35  1  0  0  0  0
 10  1  1  0  0  0  0
 11 16  1  0  0  0  0
 11 28  1  0  0  0  0
 11 26  1  1  0  0  0
 12 17  1  0  0  0  0
 12 34  1  0  0  0  0
 12 13  1  6  0  0  0
 14 15  1  1  0  0  0
 14 19  1  0  0  0  0
 16 13  1  6  0  0  0
 16 21  1  0  0  0  0
 17 18  1  6  0  0  0
 17 23  1  0  0  0  0
 18  8  1  0  0  0  0
 19 20  1  6  0  0  0
 19 25  1  0  0  0  0
 20  5  1  0  0  0  0
 21  3  1  1  0  0  0
 21 22  1  0  0  0  0
 21 27  1  0  0  0  0
 23 24  1  6  0  0  0
 23 29  1  0  0  0  0
 25 26  1  1  0  0  0
 25 31  1  0  0  0  0
 27  7  1  6  0  0  0
 27 28  1  0  0  0  0
 29 30  1  6  0  0  0
 29 33  1  0  0  0  0
 31 32  1  6  0  0  0
 31 35  1  0  0  0  0
 33 34  1  0  0  0  0
 33 37  1  1  0  0  0
 35 36  1  1  0  0  0
 37 38  1  0  0  0  0
M  END
>  <CHROM.1>
-98.29583982,-73.28744916,162.10312319,-174.43037121,153.96334454,-142.13312213
-42.86000820,85.41886578,-68.93300357,-130.11558797,-68.73044511,-0.98471365
35.67847818,-1.30541739,-1.14103139,-0.05169171,-3.03521463

>  <Name>
1ntb_lig

>  <RI>
0

>  <Rbt.Current_Directory>
/home/itssahil/PROJECTS/Mol_Feturizer/New_Systems/rnas/1ntb

>  <Rbt.Executable>
rbdock ($Id: //depot/dev/client3/rdock/2013.1/src/exe/rbdock.cxx#4 $)

>  <Rbt.Library>
libRbt.so (2013.1, Build901 2013/11/27)

>  <Rbt.Parameter_File>
/export/apps/rDock/src/rDock_2013.1_src/data/scripts/dock_solv.prm

>  <Rbt.Receptor>
prm/pocket_docking_5.prm

>  <SCORE>
-3.86401

>  <SCORE.INTER>
3.0214

>  <SCORE.INTER.CONST>
1

>  <SCORE.INTER.POLAR>
-1.09649

>  <SCORE.INTER.ROT>
11

>  <SCORE.INTER.SOLV>
10.329

>  <SCORE.INTER.VDW>
-8.70711

>  <SCORE.INTER.norm>
0.075535

>  <SCORE.INTRA>
-6.88541

>  <SCORE.INTRA.DIHEDRAL>
-0.510561

>  <SCORE.INTRA.DIHEDRAL.0>
15.4453

>  <SCORE.INTRA.POLAR>
0

>  <SCORE.INTRA.POLAR.0>
0

>  <SCORE.INTRA.REPUL>
-0.823958

>  <SCORE.INTRA.REPUL.0>
0.823958

>  <SCORE.INTRA.SOLV>
2.68541

>  <SCORE.INTRA.SOLV.lig_0>
-99.3069

>  <SCORE.INTRA.VDW>
-3.85305

>  <SCORE.INTRA.VDW.0>
0.946495

>  <SCORE.INTRA.norm>
-0.172135

>  <SCORE.RESTR>
0

>  <SCORE.RESTR.CAVITY>
0

>  <SCORE.RESTR.norm>
0

>  <SCORE.SYSTEM>
0

>  <SCORE.SYSTEM.CONST>
0

>  <SCORE.SYSTEM.DIHEDRAL>
0

>  <SCORE.SYSTEM.SOLV>
0

>  <SCORE.SYSTEM.norm>
0

>  <SCORE.heavy>
40

>  <SCORE.norm>
-0.0966003

>  <RMSD>
7.505

$$$$
1ntb_lig
 OpenBabel11021811403D
libRbt.so/2013.1/901 2013/11/27
 40 42  0  0  0  0  0  0  0  0999 V2000
   -2.8624   31.7595    0.0775 C   0  0  0  0  0  0  0  0  0  0  0  0
   -3.1519   30.9911    1.0552 N   0  0  0  0  0  0  0  0  0  0  0  0
    5.8264   38.2793    2.1293 C   0  0  0  0  0  0  0  0  0  0  0  0
    7.2282   38.2092    1.9283 O   0  0  0  0  0  0  0  0  0  0  0  0
    0.6651   36.4344   -2.0534 C   0  0  0  0  0  0  0  0  0  0  0  0
    0.0142   37.4663   -1.6491 N   0  0  0  0  0  0  0  0  0  0  0  0
    6.4729   35.4553    0.6504 C   0  0  0  0  0  0  0  0  0  0  0  0
    5.2145   41.0799   -1.8711 C   0  0  0  0  0  0  0  0  0  0  0  0
   -0.9572   33.1352    0.2857 C   0  0  2  0  0  0  0  0  0  0  0  0
   -1.5796   31.8502   -0.2166 N   0  0  0  0  0  0  0  0  0  0  0  0
    3.0718   36.3427    0.6475 C   0  0  2  0  0  0  0  0  0  0  0  0
    3.6260   39.9248    0.6152 C   0  0  1  0  0  0  0  0  0  0  0  0
    3.2541   38.6264    0.1910 O   0  0  0  0  0  0  0  0  0  0  0  0
   -0.1033   33.7881   -0.7958 C   0  0  1  0  0  0  0  0  0  0  0  0
   -1.0379   34.0025   -1.9413 O   0  0  0  0  0  0  0  0  0  0  0  0
    3.6280   37.6840    1.0893 C   0  0  2  0  0  0  0  0  0  0  0  0
    3.2033   40.9181   -0.4399 C   0  0  1  0  0  0  0  0  0  0  0  0
    3.8666   40.6328   -1.6630 N   0  0  0  0  0  0  0  0  0  0  0  0
    0.5720   35.0751   -0.3263 C   0  0  2  0  0  0  0  0  0  0  0  0
    1.3928   35.7395   -1.3174 N   0  0  0  0  0  0  0  0  0  0  0  0
    5.1164   37.4569    1.0794 C   0  0  1  0  0  0  0  0  0  0  0  0
    5.6473   37.7512   -0.2170 O   0  0  0  0  0  0  0  0  0  0  0  0
    1.7009   40.7901   -0.6277 C   0  0  2  0  0  0  0  0  0  0  0  0
    1.2527   41.6933   -1.6145 O   0  0  0  0  0  0  0  0  0  0  0  0
    1.4342   34.7412    0.8634 C   0  0  1  0  0  0  0  0  0  0  0  0
    1.8858   36.0281    1.3696 O   0  0  0  0  0  0  0  0  0  0  0  0
    5.2669   36.0083    1.3645 C   0  0  1  0  0  0  0  0  0  0  0  0
    4.0809   35.3615    0.8971 O   0  0  0  0  0  0  0  0  0  0  0  0
    1.0546   41.1098    0.7204 C   0  0  1  0  0  0  0  0  0  0  0  0
   -0.3576   41.0051    0.6280 O   0  0  0  0  0  0  0  0  0  0  0  0
    0.5682   34.1216    1.9932 C   0  0  2  0  0  0  0  0  0  0  0  0
    1.3961   33.8282    3.1079 O   0  0  0  0  0  0  0  0  0  0  0  0
    1.5842   40.1306    1.7685 C   0  0  1  0  0  0  0  0  0  0  0  0
    3.0040   40.2367    1.8594 O   0  0  0  0  0  0  0  0  0  0  0  0
   -0.0842   32.8219    1.4838 C   0  0  1  0  0  0  0  0  0  0  0  0
   -0.8874   32.2369    2.5157 O   0  0  0  0  0  0  0  0  0  0  0  0
    0.9627   40.4703    3.1234 C   0  0  0  0  0  0  0  0  0  0  0  0
    1.3800   41.7685    3.5147 O   0  0  0  0  0  0  0  0  0  0  0  0
   -3.7565   32.4243   -0.5663 N   0  0  0  0  0  0  0  0  0  0  0  0
    0.5375   36.0548   -3.2309 N   0  0  0  0  0  0  0  0  0  0  0  0
  1  2  1  0  0  0  0
  1 39  1  0  0  0  0
  3  4  1  0  0  0  0
  5  6  1  0  0  0  0
  5 40  1  0  0  0  0
  9 10  1  6  0  0  0
  9 14  1  0  0  0  0
  9 35  1  0  0  0  0
 10  1  1  0  0  0  0
 11 16  1  0  0  0  0
 11 28  1  0  0  0  0
 11 26  1  1  0  0  0
 12 17  1  0  0  0  0
 12 34  1  0  0  0  0
 12 13  1  6  0  0  0
 14 15  1  6  0  0  0
 14 19  1  0  0  0  0
 16 13  1  6  0  0  0
 16 21  1  0  0  0  0
 17 18  1  6  0  0  0
 17 23  1  0  0  0  0
 18  8  1  0  0  0  0
 19 20  1  6  0  0  0
 19 25  1  0  0  0  0
 20  5  1  0  0  0  0
 21  3  1  1  0  0  0
 21 22  1  0  0  0  0
 21 27  1  0  0  0  0
 23 24  1  6  0  0  0
 23 29  1  0  0  0  0
 25 26  1  1  0  0  0
 25 31  1  0  0  0  0
 27  7  1  6  0  0  0
 27 28  1  0  0  0  0
 29 30  1  6  0  0  0
 29 33  1  0  0  0  0
 31 32  1  1  0  0  0
 31 35  1  0  0  0  0
 33 34  1  0  0  0  0
 33 37  1  1  0  0  0
 35 36  1  1  0  0  0
 37 38  1  0  0  0  0
M  END
>  <CHROM.1>
-133.59786157,-102.76285372,179.48181196,178.97510465,174.04246175,-81.06585729
82.58283351,66.12335071,-169.93050363,-87.29247885,-63.29488996,1.78659605
36.87755120,0.43027704,2.19543930,0.25508795,2.99586171

>  <Name>
1ntb_lig

>  <RI>
0

>  <Rbt.Current_Directory>
/home/itssahil/PROJECTS/Mol_Feturizer/New_Systems/rnas/1ntb

>  <Rbt.Executable>
rbdock ($Id: //depot/dev/client3/rdock/2013.1/src/exe/rbdock.cxx#4 $)

>  <Rbt.Library>
libRbt.so (2013.1, Build901 2013/11/27)

>  <Rbt.Parameter_File>
/export/apps/rDock/src/rDock_2013.1_src/data/scripts/dock_solv.prm

>  <Rbt.Receptor>
prm/pocket_docking_7.prm

>  <SCORE>
-15.3801

>  <SCORE.INTER>
-2.34733

>  <SCORE.INTER.CONST>
1

>  <SCORE.INTER.POLAR>
0

>  <SCORE.INTER.ROT>
11

>  <SCORE.INTER.SOLV>
13.2266

>  <SCORE.INTER.VDW>
-16.9071

>  <SCORE.INTER.norm>
-0.0586832

>  <SCORE.INTRA>
-13.0328

>  <SCORE.INTRA.DIHEDRAL>
-8.43928

>  <SCORE.INTRA.DIHEDRAL.0>
15.4453

>  <SCORE.INTRA.POLAR>
0

>  <SCORE.INTRA.POLAR.0>
0

>  <SCORE.INTRA.REPUL>
-0.823958

>  <SCORE.INTRA.REPUL.0>
0.823958

>  <SCORE.INTRA.SOLV>
-0.890775

>  <SCORE.INTRA.SOLV.lig_0>
-99.3069

>  <SCORE.INTRA.VDW>
-4.24798

>  <SCORE.INTRA.VDW.0>
0.946495

>  <SCORE.INTRA.norm>
-0.32582

>  <SCORE.RESTR>
0

>  <SCORE.RESTR.CAVITY>
0

>  <SCORE.RESTR.norm>
0

>  <SCORE.SYSTEM>
0

>  <SCORE.SYSTEM.CONST>
0

>  <SCORE.SYSTEM.DIHEDRAL>
0

>  <SCORE.SYSTEM.SOLV>
0

>  <SCORE.SYSTEM.norm>
0

>  <SCORE.heavy>
40

>  <SCORE.norm>
-0.384503

>  <RMSD>
7.517

$$$$
1ntb_lig
 OpenBabel11021811403D
libRbt.so/2013.1/901 2013/11/27
 40 42  0  0  0  0  0  0  0  0999 V2000
   -0.2898   33.6309   -6.5181 C   0  0  0  0  0  0  0  0  0  0  0  0
   -0.1487   32.3690   -6.3840 N   0  0  0  0  0  0  0  0  0  0  0  0
    1.8971   41.5573    0.7091 C   0  0  0  0  0  0  0  0  0  0  0  0
    3.2179   41.7513    1.1866 O   0  0  0  0  0  0  0  0  0  0  0  0
    2.5869   34.4892   -1.3255 C   0  0  0  0  0  0  0  0  0  0  0  0
    2.2455   33.2907   -1.0107 N   0  0  0  0  0  0  0  0  0  0  0  0
   -0.7848   39.7677    1.1388 C   0  0  0  0  0  0  0  0  0  0  0  0
    4.8759   40.9636   -2.5649 C   0  0  0  0  0  0  0  0  0  0  0  0
    0.2034   35.2200   -4.8455 C   0  0  2  0  0  0  0  0  0  0  0  0
   -0.7878   34.2636   -5.4731 N   0  0  0  0  0  0  0  0  0  0  0  0
    1.6608   38.2456   -0.8755 C   0  0  2  0  0  0  0  0  0  0  0  0
    4.6071   38.4436   -0.5757 C   0  0  1  0  0  0  0  0  0  0  0  0
    3.5813   38.8167    0.3257 O   0  0  0  0  0  0  0  0  0  0  0  0
    0.5021   34.8286   -3.4025 C   0  0  1  0  0  0  0  0  0  0  0  0
    1.0167   33.4286   -3.4863 O   0  0  0  0  0  0  0  0  0  0  0  0
    2.5251   39.3640   -0.3223 C   0  0  2  0  0  0  0  0  0  0  0  0
    5.6106   39.5682   -0.6589 C   0  0  1  0  0  0  0  0  0  0  0  0
    4.9791   40.7415   -1.1506 N   0  0  0  0  0  0  0  0  0  0  0  0
    1.4762   35.7833   -2.7152 C   0  0  2  0  0  0  0  0  0  0  0  0
    1.7985   35.4547   -1.3420 N   0  0  0  0  0  0  0  0  0  0  0  0
    1.5955   40.0794    0.6216 C   0  0  1  0  0  0  0  0  0  0  0  0
    1.6672   39.4857    1.9221 O   0  0  0  0  0  0  0  0  0  0  0  0
    6.1472   39.8207    0.7400 C   0  0  2  0  0  0  0  0  0  0  0  0
    7.0861   40.8737    0.7209 O   0  0  0  0  0  0  0  0  0  0  0  0
    0.8757   37.1648   -2.7485 C   0  0  1  0  0  0  0  0  0  0  0  0
    1.9286   38.0410   -2.2587 O   0  0  0  0  0  0  0  0  0  0  0  0
    0.2465   39.8577    0.0440 C   0  0  1  0  0  0  0  0  0  0  0  0
    0.2970   38.6288   -0.6843 O   0  0  0  0  0  0  0  0  0  0  0  0
    6.8106   38.5236    1.2036 C   0  0  1  0  0  0  0  0  0  0  0  0
    7.3347   38.6780    2.5133 O   0  0  0  0  0  0  0  0  0  0  0  0
    0.6129   37.5973   -4.2162 C   0  0  2  0  0  0  0  0  0  0  0  0
    0.0614   38.9049   -4.2256 O   0  0  0  0  0  0  0  0  0  0  0  0
    5.7720   37.4017    1.1847 C   0  0  1  0  0  0  0  0  0  0  0  0
    5.2456   37.2486   -0.1324 O   0  0  0  0  0  0  0  0  0  0  0  0
   -0.3816   36.6175   -4.8684 C   0  0  1  0  0  0  0  0  0  0  0  0
   -0.6351   37.0033   -6.2246 O   0  0  0  0  0  0  0  0  0  0  0  0
    6.4426   36.0977    1.6174 C   0  0  0  0  0  0  0  0  0  0  0  0
    7.4886   35.7887    0.7102 O   0  0  0  0  0  0  0  0  0  0  0  0
    0.0083   34.2470   -7.6077 N   0  0  0  0  0  0  0  0  0  0  0  0
    3.7783   34.7372   -1.5818 N   0  0  0  0  0  0  0  0  0  0  0  0
  1  2  1  0  0  0  0
  1 39  1  0  0  0  0
  3  4  1  0  0  0  0
  5  6  1  0  0  0  0
  5 40  1  0  0  0  0
  9 10  1  1  0  0  0
  9 14  1  0  0  0  0
  9 35  1  0  0  0  0
 10  1  1  0  0  0  0
 11 16  1  0  0  0  0
 11 28  1  0  0  0  0
 11 26  1  6  0  0  0
 12 17  1  0  0  0  0
 12 34  1  0  0  0  0
 12 13  1  1  0  0  0
 14 15  1  6  0  0  0
 14 19  1  0  0  0  0
 16 13  1  1  0  0  0
 16 21  1  0  0  0  0
 17 18  1  1  0  0  0
 17 23  1  0  0  0  0
 18  8  1  0  0  0  0
 19 20  1  1  0  0  0
 19 25  1  0  0  0  0
 20  5  1  0  0  0  0
 21  3  1  1  0  0  0
 21 22  1  0  0  0  0
 21 27  1  0  0  0  0
 23 24  1  6  0  0  0
 23 29  1  0  0  0  0
 25 26  1  6  0  0  0
 25 31  1  0  0  0  0
 27  7  1  1  0  0  0
 27 28  1  0  0  0  0
 29 30  1  1  0  0  0
 29 33  1  0  0  0  0
 31 32  1  1  0  0  0
 31 35  1  0  0  0  0
 33 34  1  0  0  0  0
 33 37  1  6  0  0  0
 35 36  1  6  0  0  0
 37 38  1  0  0  0  0
M  END
>  <CHROM.1>
-118.77446479,114.28522705,-168.45245497,94.77727202,81.43540649,-86.62191278
75.40089689,-104.87371650,-60.62216642,-97.05578080,-60.52878592,2.61025125
37.50753550,-1.52792309,-2.29300852,-0.54461161,0.49254965

>  <Name>
1ntb_lig

>  <RI>
0

>  <Rbt.Current_Directory>
/home/itssahil/PROJECTS/Mol_Feturizer/New_Systems/rnas/1ntb

>  <Rbt.Executable>
rbdock ($Id: //depot/dev/client3/rdock/2013.1/src/exe/rbdock.cxx#4 $)

>  <Rbt.Library>
libRbt.so (2013.1, Build901 2013/11/27)

>  <Rbt.Parameter_File>
/export/apps/rDock/src/rDock_2013.1_src/data/scripts/dock_solv.prm

>  <Rbt.Receptor>
prm/pocket_docking_6.prm

>  <SCORE>
-19.7924

>  <SCORE.INTER>
-10.3589

>  <SCORE.INTER.CONST>
1

>  <SCORE.INTER.POLAR>
-0.72111

>  <SCORE.INTER.ROT>
11

>  <SCORE.INTER.SOLV>
18.227

>  <SCORE.INTER.VDW>
-21.5112

>  <SCORE.INTER.norm>
-0.258972

>  <SCORE.INTRA>
-9.43352

>  <SCORE.INTRA.DIHEDRAL>
-0.550391

>  <SCORE.INTRA.DIHEDRAL.0>
15.4453

>  <SCORE.INTRA.POLAR>
0

>  <SCORE.INTRA.POLAR.0>
0

>  <SCORE.INTRA.REPUL>
-0.823958

>  <SCORE.INTRA.REPUL.0>
0.823958

>  <SCORE.INTRA.SOLV>
0.566976

>  <SCORE.INTRA.SOLV.lig_0>
-99.3069

>  <SCORE.INTRA.VDW>
-5.32202

>  <SCORE.INTRA.VDW.0>
0.946495

>  <SCORE.INTRA.norm>
-0.235838

>  <SCORE.RESTR>
0

>  <SCORE.RESTR.CAVITY>
0

>  <SCORE.RESTR.norm>
0

>  <SCORE.SYSTEM>
0

>  <SCORE.SYSTEM.CONST>
0

>  <SCORE.SYSTEM.DIHEDRAL>
0

>  <SCORE.SYSTEM.SOLV>
0

>  <SCORE.SYSTEM.norm>
0

>  <SCORE.heavy>
40

>  <SCORE.norm>
-0.49481

>  <RMSD>
7.521

$$$$
1ntb_lig
 OpenBabel11021811403D
libRbt.so/2013.1/901 2013/11/27
 40 42  0  0  0  0  0  0  0  0999 V2000
    4.8496   45.1162   -4.2833 C   0  0  0  0  0  0  0  0  0  0  0  0
    4.0301   45.8394   -4.9433 N   0  0  0  0  0  0  0  0  0  0  0  0
    5.2755   35.6525    0.4805 C   0  0  0  0  0  0  0  0  0  0  0  0
    5.5457   35.6170   -0.9110 O   0  0  0  0  0  0  0  0  0  0  0  0
    0.4244   41.2109   -1.8266 C   0  0  0  0  0  0  0  0  0  0  0  0
    0.2222   40.2782   -2.6876 N   0  0  0  0  0  0  0  0  0  0  0  0
    6.5167   38.2590    1.9791 C   0  0  0  0  0  0  0  0  0  0  0  0
    0.4304   34.3169    2.8766 C   0  0  0  0  0  0  0  0  0  0  0  0
    4.1490   43.2888   -2.9659 C   0  0  2  0  0  0  0  0  0  0  0  0
    4.4562   44.7670   -3.0736 N   0  0  0  0  0  0  0  0  0  0  0  0
    3.7442   38.9525   -0.0674 C   0  0  2  0  0  0  0  0  0  0  0  0
    1.9594   35.8492    0.0199 C   0  0  1  0  0  0  0  0  0  0  0  0
    2.3895   37.1240    0.4604 O   0  0  0  0  0  0  0  0  0  0  0  0
    2.9261   43.0473   -2.0878 C   0  0  1  0  0  0  0  0  0  0  0  0
    1.8294   43.8240   -2.7402 O   0  0  0  0  0  0  0  0  0  0  0  0
    3.6047   37.4412   -0.0471 C   0  0  2  0  0  0  0  0  0  0  0  0
    0.6670   35.5060    0.7202 C   0  0  1  0  0  0  0  0  0  0  0  0
    0.8792   35.4535    2.1237 N   0  0  0  0  0  0  0  0  0  0  0  0
    2.5933   41.5657   -1.9235 C   0  0  2  0  0  0  0  0  0  0  0  0
    1.4359   41.2797   -1.1013 N   0  0  0  0  0  0  0  0  0  0  0  0
    4.7242   37.0067    0.8612 C   0  0  1  0  0  0  0  0  0  0  0  0
    4.2729   36.9891    2.2195 O   0  0  0  0  0  0  0  0  0  0  0  0
   -0.3447   36.5916    0.3934 C   0  0  2  0  0  0  0  0  0  0  0  0
   -1.5731   36.3240    1.0338 O   0  0  0  0  0  0  0  0  0  0  0  0
    3.7920   40.8838   -1.3166 C   0  0  1  0  0  0  0  0  0  0  0  0
    3.4798   39.4640   -1.3694 O   0  0  0  0  0  0  0  0  0  0  0  0
    5.7602   38.0558    0.6919 C   0  0  1  0  0  0  0  0  0  0  0  0
    5.0838   39.2605    0.3253 O   0  0  0  0  0  0  0  0  0  0  0  0
   -0.5239   36.5911   -1.1249 C   0  0  1  0  0  0  0  0  0  0  0  0
   -1.4557   37.5888   -1.5123 O   0  0  0  0  0  0  0  0  0  0  0  0
    5.0346   41.0788   -2.2266 C   0  0  2  0  0  0  0  0  0  0  0  0
    6.1474   40.4176   -1.6446 O   0  0  0  0  0  0  0  0  0  0  0  0
    0.8302   36.8559   -1.7837 C   0  0  1  0  0  0  0  0  0  0  0  0
    1.7658   35.8525   -1.3925 O   0  0  0  0  0  0  0  0  0  0  0  0
    5.3432   42.5828   -2.3565 C   0  0  1  0  0  0  0  0  0  0  0  0
    6.4887   42.7798   -3.1940 O   0  0  0  0  0  0  0  0  0  0  0  0
    0.6576   36.8234   -3.3025 C   0  0  0  0  0  0  0  0  0  0  0  0
    1.8969   37.1344   -3.9187 O   0  0  0  0  0  0  0  0  0  0  0  0
    5.9964   44.7689   -4.7524 N   0  0  0  0  0  0  0  0  0  0  0  0
   -0.3968   42.1398   -1.7287 N   0  0  0  0  0  0  0  0  0  0  0  0
  1  2  1  0  0  0  0
  1 39  1  0  0  0  0
  3  4  1  0  0  0  0
  5  6  1  0  0  0  0
  5 40  1  0  0  0  0
  9 10  1  1  0  0  0
  9 14  1  0  0  0  0
  9 35  1  0  0  0  0
 10  1  1  0  0  0  0
 11 16  1  0  0  0  0
 11 28  1  0  0  0  0
 11 26  1  6  0  0  0
 12 17  1  0  0  0  0
 12 34  1  0  0  0  0
 12 13  1  1  0  0  0
 14 15  1  6  0  0  0
 14 19  1  0  0  0  0
 16 13  1  1  0  0  0
 16 21  1  0  0  0  0
 17 18  1  1  0  0  0
 17 23  1  0  0  0  0
 18  8  1  0  0  0  0
 19 20  1  1  0  0  0
 19 25  1  0  0  0  0
 20  5  1  0  0  0  0
 21  3  1  6  0  0  0
 21 22  1  0  0  0  0
 21 27  1  0  0  0  0
 23 24  1  1  0  0  0
 23 29  1  0  0  0  0
 25 26  1  6  0  0  0
 25 31  1  0  0  0  0
 27  7  1  1  0  0  0
 27 28  1  0  0  0  0
 29 30  1  1  0  0  0
 29 33  1  0  0  0  0
 31 32  1  1  0  0  0
 31 35  1  0  0  0  0
 33 34  1  0  0  0  0
 33 37  1  6  0  0  0
 35 36  1  6  0  0  0
 37 38  1  0  0  0  0
M  END
>  <CHROM.1>
-141.17753128,110.64415067,-173.48368777,174.79699771,155.64416013,-129.81075082
91.83267203,67.92194234,49.00711406,-130.87083969,177.12151082,2.87528597
39.29338271,-1.13936609,1.23829227,-0.19225653,-0.52409414

>  <Name>
1ntb_lig

>  <RI>
0

>  <Rbt.Current_Directory>
/home/itssahil/PROJECTS/Mol_Feturizer/New_Systems/rnas/1ntb

>  <Rbt.Executable>
rbdock ($Id: //depot/dev/client3/rdock/2013.1/src/exe/rbdock.cxx#4 $)

>  <Rbt.Library>
libRbt.so (2013.1, Build901 2013/11/27)

>  <Rbt.Parameter_File>
/export/apps/rDock/src/rDock_2013.1_src/data/scripts/dock_solv.prm

>  <Rbt.Receptor>
prm/pocket_docking_8.prm

>  <SCORE>
-21.0611

>  <SCORE.INTER>
-10.1244

>  <SCORE.INTER.CONST>
1

>  <SCORE.INTER.POLAR>
-1.80993

>  <SCORE.INTER.ROT>
11

>  <SCORE.INTER.SOLV>
17.6153

>  <SCORE.INTER.VDW>
-17.5216

>  <SCORE.INTER.norm>
-0.253109

>  <SCORE.INTRA>
-10.9367

>  <SCORE.INTRA.DIHEDRAL>
-1.76009

>  <SCORE.INTRA.DIHEDRAL.0>
15.4453

>  <SCORE.INTRA.POLAR>
0

>  <SCORE.INTRA.POLAR.0>
0

>  <SCORE.INTRA.REPUL>
-0.823958

>  <SCORE.INTRA.REPUL.0>
0.823958

>  <SCORE.INTRA.SOLV>
0.0139385

>  <SCORE.INTRA.SOLV.lig_0>
-99.3069

>  <SCORE.INTRA.VDW>
-5.94385

>  <SCORE.INTRA.VDW.0>
0.946495

>  <SCORE.INTRA.norm>
-0.273418

>  <SCORE.RESTR>
0

>  <SCORE.RESTR.CAVITY>
0

>  <SCORE.RESTR.norm>
0

>  <SCORE.SYSTEM>
0

>  <SCORE.SYSTEM.CONST>
0

>  <SCORE.SYSTEM.DIHEDRAL>
0

>  <SCORE.SYSTEM.SOLV>
0

>  <SCORE.SYSTEM.norm>
0

>  <SCORE.heavy>
40

>  <SCORE.norm>
-0.526527

>  <RMSD>
7.544

$$$$
1ntb_lig
 OpenBabel11021811403D
libRbt.so/2013.1/901 2013/11/27
 40 42  0  0  0  0  0  0  0  0999 V2000
   -1.1098   36.6208   -9.6497 C   0  0  0  0  0  0  0  0  0  0  0  0
    0.0443   37.0309  -10.0101 N   0  0  0  0  0  0  0  0  0  0  0  0
    1.4455   34.5010   -0.2693 C   0  0  0  0  0  0  0  0  0  0  0  0
    2.1177   33.2860    0.0171 O   0  0  0  0  0  0  0  0  0  0  0  0
    1.4666   39.9604   -5.4424 C   0  0  0  0  0  0  0  0  0  0  0  0
    1.7574   40.7560   -6.4091 N   0  0  0  0  0  0  0  0  0  0  0  0
    2.4061   33.1453   -3.0656 C   0  0  0  0  0  0  0  0  0  0  0  0
    5.5648   37.5263    0.7427 C   0  0  0  0  0  0  0  0  0  0  0  0
   -1.6171   37.6554   -7.5910 C   0  0  2  0  0  0  0  0  0  0  0  0
   -1.8822   37.5228   -9.0753 N   0  0  0  0  0  0  0  0  0  0  0  0
    1.2546   36.4511   -3.3830 C   0  0  2  0  0  0  0  0  0  0  0  0
    2.2841   37.5169   -0.0748 C   0  0  1  0  0  0  0  0  0  0  0  0
    2.2310   37.3994   -1.4845 O   0  0  0  0  0  0  0  0  0  0  0  0
   -0.1942   38.1376   -7.3308 C   0  0  1  0  0  0  0  0  0  0  0  0
   -0.0937   39.4382   -8.0590 O   0  0  0  0  0  0  0  0  0  0  0  0
    1.3727   36.4250   -1.8700 C   0  0  2  0  0  0  0  0  0  0  0  0
    3.3479   38.5249    0.2870 C   0  0  1  0  0  0  0  0  0  0  0  0
    4.6129   38.0780   -0.1791 N   0  0  0  0  0  0  0  0  0  0  0  0
    0.1318   38.2584   -5.8436 C   0  0  2  0  0  0  0  0  0  0  0  0
    1.4714   38.7176   -5.5398 N   0  0  0  0  0  0  0  0  0  0  0  0
    1.9217   35.0504   -1.5937 C   0  0  1  0  0  0  0  0  0  0  0  0
    3.3525   35.0795   -1.6275 O   0  0  0  0  0  0  0  0  0  0  0  0
    2.9902   39.8423   -0.3801 C   0  0  2  0  0  0  0  0  0  0  0  0
    3.9614   40.8212   -0.0816 O   0  0  0  0  0  0  0  0  0  0  0  0
   -0.0647   36.9044   -5.2125 C   0  0  1  0  0  0  0  0  0  0  0  0
    0.0722   37.1360   -3.7829 O   0  0  0  0  0  0  0  0  0  0  0  0
    1.4117   34.2213   -2.7139 C   0  0  1  0  0  0  0  0  0  0  0  0
    1.2181   35.0937   -3.8296 O   0  0  0  0  0  0  0  0  0  0  0  0
    1.6252   40.2620    0.1658 C   0  0  1  0  0  0  0  0  0  0  0  0
    1.2161   41.4891   -0.4179 O   0  0  0  0  0  0  0  0  0  0  0  0
   -1.5251   36.4229   -5.4260 C   0  0  2  0  0  0  0  0  0  0  0  0
   -1.6923   35.1541   -4.8124 O   0  0  0  0  0  0  0  0  0  0  0  0
    0.6066   39.1667   -0.1513 C   0  0  1  0  0  0  0  0  0  0  0  0
    1.0199   37.9337    0.4355 O   0  0  0  0  0  0  0  0  0  0  0  0
   -1.8091   36.3028   -6.9357 C   0  0  1  0  0  0  0  0  0  0  0  0
   -3.1542   35.8588   -7.1499 O   0  0  0  0  0  0  0  0  0  0  0  0
   -0.7515   39.5711    0.4226 C   0  0  0  0  0  0  0  0  0  0  0  0
   -1.3024   40.6092   -0.3720 O   0  0  0  0  0  0  0  0  0  0  0  0
   -1.4906   35.4022   -9.8104 N   0  0  0  0  0  0  0  0  0  0  0  0
    1.2133   40.4311   -4.3195 N   0  0  0  0  0  0  0  0  0  0  0  0
  1  2  1  0  0  0  0
  1 39  1  0  0  0  0
  3  4  1  0  0  0  0
  5  6  1  0  0  0  0
  5 40  1  0  0  0  0
  9 10  1  6  0  0  0
  9 14  1  0  0  0  0
  9 35  1  0  0  0  0
 10  1  1  0  0  0  0
 11 16  1  0  0  0  0
 11 28  1  0  0  0  0
 11 26  1  1  0  0  0
 12 17  1  0  0  0  0
 12 34  1  0  0  0  0
 12 13  1  6  0  0  0
 14 15  1  6  0  0  0
 14 19  1  0  0  0  0
 16 13  1  6  0  0  0
 16 21  1  0  0  0  0
 17 18  1  6  0  0  0
 17 23  1  0  0  0  0
 18  8  1  0  0  0  0
 19 20  1  6  0  0  0
 19 25  1  0  0  0  0
 20  5  1  0  0  0  0
 21  3  1  1  0  0  0
 21 22  1  0  0  0  0
 21 27  1  0  0  0  0
 23 24  1  1  0  0  0
 23 29  1  0  0  0  0
 25 26  1  1  0  0  0
 25 31  1  0  0  0  0
 27  7  1  6  0  0  0
 27 28  1  0  0  0  0
 29 30  1  6  0  0  0
 29 33  1  0  0  0  0
 31 32  1  1  0  0  0
 31 35  1  0  0  0  0
 33 34  1  0  0  0  0
 33 37  1  1  0  0  0
 35 36  1  1  0  0  0
 37 38  1  0  0  0  0
M  END
>  <CHROM.1>
62.82214964,-84.76914362,-170.37986763,174.78370147,174.12832128,-103.84356125
90.92139833,-94.70973871,-172.79754267,-113.51153524,73.36334867,0.89435376
37.48635452,-3.49526910,-2.98134485,-1.14500703,0.04255423

>  <Name>
1ntb_lig

>  <RI>
0

>  <Rbt.Current_Directory>
/home/itssahil/PROJECTS/Mol_Feturizer/New_Systems/rnas/1ntb

>  <Rbt.Executable>
rbdock ($Id: //depot/dev/client3/rdock/2013.1/src/exe/rbdock.cxx#4 $)

>  <Rbt.Library>
libRbt.so (2013.1, Build901 2013/11/27)

>  <Rbt.Parameter_File>
/export/apps/rDock/src/rDock_2013.1_src/data/scripts/dock_solv.prm

>  <Rbt.Receptor>
prm/pocket_docking_6.prm

>  <SCORE>
-10.8274

>  <SCORE.INTER>
-1.33049

>  <SCORE.INTER.CONST>
1

>  <SCORE.INTER.POLAR>
-0.648719

>  <SCORE.INTER.ROT>
11

>  <SCORE.INTER.SOLV>
8.97256

>  <SCORE.INTER.VDW>
-12.6488

>  <SCORE.INTER.norm>
-0.0332621

>  <SCORE.INTRA>
-9.49688

>  <SCORE.INTRA.DIHEDRAL>
-3.81809

>  <SCORE.INTRA.DIHEDRAL.0>
15.4453

>  <SCORE.INTRA.POLAR>
0

>  <SCORE.INTRA.POLAR.0>
0

>  <SCORE.INTRA.REPUL>
-0.823958

>  <SCORE.INTRA.REPUL.0>
0.823958

>  <SCORE.INTRA.SOLV>
0.281664

>  <SCORE.INTRA.SOLV.lig_0>
-99.3069

>  <SCORE.INTRA.VDW>
-3.60888

>  <SCORE.INTRA.VDW.0>
0.946495

>  <SCORE.INTRA.norm>
-0.237422

>  <SCORE.RESTR>
0

>  <SCORE.RESTR.CAVITY>
0

>  <SCORE.RESTR.norm>
0

>  <SCORE.SYSTEM>
0

>  <SCORE.SYSTEM.CONST>
0

>  <SCORE.SYSTEM.DIHEDRAL>
0

>  <SCORE.SYSTEM.SOLV>
0

>  <SCORE.SYSTEM.norm>
0

>  <SCORE.heavy>
40

>  <SCORE.norm>
-0.270684

>  <RMSD>
7.562

$$$$
1ntb_lig
 OpenBabel11021811403D
libRbt.so/2013.1/901 2013/11/27
 40 42  0  0  0  0  0  0  0  0999 V2000
   -3.2403   35.0289   -5.9240 C   0  0  0  0  0  0  0  0  0  0  0  0
   -3.5705   33.7971   -5.9862 N   0  0  0  0  0  0  0  0  0  0  0  0
    1.5142   38.8232    1.5627 C   0  0  0  0  0  0  0  0  0  0  0  0
    2.8114   39.2228    1.1529 O   0  0  0  0  0  0  0  0  0  0  0  0
    0.8548   39.8125   -4.6339 C   0  0  0  0  0  0  0  0  0  0  0  0
   -0.2375   40.2000   -5.1896 N   0  0  0  0  0  0  0  0  0  0  0  0
   -0.5569   40.3507   -0.4265 C   0  0  0  0  0  0  0  0  0  0  0  0
   -0.5390   35.4140    3.5262 C   0  0  0  0  0  0  0  0  0  0  0  0
   -1.2053   35.8983   -5.1062 C   0  0  2  0  0  0  0  0  0  0  0  0
   -1.9925   35.3025   -6.2534 N   0  0  0  0  0  0  0  0  0  0  0  0
    0.9305   37.4839   -1.8137 C   0  0  2  0  0  0  0  0  0  0  0  0
    1.5727   35.5134    1.1111 C   0  0  1  0  0  0  0  0  0  0  0  0
    0.8351   36.0516    0.0292 O   0  0  0  0  0  0  0  0  0  0  0  0
   -0.3024   37.0273   -5.5909 C   0  0  1  0  0  0  0  0  0  0  0  0
   -1.2295   38.0076   -6.2323 O   0  0  0  0  0  0  0  0  0  0  0  0
    1.3390   37.2432   -0.3718 C   0  0  2  0  0  0  0  0  0  0  0  0
    0.7862   34.3749    1.7141 C   0  0  1  0  0  0  0  0  0  0  0  0
   -0.4563   34.8557    2.2065 N   0  0  0  0  0  0  0  0  0  0  0  0
    0.5367   37.6417   -4.4724 C   0  0  2  0  0  0  0  0  0  0  0  0
    1.4102   38.7234   -4.8779 N   0  0  0  0  0  0  0  0  0  0  0  0
    0.7054   38.3966    0.3600 C   0  0  1  0  0  0  0  0  0  0  0  0
   -0.6246   38.0502    0.7603 O   0  0  0  0  0  0  0  0  0  0  0  0
    0.5433   33.3450    0.6237 C   0  0  2  0  0  0  0  0  0  0  0  0
   -0.1998   32.2593    1.1332 O   0  0  0  0  0  0  0  0  0  0  0  0
    1.3782   36.5481   -3.8672 C   0  0  1  0  0  0  0  0  0  0  0  0
    1.9962   37.1563   -2.6991 O   0  0  0  0  0  0  0  0  0  0  0  0
    0.6572   39.4859   -0.6468 C   0  0  1  0  0  0  0  0  0  0  0  0
    0.5917   38.8674   -1.9338 O   0  0  0  0  0  0  0  0  0  0  0  0
    1.9156   32.8728    0.1431 C   0  0  1  0  0  0  0  0  0  0  0  0
    1.7726   31.9073   -0.8870 O   0  0  0  0  0  0  0  0  0  0  0  0
    0.4685   35.4137   -3.3232 C   0  0  2  0  0  0  0  0  0  0  0  0
    1.2792   34.4022   -2.7457 O   0  0  0  0  0  0  0  0  0  0  0  0
    2.7010   34.0781   -0.3749 C   0  0  1  0  0  0  0  0  0  0  0  0
    2.8430   35.0479    0.6617 O   0  0  0  0  0  0  0  0  0  0  0  0
   -0.3504   34.8138   -4.4825 C   0  0  1  0  0  0  0  0  0  0  0  0
   -1.1958   33.7643   -3.9966 O   0  0  0  0  0  0  0  0  0  0  0  0
    4.0854   33.6114   -0.8257 C   0  0  0  0  0  0  0  0  0  0  0  0
    4.8324   34.7322   -1.2709 O   0  0  0  0  0  0  0  0  0  0  0  0
   -4.0592   35.9446   -5.5412 N   0  0  0  0  0  0  0  0  0  0  0  0
    1.4399   40.5723   -3.8421 N   0  0  0  0  0  0  0  0  0  0  0  0
  1  2  1  0  0  0  0
  1 39  1  0  0  0  0
  3  4  1  0  0  0  0
  5  6  1  0  0  0  0
  5 40  1  0  0  0  0
  9 10  1  6  0  0  0
  9 14  1  0  0  0  0
  9 35  1  0  0  0  0
 10  1  1  0  0  0  0
 11 16  1  0  0  0  0
 11 28  1  0  0  0  0
 11 26  1  6  0  0  0
 12 17  1  0  0  0  0
 12 34  1  0  0  0  0
 12 13  1  6  0  0  0
 14 15  1  1  0  0  0
 14 19  1  0  0  0  0
 16 13  1  1  0  0  0
 16 21  1  0  0  0  0
 17 18  1  6  0  0  0
 17 23  1  0  0  0  0
 18  8  1  0  0  0  0
 19 20  1  6  0  0  0
 19 25  1  0  0  0  0
 20  5  1  0  0  0  0
 21  3  1  1  0  0  0
 21 22  1  0  0  0  0
 21 27  1  0  0  0  0
 23 24  1  1  0  0  0
 23 29  1  0  0  0  0
 25 26  1  1  0  0  0
 25 31  1  0  0  0  0
 27  7  1  1  0  0  0
 27 28  1  0  0  0  0
 29 30  1  6  0  0  0
 29 33  1  0  0  0  0
 31 32  1  6  0  0  0
 31 35  1  0  0  0  0
 33 34  1  0  0  0  0
 33 37  1  1  0  0  0
 35 36  1  1  0  0  0
 37 38  1  0  0  0  0
M  END
>  <CHROM.1>
-139.49173835,-117.54862618,142.47407449,166.84747145,156.62514439,-85.36504562
97.37012777,-63.50696660,59.82334396,64.04337392,-178.30691690,0.52267238
36.28523644,-1.91749512,2.59066333,-1.11414143,-0.30557405

>  <Name>
1ntb_lig

>  <RI>
0

>  <Rbt.Current_Directory>
/home/itssahil/PROJECTS/Mol_Feturizer/New_Systems/rnas/1ntb

>  <Rbt.Executable>
rbdock ($Id: //depot/dev/client3/rdock/2013.1/src/exe/rbdock.cxx#4 $)

>  <Rbt.Library>
libRbt.so (2013.1, Build901 2013/11/27)

>  <Rbt.Parameter_File>
/export/apps/rDock/src/rDock_2013.1_src/data/scripts/dock_solv.prm

>  <Rbt.Receptor>
prm/pocket_docking_4.prm

>  <SCORE>
-8.05228

>  <SCORE.INTER>
-1.09764

>  <SCORE.INTER.CONST>
1

>  <SCORE.INTER.POLAR>
-0.72111

>  <SCORE.INTER.ROT>
11

>  <SCORE.INTER.SOLV>
8.77873

>  <SCORE.INTER.VDW>
-12.1876

>  <SCORE.INTER.norm>
-0.027441

>  <SCORE.INTRA>
-6.95464

>  <SCORE.INTRA.DIHEDRAL>
-3.66921

>  <SCORE.INTRA.DIHEDRAL.0>
15.4453

>  <SCORE.INTRA.POLAR>
0

>  <SCORE.INTRA.POLAR.0>
0

>  <SCORE.INTRA.REPUL>
-0.823958

>  <SCORE.INTRA.REPUL.0>
0.823958

>  <SCORE.INTRA.SOLV>
2.0745

>  <SCORE.INTRA.SOLV.lig_0>
-99.3069

>  <SCORE.INTRA.VDW>
-2.0375

>  <SCORE.INTRA.VDW.0>
0.946495

>  <SCORE.INTRA.norm>
-0.173866

>  <SCORE.RESTR>
0

>  <SCORE.RESTR.CAVITY>
0

>  <SCORE.RESTR.norm>
0

>  <SCORE.SYSTEM>
0

>  <SCORE.SYSTEM.CONST>
0

>  <SCORE.SYSTEM.DIHEDRAL>
0

>  <SCORE.SYSTEM.SOLV>
0

>  <SCORE.SYSTEM.norm>
0

>  <SCORE.heavy>
40

>  <SCORE.norm>
-0.201307

>  <RMSD>
7.578

$$$$
1ntb_lig
 OpenBabel11021811403D
libRbt.so/2013.1/901 2013/11/27
 40 42  0  0  0  0  0  0  0  0999 V2000
   -2.0083   32.7578    2.3140 C   0  0  0  0  0  0  0  0  0  0  0  0
   -2.7336   32.7633    3.3648 N   0  0  0  0  0  0  0  0  0  0  0  0
    4.7945   41.1463    0.0554 C   0  0  0  0  0  0  0  0  0  0  0  0
    6.1857   41.3237    0.2635 O   0  0  0  0  0  0  0  0  0  0  0  0
    2.8140   34.9586   -0.5427 C   0  0  0  0  0  0  0  0  0  0  0  0
    3.7253   35.2046    0.3297 N   0  0  0  0  0  0  0  0  0  0  0  0
    6.1222   38.3723    1.1148 C   0  0  0  0  0  0  0  0  0  0  0  0
    2.6944   42.5805   -3.6407 C   0  0  0  0  0  0  0  0  0  0  0  0
   -0.4918   34.5116    1.8780 C   0  0  2  0  0  0  0  0  0  0  0  0
   -0.7596   33.1491    2.4805 N   0  0  0  0  0  0  0  0  0  0  0  0
    2.7774   38.0697    0.0774 C   0  0  2  0  0  0  0  0  0  0  0  0
    1.6284   40.0581   -2.1979 C   0  0  1  0  0  0  0  0  0  0  0  0
    2.8309   39.4019   -1.8408 O   0  0  0  0  0  0  0  0  0  0  0  0
    0.5803   34.4299    0.7969 C   0  0  1  0  0  0  0  0  0  0  0  0
    0.0467   33.4489   -0.1954 O   0  0  0  0  0  0  0  0  0  0  0  0
    3.0432   39.4465   -0.5037 C   0  0  2  0  0  0  0  0  0  0  0  0
    1.6518   40.3375   -3.6812 C   0  0  1  0  0  0  0  0  0  0  0  0
    2.7441   41.1900   -3.9933 N   0  0  0  0  0  0  0  0  0  0  0  0
    0.9081   35.7874    0.1785 C   0  0  2  0  0  0  0  0  0  0  0  0
    1.9186   35.7663   -0.8588 N   0  0  0  0  0  0  0  0  0  0  0  0
    4.4926   39.6835   -0.1721 C   0  0  1  0  0  0  0  0  0  0  0  0
    5.3240   39.1672   -1.2168 O   0  0  0  0  0  0  0  0  0  0  0  0
    1.8119   39.0109   -4.4045 C   0  0  2  0  0  0  0  0  0  0  0  0
    1.8498   39.2162   -5.7999 O   0  0  0  0  0  0  0  0  0  0  0  0
    1.3739   36.7015    1.2820 C   0  0  1  0  0  0  0  0  0  0  0  0
    1.4798   38.0125    0.6605 O   0  0  0  0  0  0  0  0  0  0  0  0
    4.7142   38.9073    1.0733 C   0  0  1  0  0  0  0  0  0  0  0  0
    3.7789   37.8264    1.0680 O   0  0  0  0  0  0  0  0  0  0  0  0
    0.6078   38.1485   -4.0253 C   0  0  1  0  0  0  0  0  0  0  0  0
    0.6878   36.8822   -4.6607 O   0  0  0  0  0  0  0  0  0  0  0  0
    0.2708   36.8343    2.3664 C   0  0  2  0  0  0  0  0  0  0  0  0
    0.7237   37.7094    3.3877 O   0  0  0  0  0  0  0  0  0  0  0  0
    0.5838   37.9713   -2.5068 C   0  0  1  0  0  0  0  0  0  0  0  0
    0.5042   39.2453   -1.8698 O   0  0  0  0  0  0  0  0  0  0  0  0
   -0.0210   35.4479    2.9723 C   0  0  1  0  0  0  0  0  0  0  0  0
   -1.0378   35.5534    3.9759 O   0  0  0  0  0  0  0  0  0  0  0  0
   -0.6382   37.1360   -2.1242 C   0  0  0  0  0  0  0  0  0  0  0  0
   -1.8140   37.8180   -2.5300 O   0  0  0  0  0  0  0  0  0  0  0  0
   -2.4667   32.4182    1.1606 N   0  0  0  0  0  0  0  0  0  0  0  0
    2.8354   33.8793   -1.1602 N   0  0  0  0  0  0  0  0  0  0  0  0
  1  2  1  0  0  0  0
  1 39  1  0  0  0  0
  3  4  1  0  0  0  0
  5  6  1  0  0  0  0
  5 40  1  0  0  0  0
  9 10  1  1  0  0  0
  9 14  1  0  0  0  0
  9 35  1  0  0  0  0
 10  1  1  0  0  0  0
 11 16  1  0  0  0  0
 11 28  1  0  0  0  0
 11 26  1  1  0  0  0
 12 17  1  0  0  0  0
 12 34  1  0  0  0  0
 12 13  1  6  0  0  0
 14 15  1  6  0  0  0
 14 19  1  0  0  0  0
 16 13  1  6  0  0  0
 16 21  1  0  0  0  0
 17 18  1  1  0  0  0
 17 23  1  0  0  0  0
 18  8  1  0  0  0  0
 19 20  1  6  0  0  0
 19 25  1  0  0  0  0
 20  5  1  0  0  0  0
 21  3  1  1  0  0  0
 21 22  1  0  0  0  0
 21 27  1  0  0  0  0
 23 24  1  6  0  0  0
 23 29  1  0  0  0  0
 25 26  1  6  0  0  0
 25 31  1  0  0  0  0
 27  7  1  6  0  0  0
 27 28  1  0  0  0  0
 29 30  1  6  0  0  0
 29 33  1  0  0  0  0
 31 32  1  1  0  0  0
 31 35  1  0  0  0  0
 33 34  1  0  0  0  0
 33 37  1  6  0  0  0
 35 36  1  1  0  0  0
 37 38  1  0  0  0  0
M  END
>  <CHROM.1>
-119.34802189,-108.06073956,-175.25269546,163.25185004,106.53010231,-73.41781876
-38.88385700,-76.90230080,-175.62520737,-85.98867740,-60.99137196,1.60260205
37.34399362,-0.44811833,2.22212387,0.66521487,2.08017547

>  <Name>
1ntb_lig

>  <RI>
0

>  <Rbt.Current_Directory>
/home/itssahil/PROJECTS/Mol_Feturizer/New_Systems/rnas/1ntb

>  <Rbt.Executable>
rbdock ($Id: //depot/dev/client3/rdock/2013.1/src/exe/rbdock.cxx#4 $)

>  <Rbt.Library>
libRbt.so (2013.1, Build901 2013/11/27)

>  <Rbt.Parameter_File>
/export/apps/rDock/src/rDock_2013.1_src/data/scripts/dock_solv.prm

>  <Rbt.Receptor>
prm/pocket_docking_5.prm

>  <SCORE>
-8.44476

>  <SCORE.INTER>
-2.35389

>  <SCORE.INTER.CONST>
1

>  <SCORE.INTER.POLAR>
-0.524994

>  <SCORE.INTER.ROT>
11

>  <SCORE.INTER.SOLV>
12.7463

>  <SCORE.INTER.VDW>
-15.0014

>  <SCORE.INTER.norm>
-0.0588473

>  <SCORE.INTRA>
-6.12091

>  <SCORE.INTRA.DIHEDRAL>
-1.94071

>  <SCORE.INTRA.DIHEDRAL.0>
15.4453

>  <SCORE.INTRA.POLAR>
0

>  <SCORE.INTRA.POLAR.0>
0

>  <SCORE.INTRA.REPUL>
-0.823958

>  <SCORE.INTRA.REPUL.0>
0.823958

>  <SCORE.INTRA.SOLV>
2.9349

>  <SCORE.INTRA.SOLV.lig_0>
-99.3069

>  <SCORE.INTRA.VDW>
-2.49822

>  <SCORE.INTRA.VDW.0>
0.946495

>  <SCORE.INTRA.norm>
-0.153023

>  <SCORE.RESTR>
0.030047

>  <SCORE.RESTR.CAVITY>
0.030047

>  <SCORE.RESTR.norm>
0.000751174

>  <SCORE.SYSTEM>
0

>  <SCORE.SYSTEM.CONST>
0

>  <SCORE.SYSTEM.DIHEDRAL>
0

>  <SCORE.SYSTEM.SOLV>
0

>  <SCORE.SYSTEM.norm>
0

>  <SCORE.heavy>
40

>  <SCORE.norm>
-0.211119

>  <RMSD>
7.597

$$$$
1ntb_lig
 OpenBabel11021811403D
libRbt.so/2013.1/901 2013/11/27
 40 42  0  0  0  0  0  0  0  0999 V2000
    4.9081   45.2364   -4.2887 C   0  0  0  0  0  0  0  0  0  0  0  0
    6.0699   44.8737   -4.6744 N   0  0  0  0  0  0  0  0  0  0  0  0
    5.3512   35.8405    0.0387 C   0  0  0  0  0  0  0  0  0  0  0  0
    4.4639   34.7778    0.3447 O   0  0  0  0  0  0  0  0  0  0  0  0
    0.3407   41.8488   -1.4762 C   0  0  0  0  0  0  0  0  0  0  0  0
   -0.3996   42.8950   -1.3790 N   0  0  0  0  0  0  0  0  0  0  0  0
    6.6584   38.3848    1.5873 C   0  0  0  0  0  0  0  0  0  0  0  0
    0.8695   34.1217    2.4964 C   0  0  0  0  0  0  0  0  0  0  0  0
    4.1452   43.4627   -2.9329 C   0  0  2  0  0  0  0  0  0  0  0  0
    4.5880   44.9052   -3.0525 N   0  0  0  0  0  0  0  0  0  0  0  0
    3.6578   39.1037   -0.0965 C   0  0  2  0  0  0  0  0  0  0  0  0
    1.9491   35.9760   -0.1168 C   0  0  1  0  0  0  0  0  0  0  0  0
    2.4317   37.1875    0.4341 O   0  0  0  0  0  0  0  0  0  0  0  0
    2.9835   43.3269   -1.9547 C   0  0  1  0  0  0  0  0  0  0  0  0
    1.9182   44.2198   -2.5023 O   0  0  0  0  0  0  0  0  0  0  0  0
    3.5729   37.5903   -0.1742 C   0  0  2  0  0  0  0  0  0  0  0  0
    0.6394   35.6296    0.5489 C   0  0  1  0  0  0  0  0  0  0  0  0
    0.8415   35.4456    1.9426 N   0  0  0  0  0  0  0  0  0  0  0  0
    2.5198   41.8827   -1.7766 C   0  0  2  0  0  0  0  0  0  0  0  0
    1.4138   41.6972   -0.8600 N   0  0  0  0  0  0  0  0  0  0  0  0
    4.7987   37.1403    0.5755 C   0  0  1  0  0  0  0  0  0  0  0  0
    4.4986   37.0081    1.9689 O   0  0  0  0  0  0  0  0  0  0  0  0
   -0.3226   36.7825    0.3166 C   0  0  2  0  0  0  0  0  0  0  0  0
   -1.5649   36.5139    0.9292 O   0  0  0  0  0  0  0  0  0  0  0  0
    3.6917   41.0750   -1.2822 C   0  0  1  0  0  0  0  0  0  0  0  0
    3.2360   39.6941   -1.3215 O   0  0  0  0  0  0  0  0  0  0  0  0
    5.7738   38.2411    0.3760 C   0  0  1  0  0  0  0  0  0  0  0  0
    5.0208   39.4392    0.1739 O   0  0  0  0  0  0  0  0  0  0  0  0
   -0.4936   36.9224   -1.1962 C   0  0  1  0  0  0  0  0  0  0  0  0
   -1.3792   37.9897   -1.4963 O   0  0  0  0  0  0  0  0  0  0  0  0
    4.8656   41.1631   -2.2944 C   0  0  2  0  0  0  0  0  0  0  0  0
    5.9523   40.3850   -1.8171 O   0  0  0  0  0  0  0  0  0  0  0  0
    0.8742   37.1844   -1.8272 C   0  0  1  0  0  0  0  0  0  0  0  0
    1.7635   36.1109   -1.5238 O   0  0  0  0  0  0  0  0  0  0  0  0
    5.3105   42.6315   -2.4359 C   0  0  1  0  0  0  0  0  0  0  0  0
    6.3945   42.7299   -3.3674 O   0  0  0  0  0  0  0  0  0  0  0  0
    0.7085   37.2922   -3.3433 C   0  0  0  0  0  0  0  0  0  0  0  0
    1.9780   37.5159   -3.9357 O   0  0  0  0  0  0  0  0  0  0  0  0
    4.0889   45.8617   -5.0591 N   0  0  0  0  0  0  0  0  0  0  0  0
   -0.0389   40.8954   -2.1787 N   0  0  0  0  0  0  0  0  0  0  0  0
  1  2  1  0  0  0  0
  1 39  1  0  0  0  0
  3  4  1  0  0  0  0
  5  6  1  0  0  0  0
  5 40  1  0  0  0  0
  9 10  1  1  0  0  0
  9 14  1  0  0  0  0
  9 35  1  0  0  0  0
 10  1  1  0  0  0  0
 11 16  1  0  0  0  0
 11 28  1  0  0  0  0
 11 26  1  6  0  0  0
 12 17  1  0  0  0  0
 12 34  1  0  0  0  0
 12 13  1  1  0  0  0
 14 15  1  6  0  0  0
 14 19  1  0  0  0  0
 16 13  1  1  0  0  0
 16 21  1  0  0  0  0
 17 18  1  1  0  0  0
 17 23  1  0  0  0  0
 18  8  1  0  0  0  0
 19 20  1  1  0  0  0
 19 25  1  0  0  0  0
 20  5  1  0  0  0  0
 21  3  1  6  0  0  0
 21 22  1  0  0  0  0
 21 27  1  0  0  0  0
 23 24  1  1  0  0  0
 23 29  1  0  0  0  0
 25 26  1  6  0  0  0
 25 31  1  0  0  0  0
 27  7  1  1  0  0  0
 27 28  1  0  0  0  0
 29 30  1  1  0  0  0
 29 33  1  0  0  0  0
 31 32  1  1  0  0  0
 31 35  1  0  0  0  0
 33 34  1  0  0  0  0
 33 37  1  6  0  0  0
 35 36  1  6  0  0  0
 37 38  1  0  0  0  0
M  END
>  <CHROM.1>
-141.08461990,-79.84275912,-164.81330955,-176.73011010,151.54105035,-103.86439960
86.52930784,-104.78520055,-69.41755676,-135.63409539,-179.15185490,2.85228135
39.47344335,-1.15033156,-1.27308006,0.12647051,2.66428587

>  <Name>
1ntb_lig

>  <RI>
0

>  <Rbt.Current_Directory>
/home/itssahil/PROJECTS/Mol_Feturizer/New_Systems/rnas/1ntb

>  <Rbt.Executable>
rbdock ($Id: //depot/dev/client3/rdock/2013.1/src/exe/rbdock.cxx#4 $)

>  <Rbt.Library>
libRbt.so (2013.1, Build901 2013/11/27)

>  <Rbt.Parameter_File>
/export/apps/rDock/src/rDock_2013.1_src/data/scripts/dock_solv.prm

>  <Rbt.Receptor>
prm/pocket_docking_8.prm

>  <SCORE>
-19.7823

>  <SCORE.INTER>
-10.7409

>  <SCORE.INTER.CONST>
1

>  <SCORE.INTER.POLAR>
-1.85422

>  <SCORE.INTER.ROT>
11

>  <SCORE.INTER.SOLV>
16.1915

>  <SCORE.INTER.VDW>
-17.3103

>  <SCORE.INTER.norm>
-0.268523

>  <SCORE.INTRA>
-9.0414

>  <SCORE.INTRA.DIHEDRAL>
-1.24541

>  <SCORE.INTRA.DIHEDRAL.0>
15.4453

>  <SCORE.INTRA.POLAR>
0

>  <SCORE.INTRA.POLAR.0>
0

>  <SCORE.INTRA.REPUL>
-0.823958

>  <SCORE.INTRA.REPUL.0>
0.823958

>  <SCORE.INTRA.SOLV>
-0.104709

>  <SCORE.INTRA.SOLV.lig_0>
-99.3069

>  <SCORE.INTRA.VDW>
-4.24656

>  <SCORE.INTRA.VDW.0>
0.946495

>  <SCORE.INTRA.norm>
-0.226035

>  <SCORE.RESTR>
0

>  <SCORE.RESTR.CAVITY>
0

>  <SCORE.RESTR.norm>
0

>  <SCORE.SYSTEM>
0

>  <SCORE.SYSTEM.CONST>
0

>  <SCORE.SYSTEM.DIHEDRAL>
0

>  <SCORE.SYSTEM.SOLV>
0

>  <SCORE.SYSTEM.norm>
0

>  <SCORE.heavy>
40

>  <SCORE.norm>
-0.494558

>  <RMSD>
7.608

$$$$
1ntb_lig
 OpenBabel11021811403D
libRbt.so/2013.1/901 2013/11/27
 40 42  0  0  0  0  0  0  0  0999 V2000
    0.6119   32.5662   -2.8772 C   0  0  0  0  0  0  0  0  0  0  0  0
   -0.4104   31.9696   -2.3985 N   0  0  0  0  0  0  0  0  0  0  0  0
    1.8750   42.6781    1.1175 C   0  0  0  0  0  0  0  0  0  0  0  0
    1.4713   43.5743    2.1393 O   0  0  0  0  0  0  0  0  0  0  0  0
    1.1239   38.6938   -3.9331 C   0  0  0  0  0  0  0  0  0  0  0  0
    0.4443   39.7587   -3.6961 N   0  0  0  0  0  0  0  0  0  0  0  0
   -0.5382   41.4171    2.8970 C   0  0  0  0  0  0  0  0  0  0  0  0
    3.2187   41.5797   -2.9917 C   0  0  0  0  0  0  0  0  0  0  0  0
    0.7694   34.6691   -1.8194 C   0  0  2  0  0  0  0  0  0  0  0  0
    1.3171   33.2715   -2.0139 N   0  0  0  0  0  0  0  0  0  0  0  0
    0.7994   39.2131    0.5076 C   0  0  2  0  0  0  0  0  0  0  0  0
    3.7042   39.1475   -0.3941 C   0  0  1  0  0  0  0  0  0  0  0  0
    3.0731   39.6907    0.7508 O   0  0  0  0  0  0  0  0  0  0  0  0
    1.6038   35.6940   -2.5799 C   0  0  1  0  0  0  0  0  0  0  0  0
    1.5567   35.2427   -4.0033 O   0  0  0  0  0  0  0  0  0  0  0  0
    1.8884   40.2682    0.4382 C   0  0  2  0  0  0  0  0  0  0  0  0
    4.3089   40.2756   -1.1943 C   0  0  1  0  0  0  0  0  0  0  0  0
    3.2872   41.1662   -1.6189 N   0  0  0  0  0  0  0  0  0  0  0  0
    1.1076   37.1259   -2.3900 C   0  0  2  0  0  0  0  0  0  0  0  0
    1.8630   38.1404   -3.0955 N   0  0  0  0  0  0  0  0  0  0  0  0
    1.4600   41.2705    1.4769 C   0  0  1  0  0  0  0  0  0  0  0  0
    1.9973   40.9110    2.7541 O   0  0  0  0  0  0  0  0  0  0  0  0
    5.2917   41.0103   -0.2982 C   0  0  2  0  0  0  0  0  0  0  0  0
    5.8808   42.0853   -0.9966 O   0  0  0  0  0  0  0  0  0  0  0  0
    1.1441   37.4397   -0.9168 C   0  0  1  0  0  0  0  0  0  0  0  0
    0.4840   38.7302   -0.7940 O   0  0  0  0  0  0  0  0  0  0  0  0
   -0.0194   41.1564    1.5065 C   0  0  1  0  0  0  0  0  0  0  0  0
   -0.3474   39.8252    1.1024 O   0  0  0  0  0  0  0  0  0  0  0  0
    6.3581   39.9971    0.1183 C   0  0  1  0  0  0  0  0  0  0  0  0
    7.3160   40.6095    0.9675 O   0  0  0  0  0  0  0  0  0  0  0  0
    0.2572   36.4338   -0.1347 C   0  0  2  0  0  0  0  0  0  0  0  0
    0.2943   36.7556    1.2471 O   0  0  0  0  0  0  0  0  0  0  0  0
    5.6806   38.8355    0.8461 C   0  0  1  0  0  0  0  0  0  0  0  0
    4.7175   38.2217   -0.0088 O   0  0  0  0  0  0  0  0  0  0  0  0
    0.7975   35.0058   -0.3424 C   0  0  1  0  0  0  0  0  0  0  0  0
   -0.0108   34.0646    0.3739 O   0  0  0  0  0  0  0  0  0  0  0  0
    6.7426   37.8065    1.2344 C   0  0  0  0  0  0  0  0  0  0  0  0
    7.6248   38.3835    2.1838 O   0  0  0  0  0  0  0  0  0  0  0  0
    0.9242   32.5078   -4.1241 N   0  0  0  0  0  0  0  0  0  0  0  0
    1.0148   38.1332   -5.0378 N   0  0  0  0  0  0  0  0  0  0  0  0
  1  2  1  0  0  0  0
  1 39  1  0  0  0  0
  3  4  1  0  0  0  0
  5  6  1  0  0  0  0
  5 40  1  0  0  0  0
  9 10  1  1  0  0  0
  9 14  1  0  0  0  0
  9 35  1  0  0  0  0
 10  1  1  0  0  0  0
 11 16  1  0  0  0  0
 11 28  1  0  0  0  0
 11 26  1  6  0  0  0
 12 17  1  0  0  0  0
 12 34  1  0  0  0  0
 12 13  1  1  0  0  0
 14 15  1  6  0  0  0
 14 19  1  0  0  0  0
 16 13  1  1  0  0  0
 16 21  1  0  0  0  0
 17 18  1  1  0  0  0
 17 23  1  0  0  0  0
 18  8  1  0  0  0  0
 19 20  1  6  0  0  0
 19 25  1  0  0  0  0
 20  5  1  0  0  0  0
 21  3  1  6  0  0  0
 21 22  1  0  0  0  0
 21 27  1  0  0  0  0
 23 24  1  6  0  0  0
 23 29  1  0  0  0  0
 25 26  1  6  0  0  0
 25 31  1  0  0  0  0
 27  7  1  1  0  0  0
 27 28  1  0  0  0  0
 29 30  1  1  0  0  0
 29 33  1  0  0  0  0
 31 32  1  1  0  0  0
 31 35  1  0  0  0  0
 33 34  1  0  0  0  0
 33 37  1  6  0  0  0
 35 36  1  1  0  0  0
 37 38  1  0  0  0  0
M  END
>  <CHROM.1>
-102.58300474,-84.99068818,102.15438793,76.33354081,88.21190938,-130.92696803
116.78419093,92.29782623,-178.83327927,-165.44632715,65.36766562,2.29219918
38.42214940,-0.60239889,-1.97859462,0.04888263,0.47904418

>  <Name>
1ntb_lig

>  <RI>
0

>  <Rbt.Current_Directory>
/home/itssahil/PROJECTS/Mol_Feturizer/New_Systems/rnas/1ntb

>  <Rbt.Executable>
rbdock ($Id: //depot/dev/client3/rdock/2013.1/src/exe/rbdock.cxx#4 $)

>  <Rbt.Library>
libRbt.so (2013.1, Build901 2013/11/27)

>  <Rbt.Parameter_File>
/export/apps/rDock/src/rDock_2013.1_src/data/scripts/dock_solv.prm

>  <Rbt.Receptor>
prm/pocket_docking_8.prm

>  <SCORE>
-14.0927

>  <SCORE.INTER>
-5.9559

>  <SCORE.INTER.CONST>
1

>  <SCORE.INTER.POLAR>
-0.72111

>  <SCORE.INTER.ROT>
11

>  <SCORE.INTER.SOLV>
17.7484

>  <SCORE.INTER.VDW>
-18.4164

>  <SCORE.INTER.norm>
-0.148897

>  <SCORE.INTRA>
-8.13682

>  <SCORE.INTRA.DIHEDRAL>
0.478032

>  <SCORE.INTRA.DIHEDRAL.0>
15.4453

>  <SCORE.INTRA.POLAR>
0

>  <SCORE.INTRA.POLAR.0>
0

>  <SCORE.INTRA.REPUL>
-0.823958

>  <SCORE.INTRA.REPUL.0>
0.823958

>  <SCORE.INTRA.SOLV>
1.25475

>  <SCORE.INTRA.SOLV.lig_0>
-99.3069

>  <SCORE.INTRA.VDW>
-4.88342

>  <SCORE.INTRA.VDW.0>
0.946495

>  <SCORE.INTRA.norm>
-0.20342

>  <SCORE.RESTR>
0

>  <SCORE.RESTR.CAVITY>
0

>  <SCORE.RESTR.norm>
0

>  <SCORE.SYSTEM>
0

>  <SCORE.SYSTEM.CONST>
0

>  <SCORE.SYSTEM.DIHEDRAL>
0

>  <SCORE.SYSTEM.SOLV>
0

>  <SCORE.SYSTEM.norm>
0

>  <SCORE.heavy>
40

>  <SCORE.norm>
-0.352318

>  <RMSD>
7.627

$$$$
1ntb_lig
 OpenBabel11021811403D
libRbt.so/2013.1/901 2013/11/27
 40 42  0  0  0  0  0  0  0  0999 V2000
   -2.9316   37.2541    5.8173 C   0  0  0  0  0  0  0  0  0  0  0  0
   -3.9905   37.9601    5.9202 N   0  0  0  0  0  0  0  0  0  0  0  0
    2.5843   34.1768   -3.2335 C   0  0  0  0  0  0  0  0  0  0  0  0
    3.5441   34.4554   -2.2277 O   0  0  0  0  0  0  0  0  0  0  0  0
   -2.6124   38.2329   -0.2148 C   0  0  0  0  0  0  0  0  0  0  0  0
   -1.7288   39.1493   -0.3923 N   0  0  0  0  0  0  0  0  0  0  0  0
    0.5475   31.9621   -1.9981 C   0  0  0  0  0  0  0  0  0  0  0  0
   -0.9140   36.6558   -6.9624 C   0  0  0  0  0  0  0  0  0  0  0  0
   -1.9715   36.5382    3.7846 C   0  0  2  0  0  0  0  0  0  0  0  0
   -2.9655   36.3048    4.9020 N   0  0  0  0  0  0  0  0  0  0  0  0
   -0.0532   35.2477   -0.9030 C   0  0  2  0  0  0  0  0  0  0  0  0
    1.1159   36.8450   -3.9409 C   0  0  1  0  0  0  0  0  0  0  0  0
    0.2514   36.4013   -2.9114 O   0  0  0  0  0  0  0  0  0  0  0  0
   -2.6811   36.6796    2.4425 C   0  0  1  0  0  0  0  0  0  0  0  0
   -3.6260   37.8216    2.6296 O   0  0  0  0  0  0  0  0  0  0  0  0
    0.8931   35.5860   -2.0406 C   0  0  2  0  0  0  0  0  0  0  0  0
    0.2934   37.5455   -4.9950 C   0  0  1  0  0  0  0  0  0  0  0  0
   -0.6479   36.6394   -5.5520 N   0  0  0  0  0  0  0  0  0  0  0  0
   -1.7163   36.8869    1.2768 C   0  0  2  0  0  0  0  0  0  0  0  0
   -2.3391   37.0319   -0.0227 N   0  0  0  0  0  0  0  0  0  0  0  0
    1.1935   34.2408   -2.6467 C   0  0  1  0  0  0  0  0  0  0  0  0
    0.2221   33.9289   -3.6507 O   0  0  0  0  0  0  0  0  0  0  0  0
   -0.4362   38.6997   -4.3286 C   0  0  2  0  0  0  0  0  0  0  0  0
   -1.2311   39.3853   -5.2713 O   0  0  0  0  0  0  0  0  0  0  0  0
   -0.7815   35.7062    1.2306 C   0  0  1  0  0  0  0  0  0  0  0  0
    0.2175   36.0603    0.2342 O   0  0  0  0  0  0  0  0  0  0  0  0
    1.0637   33.2920   -1.5130 C   0  0  1  0  0  0  0  0  0  0  0  0
    0.1407   33.8675   -0.5856 O   0  0  0  0  0  0  0  0  0  0  0  0
    0.6324   39.6305   -3.7551 C   0  0  1  0  0  0  0  0  0  0  0  0
    0.0263   40.7377   -3.1065 O   0  0  0  0  0  0  0  0  0  0  0  0
   -0.0140   35.5801    2.5742 C   0  0  2  0  0  0  0  0  0  0  0  0
    0.8700   34.4721    2.5042 O   0  0  0  0  0  0  0  0  0  0  0  0
    1.4900   38.8472   -2.7607 C   0  0  1  0  0  0  0  0  0  0  0  0
    2.0979   37.7342   -3.4141 O   0  0  0  0  0  0  0  0  0  0  0  0
   -1.0204   35.3605    3.7201 C   0  0  1  0  0  0  0  0  0  0  0  0
   -0.3273   35.2418    4.9682 O   0  0  0  0  0  0  0  0  0  0  0  0
    2.5789   39.7689   -2.2110 C   0  0  0  0  0  0  0  0  0  0  0  0
    3.3774   40.2386   -3.2854 O   0  0  0  0  0  0  0  0  0  0  0  0
   -1.9049   37.4355    6.5715 N   0  0  0  0  0  0  0  0  0  0  0  0
   -3.8157   38.5446   -0.1754 N   0  0  0  0  0  0  0  0  0  0  0  0
  1  2  1  0  0  0  0
  1 39  1  0  0  0  0
  3  4  1  0  0  0  0
  5  6  1  0  0  0  0
  5 40  1  0  0  0  0
  9 10  1  1  0  0  0
  9 14  1  0  0  0  0
  9 35  1  0  0  0  0
 10  1  1  0  0  0  0
 11 16  1  0  0  0  0
 11 28  1  0  0  0  0
 11 26  1  1  0  0  0
 12 17  1  0  0  0  0
 12 34  1  0  0  0  0
 12 13  1  1  0  0  0
 14 15  1  1  0  0  0
 14 19  1  0  0  0  0
 16 13  1  6  0  0  0
 16 21  1  0  0  0  0
 17 18  1  1  0  0  0
 17 23  1  0  0  0  0
 18  8  1  0  0  0  0
 19 20  1  6  0  0  0
 19 25  1  0  0  0  0
 20  5  1  0  0  0  0
 21  3  1  6  0  0  0
 21 22  1  0  0  0  0
 21 27  1  0  0  0  0
 23 24  1  6  0  0  0
 23 29  1  0  0  0  0
 25 26  1  6  0  0  0
 25 31  1  0  0  0  0
 27  7  1  6  0  0  0
 27 28  1  0  0  0  0
 29 30  1  1  0  0  0
 29 33  1  0  0  0  0
 31 32  1  6  0  0  0
 31 35  1  0  0  0  0
 33 34  1  0  0  0  0
 33 37  1  6  0  0  0
 35 36  1  1  0  0  0
 37 38  1  0  0  0  0
M  END
>  <CHROM.1>
-119.02729294,115.06359675,177.10550337,170.39577949,175.10166130,-139.89060788
87.94880515,68.78946991,58.56767784,-107.72001266,-59.54129234,-0.32895221
36.70215146,-0.62990362,2.28014504,-1.02036469,2.27652255

>  <Name>
1ntb_lig

>  <RI>
0

>  <Rbt.Current_Directory>
/home/itssahil/PROJECTS/Mol_Feturizer/New_Systems/rnas/1ntb

>  <Rbt.Executable>
rbdock ($Id: //depot/dev/client3/rdock/2013.1/src/exe/rbdock.cxx#4 $)

>  <Rbt.Library>
libRbt.so (2013.1, Build901 2013/11/27)

>  <Rbt.Parameter_File>
/export/apps/rDock/src/rDock_2013.1_src/data/scripts/dock_solv.prm

>  <Rbt.Receptor>
prm/pocket_docking_7.prm

>  <SCORE>
-12.3548

>  <SCORE.INTER>
0.287714

>  <SCORE.INTER.CONST>
1

>  <SCORE.INTER.POLAR>
-0.72111

>  <SCORE.INTER.ROT>
11

>  <SCORE.INTER.SOLV>
6.9417

>  <SCORE.INTER.VDW>
-10.6517

>  <SCORE.INTER.norm>
0.00719285

>  <SCORE.INTRA>
-12.6425

>  <SCORE.INTRA.DIHEDRAL>
-4.40719

>  <SCORE.INTRA.DIHEDRAL.0>
15.4453

>  <SCORE.INTRA.POLAR>
0

>  <SCORE.INTRA.POLAR.0>
0

>  <SCORE.INTRA.REPUL>
-0.823958

>  <SCORE.INTRA.REPUL.0>
0.823958

>  <SCORE.INTRA.SOLV>
-0.711644

>  <SCORE.INTRA.SOLV.lig_0>
-99.3069

>  <SCORE.INTRA.VDW>
-5.96333

>  <SCORE.INTRA.VDW.0>
0.946495

>  <SCORE.INTRA.norm>
-0.316063

>  <SCORE.RESTR>
0

>  <SCORE.RESTR.CAVITY>
0

>  <SCORE.RESTR.norm>
0

>  <SCORE.SYSTEM>
0

>  <SCORE.SYSTEM.CONST>
0

>  <SCORE.SYSTEM.DIHEDRAL>
0

>  <SCORE.SYSTEM.SOLV>
0

>  <SCORE.SYSTEM.norm>
0

>  <SCORE.heavy>
40

>  <SCORE.norm>
-0.308871

>  <RMSD>
7.635

$$$$
1ntb_lig
 OpenBabel11021811403D
libRbt.so/2013.1/901 2013/11/27
 40 42  0  0  0  0  0  0  0  0999 V2000
    1.5629   39.0321   -1.9651 C   0  0  0  0  0  0  0  0  0  0  0  0
    1.2370   40.2303   -2.2623 N   0  0  0  0  0  0  0  0  0  0  0  0
   -1.6052   30.7076   -8.4679 C   0  0  0  0  0  0  0  0  0  0  0  0
   -0.9677   30.1310   -9.5955 O   0  0  0  0  0  0  0  0  0  0  0  0
    1.1757   32.9640   -2.4567 C   0  0  0  0  0  0  0  0  0  0  0  0
    2.1918   32.9466   -1.6697 N   0  0  0  0  0  0  0  0  0  0  0  0
    1.4656   31.7458   -8.7379 C   0  0  0  0  0  0  0  0  0  0  0  0
   -2.1853   27.4512   -6.4269 C   0  0  0  0  0  0  0  0  0  0  0  0
    0.9869   37.2146   -3.3546 C   0  0  2  0  0  0  0  0  0  0  0  0
    1.9820   38.2886   -2.9710 N   0  0  0  0  0  0  0  0  0  0  0  0
   -0.1775   32.8350   -5.8277 C   0  0  2  0  0  0  0  0  0  0  0  0
   -2.6063   30.3172   -5.2016 C   0  0  1  0  0  0  0  0  0  0  0  0
   -1.3053   30.8736   -5.2465 O   0  0  0  0  0  0  0  0  0  0  0  0
    1.6214   35.8301   -3.2811 C   0  0  1  0  0  0  0  0  0  0  0  0
    2.0994   35.7045   -1.8713 O   0  0  0  0  0  0  0  0  0  0  0  0
   -1.1873   31.7814   -6.2449 C   0  0  2  0  0  0  0  0  0  0  0  0
   -2.5356   28.9767   -4.5112 C   0  0  1  0  0  0  0  0  0  0  0  0
   -1.6926   28.1008   -5.2456 N   0  0  0  0  0  0  0  0  0  0  0  0
    0.6635   34.7127   -3.6893 C   0  0  2  0  0  0  0  0  0  0  0  0
    1.2149   33.3746   -3.6331 N   0  0  0  0  0  0  0  0  0  0  0  0
   -0.5663   31.1825   -7.4789 C   0  0  1  0  0  0  0  0  0  0  0  0
    0.2971   30.1000   -7.1157 O   0  0  0  0  0  0  0  0  0  0  0  0
   -1.9629   29.1961   -3.1211 C   0  0  2  0  0  0  0  0  0  0  0  0
   -1.8656   27.9683   -2.4328 O   0  0  0  0  0  0  0  0  0  0  0  0
    0.2064   34.9833   -5.0993 C   0  0  1  0  0  0  0  0  0  0  0  0
   -0.8379   34.0014   -5.3476 O   0  0  0  0  0  0  0  0  0  0  0  0
    0.2352   32.2889   -8.0584 C   0  0  1  0  0  0  0  0  0  0  0  0
    0.6101   33.1477   -6.9789 O   0  0  0  0  0  0  0  0  0  0  0  0
   -2.9161   30.1423   -2.3907 C   0  0  1  0  0  0  0  0  0  0  0  0
   -2.4438   30.4027   -1.0781 O   0  0  0  0  0  0  0  0  0  0  0  0
   -0.4877   36.3697   -5.1786 C   0  0  2  0  0  0  0  0  0  0  0  0
   -0.9225   36.5981   -6.5101 O   0  0  0  0  0  0  0  0  0  0  0  0
   -3.0179   31.4486   -3.1787 C   0  0  1  0  0  0  0  0  0  0  0  0
   -3.4921   31.1848   -4.4982 O   0  0  0  0  0  0  0  0  0  0  0  0
    0.5138   37.4677   -4.7717 C   0  0  1  0  0  0  0  0  0  0  0  0
   -0.1119   38.7546   -4.8399 O   0  0  0  0  0  0  0  0  0  0  0  0
   -3.9959   32.3829   -2.4659 C   0  0  0  0  0  0  0  0  0  0  0  0
   -4.0976   33.5951   -3.1957 O   0  0  0  0  0  0  0  0  0  0  0  0
    1.4667   38.5668   -0.7693 N   0  0  0  0  0  0  0  0  0  0  0  0
    0.0907   32.5010   -2.0630 N   0  0  0  0  0  0  0  0  0  0  0  0
  1  2  1  0  0  0  0
  1 39  1  0  0  0  0
  3  4  1  0  0  0  0
  5  6  1  0  0  0  0
  5 40  1  0  0  0  0
  9 10  1  6  0  0  0
  9 14  1  0  0  0  0
  9 35  1  0  0  0  0
 10  1  1  0  0  0  0
 11 16  1  0  0  0  0
 11 28  1  0  0  0  0
 11 26  1  6  0  0  0
 12 17  1  0  0  0  0
 12 34  1  0  0  0  0
 12 13  1  1  0  0  0
 14 15  1  1  0  0  0
 14 19  1  0  0  0  0
 16 13  1  1  0  0  0
 16 21  1  0  0  0  0
 17 18  1  6  0  0  0
 17 23  1  0  0  0  0
 18  8  1  0  0  0  0
 19 20  1  6  0  0  0
 19 25  1  0  0  0  0
 20  5  1  0  0  0  0
 21  3  1  6  0  0  0
 21 22  1  0  0  0  0
 21 27  1  0  0  0  0
 23 24  1  1  0  0  0
 23 29  1  0  0  0  0
 25 26  1  1  0  0  0
 25 31  1  0  0  0  0
 27  7  1  1  0  0  0
 27 28  1  0  0  0  0
 29 30  1  1  0  0  0
 29 33  1  0  0  0  0
 31 32  1  6  0  0  0
 31 35  1  0  0  0  0
 33 34  1  0  0  0  0
 33 37  1  1  0  0  0
 35 36  1  1  0  0  0
 37 38  1  0  0  0  0
M  END
>  <CHROM.1>
-123.00155201,-109.14029059,-174.69950341,156.90910783,149.32013931,-78.64406415
81.11153793,-101.31522511,-178.87437909,-87.32129768,-179.79990816,-0.55773340
33.10396669,-4.50474547,0.69455604,1.13078636,1.11914593

>  <Name>
1ntb_lig

>  <RI>
0

>  <Rbt.Current_Directory>
/home/itssahil/PROJECTS/Mol_Feturizer/New_Systems/rnas/1ntb

>  <Rbt.Executable>
rbdock ($Id: //depot/dev/client3/rdock/2013.1/src/exe/rbdock.cxx#4 $)

>  <Rbt.Library>
libRbt.so (2013.1, Build901 2013/11/27)

>  <Rbt.Parameter_File>
/export/apps/rDock/src/rDock_2013.1_src/data/scripts/dock_solv.prm

>  <Rbt.Receptor>
prm/pocket_docking_7.prm

>  <SCORE>
-17.7494

>  <SCORE.INTER>
-6.7118

>  <SCORE.INTER.CONST>
1

>  <SCORE.INTER.POLAR>
-0.72111

>  <SCORE.INTER.ROT>
11

>  <SCORE.INTER.SOLV>
13.4336

>  <SCORE.INTER.VDW>
-17.482

>  <SCORE.INTER.norm>
-0.167795

>  <SCORE.INTRA>
-11.0376

>  <SCORE.INTRA.DIHEDRAL>
-3.38681

>  <SCORE.INTRA.DIHEDRAL.0>
15.4453

>  <SCORE.INTRA.POLAR>
0

>  <SCORE.INTRA.POLAR.0>
0

>  <SCORE.INTRA.REPUL>
-0.823958

>  <SCORE.INTRA.REPUL.0>
0.823958

>  <SCORE.INTRA.SOLV>
0.716982

>  <SCORE.INTRA.SOLV.lig_0>
-99.3069

>  <SCORE.INTRA.VDW>
-5.58287

>  <SCORE.INTRA.VDW.0>
0.946495

>  <SCORE.INTRA.norm>
-0.275939

>  <SCORE.RESTR>
0

>  <SCORE.RESTR.CAVITY>
0

>  <SCORE.RESTR.norm>
0

>  <SCORE.SYSTEM>
0

>  <SCORE.SYSTEM.CONST>
0

>  <SCORE.SYSTEM.DIHEDRAL>
0

>  <SCORE.SYSTEM.SOLV>
0

>  <SCORE.SYSTEM.norm>
0

>  <SCORE.heavy>
40

>  <SCORE.norm>
-0.443734

>  <RMSD>
7.687

$$$$
1ntb_lig
 OpenBabel11021811403D
libRbt.so/2013.1/901 2013/11/27
 40 42  0  0  0  0  0  0  0  0999 V2000
   -1.3600   35.6964    6.3923 C   0  0  0  0  0  0  0  0  0  0  0  0
   -1.8196   36.8072    6.8226 N   0  0  0  0  0  0  0  0  0  0  0  0
    0.6868   36.9632   -4.4030 C   0  0  0  0  0  0  0  0  0  0  0  0
   -0.4665   36.1400   -4.4532 O   0  0  0  0  0  0  0  0  0  0  0  0
   -0.5727   32.5718    1.1078 C   0  0  0  0  0  0  0  0  0  0  0  0
   -0.6724   31.6230    1.9691 N   0  0  0  0  0  0  0  0  0  0  0  0
   -0.0628   39.6776   -2.7751 C   0  0  0  0  0  0  0  0  0  0  0  0
    0.7313   32.3981   -2.8882 C   0  0  0  0  0  0  0  0  0  0  0  0
   -0.6506   35.7937    4.1443 C   0  0  2  0  0  0  0  0  0  0  0  0
   -0.2968   35.7812    5.6159 N   0  0  0  0  0  0  0  0  0  0  0  0
    0.4705   36.8677   -0.7317 C   0  0  2  0  0  0  0  0  0  0  0  0
    2.4225   34.7284   -1.0768 C   0  0  1  0  0  0  0  0  0  0  0  0
    2.3269   35.9395   -1.8037 O   0  0  0  0  0  0  0  0  0  0  0  0
   -0.0134   34.6137    3.4189 C   0  0  1  0  0  0  0  0  0  0  0  0
   -0.5280   33.4056    4.1314 O   0  0  0  0  0  0  0  0  0  0  0  0
    1.0362   36.2908   -2.0166 C   0  0  2  0  0  0  0  0  0  0  0  0
    2.7174   33.6065   -2.0426 C   0  0  1  0  0  0  0  0  0  0  0  0
    1.6588   33.4894   -2.9823 N   0  0  0  0  0  0  0  0  0  0  0  0
   -0.3171   34.5994    1.9221 C   0  0  2  0  0  0  0  0  0  0  0  0
    0.2612   33.4953    1.1846 N   0  0  0  0  0  0  0  0  0  0  0  0
    0.9178   37.4361   -2.9868 C   0  0  1  0  0  0  0  0  0  0  0  0
    2.0931   38.2512   -2.9267 O   0  0  0  0  0  0  0  0  0  0  0  0
    4.0119   33.9394   -2.7651 C   0  0  2  0  0  0  0  0  0  0  0  0
    4.3303   32.9236   -3.6912 O   0  0  0  0  0  0  0  0  0  0  0  0
    0.1922   35.8886    1.3315 C   0  0  1  0  0  0  0  0  0  0  0  0
   -0.2984   35.8907   -0.0381 O   0  0  0  0  0  0  0  0  0  0  0  0
   -0.2520   38.2084   -2.4995 C   0  0  1  0  0  0  0  0  0  0  0  0
   -0.3492   37.9822   -1.0914 O   0  0  0  0  0  0  0  0  0  0  0  0
    5.1019   34.0490   -1.6987 C   0  0  1  0  0  0  0  0  0  0  0  0
    6.3486   34.3661   -2.2979 O   0  0  0  0  0  0  0  0  0  0  0  0
   -0.4868   37.0993    2.0268 C   0  0  2  0  0  0  0  0  0  0  0  0
   -0.0044   38.3012    1.4466 O   0  0  0  0  0  0  0  0  0  0  0  0
    4.7097   35.1379   -0.6995 C   0  0  1  0  0  0  0  0  0  0  0  0
    3.4559   34.8179   -0.0989 O   0  0  0  0  0  0  0  0  0  0  0  0
   -0.1465   37.0836    3.5295 C   0  0  1  0  0  0  0  0  0  0  0  0
   -0.7660   38.1958    4.1863 O   0  0  0  0  0  0  0  0  0  0  0  0
    5.7837   35.2258    0.3851 C   0  0  0  0  0  0  0  0  0  0  0  0
    5.4412   36.2572    1.2969 O   0  0  0  0  0  0  0  0  0  0  0  0
   -1.9087   34.5670    6.6732 N   0  0  0  0  0  0  0  0  0  0  0  0
   -1.3043   32.5627    0.1021 N   0  0  0  0  0  0  0  0  0  0  0  0
  1  2  1  0  0  0  0
  1 39  1  0  0  0  0
  3  4  1  0  0  0  0
  5  6  1  0  0  0  0
  5 40  1  0  0  0  0
  9 10  1  1  0  0  0
  9 14  1  0  0  0  0
  9 35  1  0  0  0  0
 10  1  1  0  0  0  0
 11 16  1  0  0  0  0
 11 28  1  0  0  0  0
 11 26  1  6  0  0  0
 12 17  1  0  0  0  0
 12 34  1  0  0  0  0
 12 13  1  6  0  0  0
 14 15  1  1  0  0  0
 14 19  1  0  0  0  0
 16 13  1  1  0  0  0
 16 21  1  0  0  0  0
 17 18  1  6  0  0  0
 17 23  1  0  0  0  0
 18  8  1  0  0  0  0
 19 20  1  6  0  0  0
 19 25  1  0  0  0  0
 20  5  1  0  0  0  0
 21  3  1  6  0  0  0
 21 22  1  0  0  0  0
 21 27  1  0  0  0  0
 23 24  1  6  0  0  0
 23 29  1  0  0  0  0
 25 26  1  6  0  0  0
 25 31  1  0  0  0  0
 27  7  1  1  0  0  0
 27 28  1  0  0  0  0
 29 30  1  6  0  0  0
 29 33  1  0  0  0  0
 31 32  1  6  0  0  0
 31 35  1  0  0  0  0
 33 34  1  0  0  0  0
 33 37  1  1  0  0  0
 35 36  1  1  0  0  0
 37 38  1  0  0  0  0
M  END
>  <CHROM.1>
-119.87442749,-94.82991980,129.58414629,100.51259008,76.75012602,-106.19776681
94.01843653,-90.52848731,56.30879909,-163.32532422,178.57575489,1.08980458
35.48833203,0.25217734,-2.29766255,0.79872260,-1.05056118

>  <Name>
1ntb_lig

>  <RI>
0

>  <Rbt.Current_Directory>
/home/itssahil/PROJECTS/Mol_Feturizer/New_Systems/rnas/1ntb

>  <Rbt.Executable>
rbdock ($Id: //depot/dev/client3/rdock/2013.1/src/exe/rbdock.cxx#4 $)

>  <Rbt.Library>
libRbt.so (2013.1, Build901 2013/11/27)

>  <Rbt.Parameter_File>
/export/apps/rDock/src/rDock_2013.1_src/data/scripts/dock_solv.prm

>  <Rbt.Receptor>
prm/pocket_docking_8.prm

>  <SCORE>
-15.1005

>  <SCORE.INTER>
-6.29848

>  <SCORE.INTER.CONST>
1

>  <SCORE.INTER.POLAR>
-1.16672

>  <SCORE.INTER.ROT>
11

>  <SCORE.INTER.SOLV>
16.3602

>  <SCORE.INTER.VDW>
-16.6967

>  <SCORE.INTER.norm>
-0.157462

>  <SCORE.INTRA>
-8.80205

>  <SCORE.INTRA.DIHEDRAL>
3.63733

>  <SCORE.INTRA.DIHEDRAL.0>
15.4453

>  <SCORE.INTRA.POLAR>
0

>  <SCORE.INTRA.POLAR.0>
0

>  <SCORE.INTRA.REPUL>
-0.802134

>  <SCORE.INTRA.REPUL.0>
0.823958

>  <SCORE.INTRA.SOLV>
-0.969919

>  <SCORE.INTRA.SOLV.lig_0>
-99.3069

>  <SCORE.INTRA.VDW>
-6.12508

>  <SCORE.INTRA.VDW.0>
0.946495

>  <SCORE.INTRA.norm>
-0.220051

>  <SCORE.RESTR>
0

>  <SCORE.RESTR.CAVITY>
0

>  <SCORE.RESTR.norm>
0

>  <SCORE.SYSTEM>
0

>  <SCORE.SYSTEM.CONST>
0

>  <SCORE.SYSTEM.DIHEDRAL>
0

>  <SCORE.SYSTEM.SOLV>
0

>  <SCORE.SYSTEM.norm>
0

>  <SCORE.heavy>
40

>  <SCORE.norm>
-0.377513

>  <RMSD>
7.701

$$$$
1ntb_lig
 OpenBabel11021811403D
libRbt.so/2013.1/901 2013/11/27
 40 42  0  0  0  0  0  0  0  0999 V2000
   -1.4537   31.4638    5.5352 C   0  0  0  0  0  0  0  0  0  0  0  0
   -1.3259   30.2516    5.9151 N   0  0  0  0  0  0  0  0  0  0  0  0
    1.6977   40.1582   -0.4790 C   0  0  0  0  0  0  0  0  0  0  0  0
    1.3524   40.3328   -1.8431 O   0  0  0  0  0  0  0  0  0  0  0  0
    0.3858   33.4241   -0.1581 C   0  0  0  0  0  0  0  0  0  0  0  0
    0.8552   32.2890   -0.5364 N   0  0  0  0  0  0  0  0  0  0  0  0
    4.0330   38.5419    1.1065 C   0  0  0  0  0  0  0  0  0  0  0  0
    1.4460   38.8684   -4.9235 C   0  0  0  0  0  0  0  0  0  0  0  0
   -0.6393   33.1512    4.1016 C   0  0  2  0  0  0  0  0  0  0  0  0
   -0.3542   32.0414    5.0906 N   0  0  0  0  0  0  0  0  0  0  0  0
    0.9981   36.7906    0.8266 C   0  0  2  0  0  0  0  0  0  0  0  0
   -0.3809   38.1419   -2.1865 C   0  0  1  0  0  0  0  0  0  0  0  0
    0.4359   37.3137   -1.3796 O   0  0  0  0  0  0  0  0  0  0  0  0
    0.2904   33.0615    2.8964 C   0  0  1  0  0  0  0  0  0  0  0  0
    0.0493   31.7003    2.3298 O   0  0  0  0  0  0  0  0  0  0  0  0
    0.6905   37.8857   -0.1784 C   0  0  2  0  0  0  0  0  0  0  0  0
   -0.2815   37.6725   -3.6177 C   0  0  1  0  0  0  0  0  0  0  0  0
    1.0610   37.7819   -4.0681 N   0  0  0  0  0  0  0  0  0  0  0  0
    0.0615   34.1802    1.8822 C   0  0  2  0  0  0  0  0  0  0  0  0
    0.9164   34.1398    0.7138 N   0  0  0  0  0  0  0  0  0  0  0  0
    1.9590   38.6966   -0.1994 C   0  0  1  0  0  0  0  0  0  0  0  0
    2.8635   38.1644   -1.1728 O   0  0  0  0  0  0  0  0  0  0  0  0
   -0.7229   36.2194   -3.6651 C   0  0  2  0  0  0  0  0  0  0  0  0
   -0.6396   35.7257   -4.9842 O   0  0  0  0  0  0  0  0  0  0  0  0
    0.2730   35.4961    2.5848 C   0  0  1  0  0  0  0  0  0  0  0  0
   -0.1464   36.5040    1.6233 O   0  0  0  0  0  0  0  0  0  0  0  0
    2.5273   38.5212    1.1603 C   0  0  1  0  0  0  0  0  0  0  0  0
    2.0714   37.2571    1.6475 O   0  0  0  0  0  0  0  0  0  0  0  0
   -2.1689   36.1765   -3.1705 C   0  0  1  0  0  0  0  0  0  0  0  0
   -2.6545   34.8432   -3.1795 O   0  0  0  0  0  0  0  0  0  0  0  0
   -0.7032   35.6232    3.7853 C   0  0  2  0  0  0  0  0  0  0  0  0
   -0.4973   36.8740    4.4235 O   0  0  0  0  0  0  0  0  0  0  0  0
   -2.2242   36.7438   -1.7517 C   0  0  1  0  0  0  0  0  0  0  0  0
   -1.7350   38.0839   -1.7444 O   0  0  0  0  0  0  0  0  0  0  0  0
   -0.4318   34.4857    4.7886 C   0  0  1  0  0  0  0  0  0  0  0  0
   -1.3253   34.5890    5.9035 O   0  0  0  0  0  0  0  0  0  0  0  0
   -3.6748   36.7312   -1.2687 C   0  0  0  0  0  0  0  0  0  0  0  0
   -4.4421   37.6096   -2.0762 O   0  0  0  0  0  0  0  0  0  0  0  0
   -2.5734   32.0942    5.6033 N   0  0  0  0  0  0  0  0  0  0  0  0
   -0.6269   33.8825   -0.7159 N   0  0  0  0  0  0  0  0  0  0  0  0
  1  2  1  0  0  0  0
  1 39  1  0  0  0  0
  3  4  1  0  0  0  0
  5  6  1  0  0  0  0
  5 40  1  0  0  0  0
  9 10  1  1  0  0  0
  9 14  1  0  0  0  0
  9 35  1  0  0  0  0
 10  1  1  0  0  0  0
 11 16  1  0  0  0  0
 11 28  1  0  0  0  0
 11 26  1  1  0  0  0
 12 17  1  0  0  0  0
 12 34  1  0  0  0  0
 12 13  1  1  0  0  0
 14 15  1  6  0  0  0
 14 19  1  0  0  0  0
 16 13  1  6  0  0  0
 16 21  1  0  0  0  0
 17 18  1  1  0  0  0
 17 23  1  0  0  0  0
 18  8  1  0  0  0  0
 19 20  1  6  0  0  0
 19 25  1  0  0  0  0
 20  5  1  0  0  0  0
 21  3  1  6  0  0  0
 21 22  1  0  0  0  0
 21 27  1  0  0  0  0
 23 24  1  6  0  0  0
 23 29  1  0  0  0  0
 25 26  1  6  0  0  0
 25 31  1  0  0  0  0
 27  7  1  6  0  0  0
 27 28  1  0  0  0  0
 29 30  1  1  0  0  0
 29 33  1  0  0  0  0
 31 32  1  1  0  0  0
 31 35  1  0  0  0  0
 33 34  1  0  0  0  0
 33 37  1  6  0  0  0
 35 36  1  1  0  0  0
 37 38  1  0  0  0  0
M  END
>  <CHROM.1>
-135.15882533,153.23079694,-177.39038829,162.87561655,155.02637675,-102.59064584
87.80883931,-112.04346600,-73.06424289,-87.32132634,-64.45043790,-0.13087920
35.87725664,0.42860171,1.72262152,0.82384790,2.07187573

>  <Name>
1ntb_lig

>  <RI>
0

>  <Rbt.Current_Directory>
/home/itssahil/PROJECTS/Mol_Feturizer/New_Systems/rnas/1ntb

>  <Rbt.Executable>
rbdock ($Id: //depot/dev/client3/rdock/2013.1/src/exe/rbdock.cxx#4 $)

>  <Rbt.Library>
libRbt.so (2013.1, Build901 2013/11/27)

>  <Rbt.Parameter_File>
/export/apps/rDock/src/rDock_2013.1_src/data/scripts/dock_solv.prm

>  <Rbt.Receptor>
prm/pocket_docking_8.prm

>  <SCORE>
-12.693

>  <SCORE.INTER>
-2.28345

>  <SCORE.INTER.CONST>
1

>  <SCORE.INTER.POLAR>
-1.41216

>  <SCORE.INTER.ROT>
11

>  <SCORE.INTER.SOLV>
14.8704

>  <SCORE.INTER.VDW>
-12.7052

>  <SCORE.INTER.norm>
-0.0570862

>  <SCORE.INTRA>
-10.4096

>  <SCORE.INTRA.DIHEDRAL>
-4.20341

>  <SCORE.INTRA.DIHEDRAL.0>
15.4453

>  <SCORE.INTRA.POLAR>
0

>  <SCORE.INTRA.POLAR.0>
0

>  <SCORE.INTRA.REPUL>
-0.823958

>  <SCORE.INTRA.REPUL.0>
0.823958

>  <SCORE.INTRA.SOLV>
1.88521

>  <SCORE.INTRA.SOLV.lig_0>
-99.3069

>  <SCORE.INTRA.VDW>
-5.13071

>  <SCORE.INTRA.VDW.0>
0.946495

>  <SCORE.INTRA.norm>
-0.26024

>  <SCORE.RESTR>
0

>  <SCORE.RESTR.CAVITY>
0

>  <SCORE.RESTR.norm>
0

>  <SCORE.SYSTEM>
0

>  <SCORE.SYSTEM.CONST>
0

>  <SCORE.SYSTEM.DIHEDRAL>
0

>  <SCORE.SYSTEM.SOLV>
0

>  <SCORE.SYSTEM.norm>
0

>  <SCORE.heavy>
40

>  <SCORE.norm>
-0.317326

>  <RMSD>
7.734

$$$$
1ntb_lig
 OpenBabel11021811403D
libRbt.so/2013.1/901 2013/11/27
 40 42  0  0  0  0  0  0  0  0999 V2000
   -3.3089   39.2075    0.3442 C   0  0  0  0  0  0  0  0  0  0  0  0
   -3.1141   40.4658    0.2504 N   0  0  0  0  0  0  0  0  0  0  0  0
    0.8647   32.5489   -2.0095 C   0  0  0  0  0  0  0  0  0  0  0  0
    0.3336   31.3588   -2.5679 O   0  0  0  0  0  0  0  0  0  0  0  0
    0.3543   39.0692   -5.2209 C   0  0  0  0  0  0  0  0  0  0  0  0
   -0.2011   40.2249   -5.3105 N   0  0  0  0  0  0  0  0  0  0  0  0
    0.2193   32.9826   -5.1679 C   0  0  0  0  0  0  0  0  0  0  0  0
    7.1394   32.3716   -2.1516 C   0  0  0  0  0  0  0  0  0  0  0  0
   -1.7899   38.4105   -1.2754 C   0  0  2  0  0  0  0  0  0  0  0  0
   -3.2165   38.5301   -0.7840 N   0  0  0  0  0  0  0  0  0  0  0  0
    1.9535   35.6469   -3.6682 C   0  0  2  0  0  0  0  0  0  0  0  0
    3.7083   33.5465   -1.2877 C   0  0  1  0  0  0  0  0  0  0  0  0
    3.4659   34.4494   -2.3508 O   0  0  0  0  0  0  0  0  0  0  0  0
   -1.7424   38.3065   -2.7959 C   0  0  1  0  0  0  0  0  0  0  0  0
   -2.4248   39.5427   -3.2837 O   0  0  0  0  0  0  0  0  0  0  0  0
    2.1393   34.6344   -2.5528 C   0  0  2  0  0  0  0  0  0  0  0  0
    5.1981   33.4520   -1.0635 C   0  0  1  0  0  0  0  0  0  0  0  0
    5.8306   32.9551   -2.2341 N   0  0  0  0  0  0  0  0  0  0  0  0
   -0.3232   38.1532   -3.3390 C   0  0  2  0  0  0  0  0  0  0  0  0
   -0.2203   38.0544   -4.7803 N   0  0  0  0  0  0  0  0  0  0  0  0
    1.4760   33.3982   -3.0994 C   0  0  1  0  0  0  0  0  0  0  0  0
    2.4203   32.6281   -3.8506 O   0  0  0  0  0  0  0  0  0  0  0  0
    5.7139   34.8471   -0.7532 C   0  0  2  0  0  0  0  0  0  0  0  0
    7.1088   34.8175   -0.5440 O   0  0  0  0  0  0  0  0  0  0  0  0
    0.2768   36.9124   -2.7302 C   0  0  1  0  0  0  0  0  0  0  0  0
    1.6740   36.9368   -3.1344 O   0  0  0  0  0  0  0  0  0  0  0  0
    0.4220   33.9191   -4.0051 C   0  0  1  0  0  0  0  0  0  0  0  0
    0.8628   35.1953   -4.4743 O   0  0  0  0  0  0  0  0  0  0  0  0
    4.9951   35.3167    0.5118 C   0  0  1  0  0  0  0  0  0  0  0  0
    5.4212   36.6233    0.8655 O   0  0  0  0  0  0  0  0  0  0  0  0
    0.2814   37.0262   -1.1818 C   0  0  2  0  0  0  0  0  0  0  0  0
    0.8628   35.8552   -0.6298 O   0  0  0  0  0  0  0  0  0  0  0  0
    3.4875   35.3092    0.2568 C   0  0  1  0  0  0  0  0  0  0  0  0
    3.0612   33.9952   -0.0994 O   0  0  0  0  0  0  0  0  0  0  0  0
   -1.1667   37.1669   -0.6745 C   0  0  1  0  0  0  0  0  0  0  0  0
   -1.1798   37.2730    0.7541 O   0  0  0  0  0  0  0  0  0  0  0  0
    2.7667   35.7478    1.5318 C   0  0  0  0  0  0  0  0  0  0  0  0
    3.0554   37.1137    1.7835 O   0  0  0  0  0  0  0  0  0  0  0  0
   -3.6018   38.6355    1.4590 N   0  0  0  0  0  0  0  0  0  0  0  0
    1.5150   38.9155   -5.6402 N   0  0  0  0  0  0  0  0  0  0  0  0
  1  2  1  0  0  0  0
  1 39  1  0  0  0  0
  3  4  1  0  0  0  0
  5  6  1  0  0  0  0
  5 40  1  0  0  0  0
  9 10  1  1  0  0  0
  9 14  1  0  0  0  0
  9 35  1  0  0  0  0
 10  1  1  0  0  0  0
 11 16  1  0  0  0  0
 11 28  1  0  0  0  0
 11 26  1  1  0  0  0
 12 17  1  0  0  0  0
 12 34  1  0  0  0  0
 12 13  1  6  0  0  0
 14 15  1  6  0  0  0
 14 19  1  0  0  0  0
 16 13  1  6  0  0  0
 16 21  1  0  0  0  0
 17 18  1  6  0  0  0
 17 23  1  0  0  0  0
 18  8  1  0  0  0  0
 19 20  1  6  0  0  0
 19 25  1  0  0  0  0
 20  5  1  0  0  0  0
 21  3  1  1  0  0  0
 21 22  1  0  0  0  0
 21 27  1  0  0  0  0
 23 24  1  1  0  0  0
 23 29  1  0  0  0  0
 25 26  1  6  0  0  0
 25 31  1  0  0  0  0
 27  7  1  6  0  0  0
 27 28  1  0  0  0  0
 29 30  1  6  0  0  0
 29 33  1  0  0  0  0
 31 32  1  1  0  0  0
 31 35  1  0  0  0  0
 33 34  1  0  0  0  0
 33 37  1  1  0  0  0
 35 36  1  1  0  0  0
 37 38  1  0  0  0  0
M  END
>  <CHROM.1>
-150.78989180,72.08619149,-77.42019674,-176.60427654,177.99630370,-159.78613067
112.86470373,-74.77005465,-176.15341878,-130.38102749,67.53478922,1.39794614
36.00469285,-1.85822772,-2.96205481,0.63075962,-1.95902654

>  <Name>
1ntb_lig

>  <RI>
0

>  <Rbt.Current_Directory>
/home/itssahil/PROJECTS/Mol_Feturizer/New_Systems/rnas/1ntb

>  <Rbt.Executable>
rbdock ($Id: //depot/dev/client3/rdock/2013.1/src/exe/rbdock.cxx#4 $)

>  <Rbt.Library>
libRbt.so (2013.1, Build901 2013/11/27)

>  <Rbt.Parameter_File>
/export/apps/rDock/src/rDock_2013.1_src/data/scripts/dock_solv.prm

>  <Rbt.Receptor>
prm/pocket_docking_4.prm

>  <SCORE>
-12.2793

>  <SCORE.INTER>
-4.20279

>  <SCORE.INTER.CONST>
1

>  <SCORE.INTER.POLAR>
-0.952421

>  <SCORE.INTER.ROT>
11

>  <SCORE.INTER.SOLV>
14.4997

>  <SCORE.INTER.VDW>
-15.3937

>  <SCORE.INTER.norm>
-0.10507

>  <SCORE.INTRA>
-8.09333

>  <SCORE.INTRA.DIHEDRAL>
-3.29099

>  <SCORE.INTRA.DIHEDRAL.0>
15.4453

>  <SCORE.INTRA.POLAR>
0

>  <SCORE.INTRA.POLAR.0>
0

>  <SCORE.INTRA.REPUL>
-0.823958

>  <SCORE.INTRA.REPUL.0>
0.823958

>  <SCORE.INTRA.SOLV>
-0.0769377

>  <SCORE.INTRA.SOLV.lig_0>
-99.3069

>  <SCORE.INTRA.VDW>
-2.28958

>  <SCORE.INTRA.VDW.0>
0.946495

>  <SCORE.INTRA.norm>
-0.202333

>  <SCORE.RESTR>
0.0168611

>  <SCORE.RESTR.CAVITY>
0.0168611

>  <SCORE.RESTR.norm>
0.000421527

>  <SCORE.SYSTEM>
0

>  <SCORE.SYSTEM.CONST>
0

>  <SCORE.SYSTEM.DIHEDRAL>
0

>  <SCORE.SYSTEM.SOLV>
0

>  <SCORE.SYSTEM.norm>
0

>  <SCORE.heavy>
40

>  <SCORE.norm>
-0.306981

>  <RMSD>
7.739

$$$$
1ntb_lig
 OpenBabel11021811403D
libRbt.so/2013.1/901 2013/11/27
 40 42  0  0  0  0  0  0  0  0999 V2000
   -2.9409   28.0303   -6.6680 C   0  0  0  0  0  0  0  0  0  0  0  0
   -4.1111   27.5986   -6.9405 N   0  0  0  0  0  0  0  0  0  0  0  0
    2.3864   35.2920   -0.3149 C   0  0  0  0  0  0  0  0  0  0  0  0
    2.0295   34.3151    0.6488 O   0  0  0  0  0  0  0  0  0  0  0  0
   -3.0759   31.5476   -1.2447 C   0  0  0  0  0  0  0  0  0  0  0  0
   -2.2696   31.9594   -0.3323 N   0  0  0  0  0  0  0  0  0  0  0  0
    4.0534   33.7919   -2.6709 C   0  0  0  0  0  0  0  0  0  0  0  0
   -2.8744   36.2052    0.1866 C   0  0  0  0  0  0  0  0  0  0  0  0
   -2.0810   29.8225   -5.3973 C   0  0  2  0  0  0  0  0  0  0  0  0
   -2.8105   29.3426   -6.6336 N   0  0  0  0  0  0  0  0  0  0  0  0
    0.5733   33.3276   -2.8424 C   0  0  2  0  0  0  0  0  0  0  0  0
   -1.5083   35.1435   -2.4871 C   0  0  1  0  0  0  0  0  0  0  0  0
   -0.1451   35.4897   -2.3266 O   0  0  0  0  0  0  0  0  0  0  0  0
   -2.9936   30.6717   -4.5193 C   0  0  1  0  0  0  0  0  0  0  0  0
   -4.1528   29.7837   -4.2037 O   0  0  0  0  0  0  0  0  0  0  0  0
    0.5747   34.4564   -1.8277 C   0  0  2  0  0  0  0  0  0  0  0  0
   -2.3524   36.3675   -2.2261 C   0  0  1  0  0  0  0  0  0  0  0  0
   -2.1518   36.8153   -0.8932 N   0  0  0  0  0  0  0  0  0  0  0  0
   -2.2927   31.2057   -3.2718 C   0  0  2  0  0  0  0  0  0  0  0  0
   -3.1167   32.0163   -2.3991 N   0  0  0  0  0  0  0  0  0  0  0  0
    2.0353   34.7987   -1.6991 C   0  0  1  0  0  0  0  0  0  0  0  0
    2.3951   35.7808   -2.6764 O   0  0  0  0  0  0  0  0  0  0  0  0
   -1.9219   37.4493   -3.2022 C   0  0  2  0  0  0  0  0  0  0  0  0
   -2.6756   38.6238   -2.9942 O   0  0  0  0  0  0  0  0  0  0  0  0
   -1.1128   32.0299   -3.7176 C   0  0  1  0  0  0  0  0  0  0  0  0
   -0.3903   32.3395   -2.4934 O   0  0  0  0  0  0  0  0  0  0  0  0
    2.7364   33.5234   -1.9897 C   0  0  1  0  0  0  0  0  0  0  0  0
    1.8859   32.7615   -2.8496 O   0  0  0  0  0  0  0  0  0  0  0  0
   -2.1649   36.9024   -4.6091 C   0  0  1  0  0  0  0  0  0  0  0  0
   -1.7792   37.8587   -5.5840 O   0  0  0  0  0  0  0  0  0  0  0  0
   -0.1483   31.1631   -4.5713 C   0  0  2  0  0  0  0  0  0  0  0  0
    0.9615   31.9536   -4.9683 O   0  0  0  0  0  0  0  0  0  0  0  0
   -1.3555   35.6176   -4.7878 C   0  0  1  0  0  0  0  0  0  0  0  0
   -1.7440   34.6577   -3.8065 O   0  0  0  0  0  0  0  0  0  0  0  0
   -0.8890   30.6551   -5.8233 C   0  0  1  0  0  0  0  0  0  0  0  0
   -0.0117   29.8529   -6.6227 O   0  0  0  0  0  0  0  0  0  0  0  0
   -1.6233   35.0528   -6.1831 C   0  0  0  0  0  0  0  0  0  0  0  0
   -0.8224   33.8985   -6.3798 O   0  0  0  0  0  0  0  0  0  0  0  0
   -1.9443   27.2422   -6.4644 N   0  0  0  0  0  0  0  0  0  0  0  0
   -3.8336   30.5914   -1.0035 N   0  0  0  0  0  0  0  0  0  0  0  0
  1  2  1  0  0  0  0
  1 39  1  0  0  0  0
  3  4  1  0  0  0  0
  5  6  1  0  0  0  0
  5 40  1  0  0  0  0
  9 10  1  6  0  0  0
  9 14  1  0  0  0  0
  9 35  1  0  0  0  0
 10  1  1  0  0  0  0
 11 16  1  0  0  0  0
 11 28  1  0  0  0  0
 11 26  1  1  0  0  0
 12 17  1  0  0  0  0
 12 34  1  0  0  0  0
 12 13  1  6  0  0  0
 14 15  1  1  0  0  0
 14 19  1  0  0  0  0
 16 13  1  6  0  0  0
 16 21  1  0  0  0  0
 17 18  1  1  0  0  0
 17 23  1  0  0  0  0
 18  8  1  0  0  0  0
 19 20  1  6  0  0  0
 19 25  1  0  0  0  0
 20  5  1  0  0  0  0
 21  3  1  1  0  0  0
 21 22  1  0  0  0  0
 21 27  1  0  0  0  0
 23 24  1  1  0  0  0
 23 29  1  0  0  0  0
 25 26  1  1  0  0  0
 25 31  1  0  0  0  0
 27  7  1  6  0  0  0
 27 28  1  0  0  0  0
 29 30  1  6  0  0  0
 29 33  1  0  0  0  0
 31 32  1  6  0  0  0
 31 35  1  0  0  0  0
 33 34  1  0  0  0  0
 33 37  1  6  0  0  0
 35 36  1  6  0  0  0
 37 38  1  0  0  0  0
M  END
>  <CHROM.1>
-115.58023638,132.01118513,133.90309011,146.45284137,64.72900812,-82.74628914
125.79845862,94.88813996,57.26075644,-168.85821025,177.02508506,-1.01068231
33.18712813,-3.47069215,1.89281934,0.38840168,-2.78435550

>  <Name>
1ntb_lig

>  <RI>
0

>  <Rbt.Current_Directory>
/home/itssahil/PROJECTS/Mol_Feturizer/New_Systems/rnas/1ntb

>  <Rbt.Executable>
rbdock ($Id: //depot/dev/client3/rdock/2013.1/src/exe/rbdock.cxx#4 $)

>  <Rbt.Library>
libRbt.so (2013.1, Build901 2013/11/27)

>  <Rbt.Parameter_File>
/export/apps/rDock/src/rDock_2013.1_src/data/scripts/dock_solv.prm

>  <Rbt.Receptor>
prm/pocket_docking_7.prm

>  <SCORE>
-6.10729

>  <SCORE.INTER>
2.2798

>  <SCORE.INTER.CONST>
1

>  <SCORE.INTER.POLAR>
-0.434273

>  <SCORE.INTER.ROT>
11

>  <SCORE.INTER.SOLV>
9.1511

>  <SCORE.INTER.VDW>
-11.0163

>  <SCORE.INTER.norm>
0.0569949

>  <SCORE.INTRA>
-8.39822

>  <SCORE.INTRA.DIHEDRAL>
-0.24763

>  <SCORE.INTRA.DIHEDRAL.0>
15.4453

>  <SCORE.INTRA.POLAR>
0

>  <SCORE.INTRA.POLAR.0>
0

>  <SCORE.INTRA.REPUL>
-0.822642

>  <SCORE.INTRA.REPUL.0>
0.823958

>  <SCORE.INTRA.SOLV>
-0.14989

>  <SCORE.INTRA.SOLV.lig_0>
-99.3069

>  <SCORE.INTRA.VDW>
-4.08625

>  <SCORE.INTRA.VDW.0>
0.946495

>  <SCORE.INTRA.norm>
-0.209956

>  <SCORE.RESTR>
0.0111347

>  <SCORE.RESTR.CAVITY>
0.0111347

>  <SCORE.RESTR.norm>
0.000278367

>  <SCORE.SYSTEM>
0

>  <SCORE.SYSTEM.CONST>
0

>  <SCORE.SYSTEM.DIHEDRAL>
0

>  <SCORE.SYSTEM.SOLV>
0

>  <SCORE.SYSTEM.norm>
0

>  <SCORE.heavy>
40

>  <SCORE.norm>
-0.152682

>  <RMSD>
7.741

$$$$
1ntb_lig
 OpenBabel11021811403D
libRbt.so/2013.1/901 2013/11/27
 40 42  0  0  0  0  0  0  0  0999 V2000
    1.3381   38.9300   -8.5150 C   0  0  0  0  0  0  0  0  0  0  0  0
    2.4858   39.4841   -8.5923 N   0  0  0  0  0  0  0  0  0  0  0  0
    1.5443   40.2382    2.2931 C   0  0  0  0  0  0  0  0  0  0  0  0
    2.8422   40.3416    1.7317 O   0  0  0  0  0  0  0  0  0  0  0  0
   -0.3785   35.7946   -3.5177 C   0  0  0  0  0  0  0  0  0  0  0  0
   -0.9357   35.0966   -4.4420 N   0  0  0  0  0  0  0  0  0  0  0  0
   -0.3798   42.2241    0.5803 C   0  0  0  0  0  0  0  0  0  0  0  0
   -2.2676   35.5436    3.5744 C   0  0  0  0  0  0  0  0  0  0  0  0
    0.9997   39.0206   -6.1819 C   0  0  2  0  0  0  0  0  0  0  0  0
    0.5408   39.3981   -7.5740 N   0  0  0  0  0  0  0  0  0  0  0  0
    0.2948   39.1540   -0.9929 C   0  0  2  0  0  0  0  0  0  0  0  0
    0.6038   37.2802    2.0970 C   0  0  1  0  0  0  0  0  0  0  0  0
    0.1194   37.7173    0.8407 O   0  0  0  0  0  0  0  0  0  0  0  0
   -0.0553   38.1837   -5.4667 C   0  0  1  0  0  0  0  0  0  0  0  0
   -0.2659   36.9988   -6.3519 O   0  0  0  0  0  0  0  0  0  0  0  0
    0.8117   38.7895    0.3869 C   0  0  2  0  0  0  0  0  0  0  0  0
   -0.1020   35.9986    2.4685 C   0  0  1  0  0  0  0  0  0  0  0  0
   -1.4988   36.2323    2.5769 N   0  0  0  0  0  0  0  0  0  0  0  0
    0.3496   37.8027   -4.0442 C   0  0  2  0  0  0  0  0  0  0  0  0
   -0.6162   37.0023   -3.3201 N   0  0  0  0  0  0  0  0  0  0  0  0
    0.5268   40.0266    1.1965 C   0  0  1  0  0  0  0  0  0  0  0  0
   -0.7892   39.9530    1.7550 O   0  0  0  0  0  0  0  0  0  0  0  0
    0.1656   34.9823    1.3711 C   0  0  2  0  0  0  0  0  0  0  0  0
   -0.4823   33.7638    1.6645 O   0  0  0  0  0  0  0  0  0  0  0  0
    0.5922   39.0740   -3.2728 C   0  0  1  0  0  0  0  0  0  0  0  0
    1.1547   38.6387   -2.0038 O   0  0  0  0  0  0  0  0  0  0  0  0
    0.5899   41.1323    0.2087 C   0  0  1  0  0  0  0  0  0  0  0  0
    0.2432   40.5808   -1.0637 O   0  0  0  0  0  0  0  0  0  0  0  0
    1.6798   34.7798    1.3110 C   0  0  1  0  0  0  0  0  0  0  0  0
    2.0127   33.8424    0.2990 O   0  0  0  0  0  0  0  0  0  0  0  0
    1.7013   39.9134   -3.9625 C   0  0  2  0  0  0  0  0  0  0  0  0
    1.9238   41.0979   -3.2131 O   0  0  0  0  0  0  0  0  0  0  0  0
    2.3482   36.1237    1.0196 C   0  0  1  0  0  0  0  0  0  0  0  0
    2.0118   37.0649    2.0374 O   0  0  0  0  0  0  0  0  0  0  0  0
    1.2494   40.2865   -5.3876 C   0  0  1  0  0  0  0  0  0  0  0  0
    2.2630   41.0623   -6.0381 O   0  0  0  0  0  0  0  0  0  0  0  0
    3.8643   35.9278    0.9913 C   0  0  0  0  0  0  0  0  0  0  0  0
    4.4911   37.1786    0.7568 O   0  0  0  0  0  0  0  0  0  0  0  0
    0.9860   37.9610   -9.2848 N   0  0  0  0  0  0  0  0  0  0  0  0
    0.4082   35.2441   -2.7274 N   0  0  0  0  0  0  0  0  0  0  0  0
  1  2  1  0  0  0  0
  1 39  1  0  0  0  0
  3  4  1  0  0  0  0
  5  6  1  0  0  0  0
  5 40  1  0  0  0  0
  9 10  1  6  0  0  0
  9 14  1  0  0  0  0
  9 35  1  0  0  0  0
 10  1  1  0  0  0  0
 11 16  1  0  0  0  0
 11 28  1  0  0  0  0
 11 26  1  6  0  0  0
 12 17  1  0  0  0  0
 12 34  1  0  0  0  0
 12 13  1  6  0  0  0
 14 15  1  6  0  0  0
 14 19  1  0  0  0  0
 16 13  1  1  0  0  0
 16 21  1  0  0  0  0
 17 18  1  6  0  0  0
 17 23  1  0  0  0  0
 18  8  1  0  0  0  0
 19 20  1  1  0  0  0
 19 25  1  0  0  0  0
 20  5  1  0  0  0  0
 21  3  1  1  0  0  0
 21 22  1  0  0  0  0
 21 27  1  0  0  0  0
 23 24  1  1  0  0  0
 23 29  1  0  0  0  0
 25 26  1  1  0  0  0
 25 31  1  0  0  0  0
 27  7  1  1  0  0  0
 27 28  1  0  0  0  0
 29 30  1  6  0  0  0
 29 33  1  0  0  0  0
 31 32  1  1  0  0  0
 31 35  1  0  0  0  0
 33 34  1  0  0  0  0
 33 37  1  1  0  0  0
 35 36  1  6  0  0  0
 37 38  1  0  0  0  0
M  END
>  <CHROM.1>
-119.18257884,-70.72363883,-178.43950629,-173.68712417,176.79842059,-144.02988856
90.28060899,-93.38256469,58.55191273,-122.61837898,-178.45120878,0.82439273
38.00191671,-1.61942546,1.28773126,-1.41163791,-1.61239571

>  <Name>
1ntb_lig

>  <RI>
0

>  <Rbt.Current_Directory>
/home/itssahil/PROJECTS/Mol_Feturizer/New_Systems/rnas/1ntb

>  <Rbt.Executable>
rbdock ($Id: //depot/dev/client3/rdock/2013.1/src/exe/rbdock.cxx#4 $)

>  <Rbt.Library>
libRbt.so (2013.1, Build901 2013/11/27)

>  <Rbt.Parameter_File>
/export/apps/rDock/src/rDock_2013.1_src/data/scripts/dock_solv.prm

>  <Rbt.Receptor>
prm/pocket_docking_6.prm

>  <SCORE>
-11.0279

>  <SCORE.INTER>
1.17025

>  <SCORE.INTER.CONST>
1

>  <SCORE.INTER.POLAR>
-0.616433

>  <SCORE.INTER.ROT>
11

>  <SCORE.INTER.SOLV>
8.8848

>  <SCORE.INTER.VDW>
-11.06

>  <SCORE.INTER.norm>
0.0292563

>  <SCORE.INTRA>
-12.2037

>  <SCORE.INTRA.DIHEDRAL>
-3.96008

>  <SCORE.INTRA.DIHEDRAL.0>
15.4453

>  <SCORE.INTRA.POLAR>
0

>  <SCORE.INTRA.POLAR.0>
0

>  <SCORE.INTRA.REPUL>
-0.823958

>  <SCORE.INTRA.REPUL.0>
0.823958

>  <SCORE.INTRA.SOLV>
-1.35764

>  <SCORE.INTRA.SOLV.lig_0>
-99.3069

>  <SCORE.INTRA.VDW>
-5.4251

>  <SCORE.INTRA.VDW.0>
0.946495

>  <SCORE.INTRA.norm>
-0.305094

>  <SCORE.RESTR>
0.00561355

>  <SCORE.RESTR.CAVITY>
0.00561355

>  <SCORE.RESTR.norm>
0.000140339

>  <SCORE.SYSTEM>
0

>  <SCORE.SYSTEM.CONST>
0

>  <SCORE.SYSTEM.DIHEDRAL>
0

>  <SCORE.SYSTEM.SOLV>
0

>  <SCORE.SYSTEM.norm>
0

>  <SCORE.heavy>
40

>  <SCORE.norm>
-0.275697

>  <RMSD>
7.746

$$$$
1ntb_lig
 OpenBabel11021811403D
libRbt.so/2013.1/901 2013/11/27
 40 42  0  0  0  0  0  0  0  0999 V2000
    1.3633   38.8357   -8.4565 C   0  0  0  0  0  0  0  0  0  0  0  0
    1.0330   37.8561   -9.2057 N   0  0  0  0  0  0  0  0  0  0  0  0
    1.2450   40.3019    2.3756 C   0  0  0  0  0  0  0  0  0  0  0  0
    0.7328   41.3377    3.1972 O   0  0  0  0  0  0  0  0  0  0  0  0
   -0.4827   35.8138   -3.3319 C   0  0  0  0  0  0  0  0  0  0  0  0
    0.5682   35.1871   -2.9383 N   0  0  0  0  0  0  0  0  0  0  0  0
   -0.7658   42.1522    0.6112 C   0  0  0  0  0  0  0  0  0  0  0  0
   -2.0522   36.8273    3.7617 C   0  0  0  0  0  0  0  0  0  0  0  0
    0.9422   38.8741   -6.1355 C   0  0  2  0  0  0  0  0  0  0  0  0
    0.4761   39.1796   -7.5427 N   0  0  0  0  0  0  0  0  0  0  0  0
    0.1956   39.1584   -0.9599 C   0  0  2  0  0  0  0  0  0  0  0  0
    0.5661   37.2631    2.1089 C   0  0  1  0  0  0  0  0  0  0  0  0
    0.0681   37.6943    0.8558 O   0  0  0  0  0  0  0  0  0  0  0  0
   -0.1156   38.0891   -5.3676 C   0  0  1  0  0  0  0  0  0  0  0  0
   -0.3455   36.8598   -6.1848 O   0  0  0  0  0  0  0  0  0  0  0  0
    0.6914   38.8206    0.4343 C   0  0  2  0  0  0  0  0  0  0  0  0
   -0.1168   35.9696    2.4818 C   0  0  1  0  0  0  0  0  0  0  0  0
   -1.5166   36.1802    2.5978 N   0  0  0  0  0  0  0  0  0  0  0  0
    0.2967   37.7824   -3.9293 C   0  0  2  0  0  0  0  0  0  0  0  0
   -0.6715   37.0333   -3.1552 N   0  0  0  0  0  0  0  0  0  0  0  0
    0.2849   40.0242    1.2425 C   0  0  1  0  0  0  0  0  0  0  0  0
   -1.0399   39.8448    1.7542 O   0  0  0  0  0  0  0  0  0  0  0  0
    0.1618   34.9595    1.3814 C   0  0  2  0  0  0  0  0  0  0  0  0
   -0.4646   33.7301    1.6761 O   0  0  0  0  0  0  0  0  0  0  0  0
    0.5585   39.0914   -3.2308 C   0  0  1  0  0  0  0  0  0  0  0  0
    1.1266   38.7204   -1.9440 O   0  0  0  0  0  0  0  0  0  0  0  0
    0.2968   41.1414    0.2657 C   0  0  1  0  0  0  0  0  0  0  0  0
    0.0373   40.5777   -1.0220 O   0  0  0  0  0  0  0  0  0  0  0  0
    1.6787   34.7819    1.3132 C   0  0  1  0  0  0  0  0  0  0  0  0
    2.0217   33.8517    0.2979 O   0  0  0  0  0  0  0  0  0  0  0  0
    1.6706   39.8798   -3.9737 C   0  0  2  0  0  0  0  0  0  0  0  0
    1.9113   41.1011   -3.2921 O   0  0  0  0  0  0  0  0  0  0  0  0
    2.3236   36.1370    1.0206 C   0  0  1  0  0  0  0  0  0  0  0  0
    1.9771   37.0710    2.0418 O   0  0  0  0  0  0  0  0  0  0  0  0
    1.2113   40.1790   -5.4137 C   0  0  1  0  0  0  0  0  0  0  0  0
    2.2275   40.9070   -6.1134 O   0  0  0  0  0  0  0  0  0  0  0  0
    3.8425   35.9660    0.9843 C   0  0  0  0  0  0  0  0  0  0  0  0
    4.4465   37.2229    0.7242 O   0  0  0  0  0  0  0  0  0  0  0  0
    2.4761   39.4666   -8.5955 N   0  0  0  0  0  0  0  0  0  0  0  0
   -1.3535   35.2017   -3.9751 N   0  0  0  0  0  0  0  0  0  0  0  0
  1  2  1  0  0  0  0
  1 39  1  0  0  0  0
  3  4  1  0  0  0  0
  5  6  1  0  0  0  0
  5 40  1  0  0  0  0
  9 10  1  6  0  0  0
  9 14  1  0  0  0  0
  9 35  1  0  0  0  0
 10  1  1  0  0  0  0
 11 16  1  0  0  0  0
 11 28  1  0  0  0  0
 11 26  1  6  0  0  0
 12 17  1  0  0  0  0
 12 34  1  0  0  0  0
 12 13  1  6  0  0  0
 14 15  1  6  0  0  0
 14 19  1  0  0  0  0
 16 13  1  1  0  0  0
 16 21  1  0  0  0  0
 17 18  1  6  0  0  0
 17 23  1  0  0  0  0
 18  8  1  0  0  0  0
 19 20  1  1  0  0  0
 19 25  1  0  0  0  0
 20  5  1  0  0  0  0
 21  3  1  1  0  0  0
 21 22  1  0  0  0  0
 21 27  1  0  0  0  0
 23 24  1  1  0  0  0
 23 29  1  0  0  0  0
 25 26  1  1  0  0  0
 25 31  1  0  0  0  0
 27  7  1  1  0  0  0
 27 28  1  0  0  0  0
 29 30  1  6  0  0  0
 29 33  1  0  0  0  0
 31 32  1  1  0  0  0
 31 35  1  0  0  0  0
 33 34  1  0  0  0  0
 33 37  1  1  0  0  0
 35 36  1  6  0  0  0
 37 38  1  0  0  0  0
M  END
>  <CHROM.1>
-129.08627390,111.43359049,-179.96581800,-177.01731297,175.25134306,-76.72110440
87.55048032,66.38284001,-172.94645413,-115.72073455,-179.51406488,0.69679922
38.03704273,-1.53722653,0.22473456,-1.50736902,-2.73639995

>  <Name>
1ntb_lig

>  <RI>
0

>  <Rbt.Current_Directory>
/home/itssahil/PROJECTS/Mol_Feturizer/New_Systems/rnas/1ntb

>  <Rbt.Executable>
rbdock ($Id: //depot/dev/client3/rdock/2013.1/src/exe/rbdock.cxx#4 $)

>  <Rbt.Library>
libRbt.so (2013.1, Build901 2013/11/27)

>  <Rbt.Parameter_File>
/export/apps/rDock/src/rDock_2013.1_src/data/scripts/dock_solv.prm

>  <Rbt.Receptor>
prm/pocket_docking_6.prm

>  <SCORE>
-11.2572

>  <SCORE.INTER>
1.6329

>  <SCORE.INTER.CONST>
1

>  <SCORE.INTER.POLAR>
-0.615279

>  <SCORE.INTER.ROT>
11

>  <SCORE.INTER.SOLV>
8.68628

>  <SCORE.INTER.VDW>
-10.6892

>  <SCORE.INTER.norm>
0.0408225

>  <SCORE.INTRA>
-12.8937

>  <SCORE.INTRA.DIHEDRAL>
-4.68363

>  <SCORE.INTRA.DIHEDRAL.0>
15.4453

>  <SCORE.INTRA.POLAR>
0

>  <SCORE.INTRA.POLAR.0>
0

>  <SCORE.INTRA.REPUL>
-0.822206

>  <SCORE.INTRA.REPUL.0>
0.823958

>  <SCORE.INTRA.SOLV>
-2.15571

>  <SCORE.INTRA.SOLV.lig_0>
-99.3069

>  <SCORE.INTRA.VDW>
-5.36297

>  <SCORE.INTRA.VDW.0>
0.946495

>  <SCORE.INTRA.norm>
-0.322342

>  <SCORE.RESTR>
0.00360269

>  <SCORE.RESTR.CAVITY>
0.00360269

>  <SCORE.RESTR.norm>
9.00674e-05

>  <SCORE.SYSTEM>
0

>  <SCORE.SYSTEM.CONST>
0

>  <SCORE.SYSTEM.DIHEDRAL>
0

>  <SCORE.SYSTEM.SOLV>
0

>  <SCORE.SYSTEM.norm>
0

>  <SCORE.heavy>
40

>  <SCORE.norm>
-0.281429

>  <RMSD>
7.773

$$$$
1ntb_lig
 OpenBabel11021811403D
libRbt.so/2013.1/901 2013/11/27
 40 42  0  0  0  0  0  0  0  0999 V2000
   -1.4035   34.2617  -10.8215 C   0  0  0  0  0  0  0  0  0  0  0  0
   -1.6356   35.4328  -11.2740 N   0  0  0  0  0  0  0  0  0  0  0  0
    1.7125   32.2953   -0.4543 C   0  0  0  0  0  0  0  0  0  0  0  0
    3.0132   32.2851    0.1099 O   0  0  0  0  0  0  0  0  0  0  0  0
   -1.1273   36.5990   -5.2327 C   0  0  0  0  0  0  0  0  0  0  0  0
   -1.1361   37.7311   -5.8413 N   0  0  0  0  0  0  0  0  0  0  0  0
    3.8809   33.6036   -2.4955 C   0  0  0  0  0  0  0  0  0  0  0  0
    0.3121   36.2200    1.5699 C   0  0  0  0  0  0  0  0  0  0  0  0
   -0.6851   33.8445   -8.6134 C   0  0  2  0  0  0  0  0  0  0  0  0
   -0.3361   34.1474  -10.0547 N   0  0  0  0  0  0  0  0  0  0  0  0
    0.5478   33.8298   -3.5886 C   0  0  2  0  0  0  0  0  0  0  0  0
   -0.9264   33.9945   -0.2817 C   0  0  1  0  0  0  0  0  0  0  0  0
   -0.4978   34.3823   -1.5740 O   0  0  0  0  0  0  0  0  0  0  0  0
   -0.2655   34.9889   -7.6973 C   0  0  1  0  0  0  0  0  0  0  0  0
   -0.9821   36.1862   -8.2308 O   0  0  0  0  0  0  0  0  0  0  0  0
    0.2608   33.4222   -2.1549 C   0  0  2  0  0  0  0  0  0  0  0  0
   -1.5907   35.1761    0.3826 C   0  0  1  0  0  0  0  0  0  0  0  0
   -0.6597   36.2407    0.5137 N   0  0  0  0  0  0  0  0  0  0  0  0
   -0.5698   34.7167   -6.2256 C   0  0  2  0  0  0  0  0  0  0  0  0
   -0.1949   35.7753   -5.3109 N   0  0  0  0  0  0  0  0  0  0  0  0
    1.6333   33.3419   -1.5411 C   0  0  1  0  0  0  0  0  0  0  0  0
    2.0115   34.6205   -1.0201 O   0  0  0  0  0  0  0  0  0  0  0  0
   -2.7520   35.6136   -0.4940 C   0  0  2  0  0  0  0  0  0  0  0  0
   -3.4045   36.7261    0.0780 O   0  0  0  0  0  0  0  0  0  0  0  0
    0.1561   33.4586   -5.8250 C   0  0  1  0  0  0  0  0  0  0  0  0
   -0.3291   33.1581   -4.4869 O   0  0  0  0  0  0  0  0  0  0  0  0
    2.5203   32.9816   -2.6751 C   0  0  1  0  0  0  0  0  0  0  0  0
    1.9061   33.4809   -3.8654 O   0  0  0  0  0  0  0  0  0  0  0  0
   -3.7096   34.4257   -0.5905 C   0  0  1  0  0  0  0  0  0  0  0  0
   -4.8250   34.7555   -1.4035 O   0  0  0  0  0  0  0  0  0  0  0  0
   -0.2993   32.2726   -6.7173 C   0  0  2  0  0  0  0  0  0  0  0  0
    0.3849   31.0962   -6.3145 O   0  0  0  0  0  0  0  0  0  0  0  0
   -2.9615   33.2334   -1.1875 C   0  0  1  0  0  0  0  0  0  0  0  0
   -1.8401   32.9038   -0.3694 O   0  0  0  0  0  0  0  0  0  0  0  0
    0.0358   32.5811   -8.1893 C   0  0  1  0  0  0  0  0  0  0  0  0
   -0.3784   31.4950   -9.0266 O   0  0  0  0  0  0  0  0  0  0  0  0
   -3.9096   32.0358   -1.2543 C   0  0  0  0  0  0  0  0  0  0  0  0
   -3.2391   30.9444   -1.8639 O   0  0  0  0  0  0  0  0  0  0  0  0
   -2.1440   33.2502  -11.1117 N   0  0  0  0  0  0  0  0  0  0  0  0
   -2.0680   36.3067   -4.4736 N   0  0  0  0  0  0  0  0  0  0  0  0
  1  2  1  0  0  0  0
  1 39  1  0  0  0  0
  3  4  1  0  0  0  0
  5  6  1  0  0  0  0
  5 40  1  0  0  0  0
  9 10  1  6  0  0  0
  9 14  1  0  0  0  0
  9 35  1  0  0  0  0
 10  1  1  0  0  0  0
 11 16  1  0  0  0  0
 11 28  1  0  0  0  0
 11 26  1  6  0  0  0
 12 17  1  0  0  0  0
 12 34  1  0  0  0  0
 12 13  1  6  0  0  0
 14 15  1  6  0  0  0
 14 19  1  0  0  0  0
 16 13  1  1  0  0  0
 16 21  1  0  0  0  0
 17 18  1  6  0  0  0
 17 23  1  0  0  0  0
 18  8  1  0  0  0  0
 19 20  1  1  0  0  0
 19 25  1  0  0  0  0
 20  5  1  0  0  0  0
 21  3  1  1  0  0  0
 21 22  1  0  0  0  0
 21 27  1  0  0  0  0
 23 24  1  1  0  0  0
 23 29  1  0  0  0  0
 25 26  1  1  0  0  0
 25 31  1  0  0  0  0
 27  7  1  1  0  0  0
 27 28  1  0  0  0  0
 29 30  1  6  0  0  0
 29 33  1  0  0  0  0
 31 32  1  1  0  0  0
 31 35  1  0  0  0  0
 33 34  1  0  0  0  0
 33 37  1  1  0  0  0
 35 36  1  6  0  0  0
 37 38  1  0  0  0  0
M  END
>  <CHROM.1>
-115.35747284,112.07971676,-171.65809081,171.91042391,173.43972402,-79.01359088
86.73048352,-101.74124880,-178.57141336,-89.96189510,177.35112929,-0.63290448
34.07612790,-3.94048429,1.56691953,0.45003907,-1.59818745

>  <Name>
1ntb_lig

>  <RI>
0

>  <Rbt.Current_Directory>
/home/itssahil/PROJECTS/Mol_Feturizer/New_Systems/rnas/1ntb

>  <Rbt.Executable>
rbdock ($Id: //depot/dev/client3/rdock/2013.1/src/exe/rbdock.cxx#4 $)

>  <Rbt.Library>
libRbt.so (2013.1, Build901 2013/11/27)

>  <Rbt.Parameter_File>
/export/apps/rDock/src/rDock_2013.1_src/data/scripts/dock_solv.prm

>  <Rbt.Receptor>
prm/pocket_docking_8.prm

>  <SCORE>
-10.3717

>  <SCORE.INTER>
2.93498

>  <SCORE.INTER.CONST>
1

>  <SCORE.INTER.POLAR>
0

>  <SCORE.INTER.ROT>
11

>  <SCORE.INTER.SOLV>
6.30335

>  <SCORE.INTER.VDW>
-11.0778

>  <SCORE.INTER.norm>
0.0733745

>  <SCORE.INTRA>
-13.3067

>  <SCORE.INTRA.DIHEDRAL>
-7.89467

>  <SCORE.INTRA.DIHEDRAL.0>
15.4453

>  <SCORE.INTRA.POLAR>
0

>  <SCORE.INTRA.POLAR.0>
0

>  <SCORE.INTRA.REPUL>
-0.823958

>  <SCORE.INTRA.REPUL.0>
0.823958

>  <SCORE.INTRA.SOLV>
-1.5034

>  <SCORE.INTRA.SOLV.lig_0>
-99.3069

>  <SCORE.INTRA.VDW>
-4.4879

>  <SCORE.INTRA.VDW.0>
0.946495

>  <SCORE.INTRA.norm>
-0.332668

>  <SCORE.RESTR>
0

>  <SCORE.RESTR.CAVITY>
0

>  <SCORE.RESTR.norm>
0

>  <SCORE.SYSTEM>
0

>  <SCORE.SYSTEM.CONST>
0

>  <SCORE.SYSTEM.DIHEDRAL>
0

>  <SCORE.SYSTEM.SOLV>
0

>  <SCORE.SYSTEM.norm>
0

>  <SCORE.heavy>
40

>  <SCORE.norm>
-0.259294

>  <RMSD>
7.782

$$$$
1ntb_lig
 OpenBabel11021811403D
libRbt.so/2013.1/901 2013/11/27
 40 42  0  0  0  0  0  0  0  0999 V2000
   -1.7792   30.3351   -2.9547 C   0  0  0  0  0  0  0  0  0  0  0  0
   -2.5834   30.2813   -1.9644 N   0  0  0  0  0  0  0  0  0  0  0  0
    1.4949   39.3312   -6.2494 C   0  0  0  0  0  0  0  0  0  0  0  0
    1.5494   40.6999   -6.6156 O   0  0  0  0  0  0  0  0  0  0  0  0
    0.3893   33.3952   -8.1125 C   0  0  0  0  0  0  0  0  0  0  0  0
    0.8004   32.2223   -8.4400 N   0  0  0  0  0  0  0  0  0  0  0  0
   -1.3985   40.3729   -7.3092 C   0  0  0  0  0  0  0  0  0  0  0  0
    1.0386   40.4579   -2.2654 C   0  0  0  0  0  0  0  0  0  0  0  0
   -1.3543   32.3621   -4.0844 C   0  0  2  0  0  0  0  0  0  0  0  0
   -0.9841   31.3872   -2.9874 N   0  0  0  0  0  0  0  0  0  0  0  0
   -1.4151   37.0885   -6.0571 C   0  0  2  0  0  0  0  0  0  0  0  0
    1.2461   37.5803   -3.6468 C   0  0  1  0  0  0  0  0  0  0  0  0
   -0.0457   37.3667   -4.1851 O   0  0  0  0  0  0  0  0  0  0  0  0
   -0.1648   32.6333   -4.9990 C   0  0  1  0  0  0  0  0  0  0  0  0
    0.2278   31.2899   -5.5217 O   0  0  0  0  0  0  0  0  0  0  0  0
   -0.0497   37.4952   -5.5335 C   0  0  2  0  0  0  0  0  0  0  0  0
    1.1062   37.9859   -2.1996 C   0  0  1  0  0  0  0  0  0  0  0  0
    0.3704   39.1973   -2.1081 N   0  0  0  0  0  0  0  0  0  0  0  0
   -0.4807   33.6366   -6.1064 C   0  0  2  0  0  0  0  0  0  0  0  0
    0.6149   33.9273   -7.0080 N   0  0  0  0  0  0  0  0  0  0  0  0
    0.0658   38.9341   -5.9615 C   0  0  1  0  0  0  0  0  0  0  0  0
   -0.4885   39.7893   -4.9562 O   0  0  0  0  0  0  0  0  0  0  0  0
    0.3638   36.8772   -1.4727 C   0  0  2  0  0  0  0  0  0  0  0  0
    0.1964   37.2110   -0.1122 O   0  0  0  0  0  0  0  0  0  0  0  0
   -0.9207   34.9232   -5.4573 C   0  0  1  0  0  0  0  0  0  0  0  0
   -1.3851   35.7555   -6.5563 O   0  0  0  0  0  0  0  0  0  0  0  0
   -0.7547   39.0154   -7.1954 C   0  0  1  0  0  0  0  0  0  0  0  0
   -1.7592   38.0027   -7.1007 O   0  0  0  0  0  0  0  0  0  0  0  0
    1.2085   35.6104   -1.6106 C   0  0  1  0  0  0  0  0  0  0  0  0
    0.5747   34.5210   -0.9585 O   0  0  0  0  0  0  0  0  0  0  0  0
   -2.1636   34.6713   -4.5617 C   0  0  2  0  0  0  0  0  0  0  0  0
   -2.5696   35.8967   -3.9720 O   0  0  0  0  0  0  0  0  0  0  0  0
    1.3917   35.2963   -3.0957 C   0  0  1  0  0  0  0  0  0  0  0  0
    2.0282   36.3928   -3.7498 O   0  0  0  0  0  0  0  0  0  0  0  0
   -1.8001   33.6652   -3.4527 C   0  0  1  0  0  0  0  0  0  0  0  0
   -2.9376   33.4220   -2.6165 O   0  0  0  0  0  0  0  0  0  0  0  0
    2.2634   34.0479   -3.2347 C   0  0  0  0  0  0  0  0  0  0  0  0
    3.5717   34.3394   -2.7700 O   0  0  0  0  0  0  0  0  0  0  0  0
   -1.7588   29.4380   -3.8769 N   0  0  0  0  0  0  0  0  0  0  0  0
   -0.2267   34.0813   -8.9470 N   0  0  0  0  0  0  0  0  0  0  0  0
  1  2  1  0  0  0  0
  1 39  1  0  0  0  0
  3  4  1  0  0  0  0
  5  6  1  0  0  0  0
  5 40  1  0  0  0  0
  9 10  1  1  0  0  0
  9 14  1  0  0  0  0
  9 35  1  0  0  0  0
 10  1  1  0  0  0  0
 11 16  1  0  0  0  0
 11 28  1  0  0  0  0
 11 26  1  6  0  0  0
 12 17  1  0  0  0  0
 12 34  1  0  0  0  0
 12 13  1  1  0  0  0
 14 15  1  6  0  0  0
 14 19  1  0  0  0  0
 16 13  1  1  0  0  0
 16 21  1  0  0  0  0
 17 18  1  6  0  0  0
 17 23  1  0  0  0  0
 18  8  1  0  0  0  0
 19 20  1  1  0  0  0
 19 25  1  0  0  0  0
 20  5  1  0  0  0  0
 21  3  1  6  0  0  0
 21 22  1  0  0  0  0
 21 27  1  0  0  0  0
 23 24  1  1  0  0  0
 23 29  1  0  0  0  0
 25 26  1  6  0  0  0
 25 31  1  0  0  0  0
 27  7  1  1  0  0  0
 27 28  1  0  0  0  0
 29 30  1  1  0  0  0
 29 33  1  0  0  0  0
 31 32  1  1  0  0  0
 31 35  1  0  0  0  0
 33 34  1  0  0  0  0
 33 37  1  1  0  0  0
 35 36  1  1  0  0  0
 37 38  1  0  0  0  0
M  END
>  <CHROM.1>
-124.58180957,-108.85534687,56.78483557,156.98648907,173.12064838,-84.22156940
107.65287582,-92.48416710,-178.59888539,-162.47883273,-66.49297049,-0.15598911
35.56877705,-4.48149666,-2.33244064,-1.33362368,-0.87709670

>  <Name>
1ntb_lig

>  <RI>
0

>  <Rbt.Current_Directory>
/home/itssahil/PROJECTS/Mol_Feturizer/New_Systems/rnas/1ntb

>  <Rbt.Executable>
rbdock ($Id: //depot/dev/client3/rdock/2013.1/src/exe/rbdock.cxx#4 $)

>  <Rbt.Library>
libRbt.so (2013.1, Build901 2013/11/27)

>  <Rbt.Parameter_File>
/export/apps/rDock/src/rDock_2013.1_src/data/scripts/dock_solv.prm

>  <Rbt.Receptor>
prm/pocket_docking_6.prm

>  <SCORE>
-15.5725

>  <SCORE.INTER>
-0.972383

>  <SCORE.INTER.CONST>
1

>  <SCORE.INTER.POLAR>
-0.545599

>  <SCORE.INTER.ROT>
11

>  <SCORE.INTER.SOLV>
10.8549

>  <SCORE.INTER.VDW>
-13.3812

>  <SCORE.INTER.norm>
-0.0243096

>  <SCORE.INTRA>
-14.6001

>  <SCORE.INTRA.DIHEDRAL>
-7.36749

>  <SCORE.INTRA.DIHEDRAL.0>
15.4453

>  <SCORE.INTRA.POLAR>
0

>  <SCORE.INTRA.POLAR.0>
0

>  <SCORE.INTRA.REPUL>
-0.809451

>  <SCORE.INTRA.REPUL.0>
0.823958

>  <SCORE.INTRA.SOLV>
-0.900774

>  <SCORE.INTRA.SOLV.lig_0>
-99.3069

>  <SCORE.INTRA.VDW>
-6.41869

>  <SCORE.INTRA.VDW.0>
0.946495

>  <SCORE.INTRA.norm>
-0.365002

>  <SCORE.RESTR>
0

>  <SCORE.RESTR.CAVITY>
0

>  <SCORE.RESTR.norm>
0

>  <SCORE.SYSTEM>
0

>  <SCORE.SYSTEM.CONST>
0

>  <SCORE.SYSTEM.DIHEDRAL>
0

>  <SCORE.SYSTEM.SOLV>
0

>  <SCORE.SYSTEM.norm>
0

>  <SCORE.heavy>
40

>  <SCORE.norm>
-0.389312

>  <RMSD>
7.788

$$$$
1ntb_lig
 OpenBabel11021811403D
libRbt.so/2013.1/901 2013/11/27
 40 42  0  0  0  0  0  0  0  0999 V2000
    0.8106   42.6462   -5.7313 C   0  0  0  0  0  0  0  0  0  0  0  0
    0.6622   43.6048   -4.9010 N   0  0  0  0  0  0  0  0  0  0  0  0
    1.3645   35.5138    1.6155 C   0  0  0  0  0  0  0  0  0  0  0  0
    2.7108   35.9523    1.6904 O   0  0  0  0  0  0  0  0  0  0  0  0
   -0.2128   37.8826   -4.6276 C   0  0  0  0  0  0  0  0  0  0  0  0
   -0.9201   38.1585   -3.5905 N   0  0  0  0  0  0  0  0  0  0  0  0
   -0.7232   38.0058    1.5094 C   0  0  0  0  0  0  0  0  0  0  0  0
   -0.8674   31.5222   -2.5363 C   0  0  0  0  0  0  0  0  0  0  0  0
    2.4215   41.0734   -5.0264 C   0  0  2  0  0  0  0  0  0  0  0  0
    2.0516   42.2396   -5.9175 N   0  0  0  0  0  0  0  0  0  0  0  0
    1.0513   37.4790   -1.4788 C   0  0  2  0  0  0  0  0  0  0  0  0
    1.3354   33.8909   -1.0298 C   0  0  1  0  0  0  0  0  0  0  0  0
    0.9814   35.1463   -1.5802 O   0  0  0  0  0  0  0  0  0  0  0  0
    1.5048   39.8811   -5.2777 C   0  0  1  0  0  0  0  0  0  0  0  0
    1.6653   39.5771   -6.7315 O   0  0  0  0  0  0  0  0  0  0  0  0
    1.4079   36.1687   -0.8008 C   0  0  2  0  0  0  0  0  0  0  0  0
    1.1832   32.8344   -2.0972 C   0  0  1  0  0  0  0  0  0  0  0  0
   -0.1691   32.7762   -2.5276 N   0  0  0  0  0  0  0  0  0  0  0  0
    1.8196   38.6871   -4.3790 C   0  0  2  0  0  0  0  0  0  0  0  0
    0.9802   37.5240   -4.5797 N   0  0  0  0  0  0  0  0  0  0  0  0
    0.6506   36.2390    0.4987 C   0  0  1  0  0  0  0  0  0  0  0  0
   -0.6654   35.7026    0.3272 O   0  0  0  0  0  0  0  0  0  0  0  0
    2.0783   33.2162   -3.2642 C   0  0  2  0  0  0  0  0  0  0  0  0
    1.9664   32.2633   -4.2985 O   0  0  0  0  0  0  0  0  0  0  0  0
    1.6838   39.1339   -2.9465 C   0  0  1  0  0  0  0  0  0  0  0  0
    2.1808   38.0166   -2.1586 O   0  0  0  0  0  0  0  0  0  0  0  0
    0.5647   37.6909    0.7934 C   0  0  1  0  0  0  0  0  0  0  0  0
    0.6102   38.3784   -0.4590 O   0  0  0  0  0  0  0  0  0  0  0  0
    3.5107   33.2590   -2.7316 C   0  0  1  0  0  0  0  0  0  0  0  0
    4.4121   33.6169   -3.7676 O   0  0  0  0  0  0  0  0  0  0  0  0
    2.6494   40.3159   -2.6622 C   0  0  2  0  0  0  0  0  0  0  0  0
    2.5159   40.7114   -1.3058 O   0  0  0  0  0  0  0  0  0  0  0  0
    3.5869   34.2801   -1.5961 C   0  0  1  0  0  0  0  0  0  0  0  0
    2.6796   33.9191   -0.5560 O   0  0  0  0  0  0  0  0  0  0  0  0
    2.2911   41.5015   -3.5788 C   0  0  1  0  0  0  0  0  0  0  0  0
    3.1739   42.6017   -3.3284 O   0  0  0  0  0  0  0  0  0  0  0  0
    5.0116   34.2999   -1.0417 C   0  0  0  0  0  0  0  0  0  0  0  0
    5.3117   33.0307   -0.4836 O   0  0  0  0  0  0  0  0  0  0  0  0
   -0.1789   42.1242   -6.3670 N   0  0  0  0  0  0  0  0  0  0  0  0
   -0.7405   37.9168   -5.7532 N   0  0  0  0  0  0  0  0  0  0  0  0
  1  2  1  0  0  0  0
  1 39  1  0  0  0  0
  3  4  1  0  0  0  0
  5  6  1  0  0  0  0
  5 40  1  0  0  0  0
  9 10  1  6  0  0  0
  9 14  1  0  0  0  0
  9 35  1  0  0  0  0
 10  1  1  0  0  0  0
 11 16  1  0  0  0  0
 11 28  1  0  0  0  0
 11 26  1  1  0  0  0
 12 17  1  0  0  0  0
 12 34  1  0  0  0  0
 12 13  1  6  0  0  0
 14 15  1  6  0  0  0
 14 19  1  0  0  0  0
 16 13  1  6  0  0  0
 16 21  1  0  0  0  0
 17 18  1  6  0  0  0
 17 23  1  0  0  0  0
 18  8  1  0  0  0  0
 19 20  1  6  0  0  0
 19 25  1  0  0  0  0
 20  5  1  0  0  0  0
 21  3  1  1  0  0  0
 21 22  1  0  0  0  0
 21 27  1  0  0  0  0
 23 24  1  6  0  0  0
 23 29  1  0  0  0  0
 25 26  1  1  0  0  0
 25 31  1  0  0  0  0
 27  7  1  6  0  0  0
 27 28  1  0  0  0  0
 29 30  1  6  0  0  0
 29 33  1  0  0  0  0
 31 32  1  1  0  0  0
 31 35  1  0  0  0  0
 33 34  1  0  0  0  0
 33 37  1  1  0  0  0
 35 36  1  1  0  0  0
 37 38  1  0  0  0  0
M  END
>  <CHROM.1>
59.37246700,93.97738201,170.78857321,-164.53792414,177.48092891,-127.43738568
-46.75092860,-79.07195077,51.20001894,-111.63494572,-63.31733080,1.57976843
37.17920311,-2.53216030,-2.54434246,-1.47282847,1.73960466

>  <Name>
1ntb_lig

>  <RI>
0

>  <Rbt.Current_Directory>
/home/itssahil/PROJECTS/Mol_Feturizer/New_Systems/rnas/1ntb

>  <Rbt.Executable>
rbdock ($Id: //depot/dev/client3/rdock/2013.1/src/exe/rbdock.cxx#4 $)

>  <Rbt.Library>
libRbt.so (2013.1, Build901 2013/11/27)

>  <Rbt.Parameter_File>
/export/apps/rDock/src/rDock_2013.1_src/data/scripts/dock_solv.prm

>  <Rbt.Receptor>
prm/pocket_docking_5.prm

>  <SCORE>
-10.8522

>  <SCORE.INTER>
-5.79062

>  <SCORE.INTER.CONST>
1

>  <SCORE.INTER.POLAR>
-0.72111

>  <SCORE.INTER.ROT>
11

>  <SCORE.INTER.SOLV>
11.8747

>  <SCORE.INTER.VDW>
-16.3483

>  <SCORE.INTER.norm>
-0.144765

>  <SCORE.INTRA>
-5.0616

>  <SCORE.INTRA.DIHEDRAL>
-4.15783

>  <SCORE.INTRA.DIHEDRAL.0>
15.4453

>  <SCORE.INTRA.POLAR>
0

>  <SCORE.INTRA.POLAR.0>
0

>  <SCORE.INTRA.REPUL>
-0.796393

>  <SCORE.INTRA.REPUL.0>
0.823958

>  <SCORE.INTRA.SOLV>
3.33288

>  <SCORE.INTRA.SOLV.lig_0>
-99.3069

>  <SCORE.INTRA.VDW>
-0.66716

>  <SCORE.INTRA.VDW.0>
0.946495

>  <SCORE.INTRA.norm>
-0.12654

>  <SCORE.RESTR>
0

>  <SCORE.RESTR.CAVITY>
0

>  <SCORE.RESTR.norm>
0

>  <SCORE.SYSTEM>
0

>  <SCORE.SYSTEM.CONST>
0

>  <SCORE.SYSTEM.DIHEDRAL>
0

>  <SCORE.SYSTEM.SOLV>
0

>  <SCORE.SYSTEM.norm>
0

>  <SCORE.heavy>
40

>  <SCORE.norm>
-0.271305

>  <RMSD>
7.801

$$$$
1ntb_lig
 OpenBabel11021811403D
libRbt.so/2013.1/901 2013/11/27
 40 42  0  0  0  0  0  0  0  0999 V2000
   -0.6831   37.6189   -7.6002 C   0  0  0  0  0  0  0  0  0  0  0  0
    0.0875   37.8158   -8.5989 N   0  0  0  0  0  0  0  0  0  0  0  0
   -1.7051   31.8687    1.0998 C   0  0  0  0  0  0  0  0  0  0  0  0
   -2.4267   31.2244    2.1364 O   0  0  0  0  0  0  0  0  0  0  0  0
    0.8944   37.3356   -1.5307 C   0  0  0  0  0  0  0  0  0  0  0  0
    1.9716   37.9267   -1.9078 N   0  0  0  0  0  0  0  0  0  0  0  0
   -4.7140   33.0686    1.3948 C   0  0  0  0  0  0  0  0  0  0  0  0
   -2.4490   28.6048   -2.3734 C   0  0  0  0  0  0  0  0  0  0  0  0
   -1.0030   36.6207   -5.4866 C   0  0  2  0  0  0  0  0  0  0  0  0
   -0.4240   36.5425   -6.8829 N   0  0  0  0  0  0  0  0  0  0  0  0
   -2.8756   34.4186   -1.2798 C   0  0  2  0  0  0  0  0  0  0  0  0
   -0.8643   31.4734   -1.9167 C   0  0  1  0  0  0  0  0  0  0  0  0
   -1.8475   32.4790   -2.0785 O   0  0  0  0  0  0  0  0  0  0  0  0
    0.0765   36.3943   -4.4338 C   0  0  1  0  0  0  0  0  0  0  0  0
    1.0971   37.4521   -4.7012 O   0  0  0  0  0  0  0  0  0  0  0  0
   -1.9537   33.2528   -0.9718 C   0  0  2  0  0  0  0  0  0  0  0  0
   -0.9915   30.4854   -3.0508 C   0  0  1  0  0  0  0  0  0  0  0  0
   -2.2740   29.8759   -3.0167 N   0  0  0  0  0  0  0  0  0  0  0  0
   -0.4652   36.4336   -3.0064 C   0  0  2  0  0  0  0  0  0  0  0  0
    0.5205   36.2286   -1.9653 N   0  0  0  0  0  0  0  0  0  0  0  0
   -2.6663   32.5397    0.1466 C   0  0  1  0  0  0  0  0  0  0  0  0
   -3.5783   31.5760   -0.3907 O   0  0  0  0  0  0  0  0  0  0  0  0
   -0.8180   31.2455   -4.3550 C   0  0  2  0  0  0  0  0  0  0  0  0
   -0.9382   30.3672   -5.4526 O   0  0  0  0  0  0  0  0  0  0  0  0
   -1.5232   35.3682   -2.8804 C   0  0  1  0  0  0  0  0  0  0  0  0
   -2.1225   35.5905   -1.5736 O   0  0  0  0  0  0  0  0  0  0  0  0
   -3.4225   33.6118    0.8403 C   0  0  1  0  0  0  0  0  0  0  0  0
   -3.6935   34.6292   -0.1265 O   0  0  0  0  0  0  0  0  0  0  0  0
    0.5764   31.8715   -4.3237 C   0  0  1  0  0  0  0  0  0  0  0  0
    0.8135   32.6085   -5.5130 O   0  0  0  0  0  0  0  0  0  0  0  0
   -2.6553   35.6154   -3.9136 C   0  0  2  0  0  0  0  0  0  0  0  0
   -3.6468   34.6104   -3.7685 O   0  0  0  0  0  0  0  0  0  0  0  0
    0.6785   32.7933   -3.1080 C   0  0  1  0  0  0  0  0  0  0  0  0
    0.4391   32.0509   -1.9135 O   0  0  0  0  0  0  0  0  0  0  0  0
   -2.0705   35.5557   -5.3379 C   0  0  1  0  0  0  0  0  0  0  0  0
   -3.1037   35.7819   -6.3042 O   0  0  0  0  0  0  0  0  0  0  0  0
    2.0833   33.3946   -3.0582 C   0  0  0  0  0  0  0  0  0  0  0  0
    2.2169   34.1683   -1.8767 O   0  0  0  0  0  0  0  0  0  0  0  0
   -1.6656   38.4017   -7.3215 N   0  0  0  0  0  0  0  0  0  0  0  0
    0.1932   37.8523   -0.6430 N   0  0  0  0  0  0  0  0  0  0  0  0
  1  2  1  0  0  0  0
  1 39  1  0  0  0  0
  3  4  1  0  0  0  0
  5  6  1  0  0  0  0
  5 40  1  0  0  0  0
  9 10  1  6  0  0  0
  9 14  1  0  0  0  0
  9 35  1  0  0  0  0
 10  1  1  0  0  0  0
 11 16  1  0  0  0  0
 11 28  1  0  0  0  0
 11 26  1  1  0  0  0
 12 17  1  0  0  0  0
 12 34  1  0  0  0  0
 12 13  1  6  0  0  0
 14 15  1  1  0  0  0
 14 19  1  0  0  0  0
 16 13  1  6  0  0  0
 16 21  1  0  0  0  0
 17 18  1  6  0  0  0
 17 23  1  0  0  0  0
 18  8  1  0  0  0  0
 19 20  1  1  0  0  0
 19 25  1  0  0  0  0
 20  5  1  0  0  0  0
 21  3  1  1  0  0  0
 21 22  1  0  0  0  0
 21 27  1  0  0  0  0
 23 24  1  6  0  0  0
 23 29  1  0  0  0  0
 25 26  1  1  0  0  0
 25 31  1  0  0  0  0
 27  7  1  6  0  0  0
 27 28  1  0  0  0  0
 29 30  1  6  0  0  0
 29 33  1  0  0  0  0
 31 32  1  6  0  0  0
 31 35  1  0  0  0  0
 33 34  1  0  0  0  0
 33 37  1  1  0  0  0
 35 36  1  6  0  0  0
 37 38  1  0  0  0  0
M  END
>  <CHROM.1>
-125.28563876,159.23650139,71.62954176,168.51513134,172.18808996,-95.87963840
96.85255230,-98.14081143,179.49201313,-165.63515816,-175.51965711,-1.13982132
34.13023847,-2.90588082,-0.34200725,-1.27896842,-2.70616857

>  <Name>
1ntb_lig

>  <RI>
0

>  <Rbt.Current_Directory>
/home/itssahil/PROJECTS/Mol_Feturizer/New_Systems/rnas/1ntb

>  <Rbt.Executable>
rbdock ($Id: //depot/dev/client3/rdock/2013.1/src/exe/rbdock.cxx#4 $)

>  <Rbt.Library>
libRbt.so (2013.1, Build901 2013/11/27)

>  <Rbt.Parameter_File>
/export/apps/rDock/src/rDock_2013.1_src/data/scripts/dock_solv.prm

>  <Rbt.Receptor>
prm/pocket_docking_6.prm

>  <SCORE>
-15.9142

>  <SCORE.INTER>
-1.33265

>  <SCORE.INTER.CONST>
1

>  <SCORE.INTER.POLAR>
-0.72111

>  <SCORE.INTER.ROT>
11

>  <SCORE.INTER.SOLV>
9.93743

>  <SCORE.INTER.VDW>
-12.7305

>  <SCORE.INTER.norm>
-0.0333164

>  <SCORE.INTRA>
-14.5816

>  <SCORE.INTRA.DIHEDRAL>
-8.64995

>  <SCORE.INTRA.DIHEDRAL.0>
15.4453

>  <SCORE.INTRA.POLAR>
0

>  <SCORE.INTRA.POLAR.0>
0

>  <SCORE.INTRA.REPUL>
-0.800942

>  <SCORE.INTRA.REPUL.0>
0.823958

>  <SCORE.INTRA.SOLV>
-0.982841

>  <SCORE.INTRA.SOLV.lig_0>
-99.3069

>  <SCORE.INTRA.VDW>
-5.76049

>  <SCORE.INTRA.VDW.0>
0.946495

>  <SCORE.INTRA.norm>
-0.36454

>  <SCORE.RESTR>
0

>  <SCORE.RESTR.CAVITY>
0

>  <SCORE.RESTR.norm>
0

>  <SCORE.SYSTEM>
0

>  <SCORE.SYSTEM.CONST>
0

>  <SCORE.SYSTEM.DIHEDRAL>
0

>  <SCORE.SYSTEM.SOLV>
0

>  <SCORE.SYSTEM.norm>
0

>  <SCORE.heavy>
40

>  <SCORE.norm>
-0.397856

>  <RMSD>
7.809

$$$$
1ntb_lig
 OpenBabel11021811403D
libRbt.so/2013.1/901 2013/11/27
 40 42  0  0  0  0  0  0  0  0999 V2000
    0.0726   39.5796   -8.6680 C   0  0  0  0  0  0  0  0  0  0  0  0
    1.1278   40.0471   -9.2141 N   0  0  0  0  0  0  0  0  0  0  0  0
    3.4297   36.6840    1.4919 C   0  0  0  0  0  0  0  0  0  0  0  0
    4.6213   37.0248    0.8032 O   0  0  0  0  0  0  0  0  0  0  0  0
   -1.2224   36.8810   -3.5297 C   0  0  0  0  0  0  0  0  0  0  0  0
   -1.3156   37.6438   -2.4994 N   0  0  0  0  0  0  0  0  0  0  0  0
    1.6345   39.3959    1.4335 C   0  0  0  0  0  0  0  0  0  0  0  0
    0.1384   32.8321    1.8554 C   0  0  0  0  0  0  0  0  0  0  0  0
    0.6871   39.1694   -6.4275 C   0  0  2  0  0  0  0  0  0  0  0  0
   -0.1397   39.9561   -7.4217 N   0  0  0  0  0  0  0  0  0  0  0  0
    1.5015   37.5107   -1.5303 C   0  0  2  0  0  0  0  0  0  0  0  0
    2.0936   34.2133   -0.2160 C   0  0  1  0  0  0  0  0  0  0  0  0
    1.3723   35.3587   -0.6307 O   0  0  0  0  0  0  0  0  0  0  0  0
   -0.1722   38.1508   -5.6867 C   0  0  1  0  0  0  0  0  0  0  0  0
   -0.7604   37.2955   -6.7611 O   0  0  0  0  0  0  0  0  0  0  0  0
    2.1602   36.4603   -0.6546 C   0  0  2  0  0  0  0  0  0  0  0  0
    1.2068   33.0014   -0.3694 C   0  0  1  0  0  0  0  0  0  0  0  0
    0.0584   33.1378    0.4553 N   0  0  0  0  0  0  0  0  0  0  0  0
    0.6125   37.3513   -4.6486 C   0  0  2  0  0  0  0  0  0  0  0  0
   -0.1561   36.3648   -3.9180 N   0  0  0  0  0  0  0  0  0  0  0  0
    2.2291   37.1317    0.6914 C   0  0  1  0  0  0  0  0  0  0  0  0
    1.0268   36.8787    1.4261 O   0  0  0  0  0  0  0  0  0  0  0  0
    0.7857   32.9113   -1.8265 C   0  0  2  0  0  0  0  0  0  0  0  0
   -0.0564   31.7967   -2.0242 O   0  0  0  0  0  0  0  0  0  0  0  0
    1.2042   38.3239   -3.6617 C   0  0  1  0  0  0  0  0  0  0  0  0
    2.0854   37.5203   -2.8287 O   0  0  0  0  0  0  0  0  0  0  0  0
    2.3263   38.5781    0.3737 C   0  0  1  0  0  0  0  0  0  0  0  0
    1.6899   38.7753   -0.8909 O   0  0  0  0  0  0  0  0  0  0  0  0
    2.0645   32.7661   -2.6517 C   0  0  1  0  0  0  0  0  0  0  0  0
    1.7533   32.6814   -4.0336 O   0  0  0  0  0  0  0  0  0  0  0  0
    2.1229   39.3372   -4.3963 C   0  0  2  0  0  0  0  0  0  0  0  0
    2.6804   40.2339   -3.4481 O   0  0  0  0  0  0  0  0  0  0  0  0
    2.9625   33.9758   -2.3909 C   0  0  1  0  0  0  0  0  0  0  0  0
    3.2735   34.0599   -1.0011 O   0  0  0  0  0  0  0  0  0  0  0  0
    1.2922   40.1299   -5.4238 C   0  0  1  0  0  0  0  0  0  0  0  0
    2.1263   41.0704   -6.1109 O   0  0  0  0  0  0  0  0  0  0  0  0
    4.2554   33.8154   -3.1909 C   0  0  0  0  0  0  0  0  0  0  0  0
    4.9444   32.6618   -2.7359 O   0  0  0  0  0  0  0  0  0  0  0  0
   -0.7220   38.7732   -9.2797 N   0  0  0  0  0  0  0  0  0  0  0  0
   -2.2501   36.5823   -4.1632 N   0  0  0  0  0  0  0  0  0  0  0  0
  1  2  1  0  0  0  0
  1 39  1  0  0  0  0
  3  4  1  0  0  0  0
  5  6  1  0  0  0  0
  5 40  1  0  0  0  0
  9 10  1  6  0  0  0
  9 14  1  0  0  0  0
  9 35  1  0  0  0  0
 10  1  1  0  0  0  0
 11 16  1  0  0  0  0
 11 28  1  0  0  0  0
 11 26  1  6  0  0  0
 12 17  1  0  0  0  0
 12 34  1  0  0  0  0
 12 13  1  6  0  0  0
 14 15  1  6  0  0  0
 14 19  1  0  0  0  0
 16 13  1  1  0  0  0
 16 21  1  0  0  0  0
 17 18  1  1  0  0  0
 17 23  1  0  0  0  0
 18  8  1  0  0  0  0
 19 20  1  1  0  0  0
 19 25  1  0  0  0  0
 20  5  1  0  0  0  0
 21  3  1  1  0  0  0
 21 22  1  0  0  0  0
 21 27  1  0  0  0  0
 23 24  1  1  0  0  0
 23 29  1  0  0  0  0
 25 26  1  1  0  0  0
 25 31  1  0  0  0  0
 27  7  1  1  0  0  0
 27 28  1  0  0  0  0
 29 30  1  6  0  0  0
 29 33  1  0  0  0  0
 31 32  1  1  0  0  0
 31 35  1  0  0  0  0
 33 34  1  0  0  0  0
 33 37  1  6  0  0  0
 35 36  1  6  0  0  0
 37 38  1  0  0  0  0
M  END
>  <CHROM.1>
-104.87367715,-79.86978975,167.48182138,-173.33035872,160.83753267,-80.76869814
-46.77076186,-79.36266360,61.41162636,-112.86290234,-62.69302714,1.34777998
36.62884427,-2.80720774,2.23873448,-1.26396799,-0.29435750

>  <Name>
1ntb_lig

>  <RI>
0

>  <Rbt.Current_Directory>
/home/itssahil/PROJECTS/Mol_Feturizer/New_Systems/rnas/1ntb

>  <Rbt.Executable>
rbdock ($Id: //depot/dev/client3/rdock/2013.1/src/exe/rbdock.cxx#4 $)

>  <Rbt.Library>
libRbt.so (2013.1, Build901 2013/11/27)

>  <Rbt.Parameter_File>
/export/apps/rDock/src/rDock_2013.1_src/data/scripts/dock_solv.prm

>  <Rbt.Receptor>
prm/pocket_docking_7.prm

>  <SCORE>
-16.8396

>  <SCORE.INTER>
-8.50933

>  <SCORE.INTER.CONST>
1

>  <SCORE.INTER.POLAR>
-0.72111

>  <SCORE.INTER.ROT>
11

>  <SCORE.INTER.SOLV>
10.3726

>  <SCORE.INTER.VDW>
-17.6601

>  <SCORE.INTER.norm>
-0.212733

>  <SCORE.INTRA>
-8.33024

>  <SCORE.INTRA.DIHEDRAL>
-2.84696

>  <SCORE.INTRA.DIHEDRAL.0>
15.4453

>  <SCORE.INTRA.POLAR>
0

>  <SCORE.INTRA.POLAR.0>
0

>  <SCORE.INTRA.REPUL>
-0.812219

>  <SCORE.INTRA.REPUL.0>
0.823958

>  <SCORE.INTRA.SOLV>
1.24237

>  <SCORE.INTRA.SOLV.lig_0>
-99.3069

>  <SCORE.INTRA.VDW>
-3.46685

>  <SCORE.INTRA.VDW.0>
0.946495

>  <SCORE.INTRA.norm>
-0.208256

>  <SCORE.RESTR>
0

>  <SCORE.RESTR.CAVITY>
0

>  <SCORE.RESTR.norm>
0

>  <SCORE.SYSTEM>
0

>  <SCORE.SYSTEM.CONST>
0

>  <SCORE.SYSTEM.DIHEDRAL>
0

>  <SCORE.SYSTEM.SOLV>
0

>  <SCORE.SYSTEM.norm>
0

>  <SCORE.heavy>
40

>  <SCORE.norm>
-0.420989

>  <RMSD>
7.825

$$$$
1ntb_lig
 OpenBabel11021811403D
libRbt.so/2013.1/901 2013/11/27
 40 42  0  0  0  0  0  0  0  0999 V2000
   -1.8951   30.0831   -3.3561 C   0  0  0  0  0  0  0  0  0  0  0  0
   -2.8532   29.9780   -2.5187 N   0  0  0  0  0  0  0  0  0  0  0  0
    1.5257   39.2777   -5.9564 C   0  0  0  0  0  0  0  0  0  0  0  0
    1.6055   40.6827   -6.1290 O   0  0  0  0  0  0  0  0  0  0  0  0
    0.4531   33.4282   -8.1762 C   0  0  0  0  0  0  0  0  0  0  0  0
    0.8254   32.2485   -8.5251 N   0  0  0  0  0  0  0  0  0  0  0  0
   -1.3355   40.3928   -7.0288 C   0  0  0  0  0  0  0  0  0  0  0  0
    0.9252   40.1701   -1.8178 C   0  0  0  0  0  0  0  0  0  0  0  0
   -1.4637   32.2073   -4.2875 C   0  0  2  0  0  0  0  0  0  0  0  0
   -1.1490   31.1644   -3.2366 N   0  0  0  0  0  0  0  0  0  0  0  0
   -1.3936   37.0390   -5.9781 C   0  0  2  0  0  0  0  0  0  0  0  0
    1.1986   37.3927   -3.4690 C   0  0  1  0  0  0  0  0  0  0  0  0
   -0.0747   37.1984   -4.0565 O   0  0  0  0  0  0  0  0  0  0  0  0
   -0.2369   32.5115   -5.1403 C   0  0  1  0  0  0  0  0  0  0  0  0
    0.1560   31.1945   -5.7259 O   0  0  0  0  0  0  0  0  0  0  0  0
   -0.0419   37.4080   -5.3944 C   0  0  2  0  0  0  0  0  0  0  0  0
    1.0128   37.7049   -2.0039 C   0  0  1  0  0  0  0  0  0  0  0  0
    0.2586   38.8996   -1.8581 N   0  0  0  0  0  0  0  0  0  0  0  0
   -0.4965   33.5825   -6.1978 C   0  0  2  0  0  0  0  0  0  0  0  0
    0.6362   33.9070   -7.0399 N   0  0  0  0  0  0  0  0  0  0  0  0
    0.0885   38.8696   -5.7315 C   0  0  1  0  0  0  0  0  0  0  0  0
   -0.4908   39.6648   -4.6917 O   0  0  0  0  0  0  0  0  0  0  0  0
    0.2652   36.5442   -1.3695 C   0  0  2  0  0  0  0  0  0  0  0  0
    0.0553   36.7899    0.0039 O   0  0  0  0  0  0  0  0  0  0  0  0
   -0.9424   34.8362   -5.4911 C   0  0  1  0  0  0  0  0  0  0  0  0
   -1.3532   35.7384   -6.5558 O   0  0  0  0  0  0  0  0  0  0  0  0
   -0.6982   39.0283   -6.9799 C   0  0  1  0  0  0  0  0  0  0  0  0
   -1.7072   38.0158   -6.9735 O   0  0  0  0  0  0  0  0  0  0  0  0
    1.1304   35.2985   -1.5619 C   0  0  1  0  0  0  0  0  0  0  0  0
    0.4932   34.1629   -0.9977 O   0  0  0  0  0  0  0  0  0  0  0  0
   -2.2216   34.5532   -4.6581 C   0  0  2  0  0  0  0  0  0  0  0  0
   -2.6322   35.7488   -4.0131 O   0  0  0  0  0  0  0  0  0  0  0  0
    1.3592   35.0804   -3.0578 C   0  0  1  0  0  0  0  0  0  0  0  0
    1.9990   36.2232   -3.6235 O   0  0  0  0  0  0  0  0  0  0  0  0
   -1.9145   33.4787   -3.5974 C   0  0  1  0  0  0  0  0  0  0  0  0
   -3.0861   33.2060   -2.8193 O   0  0  0  0  0  0  0  0  0  0  0  0
    2.2511   33.8535   -3.2494 C   0  0  0  0  0  0  0  0  0  0  0  0
    3.5248   34.1102   -2.6801 O   0  0  0  0  0  0  0  0  0  0  0  0
   -1.6819   29.2077   -4.2747 N   0  0  0  0  0  0  0  0  0  0  0  0
   -0.0761   34.1753   -9.0179 N   0  0  0  0  0  0  0  0  0  0  0  0
  1  2  1  0  0  0  0
  1 39  1  0  0  0  0
  3  4  1  0  0  0  0
  5  6  1  0  0  0  0
  5 40  1  0  0  0  0
  9 10  1  1  0  0  0
  9 14  1  0  0  0  0
  9 35  1  0  0  0  0
 10  1  1  0  0  0  0
 11 16  1  0  0  0  0
 11 28  1  0  0  0  0
 11 26  1  6  0  0  0
 12 17  1  0  0  0  0
 12 34  1  0  0  0  0
 12 13  1  1  0  0  0
 14 15  1  6  0  0  0
 14 19  1  0  0  0  0
 16 13  1  1  0  0  0
 16 21  1  0  0  0  0
 17 18  1  6  0  0  0
 17 23  1  0  0  0  0
 18  8  1  0  0  0  0
 19 20  1  1  0  0  0
 19 25  1  0  0  0  0
 20  5  1  0  0  0  0
 21  3  1  6  0  0  0
 21 22  1  0  0  0  0
 21 27  1  0  0  0  0
 23 24  1  1  0  0  0
 23 29  1  0  0  0  0
 25 26  1  6  0  0  0
 25 31  1  0  0  0  0
 27  7  1  1  0  0  0
 27 28  1  0  0  0  0
 29 30  1  6  0  0  0
 29 33  1  0  0  0  0
 31 32  1  1  0  0  0
 31 35  1  0  0  0  0
 33 34  1  0  0  0  0
 33 37  1  1  0  0  0
 35 36  1  6  0  0  0
 37 38  1  0  0  0  0
M  END
>  <CHROM.1>
-119.94481747,-103.18164677,57.71838809,157.14701394,173.96001294,-88.83340058
106.77038497,-89.65854567,-173.83813379,-162.93804608,-64.08161951,-0.19261995
35.42094780,-4.45868975,-2.43351712,-1.33979760,-0.89672569

>  <Name>
1ntb_lig

>  <RI>
0

>  <Rbt.Current_Directory>
/home/itssahil/PROJECTS/Mol_Feturizer/New_Systems/rnas/1ntb

>  <Rbt.Executable>
rbdock ($Id: //depot/dev/client3/rdock/2013.1/src/exe/rbdock.cxx#4 $)

>  <Rbt.Library>
libRbt.so (2013.1, Build901 2013/11/27)

>  <Rbt.Parameter_File>
/export/apps/rDock/src/rDock_2013.1_src/data/scripts/dock_solv.prm

>  <Rbt.Receptor>
prm/pocket_docking_6.prm

>  <SCORE>
-15.5229

>  <SCORE.INTER>
-0.870299

>  <SCORE.INTER.CONST>
1

>  <SCORE.INTER.POLAR>
-0.544447

>  <SCORE.INTER.ROT>
11

>  <SCORE.INTER.SOLV>
10.1199

>  <SCORE.INTER.VDW>
-13.072

>  <SCORE.INTER.norm>
-0.0217575

>  <SCORE.INTRA>
-14.6526

>  <SCORE.INTRA.DIHEDRAL>
-7.22386

>  <SCORE.INTRA.DIHEDRAL.0>
15.4453

>  <SCORE.INTRA.POLAR>
0

>  <SCORE.INTRA.POLAR.0>
0

>  <SCORE.INTRA.REPUL>
-0.801847

>  <SCORE.INTRA.REPUL.0>
0.823958

>  <SCORE.INTRA.SOLV>
-0.99966

>  <SCORE.INTRA.SOLV.lig_0>
-99.3069

>  <SCORE.INTRA.VDW>
-6.53158

>  <SCORE.INTRA.VDW.0>
0.946495

>  <SCORE.INTRA.norm>
-0.366314

>  <SCORE.RESTR>
0

>  <SCORE.RESTR.CAVITY>
0

>  <SCORE.RESTR.norm>
0

>  <SCORE.SYSTEM>
0

>  <SCORE.SYSTEM.CONST>
0

>  <SCORE.SYSTEM.DIHEDRAL>
0

>  <SCORE.SYSTEM.SOLV>
0

>  <SCORE.SYSTEM.norm>
0

>  <SCORE.heavy>
40

>  <SCORE.norm>
-0.388072

>  <RMSD>
7.826

$$$$
1ntb_lig
 OpenBabel11021811403D
libRbt.so/2013.1/901 2013/11/27
 40 42  0  0  0  0  0  0  0  0999 V2000
   -4.2797   33.3902    1.7235 C   0  0  0  0  0  0  0  0  0  0  0  0
   -3.5287   32.6360    2.4286 N   0  0  0  0  0  0  0  0  0  0  0  0
    2.2538   32.8814   -0.2402 C   0  0  0  0  0  0  0  0  0  0  0  0
    1.1001   32.7443    0.5725 O   0  0  0  0  0  0  0  0  0  0  0  0
   -2.3061   37.4003   -2.5344 C   0  0  0  0  0  0  0  0  0  0  0  0
   -3.4331   37.9980   -2.6920 N   0  0  0  0  0  0  0  0  0  0  0  0
    1.2165   33.2795   -3.2973 C   0  0  0  0  0  0  0  0  0  0  0  0
    6.7128   34.9947    1.6268 C   0  0  0  0  0  0  0  0  0  0  0  0
   -3.3375   35.5457    1.5454 C   0  0  2  0  0  0  0  0  0  0  0  0
   -4.3905   34.6365    2.1415 N   0  0  0  0  0  0  0  0  0  0  0  0
    1.0079   36.1728   -1.3122 C   0  0  2  0  0  0  0  0  0  0  0  0
    3.3081   36.1800    1.2101 C   0  0  1  0  0  0  0  0  0  0  0  0
    3.0409   36.0231   -0.1712 O   0  0  0  0  0  0  0  0  0  0  0  0
   -3.3174   35.4355    0.0248 C   0  0  1  0  0  0  0  0  0  0  0  0
   -4.7040   35.7925   -0.4013 O   0  0  0  0  0  0  0  0  0  0  0  0
    1.8821   35.3535   -0.3803 C   0  0  2  0  0  0  0  0  0  0  0  0
    4.7710   36.5083    1.3857 C   0  0  1  0  0  0  0  0  0  0  0  0
    5.5666   35.4423    0.8877 N   0  0  0  0  0  0  0  0  0  0  0  0
   -2.2484   36.3134   -0.6226 C   0  0  2  0  0  0  0  0  0  0  0  0
   -2.1888   36.2501   -2.0683 N   0  0  0  0  0  0  0  0  0  0  0  0
    2.1007   34.0780   -1.1499 C   0  0  1  0  0  0  0  0  0  0  0  0
    3.2517   34.2058   -1.9913 O   0  0  0  0  0  0  0  0  0  0  0  0
    5.0629   37.7771    0.6025 C   0  0  2  0  0  0  0  0  0  0  0  0
    6.4248   38.1249    0.7248 O   0  0  0  0  0  0  0  0  0  0  0  0
   -0.9090   35.9002   -0.0697 C   0  0  1  0  0  0  0  0  0  0  0  0
    0.0257   36.8935   -0.5756 O   0  0  0  0  0  0  0  0  0  0  0  0
    0.8822   33.9424   -1.9862 C   0  0  1  0  0  0  0  0  0  0  0  0
    0.3810   35.2610   -2.2172 O   0  0  0  0  0  0  0  0  0  0  0  0
    4.1774   38.8766    1.1893 C   0  0  1  0  0  0  0  0  0  0  0  0
    4.3890   40.1001    0.5023 O   0  0  0  0  0  0  0  0  0  0  0  0
   -0.8982   36.0558    1.4749 C   0  0  2  0  0  0  0  0  0  0  0  0
    0.3751   35.6756    1.9731 O   0  0  0  0  0  0  0  0  0  0  0  0
    2.7135   38.4531    1.0647 C   0  0  1  0  0  0  0  0  0  0  0  0
    2.5029   37.2226    1.7551 O   0  0  0  0  0  0  0  0  0  0  0  0
   -1.9804   35.1468    2.0886 C   0  0  1  0  0  0  0  0  0  0  0  0
   -1.9832   35.2787    3.5151 O   0  0  0  0  0  0  0  0  0  0  0  0
    1.8293   39.5377    1.6805 C   0  0  0  0  0  0  0  0  0  0  0  0
    0.4740   39.1231    1.6207 O   0  0  0  0  0  0  0  0  0  0  0  0
   -4.9102   32.9619    0.6868 N   0  0  0  0  0  0  0  0  0  0  0  0
   -1.2607   37.9597   -2.9097 N   0  0  0  0  0  0  0  0  0  0  0  0
  1  2  1  0  0  0  0
  1 39  1  0  0  0  0
  3  4  1  0  0  0  0
  5  6  1  0  0  0  0
  5 40  1  0  0  0  0
  9 10  1  1  0  0  0
  9 14  1  0  0  0  0
  9 35  1  0  0  0  0
 10  1  1  0  0  0  0
 11 16  1  0  0  0  0
 11 28  1  0  0  0  0
 11 26  1  1  0  0  0
 12 17  1  0  0  0  0
 12 34  1  0  0  0  0
 12 13  1  6  0  0  0
 14 15  1  6  0  0  0
 14 19  1  0  0  0  0
 16 13  1  6  0  0  0
 16 21  1  0  0  0  0
 17 18  1  6  0  0  0
 17 23  1  0  0  0  0
 18  8  1  0  0  0  0
 19 20  1  6  0  0  0
 19 25  1  0  0  0  0
 20  5  1  0  0  0  0
 21  3  1  1  0  0  0
 21 22  1  0  0  0  0
 21 27  1  0  0  0  0
 23 24  1  1  0  0  0
 23 29  1  0  0  0  0
 25 26  1  6  0  0  0
 25 31  1  0  0  0  0
 27  7  1  6  0  0  0
 27 28  1  0  0  0  0
 29 30  1  6  0  0  0
 29 33  1  0  0  0  0
 31 32  1  1  0  0  0
 31 35  1  0  0  0  0
 33 34  1  0  0  0  0
 33 37  1  1  0  0  0
 35 36  1  1  0  0  0
 37 38  1  0  0  0  0
M  END
>  <CHROM.1>
52.62150283,89.78530880,-69.83070218,161.75639189,127.00580987,-137.06463409
124.40743448,-81.38476673,58.32045294,-121.92740661,-177.44625977,0.54001221
35.95104788,0.20260693,-2.88216757,-0.00703694,0.12091223

>  <Name>
1ntb_lig

>  <RI>
0

>  <Rbt.Current_Directory>
/home/itssahil/PROJECTS/Mol_Feturizer/New_Systems/rnas/1ntb

>  <Rbt.Executable>
rbdock ($Id: //depot/dev/client3/rdock/2013.1/src/exe/rbdock.cxx#4 $)

>  <Rbt.Library>
libRbt.so (2013.1, Build901 2013/11/27)

>  <Rbt.Parameter_File>
/export/apps/rDock/src/rDock_2013.1_src/data/scripts/dock_solv.prm

>  <Rbt.Receptor>
prm/pocket_docking_4.prm

>  <SCORE>
-6.91659

>  <SCORE.INTER>
-0.606081

>  <SCORE.INTER.CONST>
1

>  <SCORE.INTER.POLAR>
-0.337314

>  <SCORE.INTER.ROT>
11

>  <SCORE.INTER.SOLV>
7.28649

>  <SCORE.INTER.VDW>
-12.6418

>  <SCORE.INTER.norm>
-0.015152

>  <SCORE.INTRA>
-6.3105

>  <SCORE.INTRA.DIHEDRAL>
4.03638

>  <SCORE.INTRA.DIHEDRAL.0>
15.4453

>  <SCORE.INTRA.POLAR>
0

>  <SCORE.INTRA.POLAR.0>
0

>  <SCORE.INTRA.REPUL>
-0.796812

>  <SCORE.INTRA.REPUL.0>
0.823958

>  <SCORE.INTRA.SOLV>
2.87437

>  <SCORE.INTRA.SOLV.lig_0>
-99.3069

>  <SCORE.INTRA.VDW>
-5.78182

>  <SCORE.INTRA.VDW.0>
0.946495

>  <SCORE.INTRA.norm>
-0.157763

>  <SCORE.RESTR>
0

>  <SCORE.RESTR.CAVITY>
0

>  <SCORE.RESTR.norm>
0

>  <SCORE.SYSTEM>
0

>  <SCORE.SYSTEM.CONST>
0

>  <SCORE.SYSTEM.DIHEDRAL>
0

>  <SCORE.SYSTEM.SOLV>
0

>  <SCORE.SYSTEM.norm>
0

>  <SCORE.heavy>
40

>  <SCORE.norm>
-0.172915

>  <RMSD>
7.832

$$$$
1ntb_lig
 OpenBabel11021811403D
libRbt.so/2013.1/901 2013/11/27
 40 42  0  0  0  0  0  0  0  0999 V2000
   -3.4310   30.0065    1.9963 C   0  0  0  0  0  0  0  0  0  0  0  0
   -3.7414   30.2347    3.2136 N   0  0  0  0  0  0  0  0  0  0  0  0
    2.9481   35.2982   -0.7354 C   0  0  0  0  0  0  0  0  0  0  0  0
    2.5269   34.2149    0.0765 O   0  0  0  0  0  0  0  0  0  0  0  0
   -3.7751   34.7372   -2.0724 C   0  0  0  0  0  0  0  0  0  0  0  0
   -3.8841   36.0177   -2.0496 N   0  0  0  0  0  0  0  0  0  0  0  0
    1.4222   35.0707   -3.5990 C   0  0  0  0  0  0  0  0  0  0  0  0
    4.3066   39.3751   -0.4014 C   0  0  0  0  0  0  0  0  0  0  0  0
   -2.3927   32.0179    1.3311 C   0  0  2  0  0  0  0  0  0  0  0  0
   -2.2902   30.5302    1.5906 N   0  0  0  0  0  0  0  0  0  0  0  0
   -0.5701   36.3413   -0.9967 C   0  0  2  0  0  0  0  0  0  0  0  0
    1.9554   37.8721    1.0583 C   0  0  1  0  0  0  0  0  0  0  0  0
    0.9777   37.7493    0.0419 O   0  0  0  0  0  0  0  0  0  0  0  0
   -2.5107   32.3055   -0.1616 C   0  0  1  0  0  0  0  0  0  0  0  0
   -3.7245   31.5528   -0.5997 O   0  0  0  0  0  0  0  0  0  0  0  0
    0.7710   36.4537   -0.2949 C   0  0  2  0  0  0  0  0  0  0  0  0
    2.3799   39.3178    1.1492 C   0  0  1  0  0  0  0  0  0  0  0  0
    2.9526   39.7299   -0.0835 N   0  0  0  0  0  0  0  0  0  0  0  0
   -2.5866   33.7979   -0.4771 C   0  0  2  0  0  0  0  0  0  0  0  0
   -2.7045   34.1274   -1.8825 N   0  0  0  0  0  0  0  0  0  0  0  0
    1.7452   35.9824   -1.3417 C   0  0  1  0  0  0  0  0  0  0  0  0
    2.1641   37.0858   -2.1518 O   0  0  0  0  0  0  0  0  0  0  0  0
    1.1440   40.1504    1.4457 C   0  0  2  0  0  0  0  0  0  0  0  0
    1.4840   41.5170    1.5315 O   0  0  0  0  0  0  0  0  0  0  0  0
   -1.3426   34.4523    0.0653 C   0  0  1  0  0  0  0  0  0  0  0  0
   -1.5715   35.8798   -0.0960 O   0  0  0  0  0  0  0  0  0  0  0  0
    0.9634   35.0262   -2.1644 C   0  0  1  0  0  0  0  0  0  0  0  0
   -0.4085   35.4181   -2.0760 O   0  0  0  0  0  0  0  0  0  0  0  0
    0.5831   39.6561    2.7793 C   0  0  1  0  0  0  0  0  0  0  0  0
   -0.5841   40.3855    3.1248 O   0  0  0  0  0  0  0  0  0  0  0  0
   -1.2358   34.2103    1.5951 C   0  0  2  0  0  0  0  0  0  0  0  0
   -0.0664   34.8461    2.0875 O   0  0  0  0  0  0  0  0  0  0  0  0
    0.2530   38.1682    2.6570 C   0  0  1  0  0  0  0  0  0  0  0  0
    1.4273   37.4366    2.3088 O   0  0  0  0  0  0  0  0  0  0  0  0
   -1.1495   32.6965    1.8692 C   0  0  1  0  0  0  0  0  0  0  0  0
   -1.0501   32.4561    3.2780 O   0  0  0  0  0  0  0  0  0  0  0  0
   -0.2776   37.6658    3.9999 C   0  0  0  0  0  0  0  0  0  0  0  0
   -1.5765   38.1942    4.2144 O   0  0  0  0  0  0  0  0  0  0  0  0
   -4.1894   29.3323    1.2052 N   0  0  0  0  0  0  0  0  0  0  0  0
   -4.7919   34.0408   -2.2395 N   0  0  0  0  0  0  0  0  0  0  0  0
  1  2  1  0  0  0  0
  1 39  1  0  0  0  0
  3  4  1  0  0  0  0
  5  6  1  0  0  0  0
  5 40  1  0  0  0  0
  9 10  1  6  0  0  0
  9 14  1  0  0  0  0
  9 35  1  0  0  0  0
 10  1  1  0  0  0  0
 11 16  1  0  0  0  0
 11 28  1  0  0  0  0
 11 26  1  1  0  0  0
 12 17  1  0  0  0  0
 12 34  1  0  0  0  0
 12 13  1  6  0  0  0
 14 15  1  1  0  0  0
 14 19  1  0  0  0  0
 16 13  1  6  0  0  0
 16 21  1  0  0  0  0
 17 18  1  6  0  0  0
 17 23  1  0  0  0  0
 18  8  1  0  0  0  0
 19 20  1  6  0  0  0
 19 25  1  0  0  0  0
 20  5  1  0  0  0  0
 21  3  1  1  0  0  0
 21 22  1  0  0  0  0
 21 27  1  0  0  0  0
 23 24  1  1  0  0  0
 23 29  1  0  0  0  0
 25 26  1  1  0  0  0
 25 31  1  0  0  0  0
 27  7  1  6  0  0  0
 27 28  1  0  0  0  0
 29 30  1  6  0  0  0
 29 33  1  0  0  0  0
 31 32  1  6  0  0  0
 31 35  1  0  0  0  0
 33 34  1  0  0  0  0
 33 37  1  1  0  0  0
 35 36  1  1  0  0  0
 37 38  1  0  0  0  0
M  END
>  <CHROM.1>
-101.46173612,-76.45793695,-76.12202128,166.37860399,160.57798511,-79.05940032
118.82176190,92.40722126,56.59948155,-117.07118726,71.51173016,-0.46714745
35.57692112,0.49472685,2.73759754,-0.93347744,-2.00950433

>  <Name>
1ntb_lig

>  <RI>
0

>  <Rbt.Current_Directory>
/home/itssahil/PROJECTS/Mol_Feturizer/New_Systems/rnas/1ntb

>  <Rbt.Executable>
rbdock ($Id: //depot/dev/client3/rdock/2013.1/src/exe/rbdock.cxx#4 $)

>  <Rbt.Library>
libRbt.so (2013.1, Build901 2013/11/27)

>  <Rbt.Parameter_File>
/export/apps/rDock/src/rDock_2013.1_src/data/scripts/dock_solv.prm

>  <Rbt.Receptor>
prm/pocket_docking_8.prm

>  <SCORE>
-11.4977

>  <SCORE.INTER>
-1.52028

>  <SCORE.INTER.CONST>
1

>  <SCORE.INTER.POLAR>
-1.44526

>  <SCORE.INTER.ROT>
11

>  <SCORE.INTER.SOLV>
7.88298

>  <SCORE.INTER.VDW>
-9.75698

>  <SCORE.INTER.norm>
-0.0380071

>  <SCORE.INTRA>
-9.9774

>  <SCORE.INTRA.DIHEDRAL>
-0.256116

>  <SCORE.INTRA.DIHEDRAL.0>
15.4453

>  <SCORE.INTRA.POLAR>
0

>  <SCORE.INTRA.POLAR.0>
0

>  <SCORE.INTRA.REPUL>
-0.823958

>  <SCORE.INTRA.REPUL.0>
0.823958

>  <SCORE.INTRA.SOLV>
0.675054

>  <SCORE.INTRA.SOLV.lig_0>
-99.3069

>  <SCORE.INTRA.VDW>
-6.06708

>  <SCORE.INTRA.VDW.0>
0.946495

>  <SCORE.INTRA.norm>
-0.249435

>  <SCORE.RESTR>
0

>  <SCORE.RESTR.CAVITY>
0

>  <SCORE.RESTR.norm>
0

>  <SCORE.SYSTEM>
0

>  <SCORE.SYSTEM.CONST>
0

>  <SCORE.SYSTEM.DIHEDRAL>
0

>  <SCORE.SYSTEM.SOLV>
0

>  <SCORE.SYSTEM.norm>
0

>  <SCORE.heavy>
40

>  <SCORE.norm>
-0.287442

>  <RMSD>
7.833

$$$$
1ntb_lig
 OpenBabel11021811403D
libRbt.so/2013.1/901 2013/11/27
 40 42  0  0  0  0  0  0  0  0999 V2000
   -2.2796   30.3191   -2.9042 C   0  0  0  0  0  0  0  0  0  0  0  0
   -1.9851   29.2573   -3.5493 N   0  0  0  0  0  0  0  0  0  0  0  0
    1.5079   39.2811   -5.9425 C   0  0  0  0  0  0  0  0  0  0  0  0
    1.5943   40.6790   -6.1635 O   0  0  0  0  0  0  0  0  0  0  0  0
    0.3560   33.3957   -7.9346 C   0  0  0  0  0  0  0  0  0  0  0  0
   -0.3332   34.0019   -8.8342 N   0  0  0  0  0  0  0  0  0  0  0  0
   -1.3543   40.3791   -7.0299 C   0  0  0  0  0  0  0  0  0  0  0  0
    0.9871   40.1833   -1.8116 C   0  0  0  0  0  0  0  0  0  0  0  0
   -1.6407   32.2920   -4.0289 C   0  0  2  0  0  0  0  0  0  0  0  0
   -1.3735   31.2772   -2.9382 N   0  0  0  0  0  0  0  0  0  0  0  0
   -1.4247   37.0609   -5.8722 C   0  0  2  0  0  0  0  0  0  0  0  0
    1.1966   37.4314   -3.3996 C   0  0  1  0  0  0  0  0  0  0  0  0
   -0.0911   37.2734   -3.9660 O   0  0  0  0  0  0  0  0  0  0  0  0
   -0.3896   32.5380   -4.8651 C   0  0  1  0  0  0  0  0  0  0  0  0
   -0.0179   31.1932   -5.3991 O   0  0  0  0  0  0  0  0  0  0  0  0
   -0.0667   37.4400   -5.3101 C   0  0  2  0  0  0  0  0  0  0  0  0
    1.0451   37.7127   -1.9243 C   0  0  1  0  0  0  0  0  0  0  0  0
    0.3157   38.9168   -1.7363 N   0  0  0  0  0  0  0  0  0  0  0  0
   -0.6010   33.5793   -5.9622 C   0  0  2  0  0  0  0  0  0  0  0  0
    0.5564   33.8482   -6.7904 N   0  0  0  0  0  0  0  0  0  0  0  0
    0.0699   38.8893   -5.6946 C   0  0  1  0  0  0  0  0  0  0  0  0
   -0.4972   39.7208   -4.6767 O   0  0  0  0  0  0  0  0  0  0  0  0
    0.2890   36.5510   -1.3019 C   0  0  2  0  0  0  0  0  0  0  0  0
    0.1104   36.7684    0.0807 O   0  0  0  0  0  0  0  0  0  0  0  0
   -1.0297   34.8662   -5.3064 C   0  0  1  0  0  0  0  0  0  0  0  0
   -1.3962   35.7423   -6.4083 O   0  0  0  0  0  0  0  0  0  0  0  0
   -0.7247   39.0129   -6.9419 C   0  0  1  0  0  0  0  0  0  0  0  0
   -1.7396   38.0074   -6.8961 O   0  0  0  0  0  0  0  0  0  0  0  0
    1.1275   35.2950   -1.5399 C   0  0  1  0  0  0  0  0  0  0  0  0
    0.4809   34.1581   -0.9893 O   0  0  0  0  0  0  0  0  0  0  0  0
   -2.3322   34.6421   -4.4918 C   0  0  2  0  0  0  0  0  0  0  0  0
   -2.7258   35.8680   -3.8949 O   0  0  0  0  0  0  0  0  0  0  0  0
    1.3233   35.1077   -3.0447 C   0  0  1  0  0  0  0  0  0  0  0  0
    1.9726   36.2518   -3.5966 O   0  0  0  0  0  0  0  0  0  0  0  0
   -2.0736   33.5961   -3.3903 C   0  0  1  0  0  0  0  0  0  0  0  0
   -3.2671   33.3778   -2.6286 O   0  0  0  0  0  0  0  0  0  0  0  0
    2.1888   33.8700   -3.2820 C   0  0  0  0  0  0  0  0  0  0  0  0
    3.4780   34.0911   -2.7330 O   0  0  0  0  0  0  0  0  0  0  0  0
   -3.3755   30.4425   -2.2413 N   0  0  0  0  0  0  0  0  0  0  0  0
    0.8170   32.2662   -8.1767 N   0  0  0  0  0  0  0  0  0  0  0  0
  1  2  1  0  0  0  0
  1 39  1  0  0  0  0
  3  4  1  0  0  0  0
  5  6  1  0  0  0  0
  5 40  1  0  0  0  0
  9 10  1  1  0  0  0
  9 14  1  0  0  0  0
  9 35  1  0  0  0  0
 10  1  1  0  0  0  0
 11 16  1  0  0  0  0
 11 28  1  0  0  0  0
 11 26  1  6  0  0  0
 12 17  1  0  0  0  0
 12 34  1  0  0  0  0
 12 13  1  1  0  0  0
 14 15  1  6  0  0  0
 14 19  1  0  0  0  0
 16 13  1  1  0  0  0
 16 21  1  0  0  0  0
 17 18  1  6  0  0  0
 17 23  1  0  0  0  0
 18  8  1  0  0  0  0
 19 20  1  1  0  0  0
 19 25  1  0  0  0  0
 20  5  1  0  0  0  0
 21  3  1  6  0  0  0
 21 22  1  0  0  0  0
 21 27  1  0  0  0  0
 23 24  1  1  0  0  0
 23 29  1  0  0  0  0
 25 26  1  6  0  0  0
 25 31  1  0  0  0  0
 27  7  1  1  0  0  0
 27 28  1  0  0  0  0
 29 30  1  6  0  0  0
 29 33  1  0  0  0  0
 31 32  1  1  0  0  0
 31 35  1  0  0  0  0
 33 34  1  0  0  0  0
 33 37  1  1  0  0  0
 35 36  1  6  0  0  0
 37 38  1  0  0  0  0
M  END
>  <CHROM.1>
-130.27322919,94.68211482,59.70478059,160.58031168,171.85742277,-82.69062657
110.11353388,80.89233545,-173.97332039,-163.32395105,-64.11249564,-0.27406384
35.45874519,-4.31876109,-2.46652237,-1.30456229,-0.98581394

>  <Name>
1ntb_lig

>  <RI>
0

>  <Rbt.Current_Directory>
/home/itssahil/PROJECTS/Mol_Feturizer/New_Systems/rnas/1ntb

>  <Rbt.Executable>
rbdock ($Id: //depot/dev/client3/rdock/2013.1/src/exe/rbdock.cxx#4 $)

>  <Rbt.Library>
libRbt.so (2013.1, Build901 2013/11/27)

>  <Rbt.Parameter_File>
/export/apps/rDock/src/rDock_2013.1_src/data/scripts/dock_solv.prm

>  <Rbt.Receptor>
prm/pocket_docking_8.prm

>  <SCORE>
-15.2458

>  <SCORE.INTER>
-0.38763

>  <SCORE.INTER.CONST>
1

>  <SCORE.INTER.POLAR>
-0.562755

>  <SCORE.INTER.ROT>
11

>  <SCORE.INTER.SOLV>
8.99353

>  <SCORE.INTER.VDW>
-12.3137

>  <SCORE.INTER.norm>
-0.00969076

>  <SCORE.INTRA>
-14.8582

>  <SCORE.INTRA.DIHEDRAL>
-7.79858

>  <SCORE.INTRA.DIHEDRAL.0>
15.4453

>  <SCORE.INTRA.POLAR>
0

>  <SCORE.INTRA.POLAR.0>
0

>  <SCORE.INTRA.REPUL>
-0.770348

>  <SCORE.INTRA.REPUL.0>
0.823958

>  <SCORE.INTRA.SOLV>
-0.806103

>  <SCORE.INTRA.SOLV.lig_0>
-99.3069

>  <SCORE.INTRA.VDW>
-6.70409

>  <SCORE.INTRA.VDW.0>
0.946495

>  <SCORE.INTRA.norm>
-0.371454

>  <SCORE.RESTR>
0

>  <SCORE.RESTR.CAVITY>
0

>  <SCORE.RESTR.norm>
0

>  <SCORE.SYSTEM>
0

>  <SCORE.SYSTEM.CONST>
0

>  <SCORE.SYSTEM.DIHEDRAL>
0

>  <SCORE.SYSTEM.SOLV>
0

>  <SCORE.SYSTEM.norm>
0

>  <SCORE.heavy>
40

>  <SCORE.norm>
-0.381145

>  <RMSD>
7.850

$$$$
1ntb_lig
 OpenBabel11021811403D
libRbt.so/2013.1/901 2013/11/27
 40 42  0  0  0  0  0  0  0  0999 V2000
    1.4259   40.5827   -5.9439 C   0  0  0  0  0  0  0  0  0  0  0  0
    0.8510   41.2590   -6.8617 N   0  0  0  0  0  0  0  0  0  0  0  0
   -2.8919   31.2587   -3.5109 C   0  0  0  0  0  0  0  0  0  0  0  0
   -2.3854   31.4470   -2.2000 O   0  0  0  0  0  0  0  0  0  0  0  0
    0.9900   36.2317   -1.5268 C   0  0  0  0  0  0  0  0  0  0  0  0
    2.1622   36.7418   -1.3939 N   0  0  0  0  0  0  0  0  0  0  0  0
   -5.7327   32.8382   -3.3886 C   0  0  0  0  0  0  0  0  0  0  0  0
    0.5550   31.9764   -3.0390 C   0  0  0  0  0  0  0  0  0  0  0  0
    0.3558   38.6347   -5.1527 C   0  0  2  0  0  0  0  0  0  0  0  0
    1.3683   39.2718   -6.0800 N   0  0  0  0  0  0  0  0  0  0  0  0
   -2.9564   34.9035   -4.0072 C   0  0  2  0  0  0  0  0  0  0  0  0
   -0.3722   33.7019   -5.5198 C   0  0  1  0  0  0  0  0  0  0  0  0
   -1.7801   33.5543   -5.5081 O   0  0  0  0  0  0  0  0  0  0  0  0
    0.9927   37.5183   -4.3323 C   0  0  1  0  0  0  0  0  0  0  0  0
    2.1179   38.1763   -3.6024 O   0  0  0  0  0  0  0  0  0  0  0  0
   -2.2711   33.5704   -4.2458 C   0  0  2  0  0  0  0  0  0  0  0  0
    0.2584   32.3314   -5.4692 C   0  0  1  0  0  0  0  0  0  0  0  0
   -0.1189   31.6718   -4.2692 N   0  0  0  0  0  0  0  0  0  0  0  0
    0.0017   36.8229   -3.4012 C   0  0  2  0  0  0  0  0  0  0  0  0
    0.5562   35.7557   -2.5942 N   0  0  0  0  0  0  0  0  0  0  0  0
   -3.3862   32.5752   -4.0634 C   0  0  1  0  0  0  0  0  0  0  0  0
   -4.0608   32.3633   -5.3080 O   0  0  0  0  0  0  0  0  0  0  0  0
   -0.2403   31.5425   -6.6682 C   0  0  2  0  0  0  0  0  0  0  0  0
    0.3130   30.2446   -6.6642 O   0  0  0  0  0  0  0  0  0  0  0  0
   -1.1110   36.2565   -4.2447 C   0  0  1  0  0  0  0  0  0  0  0  0
   -2.1015   35.7864   -3.2885 O   0  0  0  0  0  0  0  0  0  0  0  0
   -4.3065   33.2300   -3.1008 C   0  0  1  0  0  0  0  0  0  0  0  0
   -4.1448   34.6417   -3.2570 O   0  0  0  0  0  0  0  0  0  0  0  0
    0.1995   32.3055   -7.9179 C   0  0  1  0  0  0  0  0  0  0  0  0
   -0.2369   31.6307   -9.0874 O   0  0  0  0  0  0  0  0  0  0  0  0
   -1.8023   37.3910   -5.0480 C   0  0  2  0  0  0  0  0  0  0  0  0
   -2.8548   36.8388   -5.8235 O   0  0  0  0  0  0  0  0  0  0  0  0
   -0.3951   33.7134   -7.8737 C   0  0  1  0  0  0  0  0  0  0  0  0
    0.0440   34.3900   -6.6969 O   0  0  0  0  0  0  0  0  0  0  0  0
   -0.7735   38.0574   -5.9817 C   0  0  1  0  0  0  0  0  0  0  0  0
   -1.3964   39.1075   -6.7310 O   0  0  0  0  0  0  0  0  0  0  0  0
    0.0708   34.4875   -9.1071 C   0  0  0  0  0  0  0  0  0  0  0  0
    1.4884   34.4734   -9.1576 O   0  0  0  0  0  0  0  0  0  0  0  0
    2.0030   41.1372   -4.9364 N   0  0  0  0  0  0  0  0  0  0  0  0
    0.2445   36.1482   -0.5348 N   0  0  0  0  0  0  0  0  0  0  0  0
  1  2  1  0  0  0  0
  1 39  1  0  0  0  0
  3  4  1  0  0  0  0
  5  6  1  0  0  0  0
  5 40  1  0  0  0  0
  9 10  1  6  0  0  0
  9 14  1  0  0  0  0
  9 35  1  0  0  0  0
 10  1  1  0  0  0  0
 11 16  1  0  0  0  0
 11 28  1  0  0  0  0
 11 26  1  1  0  0  0
 12 17  1  0  0  0  0
 12 34  1  0  0  0  0
 12 13  1  6  0  0  0
 14 15  1  1  0  0  0
 14 19  1  0  0  0  0
 16 13  1  6  0  0  0
 16 21  1  0  0  0  0
 17 18  1  1  0  0  0
 17 23  1  0  0  0  0
 18  8  1  0  0  0  0
 19 20  1  6  0  0  0
 19 25  1  0  0  0  0
 20  5  1  0  0  0  0
 21  3  1  1  0  0  0
 21 22  1  0  0  0  0
 21 27  1  0  0  0  0
 23 24  1  6  0  0  0
 23 29  1  0  0  0  0
 25 26  1  1  0  0  0
 25 31  1  0  0  0  0
 27  7  1  6  0  0  0
 27 28  1  0  0  0  0
 29 30  1  6  0  0  0
 29 33  1  0  0  0  0
 31 32  1  6  0  0  0
 31 35  1  0  0  0  0
 33 34  1  0  0  0  0
 33 37  1  6  0  0  0
 35 36  1  1  0  0  0
 37 38  1  0  0  0  0
M  END
>  <CHROM.1>
-126.77963620,-103.62200233,75.51228491,90.87235261,105.88205449,-80.27077473
88.79007473,-84.94924709,64.96506978,-162.99135256,-55.56137572,-0.75519490
35.07400691,-4.96116870,-0.75179089,-1.02163310,-2.42304258

>  <Name>
1ntb_lig

>  <RI>
0

>  <Rbt.Current_Directory>
/home/itssahil/PROJECTS/Mol_Feturizer/New_Systems/rnas/1ntb

>  <Rbt.Executable>
rbdock ($Id: //depot/dev/client3/rdock/2013.1/src/exe/rbdock.cxx#4 $)

>  <Rbt.Library>
libRbt.so (2013.1, Build901 2013/11/27)

>  <Rbt.Parameter_File>
/export/apps/rDock/src/rDock_2013.1_src/data/scripts/dock_solv.prm

>  <Rbt.Receptor>
prm/pocket_docking_6.prm

>  <SCORE>
-12.2598

>  <SCORE.INTER>
-2.75708

>  <SCORE.INTER.CONST>
1

>  <SCORE.INTER.POLAR>
-1.19307

>  <SCORE.INTER.ROT>
11

>  <SCORE.INTER.SOLV>
10.4593

>  <SCORE.INTER.VDW>
-12.2809

>  <SCORE.INTER.norm>
-0.0689269

>  <SCORE.INTRA>
-9.50273

>  <SCORE.INTRA.DIHEDRAL>
0.374096

>  <SCORE.INTRA.DIHEDRAL.0>
15.4453

>  <SCORE.INTRA.POLAR>
0

>  <SCORE.INTRA.POLAR.0>
0

>  <SCORE.INTRA.REPUL>
-0.823958

>  <SCORE.INTRA.REPUL.0>
0.823958

>  <SCORE.INTRA.SOLV>
-0.38375

>  <SCORE.INTRA.SOLV.lig_0>
-99.3069

>  <SCORE.INTRA.VDW>
-5.37812

>  <SCORE.INTRA.VDW.0>
0.946495

>  <SCORE.INTRA.norm>
-0.237568

>  <SCORE.RESTR>
0

>  <SCORE.RESTR.CAVITY>
0

>  <SCORE.RESTR.norm>
0

>  <SCORE.SYSTEM>
0

>  <SCORE.SYSTEM.CONST>
0

>  <SCORE.SYSTEM.DIHEDRAL>
0

>  <SCORE.SYSTEM.SOLV>
0

>  <SCORE.SYSTEM.norm>
0

>  <SCORE.heavy>
40

>  <SCORE.norm>
-0.306495

>  <RMSD>
7.853

$$$$
1ntb_lig
 OpenBabel11021811403D
libRbt.so/2013.1/901 2013/11/27
 40 42  0  0  0  0  0  0  0  0999 V2000
    0.7888   32.6493   -2.8340 C   0  0  0  0  0  0  0  0  0  0  0  0
    0.2217   31.7955   -3.5954 N   0  0  0  0  0  0  0  0  0  0  0  0
   -2.6124   35.5723    6.1695 C   0  0  0  0  0  0  0  0  0  0  0  0
   -3.7252   34.7683    5.8149 O   0  0  0  0  0  0  0  0  0  0  0  0
   -3.5227   30.9735    1.6698 C   0  0  0  0  0  0  0  0  0  0  0  0
   -4.0179   30.4633    0.5990 N   0  0  0  0  0  0  0  0  0  0  0  0
   -0.6092   33.6747    7.8918 C   0  0  0  0  0  0  0  0  0  0  0  0
    0.2677   38.7090    5.2897 C   0  0  0  0  0  0  0  0  0  0  0  0
   -0.1234   32.7323   -0.6599 C   0  0  2  0  0  0  0  0  0  0  0  0
   -0.0167   33.3337   -2.0448 N   0  0  0  0  0  0  0  0  0  0  0  0
   -0.4270   33.1888    4.4153 C   0  0  2  0  0  0  0  0  0  0  0  0
   -1.2800   36.5949    3.5161 C   0  0  1  0  0  0  0  0  0  0  0  0
   -0.5284   35.4086    3.6948 O   0  0  0  0  0  0  0  0  0  0  0  0
   -1.5684   32.7333   -0.1733 C   0  0  1  0  0  0  0  0  0  0  0  0
   -2.3183   31.9559   -1.2053 O   0  0  0  0  0  0  0  0  0  0  0  0
   -1.2236   34.4806    4.3951 C   0  0  2  0  0  0  0  0  0  0  0  0
   -0.3415   37.7060    3.1120 C   0  0  1  0  0  0  0  0  0  0  0  0
    0.6152   37.9252    4.1386 N   0  0  0  0  0  0  0  0  0  0  0  0
   -1.7238   32.1627    1.2348 C   0  0  2  0  0  0  0  0  0  0  0  0
   -3.0791   32.1360    1.7448 N   0  0  0  0  0  0  0  0  0  0  0  0
   -1.3293   34.8398    5.8535 C   0  0  1  0  0  0  0  0  0  0  0  0
   -0.2027   35.6313    6.2451 O   0  0  0  0  0  0  0  0  0  0  0  0
    0.3631   37.2816    1.8345 C   0  0  2  0  0  0  0  0  0  0  0  0
    1.2635   38.2843    1.4164 O   0  0  0  0  0  0  0  0  0  0  0  0
   -0.8773   32.9890    2.1680 C   0  0  1  0  0  0  0  0  0  0  0  0
   -0.9200   32.2793    3.4372 O   0  0  0  0  0  0  0  0  0  0  0  0
   -1.2907   33.5328    6.5555 C   0  0  1  0  0  0  0  0  0  0  0  0
   -0.5574   32.6299    5.7245 O   0  0  0  0  0  0  0  0  0  0  0  0
   -0.7210   37.0650    0.7785 C   0  0  1  0  0  0  0  0  0  0  0  0
   -0.1391   36.6581   -0.4501 O   0  0  0  0  0  0  0  0  0  0  0  0
    0.6067   32.9555    1.7133 C   0  0  2  0  0  0  0  0  0  0  0  0
    1.3877   33.7271    2.6127 O   0  0  0  0  0  0  0  0  0  0  0  0
   -1.6917   35.9942    1.2775 C   0  0  1  0  0  0  0  0  0  0  0  0
   -2.2750   36.4045    2.5131 O   0  0  0  0  0  0  0  0  0  0  0  0
    0.7215   33.5495    0.2962 C   0  0  1  0  0  0  0  0  0  0  0  0
    2.0864   33.5260   -0.1384 O   0  0  0  0  0  0  0  0  0  0  0  0
   -2.7942   35.8002    0.2362 C   0  0  0  0  0  0  0  0  0  0  0  0
   -3.7982   34.9539    0.7731 O   0  0  0  0  0  0  0  0  0  0  0  0
    2.0595   32.8513   -2.8494 N   0  0  0  0  0  0  0  0  0  0  0  0
   -3.5225   30.3072    2.7199 N   0  0  0  0  0  0  0  0  0  0  0  0
  1  2  1  0  0  0  0
  1 39  1  0  0  0  0
  3  4  1  0  0  0  0
  5  6  1  0  0  0  0
  5 40  1  0  0  0  0
  9 10  1  6  0  0  0
  9 14  1  0  0  0  0
  9 35  1  0  0  0  0
 10  1  1  0  0  0  0
 11 16  1  0  0  0  0
 11 28  1  0  0  0  0
 11 26  1  6  0  0  0
 12 17  1  0  0  0  0
 12 34  1  0  0  0  0
 12 13  1  6  0  0  0
 14 15  1  6  0  0  0
 14 19  1  0  0  0  0
 16 13  1  6  0  0  0
 16 21  1  0  0  0  0
 17 18  1  1  0  0  0
 17 23  1  0  0  0  0
 18  8  1  0  0  0  0
 19 20  1  1  0  0  0
 19 25  1  0  0  0  0
 20  5  1  0  0  0  0
 21  3  1  1  0  0  0
 21 22  1  0  0  0  0
 21 27  1  0  0  0  0
 23 24  1  6  0  0  0
 23 29  1  0  0  0  0
 25 26  1  1  0  0  0
 25 31  1  0  0  0  0
 27  7  1  1  0  0  0
 27 28  1  0  0  0  0
 29 30  1  6  0  0  0
 29 33  1  0  0  0  0
 31 32  1  1  0  0  0
 31 35  1  0  0  0  0
 33 34  1  0  0  0  0
 33 37  1  6  0  0  0
 35 36  1  6  0  0  0
 37 38  1  0  0  0  0
M  END
>  <CHROM.1>
-137.18319729,95.67986828,55.48243505,163.32339558,173.73081356,-80.59979529
102.76688082,-82.01109757,58.84353061,-165.55405665,-171.68708950,-0.91691876
34.28135860,2.17556360,-1.42059978,1.04526176,1.04143757

>  <Name>
1ntb_lig

>  <RI>
0

>  <Rbt.Current_Directory>
/home/itssahil/PROJECTS/Mol_Feturizer/New_Systems/rnas/1ntb

>  <Rbt.Executable>
rbdock ($Id: //depot/dev/client3/rdock/2013.1/src/exe/rbdock.cxx#4 $)

>  <Rbt.Library>
libRbt.so (2013.1, Build901 2013/11/27)

>  <Rbt.Parameter_File>
/export/apps/rDock/src/rDock_2013.1_src/data/scripts/dock_solv.prm

>  <Rbt.Receptor>
prm/pocket_docking_8.prm

>  <SCORE>
-17.1175

>  <SCORE.INTER>
-2.43323

>  <SCORE.INTER.CONST>
1

>  <SCORE.INTER.POLAR>
-1.22566

>  <SCORE.INTER.ROT>
11

>  <SCORE.INTER.SOLV>
16.0598

>  <SCORE.INTER.VDW>
-13.8232

>  <SCORE.INTER.norm>
-0.0608308

>  <SCORE.INTRA>
-14.6843

>  <SCORE.INTRA.DIHEDRAL>
-8.96161

>  <SCORE.INTRA.DIHEDRAL.0>
15.4453

>  <SCORE.INTRA.POLAR>
0

>  <SCORE.INTRA.POLAR.0>
0

>  <SCORE.INTRA.REPUL>
-0.762542

>  <SCORE.INTRA.REPUL.0>
0.823958

>  <SCORE.INTRA.SOLV>
0.232427

>  <SCORE.INTRA.SOLV.lig_0>
-99.3069

>  <SCORE.INTRA.VDW>
-6.50696

>  <SCORE.INTRA.VDW.0>
0.946495

>  <SCORE.INTRA.norm>
-0.367107

>  <SCORE.RESTR>
0

>  <SCORE.RESTR.CAVITY>
0

>  <SCORE.RESTR.norm>
0

>  <SCORE.SYSTEM>
0

>  <SCORE.SYSTEM.CONST>
0

>  <SCORE.SYSTEM.DIHEDRAL>
0

>  <SCORE.SYSTEM.SOLV>
0

>  <SCORE.SYSTEM.norm>
0

>  <SCORE.heavy>
40

>  <SCORE.norm>
-0.427937

>  <RMSD>
7.853

$$$$
1ntb_lig
 OpenBabel11021811403D
libRbt.so/2013.1/901 2013/11/27
 40 42  0  0  0  0  0  0  0  0999 V2000
   -1.7196   28.3809   -6.7833 C   0  0  0  0  0  0  0  0  0  0  0  0
   -2.2653   27.6560   -5.8849 N   0  0  0  0  0  0  0  0  0  0  0  0
   -0.0649   37.7830   -1.8091 C   0  0  0  0  0  0  0  0  0  0  0  0
   -1.3916   37.2981   -1.6867 O   0  0  0  0  0  0  0  0  0  0  0  0
    0.1375   34.2290   -8.4108 C   0  0  0  0  0  0  0  0  0  0  0  0
   -0.7034   35.2011   -8.3995 N   0  0  0  0  0  0  0  0  0  0  0  0
    1.9478   35.3146   -1.1487 C   0  0  0  0  0  0  0  0  0  0  0  0
   -3.0207   37.8467   -4.4418 C   0  0  0  0  0  0  0  0  0  0  0  0
   -0.9508   30.5241   -6.1659 C   0  0  2  0  0  0  0  0  0  0  0  0
   -0.6545   29.0585   -6.4006 N   0  0  0  0  0  0  0  0  0  0  0  0
    0.5421   35.2112   -4.3688 C   0  0  2  0  0  0  0  0  0  0  0  0
   -0.2359   37.7927   -5.9638 C   0  0  1  0  0  0  0  0  0  0  0  0
    0.6912   37.4705   -4.9436 O   0  0  0  0  0  0  0  0  0  0  0  0
    0.0346   31.4089   -6.9216 C   0  0  1  0  0  0  0  0  0  0  0  0
   -0.1126   31.0068   -8.3529 O   0  0  0  0  0  0  0  0  0  0  0  0
    0.1488   36.6362   -4.0246 C   0  0  2  0  0  0  0  0  0  0  0  0
   -1.0797   38.9557   -5.5012 C   0  0  1  0  0  0  0  0  0  0  0  0
   -1.7996   38.5930   -4.3317 N   0  0  0  0  0  0  0  0  0  0  0  0
   -0.2051   32.8996   -6.6918 C   0  0  2  0  0  0  0  0  0  0  0  0
    0.7017   33.7864   -7.3911 N   0  0  0  0  0  0  0  0  0  0  0  0
    0.7504   36.8365   -2.6589 C   0  0  1  0  0  0  0  0  0  0  0  0
    2.0925   37.3189   -2.7818 O   0  0  0  0  0  0  0  0  0  0  0  0
   -0.1482   40.1158   -5.1925 C   0  0  2  0  0  0  0  0  0  0  0  0
   -0.8876   41.2307   -4.7443 O   0  0  0  0  0  0  0  0  0  0  0  0
   -0.0910   33.1670   -5.2134 C   0  0  1  0  0  0  0  0  0  0  0  0
   -0.5176   34.5482   -5.0503 O   0  0  0  0  0  0  0  0  0  0  0  0
    0.7598   35.4782   -2.0610 C   0  0  1  0  0  0  0  0  0  0  0  0
    0.8375   34.5437   -3.1398 O   0  0  0  0  0  0  0  0  0  0  0  0
    0.5897   40.4518   -6.4886 C   0  0  1  0  0  0  0  0  0  0  0  0
    1.4894   41.5290   -6.2795 O   0  0  0  0  0  0  0  0  0  0  0  0
   -1.1246   32.3094   -4.4346 C   0  0  2  0  0  0  0  0  0  0  0  0
   -1.0101   32.5868   -3.0474 O   0  0  0  0  0  0  0  0  0  0  0  0
    1.3554   39.2143   -6.9579 C   0  0  1  0  0  0  0  0  0  0  0  0
    0.4495   38.1322   -7.1668 O   0  0  0  0  0  0  0  0  0  0  0  0
   -0.8411   30.8154   -4.6830 C   0  0  1  0  0  0  0  0  0  0  0  0
   -1.7871   30.0096   -3.9703 O   0  0  0  0  0  0  0  0  0  0  0  0
    2.0674   39.5401   -8.2711 C   0  0  0  0  0  0  0  0  0  0  0  0
    1.1009   39.8735   -9.2545 O   0  0  0  0  0  0  0  0  0  0  0  0
   -2.1885   28.4685   -7.9784 N   0  0  0  0  0  0  0  0  0  0  0  0
    0.3801   33.6442   -9.4812 N   0  0  0  0  0  0  0  0  0  0  0  0
  1  2  1  0  0  0  0
  1 39  1  0  0  0  0
  3  4  1  0  0  0  0
  5  6  1  0  0  0  0
  5 40  1  0  0  0  0
  9 10  1  1  0  0  0
  9 14  1  0  0  0  0
  9 35  1  0  0  0  0
 10  1  1  0  0  0  0
 11 16  1  0  0  0  0
 11 28  1  0  0  0  0
 11 26  1  1  0  0  0
 12 17  1  0  0  0  0
 12 34  1  0  0  0  0
 12 13  1  1  0  0  0
 14 15  1  6  0  0  0
 14 19  1  0  0  0  0
 16 13  1  6  0  0  0
 16 21  1  0  0  0  0
 17 18  1  1  0  0  0
 17 23  1  0  0  0  0
 18  8  1  0  0  0  0
 19 20  1  6  0  0  0
 19 25  1  0  0  0  0
 20  5  1  0  0  0  0
 21  3  1  1  0  0  0
 21 22  1  0  0  0  0
 21 27  1  0  0  0  0
 23 24  1  6  0  0  0
 23 29  1  0  0  0  0
 25 26  1  6  0  0  0
 25 31  1  0  0  0  0
 27  7  1  1  0  0  0
 27 28  1  0  0  0  0
 29 30  1  1  0  0  0
 29 33  1  0  0  0  0
 31 32  1  1  0  0  0
 31 35  1  0  0  0  0
 33 34  1  0  0  0  0
 33 37  1  6  0  0  0
 35 36  1  1  0  0  0
 37 38  1  0  0  0  0
M  END
>  <CHROM.1>
-128.65454249,-103.24482289,-174.55168851,85.12901941,96.66726833,-81.64611908
100.39543033,80.14841263,57.39707331,-125.36861188,-61.58684023,-0.16189009
35.22741297,-5.43984584,-2.69363175,1.40002786,1.20440178

>  <Name>
1ntb_lig

>  <RI>
0

>  <Rbt.Current_Directory>
/home/itssahil/PROJECTS/Mol_Feturizer/New_Systems/rnas/1ntb

>  <Rbt.Executable>
rbdock ($Id: //depot/dev/client3/rdock/2013.1/src/exe/rbdock.cxx#4 $)

>  <Rbt.Library>
libRbt.so (2013.1, Build901 2013/11/27)

>  <Rbt.Parameter_File>
/export/apps/rDock/src/rDock_2013.1_src/data/scripts/dock_solv.prm

>  <Rbt.Receptor>
prm/pocket_docking_7.prm

>  <SCORE>
-13.97

>  <SCORE.INTER>
-4.73131

>  <SCORE.INTER.CONST>
1

>  <SCORE.INTER.POLAR>
-0.72111

>  <SCORE.INTER.ROT>
11

>  <SCORE.INTER.SOLV>
10.5926

>  <SCORE.INTER.VDW>
-15.2147

>  <SCORE.INTER.norm>
-0.118283

>  <SCORE.INTRA>
-9.2387

>  <SCORE.INTRA.DIHEDRAL>
2.78264

>  <SCORE.INTRA.DIHEDRAL.0>
15.4453

>  <SCORE.INTRA.POLAR>
0

>  <SCORE.INTRA.POLAR.0>
0

>  <SCORE.INTRA.REPUL>
-0.823958

>  <SCORE.INTRA.REPUL.0>
0.823958

>  <SCORE.INTRA.SOLV>
0.0265503

>  <SCORE.INTRA.SOLV.lig_0>
-99.3069

>  <SCORE.INTRA.VDW>
-6.52351

>  <SCORE.INTRA.VDW.0>
0.946495

>  <SCORE.INTRA.norm>
-0.230968

>  <SCORE.RESTR>
0

>  <SCORE.RESTR.CAVITY>
0

>  <SCORE.RESTR.norm>
0

>  <SCORE.SYSTEM>
0

>  <SCORE.SYSTEM.CONST>
0

>  <SCORE.SYSTEM.DIHEDRAL>
0

>  <SCORE.SYSTEM.SOLV>
0

>  <SCORE.SYSTEM.norm>
0

>  <SCORE.heavy>
40

>  <SCORE.norm>
-0.34925

>  <RMSD>
7.856

$$$$
1ntb_lig
 OpenBabel11021811403D
libRbt.so/2013.1/901 2013/11/27
 40 42  0  0  0  0  0  0  0  0999 V2000
    1.2391   42.2887   -6.2432 C   0  0  0  0  0  0  0  0  0  0  0  0
    1.0162   42.1846   -7.4960 N   0  0  0  0  0  0  0  0  0  0  0  0
    0.3273   31.7242   -3.2356 C   0  0  0  0  0  0  0  0  0  0  0  0
    0.3662   31.5952   -4.6471 O   0  0  0  0  0  0  0  0  0  0  0  0
   -2.1771   36.9624   -7.2315 C   0  0  0  0  0  0  0  0  0  0  0  0
   -1.6300   35.9501   -7.8042 N   0  0  0  0  0  0  0  0  0  0  0  0
    2.9167   33.3909   -2.1880 C   0  0  0  0  0  0  0  0  0  0  0  0
   -2.4332   32.6009    0.3614 C   0  0  0  0  0  0  0  0  0  0  0  0
    0.5517   40.1201   -5.6180 C   0  0  2  0  0  0  0  0  0  0  0  0
    0.4156   41.6193   -5.4596 N   0  0  0  0  0  0  0  0  0  0  0  0
    0.4344   35.3731   -3.6928 C   0  0  2  0  0  0  0  0  0  0  0  0
   -2.3538   33.2696   -2.7224 C   0  0  1  0  0  0  0  0  0  0  0  0
   -1.4758   34.3781   -2.7880 O   0  0  0  0  0  0  0  0  0  0  0  0
   -0.8150   39.4591   -5.7594 C   0  0  1  0  0  0  0  0  0  0  0  0
   -1.4348   40.1166   -6.9490 O   0  0  0  0  0  0  0  0  0  0  0  0
   -0.3857   34.1045   -3.5441 C   0  0  2  0  0  0  0  0  0  0  0  0
   -3.4212   33.5581   -1.6947 C   0  0  1  0  0  0  0  0  0  0  0  0
   -2.8243   33.7404   -0.4188 N   0  0  0  0  0  0  0  0  0  0  0  0
   -0.7316   37.9398   -5.8918 C   0  0  2  0  0  0  0  0  0  0  0  0
   -2.0031   37.2610   -6.0338 N   0  0  0  0  0  0  0  0  0  0  0  0
    0.5615   33.1651   -2.8459 C   0  0  1  0  0  0  0  0  0  0  0  0
    0.4426   33.3158   -1.4274 O   0  0  0  0  0  0  0  0  0  0  0  0
   -4.1410   34.8295   -2.1121 C   0  0  2  0  0  0  0  0  0  0  0  0
   -5.1467   35.1517   -1.1765 O   0  0  0  0  0  0  0  0  0  0  0  0
   -0.0366   37.4032   -4.6674 C   0  0  1  0  0  0  0  0  0  0  0  0
    0.1786   35.9923   -4.9490 O   0  0  0  0  0  0  0  0  0  0  0  0
    1.9074   33.6100   -3.2852 C   0  0  1  0  0  0  0  0  0  0  0  0
    1.8114   35.0028   -3.5920 O   0  0  0  0  0  0  0  0  0  0  0  0
   -4.7567   34.5624   -3.4857 C   0  0  1  0  0  0  0  0  0  0  0  0
   -5.4459   35.7128   -3.9499 O   0  0  0  0  0  0  0  0  0  0  0  0
    1.3778   38.0302   -4.5386 C   0  0  2  0  0  0  0  0  0  0  0  0
    2.0196   37.5013   -3.3886 O   0  0  0  0  0  0  0  0  0  0  0  0
   -3.6424   34.1900   -4.4642 C   0  0  1  0  0  0  0  0  0  0  0  0
   -2.9501   33.0339   -3.9956 O   0  0  0  0  0  0  0  0  0  0  0  0
    1.2489   39.5590   -4.3953 C   0  0  1  0  0  0  0  0  0  0  0  0
    2.5469   40.1534   -4.2750 O   0  0  0  0  0  0  0  0  0  0  0  0
   -4.2611   33.8914   -5.8301 C   0  0  0  0  0  0  0  0  0  0  0  0
   -5.1063   32.7574   -5.7205 O   0  0  0  0  0  0  0  0  0  0  0  0
    2.1874   43.0177   -5.7690 N   0  0  0  0  0  0  0  0  0  0  0  0
   -2.8840   37.7350   -7.9023 N   0  0  0  0  0  0  0  0  0  0  0  0
  1  2  1  0  0  0  0
  1 39  1  0  0  0  0
  3  4  1  0  0  0  0
  5  6  1  0  0  0  0
  5 40  1  0  0  0  0
  9 10  1  1  0  0  0
  9 14  1  0  0  0  0
  9 35  1  0  0  0  0
 10  1  1  0  0  0  0
 11 16  1  0  0  0  0
 11 28  1  0  0  0  0
 11 26  1  6  0  0  0
 12 17  1  0  0  0  0
 12 34  1  0  0  0  0
 12 13  1  6  0  0  0
 14 15  1  6  0  0  0
 14 19  1  0  0  0  0
 16 13  1  1  0  0  0
 16 21  1  0  0  0  0
 17 18  1  1  0  0  0
 17 23  1  0  0  0  0
 18  8  1  0  0  0  0
 19 20  1  1  0  0  0
 19 25  1  0  0  0  0
 20  5  1  0  0  0  0
 21  3  1  6  0  0  0
 21 22  1  0  0  0  0
 21 27  1  0  0  0  0
 23 24  1  1  0  0  0
 23 29  1  0  0  0  0
 25 26  1  6  0  0  0
 25 31  1  0  0  0  0
 27  7  1  1  0  0  0
 27 28  1  0  0  0  0
 29 30  1  6  0  0  0
 29 33  1  0  0  0  0
 31 32  1  1  0  0  0
 31 35  1  0  0  0  0
 33 34  1  0  0  0  0
 33 37  1  6  0  0  0
 35 36  1  6  0  0  0
 37 38  1  0  0  0  0
M  END
>  <CHROM.1>
-132.89933574,66.34710373,133.06280745,170.88506896,174.07398581,-79.80726404
101.72852061,79.39636454,53.68583640,-162.10014251,-63.73211421,-0.97249032
36.11125668,-4.24640063,1.17443798,-0.27517046,-0.53347932

>  <Name>
1ntb_lig

>  <RI>
0

>  <Rbt.Current_Directory>
/home/itssahil/PROJECTS/Mol_Feturizer/New_Systems/rnas/1ntb

>  <Rbt.Executable>
rbdock ($Id: //depot/dev/client3/rdock/2013.1/src/exe/rbdock.cxx#4 $)

>  <Rbt.Library>
libRbt.so (2013.1, Build901 2013/11/27)

>  <Rbt.Parameter_File>
/export/apps/rDock/src/rDock_2013.1_src/data/scripts/dock_solv.prm

>  <Rbt.Receptor>
prm/pocket_docking_7.prm

>  <SCORE>
-12.4249

>  <SCORE.INTER>
-1.11964

>  <SCORE.INTER.CONST>
1

>  <SCORE.INTER.POLAR>
-0.72111

>  <SCORE.INTER.ROT>
11

>  <SCORE.INTER.SOLV>
7.20328

>  <SCORE.INTER.VDW>
-11.6771

>  <SCORE.INTER.norm>
-0.0279909

>  <SCORE.INTRA>
-11.3053

>  <SCORE.INTRA.DIHEDRAL>
-2.93299

>  <SCORE.INTRA.DIHEDRAL.0>
15.4453

>  <SCORE.INTRA.POLAR>
0

>  <SCORE.INTRA.POLAR.0>
0

>  <SCORE.INTRA.REPUL>
-0.823958

>  <SCORE.INTRA.REPUL.0>
0.823958

>  <SCORE.INTRA.SOLV>
-1.23645

>  <SCORE.INTRA.SOLV.lig_0>
-99.3069

>  <SCORE.INTRA.VDW>
-5.10079

>  <SCORE.INTRA.VDW.0>
0.946495

>  <SCORE.INTRA.norm>
-0.282632

>  <SCORE.RESTR>
0

>  <SCORE.RESTR.CAVITY>
0

>  <SCORE.RESTR.norm>
0

>  <SCORE.SYSTEM>
0

>  <SCORE.SYSTEM.CONST>
0

>  <SCORE.SYSTEM.DIHEDRAL>
0

>  <SCORE.SYSTEM.SOLV>
0

>  <SCORE.SYSTEM.norm>
0

>  <SCORE.heavy>
40

>  <SCORE.norm>
-0.310623

>  <RMSD>
7.883

$$$$
1ntb_lig
 OpenBabel11021811403D
libRbt.so/2013.1/901 2013/11/27
 40 42  0  0  0  0  0  0  0  0999 V2000
   -3.5840   29.8594    1.6807 C   0  0  0  0  0  0  0  0  0  0  0  0
   -4.1397   29.1841    0.7504 N   0  0  0  0  0  0  0  0  0  0  0  0
    2.5910   39.0163    0.9099 C   0  0  0  0  0  0  0  0  0  0  0  0
    3.9503   39.3198    1.1753 O   0  0  0  0  0  0  0  0  0  0  0  0
   -1.6811   34.1771   -2.2080 C   0  0  0  0  0  0  0  0  0  0  0  0
   -2.6375   35.0100   -1.9993 N   0  0  0  0  0  0  0  0  0  0  0  0
    4.2746   36.2822    1.4294 C   0  0  0  0  0  0  0  0  0  0  0  0
    3.3592   40.0815   -2.4101 C   0  0  0  0  0  0  0  0  0  0  0  0
   -2.1191   31.6823    1.3695 C   0  0  2  0  0  0  0  0  0  0  0  0
   -2.3229   30.1861    1.4734 N   0  0  0  0  0  0  0  0  0  0  0  0
    0.9775   35.7617    0.3277 C   0  0  2  0  0  0  0  0  0  0  0  0
    0.5260   38.7825   -1.5908 C   0  0  1  0  0  0  0  0  0  0  0  0
    0.8309   37.4310   -1.2999 O   0  0  0  0  0  0  0  0  0  0  0  0
   -1.5423   32.0622    0.0101 C   0  0  1  0  0  0  0  0  0  0  0  0
   -2.5287   31.5384   -0.9821 O   0  0  0  0  0  0  0  0  0  0  0  0
    1.0582   37.2464    0.0226 C   0  0  2  0  0  0  0  0  0  0  0  0
    1.1315   39.1382   -2.9270 C   0  0  1  0  0  0  0  0  0  0  0  0
    2.5433   38.9937   -2.8696 N   0  0  0  0  0  0  0  0  0  0  0  0
   -1.2899   33.5618   -0.1324 C   0  0  2  0  0  0  0  0  0  0  0  0
   -0.7457   33.9784   -1.4083 N   0  0  0  0  0  0  0  0  0  0  0  0
    2.4717   37.5975    0.4045 C   0  0  1  0  0  0  0  0  0  0  0  0
    3.3438   37.3993   -0.7132 O   0  0  0  0  0  0  0  0  0  0  0  0
    0.5594   38.1898   -3.9672 C   0  0  2  0  0  0  0  0  0  0  0  0
    1.1019   38.4733   -5.2384 O   0  0  0  0  0  0  0  0  0  0  0  0
   -0.3337   33.9784    0.9549 C   0  0  1  0  0  0  0  0  0  0  0  0
   -0.2926   35.4305    0.8791 O   0  0  0  0  0  0  0  0  0  0  0  0
    2.8100   36.6326    1.4802 C   0  0  1  0  0  0  0  0  0  0  0  0
    2.0181   35.4629    1.2611 O   0  0  0  0  0  0  0  0  0  0  0  0
   -0.9551   38.3987   -3.9755 C   0  0  1  0  0  0  0  0  0  0  0  0
   -1.5669   37.5383   -4.9238 O   0  0  0  0  0  0  0  0  0  0  0  0
   -0.9310   33.6433    2.3482 C   0  0  2  0  0  0  0  0  0  0  0  0
   -0.0221   34.0562    3.3569 O   0  0  0  0  0  0  0  0  0  0  0  0
   -1.5028   38.1101   -2.5775 C   0  0  1  0  0  0  0  0  0  0  0  0
   -0.8861   38.9753   -1.6255 O   0  0  0  0  0  0  0  0  0  0  0  0
   -1.1588   32.1231    2.4554 C   0  0  1  0  0  0  0  0  0  0  0  0
   -1.7101   31.7971    3.7368 O   0  0  0  0  0  0  0  0  0  0  0  0
   -3.0127   38.3501   -2.5771 C   0  0  0  0  0  0  0  0  0  0  0  0
   -3.6408   37.3661   -3.3831 O   0  0  0  0  0  0  0  0  0  0  0  0
   -4.2010   30.1811    2.7631 N   0  0  0  0  0  0  0  0  0  0  0  0
   -1.6942   33.4777   -3.2363 N   0  0  0  0  0  0  0  0  0  0  0  0
  1  2  1  0  0  0  0
  1 39  1  0  0  0  0
  3  4  1  0  0  0  0
  5  6  1  0  0  0  0
  5 40  1  0  0  0  0
  9 10  1  6  0  0  0
  9 14  1  0  0  0  0
  9 35  1  0  0  0  0
 10  1  1  0  0  0  0
 11 16  1  0  0  0  0
 11 28  1  0  0  0  0
 11 26  1  1  0  0  0
 12 17  1  0  0  0  0
 12 34  1  0  0  0  0
 12 13  1  6  0  0  0
 14 15  1  6  0  0  0
 14 19  1  0  0  0  0
 16 13  1  6  0  0  0
 16 21  1  0  0  0  0
 17 18  1  1  0  0  0
 17 23  1  0  0  0  0
 18  8  1  0  0  0  0
 19 20  1  6  0  0  0
 19 25  1  0  0  0  0
 20  5  1  0  0  0  0
 21  3  1  1  0  0  0
 21 22  1  0  0  0  0
 21 27  1  0  0  0  0
 23 24  1  6  0  0  0
 23 29  1  0  0  0  0
 25 26  1  1  0  0  0
 25 31  1  0  0  0  0
 27  7  1  6  0  0  0
 27 28  1  0  0  0  0
 29 30  1  6  0  0  0
 29 33  1  0  0  0  0
 31 32  1  1  0  0  0
 31 35  1  0  0  0  0
 33 34  1  0  0  0  0
 33 37  1  6  0  0  0
 35 36  1  1  0  0  0
 37 38  1  0  0  0  0
M  END
>  <CHROM.1>
-119.59871572,116.01762304,172.13354937,143.84081453,163.76531361,-86.72371944
86.77167658,57.64124636,-176.38550681,-107.53908291,67.88127673,-0.24866503
35.55314416,-0.54248058,2.14599949,0.65980480,2.31232988

>  <Name>
1ntb_lig

>  <RI>
0

>  <Rbt.Current_Directory>
/home/itssahil/PROJECTS/Mol_Feturizer/New_Systems/rnas/1ntb

>  <Rbt.Executable>
rbdock ($Id: //depot/dev/client3/rdock/2013.1/src/exe/rbdock.cxx#4 $)

>  <Rbt.Library>
libRbt.so (2013.1, Build901 2013/11/27)

>  <Rbt.Parameter_File>
/export/apps/rDock/src/rDock_2013.1_src/data/scripts/dock_solv.prm

>  <Rbt.Receptor>
prm/pocket_docking_8.prm

>  <SCORE>
-7.92449

>  <SCORE.INTER>
1.99193

>  <SCORE.INTER.CONST>
1

>  <SCORE.INTER.POLAR>
-0.642315

>  <SCORE.INTER.ROT>
11

>  <SCORE.INTER.SOLV>
9.57476

>  <SCORE.INTER.VDW>
-10.6559

>  <SCORE.INTER.norm>
0.0497982

>  <SCORE.INTRA>
-9.91641

>  <SCORE.INTRA.DIHEDRAL>
1.09878

>  <SCORE.INTRA.DIHEDRAL.0>
15.4453

>  <SCORE.INTRA.POLAR>
0

>  <SCORE.INTRA.POLAR.0>
0

>  <SCORE.INTRA.REPUL>
-0.817431

>  <SCORE.INTRA.REPUL.0>
0.823958

>  <SCORE.INTRA.SOLV>
1.29002

>  <SCORE.INTRA.SOLV.lig_0>
-99.3069

>  <SCORE.INTRA.VDW>
-7.02366

>  <SCORE.INTRA.VDW.0>
0.946495

>  <SCORE.INTRA.norm>
-0.24791

>  <SCORE.RESTR>
0

>  <SCORE.RESTR.CAVITY>
0

>  <SCORE.RESTR.norm>
0

>  <SCORE.SYSTEM>
0

>  <SCORE.SYSTEM.CONST>
0

>  <SCORE.SYSTEM.DIHEDRAL>
0

>  <SCORE.SYSTEM.SOLV>
0

>  <SCORE.SYSTEM.norm>
0

>  <SCORE.heavy>
40

>  <SCORE.norm>
-0.198112

>  <RMSD>
7.883

$$$$
1ntb_lig
 OpenBabel11021811403D
libRbt.so/2013.1/901 2013/11/27
 40 42  0  0  0  0  0  0  0  0999 V2000
    1.8963   43.7719   -4.2581 C   0  0  0  0  0  0  0  0  0  0  0  0
    2.9335   44.4449   -4.5765 N   0  0  0  0  0  0  0  0  0  0  0  0
    5.9966   35.1428    0.6766 C   0  0  0  0  0  0  0  0  0  0  0  0
    7.1131   35.1229    1.5502 O   0  0  0  0  0  0  0  0  0  0  0  0
   -0.3301   38.3443   -1.7156 C   0  0  0  0  0  0  0  0  0  0  0  0
   -0.0169   37.2424   -2.2984 N   0  0  0  0  0  0  0  0  0  0  0  0
    6.4690   38.0820    1.9872 C   0  0  0  0  0  0  0  0  0  0  0  0
    2.9898   33.6611   -2.8730 C   0  0  0  0  0  0  0  0  0  0  0  0
    2.1542   41.8808   -2.8713 C   0  0  2  0  0  0  0  0  0  0  0  0
    1.8474   43.3567   -3.0069 N   0  0  0  0  0  0  0  0  0  0  0  0
    3.5178   37.7992    0.0988 C   0  0  2  0  0  0  0  0  0  0  0  0
    1.7124   35.5238   -0.1016 C   0  0  1  0  0  0  0  0  0  0  0  0
    2.8044   35.6833    0.7852 O   0  0  0  0  0  0  0  0  0  0  0  0
    1.1185   41.1855   -1.9946 C   0  0  1  0  0  0  0  0  0  0  0  0
   -0.1889   41.4492   -2.6675 O   0  0  0  0  0  0  0  0  0  0  0  0
    3.8408   36.3188    0.1879 C   0  0  2  0  0  0  0  0  0  0  0  0
    1.8147   34.1673   -0.7559 C   0  0  1  0  0  0  0  0  0  0  0  0
    3.0207   34.0820   -1.5012 N   0  0  0  0  0  0  0  0  0  0  0  0
    1.4025   39.6971   -1.8025 C   0  0  2  0  0  0  0  0  0  0  0  0
    0.4453   38.9863   -0.9803 N   0  0  0  0  0  0  0  0  0  0  0  0
    5.0830   36.2905    1.0383 C   0  0  1  0  0  0  0  0  0  0  0  0
    4.7263   36.2168    2.4226 O   0  0  0  0  0  0  0  0  0  0  0  0
    1.8134   33.1171    0.3421 C   0  0  2  0  0  0  0  0  0  0  0  0
    1.9176   31.8256   -0.2163 O   0  0  0  0  0  0  0  0  0  0  0  0
    2.7662   39.5603   -1.1765 C   0  0  1  0  0  0  0  0  0  0  0  0
    3.0470   38.1332   -1.2026 O   0  0  0  0  0  0  0  0  0  0  0  0
    5.7454   37.5893    0.7608 C   0  0  1  0  0  0  0  0  0  0  0  0
    4.7204   38.5145    0.3914 O   0  0  0  0  0  0  0  0  0  0  0  0
    0.4934   33.2655    1.0991 C   0  0  1  0  0  0  0  0  0  0  0  0
    0.4186   32.3167    2.1517 O   0  0  0  0  0  0  0  0  0  0  0  0
    3.8389   40.2202   -2.0842 C   0  0  2  0  0  0  0  0  0  0  0  0
    5.1158   40.0678   -1.4838 O   0  0  0  0  0  0  0  0  0  0  0  0
    0.4034   34.6830    1.6651 C   0  0  1  0  0  0  0  0  0  0  0  0
    0.4796   35.6353    0.6056 O   0  0  0  0  0  0  0  0  0  0  0  0
    3.5233   41.7201   -2.2424 C   0  0  1  0  0  0  0  0  0  0  0  0
    4.5053   42.3443   -3.0781 O   0  0  0  0  0  0  0  0  0  0  0  0
   -0.9307   34.8420    2.3946 C   0  0  0  0  0  0  0  0  0  0  0  0
   -1.0423   36.1715    2.8766 O   0  0  0  0  0  0  0  0  0  0  0  0
    0.9684   43.4919   -5.1044 N   0  0  0  0  0  0  0  0  0  0  0  0
   -1.4481   38.8481   -1.9227 N   0  0  0  0  0  0  0  0  0  0  0  0
  1  2  1  0  0  0  0
  1 39  1  0  0  0  0
  3  4  1  0  0  0  0
  5  6  1  0  0  0  0
  5 40  1  0  0  0  0
  9 10  1  1  0  0  0
  9 14  1  0  0  0  0
  9 35  1  0  0  0  0
 10  1  1  0  0  0  0
 11 16  1  0  0  0  0
 11 28  1  0  0  0  0
 11 26  1  6  0  0  0
 12 17  1  0  0  0  0
 12 34  1  0  0  0  0
 12 13  1  1  0  0  0
 14 15  1  6  0  0  0
 14 19  1  0  0  0  0
 16 13  1  1  0  0  0
 16 21  1  0  0  0  0
 17 18  1  1  0  0  0
 17 23  1  0  0  0  0
 18  8  1  0  0  0  0
 19 20  1  1  0  0  0
 19 25  1  0  0  0  0
 20  5  1  0  0  0  0
 21  3  1  6  0  0  0
 21 22  1  0  0  0  0
 21 27  1  0  0  0  0
 23 24  1  6  0  0  0
 23 29  1  0  0  0  0
 25 26  1  6  0  0  0
 25 31  1  0  0  0  0
 27  7  1  1  0  0  0
 27 28  1  0  0  0  0
 29 30  1  1  0  0  0
 29 33  1  0  0  0  0
 31 32  1  1  0  0  0
 31 35  1  0  0  0  0
 33 34  1  0  0  0  0
 33 37  1  6  0  0  0
 35 36  1  6  0  0  0
 37 38  1  0  0  0  0
M  END
>  <CHROM.1>
-131.96588404,-104.29039586,179.83326388,93.97026984,76.30451951,-128.47379746
101.59435287,76.64376602,-177.01645531,-132.66016773,-177.72714940,2.43748111
37.72596082,-0.68343825,1.57113390,-0.18796196,-0.47133002

>  <Name>
1ntb_lig

>  <RI>
0

>  <Rbt.Current_Directory>
/home/itssahil/PROJECTS/Mol_Feturizer/New_Systems/rnas/1ntb

>  <Rbt.Executable>
rbdock ($Id: //depot/dev/client3/rdock/2013.1/src/exe/rbdock.cxx#4 $)

>  <Rbt.Library>
libRbt.so (2013.1, Build901 2013/11/27)

>  <Rbt.Parameter_File>
/export/apps/rDock/src/rDock_2013.1_src/data/scripts/dock_solv.prm

>  <Rbt.Receptor>
prm/pocket_docking_6.prm

>  <SCORE>
-15.7514

>  <SCORE.INTER>
-5.94262

>  <SCORE.INTER.CONST>
1

>  <SCORE.INTER.POLAR>
-0.264703

>  <SCORE.INTER.ROT>
11

>  <SCORE.INTER.SOLV>
12.6563

>  <SCORE.INTER.VDW>
-18.2315

>  <SCORE.INTER.norm>
-0.148565

>  <SCORE.INTRA>
-9.80875

>  <SCORE.INTRA.DIHEDRAL>
1.12383

>  <SCORE.INTRA.DIHEDRAL.0>
15.4453

>  <SCORE.INTRA.POLAR>
0

>  <SCORE.INTRA.POLAR.0>
0

>  <SCORE.INTRA.REPUL>
-0.823958

>  <SCORE.INTRA.REPUL.0>
0.823958

>  <SCORE.INTRA.SOLV>
-0.246974

>  <SCORE.INTRA.SOLV.lig_0>
-99.3069

>  <SCORE.INTRA.VDW>
-6.12739

>  <SCORE.INTRA.VDW.0>
0.946495

>  <SCORE.INTRA.norm>
-0.245219

>  <SCORE.RESTR>
0

>  <SCORE.RESTR.CAVITY>
0

>  <SCORE.RESTR.norm>
0

>  <SCORE.SYSTEM>
0

>  <SCORE.SYSTEM.CONST>
0

>  <SCORE.SYSTEM.DIHEDRAL>
0

>  <SCORE.SYSTEM.SOLV>
0

>  <SCORE.SYSTEM.norm>
0

>  <SCORE.heavy>
40

>  <SCORE.norm>
-0.393784

>  <RMSD>
7.889

$$$$
1ntb_lig
 OpenBabel11021811403D
libRbt.so/2013.1/901 2013/11/27
 40 42  0  0  0  0  0  0  0  0999 V2000
   -3.7558   33.9389   -6.2372 C   0  0  0  0  0  0  0  0  0  0  0  0
   -3.2516   33.9473   -7.4101 N   0  0  0  0  0  0  0  0  0  0  0  0
    0.1960   38.9958    2.5590 C   0  0  0  0  0  0  0  0  0  0  0  0
   -0.9578   39.6530    2.0619 O   0  0  0  0  0  0  0  0  0  0  0  0
    1.2481   37.5607   -3.9927 C   0  0  0  0  0  0  0  0  0  0  0  0
    0.7166   38.2165   -4.9620 N   0  0  0  0  0  0  0  0  0  0  0  0
   -0.4979   35.8288    2.8217 C   0  0  0  0  0  0  0  0  0  0  0  0
    5.9723   38.3927    1.3804 C   0  0  0  0  0  0  0  0  0  0  0  0
   -2.4699   34.8391   -4.4759 C   0  0  2  0  0  0  0  0  0  0  0  0
   -2.9247   33.6277   -5.2611 N   0  0  0  0  0  0  0  0  0  0  0  0
    0.1822   36.8919   -0.4590 C   0  0  2  0  0  0  0  0  0  0  0  0
    2.5264   39.4455    0.6104 C   0  0  1  0  0  0  0  0  0  0  0  0
    1.9888   38.3159   -0.0522 O   0  0  0  0  0  0  0  0  0  0  0  0
   -0.9530   34.9853   -4.5263 C   0  0  1  0  0  0  0  0  0  0  0  0
   -0.6276   35.0785   -5.9814 O   0  0  0  0  0  0  0  0  0  0  0  0
    0.6840   38.1306    0.2606 C   0  0  2  0  0  0  0  0  0  0  0  0
    4.0125   39.4969    0.3510 C   0  0  1  0  0  0  0  0  0  0  0  0
    4.6324   38.3290    0.8697 N   0  0  0  0  0  0  0  0  0  0  0  0
   -0.4420   36.1787   -3.7218 C   0  0  2  0  0  0  0  0  0  0  0  0
    0.9940   36.3668   -3.7396 N   0  0  0  0  0  0  0  0  0  0  0  0
    0.4981   37.7808    1.7133 C   0  0  1  0  0  0  0  0  0  0  0  0
    1.6644   37.1150    2.2089 O   0  0  0  0  0  0  0  0  0  0  0  0
    4.2228   39.5662   -1.1522 C   0  0  2  0  0  0  0  0  0  0  0  0
    5.6009   39.6062   -1.4519 O   0  0  0  0  0  0  0  0  0  0  0  0
   -0.8837   36.0001   -2.2924 C   0  0  1  0  0  0  0  0  0  0  0  0
   -0.5351   37.2503   -1.6354 O   0  0  0  0  0  0  0  0  0  0  0  0
   -0.6531   36.8442    1.7192 C   0  0  1  0  0  0  0  0  0  0  0  0
   -0.6701   36.1896    0.4486 O   0  0  0  0  0  0  0  0  0  0  0  0
    3.5340   40.8409   -1.6402 C   0  0  1  0  0  0  0  0  0  0  0  0
    3.6815   40.9748   -3.0452 O   0  0  0  0  0  0  0  0  0  0  0  0
   -2.4313   35.9006   -2.2205 C   0  0  2  0  0  0  0  0  0  0  0  0
   -2.8264   35.7473   -0.8660 O   0  0  0  0  0  0  0  0  0  0  0  0
    2.0511   40.7741   -1.2738 C   0  0  1  0  0  0  0  0  0  0  0  0
    1.9048   40.6387    0.1388 O   0  0  0  0  0  0  0  0  0  0  0  0
   -2.9042   34.6798   -3.0330 C   0  0  1  0  0  0  0  0  0  0  0  0
   -4.3317   34.5736   -2.9764 O   0  0  0  0  0  0  0  0  0  0  0  0
    1.3683   42.0628   -1.7329 C   0  0  0  0  0  0  0  0  0  0  0  0
   -0.0088   42.0051   -1.3973 O   0  0  0  0  0  0  0  0  0  0  0  0
   -4.9983   34.1916   -6.0180 N   0  0  0  0  0  0  0  0  0  0  0  0
    2.1085   38.1107   -3.2829 N   0  0  0  0  0  0  0  0  0  0  0  0
  1  2  1  0  0  0  0
  1 39  1  0  0  0  0
  3  4  1  0  0  0  0
  5  6  1  0  0  0  0
  5 40  1  0  0  0  0
  9 10  1  6  0  0  0
  9 14  1  0  0  0  0
  9 35  1  0  0  0  0
 10  1  1  0  0  0  0
 11 16  1  0  0  0  0
 11 28  1  0  0  0  0
 11 26  1  6  0  0  0
 12 17  1  0  0  0  0
 12 34  1  0  0  0  0
 12 13  1  6  0  0  0
 14 15  1  6  0  0  0
 14 19  1  0  0  0  0
 16 13  1  1  0  0  0
 16 21  1  0  0  0  0
 17 18  1  6  0  0  0
 17 23  1  0  0  0  0
 18  8  1  0  0  0  0
 19 20  1  1  0  0  0
 19 25  1  0  0  0  0
 20  5  1  0  0  0  0
 21  3  1  1  0  0  0
 21 22  1  0  0  0  0
 21 27  1  0  0  0  0
 23 24  1  1  0  0  0
 23 29  1  0  0  0  0
 25 26  1  1  0  0  0
 25 31  1  0  0  0  0
 27  7  1  1  0  0  0
 27 28  1  0  0  0  0
 29 30  1  6  0  0  0
 29 33  1  0  0  0  0
 31 32  1  1  0  0  0
 31 35  1  0  0  0  0
 33 34  1  0  0  0  0
 33 37  1  1  0  0  0
 35 36  1  6  0  0  0
 37 38  1  0  0  0  0
M  END
>  <CHROM.1>
-120.84416170,102.94483173,176.00884391,173.29200478,-178.85670269,-147.87689018
131.79789231,-48.66154269,57.04967092,-129.83813779,179.90109267,0.35511015
37.50683521,-1.65453579,-2.50766559,0.65450015,1.48073814

>  <Name>
1ntb_lig

>  <RI>
0

>  <Rbt.Current_Directory>
/home/itssahil/PROJECTS/Mol_Feturizer/New_Systems/rnas/1ntb

>  <Rbt.Executable>
rbdock ($Id: //depot/dev/client3/rdock/2013.1/src/exe/rbdock.cxx#4 $)

>  <Rbt.Library>
libRbt.so (2013.1, Build901 2013/11/27)

>  <Rbt.Parameter_File>
/export/apps/rDock/src/rDock_2013.1_src/data/scripts/dock_solv.prm

>  <Rbt.Receptor>
prm/pocket_docking_5.prm

>  <SCORE>
-12.4232

>  <SCORE.INTER>
-1.81624

>  <SCORE.INTER.CONST>
1

>  <SCORE.INTER.POLAR>
-1.39586

>  <SCORE.INTER.ROT>
11

>  <SCORE.INTER.SOLV>
11.4137

>  <SCORE.INTER.VDW>
-11.2959

>  <SCORE.INTER.norm>
-0.0454061

>  <SCORE.INTRA>
-10.6069

>  <SCORE.INTRA.DIHEDRAL>
-4.08438

>  <SCORE.INTRA.DIHEDRAL.0>
15.4453

>  <SCORE.INTRA.POLAR>
0

>  <SCORE.INTRA.POLAR.0>
0

>  <SCORE.INTRA.REPUL>
-0.754444

>  <SCORE.INTRA.REPUL.0>
0.823958

>  <SCORE.INTRA.SOLV>
2.02056

>  <SCORE.INTRA.SOLV.lig_0>
-99.3069

>  <SCORE.INTRA.VDW>
-5.80282

>  <SCORE.INTRA.VDW.0>
0.946495

>  <SCORE.INTRA.norm>
-0.265174

>  <SCORE.RESTR>
0

>  <SCORE.RESTR.CAVITY>
0

>  <SCORE.RESTR.norm>
0

>  <SCORE.SYSTEM>
0

>  <SCORE.SYSTEM.CONST>
0

>  <SCORE.SYSTEM.DIHEDRAL>
0

>  <SCORE.SYSTEM.SOLV>
0

>  <SCORE.SYSTEM.norm>
0

>  <SCORE.heavy>
40

>  <SCORE.norm>
-0.31058

>  <RMSD>
7.903

$$$$
1ntb_lig
 OpenBabel11021811403D
libRbt.so/2013.1/901 2013/11/27
 40 42  0  0  0  0  0  0  0  0999 V2000
   -0.1084   42.7357   -4.5997 C   0  0  0  0  0  0  0  0  0  0  0  0
    0.6790   43.0153   -5.5651 N   0  0  0  0  0  0  0  0  0  0  0  0
    5.8146   35.0873    0.6000 C   0  0  0  0  0  0  0  0  0  0  0  0
    5.9524   34.9142   -0.8005 O   0  0  0  0  0  0  0  0  0  0  0  0
   -0.2922   38.8843   -0.0294 C   0  0  0  0  0  0  0  0  0  0  0  0
    0.5264   39.0800    0.9421 N   0  0  0  0  0  0  0  0  0  0  0  0
    6.3867   38.1784    1.4353 C   0  0  0  0  0  0  0  0  0  0  0  0
    2.0024   34.7839   -2.9542 C   0  0  0  0  0  0  0  0  0  0  0  0
    1.0353   41.2058   -3.2150 C   0  0  2  0  0  0  0  0  0  0  0  0
    0.4638   42.5924   -3.4198 N   0  0  0  0  0  0  0  0  0  0  0  0
    3.2693   37.6497   -0.1003 C   0  0  2  0  0  0  0  0  0  0  0  0
    1.3886   35.6578    0.2852 C   0  0  1  0  0  0  0  0  0  0  0  0
    2.6433   35.6543    0.9408 O   0  0  0  0  0  0  0  0  0  0  0  0
    0.1905   40.4066   -2.2289 C   0  0  1  0  0  0  0  0  0  0  0  0
   -1.1787   40.3899   -2.8265 O   0  0  0  0  0  0  0  0  0  0  0  0
    3.6119   36.1946    0.1630 C   0  0  2  0  0  0  0  0  0  0  0  0
    1.3048   34.4421   -0.6056 C   0  0  1  0  0  0  0  0  0  0  0  0
    2.3299   34.4930   -1.5873 N   0  0  0  0  0  0  0  0  0  0  0  0
    0.7449   39.0080   -1.9656 C   0  0  2  0  0  0  0  0  0  0  0  0
   -0.0232   38.2032   -1.0382 N   0  0  0  0  0  0  0  0  0  0  0  0
    4.9306   36.2791    0.8846 C   0  0  1  0  0  0  0  0  0  0  0  0
    4.7100   36.4015    2.2937 O   0  0  0  0  0  0  0  0  0  0  0  0
    1.4876   33.2106    0.2654 C   0  0  2  0  0  0  0  0  0  0  0  0
    1.4276   32.0414   -0.5221 O   0  0  0  0  0  0  0  0  0  0  0  0
    2.1440   39.1557   -1.4263 C   0  0  1  0  0  0  0  0  0  0  0  0
    2.6722   37.8009   -1.3838 O   0  0  0  0  0  0  0  0  0  0  0  0
    5.5522   37.5228    0.3657 C   0  0  1  0  0  0  0  0  0  0  0  0
    4.4885   38.3926   -0.0283 O   0  0  0  0  0  0  0  0  0  0  0  0
    0.3558   33.2196    1.2931 C   0  0  1  0  0  0  0  0  0  0  0  0
    0.4613   32.0961    2.1536 O   0  0  0  0  0  0  0  0  0  0  0  0
    3.0297   39.9244   -2.4436 C   0  0  2  0  0  0  0  0  0  0  0  0
    4.3450   40.0398   -1.9230 O   0  0  0  0  0  0  0  0  0  0  0  0
    0.4360   34.5113    2.1072 C   0  0  1  0  0  0  0  0  0  0  0  0
    0.3306   35.6396    1.2405 O   0  0  0  0  0  0  0  0  0  0  0  0
    2.4442   41.3312   -2.6717 C   0  0  1  0  0  0  0  0  0  0  0  0
    3.2511   42.0543   -3.6089 O   0  0  0  0  0  0  0  0  0  0  0  0
   -0.7149   34.5358    3.1133 C   0  0  0  0  0  0  0  0  0  0  0  0
   -1.9468   34.4634    2.4135 O   0  0  0  0  0  0  0  0  0  0  0  0
   -1.3746   42.5775   -4.7653 N   0  0  0  0  0  0  0  0  0  0  0  0
   -1.4445   39.3469    0.0407 N   0  0  0  0  0  0  0  0  0  0  0  0
  1  2  1  0  0  0  0
  1 39  1  0  0  0  0
  3  4  1  0  0  0  0
  5  6  1  0  0  0  0
  5 40  1  0  0  0  0
  9 10  1  1  0  0  0
  9 14  1  0  0  0  0
  9 35  1  0  0  0  0
 10  1  1  0  0  0  0
 11 16  1  0  0  0  0
 11 28  1  0  0  0  0
 11 26  1  6  0  0  0
 12 17  1  0  0  0  0
 12 34  1  0  0  0  0
 12 13  1  1  0  0  0
 14 15  1  6  0  0  0
 14 19  1  0  0  0  0
 16 13  1  1  0  0  0
 16 21  1  0  0  0  0
 17 18  1  6  0  0  0
 17 23  1  0  0  0  0
 18  8  1  0  0  0  0
 19 20  1  1  0  0  0
 19 25  1  0  0  0  0
 20  5  1  0  0  0  0
 21  3  1  6  0  0  0
 21 22  1  0  0  0  0
 21 27  1  0  0  0  0
 23 24  1  6  0  0  0
 23 29  1  0  0  0  0
 25 26  1  6  0  0  0
 25 31  1  0  0  0  0
 27  7  1  1  0  0  0
 27 28  1  0  0  0  0
 29 30  1  1  0  0  0
 29 33  1  0  0  0  0
 31 32  1  1  0  0  0
 31 35  1  0  0  0  0
 33 34  1  0  0  0  0
 33 37  1  1  0  0  0
 35 36  1  6  0  0  0
 37 38  1  0  0  0  0
M  END
>  <CHROM.1>
-107.36632477,-83.36854520,168.81376348,83.78174790,62.98068259,-107.26096213
-47.26718172,-81.06508880,53.06898119,-132.77319265,-59.18049871,1.85373019
37.53306183,-0.70593051,1.69204499,-0.04196978,-0.54206707

>  <Name>
1ntb_lig

>  <RI>
0

>  <Rbt.Current_Directory>
/home/itssahil/PROJECTS/Mol_Feturizer/New_Systems/rnas/1ntb

>  <Rbt.Executable>
rbdock ($Id: //depot/dev/client3/rdock/2013.1/src/exe/rbdock.cxx#4 $)

>  <Rbt.Library>
libRbt.so (2013.1, Build901 2013/11/27)

>  <Rbt.Parameter_File>
/export/apps/rDock/src/rDock_2013.1_src/data/scripts/dock_solv.prm

>  <Rbt.Receptor>
prm/pocket_docking_7.prm

>  <SCORE>
-10.5732

>  <SCORE.INTER>
-4.20148

>  <SCORE.INTER.CONST>
1

>  <SCORE.INTER.POLAR>
-0.462429

>  <SCORE.INTER.ROT>
11

>  <SCORE.INTER.SOLV>
10.427

>  <SCORE.INTER.VDW>
-15.6685

>  <SCORE.INTER.norm>
-0.105037

>  <SCORE.INTRA>
-6.37174

>  <SCORE.INTRA.DIHEDRAL>
-2.09384

>  <SCORE.INTRA.DIHEDRAL.0>
15.4453

>  <SCORE.INTRA.POLAR>
0

>  <SCORE.INTRA.POLAR.0>
0

>  <SCORE.INTRA.REPUL>
-0.788013

>  <SCORE.INTRA.REPUL.0>
0.823958

>  <SCORE.INTRA.SOLV>
3.2031

>  <SCORE.INTRA.SOLV.lig_0>
-99.3069

>  <SCORE.INTRA.VDW>
-2.9863

>  <SCORE.INTRA.VDW.0>
0.946495

>  <SCORE.INTRA.norm>
-0.159293

>  <SCORE.RESTR>
0

>  <SCORE.RESTR.CAVITY>
0

>  <SCORE.RESTR.norm>
0

>  <SCORE.SYSTEM>
0

>  <SCORE.SYSTEM.CONST>
0

>  <SCORE.SYSTEM.DIHEDRAL>
0

>  <SCORE.SYSTEM.SOLV>
0

>  <SCORE.SYSTEM.norm>
0

>  <SCORE.heavy>
40

>  <SCORE.norm>
-0.26433

>  <RMSD>
7.910

$$$$
1ntb_lig
 OpenBabel11021811403D
libRbt.so/2013.1/901 2013/11/27
 40 42  0  0  0  0  0  0  0  0999 V2000
    1.6574   30.6096   -9.2325 C   0  0  0  0  0  0  0  0  0  0  0  0
    1.3737   29.9398  -10.2819 N   0  0  0  0  0  0  0  0  0  0  0  0
   -2.6179   40.5599   -7.2680 C   0  0  0  0  0  0  0  0  0  0  0  0
   -1.9808   40.6671   -8.5301 O   0  0  0  0  0  0  0  0  0  0  0  0
   -0.0694   34.6381   -4.6418 C   0  0  0  0  0  0  0  0  0  0  0  0
    1.0744   35.1316   -4.3254 N   0  0  0  0  0  0  0  0  0  0  0  0
   -4.7276   38.0939   -7.4880 C   0  0  0  0  0  0  0  0  0  0  0  0
    1.8970   39.0672   -8.2232 C   0  0  0  0  0  0  0  0  0  0  0  0
    0.7333   32.5879   -8.3391 C   0  0  2  0  0  0  0  0  0  0  0  0
    0.6256   31.0959   -8.5698 N   0  0  0  0  0  0  0  0  0  0  0  0
   -1.3870   37.1012   -7.0288 C   0  0  2  0  0  0  0  0  0  0  0  0
    0.6299   38.2423   -5.3704 C   0  0  1  0  0  0  0  0  0  0  0  0
   -0.7149   38.6785   -5.4422 O   0  0  0  0  0  0  0  0  0  0  0  0
   -0.0428   33.0060   -7.0950 C   0  0  1  0  0  0  0  0  0  0  0  0
    0.5522   32.2007   -5.9863 O   0  0  0  0  0  0  0  0  0  0  0  0
   -1.2055   38.5719   -6.7003 C   0  0  2  0  0  0  0  0  0  0  0  0
    1.5299   39.3768   -5.7964 C   0  0  1  0  0  0  0  0  0  0  0  0
    1.2421   39.7417   -7.1386 N   0  0  0  0  0  0  0  0  0  0  0  0
    0.0106   34.5104   -6.8366 C   0  0  2  0  0  0  0  0  0  0  0  0
   -0.7076   34.9617   -5.6626 N   0  0  0  0  0  0  0  0  0  0  0  0
   -2.6034   39.1211   -6.8071 C   0  0  1  0  0  0  0  0  0  0  0  0
   -3.2731   39.0021   -5.5476 O   0  0  0  0  0  0  0  0  0  0  0  0
    1.2647   40.5555   -4.8750 C   0  0  2  0  0  0  0  0  0  0  0  0
    2.0762   41.6514   -5.2369 O   0  0  0  0  0  0  0  0  0  0  0  0
   -0.5572   35.2107   -8.0438 C   0  0  1  0  0  0  0  0  0  0  0  0
   -0.2982   36.6232   -7.8116 O   0  0  0  0  0  0  0  0  0  0  0  0
   -3.2635   38.2478   -7.8092 C   0  0  1  0  0  0  0  0  0  0  0  0
   -2.6130   36.9762   -7.7533 O   0  0  0  0  0  0  0  0  0  0  0  0
    1.5944   40.0941   -3.4552 C   0  0  1  0  0  0  0  0  0  0  0  0
    1.3649   41.1445   -2.5290 O   0  0  0  0  0  0  0  0  0  0  0  0
    0.2560   34.8333   -9.3113 C   0  0  2  0  0  0  0  0  0  0  0  0
   -0.2858   35.5138  -10.4327 O   0  0  0  0  0  0  0  0  0  0  0  0
    0.7173   38.8905   -3.1091 C   0  0  1  0  0  0  0  0  0  0  0  0
    0.9487   37.8360   -4.0417 O   0  0  0  0  0  0  0  0  0  0  0  0
    0.1666   33.3126   -9.5430 C   0  0  1  0  0  0  0  0  0  0  0  0
    0.9124   32.9478  -10.7104 O   0  0  0  0  0  0  0  0  0  0  0  0
    1.0693   38.4087   -1.7015 C   0  0  0  0  0  0  0  0  0  0  0  0
    2.3781   37.8616   -1.7103 O   0  0  0  0  0  0  0  0  0  0  0  0
    2.8692   30.8213   -8.8553 N   0  0  0  0  0  0  0  0  0  0  0  0
   -0.5664   33.7454   -3.9327 N   0  0  0  0  0  0  0  0  0  0  0  0
  1  2  1  0  0  0  0
  1 39  1  0  0  0  0
  3  4  1  0  0  0  0
  5  6  1  0  0  0  0
  5 40  1  0  0  0  0
  9 10  1  6  0  0  0
  9 14  1  0  0  0  0
  9 35  1  0  0  0  0
 10  1  1  0  0  0  0
 11 16  1  0  0  0  0
 11 28  1  0  0  0  0
 11 26  1  6  0  0  0
 12 17  1  0  0  0  0
 12 34  1  0  0  0  0
 12 13  1  1  0  0  0
 14 15  1  1  0  0  0
 14 19  1  0  0  0  0
 16 13  1  1  0  0  0
 16 21  1  0  0  0  0
 17 18  1  6  0  0  0
 17 23  1  0  0  0  0
 18  8  1  0  0  0  0
 19 20  1  1  0  0  0
 19 25  1  0  0  0  0
 20  5  1  0  0  0  0
 21  3  1  6  0  0  0
 21 22  1  0  0  0  0
 21 27  1  0  0  0  0
 23 24  1  6  0  0  0
 23 29  1  0  0  0  0
 25 26  1  1  0  0  0
 25 31  1  0  0  0  0
 27  7  1  1  0  0  0
 27 28  1  0  0  0  0
 29 30  1  1  0  0  0
 29 33  1  0  0  0  0
 31 32  1  6  0  0  0
 31 35  1  0  0  0  0
 33 34  1  0  0  0  0
 33 37  1  1  0  0  0
 35 36  1  6  0  0  0
 37 38  1  0  0  0  0
M  END
>  <CHROM.1>
-153.50826311,-126.22957082,178.85103767,83.18140733,70.67605458,-87.34655026
73.70402376,67.06908513,58.53641389,-85.83736149,-68.08141475,-0.00210149
36.59070434,-6.56838053,-1.45478837,-0.90179254,0.57667610

>  <Name>
1ntb_lig

>  <RI>
0

>  <Rbt.Current_Directory>
/home/itssahil/PROJECTS/Mol_Feturizer/New_Systems/rnas/1ntb

>  <Rbt.Executable>
rbdock ($Id: //depot/dev/client3/rdock/2013.1/src/exe/rbdock.cxx#4 $)

>  <Rbt.Library>
libRbt.so (2013.1, Build901 2013/11/27)

>  <Rbt.Parameter_File>
/export/apps/rDock/src/rDock_2013.1_src/data/scripts/dock_solv.prm

>  <Rbt.Receptor>
prm/pocket_docking_8.prm

>  <SCORE>
-11.7114

>  <SCORE.INTER>
-1.94348

>  <SCORE.INTER.CONST>
1

>  <SCORE.INTER.POLAR>
-0.634175

>  <SCORE.INTER.ROT>
11

>  <SCORE.INTER.SOLV>
17.1873

>  <SCORE.INTER.VDW>
-15.8442

>  <SCORE.INTER.norm>
-0.0485871

>  <SCORE.INTRA>
-9.76788

>  <SCORE.INTRA.DIHEDRAL>
-6.98938

>  <SCORE.INTRA.DIHEDRAL.0>
15.4453

>  <SCORE.INTRA.POLAR>
0

>  <SCORE.INTRA.POLAR.0>
0

>  <SCORE.INTRA.REPUL>
-0.823958

>  <SCORE.INTRA.REPUL.0>
0.823958

>  <SCORE.INTRA.SOLV>
2.74401

>  <SCORE.INTRA.SOLV.lig_0>
-99.3069

>  <SCORE.INTRA.VDW>
-3.5254

>  <SCORE.INTRA.VDW.0>
0.946495

>  <SCORE.INTRA.norm>
-0.244197

>  <SCORE.RESTR>
0

>  <SCORE.RESTR.CAVITY>
0

>  <SCORE.RESTR.norm>
0

>  <SCORE.SYSTEM>
0

>  <SCORE.SYSTEM.CONST>
0

>  <SCORE.SYSTEM.DIHEDRAL>
0

>  <SCORE.SYSTEM.SOLV>
0

>  <SCORE.SYSTEM.norm>
0

>  <SCORE.heavy>
40

>  <SCORE.norm>
-0.292784

>  <RMSD>
7.910

$$$$
1ntb_lig
 OpenBabel11021811403D
libRbt.so/2013.1/901 2013/11/27
 40 42  0  0  0  0  0  0  0  0999 V2000
   -4.1546   34.6447    3.2108 C   0  0  0  0  0  0  0  0  0  0  0  0
   -4.0377   33.5680    3.8869 N   0  0  0  0  0  0  0  0  0  0  0  0
    5.8018   38.5650    0.4402 C   0  0  0  0  0  0  0  0  0  0  0  0
    5.5448   39.3069   -0.7404 O   0  0  0  0  0  0  0  0  0  0  0  0
   -0.5649   39.5928    2.5232 C   0  0  0  0  0  0  0  0  0  0  0  0
   -1.7185   40.0984    2.7795 N   0  0  0  0  0  0  0  0  0  0  0  0
    6.1577   35.5391    1.5792 C   0  0  0  0  0  0  0  0  0  0  0  0
    2.2417   41.2065    0.3857 C   0  0  0  0  0  0  0  0  0  0  0  0
   -2.0215   35.3729    2.5140 C   0  0  2  0  0  0  0  0  0  0  0  0
   -3.3571   34.7517    2.1655 N   0  0  0  0  0  0  0  0  0  0  0  0
    2.8167   36.5966    1.3056 C   0  0  2  0  0  0  0  0  0  0  0  0
    1.6454   38.3315   -0.7762 C   0  0  1  0  0  0  0  0  0  0  0  0
    2.9141   37.7040   -0.7490 O   0  0  0  0  0  0  0  0  0  0  0  0
   -1.8865   36.7606    1.8969 C   0  0  1  0  0  0  0  0  0  0  0  0
   -3.0463   37.5320    2.4368 O   0  0  0  0  0  0  0  0  0  0  0  0
    3.4473   37.7151    0.4962 C   0  0  2  0  0  0  0  0  0  0  0  0
    1.7764   39.6572   -1.4860 C   0  0  1  0  0  0  0  0  0  0  0  0
    2.6815   40.4939   -0.7801 N   0  0  0  0  0  0  0  0  0  0  0  0
   -0.5405   37.4176    2.1957 C   0  0  2  0  0  0  0  0  0  0  0  0
   -0.3610   38.7413    1.6359 N   0  0  0  0  0  0  0  0  0  0  0  0
    4.9075   37.3481    0.4858 C   0  0  1  0  0  0  0  0  0  0  0  0
    5.1882   36.4904   -0.6254 O   0  0  0  0  0  0  0  0  0  0  0  0
    2.3079   39.3888   -2.8839 C   0  0  2  0  0  0  0  0  0  0  0  0
    2.4594   40.6005   -3.5906 O   0  0  0  0  0  0  0  0  0  0  0  0
    0.5448   36.5201    1.6599 C   0  0  1  0  0  0  0  0  0  0  0  0
    1.7854   37.1043    2.1456 O   0  0  0  0  0  0  0  0  0  0  0  0
    5.1064   36.6043    1.7545 C   0  0  1  0  0  0  0  0  0  0  0  0
    3.8533   36.0055    2.0926 O   0  0  0  0  0  0  0  0  0  0  0  0
    1.2891   38.4882   -3.5827 C   0  0  1  0  0  0  0  0  0  0  0  0
    1.7198   38.1854   -4.9005 O   0  0  0  0  0  0  0  0  0  0  0  0
    0.4506   35.1172    2.3181 C   0  0  2  0  0  0  0  0  0  0  0  0
    1.4889   34.2933    1.8109 O   0  0  0  0  0  0  0  0  0  0  0  0
    1.1309   37.1995   -2.7751 C   0  0  1  0  0  0  0  0  0  0  0  0
    0.6987   37.5059   -1.4504 O   0  0  0  0  0  0  0  0  0  0  0  0
   -0.9142   34.4852    1.9833 C   0  0  1  0  0  0  0  0  0  0  0  0
   -1.0170   33.1886    2.5838 O   0  0  0  0  0  0  0  0  0  0  0  0
    0.0883   36.3124   -3.4559 C   0  0  0  0  0  0  0  0  0  0  0  0
    0.6574   35.7342   -4.6196 O   0  0  0  0  0  0  0  0  0  0  0  0
   -4.9768   35.5791    3.5376 N   0  0  0  0  0  0  0  0  0  0  0  0
    0.4316   39.9984    3.1471 N   0  0  0  0  0  0  0  0  0  0  0  0
  1  2  1  0  0  0  0
  1 39  1  0  0  0  0
  3  4  1  0  0  0  0
  5  6  1  0  0  0  0
  5 40  1  0  0  0  0
  9 10  1  6  0  0  0
  9 14  1  0  0  0  0
  9 35  1  0  0  0  0
 10  1  1  0  0  0  0
 11 16  1  0  0  0  0
 11 28  1  0  0  0  0
 11 26  1  1  0  0  0
 12 17  1  0  0  0  0
 12 34  1  0  0  0  0
 12 13  1  6  0  0  0
 14 15  1  1  0  0  0
 14 19  1  0  0  0  0
 16 13  1  6  0  0  0
 16 21  1  0  0  0  0
 17 18  1  1  0  0  0
 17 23  1  0  0  0  0
 18  8  1  0  0  0  0
 19 20  1  6  0  0  0
 19 25  1  0  0  0  0
 20  5  1  0  0  0  0
 21  3  1  6  0  0  0
 21 22  1  0  0  0  0
 21 27  1  0  0  0  0
 23 24  1  6  0  0  0
 23 29  1  0  0  0  0
 25 26  1  1  0  0  0
 25 31  1  0  0  0  0
 27  7  1  6  0  0  0
 27 28  1  0  0  0  0
 29 30  1  6  0  0  0
 29 33  1  0  0  0  0
 31 32  1  6  0  0  0
 31 35  1  0  0  0  0
 33 34  1  0  0  0  0
 33 37  1  6  0  0  0
 35 36  1  1  0  0  0
 37 38  1  0  0  0  0
M  END
>  <CHROM.1>
-111.09947578,-88.42687665,114.60198701,108.06945931,79.99406770,-79.93768367
100.01427437,-89.10772288,-60.73333894,-160.03222034,74.56541270,1.05686402
37.23936812,0.47056287,2.43510891,0.08212504,2.07572881

>  <Name>
1ntb_lig

>  <RI>
0

>  <Rbt.Current_Directory>
/home/itssahil/PROJECTS/Mol_Feturizer/New_Systems/rnas/1ntb

>  <Rbt.Executable>
rbdock ($Id: //depot/dev/client3/rdock/2013.1/src/exe/rbdock.cxx#4 $)

>  <Rbt.Library>
libRbt.so (2013.1, Build901 2013/11/27)

>  <Rbt.Parameter_File>
/export/apps/rDock/src/rDock_2013.1_src/data/scripts/dock_solv.prm

>  <Rbt.Receptor>
prm/pocket_docking_6.prm

>  <SCORE>
-12.0878

>  <SCORE.INTER>
-3.62313

>  <SCORE.INTER.CONST>
1

>  <SCORE.INTER.POLAR>
-0.811641

>  <SCORE.INTER.ROT>
11

>  <SCORE.INTER.SOLV>
10.9106

>  <SCORE.INTER.VDW>
-14.2801

>  <SCORE.INTER.norm>
-0.0905783

>  <SCORE.INTRA>
-8.53947

>  <SCORE.INTRA.DIHEDRAL>
6.12281

>  <SCORE.INTRA.DIHEDRAL.0>
15.4453

>  <SCORE.INTRA.POLAR>
0

>  <SCORE.INTRA.POLAR.0>
0

>  <SCORE.INTRA.REPUL>
-0.819046

>  <SCORE.INTRA.REPUL.0>
0.823958

>  <SCORE.INTRA.SOLV>
0.0457676

>  <SCORE.INTRA.SOLV.lig_0>
-99.3069

>  <SCORE.INTRA.VDW>
-7.52853

>  <SCORE.INTRA.VDW.0>
0.946495

>  <SCORE.INTRA.norm>
-0.213487

>  <SCORE.RESTR>
0.0747628

>  <SCORE.RESTR.CAVITY>
0.0747628

>  <SCORE.RESTR.norm>
0.00186907

>  <SCORE.SYSTEM>
0

>  <SCORE.SYSTEM.CONST>
0

>  <SCORE.SYSTEM.DIHEDRAL>
0

>  <SCORE.SYSTEM.SOLV>
0

>  <SCORE.SYSTEM.norm>
0

>  <SCORE.heavy>
40

>  <SCORE.norm>
-0.302196

>  <RMSD>
7.938

$$$$
1ntb_lig
 OpenBabel11021811403D
libRbt.so/2013.1/901 2013/11/27
 40 42  0  0  0  0  0  0  0  0999 V2000
    0.1443   40.5935    5.8496 C   0  0  0  0  0  0  0  0  0  0  0  0
    0.6492   41.7661    5.8676 N   0  0  0  0  0  0  0  0  0  0  0  0
   -0.0463   36.3482   -4.3597 C   0  0  0  0  0  0  0  0  0  0  0  0
   -1.4315   36.3697   -4.0578 O   0  0  0  0  0  0  0  0  0  0  0  0
   -1.5667   35.5061    2.4544 C   0  0  0  0  0  0  0  0  0  0  0  0
   -2.6495   35.6947    1.7881 N   0  0  0  0  0  0  0  0  0  0  0  0
    1.0305   39.4085   -4.1253 C   0  0  0  0  0  0  0  0  0  0  0  0
    4.8606   33.7408   -3.0704 C   0  0  0  0  0  0  0  0  0  0  0  0
    0.2075   39.3108    3.8707 C   0  0  2  0  0  0  0  0  0  0  0  0
    0.8390   39.6831    5.1949 N   0  0  0  0  0  0  0  0  0  0  0  0
    0.6148   37.7823   -1.0369 C   0  0  2  0  0  0  0  0  0  0  0  0
    1.4405   34.5223   -2.3968 C   0  0  1  0  0  0  0  0  0  0  0  0
    1.4674   35.6752   -1.5757 O   0  0  0  0  0  0  0  0  0  0  0  0
    0.1922   37.7982    3.6784 C   0  0  1  0  0  0  0  0  0  0  0  0
   -0.5660   37.2726    4.8535 O   0  0  0  0  0  0  0  0  0  0  0  0
    0.5002   36.5568   -1.9251 C   0  0  2  0  0  0  0  0  0  0  0  0
    2.6149   33.6448   -2.0373 C   0  0  1  0  0  0  0  0  0  0  0  0
    3.8285   34.3433   -2.2755 N   0  0  0  0  0  0  0  0  0  0  0  0
   -0.4091   37.3733    2.3403 C   0  0  2  0  0  0  0  0  0  0  0  0
   -0.4523   35.9444    2.1080 N   0  0  0  0  0  0  0  0  0  0  0  0
    0.7197   37.1142   -3.3065 C   0  0  1  0  0  0  0  0  0  0  0  0
    2.1170   37.1134   -3.6177 O   0  0  0  0  0  0  0  0  0  0  0  0
    2.5036   33.2952   -0.5629 C   0  0  2  0  0  0  0  0  0  0  0  0
    3.5867   32.4808   -0.1702 O   0  0  0  0  0  0  0  0  0  0  0  0
    0.4004   38.0126    1.2421 C   0  0  1  0  0  0  0  0  0  0  0  0
   -0.3365   37.7268    0.0209 O   0  0  0  0  0  0  0  0  0  0  0  0
    0.2274   38.5115   -3.2193 C   0  0  1  0  0  0  0  0  0  0  0  0
    0.3773   38.9268   -1.8597 O   0  0  0  0  0  0  0  0  0  0  0  0
    1.1819   32.5487   -0.3804 C   0  0  1  0  0  0  0  0  0  0  0  0
    1.0008   32.1910    0.9808 O   0  0  0  0  0  0  0  0  0  0  0  0
    0.3828   39.5574    1.3961 C   0  0  2  0  0  0  0  0  0  0  0  0
    1.1381   40.1396    0.3450 O   0  0  0  0  0  0  0  0  0  0  0  0
    0.0361   33.4500   -0.8414 C   0  0  1  0  0  0  0  0  0  0  0  0
    0.2203   33.8093   -2.2097 O   0  0  0  0  0  0  0  0  0  0  0  0
    1.0075   39.9441    2.7505 C   0  0  1  0  0  0  0  0  0  0  0  0
    0.9990   41.3679    2.9080 O   0  0  0  0  0  0  0  0  0  0  0  0
   -1.2830   32.6921   -0.6894 C   0  0  0  0  0  0  0  0  0  0  0  0
   -1.2542   31.5376   -1.5133 O   0  0  0  0  0  0  0  0  0  0  0  0
   -0.9808   40.3178    6.4099 N   0  0  0  0  0  0  0  0  0  0  0  0
   -1.6150   34.8988    3.5386 N   0  0  0  0  0  0  0  0  0  0  0  0
  1  2  1  0  0  0  0
  1 39  1  0  0  0  0
  3  4  1  0  0  0  0
  5  6  1  0  0  0  0
  5 40  1  0  0  0  0
  9 10  1  1  0  0  0
  9 14  1  0  0  0  0
  9 35  1  0  0  0  0
 10  1  1  0  0  0  0
 11 16  1  0  0  0  0
 11 28  1  0  0  0  0
 11 26  1  1  0  0  0
 12 17  1  0  0  0  0
 12 34  1  0  0  0  0
 12 13  1  1  0  0  0
 14 15  1  1  0  0  0
 14 19  1  0  0  0  0
 16 13  1  1  0  0  0
 16 21  1  0  0  0  0
 17 18  1  1  0  0  0
 17 23  1  0  0  0  0
 18  8  1  0  0  0  0
 19 20  1  6  0  0  0
 19 25  1  0  0  0  0
 20  5  1  0  0  0  0
 21  3  1  6  0  0  0
 21 22  1  0  0  0  0
 21 27  1  0  0  0  0
 23 24  1  6  0  0  0
 23 29  1  0  0  0  0
 25 26  1  6  0  0  0
 25 31  1  0  0  0  0
 27  7  1  6  0  0  0
 27 28  1  0  0  0  0
 29 30  1  1  0  0  0
 29 33  1  0  0  0  0
 31 32  1  6  0  0  0
 31 35  1  0  0  0  0
 33 34  1  0  0  0  0
 33 37  1  6  0  0  0
 35 36  1  1  0  0  0
 37 38  1  0  0  0  0
M  END
>  <CHROM.1>
-134.50665422,-106.53769303,131.04216077,174.93555907,-178.22990824,-128.04415284
94.42767959,73.70892470,58.08911153,-155.64141381,-61.50061754,0.55186333
36.60089446,0.26301368,2.33393962,1.35341350,0.13135031

>  <Name>
1ntb_lig

>  <RI>
0

>  <Rbt.Current_Directory>
/home/itssahil/PROJECTS/Mol_Feturizer/New_Systems/rnas/1ntb

>  <Rbt.Executable>
rbdock ($Id: //depot/dev/client3/rdock/2013.1/src/exe/rbdock.cxx#4 $)

>  <Rbt.Library>
libRbt.so (2013.1, Build901 2013/11/27)

>  <Rbt.Parameter_File>
/export/apps/rDock/src/rDock_2013.1_src/data/scripts/dock_solv.prm

>  <Rbt.Receptor>
prm/pocket_docking_7.prm

>  <SCORE>
-12.5079

>  <SCORE.INTER>
-1.20032

>  <SCORE.INTER.CONST>
1

>  <SCORE.INTER.POLAR>
-0.689992

>  <SCORE.INTER.ROT>
11

>  <SCORE.INTER.SOLV>
10.8017

>  <SCORE.INTER.VDW>
-13.0342

>  <SCORE.INTER.norm>
-0.0300081

>  <SCORE.INTRA>
-11.3076

>  <SCORE.INTRA.DIHEDRAL>
-1.84639

>  <SCORE.INTRA.DIHEDRAL.0>
15.4453

>  <SCORE.INTRA.POLAR>
0

>  <SCORE.INTRA.POLAR.0>
0

>  <SCORE.INTRA.REPUL>
-0.823958

>  <SCORE.INTRA.REPUL.0>
0.823958

>  <SCORE.INTRA.SOLV>
-1.46616

>  <SCORE.INTRA.SOLV.lig_0>
-99.3069

>  <SCORE.INTRA.VDW>
-5.53155

>  <SCORE.INTRA.VDW.0>
0.946495

>  <SCORE.INTRA.norm>
-0.28269

>  <SCORE.RESTR>
0

>  <SCORE.RESTR.CAVITY>
0

>  <SCORE.RESTR.norm>
0

>  <SCORE.SYSTEM>
0

>  <SCORE.SYSTEM.CONST>
0

>  <SCORE.SYSTEM.DIHEDRAL>
0

>  <SCORE.SYSTEM.SOLV>
0

>  <SCORE.SYSTEM.norm>
0

>  <SCORE.heavy>
40

>  <SCORE.norm>
-0.312698

>  <RMSD>
7.949

$$$$
1ntb_lig
 OpenBabel11021811403D
libRbt.so/2013.1/901 2013/11/27
 40 42  0  0  0  0  0  0  0  0999 V2000
    1.7462   43.3123   -6.2556 C   0  0  0  0  0  0  0  0  0  0  0  0
    2.5198   44.2307   -5.8216 N   0  0  0  0  0  0  0  0  0  0  0  0
    2.3113   33.0809   -2.0097 C   0  0  0  0  0  0  0  0  0  0  0  0
    2.4339   32.5265   -0.7105 O   0  0  0  0  0  0  0  0  0  0  0  0
   -1.0632   38.0590   -5.5996 C   0  0  0  0  0  0  0  0  0  0  0  0
   -1.9053   38.7749   -6.2557 N   0  0  0  0  0  0  0  0  0  0  0  0
    1.9565   35.3968    0.2466 C   0  0  0  0  0  0  0  0  0  0  0  0
   -1.5066   31.5769   -2.1160 C   0  0  0  0  0  0  0  0  0  0  0  0
    1.6105   41.2043   -5.2051 C   0  0  2  0  0  0  0  0  0  0  0  0
    1.1028   42.6245   -5.3319 N   0  0  0  0  0  0  0  0  0  0  0  0
    1.2778   36.4597   -3.0344 C   0  0  2  0  0  0  0  0  0  0  0  0
    0.1251   33.2761   -4.3136 C   0  0  1  0  0  0  0  0  0  0  0  0
    0.0984   34.6030   -3.8210 O   0  0  0  0  0  0  0  0  0  0  0  0
    0.5690   40.2055   -5.6976 C   0  0  1  0  0  0  0  0  0  0  0  0
    0.2987   40.6033   -7.1120 O   0  0  0  0  0  0  0  0  0  0  0  0
    1.2981   34.9669   -3.3081 C   0  0  2  0  0  0  0  0  0  0  0  0
   -1.2800   32.7249   -4.2956 C   0  0  1  0  0  0  0  0  0  0  0  0
   -1.7721   32.7046   -2.9634 N   0  0  0  0  0  0  0  0  0  0  0  0
    1.0238   38.7538   -5.5614 C   0  0  2  0  0  0  0  0  0  0  0  0
    0.0725   37.7625   -6.0196 N   0  0  0  0  0  0  0  0  0  0  0  0
    1.5301   34.3725   -1.9442 C   0  0  1  0  0  0  0  0  0  0  0  0
    0.2777   34.1562   -1.2856 O   0  0  0  0  0  0  0  0  0  0  0  0
   -2.1490   33.6314   -5.1510 C   0  0  2  0  0  0  0  0  0  0  0  0
   -3.4807   33.1655   -5.1605 O   0  0  0  0  0  0  0  0  0  0  0  0
    1.3231   38.4941   -4.1077 C   0  0  1  0  0  0  0  0  0  0  0  0
    1.9280   37.1714   -4.0821 O   0  0  0  0  0  0  0  0  0  0  0  0
    2.3035   35.4114   -1.2196 C   0  0  1  0  0  0  0  0  0  0  0  0
    1.9546   36.6732   -1.7936 O   0  0  0  0  0  0  0  0  0  0  0  0
   -1.5651   33.6050   -6.5636 C   0  0  1  0  0  0  0  0  0  0  0  0
   -2.3232   34.4381   -7.4268 O   0  0  0  0  0  0  0  0  0  0  0  0
    2.4197   39.4716   -3.6056 C   0  0  2  0  0  0  0  0  0  0  0  0
    2.6963   39.2008   -2.2403 O   0  0  0  0  0  0  0  0  0  0  0  0
   -0.1156   34.0888   -6.5097 C   0  0  1  0  0  0  0  0  0  0  0  0
    0.6447   33.2508   -5.6409 O   0  0  0  0  0  0  0  0  0  0  0  0
    1.9177   40.9214   -3.7486 C   0  0  1  0  0  0  0  0  0  0  0  0
    2.9192   41.8368   -3.2888 O   0  0  0  0  0  0  0  0  0  0  0  0
    0.4789   34.0320   -7.9172 C   0  0  0  0  0  0  0  0  0  0  0  0
    0.4673   32.6889   -8.3736 O   0  0  0  0  0  0  0  0  0  0  0  0
    1.6179   43.0530   -7.5094 N   0  0  0  0  0  0  0  0  0  0  0  0
   -1.3536   37.6708   -4.4544 N   0  0  0  0  0  0  0  0  0  0  0  0
  1  2  1  0  0  0  0
  1 39  1  0  0  0  0
  3  4  1  0  0  0  0
  5  6  1  0  0  0  0
  5 40  1  0  0  0  0
  9 10  1  1  0  0  0
  9 14  1  0  0  0  0
  9 35  1  0  0  0  0
 10  1  1  0  0  0  0
 11 16  1  0  0  0  0
 11 28  1  0  0  0  0
 11 26  1  6  0  0  0
 12 17  1  0  0  0  0
 12 34  1  0  0  0  0
 12 13  1  6  0  0  0
 14 15  1  6  0  0  0
 14 19  1  0  0  0  0
 16 13  1  1  0  0  0
 16 21  1  0  0  0  0
 17 18  1  1  0  0  0
 17 23  1  0  0  0  0
 18  8  1  0  0  0  0
 19 20  1  1  0  0  0
 19 25  1  0  0  0  0
 20  5  1  0  0  0  0
 21  3  1  6  0  0  0
 21 22  1  0  0  0  0
 21 27  1  0  0  0  0
 23 24  1  6  0  0  0
 23 29  1  0  0  0  0
 25 26  1  6  0  0  0
 25 31  1  0  0  0  0
 27  7  1  1  0  0  0
 27 28  1  0  0  0  0
 29 30  1  6  0  0  0
 29 33  1  0  0  0  0
 31 32  1  1  0  0  0
 31 35  1  0  0  0  0
 33 34  1  0  0  0  0
 33 37  1  6  0  0  0
 35 36  1  6  0  0  0
 37 38  1  0  0  0  0
M  END
>  <CHROM.1>
-111.13158627,-109.43985622,152.69219925,155.27824459,169.79889695,-86.61777950
-44.63559646,91.98859207,-176.64537350,-133.08209520,-61.58807778,0.55900840
36.70186979,-4.41281827,1.16049090,-1.00099992,-0.52424551

>  <Name>
1ntb_lig

>  <RI>
0

>  <Rbt.Current_Directory>
/home/itssahil/PROJECTS/Mol_Feturizer/New_Systems/rnas/1ntb

>  <Rbt.Executable>
rbdock ($Id: //depot/dev/client3/rdock/2013.1/src/exe/rbdock.cxx#4 $)

>  <Rbt.Library>
libRbt.so (2013.1, Build901 2013/11/27)

>  <Rbt.Parameter_File>
/export/apps/rDock/src/rDock_2013.1_src/data/scripts/dock_solv.prm

>  <Rbt.Receptor>
prm/pocket_docking_8.prm

>  <SCORE>
-11.6907

>  <SCORE.INTER>
-4.50256

>  <SCORE.INTER.CONST>
1

>  <SCORE.INTER.POLAR>
-0.653261

>  <SCORE.INTER.ROT>
11

>  <SCORE.INTER.SOLV>
8.3391

>  <SCORE.INTER.VDW>
-14.5372

>  <SCORE.INTER.norm>
-0.112564

>  <SCORE.INTRA>
-7.1881

>  <SCORE.INTRA.DIHEDRAL>
0.20783

>  <SCORE.INTRA.DIHEDRAL.0>
15.4453

>  <SCORE.INTRA.POLAR>
0

>  <SCORE.INTRA.POLAR.0>
0

>  <SCORE.INTRA.REPUL>
-0.823958

>  <SCORE.INTRA.REPUL.0>
0.823958

>  <SCORE.INTRA.SOLV>
2.23956

>  <SCORE.INTRA.SOLV.lig_0>
-99.3069

>  <SCORE.INTRA.VDW>
-4.29201

>  <SCORE.INTRA.VDW.0>
0.946495

>  <SCORE.INTRA.norm>
-0.179702

>  <SCORE.RESTR>
0

>  <SCORE.RESTR.CAVITY>
0

>  <SCORE.RESTR.norm>
0

>  <SCORE.SYSTEM>
0

>  <SCORE.SYSTEM.CONST>
0

>  <SCORE.SYSTEM.DIHEDRAL>
0

>  <SCORE.SYSTEM.SOLV>
0

>  <SCORE.SYSTEM.norm>
0

>  <SCORE.heavy>
40

>  <SCORE.norm>
-0.292266

>  <RMSD>
7.958

$$$$
1ntb_lig
 OpenBabel11021811403D
libRbt.so/2013.1/901 2013/11/27
 40 42  0  0  0  0  0  0  0  0999 V2000
   -1.5814   32.8026    2.1170 C   0  0  0  0  0  0  0  0  0  0  0  0
   -2.5262   32.0093    2.4457 N   0  0  0  0  0  0  0  0  0  0  0  0
   -4.3189   39.4005   -6.2993 C   0  0  0  0  0  0  0  0  0  0  0  0
   -5.3197   40.3922   -6.4587 O   0  0  0  0  0  0  0  0  0  0  0  0
    0.8895   36.3825   -2.1814 C   0  0  0  0  0  0  0  0  0  0  0  0
    2.0508   36.5186   -1.6477 N   0  0  0  0  0  0  0  0  0  0  0  0
   -5.5747   40.2345   -3.4171 C   0  0  0  0  0  0  0  0  0  0  0  0
   -1.6042   35.5693   -6.6023 C   0  0  0  0  0  0  0  0  0  0  0  0
   -2.0373   34.4373    0.4781 C   0  0  2  0  0  0  0  0  0  0  0  0
   -1.9298   34.0627    1.9407 N   0  0  0  0  0  0  0  0  0  0  0  0
   -2.8146   38.0671   -3.2182 C   0  0  2  0  0  0  0  0  0  0  0  0
   -0.4170   38.0382   -4.8511 C   0  0  1  0  0  0  0  0  0  0  0  0
   -1.4443   39.0122   -4.8571 O   0  0  0  0  0  0  0  0  0  0  0  0
   -1.0094   35.5015    0.1095 C   0  0  1  0  0  0  0  0  0  0  0  0
    0.3099   34.8943    0.4598 O   0  0  0  0  0  0  0  0  0  0  0  0
   -2.6636   38.4496   -4.6793 C   0  0  2  0  0  0  0  0  0  0  0  0
   -0.1869   37.5690   -6.2673 C   0  0  1  0  0  0  0  0  0  0  0  0
   -1.3724   36.9751   -6.7763 N   0  0  0  0  0  0  0  0  0  0  0  0
   -1.0985   35.9355   -1.3521 C   0  0  2  0  0  0  0  0  0  0  0  0
   -0.1401   36.9430   -1.7573 N   0  0  0  0  0  0  0  0  0  0  0  0
   -3.7766   39.4415   -4.8897 C   0  0  1  0  0  0  0  0  0  0  0  0
   -3.3205   40.7618   -4.5772 O   0  0  0  0  0  0  0  0  0  0  0  0
    0.1830   38.7800   -7.1070 C   0  0  2  0  0  0  0  0  0  0  0  0
    0.4001   38.3977   -8.4476 O   0  0  0  0  0  0  0  0  0  0  0  0
   -2.4862   36.4696   -1.5955 C   0  0  1  0  0  0  0  0  0  0  0  0
   -2.5585   36.6789   -3.0332 O   0  0  0  0  0  0  0  0  0  0  0  0
   -4.8211   39.0301   -3.9190 C   0  0  1  0  0  0  0  0  0  0  0  0
   -4.1551   38.3810   -2.8335 O   0  0  0  0  0  0  0  0  0  0  0  0
    1.4611   39.3654   -6.5061 C   0  0  1  0  0  0  0  0  0  0  0  0
    1.8701   40.5113   -7.2363 O   0  0  0  0  0  0  0  0  0  0  0  0
   -3.5424   35.3786   -1.2722 C   0  0  2  0  0  0  0  0  0  0  0  0
   -4.8398   35.8970   -1.5214 O   0  0  0  0  0  0  0  0  0  0  0  0
    1.1960   39.7414   -5.0479 C   0  0  1  0  0  0  0  0  0  0  0  0
    0.7842   38.5884   -4.3156 O   0  0  0  0  0  0  0  0  0  0  0  0
   -3.4273   34.9781    0.2112 C   0  0  1  0  0  0  0  0  0  0  0  0
   -4.3964   33.9711    0.5259 O   0  0  0  0  0  0  0  0  0  0  0  0
    2.4828   40.2968   -4.4372 C   0  0  0  0  0  0  0  0  0  0  0  0
    2.2453   40.6370   -3.0806 O   0  0  0  0  0  0  0  0  0  0  0  0
   -0.3716   32.4006    1.9426 N   0  0  0  0  0  0  0  0  0  0  0  0
    0.7682   35.6991   -3.2133 N   0  0  0  0  0  0  0  0  0  0  0  0
  1  2  1  0  0  0  0
  1 39  1  0  0  0  0
  3  4  1  0  0  0  0
  5  6  1  0  0  0  0
  5 40  1  0  0  0  0
  9 10  1  1  0  0  0
  9 14  1  0  0  0  0
  9 35  1  0  0  0  0
 10  1  1  0  0  0  0
 11 16  1  0  0  0  0
 11 28  1  0  0  0  0
 11 26  1  6  0  0  0
 12 17  1  0  0  0  0
 12 34  1  0  0  0  0
 12 13  1  6  0  0  0
 14 15  1  6  0  0  0
 14 19  1  0  0  0  0
 16 13  1  1  0  0  0
 16 21  1  0  0  0  0
 17 18  1  6  0  0  0
 17 23  1  0  0  0  0
 18  8  1  0  0  0  0
 19 20  1  1  0  0  0
 19 25  1  0  0  0  0
 20  5  1  0  0  0  0
 21  3  1  6  0  0  0
 21 22  1  0  0  0  0
 21 27  1  0  0  0  0
 23 24  1  6  0  0  0
 23 29  1  0  0  0  0
 25 26  1  6  0  0  0
 25 31  1  0  0  0  0
 27  7  1  1  0  0  0
 27 28  1  0  0  0  0
 29 30  1  6  0  0  0
 29 33  1  0  0  0  0
 31 32  1  1  0  0  0
 31 35  1  0  0  0  0
 33 34  1  0  0  0  0
 33 37  1  1  0  0  0
 35 36  1  6  0  0  0
 37 38  1  0  0  0  0
M  END
>  <CHROM.1>
-116.39898245,-102.75611549,169.81583310,90.89092428,75.34875192,-89.74386930
90.61809099,-118.32561945,-177.39176720,-119.77752884,-179.51861728,-1.48854690
37.25817174,-3.11679462,-1.71365001,0.07403792,-0.89946700

>  <Name>
1ntb_lig

>  <RI>
0

>  <Rbt.Current_Directory>
/home/itssahil/PROJECTS/Mol_Feturizer/New_Systems/rnas/1ntb

>  <Rbt.Executable>
rbdock ($Id: //depot/dev/client3/rdock/2013.1/src/exe/rbdock.cxx#4 $)

>  <Rbt.Library>
libRbt.so (2013.1, Build901 2013/11/27)

>  <Rbt.Parameter_File>
/export/apps/rDock/src/rDock_2013.1_src/data/scripts/dock_solv.prm

>  <Rbt.Receptor>
prm/pocket_docking_8.prm

>  <SCORE>
-3.94004

>  <SCORE.INTER>
6.09008

>  <SCORE.INTER.CONST>
1

>  <SCORE.INTER.POLAR>
-0.642134

>  <SCORE.INTER.ROT>
11

>  <SCORE.INTER.SOLV>
6.69617

>  <SCORE.INTER.VDW>
-6.96489

>  <SCORE.INTER.norm>
0.152252

>  <SCORE.INTRA>
-10.0301

>  <SCORE.INTRA.DIHEDRAL>
0.566863

>  <SCORE.INTRA.DIHEDRAL.0>
15.4453

>  <SCORE.INTRA.POLAR>
0

>  <SCORE.INTRA.POLAR.0>
0

>  <SCORE.INTRA.REPUL>
-0.823958

>  <SCORE.INTRA.REPUL.0>
0.823958

>  <SCORE.INTRA.SOLV>
1.45049

>  <SCORE.INTRA.SOLV.lig_0>
-99.3069

>  <SCORE.INTRA.VDW>
-6.91901

>  <SCORE.INTRA.VDW.0>
0.946495

>  <SCORE.INTRA.norm>
-0.250753

>  <SCORE.RESTR>
0

>  <SCORE.RESTR.CAVITY>
0

>  <SCORE.RESTR.norm>
0

>  <SCORE.SYSTEM>
0

>  <SCORE.SYSTEM.CONST>
0

>  <SCORE.SYSTEM.DIHEDRAL>
0

>  <SCORE.SYSTEM.SOLV>
0

>  <SCORE.SYSTEM.norm>
0

>  <SCORE.heavy>
40

>  <SCORE.norm>
-0.0985009

>  <RMSD>
7.962

$$$$
1ntb_lig
 OpenBabel11021811403D
libRbt.so/2013.1/901 2013/11/27
 40 42  0  0  0  0  0  0  0  0999 V2000
   -1.1319   37.0341   -8.6214 C   0  0  0  0  0  0  0  0  0  0  0  0
   -1.0043   37.7296   -9.6845 N   0  0  0  0  0  0  0  0  0  0  0  0
    4.1139   41.1278    0.1395 C   0  0  0  0  0  0  0  0  0  0  0  0
    4.5570   39.7904    0.2988 O   0  0  0  0  0  0  0  0  0  0  0  0
    1.0083   35.9589   -2.6868 C   0  0  0  0  0  0  0  0  0  0  0  0
    0.4169   34.8488   -2.9513 N   0  0  0  0  0  0  0  0  0  0  0  0
    5.5610   42.2609   -2.5442 C   0  0  0  0  0  0  0  0  0  0  0  0
    1.3795   37.6845    1.0881 C   0  0  0  0  0  0  0  0  0  0  0  0
   -0.1171   37.7961   -6.6326 C   0  0  2  0  0  0  0  0  0  0  0  0
   -1.3451   37.7185   -7.5140 N   0  0  0  0  0  0  0  0  0  0  0  0
    2.7717   40.2128   -3.1614 C   0  0  2  0  0  0  0  0  0  0  0  0
    0.2975   40.0244   -1.4378 C   0  0  1  0  0  0  0  0  0  0  0  0
    1.3248   40.9962   -1.5031 O   0  0  0  0  0  0  0  0  0  0  0  0
   -0.4433   37.3793   -5.2027 C   0  0  1  0  0  0  0  0  0  0  0  0
   -0.9862   35.9929   -5.3244 O   0  0  0  0  0  0  0  0  0  0  0  0
    2.5402   40.4237   -1.6762 C   0  0  2  0  0  0  0  0  0  0  0  0
    0.1753   39.5445   -0.0119 C   0  0  1  0  0  0  0  0  0  0  0  0
    1.3948   38.9441    0.4002 N   0  0  0  0  0  0  0  0  0  0  0  0
    0.7596   37.4702   -4.2660 C   0  0  2  0  0  0  0  0  0  0  0  0
    0.5058   37.0807   -2.8943 N   0  0  0  0  0  0  0  0  0  0  0  0
    3.6596   41.3511   -1.2841 C   0  0  1  0  0  0  0  0  0  0  0  0
    3.2522   42.7118   -1.4618 O   0  0  0  0  0  0  0  0  0  0  0  0
   -0.1259   40.7497    0.8630 C   0  0  2  0  0  0  0  0  0  0  0  0
   -0.2407   40.3573    2.2134 O   0  0  0  0  0  0  0  0  0  0  0  0
    1.2511   38.8944   -4.2761 C   0  0  1  0  0  0  0  0  0  0  0  0
    2.4972   38.8643   -3.5261 O   0  0  0  0  0  0  0  0  0  0  0  0
    4.7522   41.0277   -2.2350 C   0  0  1  0  0  0  0  0  0  0  0  0
    4.1396   40.5313   -3.4273 O   0  0  0  0  0  0  0  0  0  0  0  0
   -1.4447   41.3424    0.3664 C   0  0  1  0  0  0  0  0  0  0  0  0
   -1.7935   42.4834    1.1346 O   0  0  0  0  0  0  0  0  0  0  0  0
    1.6353   39.3163   -5.7199 C   0  0  2  0  0  0  0  0  0  0  0  0
    2.1083   40.6543   -5.7047 O   0  0  0  0  0  0  0  0  0  0  0  0
   -1.2911   41.7293   -1.1049 C   0  0  1  0  0  0  0  0  0  0  0  0
   -0.9397   40.5813   -1.8754 O   0  0  0  0  0  0  0  0  0  0  0  0
    0.3942   39.2224   -6.6282 C   0  0  1  0  0  0  0  0  0  0  0  0
    0.7324   39.6091   -7.9655 O   0  0  0  0  0  0  0  0  0  0  0  0
   -2.6195   42.2923   -1.6109 C   0  0  0  0  0  0  0  0  0  0  0  0
   -2.8676   43.5384   -0.9802 O   0  0  0  0  0  0  0  0  0  0  0  0
   -1.0345   35.7510   -8.6200 N   0  0  0  0  0  0  0  0  0  0  0  0
    2.1267   35.9404   -2.1430 N   0  0  0  0  0  0  0  0  0  0  0  0
  1  2  1  0  0  0  0
  1 39  1  0  0  0  0
  3  4  1  0  0  0  0
  5  6  1  0  0  0  0
  5 40  1  0  0  0  0
  9 10  1  6  0  0  0
  9 14  1  0  0  0  0
  9 35  1  0  0  0  0
 10  1  1  0  0  0  0
 11 16  1  0  0  0  0
 11 28  1  0  0  0  0
 11 26  1  1  0  0  0
 12 17  1  0  0  0  0
 12 34  1  0  0  0  0
 12 13  1  1  0  0  0
 14 15  1  6  0  0  0
 14 19  1  0  0  0  0
 16 13  1  6  0  0  0
 16 21  1  0  0  0  0
 17 18  1  1  0  0  0
 17 23  1  0  0  0  0
 18  8  1  0  0  0  0
 19 20  1  1  0  0  0
 19 25  1  0  0  0  0
 20  5  1  0  0  0  0
 21  3  1  1  0  0  0
 21 22  1  0  0  0  0
 21 27  1  0  0  0  0
 23 24  1  1  0  0  0
 23 29  1  0  0  0  0
 25 26  1  1  0  0  0
 25 31  1  0  0  0  0
 27  7  1  6  0  0  0
 27 28  1  0  0  0  0
 29 30  1  1  0  0  0
 29 33  1  0  0  0  0
 31 32  1  1  0  0  0
 31 35  1  0  0  0  0
 33 34  1  0  0  0  0
 33 37  1  6  0  0  0
 35 36  1  6  0  0  0
 37 38  1  0  0  0  0
M  END
>  <CHROM.1>
-128.99394712,-104.58185683,107.67637296,86.18722873,86.27843808,-133.72389036
105.32614907,-85.21684968,59.07242288,-162.45378525,68.35414905,0.90815870
39.46981147,-2.91728767,1.74927459,-0.06339102,-2.04420603

>  <Name>
1ntb_lig

>  <RI>
0

>  <Rbt.Current_Directory>
/home/itssahil/PROJECTS/Mol_Feturizer/New_Systems/rnas/1ntb

>  <Rbt.Executable>
rbdock ($Id: //depot/dev/client3/rdock/2013.1/src/exe/rbdock.cxx#4 $)

>  <Rbt.Library>
libRbt.so (2013.1, Build901 2013/11/27)

>  <Rbt.Parameter_File>
/export/apps/rDock/src/rDock_2013.1_src/data/scripts/dock_solv.prm

>  <Rbt.Receptor>
prm/pocket_docking_7.prm

>  <SCORE>
-12.5046

>  <SCORE.INTER>
-3.46164

>  <SCORE.INTER.CONST>
1

>  <SCORE.INTER.POLAR>
-0.83571

>  <SCORE.INTER.ROT>
11

>  <SCORE.INTER.SOLV>
6.25947

>  <SCORE.INTER.VDW>
-12.5419

>  <SCORE.INTER.norm>
-0.0865409

>  <SCORE.INTRA>
-9.04301

>  <SCORE.INTRA.DIHEDRAL>
2.87673

>  <SCORE.INTRA.DIHEDRAL.0>
15.4453

>  <SCORE.INTRA.POLAR>
0

>  <SCORE.INTRA.POLAR.0>
0

>  <SCORE.INTRA.REPUL>
-0.823958

>  <SCORE.INTRA.REPUL.0>
0.823958

>  <SCORE.INTRA.SOLV>
0.294094

>  <SCORE.INTRA.SOLV.lig_0>
-99.3069

>  <SCORE.INTRA.VDW>
-6.50864

>  <SCORE.INTRA.VDW.0>
0.946495

>  <SCORE.INTRA.norm>
-0.226075

>  <SCORE.RESTR>
0

>  <SCORE.RESTR.CAVITY>
0

>  <SCORE.RESTR.norm>
0

>  <SCORE.SYSTEM>
0

>  <SCORE.SYSTEM.CONST>
0

>  <SCORE.SYSTEM.DIHEDRAL>
0

>  <SCORE.SYSTEM.SOLV>
0

>  <SCORE.SYSTEM.norm>
0

>  <SCORE.heavy>
40

>  <SCORE.norm>
-0.312616

>  <RMSD>
7.984

$$$$
1ntb_lig
 OpenBabel11021811403D
libRbt.so/2013.1/901 2013/11/27
 40 42  0  0  0  0  0  0  0  0999 V2000
    0.1332   33.1167   -9.2959 C   0  0  0  0  0  0  0  0  0  0  0  0
   -0.3295   34.2643   -9.6110 N   0  0  0  0  0  0  0  0  0  0  0  0
   -5.0116   29.1605   -3.6399 C   0  0  0  0  0  0  0  0  0  0  0  0
   -6.3164   29.6356   -3.3530 O   0  0  0  0  0  0  0  0  0  0  0  0
    0.9894   32.3328   -3.0740 C   0  0  0  0  0  0  0  0  0  0  0  0
    1.9981   33.0538   -3.4125 N   0  0  0  0  0  0  0  0  0  0  0  0
   -2.3021   28.0554   -2.2197 C   0  0  0  0  0  0  0  0  0  0  0  0
   -8.4507   32.1626   -2.4619 C   0  0  0  0  0  0  0  0  0  0  0  0
   -0.9607   32.7382   -7.2402 C   0  0  2  0  0  0  0  0  0  0  0  0
   -0.7073   32.3147   -8.6710 N   0  0  0  0  0  0  0  0  0  0  0  0
   -2.5230   31.5597   -2.3809 C   0  0  2  0  0  0  0  0  0  0  0  0
   -5.4077   32.9912   -2.3805 C   0  0  1  0  0  0  0  0  0  0  0  0
   -4.7778   31.8442   -1.8405 O   0  0  0  0  0  0  0  0  0  0  0  0
   -0.1199   31.9160   -6.2697 C   0  0  1  0  0  0  0  0  0  0  0  0
    1.2919   32.1422   -6.7027 O   0  0  0  0  0  0  0  0  0  0  0  0
   -3.9636   31.2516   -2.7464 C   0  0  2  0  0  0  0  0  0  0  0  0
   -6.5452   33.3912   -1.4723 C   0  0  1  0  0  0  0  0  0  0  0  0
   -7.4982   32.3403   -1.4029 N   0  0  0  0  0  0  0  0  0  0  0  0
   -0.3635   32.2865   -4.8081 C   0  0  2  0  0  0  0  0  0  0  0  0
    0.4144   31.5376   -3.8428 N   0  0  0  0  0  0  0  0  0  0  0  0
   -4.0245   29.7497   -2.6595 C   0  0  1  0  0  0  0  0  0  0  0  0
   -4.3588   29.3503   -1.3261 O   0  0  0  0  0  0  0  0  0  0  0  0
   -5.9700   33.6557   -0.0910 C   0  0  2  0  0  0  0  0  0  0  0  0
   -6.9966   34.0252    0.8036 O   0  0  0  0  0  0  0  0  0  0  0  0
   -1.8256   32.0755   -4.5118 C   0  0  1  0  0  0  0  0  0  0  0  0
   -2.0192   32.6256   -3.1790 O   0  0  0  0  0  0  0  0  0  0  0  0
   -2.6448   29.3086   -2.9828 C   0  0  1  0  0  0  0  0  0  0  0  0
   -1.7642   30.3692   -2.6048 O   0  0  0  0  0  0  0  0  0  0  0  0
   -4.9582   34.7921   -0.2398 C   0  0  1  0  0  0  0  0  0  0  0  0
   -4.3689   35.0958    1.0148 O   0  0  0  0  0  0  0  0  0  0  0  0
   -2.6935   32.9462   -5.4599 C   0  0  2  0  0  0  0  0  0  0  0  0
   -4.0646   32.7436   -5.1548 O   0  0  0  0  0  0  0  0  0  0  0  0
   -3.8787   34.3671   -1.2357 C   0  0  1  0  0  0  0  0  0  0  0  0
   -4.4731   34.0615   -2.4961 O   0  0  0  0  0  0  0  0  0  0  0  0
   -2.4276   32.5336   -6.9205 C   0  0  1  0  0  0  0  0  0  0  0  0
   -3.2219   33.3286   -7.8090 O   0  0  0  0  0  0  0  0  0  0  0  0
   -2.8844   35.5155   -1.4094 C   0  0  0  0  0  0  0  0  0  0  0  0
   -1.8741   35.1222   -2.3243 O   0  0  0  0  0  0  0  0  0  0  0  0
    1.3465   32.7691   -9.5461 N   0  0  0  0  0  0  0  0  0  0  0  0
    0.5760   32.3732   -1.9017 N   0  0  0  0  0  0  0  0  0  0  0  0
  1  2  1  0  0  0  0
  1 39  1  0  0  0  0
  3  4  1  0  0  0  0
  5  6  1  0  0  0  0
  5 40  1  0  0  0  0
  9 10  1  6  0  0  0
  9 14  1  0  0  0  0
  9 35  1  0  0  0  0
 10  1  1  0  0  0  0
 11 16  1  0  0  0  0
 11 28  1  0  0  0  0
 11 26  1  6  0  0  0
 12 17  1  0  0  0  0
 12 34  1  0  0  0  0
 12 13  1  1  0  0  0
 14 15  1  6  0  0  0
 14 19  1  0  0  0  0
 16 13  1  1  0  0  0
 16 21  1  0  0  0  0
 17 18  1  1  0  0  0
 17 23  1  0  0  0  0
 18  8  1  0  0  0  0
 19 20  1  1  0  0  0
 19 25  1  0  0  0  0
 20  5  1  0  0  0  0
 21  3  1  6  0  0  0
 21 22  1  0  0  0  0
 21 27  1  0  0  0  0
 23 24  1  1  0  0  0
 23 29  1  0  0  0  0
 25 26  1  1  0  0  0
 25 31  1  0  0  0  0
 27  7  1  1  0  0  0
 27 28  1  0  0  0  0
 29 30  1  1  0  0  0
 29 33  1  0  0  0  0
 31 32  1  1  0  0  0
 31 35  1  0  0  0  0
 33 34  1  0  0  0  0
 33 37  1  6  0  0  0
 35 36  1  6  0  0  0
 37 38  1  0  0  0  0
M  END
>  <CHROM.1>
-99.36884280,-72.87152374,-72.58296943,165.63786048,105.26953739,-79.64111341
128.43962852,-73.13850685,-61.65469177,-121.65612366,179.52063645,-2.86475787
32.37443458,-3.63419062,0.63416394,-0.57368091,-2.22448503

>  <Name>
1ntb_lig

>  <RI>
0

>  <Rbt.Current_Directory>
/home/itssahil/PROJECTS/Mol_Feturizer/New_Systems/rnas/1ntb

>  <Rbt.Executable>
rbdock ($Id: //depot/dev/client3/rdock/2013.1/src/exe/rbdock.cxx#4 $)

>  <Rbt.Library>
libRbt.so (2013.1, Build901 2013/11/27)

>  <Rbt.Parameter_File>
/export/apps/rDock/src/rDock_2013.1_src/data/scripts/dock_solv.prm

>  <Rbt.Receptor>
prm/pocket_docking_8.prm

>  <SCORE>
-1.15836

>  <SCORE.INTER>
7.78884

>  <SCORE.INTER.CONST>
1

>  <SCORE.INTER.POLAR>
0

>  <SCORE.INTER.ROT>
11

>  <SCORE.INTER.SOLV>
10.599

>  <SCORE.INTER.VDW>
-9.27379

>  <SCORE.INTER.norm>
0.194721

>  <SCORE.INTRA>
-8.94721

>  <SCORE.INTRA.DIHEDRAL>
3.33952

>  <SCORE.INTRA.DIHEDRAL.0>
15.4453

>  <SCORE.INTRA.POLAR>
0

>  <SCORE.INTRA.POLAR.0>
0

>  <SCORE.INTRA.REPUL>
-0.823958

>  <SCORE.INTRA.REPUL.0>
0.823958

>  <SCORE.INTRA.SOLV>
1.39775

>  <SCORE.INTRA.SOLV.lig_0>
-99.3069

>  <SCORE.INTRA.VDW>
-7.19605

>  <SCORE.INTRA.VDW.0>
0.946495

>  <SCORE.INTRA.norm>
-0.22368

>  <SCORE.RESTR>
0

>  <SCORE.RESTR.CAVITY>
0

>  <SCORE.RESTR.norm>
0

>  <SCORE.SYSTEM>
0

>  <SCORE.SYSTEM.CONST>
0

>  <SCORE.SYSTEM.DIHEDRAL>
0

>  <SCORE.SYSTEM.SOLV>
0

>  <SCORE.SYSTEM.norm>
0

>  <SCORE.heavy>
40

>  <SCORE.norm>
-0.0289591

>  <RMSD>
7.998

$$$$
1ntb_lig
 OpenBabel11021811403D
libRbt.so/2013.1/901 2013/11/27
 40 42  0  0  0  0  0  0  0  0999 V2000
   -1.4864   37.4719   -8.6859 C   0  0  0  0  0  0  0  0  0  0  0  0
   -2.5941   36.8529   -8.5436 N   0  0  0  0  0  0  0  0  0  0  0  0
    5.1571   40.0621   -0.2100 C   0  0  0  0  0  0  0  0  0  0  0  0
    4.4498   39.6930    0.9621 O   0  0  0  0  0  0  0  0  0  0  0  0
    0.8053   35.9829   -3.1532 C   0  0  0  0  0  0  0  0  0  0  0  0
    2.0554   35.8896   -2.8692 N   0  0  0  0  0  0  0  0  0  0  0  0
    5.4351   42.1288   -2.7063 C   0  0  0  0  0  0  0  0  0  0  0  0
    2.8255   35.9360    0.3436 C   0  0  0  0  0  0  0  0  0  0  0  0
   -0.1269   38.3315   -6.9601 C   0  0  2  0  0  0  0  0  0  0  0  0
   -1.3066   38.5096   -7.8915 N   0  0  0  0  0  0  0  0  0  0  0  0
    2.7316   39.8980   -2.9712 C   0  0  2  0  0  0  0  0  0  0  0  0
    0.9825   38.9196   -0.8722 C   0  0  1  0  0  0  0  0  0  0  0  0
    1.9680   39.9301   -0.7637 O   0  0  0  0  0  0  0  0  0  0  0  0
   -0.5727   37.7697   -5.6145 C   0  0  1  0  0  0  0  0  0  0  0  0
   -1.2527   36.4814   -5.9461 O   0  0  0  0  0  0  0  0  0  0  0  0
    3.0599   39.6417   -1.5116 C   0  0  2  0  0  0  0  0  0  0  0  0
    1.2706   37.8507    0.1539 C   0  0  1  0  0  0  0  0  0  0  0  0
    2.5432   37.2723   -0.0976 N   0  0  0  0  0  0  0  0  0  0  0  0
    0.5804   37.6002   -4.6275 C   0  0  2  0  0  0  0  0  0  0  0  0
    0.2125   37.0647   -3.3331 N   0  0  0  0  0  0  0  0  0  0  0  0
    4.1932   40.5962   -1.2435 C   0  0  1  0  0  0  0  0  0  0  0  0
    3.6762   41.8636   -0.8244 O   0  0  0  0  0  0  0  0  0  0  0  0
    1.2652   38.5050    1.5252 C   0  0  2  0  0  0  0  0  0  0  0  0
    1.5403   37.5481    2.5248 O   0  0  0  0  0  0  0  0  0  0  0  0
    1.2205   38.9488   -4.4233 C   0  0  1  0  0  0  0  0  0  0  0  0
    2.4139   38.6798   -3.6360 O   0  0  0  0  0  0  0  0  0  0  0  0
    4.8677   40.7408   -2.5575 C   0  0  1  0  0  0  0  0  0  0  0  0
    3.8822   40.5033   -3.5653 O   0  0  0  0  0  0  0  0  0  0  0  0
   -0.1274   39.1026    1.7283 C   0  0  1  0  0  0  0  0  0  0  0  0
   -0.2109   39.7414    2.9926 O   0  0  0  0  0  0  0  0  0  0  0  0
    1.7253   39.5109   -5.7796 C   0  0  2  0  0  0  0  0  0  0  0  0
    2.3366   40.7732   -5.5628 O   0  0  0  0  0  0  0  0  0  0  0  0
   -0.4007   40.1122    0.6130 C   0  0  1  0  0  0  0  0  0  0  0  0
   -0.3155   39.4684   -0.6573 O   0  0  0  0  0  0  0  0  0  0  0  0
    0.5323   39.6780   -6.7404 C   0  0  1  0  0  0  0  0  0  0  0  0
    0.9818   40.1966   -7.9979 O   0  0  0  0  0  0  0  0  0  0  0  0
   -1.8057   40.6862    0.7972 C   0  0  0  0  0  0  0  0  0  0  0  0
   -2.0929   41.5680   -0.2764 O   0  0  0  0  0  0  0  0  0  0  0  0
   -0.6102   37.1263   -9.5625 N   0  0  0  0  0  0  0  0  0  0  0  0
    0.1370   34.9467   -3.3153 N   0  0  0  0  0  0  0  0  0  0  0  0
  1  2  1  0  0  0  0
  1 39  1  0  0  0  0
  3  4  1  0  0  0  0
  5  6  1  0  0  0  0
  5 40  1  0  0  0  0
  9 10  1  6  0  0  0
  9 14  1  0  0  0  0
  9 35  1  0  0  0  0
 10  1  1  0  0  0  0
 11 16  1  0  0  0  0
 11 28  1  0  0  0  0
 11 26  1  6  0  0  0
 12 17  1  0  0  0  0
 12 34  1  0  0  0  0
 12 13  1  1  0  0  0
 14 15  1  6  0  0  0
 14 19  1  0  0  0  0
 16 13  1  1  0  0  0
 16 21  1  0  0  0  0
 17 18  1  6  0  0  0
 17 23  1  0  0  0  0
 18  8  1  0  0  0  0
 19 20  1  1  0  0  0
 19 25  1  0  0  0  0
 20  5  1  0  0  0  0
 21  3  1  1  0  0  0
 21 22  1  0  0  0  0
 21 27  1  0  0  0  0
 23 24  1  1  0  0  0
 23 29  1  0  0  0  0
 25 26  1  1  0  0  0
 25 31  1  0  0  0  0
 27  7  1  6  0  0  0
 27 28  1  0  0  0  0
 29 30  1  1  0  0  0
 29 33  1  0  0  0  0
 31 32  1  1  0  0  0
 31 35  1  0  0  0  0
 33 34  1  0  0  0  0
 33 37  1  1  0  0  0
 35 36  1  6  0  0  0
 37 38  1  0  0  0  0
M  END
>  <CHROM.1>
-94.25456434,117.49455107,134.60002214,86.95179023,75.44579133,-154.67583171
118.55489787,74.75380205,-53.21791399,-156.69151724,-176.79474206,1.26351272
38.87294493,-2.73427070,1.91615231,-0.58424506,-1.56331864

>  <Name>
1ntb_lig

>  <RI>
0

>  <Rbt.Current_Directory>
/home/itssahil/PROJECTS/Mol_Feturizer/New_Systems/rnas/1ntb

>  <Rbt.Executable>
rbdock ($Id: //depot/dev/client3/rdock/2013.1/src/exe/rbdock.cxx#4 $)

>  <Rbt.Library>
libRbt.so (2013.1, Build901 2013/11/27)

>  <Rbt.Parameter_File>
/export/apps/rDock/src/rDock_2013.1_src/data/scripts/dock_solv.prm

>  <Rbt.Receptor>
prm/pocket_docking_6.prm

>  <SCORE>
-15.637

>  <SCORE.INTER>
-7.19859

>  <SCORE.INTER.CONST>
1

>  <SCORE.INTER.POLAR>
-1.23095

>  <SCORE.INTER.ROT>
11

>  <SCORE.INTER.SOLV>
9.71188

>  <SCORE.INTER.VDW>
-14.8665

>  <SCORE.INTER.norm>
-0.179965

>  <SCORE.INTRA>
-8.4384

>  <SCORE.INTRA.DIHEDRAL>
1.22617

>  <SCORE.INTRA.DIHEDRAL.0>
15.4453

>  <SCORE.INTRA.POLAR>
0

>  <SCORE.INTRA.POLAR.0>
0

>  <SCORE.INTRA.REPUL>
-0.823958

>  <SCORE.INTRA.REPUL.0>
0.823958

>  <SCORE.INTRA.SOLV>
2.92795

>  <SCORE.INTRA.SOLV.lig_0>
-99.3069

>  <SCORE.INTRA.VDW>
-6.39567

>  <SCORE.INTRA.VDW.0>
0.946495

>  <SCORE.INTRA.norm>
-0.21096

>  <SCORE.RESTR>
0

>  <SCORE.RESTR.CAVITY>
0

>  <SCORE.RESTR.norm>
0

>  <SCORE.SYSTEM>
0

>  <SCORE.SYSTEM.CONST>
0

>  <SCORE.SYSTEM.DIHEDRAL>
0

>  <SCORE.SYSTEM.SOLV>
0

>  <SCORE.SYSTEM.norm>
0

>  <SCORE.heavy>
40

>  <SCORE.norm>
-0.390925

>  <RMSD>
8.024

$$$$
1ntb_lig
 OpenBabel11021811403D
libRbt.so/2013.1/901 2013/11/27
 40 42  0  0  0  0  0  0  0  0999 V2000
   -2.7002   35.4226   -6.4673 C   0  0  0  0  0  0  0  0  0  0  0  0
   -2.1916   34.3664   -6.9731 N   0  0  0  0  0  0  0  0  0  0  0  0
    4.2652   38.9784    1.3174 C   0  0  0  0  0  0  0  0  0  0  0  0
    4.3940   37.5683    1.2443 O   0  0  0  0  0  0  0  0  0  0  0  0
   -2.3023   39.2198   -1.5763 C   0  0  0  0  0  0  0  0  0  0  0  0
   -3.3351   39.8404   -2.0238 N   0  0  0  0  0  0  0  0  0  0  0  0
    4.7411   40.1788   -1.6680 C   0  0  0  0  0  0  0  0  0  0  0  0
    1.9291   42.3882    3.1811 C   0  0  0  0  0  0  0  0  0  0  0  0
   -1.3307   36.4589   -4.8498 C   0  0  2  0  0  0  0  0  0  0  0  0
   -1.8610   36.4205   -6.2670 N   0  0  0  0  0  0  0  0  0  0  0  0
    1.5617   38.7655   -1.1686 C   0  0  2  0  0  0  0  0  0  0  0  0
    1.2921   39.4548    2.3730 C   0  0  1  0  0  0  0  0  0  0  0  0
    1.0984   39.5691    0.9754 O   0  0  0  0  0  0  0  0  0  0  0  0
   -1.5529   37.8296   -4.2200 C   0  0  1  0  0  0  0  0  0  0  0  0
   -3.0288   38.0488   -4.2958 O   0  0  0  0  0  0  0  0  0  0  0  0
    1.9890   38.8157    0.2870 C   0  0  2  0  0  0  0  0  0  0  0  0
    0.3956   40.4502    3.0688 C   0  0  1  0  0  0  0  0  0  0  0  0
    0.7395   41.7692    2.6693 N   0  0  0  0  0  0  0  0  0  0  0  0
   -1.0063   37.9278   -2.7973 C   0  0  2  0  0  0  0  0  0  0  0  0
   -1.1954   39.2093   -2.1495 N   0  0  0  0  0  0  0  0  0  0  0  0
    3.3452   39.4666    0.2228 C   0  0  1  0  0  0  0  0  0  0  0  0
    3.2085   40.8897    0.2945 O   0  0  0  0  0  0  0  0  0  0  0  0
   -1.0384   40.1488    2.6671 C   0  0  2  0  0  0  0  0  0  0  0  0
   -1.9210   41.0602    3.2843 O   0  0  0  0  0  0  0  0  0  0  0  0
    0.4695   37.6280   -2.8438 C   0  0  1  0  0  0  0  0  0  0  0  0
    0.8781   37.5488   -1.4499 O   0  0  0  0  0  0  0  0  0  0  0  0
    3.8728   39.0812   -1.1097 C   0  0  1  0  0  0  0  0  0  0  0  0
    2.7462   38.8655   -1.9626 O   0  0  0  0  0  0  0  0  0  0  0  0
   -1.3391   38.7218    3.1262 C   0  0  1  0  0  0  0  0  0  0  0  0
   -2.6671   38.3613    2.7796 O   0  0  0  0  0  0  0  0  0  0  0  0
    0.7084   36.2132   -3.4367 C   0  0  2  0  0  0  0  0  0  0  0  0
    2.1020   35.9457   -3.4582 O   0  0  0  0  0  0  0  0  0  0  0  0
   -0.3473   37.7677    2.4600 C   0  0  1  0  0  0  0  0  0  0  0  0
    0.9872   38.1322    2.8089 O   0  0  0  0  0  0  0  0  0  0  0  0
    0.1546   36.1600   -4.8736 C   0  0  1  0  0  0  0  0  0  0  0  0
    0.3676   34.8596   -5.4355 O   0  0  0  0  0  0  0  0  0  0  0  0
   -0.6269   36.3445    2.9437 C   0  0  0  0  0  0  0  0  0  0  0  0
   -0.4925   36.2976    4.3552 O   0  0  0  0  0  0  0  0  0  0  0  0
   -3.9440   35.5054   -6.1482 N   0  0  0  0  0  0  0  0  0  0  0  0
   -2.3700   38.6312   -0.4828 N   0  0  0  0  0  0  0  0  0  0  0  0
  1  2  1  0  0  0  0
  1 39  1  0  0  0  0
  3  4  1  0  0  0  0
  5  6  1  0  0  0  0
  5 40  1  0  0  0  0
  9 10  1  6  0  0  0
  9 14  1  0  0  0  0
  9 35  1  0  0  0  0
 10  1  1  0  0  0  0
 11 16  1  0  0  0  0
 11 28  1  0  0  0  0
 11 26  1  1  0  0  0
 12 17  1  0  0  0  0
 12 34  1  0  0  0  0
 12 13  1  6  0  0  0
 14 15  1  1  0  0  0
 14 19  1  0  0  0  0
 16 13  1  1  0  0  0
 16 21  1  0  0  0  0
 17 18  1  6  0  0  0
 17 23  1  0  0  0  0
 18  8  1  0  0  0  0
 19 20  1  6  0  0  0
 19 25  1  0  0  0  0
 20  5  1  0  0  0  0
 21  3  1  1  0  0  0
 21 22  1  0  0  0  0
 21 27  1  0  0  0  0
 23 24  1  1  0  0  0
 23 29  1  0  0  0  0
 25 26  1  1  0  0  0
 25 31  1  0  0  0  0
 27  7  1  6  0  0  0
 27 28  1  0  0  0  0
 29 30  1  6  0  0  0
 29 33  1  0  0  0  0
 31 32  1  6  0  0  0
 31 35  1  0  0  0  0
 33 34  1  0  0  0  0
 33 37  1  1  0  0  0
 35 36  1  1  0  0  0
 37 38  1  0  0  0  0
M  END
>  <CHROM.1>
-126.46395390,-95.93712685,177.76612951,172.64482214,169.01894801,-74.82079927
88.03595607,-104.25331196,57.02079847,-103.89609598,-59.17689768,0.17709800
38.26119655,-0.84439024,1.87323252,-0.12324813,-1.95416460

>  <Name>
1ntb_lig

>  <RI>
0

>  <Rbt.Current_Directory>
/home/itssahil/PROJECTS/Mol_Feturizer/New_Systems/rnas/1ntb

>  <Rbt.Executable>
rbdock ($Id: //depot/dev/client3/rdock/2013.1/src/exe/rbdock.cxx#4 $)

>  <Rbt.Library>
libRbt.so (2013.1, Build901 2013/11/27)

>  <Rbt.Parameter_File>
/export/apps/rDock/src/rDock_2013.1_src/data/scripts/dock_solv.prm

>  <Rbt.Receptor>
prm/pocket_docking_7.prm

>  <SCORE>
-12.5018

>  <SCORE.INTER>
0.272109

>  <SCORE.INTER.CONST>
1

>  <SCORE.INTER.POLAR>
-1.22285

>  <SCORE.INTER.ROT>
11

>  <SCORE.INTER.SOLV>
7.03556

>  <SCORE.INTER.VDW>
-9.02093

>  <SCORE.INTER.norm>
0.00680274

>  <SCORE.INTRA>
-12.775

>  <SCORE.INTRA.DIHEDRAL>
-5.58067

>  <SCORE.INTRA.DIHEDRAL.0>
15.4453

>  <SCORE.INTRA.POLAR>
0

>  <SCORE.INTRA.POLAR.0>
0

>  <SCORE.INTRA.REPUL>
-0.823958

>  <SCORE.INTRA.REPUL.0>
0.823958

>  <SCORE.INTRA.SOLV>
0.64851

>  <SCORE.INTRA.SOLV.lig_0>
-99.3069

>  <SCORE.INTRA.VDW>
-6.18912

>  <SCORE.INTRA.VDW.0>
0.946495

>  <SCORE.INTRA.norm>
-0.319375

>  <SCORE.RESTR>
0.00105863

>  <SCORE.RESTR.CAVITY>
0.00105863

>  <SCORE.RESTR.norm>
2.64656e-05

>  <SCORE.SYSTEM>
0

>  <SCORE.SYSTEM.CONST>
0

>  <SCORE.SYSTEM.DIHEDRAL>
0

>  <SCORE.SYSTEM.SOLV>
0

>  <SCORE.SYSTEM.norm>
0

>  <SCORE.heavy>
40

>  <SCORE.norm>
-0.312546

>  <RMSD>
8.042

$$$$
1ntb_lig
 OpenBabel11021811403D
libRbt.so/2013.1/901 2013/11/27
 40 42  0  0  0  0  0  0  0  0999 V2000
   -2.4396   27.3182   -6.6103 C   0  0  0  0  0  0  0  0  0  0  0  0
   -3.1240   26.8642   -5.6326 N   0  0  0  0  0  0  0  0  0  0  0  0
    0.4683   35.6366   -1.0105 C   0  0  0  0  0  0  0  0  0  0  0  0
   -0.8004   35.0469   -0.7803 O   0  0  0  0  0  0  0  0  0  0  0  0
    0.3186   32.7510   -8.2682 C   0  0  0  0  0  0  0  0  0  0  0  0
   -0.6001   33.6266   -8.4713 N   0  0  0  0  0  0  0  0  0  0  0  0
    2.6042   33.2078   -1.3558 C   0  0  0  0  0  0  0  0  0  0  0  0
    1.8071   38.8592   -1.5891 C   0  0  0  0  0  0  0  0  0  0  0  0
   -1.4044   29.3612   -6.0442 C   0  0  2  0  0  0  0  0  0  0  0  0
   -1.2860   27.8725   -6.2905 N   0  0  0  0  0  0  0  0  0  0  0  0
    0.6393   33.8204   -4.2053 C   0  0  2  0  0  0  0  0  0  0  0  0
   -0.0752   37.3164   -3.8346 C   0  0  1  0  0  0  0  0  0  0  0  0
    0.6478   36.1564   -4.2030 O   0  0  0  0  0  0  0  0  0  0  0  0
   -0.2799   30.1213   -6.7390 C   0  0  1  0  0  0  0  0  0  0  0  0
   -0.4093   29.7576   -8.1822 O   0  0  0  0  0  0  0  0  0  0  0  0
    0.2937   35.0893   -3.4476 C   0  0  2  0  0  0  0  0  0  0  0  0
    0.8651   38.4972   -3.8477 C   0  0  1  0  0  0  0  0  0  0  0  0
    1.9071   38.2932   -2.9044 N   0  0  0  0  0  0  0  0  0  0  0  0
   -0.3388   31.6278   -6.4945 C   0  0  2  0  0  0  0  0  0  0  0  0
    0.7054   32.3993   -7.1365 N   0  0  0  0  0  0  0  0  0  0  0  0
    1.1300   34.9811   -2.2002 C   0  0  1  0  0  0  0  0  0  0  0  0
    2.4202   35.5591   -2.4249 O   0  0  0  0  0  0  0  0  0  0  0  0
    1.4515   38.6126   -5.2447 C   0  0  2  0  0  0  0  0  0  0  0  0
    2.3491   39.6992   -5.3100 O   0  0  0  0  0  0  0  0  0  0  0  0
   -0.2616   31.8616   -5.0081 C   0  0  1  0  0  0  0  0  0  0  0  0
   -0.5164   33.2841   -4.8406 O   0  0  0  0  0  0  0  0  0  0  0  0
    1.2680   33.5202   -1.9784 C   0  0  1  0  0  0  0  0  0  0  0  0
    1.1628   32.8884   -3.2563 O   0  0  0  0  0  0  0  0  0  0  0  0
    0.2804   38.8304   -6.2030 C   0  0  1  0  0  0  0  0  0  0  0  0
    0.7489   38.9426   -7.5377 O   0  0  0  0  0  0  0  0  0  0  0  0
   -1.4315   31.1343   -4.2919 C   0  0  2  0  0  0  0  0  0  0  0  0
   -1.3483   31.3790   -2.8965 O   0  0  0  0  0  0  0  0  0  0  0  0
   -0.6832   37.6492   -6.0843 C   0  0  1  0  0  0  0  0  0  0  0  0
   -1.1525   37.5375   -4.7417 O   0  0  0  0  0  0  0  0  0  0  0  0
   -1.3288   29.6192   -4.5531 C   0  0  1  0  0  0  0  0  0  0  0  0
   -2.4022   28.9329   -3.8981 O   0  0  0  0  0  0  0  0  0  0  0  0
   -1.8707   37.8821   -7.0187 C   0  0  0  0  0  0  0  0  0  0  0  0
   -1.4509   37.6949   -8.3608 O   0  0  0  0  0  0  0  0  0  0  0  0
   -2.8544   27.2645   -7.8271 N   0  0  0  0  0  0  0  0  0  0  0  0
    0.8310   32.1672   -9.2394 N   0  0  0  0  0  0  0  0  0  0  0  0
  1  2  1  0  0  0  0
  1 39  1  0  0  0  0
  3  4  1  0  0  0  0
  5  6  1  0  0  0  0
  5 40  1  0  0  0  0
  9 10  1  1  0  0  0
  9 14  1  0  0  0  0
  9 35  1  0  0  0  0
 10  1  1  0  0  0  0
 11 16  1  0  0  0  0
 11 28  1  0  0  0  0
 11 26  1  1  0  0  0
 12 17  1  0  0  0  0
 12 34  1  0  0  0  0
 12 13  1  6  0  0  0
 14 15  1  6  0  0  0
 14 19  1  0  0  0  0
 16 13  1  6  0  0  0
 16 21  1  0  0  0  0
 17 18  1  1  0  0  0
 17 23  1  0  0  0  0
 18  8  1  0  0  0  0
 19 20  1  6  0  0  0
 19 25  1  0  0  0  0
 20  5  1  0  0  0  0
 21  3  1  1  0  0  0
 21 22  1  0  0  0  0
 21 27  1  0  0  0  0
 23 24  1  1  0  0  0
 23 29  1  0  0  0  0
 25 26  1  6  0  0  0
 25 31  1  0  0  0  0
 27  7  1  6  0  0  0
 27 28  1  0  0  0  0
 29 30  1  6  0  0  0
 29 33  1  0  0  0  0
 31 32  1  1  0  0  0
 31 35  1  0  0  0  0
 33 34  1  0  0  0  0
 33 37  1  6  0  0  0
 35 36  1  1  0  0  0
 37 38  1  0  0  0  0
M  END
>  <CHROM.1>
-134.69521618,-91.16926489,-155.32577383,139.12770347,157.42099369,-96.15637255
90.30275591,70.18676924,58.05240401,-120.34276616,72.78627310,-0.09573443
33.87625843,-4.97862070,2.61158042,1.27461972,2.33289189

>  <Name>
1ntb_lig

>  <RI>
0

>  <Rbt.Current_Directory>
/home/itssahil/PROJECTS/Mol_Feturizer/New_Systems/rnas/1ntb

>  <Rbt.Executable>
rbdock ($Id: //depot/dev/client3/rdock/2013.1/src/exe/rbdock.cxx#4 $)

>  <Rbt.Library>
libRbt.so (2013.1, Build901 2013/11/27)

>  <Rbt.Parameter_File>
/export/apps/rDock/src/rDock_2013.1_src/data/scripts/dock_solv.prm

>  <Rbt.Receptor>
prm/pocket_docking_8.prm

>  <SCORE>
-17.3693

>  <SCORE.INTER>
-10.8444

>  <SCORE.INTER.CONST>
1

>  <SCORE.INTER.POLAR>
-1.07961

>  <SCORE.INTER.ROT>
11

>  <SCORE.INTER.SOLV>
11.0572

>  <SCORE.INTER.VDW>
-18.25

>  <SCORE.INTER.norm>
-0.271111

>  <SCORE.INTRA>
-6.52493

>  <SCORE.INTRA.DIHEDRAL>
6.5209

>  <SCORE.INTRA.DIHEDRAL.0>
15.4453

>  <SCORE.INTRA.POLAR>
0

>  <SCORE.INTRA.POLAR.0>
0

>  <SCORE.INTRA.REPUL>
-0.823958

>  <SCORE.INTRA.REPUL.0>
0.823958

>  <SCORE.INTRA.SOLV>
-1.33885

>  <SCORE.INTRA.SOLV.lig_0>
-99.3069

>  <SCORE.INTRA.VDW>
-4.99617

>  <SCORE.INTRA.VDW.0>
0.946495

>  <SCORE.INTRA.norm>
-0.163123

>  <SCORE.RESTR>
0

>  <SCORE.RESTR.CAVITY>
0

>  <SCORE.RESTR.norm>
0

>  <SCORE.SYSTEM>
0

>  <SCORE.SYSTEM.CONST>
0

>  <SCORE.SYSTEM.DIHEDRAL>
0

>  <SCORE.SYSTEM.SOLV>
0

>  <SCORE.SYSTEM.norm>
0

>  <SCORE.heavy>
40

>  <SCORE.norm>
-0.434234

>  <RMSD>
8.056

$$$$
1ntb_lig
 OpenBabel11021811403D
libRbt.so/2013.1/901 2013/11/27
 40 42  0  0  0  0  0  0  0  0999 V2000
    1.4240   33.1568   -0.3645 C   0  0  0  0  0  0  0  0  0  0  0  0
    2.4638   32.8682   -1.0468 N   0  0  0  0  0  0  0  0  0  0  0  0
    1.3346   43.8424    2.5142 C   0  0  0  0  0  0  0  0  0  0  0  0
    2.3515   44.7861    2.2215 O   0  0  0  0  0  0  0  0  0  0  0  0
    4.9529   38.2204    0.7661 C   0  0  0  0  0  0  0  0  0  0  0  0
    5.9638   37.4643    1.0078 N   0  0  0  0  0  0  0  0  0  0  0  0
    1.0990   41.7412    4.9860 C   0  0  0  0  0  0  0  0  0  0  0  0
    5.5818   44.5392    2.4986 C   0  0  0  0  0  0  0  0  0  0  0  0
    1.6483   35.3769    0.4015 C   0  0  2  0  0  0  0  0  0  0  0  0
    1.6325   33.8949    0.7088 N   0  0  0  0  0  0  0  0  0  0  0  0
    2.1404   40.2966    1.9555 C   0  0  2  0  0  0  0  0  0  0  0  0
    3.7898   43.1754    0.5283 C   0  0  1  0  0  0  0  0  0  0  0  0
    3.6161   41.9474    1.2110 O   0  0  0  0  0  0  0  0  0  0  0  0
    2.8109   36.0687    1.1049 C   0  0  1  0  0  0  0  0  0  0  0  0
    4.0301   35.3589    0.6133 O   0  0  0  0  0  0  0  0  0  0  0  0
    2.3214   41.7499    1.5567 C   0  0  2  0  0  0  0  0  0  0  0  0
    5.2666   43.4088    0.3208 C   0  0  1  0  0  0  0  0  0  0  0  0
    5.9222   43.4919    1.5781 N   0  0  0  0  0  0  0  0  0  0  0  0
    2.8518   37.5739    0.8495 C   0  0  2  0  0  0  0  0  0  0  0  0
    3.9409   38.2804    1.4915 N   0  0  0  0  0  0  0  0  0  0  0  0
    1.9541   42.4968    2.8114 C   0  0  1  0  0  0  0  0  0  0  0  0
    3.1105   42.6606    3.6391 O   0  0  0  0  0  0  0  0  0  0  0  0
    5.8190   42.2353   -0.4706 C   0  0  2  0  0  0  0  0  0  0  0  0
    7.2040   42.3986   -0.6849 O   0  0  0  0  0  0  0  0  0  0  0  0
    1.5505   38.1630    1.3289 C   0  0  1  0  0  0  0  0  0  0  0  0
    1.5807   39.5471    0.8822 O   0  0  0  0  0  0  0  0  0  0  0  0
    0.9746   41.6122    3.4899 C   0  0  1  0  0  0  0  0  0  0  0  0
    1.2675   40.2723    3.0872 O   0  0  0  0  0  0  0  0  0  0  0  0
    5.0730   42.2070   -1.8048 C   0  0  1  0  0  0  0  0  0  0  0  0
    5.5313   41.1275   -2.6038 O   0  0  0  0  0  0  0  0  0  0  0  0
    0.3591   37.5030    0.5836 C   0  0  2  0  0  0  0  0  0  0  0  0
   -0.8541   38.0814    1.0391 O   0  0  0  0  0  0  0  0  0  0  0  0
    3.5760   42.0574   -1.5323 C   0  0  1  0  0  0  0  0  0  0  0  0
    3.1173   43.1430   -0.7282 O   0  0  0  0  0  0  0  0  0  0  0  0
    0.3467   35.9903    0.8765 C   0  0  1  0  0  0  0  0  0  0  0  0
   -0.7481   35.3659    0.1955 O   0  0  0  0  0  0  0  0  0  0  0  0
    2.8264   42.0616   -2.8648 C   0  0  0  0  0  0  0  0  0  0  0  0
    3.0871   40.8467   -3.5494 O   0  0  0  0  0  0  0  0  0  0  0  0
    0.2503   32.7369   -0.6837 N   0  0  0  0  0  0  0  0  0  0  0  0
    4.9832   38.9854   -0.2140 N   0  0  0  0  0  0  0  0  0  0  0  0
  1  2  1  0  0  0  0
  1 39  1  0  0  0  0
  3  4  1  0  0  0  0
  5  6  1  0  0  0  0
  5 40  1  0  0  0  0
  9 10  1  1  0  0  0
  9 14  1  0  0  0  0
  9 35  1  0  0  0  0
 10  1  1  0  0  0  0
 11 16  1  0  0  0  0
 11 28  1  0  0  0  0
 11 26  1  6  0  0  0
 12 17  1  0  0  0  0
 12 34  1  0  0  0  0
 12 13  1  6  0  0  0
 14 15  1  6  0  0  0
 14 19  1  0  0  0  0
 16 13  1  1  0  0  0
 16 21  1  0  0  0  0
 17 18  1  1  0  0  0
 17 23  1  0  0  0  0
 18  8  1  0  0  0  0
 19 20  1  1  0  0  0
 19 25  1  0  0  0  0
 20  5  1  0  0  0  0
 21  3  1  6  0  0  0
 21 22  1  0  0  0  0
 21 27  1  0  0  0  0
 23 24  1  6  0  0  0
 23 29  1  0  0  0  0
 25 26  1  6  0  0  0
 25 31  1  0  0  0  0
 27  7  1  1  0  0  0
 27 28  1  0  0  0  0
 29 30  1  6  0  0  0
 29 33  1  0  0  0  0
 31 32  1  1  0  0  0
 31 35  1  0  0  0  0
 33 34  1  0  0  0  0
 33 37  1  6  0  0  0
 35 36  1  6  0  0  0
 37 38  1  0  0  0  0
M  END
>  <CHROM.1>
-135.23506341,85.74021145,175.55996483,173.30527352,165.79245517,-62.41319334
85.37507377,-105.11870579,-80.41629280,-92.16010355,71.15864844,2.90590921
39.71482655,0.68814667,-1.99247448,0.74477287,0.38438771

>  <Name>
1ntb_lig

>  <RI>
0

>  <Rbt.Current_Directory>
/home/itssahil/PROJECTS/Mol_Feturizer/New_Systems/rnas/1ntb

>  <Rbt.Executable>
rbdock ($Id: //depot/dev/client3/rdock/2013.1/src/exe/rbdock.cxx#4 $)

>  <Rbt.Library>
libRbt.so (2013.1, Build901 2013/11/27)

>  <Rbt.Parameter_File>
/export/apps/rDock/src/rDock_2013.1_src/data/scripts/dock_solv.prm

>  <Rbt.Receptor>
prm/pocket_docking_7.prm

>  <SCORE>
-9.75193

>  <SCORE.INTER>
1.58892

>  <SCORE.INTER.CONST>
1

>  <SCORE.INTER.POLAR>
0

>  <SCORE.INTER.ROT>
11

>  <SCORE.INTER.SOLV>
17.4016

>  <SCORE.INTER.VDW>
-15.6746

>  <SCORE.INTER.norm>
0.039723

>  <SCORE.INTRA>
-11.3581

>  <SCORE.INTRA.DIHEDRAL>
-5.97929

>  <SCORE.INTRA.DIHEDRAL.0>
15.4453

>  <SCORE.INTRA.POLAR>
0

>  <SCORE.INTRA.POLAR.0>
0

>  <SCORE.INTRA.REPUL>
-0.823958

>  <SCORE.INTRA.REPUL.0>
0.823958

>  <SCORE.INTRA.SOLV>
2.25106

>  <SCORE.INTRA.SOLV.lig_0>
-99.3069

>  <SCORE.INTRA.VDW>
-5.3742

>  <SCORE.INTRA.VDW.0>
0.946495

>  <SCORE.INTRA.norm>
-0.283952

>  <SCORE.RESTR>
0.0172461

>  <SCORE.RESTR.CAVITY>
0.0172461

>  <SCORE.RESTR.norm>
0.000431153

>  <SCORE.SYSTEM>
0

>  <SCORE.SYSTEM.CONST>
0

>  <SCORE.SYSTEM.DIHEDRAL>
0

>  <SCORE.SYSTEM.SOLV>
0

>  <SCORE.SYSTEM.norm>
0

>  <SCORE.heavy>
40

>  <SCORE.norm>
-0.243798

>  <RMSD>
8.072

$$$$
1ntb_lig
 OpenBabel11021811403D
libRbt.so/2013.1/901 2013/11/27
 40 42  0  0  0  0  0  0  0  0999 V2000
    1.3694   38.8686   -1.7890 C   0  0  0  0  0  0  0  0  0  0  0  0
    1.8651   38.6256   -0.6377 N   0  0  0  0  0  0  0  0  0  0  0  0
   -1.3090   30.9543   -8.9614 C   0  0  0  0  0  0  0  0  0  0  0  0
   -2.1168   29.8712   -8.5315 O   0  0  0  0  0  0  0  0  0  0  0  0
    0.9932   32.8441   -2.4808 C   0  0  0  0  0  0  0  0  0  0  0  0
    1.9788   32.5993   -1.6929 N   0  0  0  0  0  0  0  0  0  0  0  0
    1.7738   31.9912   -8.9334 C   0  0  0  0  0  0  0  0  0  0  0  0
   -4.1146   33.5731   -5.8212 C   0  0  0  0  0  0  0  0  0  0  0  0
    0.9030   37.1079   -3.2884 C   0  0  2  0  0  0  0  0  0  0  0  0
    1.8666   38.1610   -2.7851 N   0  0  0  0  0  0  0  0  0  0  0  0
   -0.0625   32.8402   -6.0590 C   0  0  2  0  0  0  0  0  0  0  0  0
   -1.9841   31.2932   -4.6148 C   0  0  1  0  0  0  0  0  0  0  0  0
   -1.2289   30.8439   -5.7248 O   0  0  0  0  0  0  0  0  0  0  0  0
    1.5159   35.7151   -3.1915 C   0  0  1  0  0  0  0  0  0  0  0  0
    1.8575   35.5491   -1.7466 O   0  0  0  0  0  0  0  0  0  0  0  0
   -1.0425   31.8325   -6.6319 C   0  0  2  0  0  0  0  0  0  0  0  0
   -3.4412   31.3364   -5.0066 C   0  0  1  0  0  0  0  0  0  0  0  0
   -3.6244   32.2490   -6.0794 N   0  0  0  0  0  0  0  0  0  0  0  0
    0.5912   34.6190   -3.7168 C   0  0  2  0  0  0  0  0  0  0  0  0
    1.1233   33.2739   -3.6437 N   0  0  0  0  0  0  0  0  0  0  0  0
   -0.3395   31.3365   -7.8675 C   0  0  1  0  0  0  0  0  0  0  0  0
    0.4963   30.2214   -7.5403 O   0  0  0  0  0  0  0  0  0  0  0  0
   -3.8496   29.9399   -5.4441 C   0  0  2  0  0  0  0  0  0  0  0  0
   -5.2060   29.9260   -5.8321 O   0  0  0  0  0  0  0  0  0  0  0  0
    0.2716   34.9297   -5.1561 C   0  0  1  0  0  0  0  0  0  0  0  0
   -0.7530   33.9659   -5.5270 O   0  0  0  0  0  0  0  0  0  0  0  0
    0.5006   32.4829   -8.2950 C   0  0  1  0  0  0  0  0  0  0  0  0
    0.8018   33.2443   -7.1233 O   0  0  0  0  0  0  0  0  0  0  0  0
   -3.6283   29.0153   -4.2468 C   0  0  1  0  0  0  0  0  0  0  0  0
   -3.9835   27.6824   -4.5800 O   0  0  0  0  0  0  0  0  0  0  0  0
   -0.4000   36.3252   -5.2645 C   0  0  2  0  0  0  0  0  0  0  0  0
   -0.7053   36.5916   -6.6246 O   0  0  0  0  0  0  0  0  0  0  0  0
   -2.1562   29.0777   -3.8380 C   0  0  1  0  0  0  0  0  0  0  0  0
   -1.8007   30.4184   -3.5042 O   0  0  0  0  0  0  0  0  0  0  0  0
    0.5680   37.4016   -4.7367 C   0  0  1  0  0  0  0  0  0  0  0  0
   -0.0374   38.6966   -4.8301 O   0  0  0  0  0  0  0  0  0  0  0  0
   -1.9410   28.1782   -2.6206 C   0  0  0  0  0  0  0  0  0  0  0  0
   -2.7500   28.6408   -1.5510 O   0  0  0  0  0  0  0  0  0  0  0  0
    0.4622   39.7618   -1.9754 N   0  0  0  0  0  0  0  0  0  0  0  0
   -0.1658   32.5964   -2.1038 N   0  0  0  0  0  0  0  0  0  0  0  0
  1  2  1  0  0  0  0
  1 39  1  0  0  0  0
  3  4  1  0  0  0  0
  5  6  1  0  0  0  0
  5 40  1  0  0  0  0
  9 10  1  6  0  0  0
  9 14  1  0  0  0  0
  9 35  1  0  0  0  0
 10  1  1  0  0  0  0
 11 16  1  0  0  0  0
 11 28  1  0  0  0  0
 11 26  1  6  0  0  0
 12 17  1  0  0  0  0
 12 34  1  0  0  0  0
 12 13  1  6  0  0  0
 14 15  1  1  0  0  0
 14 19  1  0  0  0  0
 16 13  1  1  0  0  0
 16 21  1  0  0  0  0
 17 18  1  6  0  0  0
 17 23  1  0  0  0  0
 18  8  1  0  0  0  0
 19 20  1  6  0  0  0
 19 25  1  0  0  0  0
 20  5  1  0  0  0  0
 21  3  1  6  0  0  0
 21 22  1  0  0  0  0
 21 27  1  0  0  0  0
 23 24  1  1  0  0  0
 23 29  1  0  0  0  0
 25 26  1  1  0  0  0
 25 31  1  0  0  0  0
 27  7  1  1  0  0  0
 27 28  1  0  0  0  0
 29 30  1  6  0  0  0
 29 33  1  0  0  0  0
 31 32  1  6  0  0  0
 31 35  1  0  0  0  0
 33 34  1  0  0  0  0
 33 37  1  1  0  0  0
 35 36  1  1  0  0  0
 37 38  1  0  0  0  0
M  END
>  <CHROM.1>
-121.91514425,107.36422849,-173.33497260,78.25385829,71.48077197,-99.87216053
79.84151901,-112.98210081,-63.29260631,-91.22209446,-60.45511286,-0.72266026
33.06815755,-4.77390827,0.33109858,1.11940448,1.51933528

>  <Name>
1ntb_lig

>  <RI>
0

>  <Rbt.Current_Directory>
/home/itssahil/PROJECTS/Mol_Feturizer/New_Systems/rnas/1ntb

>  <Rbt.Executable>
rbdock ($Id: //depot/dev/client3/rdock/2013.1/src/exe/rbdock.cxx#4 $)

>  <Rbt.Library>
libRbt.so (2013.1, Build901 2013/11/27)

>  <Rbt.Parameter_File>
/export/apps/rDock/src/rDock_2013.1_src/data/scripts/dock_solv.prm

>  <Rbt.Receptor>
prm/pocket_docking_7.prm

>  <SCORE>
-15.7117

>  <SCORE.INTER>
-4.77114

>  <SCORE.INTER.CONST>
1

>  <SCORE.INTER.POLAR>
-0.72111

>  <SCORE.INTER.ROT>
11

>  <SCORE.INTER.SOLV>
12.0774

>  <SCORE.INTER.VDW>
-15.7362

>  <SCORE.INTER.norm>
-0.119279

>  <SCORE.INTRA>
-10.9406

>  <SCORE.INTRA.DIHEDRAL>
-5.85282

>  <SCORE.INTRA.DIHEDRAL.0>
15.4453

>  <SCORE.INTRA.POLAR>
0

>  <SCORE.INTRA.POLAR.0>
0

>  <SCORE.INTRA.REPUL>
-0.823092

>  <SCORE.INTRA.REPUL.0>
0.823958

>  <SCORE.INTRA.SOLV>
1.22169

>  <SCORE.INTRA.SOLV.lig_0>
-99.3069

>  <SCORE.INTRA.VDW>
-4.50957

>  <SCORE.INTRA.VDW.0>
0.946495

>  <SCORE.INTRA.norm>
-0.273515

>  <SCORE.RESTR>
0

>  <SCORE.RESTR.CAVITY>
0

>  <SCORE.RESTR.norm>
0

>  <SCORE.SYSTEM>
0

>  <SCORE.SYSTEM.CONST>
0

>  <SCORE.SYSTEM.DIHEDRAL>
0

>  <SCORE.SYSTEM.SOLV>
0

>  <SCORE.SYSTEM.norm>
0

>  <SCORE.heavy>
40

>  <SCORE.norm>
-0.392793

>  <RMSD>
8.077

$$$$
1ntb_lig
 OpenBabel11021811403D
libRbt.so/2013.1/901 2013/11/27
 40 42  0  0  0  0  0  0  0  0999 V2000
   -1.0030   37.8621   -8.5288 C   0  0  0  0  0  0  0  0  0  0  0  0
   -0.4592   38.4060   -9.5479 N   0  0  0  0  0  0  0  0  0  0  0  0
    5.4983   39.9866    0.1310 C   0  0  0  0  0  0  0  0  0  0  0  0
    5.8621   38.6756   -0.2682 O   0  0  0  0  0  0  0  0  0  0  0  0
    0.7967   36.0705   -2.5967 C   0  0  0  0  0  0  0  0  0  0  0  0
    2.0114   36.0096   -2.1811 N   0  0  0  0  0  0  0  0  0  0  0  0
    5.5138   42.1257   -2.3193 C   0  0  0  0  0  0  0  0  0  0  0  0
    2.0473   42.3075    2.6149 C   0  0  0  0  0  0  0  0  0  0  0  0
    0.0445   38.3949   -6.4832 C   0  0  2  0  0  0  0  0  0  0  0  0
   -1.0928   38.6236   -7.4554 N   0  0  0  0  0  0  0  0  0  0  0  0
    2.8382   39.8477   -2.4066 C   0  0  2  0  0  0  0  0  0  0  0  0
    2.6447   39.5574    1.2043 C   0  0  1  0  0  0  0  0  0  0  0  0
    2.2753   39.8041   -0.1399 O   0  0  0  0  0  0  0  0  0  0  0  0
   -0.4736   37.8639   -5.1511 C   0  0  1  0  0  0  0  0  0  0  0  0
   -1.2034   36.6078   -5.4997 O   0  0  0  0  0  0  0  0  0  0  0  0
    3.3007   39.5587   -0.9902 C   0  0  2  0  0  0  0  0  0  0  0  0
    1.4966   39.9510    2.1017 C   0  0  1  0  0  0  0  0  0  0  0  0
    1.2226   41.3367    1.9532 N   0  0  0  0  0  0  0  0  0  0  0  0
    0.6357   37.6454   -4.1243 C   0  0  2  0  0  0  0  0  0  0  0  0
    0.1983   37.1366   -2.8407 N   0  0  0  0  0  0  0  0  0  0  0  0
    4.4360   40.5287   -0.7967 C   0  0  1  0  0  0  0  0  0  0  0  0
    3.9359   41.7732   -0.2966 O   0  0  0  0  0  0  0  0  0  0  0  0
    0.2804   39.1393    1.6884 C   0  0  2  0  0  0  0  0  0  0  0  0
   -0.8289   39.4767    2.4923 O   0  0  0  0  0  0  0  0  0  0  0  0
    1.3329   38.9629   -3.9046 C   0  0  1  0  0  0  0  0  0  0  0  0
    2.4843   38.6418   -3.0755 O   0  0  0  0  0  0  0  0  0  0  0  0
    4.9872   40.7229   -2.1608 C   0  0  1  0  0  0  0  0  0  0  0  0
    3.9198   40.4926   -3.0832 O   0  0  0  0  0  0  0  0  0  0  0  0
    0.6442   37.6660    1.8734 C   0  0  1  0  0  0  0  0  0  0  0  0
   -0.4459   36.8377    1.5000 O   0  0  0  0  0  0  0  0  0  0  0  0
    1.9102   39.4913   -5.2454 C   0  0  2  0  0  0  0  0  0  0  0  0
    2.5740   40.7241   -5.0138 O   0  0  0  0  0  0  0  0  0  0  0  0
    1.8648   37.3448    1.0104 C   0  0  1  0  0  0  0  0  0  0  0  0
    2.9593   38.1790    1.3866 O   0  0  0  0  0  0  0  0  0  0  0  0
    0.7601   39.7095   -6.2474 C   0  0  1  0  0  0  0  0  0  0  0  0
    1.2768   40.1978   -7.4911 O   0  0  0  0  0  0  0  0  0  0  0  0
    2.2487   35.8798    1.2198 C   0  0  0  0  0  0  0  0  0  0  0  0
    3.4114   35.5900    0.4605 O   0  0  0  0  0  0  0  0  0  0  0  0
   -1.4152   36.6431   -8.5344 N   0  0  0  0  0  0  0  0  0  0  0  0
    0.1767   35.0173   -2.8270 N   0  0  0  0  0  0  0  0  0  0  0  0
  1  2  1  0  0  0  0
  1 39  1  0  0  0  0
  3  4  1  0  0  0  0
  5  6  1  0  0  0  0
  5 40  1  0  0  0  0
  9 10  1  6  0  0  0
  9 14  1  0  0  0  0
  9 35  1  0  0  0  0
 10  1  1  0  0  0  0
 11 16  1  0  0  0  0
 11 28  1  0  0  0  0
 11 26  1  6  0  0  0
 12 17  1  0  0  0  0
 12 34  1  0  0  0  0
 12 13  1  6  0  0  0
 14 15  1  6  0  0  0
 14 19  1  0  0  0  0
 16 13  1  1  0  0  0
 16 21  1  0  0  0  0
 17 18  1  6  0  0  0
 17 23  1  0  0  0  0
 18  8  1  0  0  0  0
 19 20  1  1  0  0  0
 19 25  1  0  0  0  0
 20  5  1  0  0  0  0
 21  3  1  1  0  0  0
 21 22  1  0  0  0  0
 21 27  1  0  0  0  0
 23 24  1  1  0  0  0
 23 29  1  0  0  0  0
 25 26  1  1  0  0  0
 25 31  1  0  0  0  0
 27  7  1  1  0  0  0
 27 28  1  0  0  0  0
 29 30  1  6  0  0  0
 29 33  1  0  0  0  0
 31 32  1  1  0  0  0
 31 35  1  0  0  0  0
 33 34  1  0  0  0  0
 33 37  1  1  0  0  0
 35 36  1  6  0  0  0
 37 38  1  0  0  0  0
M  END
>  <CHROM.1>
-117.29026133,-96.26666505,142.92059260,175.67694327,-179.77943696,-78.92360986
122.76338147,77.80597219,49.41838414,-156.72973364,-177.79483780,1.74383634
38.78308215,-2.20087737,2.02392905,-0.79707406,-1.38651288

>  <Name>
1ntb_lig

>  <RI>
0

>  <Rbt.Current_Directory>
/home/itssahil/PROJECTS/Mol_Feturizer/New_Systems/rnas/1ntb

>  <Rbt.Executable>
rbdock ($Id: //depot/dev/client3/rdock/2013.1/src/exe/rbdock.cxx#4 $)

>  <Rbt.Library>
libRbt.so (2013.1, Build901 2013/11/27)

>  <Rbt.Parameter_File>
/export/apps/rDock/src/rDock_2013.1_src/data/scripts/dock_solv.prm

>  <Rbt.Receptor>
prm/pocket_docking_8.prm

>  <SCORE>
-21.4732

>  <SCORE.INTER>
-10.7021

>  <SCORE.INTER.CONST>
1

>  <SCORE.INTER.POLAR>
-1.08384

>  <SCORE.INTER.ROT>
11

>  <SCORE.INTER.SOLV>
9.05015

>  <SCORE.INTER.VDW>
-17.472

>  <SCORE.INTER.norm>
-0.267552

>  <SCORE.INTRA>
-10.7711

>  <SCORE.INTRA.DIHEDRAL>
-3.75814

>  <SCORE.INTRA.DIHEDRAL.0>
15.4453

>  <SCORE.INTRA.POLAR>
0

>  <SCORE.INTRA.POLAR.0>
0

>  <SCORE.INTRA.REPUL>
-0.823958

>  <SCORE.INTRA.REPUL.0>
0.823958

>  <SCORE.INTRA.SOLV>
0.588615

>  <SCORE.INTRA.SOLV.lig_0>
-99.3069

>  <SCORE.INTRA.VDW>
-5.0665

>  <SCORE.INTRA.VDW.0>
0.946495

>  <SCORE.INTRA.norm>
-0.269276

>  <SCORE.RESTR>
0

>  <SCORE.RESTR.CAVITY>
0

>  <SCORE.RESTR.norm>
0

>  <SCORE.SYSTEM>
0

>  <SCORE.SYSTEM.CONST>
0

>  <SCORE.SYSTEM.DIHEDRAL>
0

>  <SCORE.SYSTEM.SOLV>
0

>  <SCORE.SYSTEM.norm>
0

>  <SCORE.heavy>
40

>  <SCORE.norm>
-0.536829

>  <RMSD>
8.097

$$$$
1ntb_lig
 OpenBabel11021811403D
libRbt.so/2013.1/901 2013/11/27
 40 42  0  0  0  0  0  0  0  0999 V2000
   -1.9450   28.2288   -6.5822 C   0  0  0  0  0  0  0  0  0  0  0  0
   -2.3412   28.0799   -7.7868 N   0  0  0  0  0  0  0  0  0  0  0  0
   -0.0923   37.1863   -1.4898 C   0  0  0  0  0  0  0  0  0  0  0  0
    0.3750   37.1423   -0.1519 O   0  0  0  0  0  0  0  0  0  0  0  0
    0.5989   33.5776   -8.6200 C   0  0  0  0  0  0  0  0  0  0  0  0
   -0.3851   34.2808   -9.0551 N   0  0  0  0  0  0  0  0  0  0  0  0
    1.8125   34.6077   -0.9399 C   0  0  0  0  0  0  0  0  0  0  0  0
    2.7072   40.4968   -3.6663 C   0  0  0  0  0  0  0  0  0  0  0  0
   -0.9990   30.3580   -6.2110 C   0  0  2  0  0  0  0  0  0  0  0  0
   -0.8038   28.8735   -6.4324 N   0  0  0  0  0  0  0  0  0  0  0  0
    0.7026   34.9022   -4.2621 C   0  0  2  0  0  0  0  0  0  0  0  0
    0.3174   38.4758   -4.4764 C   0  0  1  0  0  0  0  0  0  0  0  0
    0.9394   37.2069   -4.5606 O   0  0  0  0  0  0  0  0  0  0  0  0
    0.0629   31.1651   -6.9497 C   0  0  1  0  0  0  0  0  0  0  0  0
   -0.0828   30.7657   -8.3818 O   0  0  0  0  0  0  0  0  0  0  0  0
    0.3026   36.2895   -3.7940 C   0  0  2  0  0  0  0  0  0  0  0  0
    1.1315   39.4674   -5.2717 C   0  0  1  0  0  0  0  0  0  0  0  0
    2.4387   39.5655   -4.7250 N   0  0  0  0  0  0  0  0  0  0  0  0
   -0.0739   32.6706   -6.7320 C   0  0  2  0  0  0  0  0  0  0  0  0
    0.9086   33.4858   -7.4160 N   0  0  0  0  0  0  0  0  0  0  0  0
    0.7813   36.3199   -2.3667 C   0  0  1  0  0  0  0  0  0  0  0  0
    2.1366   36.7777   -2.3151 O   0  0  0  0  0  0  0  0  0  0  0  0
    1.2094   38.9666   -6.7041 C   0  0  2  0  0  0  0  0  0  0  0  0
    1.9711   39.8552   -7.4921 O   0  0  0  0  0  0  0  0  0  0  0  0
    0.0281   32.9384   -5.2528 C   0  0  1  0  0  0  0  0  0  0  0  0
   -0.3016   34.3476   -5.1053 O   0  0  0  0  0  0  0  0  0  0  0  0
    0.7147   34.9034   -1.9288 C   0  0  1  0  0  0  0  0  0  0  0  0
    0.8748   34.0937   -3.0958 O   0  0  0  0  0  0  0  0  0  0  0  0
   -0.2250   38.8865   -7.2268 C   0  0  1  0  0  0  0  0  0  0  0  0
   -0.2370   38.4176   -8.5661 O   0  0  0  0  0  0  0  0  0  0  0  0
   -1.0804   32.1619   -4.4922 C   0  0  2  0  0  0  0  0  0  0  0  0
   -0.9754   32.4390   -3.1042 O   0  0  0  0  0  0  0  0  0  0  0  0
   -1.0257   37.9384   -6.3335 C   0  0  1  0  0  0  0  0  0  0  0  0
   -1.0118   38.4109   -4.9874 O   0  0  0  0  0  0  0  0  0  0  0  0
   -0.8998   30.6499   -4.7275 C   0  0  1  0  0  0  0  0  0  0  0  0
   -1.9159   29.9184   -4.0313 O   0  0  0  0  0  0  0  0  0  0  0  0
   -2.4684   37.8830   -6.8365 C   0  0  0  0  0  0  0  0  0  0  0  0
   -3.2053   36.9714   -6.0376 O   0  0  0  0  0  0  0  0  0  0  0  0
   -2.5987   27.7607   -5.5776 N   0  0  0  0  0  0  0  0  0  0  0  0
    1.2644   32.8976   -9.4208 N   0  0  0  0  0  0  0  0  0  0  0  0
  1  2  1  0  0  0  0
  1 39  1  0  0  0  0
  3  4  1  0  0  0  0
  5  6  1  0  0  0  0
  5 40  1  0  0  0  0
  9 10  1  1  0  0  0
  9 14  1  0  0  0  0
  9 35  1  0  0  0  0
 10  1  1  0  0  0  0
 11 16  1  0  0  0  0
 11 28  1  0  0  0  0
 11 26  1  6  0  0  0
 12 17  1  0  0  0  0
 12 34  1  0  0  0  0
 12 13  1  6  0  0  0
 14 15  1  6  0  0  0
 14 19  1  0  0  0  0
 16 13  1  6  0  0  0
 16 21  1  0  0  0  0
 17 18  1  1  0  0  0
 17 23  1  0  0  0  0
 18  8  1  0  0  0  0
 19 20  1  6  0  0  0
 19 25  1  0  0  0  0
 20  5  1  0  0  0  0
 21  3  1  1  0  0  0
 21 22  1  0  0  0  0
 21 27  1  0  0  0  0
 23 24  1  6  0  0  0
 23 29  1  0  0  0  0
 25 26  1  6  0  0  0
 25 31  1  0  0  0  0
 27  7  1  1  0  0  0
 27 28  1  0  0  0  0
 29 30  1  6  0  0  0
 29 33  1  0  0  0  0
 31 32  1  1  0  0  0
 31 35  1  0  0  0  0
 33 34  1  0  0  0  0
 33 37  1  6  0  0  0
 35 36  1  1  0  0  0
 37 38  1  0  0  0  0
M  END
>  <CHROM.1>
-140.85658653,93.18031841,-167.75264699,175.99396715,161.53259192,-87.79807708
77.61048559,72.56851830,177.99497551,-132.49330799,178.12750088,-0.03189209
34.77960178,-5.29813644,-2.84682056,-1.33679853,-1.07043173

>  <Name>
1ntb_lig

>  <RI>
0

>  <Rbt.Current_Directory>
/home/itssahil/PROJECTS/Mol_Feturizer/New_Systems/rnas/1ntb

>  <Rbt.Executable>
rbdock ($Id: //depot/dev/client3/rdock/2013.1/src/exe/rbdock.cxx#4 $)

>  <Rbt.Library>
libRbt.so (2013.1, Build901 2013/11/27)

>  <Rbt.Parameter_File>
/export/apps/rDock/src/rDock_2013.1_src/data/scripts/dock_solv.prm

>  <Rbt.Receptor>
prm/pocket_docking_7.prm

>  <SCORE>
-18.4959

>  <SCORE.INTER>
-7.14676

>  <SCORE.INTER.CONST>
1

>  <SCORE.INTER.POLAR>
-0.72111

>  <SCORE.INTER.ROT>
11

>  <SCORE.INTER.SOLV>
12.395

>  <SCORE.INTER.VDW>
-17.4258

>  <SCORE.INTER.norm>
-0.178669

>  <SCORE.INTRA>
-11.3491

>  <SCORE.INTRA.DIHEDRAL>
-3.58941

>  <SCORE.INTRA.DIHEDRAL.0>
15.4453

>  <SCORE.INTRA.POLAR>
0

>  <SCORE.INTRA.POLAR.0>
0

>  <SCORE.INTRA.REPUL>
-0.823958

>  <SCORE.INTRA.REPUL.0>
0.823958

>  <SCORE.INTRA.SOLV>
-2.34537

>  <SCORE.INTRA.SOLV.lig_0>
-99.3069

>  <SCORE.INTRA.VDW>
-4.26195

>  <SCORE.INTRA.VDW.0>
0.946495

>  <SCORE.INTRA.norm>
-0.283728

>  <SCORE.RESTR>
0

>  <SCORE.RESTR.CAVITY>
0

>  <SCORE.RESTR.norm>
0

>  <SCORE.SYSTEM>
0

>  <SCORE.SYSTEM.CONST>
0

>  <SCORE.SYSTEM.DIHEDRAL>
0

>  <SCORE.SYSTEM.SOLV>
0

>  <SCORE.SYSTEM.norm>
0

>  <SCORE.heavy>
40

>  <SCORE.norm>
-0.462397

>  <RMSD>
8.117

$$$$
1ntb_lig
 OpenBabel11021811403D
libRbt.so/2013.1/901 2013/11/27
 40 42  0  0  0  0  0  0  0  0999 V2000
   -3.1466   36.9846   -9.6245 C   0  0  0  0  0  0  0  0  0  0  0  0
   -2.9090   37.8101  -10.5692 N   0  0  0  0  0  0  0  0  0  0  0  0
    1.3147   36.1063    0.3217 C   0  0  0  0  0  0  0  0  0  0  0  0
   -0.0738   36.3745    0.4228 O   0  0  0  0  0  0  0  0  0  0  0  0
    1.0737   39.8407   -6.1664 C   0  0  0  0  0  0  0  0  0  0  0  0
    0.5211   40.6254   -5.3114 N   0  0  0  0  0  0  0  0  0  0  0  0
    1.6682   33.5711   -1.6854 C   0  0  0  0  0  0  0  0  0  0  0  0
    5.5410   38.4916    0.4568 C   0  0  0  0  0  0  0  0  0  0  0  0
   -1.8140   36.8712   -7.6811 C   0  0  2  0  0  0  0  0  0  0  0  0
   -2.0874   36.4038   -9.0945 N   0  0  0  0  0  0  0  0  0  0  0  0
    1.0623   36.6281   -3.3113 C   0  0  2  0  0  0  0  0  0  0  0  0
    2.4791   38.9222   -0.9306 C   0  0  1  0  0  0  0  0  0  0  0  0
    2.4187   38.0370   -2.0337 O   0  0  0  0  0  0  0  0  0  0  0  0
   -0.4381   37.5201   -7.5764 C   0  0  1  0  0  0  0  0  0  0  0  0
   -0.4690   38.6401   -8.5646 O   0  0  0  0  0  0  0  0  0  0  0  0
    1.3658   37.1906   -1.9346 C   0  0  2  0  0  0  0  0  0  0  0  0
    3.8246   39.6065   -0.9326 C   0  0  1  0  0  0  0  0  0  0  0  0
    4.8564   38.6401   -0.7960 N   0  0  0  0  0  0  0  0  0  0  0  0
   -0.1029   37.9819   -6.1598 C   0  0  2  0  0  0  0  0  0  0  0  0
    1.1928   38.6104   -6.0049 N   0  0  0  0  0  0  0  0  0  0  0  0
    1.7047   35.9632   -1.1310 C   0  0  1  0  0  0  0  0  0  0  0  0
    3.1037   35.6794   -1.2383 O   0  0  0  0  0  0  0  0  0  0  0  0
    3.9760   40.3368   -2.2564 C   0  0  2  0  0  0  0  0  0  0  0  0
    5.2261   40.9884   -2.3152 O   0  0  0  0  0  0  0  0  0  0  0  0
   -0.1639   36.7810   -5.2519 C   0  0  1  0  0  0  0  0  0  0  0  0
   -0.0281   37.3219   -3.9083 O   0  0  0  0  0  0  0  0  0  0  0  0
    0.9233   34.8779   -1.7744 C   0  0  1  0  0  0  0  0  0  0  0  0
    0.7400   35.2455   -3.1435 O   0  0  0  0  0  0  0  0  0  0  0  0
    2.8394   41.3562   -2.3355 C   0  0  1  0  0  0  0  0  0  0  0  0
    2.9088   42.0793   -3.5546 O   0  0  0  0  0  0  0  0  0  0  0  0
   -1.5765   36.1394   -5.3097 C   0  0  2  0  0  0  0  0  0  0  0  0
   -1.6166   35.0203   -4.4379 O   0  0  0  0  0  0  0  0  0  0  0  0
    1.5040   40.6176   -2.2407 C   0  0  1  0  0  0  0  0  0  0  0  0
    1.4364   39.8906   -1.0150 O   0  0  0  0  0  0  0  0  0  0  0  0
   -1.8703   35.6772   -6.7500 C   0  0  1  0  0  0  0  0  0  0  0  0
   -3.1715   35.0820   -6.8203 O   0  0  0  0  0  0  0  0  0  0  0  0
    0.3677   41.6395   -2.2872 C   0  0  0  0  0  0  0  0  0  0  0  0
    0.5158   42.5500   -1.2095 O   0  0  0  0  0  0  0  0  0  0  0  0
   -4.3405   36.7137   -9.2285 N   0  0  0  0  0  0  0  0  0  0  0  0
    1.4743   40.3028   -7.2493 N   0  0  0  0  0  0  0  0  0  0  0  0
  1  2  1  0  0  0  0
  1 39  1  0  0  0  0
  3  4  1  0  0  0  0
  5  6  1  0  0  0  0
  5 40  1  0  0  0  0
  9 10  1  6  0  0  0
  9 14  1  0  0  0  0
  9 35  1  0  0  0  0
 10  1  1  0  0  0  0
 11 16  1  0  0  0  0
 11 28  1  0  0  0  0
 11 26  1  1  0  0  0
 12 17  1  0  0  0  0
 12 34  1  0  0  0  0
 12 13  1  6  0  0  0
 14 15  1  6  0  0  0
 14 19  1  0  0  0  0
 16 13  1  6  0  0  0
 16 21  1  0  0  0  0
 17 18  1  6  0  0  0
 17 23  1  0  0  0  0
 18  8  1  0  0  0  0
 19 20  1  6  0  0  0
 19 25  1  0  0  0  0
 20  5  1  0  0  0  0
 21  3  1  1  0  0  0
 21 22  1  0  0  0  0
 21 27  1  0  0  0  0
 23 24  1  1  0  0  0
 23 29  1  0  0  0  0
 25 26  1  1  0  0  0
 25 31  1  0  0  0  0
 27  7  1  6  0  0  0
 27 28  1  0  0  0  0
 29 30  1  6  0  0  0
 29 33  1  0  0  0  0
 31 32  1  1  0  0  0
 31 35  1  0  0  0  0
 33 34  1  0  0  0  0
 33 37  1  1  0  0  0
 35 36  1  1  0  0  0
 37 38  1  0  0  0  0
M  END
>  <CHROM.1>
-119.69648322,110.49094309,175.58294729,167.00314623,160.26324845,-104.75153969
91.13505463,72.78719621,57.74467192,-125.47673491,-58.97303659,0.77322514
37.98272923,-3.96667173,-2.87072811,0.93201410,2.51453364

>  <Name>
1ntb_lig

>  <RI>
0

>  <Rbt.Current_Directory>
/home/itssahil/PROJECTS/Mol_Feturizer/New_Systems/rnas/1ntb

>  <Rbt.Executable>
rbdock ($Id: //depot/dev/client3/rdock/2013.1/src/exe/rbdock.cxx#4 $)

>  <Rbt.Library>
libRbt.so (2013.1, Build901 2013/11/27)

>  <Rbt.Parameter_File>
/export/apps/rDock/src/rDock_2013.1_src/data/scripts/dock_solv.prm

>  <Rbt.Receptor>
prm/pocket_docking_7.prm

>  <SCORE>
-13.1675

>  <SCORE.INTER>
-1.17565

>  <SCORE.INTER.CONST>
1

>  <SCORE.INTER.POLAR>
-0.669199

>  <SCORE.INTER.ROT>
11

>  <SCORE.INTER.SOLV>
8.03964

>  <SCORE.INTER.VDW>
-12.1663

>  <SCORE.INTER.norm>
-0.0293911

>  <SCORE.INTRA>
-11.9919

>  <SCORE.INTRA.DIHEDRAL>
-1.64767

>  <SCORE.INTRA.DIHEDRAL.0>
15.4453

>  <SCORE.INTRA.POLAR>
0

>  <SCORE.INTRA.POLAR.0>
0

>  <SCORE.INTRA.REPUL>
-0.823567

>  <SCORE.INTRA.REPUL.0>
0.823958

>  <SCORE.INTRA.SOLV>
0.591979

>  <SCORE.INTRA.SOLV.lig_0>
-99.3069

>  <SCORE.INTRA.VDW>
-7.34622

>  <SCORE.INTRA.VDW.0>
0.946495

>  <SCORE.INTRA.norm>
-0.299798

>  <SCORE.RESTR>
0

>  <SCORE.RESTR.CAVITY>
0

>  <SCORE.RESTR.norm>
0

>  <SCORE.SYSTEM>
0

>  <SCORE.SYSTEM.CONST>
0

>  <SCORE.SYSTEM.DIHEDRAL>
0

>  <SCORE.SYSTEM.SOLV>
0

>  <SCORE.SYSTEM.norm>
0

>  <SCORE.heavy>
40

>  <SCORE.norm>
-0.329189

>  <RMSD>
8.137

$$$$
1ntb_lig
 OpenBabel11021811403D
libRbt.so/2013.1/901 2013/11/27
 40 42  0  0  0  0  0  0  0  0999 V2000
   -1.0216   42.2093    0.8527 C   0  0  0  0  0  0  0  0  0  0  0  0
   -1.6393   42.4132    1.9514 N   0  0  0  0  0  0  0  0  0  0  0  0
   -3.4077   32.1690   -3.1487 C   0  0  0  0  0  0  0  0  0  0  0  0
   -3.9705   32.1713   -1.8474 O   0  0  0  0  0  0  0  0  0  0  0  0
    0.9242   37.2227   -2.4054 C   0  0  0  0  0  0  0  0  0  0  0  0
    1.2049   36.2588   -1.6028 N   0  0  0  0  0  0  0  0  0  0  0  0
   -4.7087   34.6745   -4.7642 C   0  0  0  0  0  0  0  0  0  0  0  0
    0.1278   31.6622   -5.6871 C   0  0  0  0  0  0  0  0  0  0  0  0
   -1.6102   40.1360   -0.1069 C   0  0  2  0  0  0  0  0  0  0  0  0
   -1.7318   41.6447   -0.1049 N   0  0  0  0  0  0  0  0  0  0  0  0
   -2.1556   35.5708   -2.5207 C   0  0  2  0  0  0  0  0  0  0  0  0
   -0.2874   32.4770   -2.7698 C   0  0  1  0  0  0  0  0  0  0  0  0
   -0.6409   33.8390   -2.9251 O   0  0  0  0  0  0  0  0  0  0  0  0
   -0.9650   39.6414   -1.3968 C   0  0  1  0  0  0  0  0  0  0  0  0
    0.3584   40.3324   -1.4501 O   0  0  0  0  0  0  0  0  0  0  0  0
   -1.9103   34.0729   -2.5146 C   0  0  2  0  0  0  0  0  0  0  0  0
    1.0344   32.2385   -3.4587 C   0  0  1  0  0  0  0  0  0  0  0  0
    0.9122   32.5204   -4.8454 N   0  0  0  0  0  0  0  0  0  0  0  0
   -0.8478   38.1199   -1.4595 C   0  0  2  0  0  0  0  0  0  0  0  0
   -0.2368   37.5961   -2.6636 N   0  0  0  0  0  0  0  0  0  0  0  0
   -2.9243   33.5565   -3.5006 C   0  0  1  0  0  0  0  0  0  0  0  0
   -2.3704   33.5636   -4.8206 O   0  0  0  0  0  0  0  0  0  0  0  0
    2.0618   33.1673   -2.8338 C   0  0  2  0  0  0  0  0  0  0  0  0
    3.3186   32.9918   -3.4504 O   0  0  0  0  0  0  0  0  0  0  0  0
   -2.2331   37.5407   -1.3347 C   0  0  1  0  0  0  0  0  0  0  0  0
   -2.0275   36.1061   -1.2077 O   0  0  0  0  0  0  0  0  0  0  0  0
   -4.0405   34.5313   -3.4213 C   0  0  1  0  0  0  0  0  0  0  0  0
   -3.4793   35.7823   -3.0170 O   0  0  0  0  0  0  0  0  0  0  0  0
    2.1417   32.8092   -1.3496 C   0  0  1  0  0  0  0  0  0  0  0  0
    3.0823   33.6427   -0.6907 O   0  0  0  0  0  0  0  0  0  0  0  0
   -2.8837   37.9954   -0.0005 C   0  0  2  0  0  0  0  0  0  0  0  0
   -4.1803   37.4280    0.1035 O   0  0  0  0  0  0  0  0  0  0  0  0
    0.7582   32.9841   -0.7226 C   0  0  1  0  0  0  0  0  0  0  0  0
   -0.1862   32.1461   -1.3868 O   0  0  0  0  0  0  0  0  0  0  0  0
   -2.9943   39.5322    0.0175 C   0  0  1  0  0  0  0  0  0  0  0  0
   -3.5935   39.9684    1.2435 O   0  0  0  0  0  0  0  0  0  0  0  0
    0.8303   32.5952    0.7543 C   0  0  0  0  0  0  0  0  0  0  0  0
   -0.4464   32.7749    1.3459 O   0  0  0  0  0  0  0  0  0  0  0  0
    0.2194   42.5093    0.6925 N   0  0  0  0  0  0  0  0  0  0  0  0
    1.8481   37.8713   -2.9274 N   0  0  0  0  0  0  0  0  0  0  0  0
  1  2  1  0  0  0  0
  1 39  1  0  0  0  0
  3  4  1  0  0  0  0
  5  6  1  0  0  0  0
  5 40  1  0  0  0  0
  9 10  1  6  0  0  0
  9 14  1  0  0  0  0
  9 35  1  0  0  0  0
 10  1  1  0  0  0  0
 11 16  1  0  0  0  0
 11 28  1  0  0  0  0
 11 26  1  1  0  0  0
 12 17  1  0  0  0  0
 12 34  1  0  0  0  0
 12 13  1  1  0  0  0
 14 15  1  1  0  0  0
 14 19  1  0  0  0  0
 16 13  1  6  0  0  0
 16 21  1  0  0  0  0
 17 18  1  6  0  0  0
 17 23  1  0  0  0  0
 18  8  1  0  0  0  0
 19 20  1  6  0  0  0
 19 25  1  0  0  0  0
 20  5  1  0  0  0  0
 21  3  1  1  0  0  0
 21 22  1  0  0  0  0
 21 27  1  0  0  0  0
 23 24  1  6  0  0  0
 23 29  1  0  0  0  0
 25 26  1  1  0  0  0
 25 31  1  0  0  0  0
 27  7  1  6  0  0  0
 27 28  1  0  0  0  0
 29 30  1  1  0  0  0
 29 33  1  0  0  0  0
 31 32  1  6  0  0  0
 31 35  1  0  0  0  0
 33 34  1  0  0  0  0
 33 37  1  1  0  0  0
 35 36  1  1  0  0  0
 37 38  1  0  0  0  0
M  END
>  <CHROM.1>
-116.70857313,-92.26880894,178.03713685,170.32079643,172.00653200,-69.42261146
104.99395110,64.36624498,57.92075806,-94.92637083,179.13093397,-0.95145771
35.86418188,-1.73528160,-1.73374931,0.14375777,-2.74492309

>  <Name>
1ntb_lig

>  <RI>
0

>  <Rbt.Current_Directory>
/home/itssahil/PROJECTS/Mol_Feturizer/New_Systems/rnas/1ntb

>  <Rbt.Executable>
rbdock ($Id: //depot/dev/client3/rdock/2013.1/src/exe/rbdock.cxx#4 $)

>  <Rbt.Library>
libRbt.so (2013.1, Build901 2013/11/27)

>  <Rbt.Parameter_File>
/export/apps/rDock/src/rDock_2013.1_src/data/scripts/dock_solv.prm

>  <Rbt.Receptor>
prm/pocket_docking_6.prm

>  <SCORE>
-10.1676

>  <SCORE.INTER>
2.69574

>  <SCORE.INTER.CONST>
1

>  <SCORE.INTER.POLAR>
-0.780249

>  <SCORE.INTER.ROT>
11

>  <SCORE.INTER.SOLV>
9.7754

>  <SCORE.INTER.VDW>
-9.79381

>  <SCORE.INTER.norm>
0.0673934

>  <SCORE.INTRA>
-12.8634

>  <SCORE.INTRA.DIHEDRAL>
-6.34385

>  <SCORE.INTRA.DIHEDRAL.0>
15.4453

>  <SCORE.INTRA.POLAR>
0

>  <SCORE.INTRA.POLAR.0>
0

>  <SCORE.INTRA.REPUL>
-0.823958

>  <SCORE.INTRA.REPUL.0>
0.823958

>  <SCORE.INTRA.SOLV>
1.6518

>  <SCORE.INTRA.SOLV.lig_0>
-99.3069

>  <SCORE.INTRA.VDW>
-6.39757

>  <SCORE.INTRA.VDW.0>
0.946495

>  <SCORE.INTRA.norm>
-0.321585

>  <SCORE.RESTR>
0

>  <SCORE.RESTR.CAVITY>
0

>  <SCORE.RESTR.norm>
0

>  <SCORE.SYSTEM>
0

>  <SCORE.SYSTEM.CONST>
0

>  <SCORE.SYSTEM.DIHEDRAL>
0

>  <SCORE.SYSTEM.SOLV>
0

>  <SCORE.SYSTEM.norm>
0

>  <SCORE.heavy>
40

>  <SCORE.norm>
-0.254191

>  <RMSD>
8.170

$$$$
1ntb_lig
 OpenBabel11021811403D
libRbt.so/2013.1/901 2013/11/27
 40 42  0  0  0  0  0  0  0  0999 V2000
   -0.8154   42.7596   -1.5544 C   0  0  0  0  0  0  0  0  0  0  0  0
   -0.9175   43.4474   -0.4835 N   0  0  0  0  0  0  0  0  0  0  0  0
   -2.0087   32.2023    1.1511 C   0  0  0  0  0  0  0  0  0  0  0  0
   -1.2200   32.8618    2.1275 O   0  0  0  0  0  0  0  0  0  0  0  0
    0.6788   37.3809   -3.7311 C   0  0  0  0  0  0  0  0  0  0  0  0
    0.8411   37.9814   -4.8559 N   0  0  0  0  0  0  0  0  0  0  0  0
   -4.7388   33.9327    0.7869 C   0  0  0  0  0  0  0  0  0  0  0  0
   -1.5836   29.9701   -3.2522 C   0  0  0  0  0  0  0  0  0  0  0  0
   -1.2145   40.4504   -1.2826 C   0  0  2  0  0  0  0  0  0  0  0  0
   -1.7189   41.8114   -1.7118 N   0  0  0  0  0  0  0  0  0  0  0  0
   -1.9417   35.2827   -0.8592 C   0  0  2  0  0  0  0  0  0  0  0  0
   -0.1903   32.1832   -1.4899 C   0  0  1  0  0  0  0  0  0  0  0  0
   -0.9967   33.3249   -1.7142 O   0  0  0  0  0  0  0  0  0  0  0  0
   -1.0695   39.5184   -2.4807 C   0  0  1  0  0  0  0  0  0  0  0  0
   -0.1282   40.2248   -3.4010 O   0  0  0  0  0  0  0  0  0  0  0  0
   -1.3525   33.9186   -0.5498 C   0  0  2  0  0  0  0  0  0  0  0  0
    0.2187   31.6099   -2.8250 C   0  0  1  0  0  0  0  0  0  0  0  0
   -0.9350   31.2147   -3.5531 N   0  0  0  0  0  0  0  0  0  0  0  0
   -0.5913   38.1204   -2.0941 C   0  0  2  0  0  0  0  0  0  0  0  0
   -0.4319   37.1948   -3.1967 N   0  0  0  0  0  0  0  0  0  0  0  0
   -2.4911   33.1990    0.1232 C   0  0  1  0  0  0  0  0  0  0  0  0
   -3.3010   32.5410   -0.8567 O   0  0  0  0  0  0  0  0  0  0  0  0
    0.9640   32.6909   -3.5897 C   0  0  2  0  0  0  0  0  0  0  0  0
    1.3621   32.2090   -4.8546 O   0  0  0  0  0  0  0  0  0  0  0  0
   -1.5857   37.5403   -1.1221 C   0  0  1  0  0  0  0  0  0  0  0  0
   -0.9736   36.3063   -0.6544 O   0  0  0  0  0  0  0  0  0  0  0  0
   -3.2726   34.2798    0.7741 C   0  0  1  0  0  0  0  0  0  0  0  0
   -3.0574   35.4714    0.0144 O   0  0  0  0  0  0  0  0  0  0  0  0
    2.1875   33.0655   -2.7529 C   0  0  1  0  0  0  0  0  0  0  0  0
    2.9370   34.0810   -3.4016 O   0  0  0  0  0  0  0  0  0  0  0  0
   -1.7059   38.4540    0.1274 C   0  0  2  0  0  0  0  0  0  0  0  0
   -2.6354   37.8828    1.0351 O   0  0  0  0  0  0  0  0  0  0  0  0
    1.7192   33.5557   -1.3824 C   0  0  1  0  0  0  0  0  0  0  0  0
    0.9652   32.5340   -0.7322 O   0  0  0  0  0  0  0  0  0  0  0  0
   -2.2015   39.8479   -0.3035 C   0  0  1  0  0  0  0  0  0  0  0  0
   -2.3181   40.7039    0.8394 O   0  0  0  0  0  0  0  0  0  0  0  0
    2.9436   33.8999   -0.5339 C   0  0  0  0  0  0  0  0  0  0  0  0
    3.7571   32.7455   -0.4005 O   0  0  0  0  0  0  0  0  0  0  0  0
    0.1207   42.9570   -2.4150 N   0  0  0  0  0  0  0  0  0  0  0  0
    1.6665   36.9016   -3.1468 N   0  0  0  0  0  0  0  0  0  0  0  0
  1  2  1  0  0  0  0
  1 39  1  0  0  0  0
  3  4  1  0  0  0  0
  5  6  1  0  0  0  0
  5 40  1  0  0  0  0
  9 10  1  6  0  0  0
  9 14  1  0  0  0  0
  9 35  1  0  0  0  0
 10  1  1  0  0  0  0
 11 16  1  0  0  0  0
 11 28  1  0  0  0  0
 11 26  1  1  0  0  0
 12 17  1  0  0  0  0
 12 34  1  0  0  0  0
 12 13  1  6  0  0  0
 14 15  1  6  0  0  0
 14 19  1  0  0  0  0
 16 13  1  6  0  0  0
 16 21  1  0  0  0  0
 17 18  1  6  0  0  0
 17 23  1  0  0  0  0
 18  8  1  0  0  0  0
 19 20  1  6  0  0  0
 19 25  1  0  0  0  0
 20  5  1  0  0  0  0
 21  3  1  1  0  0  0
 21 22  1  0  0  0  0
 21 27  1  0  0  0  0
 23 24  1  6  0  0  0
 23 29  1  0  0  0  0
 25 26  1  1  0  0  0
 25 31  1  0  0  0  0
 27  7  1  6  0  0  0
 27 28  1  0  0  0  0
 29 30  1  6  0  0  0
 29 33  1  0  0  0  0
 31 32  1  1  0  0  0
 31 35  1  0  0  0  0
 33 34  1  0  0  0  0
 33 37  1  1  0  0  0
 35 36  1  1  0  0  0
 37 38  1  0  0  0  0
M  END
>  <CHROM.1>
-112.52767368,-97.38388415,173.61414629,-177.50803974,167.60866934,-79.50655917
82.83542722,-104.63435540,57.85903240,-127.21297935,-59.11181742,-0.62148618
35.85569837,-1.43732655,-1.72521395,-0.71271519,3.07461285

>  <Name>
1ntb_lig

>  <RI>
0

>  <Rbt.Current_Directory>
/home/itssahil/PROJECTS/Mol_Feturizer/New_Systems/rnas/1ntb

>  <Rbt.Executable>
rbdock ($Id: //depot/dev/client3/rdock/2013.1/src/exe/rbdock.cxx#4 $)

>  <Rbt.Library>
libRbt.so (2013.1, Build901 2013/11/27)

>  <Rbt.Parameter_File>
/export/apps/rDock/src/rDock_2013.1_src/data/scripts/dock_solv.prm

>  <Rbt.Receptor>
prm/pocket_docking_5.prm

>  <SCORE>
-11.4747

>  <SCORE.INTER>
0.852939

>  <SCORE.INTER.CONST>
1

>  <SCORE.INTER.POLAR>
-0.72111

>  <SCORE.INTER.ROT>
11

>  <SCORE.INTER.SOLV>
11.8829

>  <SCORE.INTER.VDW>
-11.922

>  <SCORE.INTER.norm>
0.0213235

>  <SCORE.INTRA>
-12.3276

>  <SCORE.INTRA.DIHEDRAL>
-4.62458

>  <SCORE.INTRA.DIHEDRAL.0>
15.4453

>  <SCORE.INTRA.POLAR>
0

>  <SCORE.INTRA.POLAR.0>
0

>  <SCORE.INTRA.REPUL>
-0.805572

>  <SCORE.INTRA.REPUL.0>
0.823958

>  <SCORE.INTRA.SOLV>
-0.154846

>  <SCORE.INTRA.SOLV.lig_0>
-99.3069

>  <SCORE.INTRA.VDW>
-5.91005

>  <SCORE.INTRA.VDW.0>
0.946495

>  <SCORE.INTRA.norm>
-0.308191

>  <SCORE.RESTR>
0

>  <SCORE.RESTR.CAVITY>
0

>  <SCORE.RESTR.norm>
0

>  <SCORE.SYSTEM>
0

>  <SCORE.SYSTEM.CONST>
0

>  <SCORE.SYSTEM.DIHEDRAL>
0

>  <SCORE.SYSTEM.SOLV>
0

>  <SCORE.SYSTEM.norm>
0

>  <SCORE.heavy>
40

>  <SCORE.norm>
-0.286867

>  <RMSD>
8.199

$$$$
1ntb_lig
 OpenBabel11021811403D
libRbt.so/2013.1/901 2013/11/27
 40 42  0  0  0  0  0  0  0  0999 V2000
   -1.1197   37.8282   -8.4594 C   0  0  0  0  0  0  0  0  0  0  0  0
   -1.7880   36.7405   -8.4812 N   0  0  0  0  0  0  0  0  0  0  0  0
    5.6702   40.1511   -0.0829 C   0  0  0  0  0  0  0  0  0  0  0  0
    6.6396   41.1689    0.1032 O   0  0  0  0  0  0  0  0  0  0  0  0
    0.8402   36.0607   -2.5816 C   0  0  0  0  0  0  0  0  0  0  0  0
    0.2472   34.9375   -2.7788 N   0  0  0  0  0  0  0  0  0  0  0  0
    5.5318   42.2646   -2.5514 C   0  0  0  0  0  0  0  0  0  0  0  0
    2.3130   42.4231    2.6746 C   0  0  0  0  0  0  0  0  0  0  0  0
   -0.0359   38.3472   -6.4292 C   0  0  2  0  0  0  0  0  0  0  0  0
   -1.2205   38.5377   -7.3519 N   0  0  0  0  0  0  0  0  0  0  0  0
    2.9088   39.9252   -2.5032 C   0  0  2  0  0  0  0  0  0  0  0  0
    2.8687   39.6448    1.1134 C   0  0  1  0  0  0  0  0  0  0  0  0
    2.4438   39.8920   -0.2141 O   0  0  0  0  0  0  0  0  0  0  0  0
   -0.4832   37.8377   -5.0635 C   0  0  1  0  0  0  0  0  0  0  0  0
   -1.2083   36.5636   -5.3511 O   0  0  0  0  0  0  0  0  0  0  0  0
    3.4376   39.6614   -1.1051 C   0  0  2  0  0  0  0  0  0  0  0  0
    1.7794   40.0869    2.0604 C   0  0  1  0  0  0  0  0  0  0  0  0
    1.5472   41.4801    1.9102 N   0  0  0  0  0  0  0  0  0  0  0  0
    0.6758   37.6582   -4.0851 C   0  0  2  0  0  0  0  0  0  0  0  0
    0.3065   37.1711   -2.7721 N   0  0  0  0  0  0  0  0  0  0  0  0
    4.5572   40.6591   -0.9693 C   0  0  1  0  0  0  0  0  0  0  0  0
    4.0499   41.8970   -0.4600 O   0  0  0  0  0  0  0  0  0  0  0  0
    0.5173   39.3150    1.7145 C   0  0  2  0  0  0  0  0  0  0  0  0
   -0.5396   39.6987    2.5667 O   0  0  0  0  0  0  0  0  0  0  0  0
    1.3614   38.9904   -3.9261 C   0  0  1  0  0  0  0  0  0  0  0  0
    2.5549   38.7046   -3.1450 O   0  0  0  0  0  0  0  0  0  0  0  0
    5.0453   40.8518   -2.3575 C   0  0  1  0  0  0  0  0  0  0  0  0
    3.9453   40.5877   -3.2313 O   0  0  0  0  0  0  0  0  0  0  0  0
    0.8380   37.8314    1.8979 C   0  0  1  0  0  0  0  0  0  0  0  0
   -0.2970   37.0388    1.5860 O   0  0  0  0  0  0  0  0  0  0  0  0
    1.8675   39.4980   -5.3032 C   0  0  2  0  0  0  0  0  0  0  0  0
    2.5217   40.7453   -5.1289 O   0  0  0  0  0  0  0  0  0  0  0  0
    2.0037   37.4595    0.9811 C   0  0  1  0  0  0  0  0  0  0  0  0
    3.1434   38.2579    1.2955 O   0  0  0  0  0  0  0  0  0  0  0  0
    0.6689   39.6771   -6.2548 C   0  0  1  0  0  0  0  0  0  0  0  0
    1.1196   40.1459   -7.5314 O   0  0  0  0  0  0  0  0  0  0  0  0
    2.3459   35.9838    1.1878 C   0  0  0  0  0  0  0  0  0  0  0  0
    3.4646   35.6480    0.3826 O   0  0  0  0  0  0  0  0  0  0  0  0
   -0.4126   38.2241   -9.4590 N   0  0  0  0  0  0  0  0  0  0  0  0
    1.9966   36.0684   -2.1242 N   0  0  0  0  0  0  0  0  0  0  0  0
  1  2  1  0  0  0  0
  1 39  1  0  0  0  0
  3  4  1  0  0  0  0
  5  6  1  0  0  0  0
  5 40  1  0  0  0  0
  9 10  1  6  0  0  0
  9 14  1  0  0  0  0
  9 35  1  0  0  0  0
 10  1  1  0  0  0  0
 11 16  1  0  0  0  0
 11 28  1  0  0  0  0
 11 26  1  6  0  0  0
 12 17  1  0  0  0  0
 12 34  1  0  0  0  0
 12 13  1  6  0  0  0
 14 15  1  6  0  0  0
 14 19  1  0  0  0  0
 16 13  1  1  0  0  0
 16 21  1  0  0  0  0
 17 18  1  6  0  0  0
 17 23  1  0  0  0  0
 18  8  1  0  0  0  0
 19 20  1  1  0  0  0
 19 25  1  0  0  0  0
 20  5  1  0  0  0  0
 21  3  1  1  0  0  0
 21 22  1  0  0  0  0
 21 27  1  0  0  0  0
 23 24  1  1  0  0  0
 23 29  1  0  0  0  0
 25 26  1  1  0  0  0
 25 31  1  0  0  0  0
 27  7  1  1  0  0  0
 27 28  1  0  0  0  0
 29 30  1  6  0  0  0
 29 33  1  0  0  0  0
 31 32  1  1  0  0  0
 31 35  1  0  0  0  0
 33 34  1  0  0  0  0
 33 37  1  1  0  0  0
 35 36  1  6  0  0  0
 37 38  1  0  0  0  0
M  END
>  <CHROM.1>
-122.01517816,100.14808601,142.86444505,172.85527756,179.17399302,-88.01120064
116.94928852,-96.52603999,-175.00703502,-155.88470049,-177.47187901,1.83240785
38.91335890,-2.21646315,2.10348119,-0.79894537,-1.38128054

>  <Name>
1ntb_lig

>  <RI>
0

>  <Rbt.Current_Directory>
/home/itssahil/PROJECTS/Mol_Feturizer/New_Systems/rnas/1ntb

>  <Rbt.Executable>
rbdock ($Id: //depot/dev/client3/rdock/2013.1/src/exe/rbdock.cxx#4 $)

>  <Rbt.Library>
libRbt.so (2013.1, Build901 2013/11/27)

>  <Rbt.Parameter_File>
/export/apps/rDock/src/rDock_2013.1_src/data/scripts/dock_solv.prm

>  <Rbt.Receptor>
prm/pocket_docking_8.prm

>  <SCORE>
-22.3506

>  <SCORE.INTER>
-11.1681

>  <SCORE.INTER.CONST>
1

>  <SCORE.INTER.POLAR>
-1.05202

>  <SCORE.INTER.ROT>
11

>  <SCORE.INTER.SOLV>
9.06548

>  <SCORE.INTER.VDW>
-17.8939

>  <SCORE.INTER.norm>
-0.279204

>  <SCORE.INTRA>
-11.1824

>  <SCORE.INTRA.DIHEDRAL>
-3.43562

>  <SCORE.INTRA.DIHEDRAL.0>
15.4453

>  <SCORE.INTRA.POLAR>
0

>  <SCORE.INTRA.POLAR.0>
0

>  <SCORE.INTRA.REPUL>
-0.823958

>  <SCORE.INTRA.REPUL.0>
0.823958

>  <SCORE.INTRA.SOLV>
0.203385

>  <SCORE.INTRA.SOLV.lig_0>
-99.3069

>  <SCORE.INTRA.VDW>
-5.44651

>  <SCORE.INTRA.VDW.0>
0.946495

>  <SCORE.INTRA.norm>
-0.27956

>  <SCORE.RESTR>
0

>  <SCORE.RESTR.CAVITY>
0

>  <SCORE.RESTR.norm>
0

>  <SCORE.SYSTEM>
0

>  <SCORE.SYSTEM.CONST>
0

>  <SCORE.SYSTEM.DIHEDRAL>
0

>  <SCORE.SYSTEM.SOLV>
0

>  <SCORE.SYSTEM.norm>
0

>  <SCORE.heavy>
40

>  <SCORE.norm>
-0.558764

>  <RMSD>
8.204

$$$$
1ntb_lig
 OpenBabel11021811403D
libRbt.so/2013.1/901 2013/11/27
 40 42  0  0  0  0  0  0  0  0999 V2000
    0.9069   43.1740   -6.1497 C   0  0  0  0  0  0  0  0  0  0  0  0
   -0.0820   43.8434   -6.6017 N   0  0  0  0  0  0  0  0  0  0  0  0
    1.0119   32.4420   -3.4552 C   0  0  0  0  0  0  0  0  0  0  0  0
    1.3006   32.4348   -4.8434 O   0  0  0  0  0  0  0  0  0  0  0  0
   -1.9668   38.1814   -7.0936 C   0  0  0  0  0  0  0  0  0  0  0  0
   -2.9104   38.9640   -7.4800 N   0  0  0  0  0  0  0  0  0  0  0  0
    3.2478   34.2666   -1.9546 C   0  0  0  0  0  0  0  0  0  0  0  0
   -1.3861   34.3223   -6.9505 C   0  0  0  0  0  0  0  0  0  0  0  0
    0.8497   40.9717   -5.3056 C   0  0  2  0  0  0  0  0  0  0  0  0
    0.6638   42.4553   -5.0705 N   0  0  0  0  0  0  0  0  0  0  0  0
    0.7658   36.1086   -3.6287 C   0  0  2  0  0  0  0  0  0  0  0  0
   -2.0997   35.4184   -3.9082 C   0  0  1  0  0  0  0  0  0  0  0  0
   -1.1185   34.8502   -3.0605 O   0  0  0  0  0  0  0  0  0  0  0  0
   -0.4934   40.2766   -5.5004 C   0  0  1  0  0  0  0  0  0  0  0  0
   -1.1195   40.9764   -6.6623 O   0  0  0  0  0  0  0  0  0  0  0  0
    0.0809   34.7551   -3.6827 C   0  0  2  0  0  0  0  0  0  0  0  0
   -2.6376   34.3395   -4.8166 C   0  0  1  0  0  0  0  0  0  0  0  0
   -1.5885   33.8203   -5.6211 N   0  0  0  0  0  0  0  0  0  0  0  0
   -0.3598   38.7698   -5.7113 C   0  0  2  0  0  0  0  0  0  0  0  0
   -1.6072   38.0601   -5.9062 N   0  0  0  0  0  0  0  0  0  0  0  0
    1.0330   33.8601   -2.9346 C   0  0  1  0  0  0  0  0  0  0  0  0
    0.7223   33.8750   -1.5373 O   0  0  0  0  0  0  0  0  0  0  0  0
   -3.2107   33.2358   -3.9438 C   0  0  2  0  0  0  0  0  0  0  0  0
   -3.7204   32.1929   -4.7458 O   0  0  0  0  0  0  0  0  0  0  0  0
    0.3371   38.1911   -4.5073 C   0  0  1  0  0  0  0  0  0  0  0  0
    0.6007   36.8046   -4.8597 O   0  0  0  0  0  0  0  0  0  0  0  0
    2.3648   34.4758   -3.1575 C   0  0  1  0  0  0  0  0  0  0  0  0
    2.1523   35.8729   -3.3728 O   0  0  0  0  0  0  0  0  0  0  0  0
   -4.3289   33.8622   -3.1103 C   0  0  1  0  0  0  0  0  0  0  0  0
   -4.9140   32.8895   -2.2587 O   0  0  0  0  0  0  0  0  0  0  0  0
    1.7290   38.8545   -4.3262 C   0  0  2  0  0  0  0  0  0  0  0  0
    2.3734   38.2857   -3.1969 O   0  0  0  0  0  0  0  0  0  0  0  0
   -3.7457   35.0039   -2.2771 C   0  0  1  0  0  0  0  0  0  0  0  0
   -3.1572   35.9803   -3.1347 O   0  0  0  0  0  0  0  0  0  0  0  0
    1.5496   40.3687   -4.1046 C   0  0  1  0  0  0  0  0  0  0  0  0
    2.8263   40.9962   -3.9354 O   0  0  0  0  0  0  0  0  0  0  0  0
   -4.8696   35.6515   -1.4677 C   0  0  0  0  0  0  0  0  0  0  0  0
   -5.2926   34.7519   -0.4557 O   0  0  0  0  0  0  0  0  0  0  0  0
    2.0730   43.2137   -6.6921 N   0  0  0  0  0  0  0  0  0  0  0  0
   -1.3986   37.4528   -7.9261 N   0  0  0  0  0  0  0  0  0  0  0  0
  1  2  1  0  0  0  0
  1 39  1  0  0  0  0
  3  4  1  0  0  0  0
  5  6  1  0  0  0  0
  5 40  1  0  0  0  0
  9 10  1  1  0  0  0
  9 14  1  0  0  0  0
  9 35  1  0  0  0  0
 10  1  1  0  0  0  0
 11 16  1  0  0  0  0
 11 28  1  0  0  0  0
 11 26  1  6  0  0  0
 12 17  1  0  0  0  0
 12 34  1  0  0  0  0
 12 13  1  1  0  0  0
 14 15  1  6  0  0  0
 14 19  1  0  0  0  0
 16 13  1  1  0  0  0
 16 21  1  0  0  0  0
 17 18  1  1  0  0  0
 17 23  1  0  0  0  0
 18  8  1  0  0  0  0
 19 20  1  1  0  0  0
 19 25  1  0  0  0  0
 20  5  1  0  0  0  0
 21  3  1  6  0  0  0
 21 22  1  0  0  0  0
 21 27  1  0  0  0  0
 23 24  1  6  0  0  0
 23 29  1  0  0  0  0
 25 26  1  6  0  0  0
 25 31  1  0  0  0  0
 27  7  1  1  0  0  0
 27 28  1  0  0  0  0
 29 30  1  1  0  0  0
 29 33  1  0  0  0  0
 31 32  1  1  0  0  0
 31 35  1  0  0  0  0
 33 34  1  0  0  0  0
 33 37  1  6  0  0  0
 35 36  1  6  0  0  0
 37 38  1  0  0  0  0
M  END
>  <CHROM.1>
-101.26705918,117.77260313,139.03917348,81.60258186,80.76223701,-96.16514034
81.23564976,-104.09897040,56.32610814,-158.02753931,70.03938789,-0.64161052
36.80302883,-4.35003985,1.20723481,-0.15684252,-0.38450870

>  <Name>
1ntb_lig

>  <RI>
0

>  <Rbt.Current_Directory>
/home/itssahil/PROJECTS/Mol_Feturizer/New_Systems/rnas/1ntb

>  <Rbt.Executable>
rbdock ($Id: //depot/dev/client3/rdock/2013.1/src/exe/rbdock.cxx#4 $)

>  <Rbt.Library>
libRbt.so (2013.1, Build901 2013/11/27)

>  <Rbt.Parameter_File>
/export/apps/rDock/src/rDock_2013.1_src/data/scripts/dock_solv.prm

>  <Rbt.Receptor>
prm/pocket_docking_8.prm

>  <SCORE>
-9.46969

>  <SCORE.INTER>
-0.711598

>  <SCORE.INTER.CONST>
1

>  <SCORE.INTER.POLAR>
-0.784839

>  <SCORE.INTER.ROT>
11

>  <SCORE.INTER.SOLV>
6.84329

>  <SCORE.INTER.VDW>
-11.0727

>  <SCORE.INTER.norm>
-0.01779

>  <SCORE.INTRA>
-8.75809

>  <SCORE.INTRA.DIHEDRAL>
-0.381014

>  <SCORE.INTRA.DIHEDRAL.0>
15.4453

>  <SCORE.INTRA.POLAR>
0

>  <SCORE.INTRA.POLAR.0>
0

>  <SCORE.INTRA.REPUL>
-0.823958

>  <SCORE.INTRA.REPUL.0>
0.823958

>  <SCORE.INTRA.SOLV>
0.604876

>  <SCORE.INTRA.SOLV.lig_0>
-99.3069

>  <SCORE.INTRA.VDW>
-4.75023

>  <SCORE.INTRA.VDW.0>
0.946495

>  <SCORE.INTRA.norm>
-0.218952

>  <SCORE.RESTR>
0

>  <SCORE.RESTR.CAVITY>
0

>  <SCORE.RESTR.norm>
0

>  <SCORE.SYSTEM>
0

>  <SCORE.SYSTEM.CONST>
0

>  <SCORE.SYSTEM.DIHEDRAL>
0

>  <SCORE.SYSTEM.SOLV>
0

>  <SCORE.SYSTEM.norm>
0

>  <SCORE.heavy>
40

>  <SCORE.norm>
-0.236742

>  <RMSD>
8.209

$$$$
1ntb_lig
 OpenBabel11021811403D
libRbt.so/2013.1/901 2013/11/27
 40 42  0  0  0  0  0  0  0  0999 V2000
    3.9787   46.1366   -2.6588 C   0  0  0  0  0  0  0  0  0  0  0  0
    3.4047   47.2686   -2.5197 N   0  0  0  0  0  0  0  0  0  0  0  0
    0.1672   37.0731   -1.0867 C   0  0  0  0  0  0  0  0  0  0  0  0
   -0.0453   35.6716   -1.0545 O   0  0  0  0  0  0  0  0  0  0  0  0
   -1.3368   42.7020   -3.6843 C   0  0  0  0  0  0  0  0  0  0  0  0
   -1.8593   43.8747   -3.6244 N   0  0  0  0  0  0  0  0  0  0  0  0
    0.7686   35.7825   -4.0112 C   0  0  0  0  0  0  0  0  0  0  0  0
    5.0800   36.8703    0.9319 C   0  0  0  0  0  0  0  0  0  0  0  0
    2.8654   44.0636   -2.8297 C   0  0  2  0  0  0  0  0  0  0  0  0
    3.4637   45.1457   -1.9566 N   0  0  0  0  0  0  0  0  0  0  0  0
    1.6556   39.1710   -3.7169 C   0  0  2  0  0  0  0  0  0  0  0  0
    2.4323   39.0531   -0.1787 C   0  0  1  0  0  0  0  0  0  0  0  0
    2.6007   39.1535   -1.5807 O   0  0  0  0  0  0  0  0  0  0  0  0
    1.4477   43.7231   -2.3837 C   0  0  1  0  0  0  0  0  0  0  0  0
    0.7022   45.0152   -2.4644 O   0  0  0  0  0  0  0  0  0  0  0  0
    1.4472   38.8899   -2.2400 C   0  0  2  0  0  0  0  0  0  0  0  0
    3.7924   38.9303    0.4645 C   0  0  1  0  0  0  0  0  0  0  0  0
    4.4402   37.7547   -0.0001 N   0  0  0  0  0  0  0  0  0  0  0  0
    0.8111   42.6126   -3.2169 C   0  0  2  0  0  0  0  0  0  0  0  0
   -0.5396   42.2524   -2.8379 N   0  0  0  0  0  0  0  0  0  0  0  0
    1.1083   37.4230   -2.2157 C   0  0  1  0  0  0  0  0  0  0  0  0
    2.3063   36.6460   -2.1152 O   0  0  0  0  0  0  0  0  0  0  0  0
    4.6058   40.1533    0.0758 C   0  0  2  0  0  0  0  0  0  0  0  0
    5.8950   40.0843    0.6448 O   0  0  0  0  0  0  0  0  0  0  0  0
    1.6824   41.3885   -3.1045 C   0  0  1  0  0  0  0  0  0  0  0  0
    1.1280   40.4468   -4.0648 O   0  0  0  0  0  0  0  0  0  0  0  0
    0.4604   37.1759   -3.5278 C   0  0  1  0  0  0  0  0  0  0  0  0
    0.9839   38.1399   -4.4443 O   0  0  0  0  0  0  0  0  0  0  0  0
    3.8543   41.3749    0.6054 C   0  0  1  0  0  0  0  0  0  0  0  0
    4.5523   42.5654    0.2750 O   0  0  0  0  0  0  0  0  0  0  0  0
    3.1175   41.7072   -3.6035 C   0  0  2  0  0  0  0  0  0  0  0  0
    3.9167   40.5388   -3.5027 O   0  0  0  0  0  0  0  0  0  0  0  0
    2.4549   41.4010   -0.0101 C   0  0  1  0  0  0  0  0  0  0  0  0
    1.7551   40.2031    0.3225 O   0  0  0  0  0  0  0  0  0  0  0  0
    3.7273   42.8213   -2.7311 C   0  0  1  0  0  0  0  0  0  0  0  0
    5.0532   43.1273   -3.1789 O   0  0  0  0  0  0  0  0  0  0  0  0
    1.6918   42.6044    0.5440 C   0  0  0  0  0  0  0  0  0  0  0  0
    1.6020   42.4893    1.9551 O   0  0  0  0  0  0  0  0  0  0  0  0
    5.0081   45.9727   -3.4132 N   0  0  0  0  0  0  0  0  0  0  0  0
   -1.6698   41.9314   -4.6018 N   0  0  0  0  0  0  0  0  0  0  0  0
  1  2  1  0  0  0  0
  1 39  1  0  0  0  0
  3  4  1  0  0  0  0
  5  6  1  0  0  0  0
  5 40  1  0  0  0  0
  9 10  1  1  0  0  0
  9 14  1  0  0  0  0
  9 35  1  0  0  0  0
 10  1  1  0  0  0  0
 11 16  1  0  0  0  0
 11 28  1  0  0  0  0
 11 26  1  6  0  0  0
 12 17  1  0  0  0  0
 12 34  1  0  0  0  0
 12 13  1  6  0  0  0
 14 15  1  6  0  0  0
 14 19  1  0  0  0  0
 16 13  1  1  0  0  0
 16 21  1  0  0  0  0
 17 18  1  6  0  0  0
 17 23  1  0  0  0  0
 18  8  1  0  0  0  0
 19 20  1  1  0  0  0
 19 25  1  0  0  0  0
 20  5  1  0  0  0  0
 21  3  1  1  0  0  0
 21 22  1  0  0  0  0
 21 27  1  0  0  0  0
 23 24  1  1  0  0  0
 23 29  1  0  0  0  0
 25 26  1  6  0  0  0
 25 31  1  0  0  0  0
 27  7  1  6  0  0  0
 27 28  1  0  0  0  0
 29 30  1  6  0  0  0
 29 33  1  0  0  0  0
 31 32  1  1  0  0  0
 31 35  1  0  0  0  0
 33 34  1  0  0  0  0
 33 37  1  1  0  0  0
 35 36  1  6  0  0  0
 37 38  1  0  0  0  0
M  END
>  <CHROM.1>
-129.54227395,115.06859644,50.80954164,162.68442768,173.51577849,-133.32411487
105.92482790,-88.61170631,-176.02505141,-163.28454315,-59.73676586,2.23000239
40.94230979,-1.89904040,-1.42861416,0.68062436,2.93942202

>  <Name>
1ntb_lig

>  <RI>
0

>  <Rbt.Current_Directory>
/home/itssahil/PROJECTS/Mol_Feturizer/New_Systems/rnas/1ntb

>  <Rbt.Executable>
rbdock ($Id: //depot/dev/client3/rdock/2013.1/src/exe/rbdock.cxx#4 $)

>  <Rbt.Library>
libRbt.so (2013.1, Build901 2013/11/27)

>  <Rbt.Parameter_File>
/export/apps/rDock/src/rDock_2013.1_src/data/scripts/dock_solv.prm

>  <Rbt.Receptor>
prm/pocket_docking_8.prm

>  <SCORE>
-13.1446

>  <SCORE.INTER>
0.264812

>  <SCORE.INTER.CONST>
1

>  <SCORE.INTER.POLAR>
-0.72111

>  <SCORE.INTER.ROT>
11

>  <SCORE.INTER.SOLV>
6.25739

>  <SCORE.INTER.VDW>
-10.4389

>  <SCORE.INTER.norm>
0.00662029

>  <SCORE.INTRA>
-13.4094

>  <SCORE.INTRA.DIHEDRAL>
-7.58656

>  <SCORE.INTRA.DIHEDRAL.0>
15.4453

>  <SCORE.INTRA.POLAR>
0

>  <SCORE.INTRA.POLAR.0>
0

>  <SCORE.INTRA.REPUL>
-0.773765

>  <SCORE.INTRA.REPUL.0>
0.823958

>  <SCORE.INTRA.SOLV>
-0.132065

>  <SCORE.INTRA.SOLV.lig_0>
-99.3069

>  <SCORE.INTRA.VDW>
-5.68123

>  <SCORE.INTRA.VDW.0>
0.946495

>  <SCORE.INTRA.norm>
-0.335234

>  <SCORE.RESTR>
0

>  <SCORE.RESTR.CAVITY>
0

>  <SCORE.RESTR.norm>
0

>  <SCORE.SYSTEM>
0

>  <SCORE.SYSTEM.CONST>
0

>  <SCORE.SYSTEM.DIHEDRAL>
0

>  <SCORE.SYSTEM.SOLV>
0

>  <SCORE.SYSTEM.norm>
0

>  <SCORE.heavy>
40

>  <SCORE.norm>
-0.328614

>  <RMSD>
8.211

$$$$
1ntb_lig
 OpenBabel11021811403D
libRbt.so/2013.1/901 2013/11/27
 40 42  0  0  0  0  0  0  0  0999 V2000
   -1.9401   39.8280   -7.1091 C   0  0  0  0  0  0  0  0  0  0  0  0
   -1.8523   41.0017   -7.6040 N   0  0  0  0  0  0  0  0  0  0  0  0
    5.4014   39.7336    0.1734 C   0  0  0  0  0  0  0  0  0  0  0  0
    5.7625   38.4491   -0.3063 O   0  0  0  0  0  0  0  0  0  0  0  0
    0.7511   36.0648   -2.8831 C   0  0  0  0  0  0  0  0  0  0  0  0
    1.9553   35.9851   -2.4407 N   0  0  0  0  0  0  0  0  0  0  0  0
    5.4948   42.0311   -2.1272 C   0  0  0  0  0  0  0  0  0  0  0  0
    1.9553   41.6787    2.9091 C   0  0  0  0  0  0  0  0  0  0  0  0
    0.0394   38.6411   -6.6207 C   0  0  2  0  0  0  0  0  0  0  0  0
   -1.0866   38.9424   -7.5861 N   0  0  0  0  0  0  0  0  0  0  0  0
    2.7981   39.7963   -2.4254 C   0  0  2  0  0  0  0  0  0  0  0  0
    2.4731   39.1408    1.1251 C   0  0  1  0  0  0  0  0  0  0  0  0
    2.1836   39.6082   -0.1795 O   0  0  0  0  0  0  0  0  0  0  0  0
   -0.4952   38.0256   -5.3322 C   0  0  1  0  0  0  0  0  0  0  0  0
   -1.2294   36.8008   -5.7712 O   0  0  0  0  0  0  0  0  0  0  0  0
    3.2254   39.4078   -1.0217 C   0  0  2  0  0  0  0  0  0  0  0  0
    1.3042   39.4620    2.0246 C   0  0  1  0  0  0  0  0  0  0  0  0
    1.1105   40.8681    2.0787 N   0  0  0  0  0  0  0  0  0  0  0  0
    0.6024   37.7310   -4.3118 C   0  0  2  0  0  0  0  0  0  0  0  0
    0.1491   37.1404   -3.0695 N   0  0  0  0  0  0  0  0  0  0  0  0
    4.3661   40.3490   -0.7388 C   0  0  1  0  0  0  0  0  0  0  0  0
    3.8679   41.5634   -0.1676 O   0  0  0  0  0  0  0  0  0  0  0  0
    0.0692   38.7950    1.4428 C   0  0  2  0  0  0  0  0  0  0  0  0
   -1.0593   39.0725    2.2429 O   0  0  0  0  0  0  0  0  0  0  0  0
    1.3057   39.0259   -3.9977 C   0  0  1  0  0  0  0  0  0  0  0  0
    2.4467   38.6420   -3.1811 O   0  0  0  0  0  0  0  0  0  0  0  0
    4.9501   40.6272   -2.0745 C   0  0  1  0  0  0  0  0  0  0  0  0
    3.9014   40.4719   -3.0334 O   0  0  0  0  0  0  0  0  0  0  0  0
    0.3461   37.2917    1.4151 C   0  0  1  0  0  0  0  0  0  0  0  0
   -0.7660   36.5948    0.8752 O   0  0  0  0  0  0  0  0  0  0  0  0
    1.8996   39.6390   -5.2944 C   0  0  2  0  0  0  0  0  0  0  0  0
    2.5689   40.8489   -4.9744 O   0  0  0  0  0  0  0  0  0  0  0  0
    1.5893   37.0325    0.5636 C   0  0  1  0  0  0  0  0  0  0  0  0
    2.7060   37.7345    1.1072 O   0  0  0  0  0  0  0  0  0  0  0  0
    0.7610   39.9319   -6.2904 C   0  0  1  0  0  0  0  0  0  0  0  0
    1.2931   40.4988   -7.4937 O   0  0  0  0  0  0  0  0  0  0  0  0
    1.8855   35.5326    0.5619 C   0  0  0  0  0  0  0  0  0  0  0  0
    2.0246   35.0840    1.9005 O   0  0  0  0  0  0  0  0  0  0  0  0
   -2.8182   39.5169   -6.2216 N   0  0  0  0  0  0  0  0  0  0  0  0
    0.1474   35.0251   -3.2010 N   0  0  0  0  0  0  0  0  0  0  0  0
  1  2  1  0  0  0  0
  1 39  1  0  0  0  0
  3  4  1  0  0  0  0
  5  6  1  0  0  0  0
  5 40  1  0  0  0  0
  9 10  1  6  0  0  0
  9 14  1  0  0  0  0
  9 35  1  0  0  0  0
 10  1  1  0  0  0  0
 11 16  1  0  0  0  0
 11 28  1  0  0  0  0
 11 26  1  6  0  0  0
 12 17  1  0  0  0  0
 12 34  1  0  0  0  0
 12 13  1  6  0  0  0
 14 15  1  6  0  0  0
 14 19  1  0  0  0  0
 16 13  1  1  0  0  0
 16 21  1  0  0  0  0
 17 18  1  6  0  0  0
 17 23  1  0  0  0  0
 18  8  1  0  0  0  0
 19 20  1  1  0  0  0
 19 25  1  0  0  0  0
 20  5  1  0  0  0  0
 21  3  1  1  0  0  0
 21 22  1  0  0  0  0
 21 27  1  0  0  0  0
 23 24  1  1  0  0  0
 23 29  1  0  0  0  0
 25 26  1  1  0  0  0
 25 31  1  0  0  0  0
 27  7  1  1  0  0  0
 27 28  1  0  0  0  0
 29 30  1  6  0  0  0
 29 33  1  0  0  0  0
 31 32  1  1  0  0  0
 31 35  1  0  0  0  0
 33 34  1  0  0  0  0
 33 37  1  1  0  0  0
 35 36  1  6  0  0  0
 37 38  1  0  0  0  0
M  END
>  <CHROM.1>
62.40632859,104.81794921,142.12490303,176.96511166,174.19898288,-78.62185921
123.62968490,78.51604501,49.54269707,-156.49230422,-56.07927449,1.52779389
38.84510763,-2.13612240,2.03565789,-0.69930695,-1.21616710

>  <Name>
1ntb_lig

>  <RI>
0

>  <Rbt.Current_Directory>
/home/itssahil/PROJECTS/Mol_Feturizer/New_Systems/rnas/1ntb

>  <Rbt.Executable>
rbdock ($Id: //depot/dev/client3/rdock/2013.1/src/exe/rbdock.cxx#4 $)

>  <Rbt.Library>
libRbt.so (2013.1, Build901 2013/11/27)

>  <Rbt.Parameter_File>
/export/apps/rDock/src/rDock_2013.1_src/data/scripts/dock_solv.prm

>  <Rbt.Receptor>
prm/pocket_docking_7.prm

>  <SCORE>
-17.6686

>  <SCORE.INTER>
-9.33364

>  <SCORE.INTER.CONST>
1

>  <SCORE.INTER.POLAR>
-1.09829

>  <SCORE.INTER.ROT>
11

>  <SCORE.INTER.SOLV>
9.4649

>  <SCORE.INTER.VDW>
-16.6498

>  <SCORE.INTER.norm>
-0.233341

>  <SCORE.INTRA>
-8.33499

>  <SCORE.INTRA.DIHEDRAL>
-4.71869

>  <SCORE.INTRA.DIHEDRAL.0>
15.4453

>  <SCORE.INTRA.POLAR>
0

>  <SCORE.INTRA.POLAR.0>
0

>  <SCORE.INTRA.REPUL>
-0.823958

>  <SCORE.INTRA.REPUL.0>
0.823958

>  <SCORE.INTRA.SOLV>
3.22208

>  <SCORE.INTRA.SOLV.lig_0>
-99.3069

>  <SCORE.INTRA.VDW>
-3.4669

>  <SCORE.INTRA.VDW.0>
0.946495

>  <SCORE.INTRA.norm>
-0.208375

>  <SCORE.RESTR>
0

>  <SCORE.RESTR.CAVITY>
0

>  <SCORE.RESTR.norm>
0

>  <SCORE.SYSTEM>
0

>  <SCORE.SYSTEM.CONST>
0

>  <SCORE.SYSTEM.DIHEDRAL>
0

>  <SCORE.SYSTEM.SOLV>
0

>  <SCORE.SYSTEM.norm>
0

>  <SCORE.heavy>
40

>  <SCORE.norm>
-0.441716

>  <RMSD>
8.250

$$$$
1ntb_lig
 OpenBabel11021811403D
libRbt.so/2013.1/901 2013/11/27
 40 42  0  0  0  0  0  0  0  0999 V2000
   -0.6862   36.2101   -7.1016 C   0  0  0  0  0  0  0  0  0  0  0  0
   -0.5320   36.6700   -8.2827 N   0  0  0  0  0  0  0  0  0  0  0  0
    2.7531   42.3773    1.3289 C   0  0  0  0  0  0  0  0  0  0  0  0
    2.9912   43.1960    0.1960 O   0  0  0  0  0  0  0  0  0  0  0  0
    1.2649   36.0902   -1.5150 C   0  0  0  0  0  0  0  0  0  0  0  0
    0.4966   35.1326   -1.1345 N   0  0  0  0  0  0  0  0  0  0  0  0
   -0.3736   41.4904    1.1974 C   0  0  0  0  0  0  0  0  0  0  0  0
    4.9827   41.0938   -2.5689 C   0  0  0  0  0  0  0  0  0  0  0  0
    0.0207   37.6190   -5.3463 C   0  0  2  0  0  0  0  0  0  0  0  0
   -1.1052   37.0786   -6.2014 N   0  0  0  0  0  0  0  0  0  0  0  0
    1.7373   39.6654   -0.9401 C   0  0  2  0  0  0  0  0  0  0  0  0
    4.4681   38.7752   -0.4536 C   0  0  1  0  0  0  0  0  0  0  0  0
    3.5730   39.3625    0.4727 O   0  0  0  0  0  0  0  0  0  0  0  0
   -0.1171   37.1513   -3.9016 C   0  0  1  0  0  0  0  0  0  0  0  0
   -0.1222   35.6596   -3.9831 O   0  0  0  0  0  0  0  0  0  0  0  0
    2.8200   40.3276   -0.1075 C   0  0  2  0  0  0  0  0  0  0  0  0
    5.6482   39.6981   -0.6379 C   0  0  1  0  0  0  0  0  0  0  0  0
    5.2082   40.9439   -1.1594 N   0  0  0  0  0  0  0  0  0  0  0  0
    0.9813   37.6965   -2.9911 C   0  0  2  0  0  0  0  0  0  0  0  0
    0.9004   37.2788   -1.6067 N   0  0  0  0  0  0  0  0  0  0  0  0
    2.0361   41.1157    0.9081 C   0  0  1  0  0  0  0  0  0  0  0  0
    1.7618   40.3016    2.0531 O   0  0  0  0  0  0  0  0  0  0  0  0
    6.2939   39.9089    0.7213 C   0  0  2  0  0  0  0  0  0  0  0  0
    7.4012   40.7758    0.6075 O   0  0  0  0  0  0  0  0  0  0  0  0
    0.9234   39.2013   -3.0413 C   0  0  1  0  0  0  0  0  0  0  0  0
    2.1038   39.6443   -2.3156 O   0  0  0  0  0  0  0  0  0  0  0  0
    0.7669   41.4463    0.2137 C   0  0  1  0  0  0  0  0  0  0  0  0
    0.5383   40.4217   -0.7565 O   0  0  0  0  0  0  0  0  0  0  0  0
    6.7419   38.5348    1.2197 C   0  0  1  0  0  0  0  0  0  0  0  0
    7.3533   38.6476    2.4953 O   0  0  0  0  0  0  0  0  0  0  0  0
    1.1133   39.6944   -4.5011 C   0  0  2  0  0  0  0  0  0  0  0  0
    1.0698   41.1127   -4.5237 O   0  0  0  0  0  0  0  0  0  0  0  0
    5.5223   37.6164    1.3035 C   0  0  1  0  0  0  0  0  0  0  0  0
    4.9085   37.5049    0.0205 O   0  0  0  0  0  0  0  0  0  0  0  0
   -0.0193   39.1333   -5.3824 C   0  0  1  0  0  0  0  0  0  0  0  0
    0.1416   39.5798   -6.7341 O   0  0  0  0  0  0  0  0  0  0  0  0
    5.9746   36.2328    1.7710 C   0  0  0  0  0  0  0  0  0  0  0  0
    6.9018   35.7054    0.8358 O   0  0  0  0  0  0  0  0  0  0  0  0
   -0.4271   34.9869   -6.7978 N   0  0  0  0  0  0  0  0  0  0  0  0
    2.4604   35.8525   -1.7614 N   0  0  0  0  0  0  0  0  0  0  0  0
  1  2  1  0  0  0  0
  1 39  1  0  0  0  0
  3  4  1  0  0  0  0
  5  6  1  0  0  0  0
  5 40  1  0  0  0  0
  9 10  1  6  0  0  0
  9 14  1  0  0  0  0
  9 35  1  0  0  0  0
 10  1  1  0  0  0  0
 11 16  1  0  0  0  0
 11 28  1  0  0  0  0
 11 26  1  6  0  0  0
 12 17  1  0  0  0  0
 12 34  1  0  0  0  0
 12 13  1  1  0  0  0
 14 15  1  6  0  0  0
 14 19  1  0  0  0  0
 16 13  1  1  0  0  0
 16 21  1  0  0  0  0
 17 18  1  1  0  0  0
 17 23  1  0  0  0  0
 18  8  1  0  0  0  0
 19 20  1  1  0  0  0
 19 25  1  0  0  0  0
 20  5  1  0  0  0  0
 21  3  1  1  0  0  0
 21 22  1  0  0  0  0
 21 27  1  0  0  0  0
 23 24  1  6  0  0  0
 23 29  1  0  0  0  0
 25 26  1  1  0  0  0
 25 31  1  0  0  0  0
 27  7  1  1  0  0  0
 27 28  1  0  0  0  0
 29 30  1  1  0  0  0
 29 33  1  0  0  0  0
 31 32  1  1  0  0  0
 31 35  1  0  0  0  0
 33 34  1  0  0  0  0
 33 37  1  6  0  0  0
 35 36  1  6  0  0  0
 37 38  1  0  0  0  0
M  END
>  <CHROM.1>
-112.91593392,-99.53405890,-170.79117801,78.81517240,76.44592712,-82.31930691
74.61147366,-116.33548304,58.70751283,-85.14615960,-60.45208305,2.49810871
38.80030475,-1.67525121,-2.55805775,-0.73703318,0.45716761

>  <Name>
1ntb_lig

>  <RI>
0

>  <Rbt.Current_Directory>
/home/itssahil/PROJECTS/Mol_Feturizer/New_Systems/rnas/1ntb

>  <Rbt.Executable>
rbdock ($Id: //depot/dev/client3/rdock/2013.1/src/exe/rbdock.cxx#4 $)

>  <Rbt.Library>
libRbt.so (2013.1, Build901 2013/11/27)

>  <Rbt.Parameter_File>
/export/apps/rDock/src/rDock_2013.1_src/data/scripts/dock_solv.prm

>  <Rbt.Receptor>
prm/pocket_docking_5.prm

>  <SCORE>
-17.6395

>  <SCORE.INTER>
-7.84665

>  <SCORE.INTER.CONST>
1

>  <SCORE.INTER.POLAR>
-0.399403

>  <SCORE.INTER.ROT>
11

>  <SCORE.INTER.SOLV>
14.5385

>  <SCORE.INTER.VDW>
-19.6793

>  <SCORE.INTER.norm>
-0.196166

>  <SCORE.INTRA>
-9.79283

>  <SCORE.INTRA.DIHEDRAL>
-6.74098

>  <SCORE.INTRA.DIHEDRAL.0>
15.4453

>  <SCORE.INTRA.POLAR>
0

>  <SCORE.INTRA.POLAR.0>
0

>  <SCORE.INTRA.REPUL>
-0.823958

>  <SCORE.INTRA.REPUL.0>
0.823958

>  <SCORE.INTRA.SOLV>
0.65619

>  <SCORE.INTRA.SOLV.lig_0>
-99.3069

>  <SCORE.INTRA.VDW>
-2.63064

>  <SCORE.INTRA.VDW.0>
0.946495

>  <SCORE.INTRA.norm>
-0.244821

>  <SCORE.RESTR>
0

>  <SCORE.RESTR.CAVITY>
0

>  <SCORE.RESTR.norm>
0

>  <SCORE.SYSTEM>
0

>  <SCORE.SYSTEM.CONST>
0

>  <SCORE.SYSTEM.DIHEDRAL>
0

>  <SCORE.SYSTEM.SOLV>
0

>  <SCORE.SYSTEM.norm>
0

>  <SCORE.heavy>
40

>  <SCORE.norm>
-0.440987

>  <RMSD>
8.270

$$$$
1ntb_lig
 OpenBabel11021811403D
libRbt.so/2013.1/901 2013/11/27
 40 42  0  0  0  0  0  0  0  0999 V2000
   -1.1469   42.7886   -0.3666 C   0  0  0  0  0  0  0  0  0  0  0  0
   -1.8364   43.3145    0.5704 N   0  0  0  0  0  0  0  0  0  0  0  0
   -3.4939   32.4348   -3.4244 C   0  0  0  0  0  0  0  0  0  0  0  0
   -4.3923   31.9193   -4.3926 O   0  0  0  0  0  0  0  0  0  0  0  0
    0.8530   37.3424   -2.9913 C   0  0  0  0  0  0  0  0  0  0  0  0
    0.9135   36.2409   -2.3316 N   0  0  0  0  0  0  0  0  0  0  0  0
   -4.6182   34.8041   -5.3487 C   0  0  0  0  0  0  0  0  0  0  0  0
   -0.0119   31.4834   -5.6207 C   0  0  0  0  0  0  0  0  0  0  0  0
   -1.6953   40.6231   -1.1254 C   0  0  2  0  0  0  0  0  0  0  0  0
   -1.8332   42.1229   -1.2755 N   0  0  0  0  0  0  0  0  0  0  0  0
   -2.1273   35.8344   -3.0927 C   0  0  2  0  0  0  0  0  0  0  0  0
   -0.3635   32.6820   -2.8778 C   0  0  1  0  0  0  0  0  0  0  0  0
   -0.6711   34.0141   -3.2451 O   0  0  0  0  0  0  0  0  0  0  0  0
   -1.0030   40.0136   -2.3395 C   0  0  1  0  0  0  0  0  0  0  0  0
    0.3139   40.7146   -2.4189 O   0  0  0  0  0  0  0  0  0  0  0  0
   -1.9460   34.3373   -2.9207 C   0  0  2  0  0  0  0  0  0  0  0  0
    0.9593   32.3024   -3.4981 C   0  0  1  0  0  0  0  0  0  0  0  0
    0.8651   32.3726   -4.9135 N   0  0  0  0  0  0  0  0  0  0  0  0
   -0.8674   38.4951   -2.2487 C   0  0  2  0  0  0  0  0  0  0  0  0
   -0.2118   37.8645   -3.3757 N   0  0  0  0  0  0  0  0  0  0  0  0
   -2.9379   33.7587   -3.8946 C   0  0  1  0  0  0  0  0  0  0  0  0
   -2.3285   33.6065   -5.1808 O   0  0  0  0  0  0  0  0  0  0  0  0
    2.0072   33.2849   -3.0030 C   0  0  2  0  0  0  0  0  0  0  0  0
    3.2661   32.9805   -3.5625 O   0  0  0  0  0  0  0  0  0  0  0  0
   -2.2497   37.9115   -2.1112 C   0  0  1  0  0  0  0  0  0  0  0  0
   -2.0328   36.4994   -1.8374 O   0  0  0  0  0  0  0  0  0  0  0  0
   -4.0144   34.7776   -3.9684 C   0  0  1  0  0  0  0  0  0  0  0  0
   -3.4187   36.0421   -3.6695 O   0  0  0  0  0  0  0  0  0  0  0  0
    2.0553   33.1555   -1.4804 C   0  0  1  0  0  0  0  0  0  0  0  0
    3.0130   34.0518   -0.9388 O   0  0  0  0  0  0  0  0  0  0  0  0
   -2.9483   38.4856   -0.8492 C   0  0  2  0  0  0  0  0  0  0  0  0
   -4.2415   37.9131   -0.7307 O   0  0  0  0  0  0  0  0  0  0  0  0
    0.6697   33.4648   -0.9128 C   0  0  1  0  0  0  0  0  0  0  0  0
   -0.2918   32.5634   -1.4590 O   0  0  0  0  0  0  0  0  0  0  0  0
   -3.0761   40.0151   -0.9858 C   0  0  1  0  0  0  0  0  0  0  0  0
   -3.7197   40.5607    0.1719 O   0  0  0  0  0  0  0  0  0  0  0  0
    0.7092   33.3040    0.6071 C   0  0  0  0  0  0  0  0  0  0  0  0
    1.1431   31.9914    0.9253 O   0  0  0  0  0  0  0  0  0  0  0  0
    0.1360   42.8770   -0.4128 N   0  0  0  0  0  0  0  0  0  0  0  0
    1.8998   37.9710   -3.2272 N   0  0  0  0  0  0  0  0  0  0  0  0
  1  2  1  0  0  0  0
  1 39  1  0  0  0  0
  3  4  1  0  0  0  0
  5  6  1  0  0  0  0
  5 40  1  0  0  0  0
  9 10  1  6  0  0  0
  9 14  1  0  0  0  0
  9 35  1  0  0  0  0
 10  1  1  0  0  0  0
 11 16  1  0  0  0  0
 11 28  1  0  0  0  0
 11 26  1  1  0  0  0
 12 17  1  0  0  0  0
 12 34  1  0  0  0  0
 12 13  1  1  0  0  0
 14 15  1  1  0  0  0
 14 19  1  0  0  0  0
 16 13  1  6  0  0  0
 16 21  1  0  0  0  0
 17 18  1  6  0  0  0
 17 23  1  0  0  0  0
 18  8  1  0  0  0  0
 19 20  1  6  0  0  0
 19 25  1  0  0  0  0
 20  5  1  0  0  0  0
 21  3  1  1  0  0  0
 21 22  1  0  0  0  0
 21 27  1  0  0  0  0
 23 24  1  6  0  0  0
 23 29  1  0  0  0  0
 25 26  1  1  0  0  0
 25 31  1  0  0  0  0
 27  7  1  6  0  0  0
 27 28  1  0  0  0  0
 29 30  1  1  0  0  0
 29 33  1  0  0  0  0
 31 32  1  6  0  0  0
 31 35  1  0  0  0  0
 33 34  1  0  0  0  0
 33 37  1  1  0  0  0
 35 36  1  1  0  0  0
 37 38  1  0  0  0  0
M  END
>  <CHROM.1>
-115.89077610,-105.20920027,-178.74203328,169.18454807,169.31421827,-64.78045855
115.68995342,76.09928628,-178.43174159,-95.57349734,-56.93140863,-0.97198447
36.11921097,-2.34825372,-1.74776503,0.32774037,-2.82414832

>  <Name>
1ntb_lig

>  <RI>
0

>  <Rbt.Current_Directory>
/home/itssahil/PROJECTS/Mol_Feturizer/New_Systems/rnas/1ntb

>  <Rbt.Executable>
rbdock ($Id: //depot/dev/client3/rdock/2013.1/src/exe/rbdock.cxx#4 $)

>  <Rbt.Library>
libRbt.so (2013.1, Build901 2013/11/27)

>  <Rbt.Parameter_File>
/export/apps/rDock/src/rDock_2013.1_src/data/scripts/dock_solv.prm

>  <Rbt.Receptor>
prm/pocket_docking_6.prm

>  <SCORE>
-7.84465

>  <SCORE.INTER>
3.68516

>  <SCORE.INTER.CONST>
1

>  <SCORE.INTER.POLAR>
-0.803715

>  <SCORE.INTER.ROT>
11

>  <SCORE.INTER.SOLV>
10.1372

>  <SCORE.INTER.VDW>
-9.17657

>  <SCORE.INTER.norm>
0.0921289

>  <SCORE.INTRA>
-11.5298

>  <SCORE.INTRA.DIHEDRAL>
-5.89506

>  <SCORE.INTRA.DIHEDRAL.0>
15.4453

>  <SCORE.INTRA.POLAR>
0

>  <SCORE.INTRA.POLAR.0>
0

>  <SCORE.INTRA.REPUL>
-0.823958

>  <SCORE.INTRA.REPUL.0>
0.823958

>  <SCORE.INTRA.SOLV>
3.31052

>  <SCORE.INTRA.SOLV.lig_0>
-99.3069

>  <SCORE.INTRA.VDW>
-6.11775

>  <SCORE.INTRA.VDW.0>
0.946495

>  <SCORE.INTRA.norm>
-0.288245

>  <SCORE.RESTR>
0

>  <SCORE.RESTR.CAVITY>
0

>  <SCORE.RESTR.norm>
0

>  <SCORE.SYSTEM>
0

>  <SCORE.SYSTEM.CONST>
0

>  <SCORE.SYSTEM.DIHEDRAL>
0

>  <SCORE.SYSTEM.SOLV>
0

>  <SCORE.SYSTEM.norm>
0

>  <SCORE.heavy>
40

>  <SCORE.norm>
-0.196116

>  <RMSD>
8.289

$$$$
1ntb_lig
 OpenBabel11021811403D
libRbt.so/2013.1/901 2013/11/27
 40 42  0  0  0  0  0  0  0  0999 V2000
    0.5153   34.9116    1.7287 C   0  0  0  0  0  0  0  0  0  0  0  0
    1.4106   34.1836    1.1824 N   0  0  0  0  0  0  0  0  0  0  0  0
   -0.2050   44.0582   -3.5771 C   0  0  0  0  0  0  0  0  0  0  0  0
   -0.7995   45.2848   -3.9672 O   0  0  0  0  0  0  0  0  0  0  0  0
    0.9761   37.9990   -3.6316 C   0  0  0  0  0  0  0  0  0  0  0  0
    0.1115   38.1618   -4.5686 N   0  0  0  0  0  0  0  0  0  0  0  0
   -3.4055   43.9821   -3.0013 C   0  0  0  0  0  0  0  0  0  0  0  0
    1.0746   45.5536    0.8698 C   0  0  0  0  0  0  0  0  0  0  0  0
   -0.0226   36.9136    0.6024 C   0  0  2  0  0  0  0  0  0  0  0  0
    0.7424   36.2108    1.7032 N   0  0  0  0  0  0  0  0  0  0  0  0
   -1.6381   41.2347   -1.7039 C   0  0  2  0  0  0  0  0  0  0  0  0
    1.4137   43.1037   -1.1114 C   0  0  1  0  0  0  0  0  0  0  0  0
    0.2523   42.3292   -0.8760 O   0  0  0  0  0  0  0  0  0  0  0  0
    0.9252   37.4536   -0.4630 C   0  0  1  0  0  0  0  0  0  0  0  0
    1.6753   36.2561   -0.9479 O   0  0  0  0  0  0  0  0  0  0  0  0
   -0.4403   42.1119   -2.0196 C   0  0  2  0  0  0  0  0  0  0  0  0
    2.0801   43.3911    0.2122 C   0  0  1  0  0  0  0  0  0  0  0  0
    1.1998   44.1343    1.0430 N   0  0  0  0  0  0  0  0  0  0  0  0
    0.2014   38.1992   -1.5823 C   0  0  2  0  0  0  0  0  0  0  0  0
    1.0555   38.7297   -2.6247 N   0  0  0  0  0  0  0  0  0  0  0  0
   -1.0703   43.3748   -2.5441 C   0  0  1  0  0  0  0  0  0  0  0  0
   -1.3435   44.2710   -1.4618 O   0  0  0  0  0  0  0  0  0  0  0  0
    2.4073   42.0610    0.8698 C   0  0  2  0  0  0  0  0  0  0  0  0
    3.0254   42.2727    2.1203 O   0  0  0  0  0  0  0  0  0  0  0  0
   -0.5633   39.3402   -0.9631 C   0  0  1  0  0  0  0  0  0  0  0  0
   -1.3717   39.8786   -2.0461 O   0  0  0  0  0  0  0  0  0  0  0  0
   -2.3459   42.9215   -3.1524 C   0  0  1  0  0  0  0  0  0  0  0  0
   -2.7411   41.7322   -2.4650 O   0  0  0  0  0  0  0  0  0  0  0  0
    3.3539   41.3186   -0.0737 C   0  0  1  0  0  0  0  0  0  0  0  0
    3.7033   40.0556    0.4708 O   0  0  0  0  0  0  0  0  0  0  0  0
   -1.5694   38.7999    0.0887 C   0  0  2  0  0  0  0  0  0  0  0  0
   -2.2882   39.8881    0.6486 O   0  0  0  0  0  0  0  0  0  0  0  0
    2.6619   41.1325   -1.4244 C   0  0  1  0  0  0  0  0  0  0  0  0
    2.3107   42.4031   -1.9699 O   0  0  0  0  0  0  0  0  0  0  0  0
   -0.7997   38.0667    1.2041 C   0  0  1  0  0  0  0  0  0  0  0  0
   -1.7148   37.5618    2.1838 O   0  0  0  0  0  0  0  0  0  0  0  0
    3.6200   40.4187   -2.3783 C   0  0  0  0  0  0  0  0  0  0  0  0
    4.7676   41.2284   -2.5779 O   0  0  0  0  0  0  0  0  0  0  0  0
   -0.5298   34.4147    2.2915 N   0  0  0  0  0  0  0  0  0  0  0  0
    1.7565   37.0320   -3.6823 N   0  0  0  0  0  0  0  0  0  0  0  0
  1  2  1  0  0  0  0
  1 39  1  0  0  0  0
  3  4  1  0  0  0  0
  5  6  1  0  0  0  0
  5 40  1  0  0  0  0
  9 10  1  1  0  0  0
  9 14  1  0  0  0  0
  9 35  1  0  0  0  0
 10  1  1  0  0  0  0
 11 16  1  0  0  0  0
 11 28  1  0  0  0  0
 11 26  1  6  0  0  0
 12 17  1  0  0  0  0
 12 34  1  0  0  0  0
 12 13  1  1  0  0  0
 14 15  1  6  0  0  0
 14 19  1  0  0  0  0
 16 13  1  1  0  0  0
 16 21  1  0  0  0  0
 17 18  1  1  0  0  0
 17 23  1  0  0  0  0
 18  8  1  0  0  0  0
 19 20  1  6  0  0  0
 19 25  1  0  0  0  0
 20  5  1  0  0  0  0
 21  3  1  6  0  0  0
 21 22  1  0  0  0  0
 21 27  1  0  0  0  0
 23 24  1  1  0  0  0
 23 29  1  0  0  0  0
 25 26  1  6  0  0  0
 25 31  1  0  0  0  0
 27  7  1  1  0  0  0
 27 28  1  0  0  0  0
 29 30  1  1  0  0  0
 29 33  1  0  0  0  0
 31 32  1  1  0  0  0
 31 35  1  0  0  0  0
 33 34  1  0  0  0  0
 33 37  1  6  0  0  0
 35 36  1  1  0  0  0
 37 38  1  0  0  0  0
M  END
>  <CHROM.1>
-112.62875956,99.80234373,79.24696317,175.94880363,177.84366307,-81.11846116
103.23899662,89.33827551,-175.95137601,-155.33672640,-62.12536670,0.45958295
40.35839814,-0.93974791,1.48452206,0.39829547,2.86797550

>  <Name>
1ntb_lig

>  <RI>
0

>  <Rbt.Current_Directory>
/home/itssahil/PROJECTS/Mol_Feturizer/New_Systems/rnas/1ntb

>  <Rbt.Executable>
rbdock ($Id: //depot/dev/client3/rdock/2013.1/src/exe/rbdock.cxx#4 $)

>  <Rbt.Library>
libRbt.so (2013.1, Build901 2013/11/27)

>  <Rbt.Parameter_File>
/export/apps/rDock/src/rDock_2013.1_src/data/scripts/dock_solv.prm

>  <Rbt.Receptor>
prm/pocket_docking_7.prm

>  <SCORE>
-6.82937

>  <SCORE.INTER>
8.1325

>  <SCORE.INTER.CONST>
1

>  <SCORE.INTER.POLAR>
-0.719424

>  <SCORE.INTER.ROT>
11

>  <SCORE.INTER.SOLV>
9.64268

>  <SCORE.INTER.VDW>
-6.32781

>  <SCORE.INTER.norm>
0.203312

>  <SCORE.INTRA>
-14.9619

>  <SCORE.INTRA.DIHEDRAL>
-7.14728

>  <SCORE.INTRA.DIHEDRAL.0>
15.4453

>  <SCORE.INTRA.POLAR>
0

>  <SCORE.INTRA.POLAR.0>
0

>  <SCORE.INTRA.REPUL>
-0.823958

>  <SCORE.INTRA.REPUL.0>
0.823958

>  <SCORE.INTRA.SOLV>
-1.15778

>  <SCORE.INTRA.SOLV.lig_0>
-99.3069

>  <SCORE.INTRA.VDW>
-6.68956

>  <SCORE.INTRA.VDW.0>
0.946495

>  <SCORE.INTRA.norm>
-0.374047

>  <SCORE.RESTR>
0

>  <SCORE.RESTR.CAVITY>
0

>  <SCORE.RESTR.norm>
0

>  <SCORE.SYSTEM>
0

>  <SCORE.SYSTEM.CONST>
0

>  <SCORE.SYSTEM.DIHEDRAL>
0

>  <SCORE.SYSTEM.SOLV>
0

>  <SCORE.SYSTEM.norm>
0

>  <SCORE.heavy>
40

>  <SCORE.norm>
-0.170734

>  <RMSD>
8.294

$$$$
1ntb_lig
 OpenBabel11021811403D
libRbt.so/2013.1/901 2013/11/27
 40 42  0  0  0  0  0  0  0  0999 V2000
   -1.3483   41.5492   -4.9838 C   0  0  0  0  0  0  0  0  0  0  0  0
   -2.4878   41.4878   -5.5565 N   0  0  0  0  0  0  0  0  0  0  0  0
    1.8785   32.2384   -0.2094 C   0  0  0  0  0  0  0  0  0  0  0  0
    2.9925   32.7827   -0.8972 O   0  0  0  0  0  0  0  0  0  0  0  0
   -3.4872   36.0684   -3.0504 C   0  0  0  0  0  0  0  0  0  0  0  0
   -4.6076   36.6816   -2.9065 N   0  0  0  0  0  0  0  0  0  0  0  0
    0.7727   34.6443    1.6798 C   0  0  0  0  0  0  0  0  0  0  0  0
   -2.8260   29.0448   -1.2474 C   0  0  0  0  0  0  0  0  0  0  0  0
   -0.9298   39.4931   -3.9053 C   0  0  2  0  0  0  0  0  0  0  0  0
   -1.2706   40.9643   -3.8039 N   0  0  0  0  0  0  0  0  0  0  0  0
   -0.2395   34.8630   -1.6793 C   0  0  2  0  0  0  0  0  0  0  0  0
   -0.2436   31.3395   -2.4712 C   0  0  1  0  0  0  0  0  0  0  0  0
   -0.7263   32.6169   -2.0979 O   0  0  0  0  0  0  0  0  0  0  0  0
   -1.8989   38.6497   -3.0840 C   0  0  1  0  0  0  0  0  0  0  0  0
   -3.2486   38.9744   -3.6360 O   0  0  0  0  0  0  0  0  0  0  0  0
    0.2824   33.4383   -1.7201 C   0  0  2  0  0  0  0  0  0  0  0  0
   -1.4229   30.4353   -2.7366 C   0  0  1  0  0  0  0  0  0  0  0  0
   -2.2006   30.2994   -1.5558 N   0  0  0  0  0  0  0  0  0  0  0  0
   -1.5774   37.1573   -3.1301 C   0  0  2  0  0  0  0  0  0  0  0  0
   -2.4711   36.3087   -2.3694 N   0  0  0  0  0  0  0  0  0  0  0  0
    0.7075   33.1891   -0.2973 C   0  0  1  0  0  0  0  0  0  0  0  0
   -0.3955   32.6810    0.4607 O   0  0  0  0  0  0  0  0  0  0  0  0
   -2.2609   31.0694   -3.8340 C   0  0  2  0  0  0  0  0  0  0  0  0
   -3.3864   30.2666   -4.1155 O   0  0  0  0  0  0  0  0  0  0  0  0
   -0.1767   36.9665   -2.6088 C   0  0  1  0  0  0  0  0  0  0  0  0
    0.1277   35.5665   -2.8612 O   0  0  0  0  0  0  0  0  0  0  0  0
    1.0879   34.5306    0.2107 C   0  0  1  0  0  0  0  0  0  0  0  0
    0.3310   35.4913   -0.5290 O   0  0  0  0  0  0  0  0  0  0  0  0
   -1.3659   31.1839   -5.0682 C   0  0  1  0  0  0  0  0  0  0  0  0
   -2.0794   31.7765   -6.1421 O   0  0  0  0  0  0  0  0  0  0  0  0
    0.8281   37.7803   -3.4680 C   0  0  2  0  0  0  0  0  0  0  0  0
    2.1410   37.5755   -2.9695 O   0  0  0  0  0  0  0  0  0  0  0  0
   -0.1454   32.0356   -4.7178 C   0  0  1  0  0  0  0  0  0  0  0  0
    0.5701   31.4388   -3.6375 O   0  0  0  0  0  0  0  0  0  0  0  0
    0.4769   39.2783   -3.3850 C   0  0  1  0  0  0  0  0  0  0  0  0
    1.3960   40.0440   -4.1732 O   0  0  0  0  0  0  0  0  0  0  0  0
    0.7660   32.1236   -5.9423 C   0  0  0  0  0  0  0  0  0  0  0  0
    0.1260   32.8972   -6.9444 O   0  0  0  0  0  0  0  0  0  0  0  0
   -0.3450   42.1619   -5.5067 N   0  0  0  0  0  0  0  0  0  0  0  0
   -3.4003   35.1409   -3.8743 N   0  0  0  0  0  0  0  0  0  0  0  0
  1  2  1  0  0  0  0
  1 39  1  0  0  0  0
  3  4  1  0  0  0  0
  5  6  1  0  0  0  0
  5 40  1  0  0  0  0
  9 10  1  1  0  0  0
  9 14  1  0  0  0  0
  9 35  1  0  0  0  0
 10  1  1  0  0  0  0
 11 16  1  0  0  0  0
 11 28  1  0  0  0  0
 11 26  1  6  0  0  0
 12 17  1  0  0  0  0
 12 34  1  0  0  0  0
 12 13  1  6  0  0  0
 14 15  1  6  0  0  0
 14 19  1  0  0  0  0
 16 13  1  1  0  0  0
 16 21  1  0  0  0  0
 17 18  1  1  0  0  0
 17 23  1  0  0  0  0
 18  8  1  0  0  0  0
 19 20  1  1  0  0  0
 19 25  1  0  0  0  0
 20  5  1  0  0  0  0
 21  3  1  1  0  0  0
 21 22  1  0  0  0  0
 21 27  1  0  0  0  0
 23 24  1  6  0  0  0
 23 29  1  0  0  0  0
 25 26  1  6  0  0  0
 25 31  1  0  0  0  0
 27  7  1  1  0  0  0
 27 28  1  0  0  0  0
 29 30  1  6  0  0  0
 29 33  1  0  0  0  0
 31 32  1  1  0  0  0
 31 35  1  0  0  0  0
 33 34  1  0  0  0  0
 33 37  1  6  0  0  0
 35 36  1  6  0  0  0
 37 38  1  0  0  0  0
M  END
>  <CHROM.1>
-129.80675839,87.10221703,-168.85668342,174.01639352,165.64868776,-143.72140234
82.79336954,-99.82305120,60.54221632,-92.40395400,68.69247080,-0.73264029
35.01200264,-2.96999266,1.60071151,-0.89624940,-0.15313457

>  <Name>
1ntb_lig

>  <RI>
0

>  <Rbt.Current_Directory>
/home/itssahil/PROJECTS/Mol_Feturizer/New_Systems/rnas/1ntb

>  <Rbt.Executable>
rbdock ($Id: //depot/dev/client3/rdock/2013.1/src/exe/rbdock.cxx#4 $)

>  <Rbt.Library>
libRbt.so (2013.1, Build901 2013/11/27)

>  <Rbt.Parameter_File>
/export/apps/rDock/src/rDock_2013.1_src/data/scripts/dock_solv.prm

>  <Rbt.Receptor>
prm/pocket_docking_5.prm

>  <SCORE>
-13.4833

>  <SCORE.INTER>
-1.53489

>  <SCORE.INTER.CONST>
1

>  <SCORE.INTER.POLAR>
-0.72111

>  <SCORE.INTER.ROT>
11

>  <SCORE.INTER.SOLV>
7.21368

>  <SCORE.INTER.VDW>
-11.9575

>  <SCORE.INTER.norm>
-0.0383722

>  <SCORE.INTRA>
-11.9484

>  <SCORE.INTRA.DIHEDRAL>
-5.80641

>  <SCORE.INTRA.DIHEDRAL.0>
15.4453

>  <SCORE.INTRA.POLAR>
0

>  <SCORE.INTRA.POLAR.0>
0

>  <SCORE.INTRA.REPUL>
-0.823958

>  <SCORE.INTRA.REPUL.0>
0.823958

>  <SCORE.INTRA.SOLV>
-1.39179

>  <SCORE.INTRA.SOLV.lig_0>
-99.3069

>  <SCORE.INTRA.VDW>
-4.22956

>  <SCORE.INTRA.VDW.0>
0.946495

>  <SCORE.INTRA.norm>
-0.298711

>  <SCORE.RESTR>
0

>  <SCORE.RESTR.CAVITY>
0

>  <SCORE.RESTR.norm>
0

>  <SCORE.SYSTEM>
0

>  <SCORE.SYSTEM.CONST>
0

>  <SCORE.SYSTEM.DIHEDRAL>
0

>  <SCORE.SYSTEM.SOLV>
0

>  <SCORE.SYSTEM.norm>
0

>  <SCORE.heavy>
40

>  <SCORE.norm>
-0.337083

>  <RMSD>
8.309

$$$$
1ntb_lig
 OpenBabel11021811403D
libRbt.so/2013.1/901 2013/11/27
 40 42  0  0  0  0  0  0  0  0999 V2000
   -2.3387   35.1869    5.5464 C   0  0  0  0  0  0  0  0  0  0  0  0
   -1.6238   36.2406    5.6413 N   0  0  0  0  0  0  0  0  0  0  0  0
   -1.8942   28.3241   -2.7861 C   0  0  0  0  0  0  0  0  0  0  0  0
   -2.8318   27.3105   -3.1086 O   0  0  0  0  0  0  0  0  0  0  0  0
   -0.6554   35.6132   -0.3854 C   0  0  0  0  0  0  0  0  0  0  0  0
    0.5833   35.3047   -0.2355 N   0  0  0  0  0  0  0  0  0  0  0  0
   -4.7952   28.9811   -1.4698 C   0  0  0  0  0  0  0  0  0  0  0  0
   -1.4718   30.0090   -6.6261 C   0  0  0  0  0  0  0  0  0  0  0  0
   -2.3199   34.2425    3.3846 C   0  0  2  0  0  0  0  0  0  0  0  0
   -3.0350   35.0683    4.4323 N   0  0  0  0  0  0  0  0  0  0  0  0
   -2.4259   31.5514   -1.1020 C   0  0  2  0  0  0  0  0  0  0  0  0
   -0.2924   31.0886   -3.9258 C   0  0  1  0  0  0  0  0  0  0  0  0
   -1.4498   31.5030   -3.2238 O   0  0  0  0  0  0  0  0  0  0  0  0
   -2.3113   34.9570    2.0376 C   0  0  1  0  0  0  0  0  0  0  0  0
   -1.6416   36.2654    2.3049 O   0  0  0  0  0  0  0  0  0  0  0  0
   -1.6725   30.7311   -2.1332 C   0  0  2  0  0  0  0  0  0  0  0  0
   -0.2993   31.7308   -5.2919 C   0  0  1  0  0  0  0  0  0  0  0  0
   -1.4453   31.3083   -6.0167 N   0  0  0  0  0  0  0  0  0  0  0  0
   -1.6260   34.1483    0.9381 C   0  0  2  0  0  0  0  0  0  0  0  0
   -1.5857   34.7838   -0.3627 N   0  0  0  0  0  0  0  0  0  0  0  0
   -2.6209   29.5998   -2.4292 C   0  0  1  0  0  0  0  0  0  0  0  0
   -3.5099   29.9712   -3.4879 O   0  0  0  0  0  0  0  0  0  0  0  0
   -0.3388   33.2376   -5.1002 C   0  0  2  0  0  0  0  0  0  0  0  0
   -0.3568   33.8894   -6.3513 O   0  0  0  0  0  0  0  0  0  0  0  0
   -2.3505   32.8338    0.8065 C   0  0  1  0  0  0  0  0  0  0  0  0
   -1.5361   32.0490   -0.1083 O   0  0  0  0  0  0  0  0  0  0  0  0
   -3.3872   29.4264   -1.1702 C   0  0  1  0  0  0  0  0  0  0  0  0
   -3.4040   30.6938   -0.5094 O   0  0  0  0  0  0  0  0  0  0  0  0
    0.9177   33.6204   -4.3179 C   0  0  1  0  0  0  0  0  0  0  0  0
    0.9510   35.0209   -4.0919 O   0  0  0  0  0  0  0  0  0  0  0  0
   -2.3233   32.0716    2.1588 C   0  0  2  0  0  0  0  0  0  0  0  0
   -2.9977   30.8320    2.0092 O   0  0  0  0  0  0  0  0  0  0  0  0
    0.9164   32.8750   -2.9828 C   0  0  1  0  0  0  0  0  0  0  0  0
    0.8820   31.4673   -3.2120 O   0  0  0  0  0  0  0  0  0  0  0  0
   -3.0335   32.9142    3.2358 C   0  0  1  0  0  0  0  0  0  0  0  0
   -3.0172   32.2239    4.4910 O   0  0  0  0  0  0  0  0  0  0  0  0
    2.1886   33.2325   -2.2140 C   0  0  0  0  0  0  0  0  0  0  0  0
    3.3191   32.8932   -3.0009 O   0  0  0  0  0  0  0  0  0  0  0  0
   -2.3997   34.3074    6.4837 N   0  0  0  0  0  0  0  0  0  0  0  0
   -0.9762   36.8083   -0.5095 N   0  0  0  0  0  0  0  0  0  0  0  0
  1  2  1  0  0  0  0
  1 39  1  0  0  0  0
  3  4  1  0  0  0  0
  5  6  1  0  0  0  0
  5 40  1  0  0  0  0
  9 10  1  1  0  0  0
  9 14  1  0  0  0  0
  9 35  1  0  0  0  0
 10  1  1  0  0  0  0
 11 16  1  0  0  0  0
 11 28  1  0  0  0  0
 11 26  1  1  0  0  0
 12 17  1  0  0  0  0
 12 34  1  0  0  0  0
 12 13  1  1  0  0  0
 14 15  1  1  0  0  0
 14 19  1  0  0  0  0
 16 13  1  6  0  0  0
 16 21  1  0  0  0  0
 17 18  1  6  0  0  0
 17 23  1  0  0  0  0
 18  8  1  0  0  0  0
 19 20  1  6  0  0  0
 19 25  1  0  0  0  0
 20  5  1  0  0  0  0
 21  3  1  6  0  0  0
 21 22  1  0  0  0  0
 21 27  1  0  0  0  0
 23 24  1  6  0  0  0
 23 29  1  0  0  0  0
 25 26  1  6  0  0  0
 25 31  1  0  0  0  0
 27  7  1  6  0  0  0
 27 28  1  0  0  0  0
 29 30  1  1  0  0  0
 29 33  1  0  0  0  0
 31 32  1  6  0  0  0
 31 35  1  0  0  0  0
 33 34  1  0  0  0  0
 33 37  1  6  0  0  0
 35 36  1  1  0  0  0
 37 38  1  0  0  0  0
M  END
>  <CHROM.1>
-130.80329595,94.88972515,178.96565341,165.39832636,152.73391988,-77.90706466
80.24345033,62.11484831,-177.58118688,-129.86733380,-57.89268580,-1.45009720
32.57409943,-0.86124947,-1.84538579,-0.91558171,-2.16365356

>  <Name>
1ntb_lig

>  <RI>
0

>  <Rbt.Current_Directory>
/home/itssahil/PROJECTS/Mol_Feturizer/New_Systems/rnas/1ntb

>  <Rbt.Executable>
rbdock ($Id: //depot/dev/client3/rdock/2013.1/src/exe/rbdock.cxx#4 $)

>  <Rbt.Library>
libRbt.so (2013.1, Build901 2013/11/27)

>  <Rbt.Parameter_File>
/export/apps/rDock/src/rDock_2013.1_src/data/scripts/dock_solv.prm

>  <Rbt.Receptor>
prm/pocket_docking_7.prm

>  <SCORE>
-11.5938

>  <SCORE.INTER>
-0.379

>  <SCORE.INTER.CONST>
1

>  <SCORE.INTER.POLAR>
-0.0239941

>  <SCORE.INTER.ROT>
11

>  <SCORE.INTER.SOLV>
7.41185

>  <SCORE.INTER.VDW>
-13.5766

>  <SCORE.INTER.norm>
-0.00947501

>  <SCORE.INTRA>
-11.2148

>  <SCORE.INTRA.DIHEDRAL>
-1.52283

>  <SCORE.INTRA.DIHEDRAL.0>
15.4453

>  <SCORE.INTRA.POLAR>
0

>  <SCORE.INTRA.POLAR.0>
0

>  <SCORE.INTRA.REPUL>
-0.823958

>  <SCORE.INTRA.REPUL.0>
0.823958

>  <SCORE.INTRA.SOLV>
-0.187277

>  <SCORE.INTRA.SOLV.lig_0>
-99.3069

>  <SCORE.INTRA.VDW>
-6.23997

>  <SCORE.INTRA.VDW.0>
0.946495

>  <SCORE.INTRA.norm>
-0.28037

>  <SCORE.RESTR>
0

>  <SCORE.RESTR.CAVITY>
0

>  <SCORE.RESTR.norm>
0

>  <SCORE.SYSTEM>
0

>  <SCORE.SYSTEM.CONST>
0

>  <SCORE.SYSTEM.DIHEDRAL>
0

>  <SCORE.SYSTEM.SOLV>
0

>  <SCORE.SYSTEM.norm>
0

>  <SCORE.heavy>
40

>  <SCORE.norm>
-0.289845

>  <RMSD>
8.368

$$$$
1ntb_lig
 OpenBabel11021811403D
libRbt.so/2013.1/901 2013/11/27
 40 42  0  0  0  0  0  0  0  0999 V2000
   -4.3581   39.7215    4.3932 C   0  0  0  0  0  0  0  0  0  0  0  0
   -5.6160   39.5636    4.2420 N   0  0  0  0  0  0  0  0  0  0  0  0
    2.9277   34.2673   -1.8593 C   0  0  0  0  0  0  0  0  0  0  0  0
    3.7495   35.1565   -1.1214 O   0  0  0  0  0  0  0  0  0  0  0  0
   -3.4423   36.9965   -0.7951 C   0  0  0  0  0  0  0  0  0  0  0  0
   -4.7195   36.8606   -0.7480 N   0  0  0  0  0  0  0  0  0  0  0  0
    1.2994   32.5328    0.3588 C   0  0  0  0  0  0  0  0  0  0  0  0
   -0.0668   33.6503   -5.7282 C   0  0  0  0  0  0  0  0  0  0  0  0
   -2.6887   38.5318    3.2254 C   0  0  2  0  0  0  0  0  0  0  0  0
   -3.6407   38.6144    4.3992 N   0  0  0  0  0  0  0  0  0  0  0  0
   -0.0235   35.7364   -0.2263 C   0  0  2  0  0  0  0  0  0  0  0  0
    1.0053   35.9493   -3.6948 C   0  0  1  0  0  0  0  0  0  0  0  0
    0.1783   35.8345   -2.5516 O   0  0  0  0  0  0  0  0  0  0  0  0
   -3.1784   37.5209    2.1944 C   0  0  1  0  0  0  0  0  0  0  0  0
   -4.5396   38.0001    1.8078 O   0  0  0  0  0  0  0  0  0  0  0  0
    0.9104   35.6843   -1.4218 C   0  0  2  0  0  0  0  0  0  0  0  0
    0.1298   35.9815   -4.9240 C   0  0  1  0  0  0  0  0  0  0  0  0
   -0.6110   34.7734   -5.0192 N   0  0  0  0  0  0  0  0  0  0  0  0
   -2.2337   37.3792    1.0028 C   0  0  2  0  0  0  0  0  0  0  0  0
   -2.6541   36.4335   -0.0104 N   0  0  0  0  0  0  0  0  0  0  0  0
    1.5160   34.3094   -1.3228 C   0  0  1  0  0  0  0  0  0  0  0  0
    0.6976   33.3634   -2.0189 O   0  0  0  0  0  0  0  0  0  0  0  0
   -0.8215   37.1587   -4.7900 C   0  0  2  0  0  0  0  0  0  0  0  0
   -1.6731   37.2295   -5.9127 O   0  0  0  0  0  0  0  0  0  0  0  0
   -0.8860   36.9536    1.5251 C   0  0  1  0  0  0  0  0  0  0  0  0
    0.0003   37.0272    0.3738 O   0  0  0  0  0  0  0  0  0  0  0  0
    1.5031   34.0082    0.1303 C   0  0  1  0  0  0  0  0  0  0  0  0
    0.4224   34.7471    0.7041 O   0  0  0  0  0  0  0  0  0  0  0  0
    0.0394   38.4184   -4.6938 C   0  0  1  0  0  0  0  0  0  0  0  0
   -0.7814   39.5682   -4.5594 O   0  0  0  0  0  0  0  0  0  0  0  0
   -0.3516   38.0007    2.5391 C   0  0  2  0  0  0  0  0  0  0  0  0
    0.9231   37.5883    3.0073 O   0  0  0  0  0  0  0  0  0  0  0  0
    0.9668   38.2936   -3.4846 C   0  0  1  0  0  0  0  0  0  0  0  0
    1.7905   37.1368   -3.6210 O   0  0  0  0  0  0  0  0  0  0  0  0
   -1.3251   38.1043    3.7290 C   0  0  1  0  0  0  0  0  0  0  0  0
   -0.8456   39.0674    4.6750 O   0  0  0  0  0  0  0  0  0  0  0  0
    1.8504   39.5388   -3.4066 C   0  0  0  0  0  0  0  0  0  0  0  0
    2.5515   39.6896   -4.6306 O   0  0  0  0  0  0  0  0  0  0  0  0
   -3.8223   40.8801    4.5552 N   0  0  0  0  0  0  0  0  0  0  0  0
   -2.9343   37.6825   -1.6996 N   0  0  0  0  0  0  0  0  0  0  0  0
  1  2  1  0  0  0  0
  1 39  1  0  0  0  0
  3  4  1  0  0  0  0
  5  6  1  0  0  0  0
  5 40  1  0  0  0  0
  9 10  1  1  0  0  0
  9 14  1  0  0  0  0
  9 35  1  0  0  0  0
 10  1  1  0  0  0  0
 11 16  1  0  0  0  0
 11 28  1  0  0  0  0
 11 26  1  1  0  0  0
 12 17  1  0  0  0  0
 12 34  1  0  0  0  0
 12 13  1  1  0  0  0
 14 15  1  6  0  0  0
 14 19  1  0  0  0  0
 16 13  1  6  0  0  0
 16 21  1  0  0  0  0
 17 18  1  1  0  0  0
 17 23  1  0  0  0  0
 18  8  1  0  0  0  0
 19 20  1  6  0  0  0
 19 25  1  0  0  0  0
 20  5  1  0  0  0  0
 21  3  1  6  0  0  0
 21 22  1  0  0  0  0
 21 27  1  0  0  0  0
 23 24  1  6  0  0  0
 23 29  1  0  0  0  0
 25 26  1  6  0  0  0
 25 31  1  0  0  0  0
 27  7  1  6  0  0  0
 27 28  1  0  0  0  0
 29 30  1  1  0  0  0
 29 33  1  0  0  0  0
 31 32  1  1  0  0  0
 31 35  1  0  0  0  0
 33 34  1  0  0  0  0
 33 37  1  6  0  0  0
 35 36  1  1  0  0  0
 37 38  1  0  0  0  0
M  END
>  <CHROM.1>
-106.23341755,115.23905099,-178.12527319,174.69717902,173.23848448,-89.71039144
84.47760547,-100.91677792,60.14435322,-91.47358149,-56.14818815,-0.67702506
36.94209350,-0.66988822,2.23658514,-0.74231064,1.72224194

>  <Name>
1ntb_lig

>  <RI>
0

>  <Rbt.Current_Directory>
/home/itssahil/PROJECTS/Mol_Feturizer/New_Systems/rnas/1ntb

>  <Rbt.Executable>
rbdock ($Id: //depot/dev/client3/rdock/2013.1/src/exe/rbdock.cxx#4 $)

>  <Rbt.Library>
libRbt.so (2013.1, Build901 2013/11/27)

>  <Rbt.Parameter_File>
/export/apps/rDock/src/rDock_2013.1_src/data/scripts/dock_solv.prm

>  <Rbt.Receptor>
prm/pocket_docking_8.prm

>  <SCORE>
-14.522

>  <SCORE.INTER>
-1.4559

>  <SCORE.INTER.CONST>
1

>  <SCORE.INTER.POLAR>
-1.36324

>  <SCORE.INTER.ROT>
11

>  <SCORE.INTER.SOLV>
5.60684

>  <SCORE.INTER.VDW>
-9.22876

>  <SCORE.INTER.norm>
-0.0363975

>  <SCORE.INTRA>
-13.0661

>  <SCORE.INTRA.DIHEDRAL>
-7.98795

>  <SCORE.INTRA.DIHEDRAL.0>
15.4453

>  <SCORE.INTRA.POLAR>
0

>  <SCORE.INTRA.POLAR.0>
0

>  <SCORE.INTRA.REPUL>
-0.823958

>  <SCORE.INTRA.REPUL.0>
0.823958

>  <SCORE.INTRA.SOLV>
-0.192873

>  <SCORE.INTRA.SOLV.lig_0>
-99.3069

>  <SCORE.INTRA.VDW>
-4.85592

>  <SCORE.INTRA.VDW.0>
0.946495

>  <SCORE.INTRA.norm>
-0.326653

>  <SCORE.RESTR>
0

>  <SCORE.RESTR.CAVITY>
0

>  <SCORE.RESTR.norm>
0

>  <SCORE.SYSTEM>
0

>  <SCORE.SYSTEM.CONST>
0

>  <SCORE.SYSTEM.DIHEDRAL>
0

>  <SCORE.SYSTEM.SOLV>
0

>  <SCORE.SYSTEM.norm>
0

>  <SCORE.heavy>
40

>  <SCORE.norm>
-0.36305

>  <RMSD>
8.384

$$$$
1ntb_lig
 OpenBabel11021811403D
libRbt.so/2013.1/901 2013/11/27
 40 42  0  0  0  0  0  0  0  0999 V2000
   -1.5967   32.1718    3.7803 C   0  0  0  0  0  0  0  0  0  0  0  0
   -2.2165   31.6427    2.7974 N   0  0  0  0  0  0  0  0  0  0  0  0
    1.2636   42.5031    1.2282 C   0  0  0  0  0  0  0  0  0  0  0  0
    2.5605   42.6482    0.6738 O   0  0  0  0  0  0  0  0  0  0  0  0
    0.6658   35.7752   -1.0098 C   0  0  0  0  0  0  0  0  0  0  0  0
   -0.3017   36.4328   -1.5425 N   0  0  0  0  0  0  0  0  0  0  0  0
   -0.1769   42.0252    4.1051 C   0  0  0  0  0  0  0  0  0  0  0  0
    1.8961   39.8514   -2.4938 C   0  0  0  0  0  0  0  0  0  0  0  0
   -0.6408   34.1318    2.8799 C   0  0  2  0  0  0  0  0  0  0  0  0
   -0.4520   32.7571    3.4846 N   0  0  0  0  0  0  0  0  0  0  0  0
    0.7177   39.0684    2.4279 C   0  0  2  0  0  0  0  0  0  0  0  0
    3.1158   38.6463    0.7054 C   0  0  1  0  0  0  0  0  0  0  0  0
    2.8189   39.6881    1.6168 O   0  0  0  0  0  0  0  0  0  0  0  0
    0.3749   34.3855    1.7713 C   0  0  1  0  0  0  0  0  0  0  0  0
    0.1510   33.2817    0.7898 O   0  0  0  0  0  0  0  0  0  0  0  0
    1.5104   40.0345    1.5665 C   0  0  2  0  0  0  0  0  0  0  0  0
    3.4233   39.2548   -0.6414 C   0  0  1  0  0  0  0  0  0  0  0  0
    2.2902   39.9660   -1.1184 N   0  0  0  0  0  0  0  0  0  0  0  0
    0.2441   35.7742    1.1493 C   0  0  2  0  0  0  0  0  0  0  0  0
    1.1834   36.0663    0.0863 N   0  0  0  0  0  0  0  0  0  0  0  0
    1.2555   41.3656    2.2226 C   0  0  1  0  0  0  0  0  0  0  0  0
    2.2287   41.6008    3.2457 O   0  0  0  0  0  0  0  0  0  0  0  0
    4.5933   40.2086   -0.4676 C   0  0  2  0  0  0  0  0  0  0  0  0
    4.9171   40.8150   -1.6996 O   0  0  0  0  0  0  0  0  0  0  0  0
    0.4274   36.7936    2.2435 C   0  0  1  0  0  0  0  0  0  0  0  0
    0.1006   38.0686    1.6239 O   0  0  0  0  0  0  0  0  0  0  0  0
   -0.0886   41.2199    2.8346 C   0  0  1  0  0  0  0  0  0  0  0  0
   -0.2732   39.8316    3.1201 O   0  0  0  0  0  0  0  0  0  0  0  0
    5.7715   39.3798    0.0444 C   0  0  1  0  0  0  0  0  0  0  0  0
    6.9087   40.2060    0.2390 O   0  0  0  0  0  0  0  0  0  0  0  0
   -0.6336   36.5788    3.3563 C   0  0  2  0  0  0  0  0  0  0  0  0
   -0.4524   37.5568    4.3687 O   0  0  0  0  0  0  0  0  0  0  0  0
    5.3747   38.7169    1.3639 C   0  0  1  0  0  0  0  0  0  0  0  0
    4.2309   37.8874    1.1666 O   0  0  0  0  0  0  0  0  0  0  0  0
   -0.4601   35.1739    3.9649 C   0  0  1  0  0  0  0  0  0  0  0  0
   -1.4326   34.9598    4.9947 O   0  0  0  0  0  0  0  0  0  0  0  0
    6.5413   37.8621    1.8600 C   0  0  0  0  0  0  0  0  0  0  0  0
    7.6083   38.7118    2.2498 O   0  0  0  0  0  0  0  0  0  0  0  0
   -2.0418   32.1185    4.9864 N   0  0  0  0  0  0  0  0  0  0  0  0
    1.0940   34.7537   -1.5754 N   0  0  0  0  0  0  0  0  0  0  0  0
  1  2  1  0  0  0  0
  1 39  1  0  0  0  0
  3  4  1  0  0  0  0
  5  6  1  0  0  0  0
  5 40  1  0  0  0  0
  9 10  1  1  0  0  0
  9 14  1  0  0  0  0
  9 35  1  0  0  0  0
 10  1  1  0  0  0  0
 11 16  1  0  0  0  0
 11 28  1  0  0  0  0
 11 26  1  6  0  0  0
 12 17  1  0  0  0  0
 12 34  1  0  0  0  0
 12 13  1  1  0  0  0
 14 15  1  6  0  0  0
 14 19  1  0  0  0  0
 16 13  1  1  0  0  0
 16 21  1  0  0  0  0
 17 18  1  1  0  0  0
 17 23  1  0  0  0  0
 18  8  1  0  0  0  0
 19 20  1  6  0  0  0
 19 25  1  0  0  0  0
 20  5  1  0  0  0  0
 21  3  1  6  0  0  0
 21 22  1  0  0  0  0
 21 27  1  0  0  0  0
 23 24  1  6  0  0  0
 23 29  1  0  0  0  0
 25 26  1  6  0  0  0
 25 31  1  0  0  0  0
 27  7  1  1  0  0  0
 27 28  1  0  0  0  0
 29 30  1  1  0  0  0
 29 33  1  0  0  0  0
 31 32  1  1  0  0  0
 31 35  1  0  0  0  0
 33 34  1  0  0  0  0
 33 37  1  6  0  0  0
 35 36  1  1  0  0  0
 37 38  1  0  0  0  0
M  END
>  <CHROM.1>
-141.77011633,79.06413261,130.54391472,86.28929315,82.75709202,-137.15769367
92.74832600,70.30460260,-65.37382124,-158.98884927,68.72544552,1.60226702
37.80147128,1.56602929,-2.38105948,0.64030143,0.20915986

>  <Name>
1ntb_lig

>  <RI>
0

>  <Rbt.Current_Directory>
/home/itssahil/PROJECTS/Mol_Feturizer/New_Systems/rnas/1ntb

>  <Rbt.Executable>
rbdock ($Id: //depot/dev/client3/rdock/2013.1/src/exe/rbdock.cxx#4 $)

>  <Rbt.Library>
libRbt.so (2013.1, Build901 2013/11/27)

>  <Rbt.Parameter_File>
/export/apps/rDock/src/rDock_2013.1_src/data/scripts/dock_solv.prm

>  <Rbt.Receptor>
prm/pocket_docking_6.prm

>  <SCORE>
-10.9231

>  <SCORE.INTER>
-1.93214

>  <SCORE.INTER.CONST>
1

>  <SCORE.INTER.POLAR>
0

>  <SCORE.INTER.ROT>
11

>  <SCORE.INTER.SOLV>
12.7859

>  <SCORE.INTER.VDW>
-16.4834

>  <SCORE.INTER.norm>
-0.0483036

>  <SCORE.INTRA>
-8.99091

>  <SCORE.INTRA.DIHEDRAL>
2.72629

>  <SCORE.INTRA.DIHEDRAL.0>
15.4453

>  <SCORE.INTRA.POLAR>
0

>  <SCORE.INTRA.POLAR.0>
0

>  <SCORE.INTRA.REPUL>
-0.823958

>  <SCORE.INTRA.REPUL.0>
0.823958

>  <SCORE.INTRA.SOLV>
0.064533

>  <SCORE.INTRA.SOLV.lig_0>
-99.3069

>  <SCORE.INTRA.VDW>
-6.26654

>  <SCORE.INTRA.VDW.0>
0.946495

>  <SCORE.INTRA.norm>
-0.224773

>  <SCORE.RESTR>
0

>  <SCORE.RESTR.CAVITY>
0

>  <SCORE.RESTR.norm>
0

>  <SCORE.SYSTEM>
0

>  <SCORE.SYSTEM.CONST>
0

>  <SCORE.SYSTEM.DIHEDRAL>
0

>  <SCORE.SYSTEM.SOLV>
0

>  <SCORE.SYSTEM.norm>
0

>  <SCORE.heavy>
40

>  <SCORE.norm>
-0.273076

>  <RMSD>
8.405

$$$$
1ntb_lig
 OpenBabel11021811403D
libRbt.so/2013.1/901 2013/11/27
 40 42  0  0  0  0  0  0  0  0999 V2000
   -5.6005   38.1766    0.4468 C   0  0  0  0  0  0  0  0  0  0  0  0
   -6.6136   37.5275    0.8740 N   0  0  0  0  0  0  0  0  0  0  0  0
    0.6241   32.0964   -5.4597 C   0  0  0  0  0  0  0  0  0  0  0  0
    1.3086   32.1889   -4.2215 O   0  0  0  0  0  0  0  0  0  0  0  0
   -0.6271   34.7028    0.0801 C   0  0  0  0  0  0  0  0  0  0  0  0
   -0.4252   35.4823    1.0820 N   0  0  0  0  0  0  0  0  0  0  0  0
   -1.6575   29.7787   -5.4105 C   0  0  0  0  0  0  0  0  0  0  0  0
   -1.6783   35.0606   -8.6506 C   0  0  0  0  0  0  0  0  0  0  0  0
   -4.6346   36.4780   -0.8751 C   0  0  2  0  0  0  0  0  0  0  0  0
   -5.2046   37.8766   -0.7753 N   0  0  0  0  0  0  0  0  0  0  0  0
   -2.5019   32.6763   -3.6087 C   0  0  2  0  0  0  0  0  0  0  0  0
   -0.6270   34.9261   -5.7485 C   0  0  1  0  0  0  0  0  0  0  0  0
   -1.7124   34.3083   -5.0819 O   0  0  0  0  0  0  0  0  0  0  0  0
   -3.1102   36.5085   -0.8877 C   0  0  1  0  0  0  0  0  0  0  0  0
   -2.7327   37.2021    0.3805 O   0  0  0  0  0  0  0  0  0  0  0  0
   -1.3051   33.2436   -4.3502 C   0  0  2  0  0  0  0  0  0  0  0  0
   -1.1401   36.1371   -6.4893 C   0  0  1  0  0  0  0  0  0  0  0  0
   -2.0997   35.7383   -7.4575 N   0  0  0  0  0  0  0  0  0  0  0  0
   -2.4871   35.1202   -1.0180 C   0  0  2  0  0  0  0  0  0  0  0  0
   -1.0392   35.0912   -1.0305 N   0  0  0  0  0  0  0  0  0  0  0  0
   -0.8679   32.0964   -5.2219 C   0  0  1  0  0  0  0  0  0  0  0  0
   -1.5645   32.1389   -6.4718 O   0  0  0  0  0  0  0  0  0  0  0  0
   -1.7876   37.0657   -5.4758 C   0  0  2  0  0  0  0  0  0  0  0  0
   -2.2952   38.2141   -6.1193 O   0  0  0  0  0  0  0  0  0  0  0  0
   -2.9893   34.5027   -2.2974 C   0  0  1  0  0  0  0  0  0  0  0  0
   -2.5164   33.1276   -2.2585 O   0  0  0  0  0  0  0  0  0  0  0  0
   -1.2733   30.8865   -4.4642 C   0  0  1  0  0  0  0  0  0  0  0  0
   -2.3943   31.2517   -3.6559 O   0  0  0  0  0  0  0  0  0  0  0  0
   -0.7032   37.4536   -4.4704 C   0  0  1  0  0  0  0  0  0  0  0  0
   -1.2347   38.3211   -3.4812 O   0  0  0  0  0  0  0  0  0  0  0  0
   -4.5394   34.4187   -2.2770 C   0  0  2  0  0  0  0  0  0  0  0  0
   -4.9900   33.8220   -3.4833 O   0  0  0  0  0  0  0  0  0  0  0  0
   -0.1584   36.1842   -3.8149 C   0  0  1  0  0  0  0  0  0  0  0  0
    0.3747   35.3130   -4.8109 O   0  0  0  0  0  0  0  0  0  0  0  0
   -5.1275   35.8378   -2.1570 C   0  0  1  0  0  0  0  0  0  0  0  0
   -6.5587   35.7775   -2.1370 O   0  0  0  0  0  0  0  0  0  0  0  0
    0.9485   36.5690   -2.8329 C   0  0  0  0  0  0  0  0  0  0  0  0
    2.0219   37.1587   -3.5490 O   0  0  0  0  0  0  0  0  0  0  0  0
   -4.9863   39.0491    1.1659 N   0  0  0  0  0  0  0  0  0  0  0  0
   -0.3534   33.4940    0.1821 N   0  0  0  0  0  0  0  0  0  0  0  0
  1  2  1  0  0  0  0
  1 39  1  0  0  0  0
  3  4  1  0  0  0  0
  5  6  1  0  0  0  0
  5 40  1  0  0  0  0
  9 10  1  6  0  0  0
  9 14  1  0  0  0  0
  9 35  1  0  0  0  0
 10  1  1  0  0  0  0
 11 16  1  0  0  0  0
 11 28  1  0  0  0  0
 11 26  1  1  0  0  0
 12 17  1  0  0  0  0
 12 34  1  0  0  0  0
 12 13  1  1  0  0  0
 14 15  1  1  0  0  0
 14 19  1  0  0  0  0
 16 13  1  6  0  0  0
 16 21  1  0  0  0  0
 17 18  1  6  0  0  0
 17 23  1  0  0  0  0
 18  8  1  0  0  0  0
 19 20  1  6  0  0  0
 19 25  1  0  0  0  0
 20  5  1  0  0  0  0
 21  3  1  6  0  0  0
 21 22  1  0  0  0  0
 21 27  1  0  0  0  0
 23 24  1  6  0  0  0
 23 29  1  0  0  0  0
 25 26  1  1  0  0  0
 25 31  1  0  0  0  0
 27  7  1  6  0  0  0
 27 28  1  0  0  0  0
 29 30  1  1  0  0  0
 29 33  1  0  0  0  0
 31 32  1  6  0  0  0
 31 35  1  0  0  0  0
 33 34  1  0  0  0  0
 33 37  1  1  0  0  0
 35 36  1  1  0  0  0
 37 38  1  0  0  0  0
M  END
>  <CHROM.1>
-101.06540811,-67.75108989,76.62104646,-177.39746371,177.08394586,-72.82611606
103.65602402,-86.69969745,51.40098741,-157.94187521,-63.52247107,-2.09004988
35.06316990,-3.18275531,-2.65225201,-0.99213345,3.08290284

>  <Name>
1ntb_lig

>  <RI>
0

>  <Rbt.Current_Directory>
/home/itssahil/PROJECTS/Mol_Feturizer/New_Systems/rnas/1ntb

>  <Rbt.Executable>
rbdock ($Id: //depot/dev/client3/rdock/2013.1/src/exe/rbdock.cxx#4 $)

>  <Rbt.Library>
libRbt.so (2013.1, Build901 2013/11/27)

>  <Rbt.Parameter_File>
/export/apps/rDock/src/rDock_2013.1_src/data/scripts/dock_solv.prm

>  <Rbt.Receptor>
prm/pocket_docking_6.prm

>  <SCORE>
-10.1737

>  <SCORE.INTER>
4.47325

>  <SCORE.INTER.CONST>
1

>  <SCORE.INTER.POLAR>
-0.72111

>  <SCORE.INTER.ROT>
11

>  <SCORE.INTER.SOLV>
3.91958

>  <SCORE.INTER.VDW>
-6.85399

>  <SCORE.INTER.norm>
0.111831

>  <SCORE.INTRA>
-14.647

>  <SCORE.INTRA.DIHEDRAL>
-8.11537

>  <SCORE.INTRA.DIHEDRAL.0>
15.4453

>  <SCORE.INTRA.POLAR>
0

>  <SCORE.INTRA.POLAR.0>
0

>  <SCORE.INTRA.REPUL>
-0.823958

>  <SCORE.INTRA.REPUL.0>
0.823958

>  <SCORE.INTRA.SOLV>
-0.516993

>  <SCORE.INTRA.SOLV.lig_0>
-99.3069

>  <SCORE.INTRA.VDW>
-6.21099

>  <SCORE.INTRA.VDW.0>
0.946495

>  <SCORE.INTRA.norm>
-0.366174

>  <SCORE.RESTR>
0

>  <SCORE.RESTR.CAVITY>
0

>  <SCORE.RESTR.norm>
0

>  <SCORE.SYSTEM>
0

>  <SCORE.SYSTEM.CONST>
0

>  <SCORE.SYSTEM.DIHEDRAL>
0

>  <SCORE.SYSTEM.SOLV>
0

>  <SCORE.SYSTEM.norm>
0

>  <SCORE.heavy>
40

>  <SCORE.norm>
-0.254343

>  <RMSD>
8.436

$$$$
1ntb_lig
 OpenBabel11021811403D
libRbt.so/2013.1/901 2013/11/27
 40 42  0  0  0  0  0  0  0  0999 V2000
   -3.4937   33.8975   -4.8929 C   0  0  0  0  0  0  0  0  0  0  0  0
   -4.2387   34.1726   -5.8926 N   0  0  0  0  0  0  0  0  0  0  0  0
    0.7069   43.3480   -0.9846 C   0  0  0  0  0  0  0  0  0  0  0  0
    0.3505   43.6022   -2.3332 O   0  0  0  0  0  0  0  0  0  0  0  0
    0.9917   36.2220   -1.4154 C   0  0  0  0  0  0  0  0  0  0  0  0
    1.8374   36.2641   -2.3824 N   0  0  0  0  0  0  0  0  0  0  0  0
   -1.9323   42.2350    0.5568 C   0  0  0  0  0  0  0  0  0  0  0  0
    1.8333   40.7218   -4.8294 C   0  0  0  0  0  0  0  0  0  0  0  0
   -2.6047   35.8191   -3.8521 C   0  0  2  0  0  0  0  0  0  0  0  0
   -3.6197   34.6962   -3.8506 N   0  0  0  0  0  0  0  0  0  0  0  0
   -0.3303   39.8518   -1.4704 C   0  0  2  0  0  0  0  0  0  0  0  0
    2.5021   39.4520   -1.8989 C   0  0  1  0  0  0  0  0  0  0  0  0
    1.8999   40.3361   -0.9717 O   0  0  0  0  0  0  0  0  0  0  0  0
   -1.7921   35.8232   -2.5619 C   0  0  1  0  0  0  0  0  0  0  0  0
   -1.1630   34.4694   -2.5037 O   0  0  0  0  0  0  0  0  0  0  0  0
    0.7734   40.8938   -1.4765 C   0  0  2  0  0  0  0  0  0  0  0  0
    3.3005   40.2620   -2.8915 C   0  0  1  0  0  0  0  0  0  0  0  0
    2.4388   41.1427   -3.5980 N   0  0  0  0  0  0  0  0  0  0  0  0
   -0.7729   36.9591   -2.5028 C   0  0  2  0  0  0  0  0  0  0  0  0
    0.0303   37.0068   -1.2985 N   0  0  0  0  0  0  0  0  0  0  0  0
    0.2293   41.9732   -0.5787 C   0  0  1  0  0  0  0  0  0  0  0  0
    0.5931   41.7083    0.7802 O   0  0  0  0  0  0  0  0  0  0  0  0
    4.3332   41.0640   -2.1176 C   0  0  2  0  0  0  0  0  0  0  0  0
    5.1037   41.8501   -3.0003 O   0  0  0  0  0  0  0  0  0  0  0  0
   -1.5193   38.2615   -2.6324 C   0  0  1  0  0  0  0  0  0  0  0  0
   -0.4828   39.2739   -2.7625 O   0  0  0  0  0  0  0  0  0  0  0  0
   -1.2431   41.8683   -0.7319 C   0  0  1  0  0  0  0  0  0  0  0  0
   -1.5352   40.5119   -1.0755 O   0  0  0  0  0  0  0  0  0  0  0  0
    5.2220   40.0579   -1.3860 C   0  0  1  0  0  0  0  0  0  0  0  0
    6.2148   40.7340   -0.6305 O   0  0  0  0  0  0  0  0  0  0  0  0
   -2.3117   38.2921   -3.9670 C   0  0  2  0  0  0  0  0  0  0  0  0
   -2.9949   39.5313   -4.0755 O   0  0  0  0  0  0  0  0  0  0  0  0
    4.3503   39.2072   -0.4617 C   0  0  1  0  0  0  0  0  0  0  0  0
    3.3523   38.5289   -1.2228 O   0  0  0  0  0  0  0  0  0  0  0  0
   -3.3351   37.1403   -3.9813 C   0  0  1  0  0  0  0  0  0  0  0  0
   -4.0755   37.1548   -5.2076 O   0  0  0  0  0  0  0  0  0  0  0  0
    5.2338   38.1794    0.2459 C   0  0  0  0  0  0  0  0  0  0  0  0
    6.0682   38.8467    1.1792 O   0  0  0  0  0  0  0  0  0  0  0  0
   -2.6546   32.9220   -4.9049 N   0  0  0  0  0  0  0  0  0  0  0  0
    1.0849   35.3226   -0.5616 N   0  0  0  0  0  0  0  0  0  0  0  0
  1  2  1  0  0  0  0
  1 39  1  0  0  0  0
  3  4  1  0  0  0  0
  5  6  1  0  0  0  0
  5 40  1  0  0  0  0
  9 10  1  1  0  0  0
  9 14  1  0  0  0  0
  9 35  1  0  0  0  0
 10  1  1  0  0  0  0
 11 16  1  0  0  0  0
 11 28  1  0  0  0  0
 11 26  1  6  0  0  0
 12 17  1  0  0  0  0
 12 34  1  0  0  0  0
 12 13  1  1  0  0  0
 14 15  1  6  0  0  0
 14 19  1  0  0  0  0
 16 13  1  1  0  0  0
 16 21  1  0  0  0  0
 17 18  1  1  0  0  0
 17 23  1  0  0  0  0
 18  8  1  0  0  0  0
 19 20  1  1  0  0  0
 19 25  1  0  0  0  0
 20  5  1  0  0  0  0
 21  3  1  6  0  0  0
 21 22  1  0  0  0  0
 21 27  1  0  0  0  0
 23 24  1  6  0  0  0
 23 29  1  0  0  0  0
 25 26  1  6  0  0  0
 25 31  1  0  0  0  0
 27  7  1  1  0  0  0
 27 28  1  0  0  0  0
 29 30  1  1  0  0  0
 29 33  1  0  0  0  0
 31 32  1  1  0  0  0
 31 35  1  0  0  0  0
 33 34  1  0  0  0  0
 33 37  1  6  0  0  0
 35 36  1  6  0  0  0
 37 38  1  0  0  0  0
M  END
>  <CHROM.1>
-123.96964417,-94.43885232,177.81078903,80.61905405,74.57276220,-90.97450383
83.44114849,55.59642907,56.86986088,-99.21226996,69.98799358,0.49103538,38.78797761
-2.18752469,-2.44139668,-0.30405906,0.18364054

>  <Name>
1ntb_lig

>  <RI>
0

>  <Rbt.Current_Directory>
/home/itssahil/PROJECTS/Mol_Feturizer/New_Systems/rnas/1ntb

>  <Rbt.Executable>
rbdock ($Id: //depot/dev/client3/rdock/2013.1/src/exe/rbdock.cxx#4 $)

>  <Rbt.Library>
libRbt.so (2013.1, Build901 2013/11/27)

>  <Rbt.Parameter_File>
/export/apps/rDock/src/rDock_2013.1_src/data/scripts/dock_solv.prm

>  <Rbt.Receptor>
prm/pocket_docking_5.prm

>  <SCORE>
-10.4614

>  <SCORE.INTER>
0.0894926

>  <SCORE.INTER.CONST>
1

>  <SCORE.INTER.POLAR>
-0.845271

>  <SCORE.INTER.ROT>
11

>  <SCORE.INTER.SOLV>
7.33078

>  <SCORE.INTER.VDW>
-10.4997

>  <SCORE.INTER.norm>
0.00223732

>  <SCORE.INTRA>
-10.5546

>  <SCORE.INTRA.DIHEDRAL>
-3.23093

>  <SCORE.INTRA.DIHEDRAL.0>
15.4453

>  <SCORE.INTRA.POLAR>
0

>  <SCORE.INTRA.POLAR.0>
0

>  <SCORE.INTRA.REPUL>
-0.823958

>  <SCORE.INTRA.REPUL.0>
0.823958

>  <SCORE.INTRA.SOLV>
1.54469

>  <SCORE.INTRA.SOLV.lig_0>
-99.3069

>  <SCORE.INTRA.VDW>
-5.59169

>  <SCORE.INTRA.VDW.0>
0.946495

>  <SCORE.INTRA.norm>
-0.263865

>  <SCORE.RESTR>
0.00374977

>  <SCORE.RESTR.CAVITY>
0.00374977

>  <SCORE.RESTR.norm>
9.37442e-05

>  <SCORE.SYSTEM>
0

>  <SCORE.SYSTEM.CONST>
0

>  <SCORE.SYSTEM.DIHEDRAL>
0

>  <SCORE.SYSTEM.SOLV>
0

>  <SCORE.SYSTEM.norm>
0

>  <SCORE.heavy>
40

>  <SCORE.norm>
-0.261534

>  <RMSD>
8.555

$$$$
1ntb_lig
 OpenBabel11021811403D
libRbt.so/2013.1/901 2013/11/27
 40 42  0  0  0  0  0  0  0  0999 V2000
    0.3557   37.9156   -8.3205 C   0  0  0  0  0  0  0  0  0  0  0  0
   -0.1265   36.7690   -8.6086 N   0  0  0  0  0  0  0  0  0  0  0  0
    2.7262   42.6258    1.3531 C   0  0  0  0  0  0  0  0  0  0  0  0
    3.2468   43.5438    0.4062 O   0  0  0  0  0  0  0  0  0  0  0  0
    1.0149   37.0189   -2.3711 C   0  0  0  0  0  0  0  0  0  0  0  0
    2.1416   36.4046   -2.4419 N   0  0  0  0  0  0  0  0  0  0  0  0
   -0.3998   42.1330    0.6013 C   0  0  0  0  0  0  0  0  0  0  0  0
    5.2745   41.4678   -2.5250 C   0  0  0  0  0  0  0  0  0  0  0  0
    0.7871   38.8886   -6.2151 C   0  0  2  0  0  0  0  0  0  0  0  0
   -0.2075   38.5310   -7.2986 N   0  0  0  0  0  0  0  0  0  0  0  0
    1.8690   40.3755   -1.4283 C   0  0  2  0  0  0  0  0  0  0  0  0
    4.3122   39.0645   -0.6984 C   0  0  1  0  0  0  0  0  0  0  0  0
    3.3987   39.6768    0.1931 O   0  0  0  0  0  0  0  0  0  0  0  0
    0.3265   38.3696   -4.8574 C   0  0  1  0  0  0  0  0  0  0  0  0
    0.1744   36.8953   -5.0448 O   0  0  0  0  0  0  0  0  0  0  0  0
    2.8490   40.7911   -0.3464 C   0  0  2  0  0  0  0  0  0  0  0  0
    5.6019   39.8486   -0.6836 C   0  0  1  0  0  0  0  0  0  0  0  0
    5.3621   41.1782   -1.1219 N   0  0  0  0  0  0  0  0  0  0  0  0
    1.2840   38.7325   -3.7242 C   0  0  2  0  0  0  0  0  0  0  0  0
    0.8959   38.2592   -2.4116 N   0  0  0  0  0  0  0  0  0  0  0  0
    1.9786   41.5230    0.6404 C   0  0  1  0  0  0  0  0  0  0  0  0
    1.4376   40.6014    1.5929 O   0  0  0  0  0  0  0  0  0  0  0  0
    6.1237   39.8639    0.7433 C   0  0  2  0  0  0  0  0  0  0  0  0
    7.3279   40.5955    0.8159 O   0  0  0  0  0  0  0  0  0  0  0  0
    1.4010   40.2339   -3.6764 C   0  0  1  0  0  0  0  0  0  0  0  0
    2.4628   40.4948   -2.7168 O   0  0  0  0  0  0  0  0  0  0  0  0
    0.8836   42.0879   -0.1868 C   0  0  1  0  0  0  0  0  0  0  0  0
    0.7314   41.2347   -1.3235 O   0  0  0  0  0  0  0  0  0  0  0  0
    6.3594   38.4083    1.1472 C   0  0  1  0  0  0  0  0  0  0  0  0
    6.8448   38.3378    2.4787 O   0  0  0  0  0  0  0  0  0  0  0  0
    1.9181   40.7726   -5.0375 C   0  0  2  0  0  0  0  0  0  0  0  0
    2.0345   42.1852   -4.9663 O   0  0  0  0  0  0  0  0  0  0  0  0
    5.0416   37.6419    1.0296 C   0  0  1  0  0  0  0  0  0  0  0  0
    4.5546   37.7146   -0.3094 O   0  0  0  0  0  0  0  0  0  0  0  0
    0.9199   40.3966   -6.1495 C   0  0  1  0  0  0  0  0  0  0  0  0
    1.3829   40.8872   -7.4133 O   0  0  0  0  0  0  0  0  0  0  0  0
    5.2836   36.1790    1.4023 C   0  0  0  0  0  0  0  0  0  0  0  0
    5.4846   36.0826    2.8033 O   0  0  0  0  0  0  0  0  0  0  0  0
    1.3111   38.4520   -8.9951 N   0  0  0  0  0  0  0  0  0  0  0  0
   -0.0376   36.3590   -2.3111 N   0  0  0  0  0  0  0  0  0  0  0  0
  1  2  1  0  0  0  0
  1 39  1  0  0  0  0
  3  4  1  0  0  0  0
  5  6  1  0  0  0  0
  5 40  1  0  0  0  0
  9 10  1  6  0  0  0
  9 14  1  0  0  0  0
  9 35  1  0  0  0  0
 10  1  1  0  0  0  0
 11 16  1  0  0  0  0
 11 28  1  0  0  0  0
 11 26  1  6  0  0  0
 12 17  1  0  0  0  0
 12 34  1  0  0  0  0
 12 13  1  1  0  0  0
 14 15  1  6  0  0  0
 14 19  1  0  0  0  0
 16 13  1  1  0  0  0
 16 21  1  0  0  0  0
 17 18  1  1  0  0  0
 17 23  1  0  0  0  0
 18  8  1  0  0  0  0
 19 20  1  1  0  0  0
 19 25  1  0  0  0  0
 20  5  1  0  0  0  0
 21  3  1  1  0  0  0
 21 22  1  0  0  0  0
 21 27  1  0  0  0  0
 23 24  1  6  0  0  0
 23 29  1  0  0  0  0
 25 26  1  1  0  0  0
 25 31  1  0  0  0  0
 27  7  1  1  0  0  0
 27 28  1  0  0  0  0
 29 30  1  1  0  0  0
 29 33  1  0  0  0  0
 31 32  1  1  0  0  0
 31 35  1  0  0  0  0
 33 34  1  0  0  0  0
 33 37  1  6  0  0  0
 35 36  1  6  0  0  0
 37 38  1  0  0  0  0
M  END
>  <CHROM.1>
-127.29482832,123.18716886,-173.23051596,77.25819912,72.27592737,-81.05531155
69.94443052,66.54524694,57.85451187,-80.18312079,72.37930946,2.63843655,39.48291994
-2.10040709,-2.62375624,-0.97860875,0.50723834

>  <Name>
1ntb_lig

>  <RI>
0

>  <Rbt.Current_Directory>
/home/itssahil/PROJECTS/Mol_Feturizer/New_Systems/rnas/1ntb

>  <Rbt.Executable>
rbdock ($Id: //depot/dev/client3/rdock/2013.1/src/exe/rbdock.cxx#4 $)

>  <Rbt.Library>
libRbt.so (2013.1, Build901 2013/11/27)

>  <Rbt.Parameter_File>
/export/apps/rDock/src/rDock_2013.1_src/data/scripts/dock_solv.prm

>  <Rbt.Receptor>
prm/pocket_docking_7.prm

>  <SCORE>
-18.5356

>  <SCORE.INTER>
-9.84439

>  <SCORE.INTER.CONST>
1

>  <SCORE.INTER.POLAR>
-0.72111

>  <SCORE.INTER.ROT>
11

>  <SCORE.INTER.SOLV>
16.7227

>  <SCORE.INTER.VDW>
-20.6668

>  <SCORE.INTER.norm>
-0.24611

>  <SCORE.INTRA>
-8.69248

>  <SCORE.INTRA.DIHEDRAL>
-7.85391

>  <SCORE.INTRA.DIHEDRAL.0>
15.4453

>  <SCORE.INTRA.POLAR>
0

>  <SCORE.INTRA.POLAR.0>
0

>  <SCORE.INTRA.REPUL>
-0.823958

>  <SCORE.INTRA.REPUL.0>
0.823958

>  <SCORE.INTRA.SOLV>
0.746056

>  <SCORE.INTRA.SOLV.lig_0>
-99.3069

>  <SCORE.INTRA.VDW>
-1.01876

>  <SCORE.INTRA.VDW.0>
0.946495

>  <SCORE.INTRA.norm>
-0.217312

>  <SCORE.RESTR>
0.00128226

>  <SCORE.RESTR.CAVITY>
0.00128226

>  <SCORE.RESTR.norm>
3.20565e-05

>  <SCORE.SYSTEM>
0

>  <SCORE.SYSTEM.CONST>
0

>  <SCORE.SYSTEM.DIHEDRAL>
0

>  <SCORE.SYSTEM.SOLV>
0

>  <SCORE.SYSTEM.norm>
0

>  <SCORE.heavy>
40

>  <SCORE.norm>
-0.46339

>  <RMSD>
8.559

$$$$
1ntb_lig
 OpenBabel11021811403D
libRbt.so/2013.1/901 2013/11/27
 40 42  0  0  0  0  0  0  0  0999 V2000
   -3.4904   34.4128   -6.6013 C   0  0  0  0  0  0  0  0  0  0  0  0
   -4.7399   34.1724   -6.4962 N   0  0  0  0  0  0  0  0  0  0  0  0
    0.8689   41.4208   -4.1263 C   0  0  0  0  0  0  0  0  0  0  0  0
    2.2675   41.3730   -3.8986 O   0  0  0  0  0  0  0  0  0  0  0  0
   -4.3031   37.6016   -1.1655 C   0  0  0  0  0  0  0  0  0  0  0  0
   -3.6279   37.4839   -0.0782 N   0  0  0  0  0  0  0  0  0  0  0  0
   -1.9006   42.5547   -2.8518 C   0  0  0  0  0  0  0  0  0  0  0  0
    5.1411   40.9857   -1.7618 C   0  0  0  0  0  0  0  0  0  0  0  0
   -2.6095   35.9812   -5.0749 C   0  0  2  0  0  0  0  0  0  0  0  0
   -3.1386   35.6763   -6.4598 N   0  0  0  0  0  0  0  0  0  0  0  0
   -0.8771   39.4520   -1.5553 C   0  0  2  0  0  0  0  0  0  0  0  0
    2.4996   39.0137   -1.7404 C   0  0  1  0  0  0  0  0  0  0  0  0
    1.4175   39.8400   -1.3524 O   0  0  0  0  0  0  0  0  0  0  0  0
   -3.5418   36.9305   -4.3303 C   0  0  1  0  0  0  0  0  0  0  0  0
   -4.8610   36.2296   -4.3086 O   0  0  0  0  0  0  0  0  0  0  0  0
    0.4165   39.8089   -2.2645 C   0  0  2  0  0  0  0  0  0  0  0  0
    3.6554   39.2571   -0.8005 C   0  0  1  0  0  0  0  0  0  0  0  0
    4.0673   40.6137   -0.8851 N   0  0  0  0  0  0  0  0  0  0  0  0
   -3.0344   37.2929   -2.9361 C   0  0  2  0  0  0  0  0  0  0  0  0
   -3.8858   38.1899   -2.1823 N   0  0  0  0  0  0  0  0  0  0  0  0
    0.1301   41.1739   -2.8317 C   0  0  1  0  0  0  0  0  0  0  0  0
    0.4678   42.1823   -1.8734 O   0  0  0  0  0  0  0  0  0  0  0  0
    3.1834   38.9501    0.6107 C   0  0  2  0  0  0  0  0  0  0  0  0
    4.2266   39.1716    1.5344 O   0  0  0  0  0  0  0  0  0  0  0  0
   -1.6786   37.9327   -3.0858 C   0  0  1  0  0  0  0  0  0  0  0  0
   -1.1795   38.0713   -1.7264 O   0  0  0  0  0  0  0  0  0  0  0  0
   -1.3360   41.1736   -3.0620 C   0  0  1  0  0  0  0  0  0  0  0  0
   -1.9097   40.2613   -2.1229 O   0  0  0  0  0  0  0  0  0  0  0  0
    2.7584   37.4816    0.6288 C   0  0  1  0  0  0  0  0  0  0  0  0
    2.2960   37.1174    1.9201 O   0  0  0  0  0  0  0  0  0  0  0  0
   -0.7035   36.9568   -3.7979 C   0  0  2  0  0  0  0  0  0  0  0  0
    0.5696   37.5728   -3.9158 O   0  0  0  0  0  0  0  0  0  0  0  0
    1.6484   37.2742   -0.4020 C   0  0  1  0  0  0  0  0  0  0  0  0
    2.1147   37.6417   -1.6993 O   0  0  0  0  0  0  0  0  0  0  0  0
   -1.2445   36.6266   -5.2024 C   0  0  1  0  0  0  0  0  0  0  0  0
   -0.3551   35.7262   -5.8735 O   0  0  0  0  0  0  0  0  0  0  0  0
    1.2455   35.7994   -0.4071 C   0  0  0  0  0  0  0  0  0  0  0  0
    0.1994   35.6058   -1.3456 O   0  0  0  0  0  0  0  0  0  0  0  0
   -2.6289   33.4910   -6.8540 N   0  0  0  0  0  0  0  0  0  0  0  0
   -5.4196   37.0609   -1.2524 N   0  0  0  0  0  0  0  0  0  0  0  0
  1  2  1  0  0  0  0
  1 39  1  0  0  0  0
  3  4  1  0  0  0  0
  5  6  1  0  0  0  0
  5 40  1  0  0  0  0
  9 10  1  6  0  0  0
  9 14  1  0  0  0  0
  9 35  1  0  0  0  0
 10  1  1  0  0  0  0
 11 16  1  0  0  0  0
 11 28  1  0  0  0  0
 11 26  1  6  0  0  0
 12 17  1  0  0  0  0
 12 34  1  0  0  0  0
 12 13  1  1  0  0  0
 14 15  1  1  0  0  0
 14 19  1  0  0  0  0
 16 13  1  1  0  0  0
 16 21  1  0  0  0  0
 17 18  1  1  0  0  0
 17 23  1  0  0  0  0
 18  8  1  0  0  0  0
 19 20  1  6  0  0  0
 19 25  1  0  0  0  0
 20  5  1  0  0  0  0
 21  3  1  6  0  0  0
 21 22  1  0  0  0  0
 21 27  1  0  0  0  0
 23 24  1  1  0  0  0
 23 29  1  0  0  0  0
 25 26  1  1  0  0  0
 25 31  1  0  0  0  0
 27  7  1  1  0  0  0
 27 28  1  0  0  0  0
 29 30  1  1  0  0  0
 29 33  1  0  0  0  0
 31 32  1  6  0  0  0
 31 35  1  0  0  0  0
 33 34  1  0  0  0  0
 33 37  1  6  0  0  0
 35 36  1  1  0  0  0
 37 38  1  0  0  0  0
M  END
>  <CHROM.1>
-113.80241834,99.57927044,-75.85215576,171.36708526,126.54277714,-94.54732372
116.49537977,82.03442430,-62.14421266,-124.04170899,178.99647761,-0.38711519
38.15959718,-2.51816117,-2.66883093,-0.57889605,-0.00043897

>  <Name>
1ntb_lig

>  <RI>
0

>  <Rbt.Current_Directory>
/home/itssahil/PROJECTS/Mol_Feturizer/New_Systems/rnas/1ntb

>  <Rbt.Executable>
rbdock ($Id: //depot/dev/client3/rdock/2013.1/src/exe/rbdock.cxx#4 $)

>  <Rbt.Library>
libRbt.so (2013.1, Build901 2013/11/27)

>  <Rbt.Parameter_File>
/export/apps/rDock/src/rDock_2013.1_src/data/scripts/dock_solv.prm

>  <Rbt.Receptor>
prm/pocket_docking_5.prm

>  <SCORE>
-5.99472

>  <SCORE.INTER>
3.33246

>  <SCORE.INTER.CONST>
1

>  <SCORE.INTER.POLAR>
-1.23105

>  <SCORE.INTER.ROT>
11

>  <SCORE.INTER.SOLV>
4.1504

>  <SCORE.INTER.VDW>
-5.99167

>  <SCORE.INTER.norm>
0.0833116

>  <SCORE.INTRA>
-9.32948

>  <SCORE.INTRA.DIHEDRAL>
4.31916

>  <SCORE.INTRA.DIHEDRAL.0>
15.4453

>  <SCORE.INTRA.POLAR>
0

>  <SCORE.INTRA.POLAR.0>
0

>  <SCORE.INTRA.REPUL>
-0.823958

>  <SCORE.INTRA.REPUL.0>
0.823958

>  <SCORE.INTRA.SOLV>
0.563652

>  <SCORE.INTRA.SOLV.lig_0>
-99.3069

>  <SCORE.INTRA.VDW>
-7.6511

>  <SCORE.INTRA.VDW.0>
0.946495

>  <SCORE.INTRA.norm>
-0.233237

>  <SCORE.RESTR>
0.00230184

>  <SCORE.RESTR.CAVITY>
0.00230184

>  <SCORE.RESTR.norm>
5.75459e-05

>  <SCORE.SYSTEM>
0

>  <SCORE.SYSTEM.CONST>
0

>  <SCORE.SYSTEM.DIHEDRAL>
0

>  <SCORE.SYSTEM.SOLV>
0

>  <SCORE.SYSTEM.norm>
0

>  <SCORE.heavy>
40

>  <SCORE.norm>
-0.149868

>  <RMSD>
8.589

$$$$
1ntb_lig
 OpenBabel11021811403D
libRbt.so/2013.1/901 2013/11/27
 40 42  0  0  0  0  0  0  0  0999 V2000
   -6.2664   31.1357   -4.5877 C   0  0  0  0  0  0  0  0  0  0  0  0
   -6.3638   29.9496   -5.0501 N   0  0  0  0  0  0  0  0  0  0  0  0
    0.2255   35.5599   -1.4120 C   0  0  0  0  0  0  0  0  0  0  0  0
    0.9640   35.2459   -0.2431 O   0  0  0  0  0  0  0  0  0  0  0  0
   -0.0534   30.8764   -6.4416 C   0  0  0  0  0  0  0  0  0  0  0  0
   -0.4246   29.7847   -7.0094 N   0  0  0  0  0  0  0  0  0  0  0  0
    2.3121   33.1305   -1.9815 C   0  0  0  0  0  0  0  0  0  0  0  0
    2.5634   39.5018   -2.0116 C   0  0  0  0  0  0  0  0  0  0  0  0
   -4.0932   32.0513   -4.6585 C   0  0  2  0  0  0  0  0  0  0  0  0
   -5.1914   31.3790   -3.8628 N   0  0  0  0  0  0  0  0  0  0  0  0
    0.6361   34.2965   -4.8427 C   0  0  2  0  0  0  0  0  0  0  0  0
    0.0326   37.7144   -3.9012 C   0  0  1  0  0  0  0  0  0  0  0  0
    0.7126   36.5967   -4.4422 O   0  0  0  0  0  0  0  0  0  0  0  0
   -2.7919   31.2616   -4.5695 C   0  0  1  0  0  0  0  0  0  0  0  0
   -3.1355   29.9020   -5.0844 O   0  0  0  0  0  0  0  0  0  0  0  0
    0.2595   35.4353   -3.9125 C   0  0  2  0  0  0  0  0  0  0  0  0
    0.9960   38.8736   -3.8194 C   0  0  1  0  0  0  0  0  0  0  0  0
    2.0775   38.5411   -2.9608 N   0  0  0  0  0  0  0  0  0  0  0  0
   -1.6432   31.9174   -5.3330 C   0  0  2  0  0  0  0  0  0  0  0  0
   -0.3830   31.2051   -5.2851 N   0  0  0  0  0  0  0  0  0  0  0  0
    0.9742   35.0834   -2.6348 C   0  0  1  0  0  0  0  0  0  0  0  0
    2.2959   35.6331   -2.6465 O   0  0  0  0  0  0  0  0  0  0  0  0
    1.5170   39.1485   -5.2199 C   0  0  2  0  0  0  0  0  0  0  0  0
    2.4332   40.2213   -5.1990 O   0  0  0  0  0  0  0  0  0  0  0  0
   -1.4349   33.2975   -4.7657 C   0  0  1  0  0  0  0  0  0  0  0  0
   -0.4715   33.9255   -5.6567 O   0  0  0  0  0  0  0  0  0  0  0  0
    1.0486   33.6014   -2.6539 C   0  0  1  0  0  0  0  0  0  0  0  0
    1.0427   33.1969   -4.0249 O   0  0  0  0  0  0  0  0  0  0  0  0
    0.3061   39.4986   -6.0851 C   0  0  1  0  0  0  0  0  0  0  0  0
    0.7124   39.7645   -7.4185 O   0  0  0  0  0  0  0  0  0  0  0  0
   -2.7385   34.1305   -4.8960 C   0  0  2  0  0  0  0  0  0  0  0  0
   -2.5165   35.4296   -4.3694 O   0  0  0  0  0  0  0  0  0  0  0  0
   -0.6754   38.3264   -6.0612 C   0  0  1  0  0  0  0  0  0  0  0  0
   -1.0820   38.0600   -4.7199 O   0  0  0  0  0  0  0  0  0  0  0  0
   -3.8668   33.4429   -4.1034 C   0  0  1  0  0  0  0  0  0  0  0  0
   -5.0779   34.2001   -4.2135 O   0  0  0  0  0  0  0  0  0  0  0  0
   -1.9012   38.6888   -6.9000 C   0  0  0  0  0  0  0  0  0  0  0  0
   -2.5352   39.8235   -6.3319 O   0  0  0  0  0  0  0  0  0  0  0  0
   -7.1671   32.0319   -4.7907 N   0  0  0  0  0  0  0  0  0  0  0  0
    0.7227   31.6423   -7.0396 N   0  0  0  0  0  0  0  0  0  0  0  0
  1  2  1  0  0  0  0
  1 39  1  0  0  0  0
  3  4  1  0  0  0  0
  5  6  1  0  0  0  0
  5 40  1  0  0  0  0
  9 10  1  1  0  0  0
  9 14  1  0  0  0  0
  9 35  1  0  0  0  0
 10  1  1  0  0  0  0
 11 16  1  0  0  0  0
 11 28  1  0  0  0  0
 11 26  1  1  0  0  0
 12 17  1  0  0  0  0
 12 34  1  0  0  0  0
 12 13  1  6  0  0  0
 14 15  1  6  0  0  0
 14 19  1  0  0  0  0
 16 13  1  6  0  0  0
 16 21  1  0  0  0  0
 17 18  1  1  0  0  0
 17 23  1  0  0  0  0
 18  8  1  0  0  0  0
 19 20  1  1  0  0  0
 19 25  1  0  0  0  0
 20  5  1  0  0  0  0
 21  3  1  1  0  0  0
 21 22  1  0  0  0  0
 21 27  1  0  0  0  0
 23 24  1  1  0  0  0
 23 29  1  0  0  0  0
 25 26  1  6  0  0  0
 25 31  1  0  0  0  0
 27  7  1  6  0  0  0
 27 28  1  0  0  0  0
 29 30  1  6  0  0  0
 29 33  1  0  0  0  0
 31 32  1  1  0  0  0
 31 35  1  0  0  0  0
 33 34  1  0  0  0  0
 33 37  1  6  0  0  0
 35 36  1  6  0  0  0
 37 38  1  0  0  0  0
M  END
>  <CHROM.1>
-124.99436684,97.68968148,-69.57035470,146.30503925,160.00350089,-137.06531575
118.61703902,-87.69161382,-177.91180828,-121.87946133,-61.48790317,-0.92121216
34.89534317,-4.52008508,2.19841384,0.36931736,2.96090220

>  <Name>
1ntb_lig

>  <RI>
0

>  <Rbt.Current_Directory>
/home/itssahil/PROJECTS/Mol_Feturizer/New_Systems/rnas/1ntb

>  <Rbt.Executable>
rbdock ($Id: //depot/dev/client3/rdock/2013.1/src/exe/rbdock.cxx#4 $)

>  <Rbt.Library>
libRbt.so (2013.1, Build901 2013/11/27)

>  <Rbt.Parameter_File>
/export/apps/rDock/src/rDock_2013.1_src/data/scripts/dock_solv.prm

>  <Rbt.Receptor>
prm/pocket_docking_8.prm

>  <SCORE>
-10.5184

>  <SCORE.INTER>
-1.35574

>  <SCORE.INTER.CONST>
1

>  <SCORE.INTER.POLAR>
-1.03504

>  <SCORE.INTER.ROT>
11

>  <SCORE.INTER.SOLV>
11.3273

>  <SCORE.INTER.VDW>
-12.1628

>  <SCORE.INTER.norm>
-0.0338936

>  <SCORE.INTRA>
-9.16265

>  <SCORE.INTRA.DIHEDRAL>
2.89198

>  <SCORE.INTRA.DIHEDRAL.0>
15.4453

>  <SCORE.INTRA.POLAR>
0

>  <SCORE.INTRA.POLAR.0>
0

>  <SCORE.INTRA.REPUL>
-0.823958

>  <SCORE.INTRA.REPUL.0>
0.823958

>  <SCORE.INTRA.SOLV>
0.276859

>  <SCORE.INTRA.SOLV.lig_0>
-99.3069

>  <SCORE.INTRA.VDW>
-6.62728

>  <SCORE.INTRA.VDW.0>
0.946495

>  <SCORE.INTRA.norm>
-0.229066

>  <SCORE.RESTR>
0

>  <SCORE.RESTR.CAVITY>
0

>  <SCORE.RESTR.norm>
0

>  <SCORE.SYSTEM>
0

>  <SCORE.SYSTEM.CONST>
0

>  <SCORE.SYSTEM.DIHEDRAL>
0

>  <SCORE.SYSTEM.SOLV>
0

>  <SCORE.SYSTEM.norm>
0

>  <SCORE.heavy>
40

>  <SCORE.norm>
-0.26296

>  <RMSD>
8.640

$$$$
1ntb_lig
 OpenBabel11021811403D
libRbt.so/2013.1/901 2013/11/27
 40 42  0  0  0  0  0  0  0  0999 V2000
   -0.2947   35.6182   -9.4734 C   0  0  0  0  0  0  0  0  0  0  0  0
   -0.7613   34.5340   -8.9866 N   0  0  0  0  0  0  0  0  0  0  0  0
    1.6210   43.8935   -2.3827 C   0  0  0  0  0  0  0  0  0  0  0  0
    0.8473   44.9355   -1.8117 O   0  0  0  0  0  0  0  0  0  0  0  0
    0.4673   37.1067   -3.7905 C   0  0  0  0  0  0  0  0  0  0  0  0
    1.7288   36.9192   -3.6310 N   0  0  0  0  0  0  0  0  0  0  0  0
   -1.4449   43.6228   -3.4347 C   0  0  0  0  0  0  0  0  0  0  0  0
    5.6194   42.3091   -2.7006 C   0  0  0  0  0  0  0  0  0  0  0  0
    0.0208   37.5199   -8.1133 C   0  0  2  0  0  0  0  0  0  0  0  0
   -0.8677   36.7277   -9.0481 N   0  0  0  0  0  0  0  0  0  0  0  0
    0.5852   40.8488   -4.1692 C   0  0  2  0  0  0  0  0  0  0  0  0
    2.8771   39.8420   -2.4191 C   0  0  1  0  0  0  0  0  0  0  0  0
    1.7555   40.6648   -2.1559 O   0  0  0  0  0  0  0  0  0  0  0  0
   -0.4604   37.4023   -6.6712 C   0  0  1  0  0  0  0  0  0  0  0  0
   -0.4480   35.9363   -6.3839 O   0  0  0  0  0  0  0  0  0  0  0  0
    1.5169   41.5215   -3.1776 C   0  0  2  0  0  0  0  0  0  0  0  0
    4.1134   40.5240   -1.8852 C   0  0  1  0  0  0  0  0  0  0  0  0
    4.2990   41.7687   -2.5437 N   0  0  0  0  0  0  0  0  0  0  0  0
    0.3880   38.2106   -5.6917 C   0  0  2  0  0  0  0  0  0  0  0  0
   -0.0235   38.1304   -4.3054 N   0  0  0  0  0  0  0  0  0  0  0  0
    0.7294   42.7244   -2.7304 C   0  0  1  0  0  0  0  0  0  0  0  0
   -0.0915   42.3821   -1.6087 O   0  0  0  0  0  0  0  0  0  0  0  0
    3.9144   40.7545   -0.3966 C   0  0  2  0  0  0  0  0  0  0  0  0
    5.0415   41.4011    0.1531 O   0  0  0  0  0  0  0  0  0  0  0  0
    0.3459   39.6543   -6.1208 C   0  0  1  0  0  0  0  0  0  0  0  0
    1.3183   40.3244   -5.2712 O   0  0  0  0  0  0  0  0  0  0  0  0
   -0.1282   43.0536   -3.8960 C   0  0  1  0  0  0  0  0  0  0  0  0
   -0.3449   41.8381   -4.6162 O   0  0  0  0  0  0  0  0  0  0  0  0
    3.7226   39.3803    0.2454 C   0  0  1  0  0  0  0  0  0  0  0  0
    3.5233   39.5123    1.6441 O   0  0  0  0  0  0  0  0  0  0  0  0
    0.8814   39.7960   -7.5711 C   0  0  2  0  0  0  0  0  0  0  0  0
    0.8465   41.1633   -7.9498 O   0  0  0  0  0  0  0  0  0  0  0  0
    2.5117   38.6996   -0.3936 C   0  0  1  0  0  0  0  0  0  0  0  0
    2.7135   38.5685   -1.7998 O   0  0  0  0  0  0  0  0  0  0  0  0
   -0.0072   38.9772   -8.5272 C   0  0  1  0  0  0  0  0  0  0  0  0
    0.4740   39.0977   -9.8712 O   0  0  0  0  0  0  0  0  0  0  0  0
    2.3389   37.3122    0.2252 C   0  0  0  0  0  0  0  0  0  0  0  0
    1.2127   36.6785   -0.3600 O   0  0  0  0  0  0  0  0  0  0  0  0
    0.6550   35.6326  -10.3416 N   0  0  0  0  0  0  0  0  0  0  0  0
   -0.3291   36.2072   -3.4689 N   0  0  0  0  0  0  0  0  0  0  0  0
  1  2  1  0  0  0  0
  1 39  1  0  0  0  0
  3  4  1  0  0  0  0
  5  6  1  0  0  0  0
  5 40  1  0  0  0  0
  9 10  1  6  0  0  0
  9 14  1  0  0  0  0
  9 35  1  0  0  0  0
 10  1  1  0  0  0  0
 11 16  1  0  0  0  0
 11 28  1  0  0  0  0
 11 26  1  6  0  0  0
 12 17  1  0  0  0  0
 12 34  1  0  0  0  0
 12 13  1  1  0  0  0
 14 15  1  1  0  0  0
 14 19  1  0  0  0  0
 16 13  1  1  0  0  0
 16 21  1  0  0  0  0
 17 18  1  6  0  0  0
 17 23  1  0  0  0  0
 18  8  1  0  0  0  0
 19 20  1  1  0  0  0
 19 25  1  0  0  0  0
 20  5  1  0  0  0  0
 21  3  1  1  0  0  0
 21 22  1  0  0  0  0
 21 27  1  0  0  0  0
 23 24  1  1  0  0  0
 23 29  1  0  0  0  0
 25 26  1  1  0  0  0
 25 31  1  0  0  0  0
 27  7  1  1  0  0  0
 27 28  1  0  0  0  0
 29 30  1  1  0  0  0
 29 33  1  0  0  0  0
 31 32  1  6  0  0  0
 31 35  1  0  0  0  0
 33 34  1  0  0  0  0
 33 37  1  1  0  0  0
 35 36  1  6  0  0  0
 37 38  1  0  0  0  0
M  END
>  <CHROM.1>
-106.12352886,107.99892084,177.44893191,90.50474297,89.32655975,-151.42372234
83.84883127,64.67911913,-172.70895661,-94.68283200,179.73755774,1.28196788
39.56588727,-4.09275806,-2.56546640,-1.16733740,0.11125942

>  <Name>
1ntb_lig

>  <RI>
0

>  <Rbt.Current_Directory>
/home/itssahil/PROJECTS/Mol_Feturizer/New_Systems/rnas/1ntb

>  <Rbt.Executable>
rbdock ($Id: //depot/dev/client3/rdock/2013.1/src/exe/rbdock.cxx#4 $)

>  <Rbt.Library>
libRbt.so (2013.1, Build901 2013/11/27)

>  <Rbt.Parameter_File>
/export/apps/rDock/src/rDock_2013.1_src/data/scripts/dock_solv.prm

>  <Rbt.Receptor>
prm/pocket_docking_7.prm

>  <SCORE>
-11.2457

>  <SCORE.INTER>
-2.13528

>  <SCORE.INTER.CONST>
1

>  <SCORE.INTER.POLAR>
-1.12931

>  <SCORE.INTER.ROT>
11

>  <SCORE.INTER.SOLV>
8.7385

>  <SCORE.INTER.VDW>
-11.5053

>  <SCORE.INTER.norm>
-0.0533821

>  <SCORE.INTRA>
-9.11038

>  <SCORE.INTRA.DIHEDRAL>
-0.205855

>  <SCORE.INTRA.DIHEDRAL.0>
15.4453

>  <SCORE.INTRA.POLAR>
0

>  <SCORE.INTRA.POLAR.0>
0

>  <SCORE.INTRA.REPUL>
-0.810783

>  <SCORE.INTRA.REPUL.0>
0.823958

>  <SCORE.INTRA.SOLV>
2.57356

>  <SCORE.INTRA.SOLV.lig_0>
-99.3069

>  <SCORE.INTRA.VDW>
-6.24032

>  <SCORE.INTRA.VDW.0>
0.946495

>  <SCORE.INTRA.norm>
-0.227759

>  <SCORE.RESTR>
0

>  <SCORE.RESTR.CAVITY>
0

>  <SCORE.RESTR.norm>
0

>  <SCORE.SYSTEM>
0

>  <SCORE.SYSTEM.CONST>
0

>  <SCORE.SYSTEM.DIHEDRAL>
0

>  <SCORE.SYSTEM.SOLV>
0

>  <SCORE.SYSTEM.norm>
0

>  <SCORE.heavy>
40

>  <SCORE.norm>
-0.281142

>  <RMSD>
8.763

$$$$
1ntb_lig
 OpenBabel11021811403D
libRbt.so/2013.1/901 2013/11/27
 40 42  0  0  0  0  0  0  0  0999 V2000
   -0.1560   42.4785   -6.7637 C   0  0  0  0  0  0  0  0  0  0  0  0
   -1.1951   43.0200   -7.2710 N   0  0  0  0  0  0  0  0  0  0  0  0
    2.5904   33.1281   -2.5210 C   0  0  0  0  0  0  0  0  0  0  0  0
    3.0439   32.9301   -1.1923 O   0  0  0  0  0  0  0  0  0  0  0  0
   -2.4539   36.7884   -7.0362 C   0  0  0  0  0  0  0  0  0  0  0  0
   -1.9790   35.7407   -7.6097 N   0  0  0  0  0  0  0  0  0  0  0  0
    1.4008   35.4324   -0.5575 C   0  0  0  0  0  0  0  0  0  0  0  0
   -1.8730   29.6272   -2.7117 C   0  0  0  0  0  0  0  0  0  0  0  0
   -0.0233   40.3286   -5.8015 C   0  0  2  0  0  0  0  0  0  0  0  0
   -0.3527   41.7982   -5.6508 N   0  0  0  0  0  0  0  0  0  0  0  0
    0.0872   35.4920   -3.8173 C   0  0  2  0  0  0  0  0  0  0  0  0
    0.3813   31.9223   -4.3795 C   0  0  1  0  0  0  0  0  0  0  0  0
   -0.1919   33.2011   -4.1787 O   0  0  0  0  0  0  0  0  0  0  0  0
   -1.2890   39.4788   -5.7707 C   0  0  1  0  0  0  0  0  0  0  0  0
   -2.1285   40.0052   -6.8887 O   0  0  0  0  0  0  0  0  0  0  0  0
    0.7523   34.1299   -3.8947 C   0  0  2  0  0  0  0  0  0  0  0  0
   -0.7295   30.9067   -4.4936 C   0  0  1  0  0  0  0  0  0  0  0  0
   -1.4846   30.8818   -3.2909 N   0  0  0  0  0  0  0  0  0  0  0  0
   -1.0056   37.9827   -5.8890 C   0  0  2  0  0  0  0  0  0  0  0  0
   -2.1752   37.1287   -5.8697 N   0  0  0  0  0  0  0  0  0  0  0  0
    1.3217   33.9485   -2.5127 C   0  0  1  0  0  0  0  0  0  0  0  0
    0.3480   33.3386   -1.6588 O   0  0  0  0  0  0  0  0  0  0  0  0
   -1.6220   31.3179   -5.6526 C   0  0  2  0  0  0  0  0  0  0  0  0
   -2.6870   30.4040   -5.7979 O   0  0  0  0  0  0  0  0  0  0  0  0
   -0.1054   37.5875   -4.7472 C   0  0  1  0  0  0  0  0  0  0  0  0
    0.2749   36.2124   -5.0309 O   0  0  0  0  0  0  0  0  0  0  0  0
    1.5994   35.3302   -2.0476 C   0  0  1  0  0  0  0  0  0  0  0  0
    0.6840   36.1945   -2.7247 O   0  0  0  0  0  0  0  0  0  0  0  0
   -0.7488   31.3226   -6.9075 C   0  0  1  0  0  0  0  0  0  0  0  0
   -1.5138   31.7052   -8.0398 O   0  0  0  0  0  0  0  0  0  0  0  0
    1.2105   38.4099   -4.7957 C   0  0  2  0  0  0  0  0  0  0  0  0
    2.0487   38.0126   -3.7216 O   0  0  0  0  0  0  0  0  0  0  0  0
    0.4078   32.3014   -6.7026 C   0  0  1  0  0  0  0  0  0  0  0  0
    1.1752   31.9157   -5.5635 O   0  0  0  0  0  0  0  0  0  0  0  0
    0.8823   39.9094   -4.6613 C   0  0  1  0  0  0  0  0  0  0  0  0
    2.0874   40.6829   -4.7040 O   0  0  0  0  0  0  0  0  0  0  0  0
    1.2994   32.2825   -7.9445 C   0  0  0  0  0  0  0  0  0  0  0  0
    0.6329   32.9465   -9.0063 O   0  0  0  0  0  0  0  0  0  0  0  0
    1.0133   42.6060   -7.2855 N   0  0  0  0  0  0  0  0  0  0  0  0
   -3.1957   37.5527   -7.6783 N   0  0  0  0  0  0  0  0  0  0  0  0
  1  2  1  0  0  0  0
  1 39  1  0  0  0  0
  3  4  1  0  0  0  0
  5  6  1  0  0  0  0
  5 40  1  0  0  0  0
  9 10  1  1  0  0  0
  9 14  1  0  0  0  0
  9 35  1  0  0  0  0
 10  1  1  0  0  0  0
 11 16  1  0  0  0  0
 11 28  1  0  0  0  0
 11 26  1  6  0  0  0
 12 17  1  0  0  0  0
 12 34  1  0  0  0  0
 12 13  1  6  0  0  0
 14 15  1  6  0  0  0
 14 19  1  0  0  0  0
 16 13  1  1  0  0  0
 16 21  1  0  0  0  0
 17 18  1  1  0  0  0
 17 23  1  0  0  0  0
 18  8  1  0  0  0  0
 19 20  1  1  0  0  0
 19 25  1  0  0  0  0
 20  5  1  0  0  0  0
 21  3  1  6  0  0  0
 21 22  1  0  0  0  0
 21 27  1  0  0  0  0
 23 24  1  6  0  0  0
 23 29  1  0  0  0  0
 25 26  1  6  0  0  0
 25 31  1  0  0  0  0
 27  7  1  1  0  0  0
 27 28  1  0  0  0  0
 29 30  1  6  0  0  0
 29 33  1  0  0  0  0
 31 32  1  1  0  0  0
 31 35  1  0  0  0  0
 33 34  1  0  0  0  0
 33 37  1  6  0  0  0
 35 36  1  6  0  0  0
 37 38  1  0  0  0  0
M  END
>  <CHROM.1>
-109.69859293,117.40282269,-166.73493621,171.98929701,174.90047286,-136.12413954
100.66238073,89.48743491,-176.97664139,-132.61750905,72.91362953,-0.07762421
35.60877695,-5.05377927,1.57143701,-1.02354726,-0.16899925

>  <Name>
1ntb_lig

>  <RI>
0

>  <Rbt.Current_Directory>
/home/itssahil/PROJECTS/Mol_Feturizer/New_Systems/rnas/1ntb

>  <Rbt.Executable>
rbdock ($Id: //depot/dev/client3/rdock/2013.1/src/exe/rbdock.cxx#4 $)

>  <Rbt.Library>
libRbt.so (2013.1, Build901 2013/11/27)

>  <Rbt.Parameter_File>
/export/apps/rDock/src/rDock_2013.1_src/data/scripts/dock_solv.prm

>  <Rbt.Receptor>
prm/pocket_docking_7.prm

>  <SCORE>
-15.7689

>  <SCORE.INTER>
-4.77247

>  <SCORE.INTER.CONST>
1

>  <SCORE.INTER.POLAR>
-0.580611

>  <SCORE.INTER.ROT>
11

>  <SCORE.INTER.SOLV>
6.17348

>  <SCORE.INTER.VDW>
-14.2374

>  <SCORE.INTER.norm>
-0.119312

>  <SCORE.INTRA>
-10.9964

>  <SCORE.INTRA.DIHEDRAL>
-2.88607

>  <SCORE.INTRA.DIHEDRAL.0>
15.4453

>  <SCORE.INTRA.POLAR>
0

>  <SCORE.INTRA.POLAR.0>
0

>  <SCORE.INTRA.REPUL>
-0.823958

>  <SCORE.INTRA.REPUL.0>
0.823958

>  <SCORE.INTRA.SOLV>
-1.94993

>  <SCORE.INTRA.SOLV.lig_0>
-99.3069

>  <SCORE.INTRA.VDW>
-4.45859

>  <SCORE.INTRA.VDW.0>
0.946495

>  <SCORE.INTRA.norm>
-0.274909

>  <SCORE.RESTR>
0

>  <SCORE.RESTR.CAVITY>
0

>  <SCORE.RESTR.norm>
0

>  <SCORE.SYSTEM>
0

>  <SCORE.SYSTEM.CONST>
0

>  <SCORE.SYSTEM.DIHEDRAL>
0

>  <SCORE.SYSTEM.SOLV>
0

>  <SCORE.SYSTEM.norm>
0

>  <SCORE.heavy>
40

>  <SCORE.norm>
-0.394221

>  <RMSD>
8.800

$$$$
1ntb_lig
 OpenBabel11021811403D
libRbt.so/2013.1/901 2013/11/27
 40 42  0  0  0  0  0  0  0  0999 V2000
   -5.4247   29.4272    1.0703 C   0  0  0  0  0  0  0  0  0  0  0  0
   -6.5384   30.0311    1.2291 N   0  0  0  0  0  0  0  0  0  0  0  0
    1.2203   31.9191   -7.4424 C   0  0  0  0  0  0  0  0  0  0  0  0
    1.3935   31.4973   -8.7849 O   0  0  0  0  0  0  0  0  0  0  0  0
   -3.6272   33.5501   -2.7102 C   0  0  0  0  0  0  0  0  0  0  0  0
   -4.7109   34.1582   -2.3819 N   0  0  0  0  0  0  0  0  0  0  0  0
   -1.0258   29.6894   -8.1931 C   0  0  0  0  0  0  0  0  0  0  0  0
   -0.9786   35.3710   -8.8185 C   0  0  0  0  0  0  0  0  0  0  0  0
   -3.9947   29.6104   -0.7971 C   0  0  2  0  0  0  0  0  0  0  0  0
   -5.1957   28.9621   -0.1427 N   0  0  0  0  0  0  0  0  0  0  0  0
   -1.5332   31.2647   -5.0920 C   0  0  2  0  0  0  0  0  0  0  0  0
   -0.0276   34.4309   -6.0081 C   0  0  1  0  0  0  0  0  0  0  0  0
   -1.0069   33.4661   -5.6702 O   0  0  0  0  0  0  0  0  0  0  0  0
   -4.4232   30.7333   -1.7354 C   0  0  1  0  0  0  0  0  0  0  0  0
   -5.1963   31.6765   -0.8726 O   0  0  0  0  0  0  0  0  0  0  0  0
   -0.4821   32.2179   -5.6308 C   0  0  2  0  0  0  0  0  0  0  0  0
   -0.7241   35.7167   -6.3822 C   0  0  1  0  0  0  0  0  0  0  0  0
   -1.5579   35.5016   -7.5117 N   0  0  0  0  0  0  0  0  0  0  0  0
   -3.2460   31.3998   -2.4443 C   0  0  2  0  0  0  0  0  0  0  0  0
   -3.5972   32.4779   -3.3455 N   0  0  0  0  0  0  0  0  0  0  0  0
   -0.2074   31.6797   -7.0100 C   0  0  1  0  0  0  0  0  0  0  0  0
   -1.1110   32.2663   -7.9526 O   0  0  0  0  0  0  0  0  0  0  0  0
   -1.5674   36.1540   -5.1963 C   0  0  2  0  0  0  0  0  0  0  0  0
   -2.2508   37.3512   -5.4972 O   0  0  0  0  0  0  0  0  0  0  0  0
   -2.5138   30.3409   -3.2271 C   0  0  1  0  0  0  0  0  0  0  0  0
   -1.3106   31.0000   -3.7110 O   0  0  0  0  0  0  0  0  0  0  0  0
   -0.4787   30.2252   -6.8953 C   0  0  1  0  0  0  0  0  0  0  0  0
   -1.4404   30.0571   -5.8512 O   0  0  0  0  0  0  0  0  0  0  0  0
   -0.6103   36.3671   -4.0233 C   0  0  1  0  0  0  0  0  0  0  0  0
   -1.3277   36.7737   -2.8684 O   0  0  0  0  0  0  0  0  0  0  0  0
   -2.0269   29.2148   -2.2758 C   0  0  2  0  0  0  0  0  0  0  0  0
   -1.3285   28.2364   -3.0302 O   0  0  0  0  0  0  0  0  0  0  0  0
    0.1311   35.0592   -3.7450 C   0  0  1  0  0  0  0  0  0  0  0  0
    0.8510   34.6515   -4.9072 O   0  0  0  0  0  0  0  0  0  0  0  0
   -3.2430   28.5615   -1.5912 C   0  0  1  0  0  0  0  0  0  0  0  0
   -2.8102   27.5189   -0.7092 O   0  0  0  0  0  0  0  0  0  0  0  0
    1.1117   35.2804   -2.5930 C   0  0  0  0  0  0  0  0  0  0  0  0
    1.9693   36.3641   -2.9133 O   0  0  0  0  0  0  0  0  0  0  0  0
   -4.5878   29.2579    2.0330 N   0  0  0  0  0  0  0  0  0  0  0  0
   -2.5299   34.0671   -2.4358 N   0  0  0  0  0  0  0  0  0  0  0  0
  1  2  1  0  0  0  0
  1 39  1  0  0  0  0
  3  4  1  0  0  0  0
  5  6  1  0  0  0  0
  5 40  1  0  0  0  0
  9 10  1  6  0  0  0
  9 14  1  0  0  0  0
  9 35  1  0  0  0  0
 10  1  1  0  0  0  0
 11 16  1  0  0  0  0
 11 28  1  0  0  0  0
 11 26  1  1  0  0  0
 12 17  1  0  0  0  0
 12 34  1  0  0  0  0
 12 13  1  1  0  0  0
 14 15  1  1  0  0  0
 14 19  1  0  0  0  0
 16 13  1  6  0  0  0
 16 21  1  0  0  0  0
 17 18  1  6  0  0  0
 17 23  1  0  0  0  0
 18  8  1  0  0  0  0
 19 20  1  6  0  0  0
 19 25  1  0  0  0  0
 20  5  1  0  0  0  0
 21  3  1  6  0  0  0
 21 22  1  0  0  0  0
 21 27  1  0  0  0  0
 23 24  1  6  0  0  0
 23 29  1  0  0  0  0
 25 26  1  1  0  0  0
 25 31  1  0  0  0  0
 27  7  1  6  0  0  0
 27 28  1  0  0  0  0
 29 30  1  1  0  0  0
 29 33  1  0  0  0  0
 31 32  1  6  0  0  0
 31 35  1  0  0  0  0
 33 34  1  0  0  0  0
 33 37  1  1  0  0  0
 35 36  1  1  0  0  0
 37 38  1  0  0  0  0
M  END
>  <CHROM.1>
-97.98194295,116.93721617,167.45522251,165.55026886,172.78086086,-75.21229550
88.64615518,-105.86594720,-175.06102932,-104.09475401,-55.36050044,-1.86319003
32.35657016,-3.93825794,2.73905515,-1.03014754,-2.91682195

>  <Name>
1ntb_lig

>  <RI>
0

>  <Rbt.Current_Directory>
/home/itssahil/PROJECTS/Mol_Feturizer/New_Systems/rnas/1ntb

>  <Rbt.Executable>
rbdock ($Id: //depot/dev/client3/rdock/2013.1/src/exe/rbdock.cxx#4 $)

>  <Rbt.Library>
libRbt.so (2013.1, Build901 2013/11/27)

>  <Rbt.Parameter_File>
/export/apps/rDock/src/rDock_2013.1_src/data/scripts/dock_solv.prm

>  <Rbt.Receptor>
prm/pocket_docking_7.prm

>  <SCORE>
-14.4619

>  <SCORE.INTER>
-2.55082

>  <SCORE.INTER.CONST>
1

>  <SCORE.INTER.POLAR>
-0.72111

>  <SCORE.INTER.ROT>
11

>  <SCORE.INTER.SOLV>
6.704

>  <SCORE.INTER.VDW>
-12.4648

>  <SCORE.INTER.norm>
-0.0637705

>  <SCORE.INTRA>
-11.911

>  <SCORE.INTRA.DIHEDRAL>
-4.61325

>  <SCORE.INTRA.DIHEDRAL.0>
15.4453

>  <SCORE.INTRA.POLAR>
0

>  <SCORE.INTRA.POLAR.0>
0

>  <SCORE.INTRA.REPUL>
-0.823958

>  <SCORE.INTRA.REPUL.0>
0.823958

>  <SCORE.INTRA.SOLV>
2.2463

>  <SCORE.INTRA.SOLV.lig_0>
-99.3069

>  <SCORE.INTRA.VDW>
-6.60777

>  <SCORE.INTRA.VDW.0>
0.946495

>  <SCORE.INTRA.norm>
-0.297776

>  <SCORE.RESTR>
0

>  <SCORE.RESTR.CAVITY>
0

>  <SCORE.RESTR.norm>
0

>  <SCORE.SYSTEM>
0

>  <SCORE.SYSTEM.CONST>
0

>  <SCORE.SYSTEM.DIHEDRAL>
0

>  <SCORE.SYSTEM.SOLV>
0

>  <SCORE.SYSTEM.norm>
0

>  <SCORE.heavy>
40

>  <SCORE.norm>
-0.361546

>  <RMSD>
8.801

$$$$
1ntb_lig
 OpenBabel11021811403D
libRbt.so/2013.1/901 2013/11/27
 40 42  0  0  0  0  0  0  0  0999 V2000
   -1.6891   40.2720   -0.7573 C   0  0  0  0  0  0  0  0  0  0  0  0
   -0.7085   40.8167   -0.1474 N   0  0  0  0  0  0  0  0  0  0  0  0
    1.2710   32.3006   -7.8048 C   0  0  0  0  0  0  0  0  0  0  0  0
    0.9537   32.3650   -9.1852 O   0  0  0  0  0  0  0  0  0  0  0  0
   -3.3368   37.1180   -5.6876 C   0  0  0  0  0  0  0  0  0  0  0  0
   -2.9508   37.8322   -6.6841 N   0  0  0  0  0  0  0  0  0  0  0  0
   -0.2682   31.3746   -5.0931 C   0  0  0  0  0  0  0  0  0  0  0  0
   -1.9815   32.9882  -11.3097 C   0  0  0  0  0  0  0  0  0  0  0  0
   -1.1042   38.4980   -2.1984 C   0  0  2  0  0  0  0  0  0  0  0  0
   -1.6387   38.9578   -0.8590 N   0  0  0  0  0  0  0  0  0  0  0  0
   -0.4938   34.8145   -5.7799 C   0  0  2  0  0  0  0  0  0  0  0  0
   -0.2169   34.8609   -9.3533 C   0  0  1  0  0  0  0  0  0  0  0  0
   -0.8416   34.7400   -8.0887 O   0  0  0  0  0  0  0  0  0  0  0  0
   -2.1415   37.6658   -2.9443 C   0  0  1  0  0  0  0  0  0  0  0  0
   -3.3309   38.5613   -3.0680 O   0  0  0  0  0  0  0  0  0  0  0  0
    0.0434   34.3759   -7.1300 C   0  0  2  0  0  0  0  0  0  0  0  0
   -1.2726   35.1711  -10.3867 C   0  0  1  0  0  0  0  0  0  0  0  0
   -2.2151   34.1103  -10.4456 N   0  0  0  0  0  0  0  0  0  0  0  0
   -1.6371   37.1523   -4.2914 C   0  0  2  0  0  0  0  0  0  0  0  0
   -2.5858   36.3585   -5.0447 N   0  0  0  0  0  0  0  0  0  0  0  0
    0.1375   32.8796   -6.9908 C   0  0  1  0  0  0  0  0  0  0  0  0
   -1.1016   32.2740   -7.3739 O   0  0  0  0  0  0  0  0  0  0  0  0
   -1.9697   36.4559   -9.9720 C   0  0  2  0  0  0  0  0  0  0  0  0
   -2.9771   36.7879  -10.9024 O   0  0  0  0  0  0  0  0  0  0  0  0
   -0.4075   36.3184   -4.0410 C   0  0  1  0  0  0  0  0  0  0  0  0
    0.1225   36.0288   -5.3644 O   0  0  0  0  0  0  0  0  0  0  0  0
    0.3740   32.6616   -5.5420 C   0  0  1  0  0  0  0  0  0  0  0  0
   -0.2083   33.7679   -4.8490 O   0  0  0  0  0  0  0  0  0  0  0  0
   -0.9016   37.5490   -9.9303 C   0  0  1  0  0  0  0  0  0  0  0  0
   -1.4769   38.7868   -9.5423 O   0  0  0  0  0  0  0  0  0  0  0  0
    0.6775   37.1684   -3.3265 C   0  0  2  0  0  0  0  0  0  0  0  0
    1.8307   36.3691   -3.1132 O   0  0  0  0  0  0  0  0  0  0  0  0
    0.1849   37.1422   -8.9344 C   0  0  1  0  0  0  0  0  0  0  0  0
    0.7615   35.8973   -9.3255 O   0  0  0  0  0  0  0  0  0  0  0  0
    0.1344   37.6559   -1.9694 C   0  0  1  0  0  0  0  0  0  0  0  0
    1.1248   38.4426   -1.2966 O   0  0  0  0  0  0  0  0  0  0  0  0
    1.2695   38.2197   -8.9162 C   0  0  0  0  0  0  0  0  0  0  0  0
    1.8906   38.2767  -10.1903 O   0  0  0  0  0  0  0  0  0  0  0  0
   -2.6533   40.9570   -1.2640 N   0  0  0  0  0  0  0  0  0  0  0  0
   -4.5109   37.2112   -5.2882 N   0  0  0  0  0  0  0  0  0  0  0  0
  1  2  1  0  0  0  0
  1 39  1  0  0  0  0
  3  4  1  0  0  0  0
  5  6  1  0  0  0  0
  5 40  1  0  0  0  0
  9 10  1  1  0  0  0
  9 14  1  0  0  0  0
  9 35  1  0  0  0  0
 10  1  1  0  0  0  0
 11 16  1  0  0  0  0
 11 28  1  0  0  0  0
 11 26  1  1  0  0  0
 12 17  1  0  0  0  0
 12 34  1  0  0  0  0
 12 13  1  1  0  0  0
 14 15  1  6  0  0  0
 14 19  1  0  0  0  0
 16 13  1  6  0  0  0
 16 21  1  0  0  0  0
 17 18  1  1  0  0  0
 17 23  1  0  0  0  0
 18  8  1  0  0  0  0
 19 20  1  1  0  0  0
 19 25  1  0  0  0  0
 20  5  1  0  0  0  0
 21  3  1  6  0  0  0
 21 22  1  0  0  0  0
 21 27  1  0  0  0  0
 23 24  1  6  0  0  0
 23 29  1  0  0  0  0
 25 26  1  6  0  0  0
 25 31  1  0  0  0  0
 27  7  1  1  0  0  0
 27 28  1  0  0  0  0
 29 30  1  1  0  0  0
 29 33  1  0  0  0  0
 31 32  1  1  0  0  0
 31 35  1  0  0  0  0
 33 34  1  0  0  0  0
 33 37  1  6  0  0  0
 35 36  1  6  0  0  0
 37 38  1  0  0  0  0
M  END
>  <CHROM.1>
-118.99222330,-97.93046006,-177.09929363,176.03612103,156.56802657,-87.73663022
83.99712810,68.96806398,-71.43024875,-89.94436383,-64.04956633,-0.82583818
36.25826247,-6.15548622,1.76540041,-1.19721386,1.23989623

>  <Name>
1ntb_lig

>  <RI>
0

>  <Rbt.Current_Directory>
/home/itssahil/PROJECTS/Mol_Feturizer/New_Systems/rnas/1ntb

>  <Rbt.Executable>
rbdock ($Id: //depot/dev/client3/rdock/2013.1/src/exe/rbdock.cxx#4 $)

>  <Rbt.Library>
libRbt.so (2013.1, Build901 2013/11/27)

>  <Rbt.Parameter_File>
/export/apps/rDock/src/rDock_2013.1_src/data/scripts/dock_solv.prm

>  <Rbt.Receptor>
prm/pocket_docking_8.prm

>  <SCORE>
-11.4982

>  <SCORE.INTER>
0.650209

>  <SCORE.INTER.CONST>
1

>  <SCORE.INTER.POLAR>
-0.72015

>  <SCORE.INTER.ROT>
11

>  <SCORE.INTER.SOLV>
3.81832

>  <SCORE.INTER.VDW>
-9.37213

>  <SCORE.INTER.norm>
0.0162552

>  <SCORE.INTRA>
-12.1484

>  <SCORE.INTRA.DIHEDRAL>
-5.50457

>  <SCORE.INTRA.DIHEDRAL.0>
15.4453

>  <SCORE.INTRA.POLAR>
0

>  <SCORE.INTRA.POLAR.0>
0

>  <SCORE.INTRA.REPUL>
-0.823958

>  <SCORE.INTRA.REPUL.0>
0.823958

>  <SCORE.INTRA.SOLV>
0.892108

>  <SCORE.INTRA.SOLV.lig_0>
-99.3069

>  <SCORE.INTRA.VDW>
-5.72239

>  <SCORE.INTRA.VDW.0>
0.946495

>  <SCORE.INTRA.norm>
-0.30371

>  <SCORE.RESTR>
0

>  <SCORE.RESTR.CAVITY>
0

>  <SCORE.RESTR.norm>
0

>  <SCORE.SYSTEM>
0

>  <SCORE.SYSTEM.CONST>
0

>  <SCORE.SYSTEM.DIHEDRAL>
0

>  <SCORE.SYSTEM.SOLV>
0

>  <SCORE.SYSTEM.norm>
0

>  <SCORE.heavy>
40

>  <SCORE.norm>
-0.287455

>  <RMSD>
8.846

$$$$
1ntb_lig
 OpenBabel11021811403D
libRbt.so/2013.1/901 2013/11/27
 40 42  0  0  0  0  0  0  0  0999 V2000
   -3.3053   41.2720   -4.5305 C   0  0  0  0  0  0  0  0  0  0  0  0
   -4.1876   41.1829   -5.4491 N   0  0  0  0  0  0  0  0  0  0  0  0
   -0.1801   32.4994    1.4398 C   0  0  0  0  0  0  0  0  0  0  0  0
    0.8742   33.4278    1.6316 O   0  0  0  0  0  0  0  0  0  0  0  0
   -3.3633   35.2889   -4.1974 C   0  0  0  0  0  0  0  0  0  0  0  0
   -2.3225   34.9756   -4.8834 N   0  0  0  0  0  0  0  0  0  0  0  0
   -2.8872   34.0064    2.4302 C   0  0  0  0  0  0  0  0  0  0  0  0
   -2.1697   28.8746   -2.6586 C   0  0  0  0  0  0  0  0  0  0  0  0
   -2.7007   39.4691   -3.1341 C   0  0  2  0  0  0  0  0  0  0  0  0
   -3.5964   40.6602   -3.3986 N   0  0  0  0  0  0  0  0  0  0  0  0
   -1.8197   34.9218   -0.7913 C   0  0  2  0  0  0  0  0  0  0  0  0
   -0.2705   31.7583   -1.6344 C   0  0  1  0  0  0  0  0  0  0  0  0
   -1.1988   32.8270   -1.6178 O   0  0  0  0  0  0  0  0  0  0  0  0
   -3.4852   38.1647   -3.2234 C   0  0  1  0  0  0  0  0  0  0  0  0
   -4.0656   38.1628   -4.6000 O   0  0  0  0  0  0  0  0  0  0  0  0
   -0.9275   33.7055   -0.6232 C   0  0  2  0  0  0  0  0  0  0  0  0
   -0.6385   30.8152   -2.7541 C   0  0  1  0  0  0  0  0  0  0  0  0
   -1.9370   30.2851   -2.5300 N   0  0  0  0  0  0  0  0  0  0  0  0
   -2.6295   36.9333   -2.9337 C   0  0  2  0  0  0  0  0  0  0  0  0
   -3.3253   35.6653   -3.0096 N   0  0  0  0  0  0  0  0  0  0  0  0
   -1.3301   33.1701    0.7253 C   0  0  1  0  0  0  0  0  0  0  0  0
   -2.4206   32.2539    0.5819 O   0  0  0  0  0  0  0  0  0  0  0  0
   -0.6219   31.6027   -4.0534 C   0  0  2  0  0  0  0  0  0  0  0  0
   -0.9699   30.7675   -5.1360 O   0  0  0  0  0  0  0  0  0  0  0  0
   -2.0541   37.0814   -1.5491 C   0  0  1  0  0  0  0  0  0  0  0  0
   -1.1085   35.9836   -1.4188 O   0  0  0  0  0  0  0  0  0  0  0  0
   -1.7795   34.3692    1.4753 C   0  0  1  0  0  0  0  0  0  0  0  0
   -2.2515   35.3153    0.5133 O   0  0  0  0  0  0  0  0  0  0  0  0
    0.7983   32.1404   -4.2304 C   0  0  1  0  0  0  0  0  0  0  0  0
    0.8940   32.8975   -5.4268 O   0  0  0  0  0  0  0  0  0  0  0  0
   -1.2100   38.3811   -1.4581 C   0  0  2  0  0  0  0  0  0  0  0  0
   -0.6664   38.4938   -0.1520 O   0  0  0  0  0  0  0  0  0  0  0  0
    1.1499   33.0164   -3.0276 C   0  0  1  0  0  0  0  0  0  0  0  0
    1.0523   32.2540   -1.8257 O   0  0  0  0  0  0  0  0  0  0  0  0
   -2.1109   39.5979   -1.7444 C   0  0  1  0  0  0  0  0  0  0  0  0
   -1.3461   40.8066   -1.6640 O   0  0  0  0  0  0  0  0  0  0  0  0
    2.5815   33.5283   -3.1883 C   0  0  0  0  0  0  0  0  0  0  0  0
    2.8922   34.3904   -2.1054 O   0  0  0  0  0  0  0  0  0  0  0  0
   -2.2134   41.9351   -4.6840 N   0  0  0  0  0  0  0  0  0  0  0  0
   -4.4809   35.2745   -4.7428 N   0  0  0  0  0  0  0  0  0  0  0  0
  1  2  1  0  0  0  0
  1 39  1  0  0  0  0
  3  4  1  0  0  0  0
  5  6  1  0  0  0  0
  5 40  1  0  0  0  0
  9 10  1  1  0  0  0
  9 14  1  0  0  0  0
  9 35  1  0  0  0  0
 10  1  1  0  0  0  0
 11 16  1  0  0  0  0
 11 28  1  0  0  0  0
 11 26  1  1  0  0  0
 12 17  1  0  0  0  0
 12 34  1  0  0  0  0
 12 13  1  6  0  0  0
 14 15  1  6  0  0  0
 14 19  1  0  0  0  0
 16 13  1  6  0  0  0
 16 21  1  0  0  0  0
 17 18  1  1  0  0  0
 17 23  1  0  0  0  0
 18  8  1  0  0  0  0
 19 20  1  1  0  0  0
 19 25  1  0  0  0  0
 20  5  1  0  0  0  0
 21  3  1  1  0  0  0
 21 22  1  0  0  0  0
 21 27  1  0  0  0  0
 23 24  1  6  0  0  0
 23 29  1  0  0  0  0
 25 26  1  6  0  0  0
 25 31  1  0  0  0  0
 27  7  1  1  0  0  0
 27 28  1  0  0  0  0
 29 30  1  6  0  0  0
 29 33  1  0  0  0  0
 31 32  1  1  0  0  0
 31 35  1  0  0  0  0
 33 34  1  0  0  0  0
 33 37  1  6  0  0  0
 35 36  1  6  0  0  0
 37 38  1  0  0  0  0
M  END
>  <CHROM.1>
-111.95703682,112.12636954,179.12550351,179.48403416,171.50370367,-132.50563902
83.63088614,65.01998534,59.74797948,-94.31136975,177.38770820,-1.45202562
35.17107049,-2.21779997,2.94267520,-1.27135749,1.16390059

>  <Name>
1ntb_lig

>  <RI>
0

>  <Rbt.Current_Directory>
/home/itssahil/PROJECTS/Mol_Feturizer/New_Systems/rnas/1ntb

>  <Rbt.Executable>
rbdock ($Id: //depot/dev/client3/rdock/2013.1/src/exe/rbdock.cxx#4 $)

>  <Rbt.Library>
libRbt.so (2013.1, Build901 2013/11/27)

>  <Rbt.Parameter_File>
/export/apps/rDock/src/rDock_2013.1_src/data/scripts/dock_solv.prm

>  <Rbt.Receptor>
prm/pocket_docking_7.prm

>  <SCORE>
-10.2357

>  <SCORE.INTER>
3.26674

>  <SCORE.INTER.CONST>
1

>  <SCORE.INTER.POLAR>
0

>  <SCORE.INTER.ROT>
11

>  <SCORE.INTER.SOLV>
6.65402

>  <SCORE.INTER.VDW>
-10.9735

>  <SCORE.INTER.norm>
0.0816686

>  <SCORE.INTRA>
-13.5024

>  <SCORE.INTRA.DIHEDRAL>
-6.66813

>  <SCORE.INTRA.DIHEDRAL.0>
15.4453

>  <SCORE.INTRA.POLAR>
0

>  <SCORE.INTRA.POLAR.0>
0

>  <SCORE.INTRA.REPUL>
-0.823958

>  <SCORE.INTRA.REPUL.0>
0.823958

>  <SCORE.INTRA.SOLV>
-1.09047

>  <SCORE.INTRA.SOLV.lig_0>
-99.3069

>  <SCORE.INTRA.VDW>
-5.50333

>  <SCORE.INTRA.VDW.0>
0.946495

>  <SCORE.INTRA.norm>
-0.33756

>  <SCORE.RESTR>
0

>  <SCORE.RESTR.CAVITY>
0

>  <SCORE.RESTR.norm>
0

>  <SCORE.SYSTEM>
0

>  <SCORE.SYSTEM.CONST>
0

>  <SCORE.SYSTEM.DIHEDRAL>
0

>  <SCORE.SYSTEM.SOLV>
0

>  <SCORE.SYSTEM.norm>
0

>  <SCORE.heavy>
40

>  <SCORE.norm>
-0.255892

>  <RMSD>
8.945

$$$$
1ntb_lig
 OpenBabel11021811403D
libRbt.so/2013.1/901 2013/11/27
 40 42  0  0  0  0  0  0  0  0999 V2000
   -4.3426   35.4275   -3.2611 C   0  0  0  0  0  0  0  0  0  0  0  0
   -4.7184   34.2594   -2.9081 N   0  0  0  0  0  0  0  0  0  0  0  0
    3.0369   43.0364   -0.4679 C   0  0  0  0  0  0  0  0  0  0  0  0
    2.7447   44.2962    0.1133 O   0  0  0  0  0  0  0  0  0  0  0  0
    1.4152   35.9265   -1.7206 C   0  0  0  0  0  0  0  0  0  0  0  0
    2.0967   36.4170   -2.6937 N   0  0  0  0  0  0  0  0  0  0  0  0
    0.2122   43.0850    1.1441 C   0  0  0  0  0  0  0  0  0  0  0  0
    4.9709   41.4172   -2.7817 C   0  0  0  0  0  0  0  0  0  0  0  0
   -2.8378   37.0476   -2.4385 C   0  0  2  0  0  0  0  0  0  0  0  0
   -4.1330   36.2811   -2.2774 N   0  0  0  0  0  0  0  0  0  0  0  0
    0.9525   40.0062   -0.3817 C   0  0  2  0  0  0  0  0  0  0  0  0
    4.0477   39.1536   -0.8127 C   0  0  1  0  0  0  0  0  0  0  0  0
    3.2316   39.8544    0.1077 O   0  0  0  0  0  0  0  0  0  0  0  0
   -1.7215   36.4137   -1.6157 C   0  0  1  0  0  0  0  0  0  0  0  0
   -1.6323   35.0081   -2.1138 O   0  0  0  0  0  0  0  0  0  0  0  0
    2.3257   40.6364   -0.5267 C   0  0  2  0  0  0  0  0  0  0  0  0
    5.3811   39.8546   -0.9082 C   0  0  1  0  0  0  0  0  0  0  0  0
    5.1953   41.1799   -1.3840 N   0  0  0  0  0  0  0  0  0  0  0  0
   -0.3992   37.1706   -1.7217 C   0  0  2  0  0  0  0  0  0  0  0  0
    0.6978   36.6076   -0.9619 N   0  0  0  0  0  0  0  0  0  0  0  0
    2.1625   41.9710    0.1510 C   0  0  1  0  0  0  0  0  0  0  0  0
    2.4514   41.8488    1.5477 O   0  0  0  0  0  0  0  0  0  0  0  0
    5.9925   39.8885    0.4824 C   0  0  2  0  0  0  0  0  0  0  0  0
    7.2412   40.5446    0.4518 O   0  0  0  0  0  0  0  0  0  0  0  0
   -0.6321   38.5829   -1.2513 C   0  0  1  0  0  0  0  0  0  0  0  0
    0.6029   39.2871   -1.5597 O   0  0  0  0  0  0  0  0  0  0  0  0
    0.7281   42.3028   -0.0359 C   0  0  1  0  0  0  0  0  0  0  0  0
    0.0212   41.0658   -0.1512 O   0  0  0  0  0  0  0  0  0  0  0  0
    6.1642   38.4365    0.9291 C   0  0  1  0  0  0  0  0  0  0  0  0
    6.7280   38.3837    2.2302 O   0  0  0  0  0  0  0  0  0  0  0  0
   -1.7320   39.2583   -2.1141 C   0  0  2  0  0  0  0  0  0  0  0  0
   -1.9254   40.5903   -1.6642 O   0  0  0  0  0  0  0  0  0  0  0  0
    4.7973   37.7513    0.9231 C   0  0  1  0  0  0  0  0  0  0  0  0
    4.2317   37.8061   -0.3855 O   0  0  0  0  0  0  0  0  0  0  0  0
   -3.0499   38.4729   -1.9701 C   0  0  1  0  0  0  0  0  0  0  0  0
   -4.0762   39.0841   -2.7609 O   0  0  0  0  0  0  0  0  0  0  0  0
    4.9730   36.2905    1.3386 C   0  0  0  0  0  0  0  0  0  0  0  0
    5.3943   36.2389    2.6923 O   0  0  0  0  0  0  0  0  0  0  0  0
   -4.2007   35.7635   -4.4951 N   0  0  0  0  0  0  0  0  0  0  0  0
    1.4125   34.6966   -1.5360 N   0  0  0  0  0  0  0  0  0  0  0  0
  1  2  1  0  0  0  0
  1 39  1  0  0  0  0
  3  4  1  0  0  0  0
  5  6  1  0  0  0  0
  5 40  1  0  0  0  0
  9 10  1  1  0  0  0
  9 14  1  0  0  0  0
  9 35  1  0  0  0  0
 10  1  1  0  0  0  0
 11 16  1  0  0  0  0
 11 28  1  0  0  0  0
 11 26  1  6  0  0  0
 12 17  1  0  0  0  0
 12 34  1  0  0  0  0
 12 13  1  1  0  0  0
 14 15  1  6  0  0  0
 14 19  1  0  0  0  0
 16 13  1  1  0  0  0
 16 21  1  0  0  0  0
 17 18  1  1  0  0  0
 17 23  1  0  0  0  0
 18  8  1  0  0  0  0
 19 20  1  1  0  0  0
 19 25  1  0  0  0  0
 20  5  1  0  0  0  0
 21  3  1  6  0  0  0
 21 22  1  0  0  0  0
 21 27  1  0  0  0  0
 23 24  1  6  0  0  0
 23 29  1  0  0  0  0
 25 26  1  6  0  0  0
 25 31  1  0  0  0  0
 27  7  1  1  0  0  0
 27 28  1  0  0  0  0
 29 30  1  1  0  0  0
 29 33  1  0  0  0  0
 31 32  1  1  0  0  0
 31 35  1  0  0  0  0
 33 34  1  0  0  0  0
 33 37  1  6  0  0  0
 35 36  1  6  0  0  0
 37 38  1  0  0  0  0
M  END
>  <CHROM.1>
-97.46460078,134.01035924,172.56305466,101.48625526,107.19197812,-77.98745523
98.71027384,65.32826879,174.02628486,-132.10589862,66.28423303,1.38583679
38.82246183,-0.83730071,-2.72144597,-0.32425512,0.09492283

>  <Name>
1ntb_lig

>  <RI>
0

>  <Rbt.Current_Directory>
/home/itssahil/PROJECTS/Mol_Feturizer/New_Systems/rnas/1ntb

>  <Rbt.Executable>
rbdock ($Id: //depot/dev/client3/rdock/2013.1/src/exe/rbdock.cxx#4 $)

>  <Rbt.Library>
libRbt.so (2013.1, Build901 2013/11/27)

>  <Rbt.Parameter_File>
/export/apps/rDock/src/rDock_2013.1_src/data/scripts/dock_solv.prm

>  <Rbt.Receptor>
prm/pocket_docking_5.prm

>  <SCORE>
-8.82084

>  <SCORE.INTER>
-2.09715

>  <SCORE.INTER.CONST>
1

>  <SCORE.INTER.POLAR>
-0.72111

>  <SCORE.INTER.ROT>
11

>  <SCORE.INTER.SOLV>
12.4488

>  <SCORE.INTER.VDW>
-14.0773

>  <SCORE.INTER.norm>
-0.0524286

>  <SCORE.INTRA>
-6.73703

>  <SCORE.INTRA.DIHEDRAL>
6.61435

>  <SCORE.INTRA.DIHEDRAL.0>
15.4453

>  <SCORE.INTRA.POLAR>
0

>  <SCORE.INTRA.POLAR.0>
0

>  <SCORE.INTRA.REPUL>
-0.823958

>  <SCORE.INTRA.REPUL.0>
0.823958

>  <SCORE.INTRA.SOLV>
-0.742253

>  <SCORE.INTRA.SOLV.lig_0>
-99.3069

>  <SCORE.INTRA.VDW>
-5.55329

>  <SCORE.INTRA.VDW.0>
0.946495

>  <SCORE.INTRA.norm>
-0.168426

>  <SCORE.RESTR>
0.013336

>  <SCORE.RESTR.CAVITY>
0.013336

>  <SCORE.RESTR.norm>
0.000333401

>  <SCORE.SYSTEM>
0

>  <SCORE.SYSTEM.CONST>
0

>  <SCORE.SYSTEM.DIHEDRAL>
0

>  <SCORE.SYSTEM.SOLV>
0

>  <SCORE.SYSTEM.norm>
0

>  <SCORE.heavy>
40

>  <SCORE.norm>
-0.220521

>  <RMSD>
9.034

$$$$
1ntb_lig
 OpenBabel11021811403D
libRbt.so/2013.1/901 2013/11/27
 40 42  0  0  0  0  0  0  0  0999 V2000
   -6.0443   34.9628    2.5340 C   0  0  0  0  0  0  0  0  0  0  0  0
   -7.1417   35.5857    2.7290 N   0  0  0  0  0  0  0  0  0  0  0  0
    2.1938   39.4269   -2.0057 C   0  0  0  0  0  0  0  0  0  0  0  0
    2.2209   38.1690   -2.6592 O   0  0  0  0  0  0  0  0  0  0  0  0
   -1.6693   34.5007   -1.8321 C   0  0  0  0  0  0  0  0  0  0  0  0
   -2.0480   33.2952   -1.5967 N   0  0  0  0  0  0  0  0  0  0  0  0
    0.2633   41.3494   -3.7826 C   0  0  0  0  0  0  0  0  0  0  0  0
    1.9078   41.9139    2.2611 C   0  0  0  0  0  0  0  0  0  0  0  0
   -4.4840   36.1731    1.2432 C   0  0  2  0  0  0  0  0  0  0  0  0
   -4.9511   35.6978    2.6022 N   0  0  0  0  0  0  0  0  0  0  0  0
   -1.4578   39.1040   -1.6966 C   0  0  2  0  0  0  0  0  0  0  0  0
    1.0881   39.0280    0.8845 C   0  0  1  0  0  0  0  0  0  0  0  0
   -0.1452   39.2601    0.2294 O   0  0  0  0  0  0  0  0  0  0  0  0
   -3.1815   35.4889    0.8428 C   0  0  1  0  0  0  0  0  0  0  0  0
   -3.4935   34.0282    0.8735 O   0  0  0  0  0  0  0  0  0  0  0  0
   -0.0804   38.9311   -1.0830 C   0  0  2  0  0  0  0  0  0  0  0  0
    1.0133   39.6076    2.2763 C   0  0  1  0  0  0  0  0  0  0  0  0
    0.7951   41.0091    2.2030 N   0  0  0  0  0  0  0  0  0  0  0  0
   -2.6527   35.9589   -0.5107 C   0  0  2  0  0  0  0  0  0  0  0  0
   -1.4181   35.3365   -0.9420 N   0  0  0  0  0  0  0  0  0  0  0  0
    0.7661   39.9006   -1.8645 C   0  0  1  0  0  0  0  0  0  0  0  0
    0.7353   41.1890   -1.2416 O   0  0  0  0  0  0  0  0  0  0  0  0
   -0.1475   38.9435    2.9977 C   0  0  2  0  0  0  0  0  0  0  0  0
   -0.2691   39.4582    4.3057 O   0  0  0  0  0  0  0  0  0  0  0  0
   -2.4368   37.4482   -0.4346 C   0  0  1  0  0  0  0  0  0  0  0  0
   -2.1239   37.8497   -1.7974 O   0  0  0  0  0  0  0  0  0  0  0  0
    0.1083   39.9714   -3.1930 C   0  0  1  0  0  0  0  0  0  0  0  0
   -1.2760   39.6761   -2.9939 O   0  0  0  0  0  0  0  0  0  0  0  0
    0.1530   37.4451    3.0405 C   0  0  1  0  0  0  0  0  0  0  0  0
   -0.8950   36.7500    3.6979 O   0  0  0  0  0  0  0  0  0  0  0  0
   -3.7679   38.1628   -0.0771 C   0  0  2  0  0  0  0  0  0  0  0  0
   -3.5457   39.5636   -0.0246 O   0  0  0  0  0  0  0  0  0  0  0  0
    0.3056   36.9294    1.6092 C   0  0  1  0  0  0  0  0  0  0  0  0
    1.3590   37.6298    0.9496 O   0  0  0  0  0  0  0  0  0  0  0  0
   -4.2601   37.6707    1.2976 C   0  0  1  0  0  0  0  0  0  0  0  0
   -5.4888   38.3216    1.6425 O   0  0  0  0  0  0  0  0  0  0  0  0
    0.6380   35.4377    1.6523 C   0  0  0  0  0  0  0  0  0  0  0  0
   -0.4968   34.7208    2.1113 O   0  0  0  0  0  0  0  0  0  0  0  0
   -6.0029   33.7056    2.2630 N   0  0  0  0  0  0  0  0  0  0  0  0
   -1.4844   34.8640   -3.0071 N   0  0  0  0  0  0  0  0  0  0  0  0
  1  2  1  0  0  0  0
  1 39  1  0  0  0  0
  3  4  1  0  0  0  0
  5  6  1  0  0  0  0
  5 40  1  0  0  0  0
  9 10  1  1  0  0  0
  9 14  1  0  0  0  0
  9 35  1  0  0  0  0
 10  1  1  0  0  0  0
 11 16  1  0  0  0  0
 11 28  1  0  0  0  0
 11 26  1  6  0  0  0
 12 17  1  0  0  0  0
 12 34  1  0  0  0  0
 12 13  1  1  0  0  0
 14 15  1  6  0  0  0
 14 19  1  0  0  0  0
 16 13  1  1  0  0  0
 16 21  1  0  0  0  0
 17 18  1  6  0  0  0
 17 23  1  0  0  0  0
 18  8  1  0  0  0  0
 19 20  1  1  0  0  0
 19 25  1  0  0  0  0
 20  5  1  0  0  0  0
 21  3  1  6  0  0  0
 21 22  1  0  0  0  0
 21 27  1  0  0  0  0
 23 24  1  1  0  0  0
 23 29  1  0  0  0  0
 25 26  1  6  0  0  0
 25 31  1  0  0  0  0
 27  7  1  1  0  0  0
 27 28  1  0  0  0  0
 29 30  1  6  0  0  0
 29 33  1  0  0  0  0
 31 32  1  1  0  0  0
 31 35  1  0  0  0  0
 33 34  1  0  0  0  0
 33 37  1  1  0  0  0
 35 36  1  6  0  0  0
 37 38  1  0  0  0  0
M  END
>  <CHROM.1>
-110.83474195,-95.72087349,69.63099962,171.43021107,175.75676455,-95.01355815
104.67079604,-83.70558533,58.93014083,-159.57115543,69.10683661,-1.41253926
37.63914630,0.34063262,-2.92342069,-0.74892224,-1.72280559

>  <Name>
1ntb_lig

>  <RI>
0

>  <Rbt.Current_Directory>
/home/itssahil/PROJECTS/Mol_Feturizer/New_Systems/rnas/1ntb

>  <Rbt.Executable>
rbdock ($Id: //depot/dev/client3/rdock/2013.1/src/exe/rbdock.cxx#4 $)

>  <Rbt.Library>
libRbt.so (2013.1, Build901 2013/11/27)

>  <Rbt.Parameter_File>
/export/apps/rDock/src/rDock_2013.1_src/data/scripts/dock_solv.prm

>  <Rbt.Receptor>
prm/pocket_docking_6.prm

>  <SCORE>
-7.27196

>  <SCORE.INTER>
8.29716

>  <SCORE.INTER.CONST>
1

>  <SCORE.INTER.POLAR>
-0.72111

>  <SCORE.INTER.ROT>
11

>  <SCORE.INTER.SOLV>
2.9305

>  <SCORE.INTER.VDW>
-3.97502

>  <SCORE.INTER.norm>
0.207429

>  <SCORE.INTRA>
-15.5691

>  <SCORE.INTRA.DIHEDRAL>
-8.09091

>  <SCORE.INTRA.DIHEDRAL.0>
15.4453

>  <SCORE.INTRA.POLAR>
0

>  <SCORE.INTRA.POLAR.0>
0

>  <SCORE.INTRA.REPUL>
-0.802895

>  <SCORE.INTRA.REPUL.0>
0.823958

>  <SCORE.INTRA.SOLV>
-0.355785

>  <SCORE.INTRA.SOLV.lig_0>
-99.3069

>  <SCORE.INTRA.VDW>
-7.3313

>  <SCORE.INTRA.VDW.0>
0.946495

>  <SCORE.INTRA.norm>
-0.389228

>  <SCORE.RESTR>
0

>  <SCORE.RESTR.CAVITY>
0

>  <SCORE.RESTR.norm>
0

>  <SCORE.SYSTEM>
0

>  <SCORE.SYSTEM.CONST>
0

>  <SCORE.SYSTEM.DIHEDRAL>
0

>  <SCORE.SYSTEM.SOLV>
0

>  <SCORE.SYSTEM.norm>
0

>  <SCORE.heavy>
40

>  <SCORE.norm>
-0.181799

>  <RMSD>
9.075

$$$$
1ntb_lig
 OpenBabel11021811403D
libRbt.so/2013.1/901 2013/11/27
 40 42  0  0  0  0  0  0  0  0999 V2000
   -0.4300   37.0445   -8.6214 C   0  0  0  0  0  0  0  0  0  0  0  0
    0.2541   37.0731   -9.6991 N   0  0  0  0  0  0  0  0  0  0  0  0
    5.1209   44.3490   -2.6750 C   0  0  0  0  0  0  0  0  0  0  0  0
    5.9953   43.6771   -3.5662 O   0  0  0  0  0  0  0  0  0  0  0  0
    0.8485   38.0332   -2.8279 C   0  0  0  0  0  0  0  0  0  0  0  0
    1.9951   37.4719   -2.6790 N   0  0  0  0  0  0  0  0  0  0  0  0
    2.7207   45.4851   -4.5534 C   0  0  0  0  0  0  0  0  0  0  0  0
    3.2000   44.7655    1.3879 C   0  0  0  0  0  0  0  0  0  0  0  0
    0.4555   38.6523   -7.1392 C   0  0  2  0  0  0  0  0  0  0  0  0
   -0.6624   38.2163   -8.0619 N   0  0  0  0  0  0  0  0  0  0  0  0
    2.4094   42.0874   -3.7083 C   0  0  2  0  0  0  0  0  0  0  0  0
    4.0854   42.2812   -0.5044 C   0  0  1  0  0  0  0  0  0  0  0  0
    3.0496   42.1728   -1.4633 O   0  0  0  0  0  0  0  0  0  0  0  0
   -0.0098   38.6704   -5.6873 C   0  0  1  0  0  0  0  0  0  0  0  0
   -0.4760   37.2766   -5.4193 O   0  0  0  0  0  0  0  0  0  0  0  0
    3.4987   42.4421   -2.7125 C   0  0  2  0  0  0  0  0  0  0  0  0
    3.4661   42.3612    0.8698 C   0  0  1  0  0  0  0  0  0  0  0  0
    2.6417   43.5143    0.9600 N   0  0  0  0  0  0  0  0  0  0  0  0
    1.0764   39.1340   -4.7189 C   0  0  2  0  0  0  0  0  0  0  0  0
    0.6883   39.1656   -3.3239 N   0  0  0  0  0  0  0  0  0  0  0  0
    3.6958   43.9184   -2.9331 C   0  0  1  0  0  0  0  0  0  0  0  0
    2.7998   44.6612   -2.0997 O   0  0  0  0  0  0  0  0  0  0  0  0
    2.6270   41.1117    1.0782 C   0  0  2  0  0  0  0  0  0  0  0  0
    2.0147   41.1402    2.3490 O   0  0  0  0  0  0  0  0  0  0  0  0
    1.5046   40.5195   -5.1281 C   0  0  1  0  0  0  0  0  0  0  0  0
    2.6597   40.8143   -4.2943 O   0  0  0  0  0  0  0  0  0  0  0  0
    3.3405   44.1256   -4.3590 C   0  0  1  0  0  0  0  0  0  0  0  0
    2.4044   43.1048   -4.7124 O   0  0  0  0  0  0  0  0  0  0  0  0
    3.5735   39.9161    0.9694 C   0  0  1  0  0  0  0  0  0  0  0  0
    2.8591   38.7030    1.1478 O   0  0  0  0  0  0  0  0  0  0  0  0
    2.0288   40.5063   -6.5893 C   0  0  2  0  0  0  0  0  0  0  0  0
    2.4396   41.8162   -6.9493 O   0  0  0  0  0  0  0  0  0  0  0  0
    4.2382   39.9341   -0.4075 C   0  0  1  0  0  0  0  0  0  0  0  0
    4.9552   41.1546   -0.5853 O   0  0  0  0  0  0  0  0  0  0  0  0
    0.9017   40.0456   -7.5335 C   0  0  1  0  0  0  0  0  0  0  0  0
    1.3698   40.0283   -8.8873 O   0  0  0  0  0  0  0  0  0  0  0  0
    5.2091   38.7570   -0.5049 C   0  0  0  0  0  0  0  0  0  0  0  0
    6.2498   38.9322    0.4430 O   0  0  0  0  0  0  0  0  0  0  0  0
   -0.8462   35.9457   -8.0969 N   0  0  0  0  0  0  0  0  0  0  0  0
   -0.1814   37.4100   -2.5154 N   0  0  0  0  0  0  0  0  0  0  0  0
  1  2  1  0  0  0  0
  1 39  1  0  0  0  0
  3  4  1  0  0  0  0
  5  6  1  0  0  0  0
  5 40  1  0  0  0  0
  9 10  1  6  0  0  0
  9 14  1  0  0  0  0
  9 35  1  0  0  0  0
 10  1  1  0  0  0  0
 11 16  1  0  0  0  0
 11 28  1  0  0  0  0
 11 26  1  6  0  0  0
 12 17  1  0  0  0  0
 12 34  1  0  0  0  0
 12 13  1  6  0  0  0
 14 15  1  1  0  0  0
 14 19  1  0  0  0  0
 16 13  1  1  0  0  0
 16 21  1  0  0  0  0
 17 18  1  6  0  0  0
 17 23  1  0  0  0  0
 18  8  1  0  0  0  0
 19 20  1  1  0  0  0
 19 25  1  0  0  0  0
 20  5  1  0  0  0  0
 21  3  1  1  0  0  0
 21 22  1  0  0  0  0
 21 27  1  0  0  0  0
 23 24  1  1  0  0  0
 23 29  1  0  0  0  0
 25 26  1  1  0  0  0
 25 31  1  0  0  0  0
 27  7  1  1  0  0  0
 27 28  1  0  0  0  0
 29 30  1  6  0  0  0
 29 33  1  0  0  0  0
 31 32  1  6  0  0  0
 31 35  1  0  0  0  0
 33 34  1  0  0  0  0
 33 37  1  1  0  0  0
 35 36  1  6  0  0  0
 37 38  1  0  0  0  0
M  END
>  <CHROM.1>
-112.54453671,-86.29301660,174.80942634,164.11129888,170.74999410,-89.17575902
85.13075391,65.88109416,61.16325612,-129.39528863,-64.27508010,2.37744199
40.69114366,-3.31129506,2.72874210,-1.12926881,-0.94102031

>  <Name>
1ntb_lig

>  <RI>
0

>  <Rbt.Current_Directory>
/home/itssahil/PROJECTS/Mol_Feturizer/New_Systems/rnas/1ntb

>  <Rbt.Executable>
rbdock ($Id: //depot/dev/client3/rdock/2013.1/src/exe/rbdock.cxx#4 $)

>  <Rbt.Library>
libRbt.so (2013.1, Build901 2013/11/27)

>  <Rbt.Parameter_File>
/export/apps/rDock/src/rDock_2013.1_src/data/scripts/dock_solv.prm

>  <Rbt.Receptor>
prm/pocket_docking_8.prm

>  <SCORE>
-18.788

>  <SCORE.INTER>
-6.48558

>  <SCORE.INTER.CONST>
1

>  <SCORE.INTER.POLAR>
-1.53112

>  <SCORE.INTER.ROT>
11

>  <SCORE.INTER.SOLV>
10.2155

>  <SCORE.INTER.VDW>
-13.5585

>  <SCORE.INTER.norm>
-0.162139

>  <SCORE.INTRA>
-12.3024

>  <SCORE.INTRA.DIHEDRAL>
-3.1277

>  <SCORE.INTRA.DIHEDRAL.0>
15.4453

>  <SCORE.INTRA.POLAR>
0

>  <SCORE.INTRA.POLAR.0>
0

>  <SCORE.INTRA.REPUL>
-0.812214

>  <SCORE.INTRA.REPUL.0>
0.823958

>  <SCORE.INTRA.SOLV>
-1.18429

>  <SCORE.INTRA.SOLV.lig_0>
-99.3069

>  <SCORE.INTRA.VDW>
-6.08537

>  <SCORE.INTRA.VDW.0>
0.946495

>  <SCORE.INTRA.norm>
-0.307561

>  <SCORE.RESTR>
0

>  <SCORE.RESTR.CAVITY>
0

>  <SCORE.RESTR.norm>
0

>  <SCORE.SYSTEM>
0

>  <SCORE.SYSTEM.CONST>
0

>  <SCORE.SYSTEM.DIHEDRAL>
0

>  <SCORE.SYSTEM.SOLV>
0

>  <SCORE.SYSTEM.norm>
0

>  <SCORE.heavy>
40

>  <SCORE.norm>
-0.4697

>  <RMSD>
9.121

$$$$
1ntb_lig
 OpenBabel11021811403D
libRbt.so/2013.1/901 2013/11/27
 40 42  0  0  0  0  0  0  0  0999 V2000
   -6.0086   34.9582    2.3506 C   0  0  0  0  0  0  0  0  0  0  0  0
   -5.9544   34.4780    3.5324 N   0  0  0  0  0  0  0  0  0  0  0  0
    1.2845   41.6398   -2.5493 C   0  0  0  0  0  0  0  0  0  0  0  0
    0.5695   41.0229   -3.6069 O   0  0  0  0  0  0  0  0  0  0  0  0
   -0.4168   37.2976    2.8211 C   0  0  0  0  0  0  0  0  0  0  0  0
   -0.5947   37.0806    4.0754 N   0  0  0  0  0  0  0  0  0  0  0  0
   -0.9162   43.0424   -0.6077 C   0  0  0  0  0  0  0  0  0  0  0  0
    5.3380   40.6464   -0.2594 C   0  0  0  0  0  0  0  0  0  0  0  0
   -4.4559   36.4679    1.4147 C   0  0  2  0  0  0  0  0  0  0  0  0
   -5.7036   36.2369    2.2398 N   0  0  0  0  0  0  0  0  0  0  0  0
   -0.6087   39.5683   -0.1703 C   0  0  2  0  0  0  0  0  0  0  0  0
    2.7547   38.9040   -1.1437 C   0  0  1  0  0  0  0  0  0  0  0  0
    1.7141   39.3529   -0.2954 O   0  0  0  0  0  0  0  0  0  0  0  0
   -3.3845   37.1814    2.2319 C   0  0  1  0  0  0  0  0  0  0  0  0
   -3.1481   36.2922    3.4089 O   0  0  0  0  0  0  0  0  0  0  0  0
    0.6413   39.7760   -1.0060 C   0  0  2  0  0  0  0  0  0  0  0  0
    3.9654   38.5887   -0.2991 C   0  0  1  0  0  0  0  0  0  0  0  0
    4.4019   39.7612    0.3733 N   0  0  0  0  0  0  0  0  0  0  0  0
   -2.1146   37.4646    1.4321 C   0  0  2  0  0  0  0  0  0  0  0  0
   -1.0610   38.1379    2.1630 N   0  0  0  0  0  0  0  0  0  0  0  0
    0.6631   41.2657   -1.2238 C   0  0  1  0  0  0  0  0  0  0  0  0
    1.3660   41.9061   -0.1538 O   0  0  0  0  0  0  0  0  0  0  0  0
    3.5647   37.5324    0.7169 C   0  0  2  0  0  0  0  0  0  0  0  0
    4.6616   37.2068    1.5424 O   0  0  0  0  0  0  0  0  0  0  0  0
   -2.4913   38.3130    0.2453 C   0  0  1  0  0  0  0  0  0  0  0  0
   -1.2844   38.3788   -0.5643 O   0  0  0  0  0  0  0  0  0  0  0  0
   -0.7669   41.6609   -1.1903 C   0  0  1  0  0  0  0  0  0  0  0  0
   -1.4484   40.7074   -0.3720 O   0  0  0  0  0  0  0  0  0  0  0  0
    3.1090   36.3050   -0.0725 C   0  0  1  0  0  0  0  0  0  0  0  0
    2.7101   35.2694    0.8118 O   0  0  0  0  0  0  0  0  0  0  0  0
   -3.5455   37.5763   -0.6244 C   0  0  2  0  0  0  0  0  0  0  0  0
   -3.8753   38.3853   -1.7427 O   0  0  0  0  0  0  0  0  0  0  0  0
    1.9398   36.7020   -0.9744 C   0  0  1  0  0  0  0  0  0  0  0  0
    2.3424   37.7437   -1.8621 O   0  0  0  0  0  0  0  0  0  0  0  0
   -4.8127   37.3207    0.2142 C   0  0  1  0  0  0  0  0  0  0  0  0
   -5.7964   36.6410   -0.5748 O   0  0  0  0  0  0  0  0  0  0  0  0
    1.5047   35.4828   -1.7878 C   0  0  0  0  0  0  0  0  0  0  0  0
    2.5548   35.1098   -2.6656 O   0  0  0  0  0  0  0  0  0  0  0  0
   -6.3616   34.2525    1.3342 N   0  0  0  0  0  0  0  0  0  0  0  0
    0.4803   36.6840    2.2166 N   0  0  0  0  0  0  0  0  0  0  0  0
  1  2  1  0  0  0  0
  1 39  1  0  0  0  0
  3  4  1  0  0  0  0
  5  6  1  0  0  0  0
  5 40  1  0  0  0  0
  9 10  1  1  0  0  0
  9 14  1  0  0  0  0
  9 35  1  0  0  0  0
 10  1  1  0  0  0  0
 11 16  1  0  0  0  0
 11 28  1  0  0  0  0
 11 26  1  6  0  0  0
 12 17  1  0  0  0  0
 12 34  1  0  0  0  0
 12 13  1  1  0  0  0
 14 15  1  1  0  0  0
 14 19  1  0  0  0  0
 16 13  1  1  0  0  0
 16 21  1  0  0  0  0
 17 18  1  1  0  0  0
 17 23  1  0  0  0  0
 18  8  1  0  0  0  0
 19 20  1  1  0  0  0
 19 25  1  0  0  0  0
 20  5  1  0  0  0  0
 21  3  1  6  0  0  0
 21 22  1  0  0  0  0
 21 27  1  0  0  0  0
 23 24  1  1  0  0  0
 23 29  1  0  0  0  0
 25 26  1  6  0  0  0
 25 31  1  0  0  0  0
 27  7  1  1  0  0  0
 27 28  1  0  0  0  0
 29 30  1  1  0  0  0
 29 33  1  0  0  0  0
 31 32  1  6  0  0  0
 31 35  1  0  0  0  0
 33 34  1  0  0  0  0
 33 37  1  6  0  0  0
 35 36  1  6  0  0  0
 37 38  1  0  0  0  0
M  END
>  <CHROM.1>
-120.17549522,115.68739298,-177.18248261,174.01893727,151.48196492,-88.44013575
82.45055390,-99.54161568,58.26855229,-93.86769253,-65.12860106,-0.44366887
38.07137423,0.20201643,-2.67692378,0.07261343,-0.51663786

>  <Name>
1ntb_lig

>  <RI>
0

>  <Rbt.Current_Directory>
/home/itssahil/PROJECTS/Mol_Feturizer/New_Systems/rnas/1ntb

>  <Rbt.Executable>
rbdock ($Id: //depot/dev/client3/rdock/2013.1/src/exe/rbdock.cxx#4 $)

>  <Rbt.Library>
libRbt.so (2013.1, Build901 2013/11/27)

>  <Rbt.Parameter_File>
/export/apps/rDock/src/rDock_2013.1_src/data/scripts/dock_solv.prm

>  <Rbt.Receptor>
prm/pocket_docking_5.prm

>  <SCORE>
-5.58249

>  <SCORE.INTER>
6.28014

>  <SCORE.INTER.CONST>
1

>  <SCORE.INTER.POLAR>
-0.707981

>  <SCORE.INTER.ROT>
11

>  <SCORE.INTER.SOLV>
6.97788

>  <SCORE.INTER.VDW>
-6.71259

>  <SCORE.INTER.norm>
0.157004

>  <SCORE.INTRA>
-11.8626

>  <SCORE.INTRA.DIHEDRAL>
-4.43533

>  <SCORE.INTRA.DIHEDRAL.0>
15.4453

>  <SCORE.INTRA.POLAR>
0

>  <SCORE.INTRA.POLAR.0>
0

>  <SCORE.INTRA.REPUL>
-0.823958

>  <SCORE.INTRA.REPUL.0>
0.823958

>  <SCORE.INTRA.SOLV>
1.12561

>  <SCORE.INTRA.SOLV.lig_0>
-99.3069

>  <SCORE.INTRA.VDW>
-6.08799

>  <SCORE.INTRA.VDW.0>
0.946495

>  <SCORE.INTRA.norm>
-0.296566

>  <SCORE.RESTR>
0

>  <SCORE.RESTR.CAVITY>
0

>  <SCORE.RESTR.norm>
0

>  <SCORE.SYSTEM>
0

>  <SCORE.SYSTEM.CONST>
0

>  <SCORE.SYSTEM.DIHEDRAL>
0

>  <SCORE.SYSTEM.SOLV>
0

>  <SCORE.SYSTEM.norm>
0

>  <SCORE.heavy>
40

>  <SCORE.norm>
-0.139562

>  <RMSD>
9.159

$$$$
1ntb_lig
 OpenBabel11021811403D
libRbt.so/2013.1/901 2013/11/27
 40 42  0  0  0  0  0  0  0  0999 V2000
   -3.2748   40.7792   -4.8000 C   0  0  0  0  0  0  0  0  0  0  0  0
   -4.4909   40.8761   -4.4233 N   0  0  0  0  0  0  0  0  0  0  0  0
    0.4103   31.5418   -8.4499 C   0  0  0  0  0  0  0  0  0  0  0  0
    1.3059   30.7095   -9.1679 O   0  0  0  0  0  0  0  0  0  0  0  0
   -4.4147   35.0391   -7.4608 C   0  0  0  0  0  0  0  0  0  0  0  0
   -5.5694   35.4335   -7.0571 N   0  0  0  0  0  0  0  0  0  0  0  0
    1.8516   33.2483  -10.8143 C   0  0  0  0  0  0  0  0  0  0  0  0
   -1.1284   31.0469   -5.1682 C   0  0  0  0  0  0  0  0  0  0  0  0
   -2.5304   38.8018   -5.8497 C   0  0  2  0  0  0  0  0  0  0  0  0
   -2.7014   39.6113   -4.5822 N   0  0  0  0  0  0  0  0  0  0  0  0
   -0.0506   35.1893   -8.5850 C   0  0  2  0  0  0  0  0  0  0  0  0
   -0.4187   34.1557   -5.5239 C   0  0  1  0  0  0  0  0  0  0  0  0
    0.5397   34.1738   -6.5657 O   0  0  0  0  0  0  0  0  0  0  0  0
   -3.0575   37.3827   -5.6673 C   0  0  1  0  0  0  0  0  0  0  0  0
   -4.4886   37.5555   -5.2751 O   0  0  0  0  0  0  0  0  0  0  0  0
   -0.0275   33.9107   -7.7673 C   0  0  2  0  0  0  0  0  0  0  0  0
    0.0067   33.1386   -4.4929 C   0  0  1  0  0  0  0  0  0  0  0  0
    0.0596   31.8479   -5.0832 N   0  0  0  0  0  0  0  0  0  0  0  0
   -2.8792   36.5159   -6.9120 C   0  0  2  0  0  0  0  0  0  0  0  0
   -3.3678   35.1575   -6.7944 N   0  0  0  0  0  0  0  0  0  0  0  0
    0.8221   32.9877   -8.6001 C   0  0  1  0  0  0  0  0  0  0  0  0
    2.2014   33.1444   -8.2507 O   0  0  0  0  0  0  0  0  0  0  0  0
    1.3857   33.5310   -3.9899 C   0  0  2  0  0  0  0  0  0  0  0  0
    1.8370   32.6039   -3.0269 O   0  0  0  0  0  0  0  0  0  0  0  0
   -1.4094   36.4692   -7.2402 C   0  0  1  0  0  0  0  0  0  0  0  0
   -1.3363   35.7982   -8.5289 O   0  0  0  0  0  0  0  0  0  0  0  0
    0.6037   33.4481   -9.9939 C   0  0  1  0  0  0  0  0  0  0  0  0
    0.2749   34.8379   -9.9318 O   0  0  0  0  0  0  0  0  0  0  0  0
    1.2546   34.9222   -3.3698 C   0  0  1  0  0  0  0  0  0  0  0  0
    2.5106   35.3643   -2.8790 O   0  0  0  0  0  0  0  0  0  0  0  0
   -0.8699   37.9052   -7.4787 C   0  0  2  0  0  0  0  0  0  0  0  0
    0.5108   37.8374   -7.8000 O   0  0  0  0  0  0  0  0  0  0  0  0
    0.7377   35.8919   -4.4330 C   0  0  1  0  0  0  0  0  0  0  0  0
   -0.5245   35.4454   -4.9258 O   0  0  0  0  0  0  0  0  0  0  0  0
   -1.0571   38.7417   -6.1983 C   0  0  1  0  0  0  0  0  0  0  0  0
   -0.5634   40.0710   -6.4021 O   0  0  0  0  0  0  0  0  0  0  0  0
    0.5757   37.2764   -3.8049 C   0  0  0  0  0  0  0  0  0  0  0  0
    1.8556   37.7883   -3.4700 O   0  0  0  0  0  0  0  0  0  0  0  0
   -2.6374   41.7609   -5.3344 N   0  0  0  0  0  0  0  0  0  0  0  0
   -4.3170   34.4546   -8.5542 N   0  0  0  0  0  0  0  0  0  0  0  0
  1  2  1  0  0  0  0
  1 39  1  0  0  0  0
  3  4  1  0  0  0  0
  5  6  1  0  0  0  0
  5 40  1  0  0  0  0
  9 10  1  1  0  0  0
  9 14  1  0  0  0  0
  9 35  1  0  0  0  0
 10  1  1  0  0  0  0
 11 16  1  0  0  0  0
 11 28  1  0  0  0  0
 11 26  1  6  0  0  0
 12 17  1  0  0  0  0
 12 34  1  0  0  0  0
 12 13  1  6  0  0  0
 14 15  1  6  0  0  0
 14 19  1  0  0  0  0
 16 13  1  1  0  0  0
 16 21  1  0  0  0  0
 17 18  1  6  0  0  0
 17 23  1  0  0  0  0
 18  8  1  0  0  0  0
 19 20  1  1  0  0  0
 19 25  1  0  0  0  0
 20  5  1  0  0  0  0
 21  3  1  1  0  0  0
 21 22  1  0  0  0  0
 21 27  1  0  0  0  0
 23 24  1  1  0  0  0
 23 29  1  0  0  0  0
 25 26  1  6  0  0  0
 25 31  1  0  0  0  0
 27  7  1  6  0  0  0
 27 28  1  0  0  0  0
 29 30  1  6  0  0  0
 29 33  1  0  0  0  0
 31 32  1  1  0  0  0
 31 35  1  0  0  0  0
 33 34  1  0  0  0  0
 33 37  1  1  0  0  0
 35 36  1  6  0  0  0
 37 38  1  0  0  0  0
M  END
>  <CHROM.1>
-130.14815926,105.97379845,78.06488981,122.65179740,108.47634425,-85.25151807
107.10457438,-79.52016882,-175.36945932,-153.57659090,67.16509456,-0.75688132
35.63823863,-6.36738384,-2.25423618,0.75962786,-2.32749889

>  <Name>
1ntb_lig

>  <RI>
0

>  <Rbt.Current_Directory>
/home/itssahil/PROJECTS/Mol_Feturizer/New_Systems/rnas/1ntb

>  <Rbt.Executable>
rbdock ($Id: //depot/dev/client3/rdock/2013.1/src/exe/rbdock.cxx#4 $)

>  <Rbt.Library>
libRbt.so (2013.1, Build901 2013/11/27)

>  <Rbt.Parameter_File>
/export/apps/rDock/src/rDock_2013.1_src/data/scripts/dock_solv.prm

>  <Rbt.Receptor>
prm/pocket_docking_8.prm

>  <SCORE>
-13.855

>  <SCORE.INTER>
-4.98996

>  <SCORE.INTER.CONST>
1

>  <SCORE.INTER.POLAR>
-0.937511

>  <SCORE.INTER.ROT>
11

>  <SCORE.INTER.SOLV>
8.69038

>  <SCORE.INTER.VDW>
-14.0317

>  <SCORE.INTER.norm>
-0.124749

>  <SCORE.INTRA>
-8.86505

>  <SCORE.INTRA.DIHEDRAL>
6.74419

>  <SCORE.INTRA.DIHEDRAL.0>
15.4453

>  <SCORE.INTRA.POLAR>
0

>  <SCORE.INTRA.POLAR.0>
0

>  <SCORE.INTRA.REPUL>
-0.822063

>  <SCORE.INTRA.REPUL.0>
0.823958

>  <SCORE.INTRA.SOLV>
-0.618495

>  <SCORE.INTRA.SOLV.lig_0>
-99.3069

>  <SCORE.INTRA.VDW>
-7.81758

>  <SCORE.INTRA.VDW.0>
0.946495

>  <SCORE.INTRA.norm>
-0.221626

>  <SCORE.RESTR>
0

>  <SCORE.RESTR.CAVITY>
0

>  <SCORE.RESTR.norm>
0

>  <SCORE.SYSTEM>
0

>  <SCORE.SYSTEM.CONST>
0

>  <SCORE.SYSTEM.DIHEDRAL>
0

>  <SCORE.SYSTEM.SOLV>
0

>  <SCORE.SYSTEM.norm>
0

>  <SCORE.heavy>
40

>  <SCORE.norm>
-0.346375

>  <RMSD>
9.222

$$$$
1ntb_lig
 OpenBabel11021811403D
libRbt.so/2013.1/901 2013/11/27
 40 42  0  0  0  0  0  0  0  0999 V2000
   -8.0380   32.7274    2.4037 C   0  0  0  0  0  0  0  0  0  0  0  0
   -8.3392   31.5092    2.1683 N   0  0  0  0  0  0  0  0  0  0  0  0
   -0.0186   36.2289   -4.3739 C   0  0  0  0  0  0  0  0  0  0  0  0
   -0.0110   37.0907   -5.4998 O   0  0  0  0  0  0  0  0  0  0  0  0
   -3.2390   36.3305    1.7888 C   0  0  0  0  0  0  0  0  0  0  0  0
   -2.2633   35.6023    2.2009 N   0  0  0  0  0  0  0  0  0  0  0  0
   -2.9124   37.6676   -4.7437 C   0  0  0  0  0  0  0  0  0  0  0  0
    1.8794   39.2670   -1.3992 C   0  0  0  0  0  0  0  0  0  0  0  0
   -6.4430   33.5029    0.8479 C   0  0  2  0  0  0  0  0  0  0  0  0
   -7.8743   33.4904    1.3401 N   0  0  0  0  0  0  0  0  0  0  0  0
   -2.6084   35.7678   -1.8020 C   0  0  2  0  0  0  0  0  0  0  0  0
    0.9558   36.2600   -1.3753 C   0  0  1  0  0  0  0  0  0  0  0  0
   -0.4405   36.3603   -1.1647 O   0  0  0  0  0  0  0  0  0  0  0  0
   -5.8183   34.8833    1.0185 C   0  0  1  0  0  0  0  0  0  0  0  0
   -5.9346   35.1762    2.4788 O   0  0  0  0  0  0  0  0  0  0  0  0
   -1.1379   35.7918   -2.1773 C   0  0  2  0  0  0  0  0  0  0  0  0
    1.6647   37.0574   -0.3075 C   0  0  1  0  0  0  0  0  0  0  0  0
    1.2891   38.4242   -0.3984 N   0  0  0  0  0  0  0  0  0  0  0  0
   -4.3809   34.9546    0.5071 C   0  0  2  0  0  0  0  0  0  0  0  0
   -3.7375   36.2443    0.6495 N   0  0  0  0  0  0  0  0  0  0  0  0
   -1.1163   36.6405   -3.4208 C   0  0  1  0  0  0  0  0  0  0  0  0
   -0.9693   38.0202   -3.0687 O   0  0  0  0  0  0  0  0  0  0  0  0
    1.2521   36.4996    1.0443 C   0  0  2  0  0  0  0  0  0  0  0  0
    1.8811   37.2186    2.0826 O   0  0  0  0  0  0  0  0  0  0  0  0
   -4.3870   34.5812   -0.9525 C   0  0  1  0  0  0  0  0  0  0  0  0
   -2.9824   34.4821   -1.3180 O   0  0  0  0  0  0  0  0  0  0  0  0
   -2.4486   36.4205   -4.0365 C   0  0  1  0  0  0  0  0  0  0  0  0
   -3.3523   36.0918   -2.9788 O   0  0  0  0  0  0  0  0  0  0  0  0
    1.6856   35.0338    1.0725 C   0  0  1  0  0  0  0  0  0  0  0  0
    1.3276   34.4368    2.3091 O   0  0  0  0  0  0  0  0  0  0  0  0
   -4.9743   33.1559   -1.1364 C   0  0  2  0  0  0  0  0  0  0  0  0
   -4.9576   32.8187   -2.5149 O   0  0  0  0  0  0  0  0  0  0  0  0
    1.0074   34.2942   -0.0812 C   0  0  1  0  0  0  0  0  0  0  0  0
    1.3678   34.8962   -1.3233 O   0  0  0  0  0  0  0  0  0  0  0  0
   -6.4260   33.1298   -0.6205 C   0  0  1  0  0  0  0  0  0  0  0  0
   -6.9830   31.8201   -0.7835 O   0  0  0  0  0  0  0  0  0  0  0  0
    1.4657   32.8357   -0.0729 C   0  0  0  0  0  0  0  0  0  0  0  0
    0.8862   32.1718    1.0389 O   0  0  0  0  0  0  0  0  0  0  0  0
   -7.8782   33.1807    3.5973 N   0  0  0  0  0  0  0  0  0  0  0  0
   -3.7694   37.1396    2.5703 N   0  0  0  0  0  0  0  0  0  0  0  0
  1  2  1  0  0  0  0
  1 39  1  0  0  0  0
  3  4  1  0  0  0  0
  5  6  1  0  0  0  0
  5 40  1  0  0  0  0
  9 10  1  6  0  0  0
  9 14  1  0  0  0  0
  9 35  1  0  0  0  0
 10  1  1  0  0  0  0
 11 16  1  0  0  0  0
 11 28  1  0  0  0  0
 11 26  1  6  0  0  0
 12 17  1  0  0  0  0
 12 34  1  0  0  0  0
 12 13  1  1  0  0  0
 14 15  1  1  0  0  0
 14 19  1  0  0  0  0
 16 13  1  1  0  0  0
 16 21  1  0  0  0  0
 17 18  1  1  0  0  0
 17 23  1  0  0  0  0
 18  8  1  0  0  0  0
 19 20  1  6  0  0  0
 19 25  1  0  0  0  0
 20  5  1  0  0  0  0
 21  3  1  6  0  0  0
 21 22  1  0  0  0  0
 21 27  1  0  0  0  0
 23 24  1  1  0  0  0
 23 29  1  0  0  0  0
 25 26  1  1  0  0  0
 25 31  1  0  0  0  0
 27  7  1  1  0  0  0
 27 28  1  0  0  0  0
 29 30  1  1  0  0  0
 29 33  1  0  0  0  0
 31 32  1  6  0  0  0
 31 35  1  0  0  0  0
 33 34  1  0  0  0  0
 33 37  1  6  0  0  0
 35 36  1  1  0  0  0
 37 38  1  0  0  0  0
M  END
>  <CHROM.1>
-113.71070931,-90.32552299,178.32165439,173.03219236,172.49080598,-78.69471334
85.51039380,65.98133370,-177.75693494,-92.05726881,71.04475493,-2.37782127
35.23490706,-0.43514986,-2.73708703,-0.30426552,-1.27221392

>  <Name>
1ntb_lig

>  <RI>
0

>  <Rbt.Current_Directory>
/home/itssahil/PROJECTS/Mol_Feturizer/New_Systems/rnas/1ntb

>  <Rbt.Executable>
rbdock ($Id: //depot/dev/client3/rdock/2013.1/src/exe/rbdock.cxx#4 $)

>  <Rbt.Library>
libRbt.so (2013.1, Build901 2013/11/27)

>  <Rbt.Parameter_File>
/export/apps/rDock/src/rDock_2013.1_src/data/scripts/dock_solv.prm

>  <Rbt.Receptor>
prm/pocket_docking_8.prm

>  <SCORE>
-4.42538

>  <SCORE.INTER>
8.457

>  <SCORE.INTER.CONST>
1

>  <SCORE.INTER.POLAR>
-0.608161

>  <SCORE.INTER.ROT>
11

>  <SCORE.INTER.SOLV>
4.66078

>  <SCORE.INTER.VDW>
-4.82173

>  <SCORE.INTER.norm>
0.211425

>  <SCORE.INTRA>
-12.8824

>  <SCORE.INTRA.DIHEDRAL>
-7.00465

>  <SCORE.INTRA.DIHEDRAL.0>
15.4453

>  <SCORE.INTRA.POLAR>
0

>  <SCORE.INTRA.POLAR.0>
0

>  <SCORE.INTRA.REPUL>
-0.823958

>  <SCORE.INTRA.REPUL.0>
0.823958

>  <SCORE.INTRA.SOLV>
-0.291474

>  <SCORE.INTRA.SOLV.lig_0>
-99.3069

>  <SCORE.INTRA.VDW>
-5.11453

>  <SCORE.INTRA.VDW.0>
0.946495

>  <SCORE.INTRA.norm>
-0.322059

>  <SCORE.RESTR>
0

>  <SCORE.RESTR.CAVITY>
0

>  <SCORE.RESTR.norm>
0

>  <SCORE.SYSTEM>
0

>  <SCORE.SYSTEM.CONST>
0

>  <SCORE.SYSTEM.DIHEDRAL>
0

>  <SCORE.SYSTEM.SOLV>
0

>  <SCORE.SYSTEM.norm>
0

>  <SCORE.heavy>
40

>  <SCORE.norm>
-0.110635

>  <RMSD>
9.329

$$$$
1ntb_lig
 OpenBabel11021811403D
libRbt.so/2013.1/901 2013/11/27
 40 42  0  0  0  0  0  0  0  0999 V2000
   -1.7350   32.1788    1.9368 C   0  0  0  0  0  0  0  0  0  0  0  0
   -1.4762   32.2015    0.6867 N   0  0  0  0  0  0  0  0  0  0  0  0
   -0.0479   41.9201    6.8746 C   0  0  0  0  0  0  0  0  0  0  0  0
   -1.4336   41.6410    6.9862 O   0  0  0  0  0  0  0  0  0  0  0  0
    1.1414   37.6788    1.2902 C   0  0  0  0  0  0  0  0  0  0  0  0
    0.2990   38.5232    0.8109 N   0  0  0  0  0  0  0  0  0  0  0  0
    1.4613   39.3868    8.2474 C   0  0  0  0  0  0  0  0  0  0  0  0
    3.3005   43.7841    4.2341 C   0  0  0  0  0  0  0  0  0  0  0  0
   -1.0687   34.2251    2.9034 C   0  0  2  0  0  0  0  0  0  0  0  0
   -0.8323   32.7418    2.7167 N   0  0  0  0  0  0  0  0  0  0  0  0
    0.3653   38.8070    4.9583 C   0  0  2  0  0  0  0  0  0  0  0  0
    0.5861   42.1989    3.7321 C   0  0  1  0  0  0  0  0  0  0  0  0
    0.9366   40.8498    3.9798 O   0  0  0  0  0  0  0  0  0  0  0  0
    0.1896   35.0239    2.5813 C   0  0  1  0  0  0  0  0  0  0  0  0
    0.5212   34.6599    1.1709 O   0  0  0  0  0  0  0  0  0  0  0  0
    0.1809   40.3135    4.9679 C   0  0  2  0  0  0  0  0  0  0  0  0
    1.5813   42.7868    2.7612 C   0  0  1  0  0  0  0  0  0  0  0  0
    2.8836   42.7527    3.3270 N   0  0  0  0  0  0  0  0  0  0  0  0
    0.0098   36.5269    2.7843 C   0  0  2  0  0  0  0  0  0  0  0  0
    1.1751   37.3344    2.4878 N   0  0  0  0  0  0  0  0  0  0  0  0
    0.6768   40.7100    6.3332 C   0  0  1  0  0  0  0  0  0  0  0  0
    2.0854   40.9605    6.2880 O   0  0  0  0  0  0  0  0  0  0  0  0
    1.5492   41.9492    1.4939 C   0  0  2  0  0  0  0  0  0  0  0  0
    2.4721   42.4514    0.5523 O   0  0  0  0  0  0  0  0  0  0  0  0
   -0.3806   36.7594    4.2209 C   0  0  1  0  0  0  0  0  0  0  0  0
   -0.7203   38.1721    4.2911 O   0  0  0  0  0  0  0  0  0  0  0  0
    0.4070   39.5210    7.1794 C   0  0  1  0  0  0  0  0  0  0  0  0
    0.4308   38.3786    6.3205 O   0  0  0  0  0  0  0  0  0  0  0  0
    0.1261   42.0314    0.9414 C   0  0  1  0  0  0  0  0  0  0  0  0
    0.0130   41.2645   -0.2472 O   0  0  0  0  0  0  0  0  0  0  0  0
   -1.6896   35.9918    4.5491 C   0  0  2  0  0  0  0  0  0  0  0  0
   -2.0468   36.2355    5.9008 O   0  0  0  0  0  0  0  0  0  0  0  0
   -0.8466   41.5058    1.9975 C   0  0  1  0  0  0  0  0  0  0  0  0
   -0.7308   42.2774    3.1919 O   0  0  0  0  0  0  0  0  0  0  0  0
   -1.4627   34.4816    4.3438 C   0  0  1  0  0  0  0  0  0  0  0  0
   -2.6626   33.7584    4.6431 O   0  0  0  0  0  0  0  0  0  0  0  0
   -2.2727   41.6179    1.4579 C   0  0  0  0  0  0  0  0  0  0  0  0
   -3.1746   41.0767    2.4098 O   0  0  0  0  0  0  0  0  0  0  0  0
   -2.7930   31.6220    2.4127 N   0  0  0  0  0  0  0  0  0  0  0  0
    1.9465   37.1187    0.5255 N   0  0  0  0  0  0  0  0  0  0  0  0
  1  2  1  0  0  0  0
  1 39  1  0  0  0  0
  3  4  1  0  0  0  0
  5  6  1  0  0  0  0
  5 40  1  0  0  0  0
  9 10  1  1  0  0  0
  9 14  1  0  0  0  0
  9 35  1  0  0  0  0
 10  1  1  0  0  0  0
 11 16  1  0  0  0  0
 11 28  1  0  0  0  0
 11 26  1  1  0  0  0
 12 17  1  0  0  0  0
 12 34  1  0  0  0  0
 12 13  1  6  0  0  0
 14 15  1  6  0  0  0
 14 19  1  0  0  0  0
 16 13  1  6  0  0  0
 16 21  1  0  0  0  0
 17 18  1  1  0  0  0
 17 23  1  0  0  0  0
 18  8  1  0  0  0  0
 19 20  1  1  0  0  0
 19 25  1  0  0  0  0
 20  5  1  0  0  0  0
 21  3  1  1  0  0  0
 21 22  1  0  0  0  0
 21 27  1  0  0  0  0
 23 24  1  6  0  0  0
 23 29  1  0  0  0  0
 25 26  1  6  0  0  0
 25 31  1  0  0  0  0
 27  7  1  1  0  0  0
 27 28  1  0  0  0  0
 29 30  1  6  0  0  0
 29 33  1  0  0  0  0
 31 32  1  1  0  0  0
 31 35  1  0  0  0  0
 33 34  1  0  0  0  0
 33 37  1  6  0  0  0
 35 36  1  6  0  0  0
 37 38  1  0  0  0  0
M  END
>  <CHROM.1>
-127.58186429,87.84452783,174.43492990,172.43825799,166.61134275,-82.59966509
90.47181677,70.00647188,60.37353889,-105.41651100,177.42716031,-0.03264259
38.62894930,3.47479232,-2.72178973,1.28532728,1.25364918

>  <Name>
1ntb_lig

>  <RI>
0

>  <Rbt.Current_Directory>
/home/itssahil/PROJECTS/Mol_Feturizer/New_Systems/rnas/1ntb

>  <Rbt.Executable>
rbdock ($Id: //depot/dev/client3/rdock/2013.1/src/exe/rbdock.cxx#4 $)

>  <Rbt.Library>
libRbt.so (2013.1, Build901 2013/11/27)

>  <Rbt.Parameter_File>
/export/apps/rDock/src/rDock_2013.1_src/data/scripts/dock_solv.prm

>  <Rbt.Receptor>
prm/pocket_docking_8.prm

>  <SCORE>
-9.26275

>  <SCORE.INTER>
3.68268

>  <SCORE.INTER.CONST>
1

>  <SCORE.INTER.POLAR>
-0.708694

>  <SCORE.INTER.ROT>
11

>  <SCORE.INTER.SOLV>
9.17673

>  <SCORE.INTER.VDW>
-9.17481

>  <SCORE.INTER.norm>
0.0920671

>  <SCORE.INTRA>
-12.9454

>  <SCORE.INTRA.DIHEDRAL>
-4.28135

>  <SCORE.INTRA.DIHEDRAL.0>
15.4453

>  <SCORE.INTRA.POLAR>
0

>  <SCORE.INTRA.POLAR.0>
0

>  <SCORE.INTRA.REPUL>
-0.823958

>  <SCORE.INTRA.REPUL.0>
0.823958

>  <SCORE.INTRA.SOLV>
0.888391

>  <SCORE.INTRA.SOLV.lig_0>
-99.3069

>  <SCORE.INTRA.VDW>
-7.12916

>  <SCORE.INTRA.VDW.0>
0.946495

>  <SCORE.INTRA.norm>
-0.323636

>  <SCORE.RESTR>
0

>  <SCORE.RESTR.CAVITY>
0

>  <SCORE.RESTR.norm>
0

>  <SCORE.SYSTEM>
0

>  <SCORE.SYSTEM.CONST>
0

>  <SCORE.SYSTEM.DIHEDRAL>
0

>  <SCORE.SYSTEM.SOLV>
0

>  <SCORE.SYSTEM.norm>
0

>  <SCORE.heavy>
40

>  <SCORE.norm>
-0.231569

>  <RMSD>
9.372

$$$$
1ntb_lig
 OpenBabel11021811403D
libRbt.so/2013.1/901 2013/11/27
 40 42  0  0  0  0  0  0  0  0999 V2000
   -7.1441   38.1746    2.2621 C   0  0  0  0  0  0  0  0  0  0  0  0
   -7.7328   37.1767    2.7986 N   0  0  0  0  0  0  0  0  0  0  0  0
    0.9178   34.9354   -4.0411 C   0  0  0  0  0  0  0  0  0  0  0  0
    1.1261   34.6768   -2.6626 O   0  0  0  0  0  0  0  0  0  0  0  0
   -3.0904   40.9847   -1.7234 C   0  0  0  0  0  0  0  0  0  0  0  0
   -1.9154   41.1345   -1.2243 N   0  0  0  0  0  0  0  0  0  0  0  0
   -2.1139   34.0374   -4.8042 C   0  0  0  0  0  0  0  0  0  0  0  0
    1.6430   39.1703   -7.8430 C   0  0  0  0  0  0  0  0  0  0  0  0
   -5.5392   38.0723    0.5359 C   0  0  2  0  0  0  0  0  0  0  0  0
   -6.9936   38.1121    0.9531 N   0  0  0  0  0  0  0  0  0  0  0  0
   -1.9006   37.1063   -3.1037 C   0  0  2  0  0  0  0  0  0  0  0  0
    1.3457   37.9820   -4.4643 C   0  0  1  0  0  0  0  0  0  0  0  0
   -0.0387   38.0277   -4.1723 O   0  0  0  0  0  0  0  0  0  0  0  0
   -5.2745   39.0347   -0.6168 C   0  0  1  0  0  0  0  0  0  0  0  0
   -5.6962   40.3719   -0.1010 O   0  0  0  0  0  0  0  0  0  0  0  0
   -0.4269   36.9590   -3.4360 C   0  0  2  0  0  0  0  0  0  0  0  0
    1.6877   39.1403   -5.3698 C   0  0  1  0  0  0  0  0  0  0  0  0
    0.9633   39.0303   -6.5866 N   0  0  0  0  0  0  0  0  0  0  0  0
   -3.8241   39.0084   -1.0944 C   0  0  2  0  0  0  0  0  0  0  0  0
   -3.5166   39.9087   -2.1865 N   0  0  0  0  0  0  0  0  0  0  0  0
   -0.3820   35.6817   -4.2319 C   0  0  1  0  0  0  0  0  0  0  0  0
   -0.5873   35.9632   -5.6203 O   0  0  0  0  0  0  0  0  0  0  0  0
    1.2997   40.4235   -4.6546 C   0  0  2  0  0  0  0  0  0  0  0  0
    1.5901   41.5417   -5.4644 O   0  0  0  0  0  0  0  0  0  0  0  0
   -3.5022   37.6019   -1.5283 C   0  0  1  0  0  0  0  0  0  0  0  0
   -2.0698   37.6087   -1.7824 O   0  0  0  0  0  0  0  0  0  0  0  0
   -1.5200   34.8853   -3.7093 C   0  0  1  0  0  0  0  0  0  0  0  0
   -2.4943   35.8115   -3.2233 O   0  0  0  0  0  0  0  0  0  0  0  0
    2.1134   40.4764   -3.3614 C   0  0  1  0  0  0  0  0  0  0  0  0
    1.8007   41.6510   -2.6290 O   0  0  0  0  0  0  0  0  0  0  0  0
   -3.7187   36.6166   -0.3483 C   0  0  2  0  0  0  0  0  0  0  0  0
   -3.3967   35.3015   -0.7737 O   0  0  0  0  0  0  0  0  0  0  0  0
    1.7942   39.2374   -2.5241 C   0  0  1  0  0  0  0  0  0  0  0  0
    2.1083   38.0577   -3.2622 O   0  0  0  0  0  0  0  0  0  0  0  0
   -5.1937   36.6646    0.0947 C   0  0  1  0  0  0  0  0  0  0  0  0
   -5.4103   35.7597    1.1840 O   0  0  0  0  0  0  0  0  0  0  0  0
    2.6317   39.2736   -1.2456 C   0  0  0  0  0  0  0  0  0  0  0  0
    2.3281   38.1336   -0.4577 O   0  0  0  0  0  0  0  0  0  0  0  0
   -6.7015   39.1671    2.9511 N   0  0  0  0  0  0  0  0  0  0  0  0
   -3.8867   41.9399   -1.7076 N   0  0  0  0  0  0  0  0  0  0  0  0
  1  2  1  0  0  0  0
  1 39  1  0  0  0  0
  3  4  1  0  0  0  0
  5  6  1  0  0  0  0
  5 40  1  0  0  0  0
  9 10  1  6  0  0  0
  9 14  1  0  0  0  0
  9 35  1  0  0  0  0
 10  1  1  0  0  0  0
 11 16  1  0  0  0  0
 11 28  1  0  0  0  0
 11 26  1  1  0  0  0
 12 17  1  0  0  0  0
 12 34  1  0  0  0  0
 12 13  1  1  0  0  0
 14 15  1  1  0  0  0
 14 19  1  0  0  0  0
 16 13  1  6  0  0  0
 16 21  1  0  0  0  0
 17 18  1  6  0  0  0
 17 23  1  0  0  0  0
 18  8  1  0  0  0  0
 19 20  1  6  0  0  0
 19 25  1  0  0  0  0
 20  5  1  0  0  0  0
 21  3  1  1  0  0  0
 21 22  1  0  0  0  0
 21 27  1  0  0  0  0
 23 24  1  6  0  0  0
 23 29  1  0  0  0  0
 25 26  1  1  0  0  0
 25 31  1  0  0  0  0
 27  7  1  6  0  0  0
 27 28  1  0  0  0  0
 29 30  1  1  0  0  0
 29 33  1  0  0  0  0
 31 32  1  6  0  0  0
 31 35  1  0  0  0  0
 33 34  1  0  0  0  0
 33 37  1  1  0  0  0
 35 36  1  1  0  0  0
 37 38  1  0  0  0  0
M  END
>  <CHROM.1>
-134.33804268,-116.55440550,-175.24524687,175.76943090,177.28517782,-131.30010157
93.57805218,74.48979697,56.31723800,-126.39067698,179.34458695,-1.72234785
38.10385504,-2.24949024,-3.06839899,-0.64027513,-2.92161803

>  <Name>
1ntb_lig

>  <RI>
0

>  <Rbt.Current_Directory>
/home/itssahil/PROJECTS/Mol_Feturizer/New_Systems/rnas/1ntb

>  <Rbt.Executable>
rbdock ($Id: //depot/dev/client3/rdock/2013.1/src/exe/rbdock.cxx#4 $)

>  <Rbt.Library>
libRbt.so (2013.1, Build901 2013/11/27)

>  <Rbt.Parameter_File>
/export/apps/rDock/src/rDock_2013.1_src/data/scripts/dock_solv.prm

>  <Rbt.Receptor>
prm/pocket_docking_7.prm

>  <SCORE>
-10.816

>  <SCORE.INTER>
2.07139

>  <SCORE.INTER.CONST>
1

>  <SCORE.INTER.POLAR>
-0.715544

>  <SCORE.INTER.ROT>
11

>  <SCORE.INTER.SOLV>
3.42432

>  <SCORE.INTER.VDW>
-8.3087

>  <SCORE.INTER.norm>
0.0517848

>  <SCORE.INTRA>
-12.8874

>  <SCORE.INTRA.DIHEDRAL>
-4.08204

>  <SCORE.INTRA.DIHEDRAL.0>
15.4453

>  <SCORE.INTRA.POLAR>
0

>  <SCORE.INTRA.POLAR.0>
0

>  <SCORE.INTRA.REPUL>
-0.823958

>  <SCORE.INTRA.REPUL.0>
0.823958

>  <SCORE.INTRA.SOLV>
-2.22023

>  <SCORE.INTRA.SOLV.lig_0>
-99.3069

>  <SCORE.INTRA.VDW>
-5.61646

>  <SCORE.INTRA.VDW.0>
0.946495

>  <SCORE.INTRA.norm>
-0.322185

>  <SCORE.RESTR>
0

>  <SCORE.RESTR.CAVITY>
0

>  <SCORE.RESTR.norm>
0

>  <SCORE.SYSTEM>
0

>  <SCORE.SYSTEM.CONST>
0

>  <SCORE.SYSTEM.DIHEDRAL>
0

>  <SCORE.SYSTEM.SOLV>
0

>  <SCORE.SYSTEM.norm>
0

>  <SCORE.heavy>
40

>  <SCORE.norm>
-0.2704

>  <RMSD>
9.387

$$$$
1ntb_lig
 OpenBabel11021811403D
libRbt.so/2013.1/901 2013/11/27
 40 42  0  0  0  0  0  0  0  0999 V2000
   -5.2516   40.0189   -2.1449 C   0  0  0  0  0  0  0  0  0  0  0  0
   -6.4628   39.6165   -2.1788 N   0  0  0  0  0  0  0  0  0  0  0  0
   -0.2671   32.0843    3.6028 C   0  0  0  0  0  0  0  0  0  0  0  0
    0.1749   32.2001    4.9450 O   0  0  0  0  0  0  0  0  0  0  0  0
   -1.7844   39.2621    2.5509 C   0  0  0  0  0  0  0  0  0  0  0  0
   -2.5487   39.1044    3.5722 N   0  0  0  0  0  0  0  0  0  0  0  0
    0.9860   32.7996    0.6876 C   0  0  0  0  0  0  0  0  0  0  0  0
   -3.6641   33.7480    5.2242 C   0  0  0  0  0  0  0  0  0  0  0  0
   -4.1353   38.2756   -1.0133 C   0  0  2  0  0  0  0  0  0  0  0  0
   -4.3346   39.0802   -2.2797 N   0  0  0  0  0  0  0  0  0  0  0  0
   -1.0847   35.3054    2.0248 C   0  0  2  0  0  0  0  0  0  0  0  0
   -1.3817   35.9136    5.0145 C   0  0  1  0  0  0  0  0  0  0  0  0
   -0.3859   35.2556    4.2533 O   0  0  0  0  0  0  0  0  0  0  0  0
   -2.8946   38.7413   -0.2592 C   0  0  1  0  0  0  0  0  0  0  0  0
   -3.1313   40.1927    0.0040 O   0  0  0  0  0  0  0  0  0  0  0  0
   -0.9314   34.4777    3.2878 C   0  0  2  0  0  0  0  0  0  0  0  0
   -1.7706   35.0267    6.1724 C   0  0  1  0  0  0  0  0  0  0  0  0
   -2.3057   33.8049    5.6845 N   0  0  0  0  0  0  0  0  0  0  0  0
   -2.6335   37.9378    1.0131 C   0  0  2  0  0  0  0  0  0  0  0  0
   -1.4677   38.3423    1.7713 N   0  0  0  0  0  0  0  0  0  0  0  0
   -0.0002   33.3738    2.8621 C   0  0  1  0  0  0  0  0  0  0  0  0
    1.3591   33.7790    3.0555 O   0  0  0  0  0  0  0  0  0  0  0  0
   -0.5202   34.7502    6.9902 C   0  0  2  0  0  0  0  0  0  0  0  0
   -0.8265   33.9137    8.0843 O   0  0  0  0  0  0  0  0  0  0  0  0
   -2.4738   36.4906    0.6253 C   0  0  1  0  0  0  0  0  0  0  0  0
   -2.4236   35.7696    1.8878 O   0  0  0  0  0  0  0  0  0  0  0  0
   -0.2708   33.2061    1.4126 C   0  0  1  0  0  0  0  0  0  0  0  0
   -0.7340   34.4662    0.9220 O   0  0  0  0  0  0  0  0  0  0  0  0
   -0.0012   36.1017    7.4815 C   0  0  1  0  0  0  0  0  0  0  0  0
    1.1768   35.9271    8.2533 O   0  0  0  0  0  0  0  0  0  0  0  0
   -3.7516   35.9881   -0.0993 C   0  0  2  0  0  0  0  0  0  0  0  0
   -3.5859   34.6211   -0.4427 O   0  0  0  0  0  0  0  0  0  0  0  0
    0.2929   36.9891    6.2716 C   0  0  1  0  0  0  0  0  0  0  0  0
   -0.8921   37.1627    5.4965 O   0  0  0  0  0  0  0  0  0  0  0  0
   -3.9720   36.8148   -1.3809 C   0  0  1  0  0  0  0  0  0  0  0  0
   -5.1484   36.3628   -2.0620 O   0  0  0  0  0  0  0  0  0  0  0  0
    0.7813   38.3519    6.7632 C   0  0  0  0  0  0  0  0  0  0  0  0
    1.0060   39.1967    5.6459 O   0  0  0  0  0  0  0  0  0  0  0  0
   -4.9393   41.2542   -1.9657 N   0  0  0  0  0  0  0  0  0  0  0  0
   -1.3654   40.3993    2.2717 N   0  0  0  0  0  0  0  0  0  0  0  0
  1  2  1  0  0  0  0
  1 39  1  0  0  0  0
  3  4  1  0  0  0  0
  5  6  1  0  0  0  0
  5 40  1  0  0  0  0
  9 10  1  6  0  0  0
  9 14  1  0  0  0  0
  9 35  1  0  0  0  0
 10  1  1  0  0  0  0
 11 16  1  0  0  0  0
 11 28  1  0  0  0  0
 11 26  1  6  0  0  0
 12 17  1  0  0  0  0
 12 34  1  0  0  0  0
 12 13  1  1  0  0  0
 14 15  1  1  0  0  0
 14 19  1  0  0  0  0
 16 13  1  1  0  0  0
 16 21  1  0  0  0  0
 17 18  1  6  0  0  0
 17 23  1  0  0  0  0
 18  8  1  0  0  0  0
 19 20  1  6  0  0  0
 19 25  1  0  0  0  0
 20  5  1  0  0  0  0
 21  3  1  1  0  0  0
 21 22  1  0  0  0  0
 21 27  1  0  0  0  0
 23 24  1  1  0  0  0
 23 29  1  0  0  0  0
 25 26  1  1  0  0  0
 25 31  1  0  0  0  0
 27  7  1  6  0  0  0
 27 28  1  0  0  0  0
 29 30  1  6  0  0  0
 29 33  1  0  0  0  0
 31 32  1  6  0  0  0
 31 35  1  0  0  0  0
 33 34  1  0  0  0  0
 33 37  1  1  0  0  0
 35 36  1  1  0  0  0
 37 38  1  0  0  0  0
M  END
>  <CHROM.1>
-100.70112973,-77.04093308,-177.38582453,89.22232988,90.34044022,-79.47773313
86.57360721,69.05138366,-72.42456813,-109.95517680,-177.74691894,-1.75851135
36.36894022,2.63804251,-3.06127458,1.09858263,-2.73575509

>  <Name>
1ntb_lig

>  <RI>
0

>  <Rbt.Current_Directory>
/home/itssahil/PROJECTS/Mol_Feturizer/New_Systems/rnas/1ntb

>  <Rbt.Executable>
rbdock ($Id: //depot/dev/client3/rdock/2013.1/src/exe/rbdock.cxx#4 $)

>  <Rbt.Library>
libRbt.so (2013.1, Build901 2013/11/27)

>  <Rbt.Parameter_File>
/export/apps/rDock/src/rDock_2013.1_src/data/scripts/dock_solv.prm

>  <Rbt.Receptor>
prm/pocket_docking_8.prm

>  <SCORE>
-10.9688

>  <SCORE.INTER>
-1.14322

>  <SCORE.INTER.CONST>
1

>  <SCORE.INTER.POLAR>
-0.883162

>  <SCORE.INTER.ROT>
11

>  <SCORE.INTER.SOLV>
7.44716

>  <SCORE.INTER.VDW>
-11.234

>  <SCORE.INTER.norm>
-0.0285805

>  <SCORE.INTRA>
-9.82561

>  <SCORE.INTRA.DIHEDRAL>
1.95664

>  <SCORE.INTRA.DIHEDRAL.0>
15.4453

>  <SCORE.INTRA.POLAR>
0

>  <SCORE.INTRA.POLAR.0>
0

>  <SCORE.INTRA.REPUL>
-0.823958

>  <SCORE.INTRA.REPUL.0>
0.823958

>  <SCORE.INTRA.SOLV>
0.680992

>  <SCORE.INTRA.SOLV.lig_0>
-99.3069

>  <SCORE.INTRA.VDW>
-7.02464

>  <SCORE.INTRA.VDW.0>
0.946495

>  <SCORE.INTRA.norm>
-0.24564

>  <SCORE.RESTR>
0

>  <SCORE.RESTR.CAVITY>
0

>  <SCORE.RESTR.norm>
0

>  <SCORE.SYSTEM>
0

>  <SCORE.SYSTEM.CONST>
0

>  <SCORE.SYSTEM.DIHEDRAL>
0

>  <SCORE.SYSTEM.SOLV>
0

>  <SCORE.SYSTEM.norm>
0

>  <SCORE.heavy>
40

>  <SCORE.norm>
-0.274221

>  <RMSD>
9.434

$$$$
1ntb_lig
 OpenBabel11021811403D
libRbt.so/2013.1/901 2013/11/27
 40 42  0  0  0  0  0  0  0  0999 V2000
   -5.0406   26.8964   -0.9816 C   0  0  0  0  0  0  0  0  0  0  0  0
   -5.0662   25.8846   -1.7600 N   0  0  0  0  0  0  0  0  0  0  0  0
    1.6898   35.0862   -3.4244 C   0  0  0  0  0  0  0  0  0  0  0  0
    0.4084   35.5722   -3.0610 O   0  0  0  0  0  0  0  0  0  0  0  0
   -1.8316   28.8606   -5.6682 C   0  0  0  0  0  0  0  0  0  0  0  0
   -2.0038   29.8735   -6.4405 N   0  0  0  0  0  0  0  0  0  0  0  0
    2.5710   33.0778   -1.0223 C   0  0  0  0  0  0  0  0  0  0  0  0
   -2.6118   33.4011   -5.3559 C   0  0  0  0  0  0  0  0  0  0  0  0
   -3.4195   28.5273   -1.5091 C   0  0  2  0  0  0  0  0  0  0  0  0
   -3.8402   27.3429   -0.6657 N   0  0  0  0  0  0  0  0  0  0  0  0
    0.3480   31.6615   -3.3478 C   0  0  2  0  0  0  0  0  0  0  0  0
    0.2739   31.9355   -6.1814 C   0  0  1  0  0  0  0  0  0  0  0  0
    1.2523   32.5035   -5.3304 O   0  0  0  0  0  0  0  0  0  0  0  0
   -2.5076   28.0895   -2.6499 C   0  0  1  0  0  0  0  0  0  0  0  0
   -3.3081   27.0856   -3.4136 O   0  0  0  0  0  0  0  0  0  0  0  0
    0.7165   32.8963   -4.1499 C   0  0  2  0  0  0  0  0  0  0  0  0
   -0.5888   33.0440   -6.7342 C   0  0  1  0  0  0  0  0  0  0  0  0
   -1.2476   33.7171   -5.6711 N   0  0  0  0  0  0  0  0  0  0  0  0
   -2.0309   29.2557   -3.5132 C   0  0  2  0  0  0  0  0  0  0  0  0
   -1.1641   28.8946   -4.6159 N   0  0  0  0  0  0  0  0  0  0  0  0
    1.7299   33.5834   -3.2735 C   0  0  1  0  0  0  0  0  0  0  0  0
    3.0427   33.0949   -3.5684 O   0  0  0  0  0  0  0  0  0  0  0  0
    0.3151   34.0146   -7.4756 C   0  0  2  0  0  0  0  0  0  0  0  0
   -0.4423   35.0801   -8.0062 O   0  0  0  0  0  0  0  0  0  0  0  0
   -1.2952   30.2236   -2.6232 C   0  0  1  0  0  0  0  0  0  0  0  0
   -1.0438   31.3849   -3.4625 O   0  0  0  0  0  0  0  0  0  0  0  0
    1.3475   33.1893   -1.8947 C   0  0  1  0  0  0  0  0  0  0  0  0
    0.6927   31.9219   -1.9852 O   0  0  0  0  0  0  0  0  0  0  0  0
    0.9875   33.2269   -8.6002 C   0  0  1  0  0  0  0  0  0  0  0  0
    1.8583   34.0684   -9.3400 O   0  0  0  0  0  0  0  0  0  0  0  0
   -2.2285   30.7173   -1.4850 C   0  0  2  0  0  0  0  0  0  0  0  0
   -1.5214   31.6374   -0.6680 O   0  0  0  0  0  0  0  0  0  0  0  0
    1.7745   32.0664   -7.9904 C   0  0  1  0  0  0  0  0  0  0  0  0
    0.8976   31.2221   -7.2464 O   0  0  0  0  0  0  0  0  0  0  0  0
   -2.6764   29.5146   -0.6322 C   0  0  1  0  0  0  0  0  0  0  0  0
   -3.5390   29.9538    0.4238 O   0  0  0  0  0  0  0  0  0  0  0  0
    2.4207   31.2594   -9.1167 C   0  0  0  0  0  0  0  0  0  0  0  0
    3.3716   30.3646   -8.5620 O   0  0  0  0  0  0  0  0  0  0  0  0
   -6.1115   27.4338   -0.5126 N   0  0  0  0  0  0  0  0  0  0  0  0
   -2.3966   27.7856   -5.9361 N   0  0  0  0  0  0  0  0  0  0  0  0
  1  2  1  0  0  0  0
  1 39  1  0  0  0  0
  3  4  1  0  0  0  0
  5  6  1  0  0  0  0
  5 40  1  0  0  0  0
  9 10  1  1  0  0  0
  9 14  1  0  0  0  0
  9 35  1  0  0  0  0
 10  1  1  0  0  0  0
 11 16  1  0  0  0  0
 11 28  1  0  0  0  0
 11 26  1  1  0  0  0
 12 17  1  0  0  0  0
 12 34  1  0  0  0  0
 12 13  1  1  0  0  0
 14 15  1  6  0  0  0
 14 19  1  0  0  0  0
 16 13  1  6  0  0  0
 16 21  1  0  0  0  0
 17 18  1  1  0  0  0
 17 23  1  0  0  0  0
 18  8  1  0  0  0  0
 19 20  1  6  0  0  0
 19 25  1  0  0  0  0
 20  5  1  0  0  0  0
 21  3  1  6  0  0  0
 21 22  1  0  0  0  0
 21 27  1  0  0  0  0
 23 24  1  6  0  0  0
 23 29  1  0  0  0  0
 25 26  1  6  0  0  0
 25 31  1  0  0  0  0
 27  7  1  1  0  0  0
 27 28  1  0  0  0  0
 29 30  1  1  0  0  0
 29 33  1  0  0  0  0
 31 32  1  1  0  0  0
 31 35  1  0  0  0  0
 33 34  1  0  0  0  0
 33 37  1  6  0  0  0
 35 36  1  1  0  0  0
 37 38  1  0  0  0  0
M  END
>  <CHROM.1>
-98.68054480,98.27381174,-177.91489617,74.36992629,70.49932972,-99.27761721
100.03220397,89.81120918,60.35061685,-128.54091377,167.74869831,-0.71712862
31.17591893,-4.20268239,2.72823696,0.90187629,1.26993699

>  <Name>
1ntb_lig

>  <RI>
0

>  <Rbt.Current_Directory>
/home/itssahil/PROJECTS/Mol_Feturizer/New_Systems/rnas/1ntb

>  <Rbt.Executable>
rbdock ($Id: //depot/dev/client3/rdock/2013.1/src/exe/rbdock.cxx#4 $)

>  <Rbt.Library>
libRbt.so (2013.1, Build901 2013/11/27)

>  <Rbt.Parameter_File>
/export/apps/rDock/src/rDock_2013.1_src/data/scripts/dock_solv.prm

>  <Rbt.Receptor>
prm/pocket_docking_8.prm

>  <SCORE>
-21.4936

>  <SCORE.INTER>
-11.8431

>  <SCORE.INTER.CONST>
1

>  <SCORE.INTER.POLAR>
-0.00494314

>  <SCORE.INTER.ROT>
11

>  <SCORE.INTER.SOLV>
15.309

>  <SCORE.INTER.VDW>
-23.9153

>  <SCORE.INTER.norm>
-0.296078

>  <SCORE.INTRA>
-9.76245

>  <SCORE.INTRA.DIHEDRAL>
-2.65673

>  <SCORE.INTRA.DIHEDRAL.0>
15.4453

>  <SCORE.INTRA.POLAR>
0

>  <SCORE.INTRA.POLAR.0>
0

>  <SCORE.INTRA.REPUL>
-0.823958

>  <SCORE.INTRA.REPUL.0>
0.823958

>  <SCORE.INTRA.SOLV>
1.8675

>  <SCORE.INTRA.SOLV.lig_0>
-99.3069

>  <SCORE.INTRA.VDW>
-5.24804

>  <SCORE.INTRA.VDW.0>
0.946495

>  <SCORE.INTRA.norm>
-0.244061

>  <SCORE.RESTR>
0.112001

>  <SCORE.RESTR.CAVITY>
0.112001

>  <SCORE.RESTR.norm>
0.00280002

>  <SCORE.SYSTEM>
0

>  <SCORE.SYSTEM.CONST>
0

>  <SCORE.SYSTEM.DIHEDRAL>
0

>  <SCORE.SYSTEM.SOLV>
0

>  <SCORE.SYSTEM.norm>
0

>  <SCORE.heavy>
40

>  <SCORE.norm>
-0.53734

>  <RMSD>
9.565

$$$$
1ntb_lig
 OpenBabel11021811403D
libRbt.so/2013.1/901 2013/11/27
 40 42  0  0  0  0  0  0  0  0999 V2000
   -2.9918   42.5792    0.8632 C   0  0  0  0  0  0  0  0  0  0  0  0
   -3.9538   42.9891    0.1305 N   0  0  0  0  0  0  0  0  0  0  0  0
    0.0026   32.4882    3.7888 C   0  0  0  0  0  0  0  0  0  0  0  0
    0.3438   32.1498    5.1227 O   0  0  0  0  0  0  0  0  0  0  0  0
   -4.2672   36.8644   -0.6732 C   0  0  0  0  0  0  0  0  0  0  0  0
   -3.3891   36.4200   -1.4999 N   0  0  0  0  0  0  0  0  0  0  0  0
   -1.5009   34.2971    6.0354 C   0  0  0  0  0  0  0  0  0  0  0  0
   -3.9290   29.7267    2.4853 C   0  0  0  0  0  0  0  0  0  0  0  0
   -2.6795   40.3327    1.5123 C   0  0  2  0  0  0  0  0  0  0  0  0
   -3.3119   41.6823    1.7760 N   0  0  0  0  0  0  0  0  0  0  0  0
   -2.1652   35.2624    2.7215 C   0  0  2  0  0  0  0  0  0  0  0  0
   -1.8467   31.9156    1.3601 C   0  0  1  0  0  0  0  0  0  0  0  0
   -2.4094   33.1599    1.7332 O   0  0  0  0  0  0  0  0  0  0  0  0
   -3.7371   39.2936    1.1563 C   0  0  1  0  0  0  0  0  0  0  0  0
   -4.4340   39.8541   -0.0404 O   0  0  0  0  0  0  0  0  0  0  0  0
   -1.5212   33.9228    2.4142 C   0  0  2  0  0  0  0  0  0  0  0  0
   -2.9120   31.0856    0.6857 C   0  0  1  0  0  0  0  0  0  0  0  0
   -3.9810   30.8473    1.5899 N   0  0  0  0  0  0  0  0  0  0  0  0
   -3.1499   37.9053    0.9104 C   0  0  2  0  0  0  0  0  0  0  0  0
   -4.1121   36.8798    0.5636 N   0  0  0  0  0  0  0  0  0  0  0  0
   -1.2299   33.3620    3.7809 C   0  0  1  0  0  0  0  0  0  0  0  0
   -2.3594   32.6224    4.2568 O   0  0  0  0  0  0  0  0  0  0  0  0
   -3.4194   31.8634   -0.5169 C   0  0  2  0  0  0  0  0  0  0  0  0
   -4.4284   31.1340   -1.1808 O   0  0  0  0  0  0  0  0  0  0  0  0
   -2.4248   37.4784    2.1602 C   0  0  1  0  0  0  0  0  0  0  0  0
   -1.7364   36.2511    1.7912 O   0  0  0  0  0  0  0  0  0  0  0  0
   -1.0226   34.5606    4.6311 C   0  0  1  0  0  0  0  0  0  0  0  0
   -1.7765   35.6260    4.0482 O   0  0  0  0  0  0  0  0  0  0  0  0
   -2.2230   32.0823   -1.4432 C   0  0  1  0  0  0  0  0  0  0  0  0
   -2.6171   32.8122   -2.5945 O   0  0  0  0  0  0  0  0  0  0  0  0
   -1.3102   38.5020    2.5066 C   0  0  2  0  0  0  0  0  0  0  0  0
   -0.6313   38.0740    3.6772 O   0  0  0  0  0  0  0  0  0  0  0  0
   -1.1412   32.8495   -0.6823 C   0  0  1  0  0  0  0  0  0  0  0  0
   -0.7469   32.1147    0.4752 O   0  0  0  0  0  0  0  0  0  0  0  0
   -1.9441   39.8836    2.7587 C   0  0  1  0  0  0  0  0  0  0  0  0
   -0.9276   40.8404    3.0802 O   0  0  0  0  0  0  0  0  0  0  0  0
    0.0683   33.0405   -1.5979 C   0  0  0  0  0  0  0  0  0  0  0  0
    0.6010   31.7701   -1.9366 O   0  0  0  0  0  0  0  0  0  0  0  0
   -1.7916   43.0268    0.7407 N   0  0  0  0  0  0  0  0  0  0  0  0
   -5.3201   37.3618   -1.1098 N   0  0  0  0  0  0  0  0  0  0  0  0
  1  2  1  0  0  0  0
  1 39  1  0  0  0  0
  3  4  1  0  0  0  0
  5  6  1  0  0  0  0
  5 40  1  0  0  0  0
  9 10  1  1  0  0  0
  9 14  1  0  0  0  0
  9 35  1  0  0  0  0
 10  1  1  0  0  0  0
 11 16  1  0  0  0  0
 11 28  1  0  0  0  0
 11 26  1  6  0  0  0
 12 17  1  0  0  0  0
 12 34  1  0  0  0  0
 12 13  1  6  0  0  0
 14 15  1  6  0  0  0
 14 19  1  0  0  0  0
 16 13  1  1  0  0  0
 16 21  1  0  0  0  0
 17 18  1  1  0  0  0
 17 23  1  0  0  0  0
 18  8  1  0  0  0  0
 19 20  1  1  0  0  0
 19 25  1  0  0  0  0
 20  5  1  0  0  0  0
 21  3  1  6  0  0  0
 21 22  1  0  0  0  0
 21 27  1  0  0  0  0
 23 24  1  6  0  0  0
 23 29  1  0  0  0  0
 25 26  1  6  0  0  0
 25 31  1  0  0  0  0
 27  7  1  1  0  0  0
 27 28  1  0  0  0  0
 29 30  1  6  0  0  0
 29 33  1  0  0  0  0
 31 32  1  1  0  0  0
 31 35  1  0  0  0  0
 33 34  1  0  0  0  0
 33 37  1  6  0  0  0
 35 36  1  6  0  0  0
 37 38  1  0  0  0  0
M  END
>  <CHROM.1>
-112.67645120,113.72308001,179.05633507,176.45558781,177.24272174,-86.84888654
88.84397432,72.29273359,171.41942587,-124.25789887,-62.75952371,-2.28703015
35.56752243,1.39842350,1.82737785,-1.18626852,0.25826890

>  <Name>
1ntb_lig

>  <RI>
0

>  <Rbt.Current_Directory>
/home/itssahil/PROJECTS/Mol_Feturizer/New_Systems/rnas/1ntb

>  <Rbt.Executable>
rbdock ($Id: //depot/dev/client3/rdock/2013.1/src/exe/rbdock.cxx#4 $)

>  <Rbt.Library>
libRbt.so (2013.1, Build901 2013/11/27)

>  <Rbt.Parameter_File>
/export/apps/rDock/src/rDock_2013.1_src/data/scripts/dock_solv.prm

>  <Rbt.Receptor>
prm/pocket_docking_8.prm

>  <SCORE>
-8.91116

>  <SCORE.INTER>
3.69832

>  <SCORE.INTER.CONST>
1

>  <SCORE.INTER.POLAR>
-0.860737

>  <SCORE.INTER.ROT>
11

>  <SCORE.INTER.SOLV>
5.15035

>  <SCORE.INTER.VDW>
-7.31544

>  <SCORE.INTER.norm>
0.0924581

>  <SCORE.INTRA>
-12.6095

>  <SCORE.INTRA.DIHEDRAL>
-4.55413

>  <SCORE.INTRA.DIHEDRAL.0>
15.4453

>  <SCORE.INTRA.POLAR>
0

>  <SCORE.INTRA.POLAR.0>
0

>  <SCORE.INTRA.REPUL>
-0.820921

>  <SCORE.INTRA.REPUL.0>
0.823958

>  <SCORE.INTRA.SOLV>
-2.00154

>  <SCORE.INTRA.SOLV.lig_0>
-99.3069

>  <SCORE.INTRA.VDW>
-5.22704

>  <SCORE.INTRA.VDW.0>
0.946495

>  <SCORE.INTRA.norm>
-0.315237

>  <SCORE.RESTR>
0

>  <SCORE.RESTR.CAVITY>
0

>  <SCORE.RESTR.norm>
0

>  <SCORE.SYSTEM>
0

>  <SCORE.SYSTEM.CONST>
0

>  <SCORE.SYSTEM.DIHEDRAL>
0

>  <SCORE.SYSTEM.SOLV>
0

>  <SCORE.SYSTEM.norm>
0

>  <SCORE.heavy>
40

>  <SCORE.norm>
-0.222779

>  <RMSD>
9.710

$$$$
1ntb_lig
 OpenBabel11021811403D
libRbt.so/2013.1/901 2013/11/27
 40 42  0  0  0  0  0  0  0  0999 V2000
   -3.1329   27.3851    0.4745 C   0  0  0  0  0  0  0  0  0  0  0  0
   -3.5178   26.4152    1.2103 N   0  0  0  0  0  0  0  0  0  0  0  0
   -3.1563   37.3098    3.7644 C   0  0  0  0  0  0  0  0  0  0  0  0
   -3.1709   37.5709    2.3708 O   0  0  0  0  0  0  0  0  0  0  0  0
   -3.7837   33.5145   -1.2146 C   0  0  0  0  0  0  0  0  0  0  0  0
   -4.7558   34.3542   -1.1709 N   0  0  0  0  0  0  0  0  0  0  0  0
   -6.2509   36.9443    4.6971 C   0  0  0  0  0  0  0  0  0  0  0  0
   -0.7894   34.5442    7.3797 C   0  0  0  0  0  0  0  0  0  0  0  0
   -3.4793   29.6248    1.1300 C   0  0  2  0  0  0  0  0  0  0  0  0
   -2.5864   28.4027    1.1117 N   0  0  0  0  0  0  0  0  0  0  0  0
   -4.8799   34.1277    3.1025 C   0  0  2  0  0  0  0  0  0  0  0  0
   -1.4719   34.6922    4.1991 C   0  0  1  0  0  0  0  0  0  0  0  0
   -2.7566   34.1102    4.0761 O   0  0  0  0  0  0  0  0  0  0  0  0
   -2.8144   30.7983    0.4188 C   0  0  1  0  0  0  0  0  0  0  0  0
   -2.5379   30.2996   -0.9620 O   0  0  0  0  0  0  0  0  0  0  0  0
   -3.5818   34.8813    3.3283 C   0  0  2  0  0  0  0  0  0  0  0  0
   -0.6057   33.7804    5.0339 C   0  0  1  0  0  0  0  0  0  0  0  0
   -1.1660   33.6390    6.3314 N   0  0  0  0  0  0  0  0  0  0  0  0
   -3.6654   32.0663    0.4372 C   0  0  2  0  0  0  0  0  0  0  0  0
   -3.0820   33.2120   -0.2296 N   0  0  0  0  0  0  0  0  0  0  0  0
   -4.0265   36.1133    4.0708 C   0  0  1  0  0  0  0  0  0  0  0  0
   -4.0338   35.8592    5.4795 O   0  0  0  0  0  0  0  0  0  0  0  0
   -0.5529   32.4265    4.3462 C   0  0  2  0  0  0  0  0  0  0  0  0
    0.2393   31.5292    5.0931 O   0  0  0  0  0  0  0  0  0  0  0  0
   -3.9262   32.4312    1.8756 C   0  0  1  0  0  0  0  0  0  0  0  0
   -4.8902   33.5191    1.8154 O   0  0  0  0  0  0  0  0  0  0  0  0
   -5.4138   36.3447    3.5971 C   0  0  1  0  0  0  0  0  0  0  0  0
   -5.9452   35.0745    3.2134 O   0  0  0  0  0  0  0  0  0  0  0  0
    0.0582   32.6528    2.9632 C   0  0  1  0  0  0  0  0  0  0  0  0
    0.1361   31.4276    2.2515 O   0  0  0  0  0  0  0  0  0  0  0  0
   -4.6493   31.2637    2.5997 C   0  0  2  0  0  0  0  0  0  0  0  0
   -4.8979   31.6332    3.9473 O   0  0  0  0  0  0  0  0  0  0  0  0
   -0.8101   33.6497    2.1950 C   0  0  1  0  0  0  0  0  0  0  0  0
   -0.8880   34.8804    2.9123 O   0  0  0  0  0  0  0  0  0  0  0  0
   -3.7543   30.0098    2.5695 C   0  0  1  0  0  0  0  0  0  0  0  0
   -4.4078   28.9223    3.2346 O   0  0  0  0  0  0  0  0  0  0  0  0
   -0.1819   33.9009    0.8239 C   0  0  0  0  0  0  0  0  0  0  0  0
    1.0874   34.5101    0.9980 O   0  0  0  0  0  0  0  0  0  0  0  0
   -3.2885   27.3866   -0.8028 N   0  0  0  0  0  0  0  0  0  0  0  0
   -3.5416   32.9156   -2.2773 N   0  0  0  0  0  0  0  0  0  0  0  0
  1  2  1  0  0  0  0
  1 39  1  0  0  0  0
  3  4  1  0  0  0  0
  5  6  1  0  0  0  0
  5 40  1  0  0  0  0
  9 10  1  1  0  0  0
  9 14  1  0  0  0  0
  9 35  1  0  0  0  0
 10  1  1  0  0  0  0
 11 16  1  0  0  0  0
 11 28  1  0  0  0  0
 11 26  1  6  0  0  0
 12 17  1  0  0  0  0
 12 34  1  0  0  0  0
 12 13  1  6  0  0  0
 14 15  1  6  0  0  0
 14 19  1  0  0  0  0
 16 13  1  1  0  0  0
 16 21  1  0  0  0  0
 17 18  1  1  0  0  0
 17 23  1  0  0  0  0
 18  8  1  0  0  0  0
 19 20  1  1  0  0  0
 19 25  1  0  0  0  0
 20  5  1  0  0  0  0
 21  3  1  6  0  0  0
 21 22  1  0  0  0  0
 21 27  1  0  0  0  0
 23 24  1  1  0  0  0
 23 29  1  0  0  0  0
 25 26  1  6  0  0  0
 25 31  1  0  0  0  0
 27  7  1  1  0  0  0
 27 28  1  0  0  0  0
 29 30  1  6  0  0  0
 29 33  1  0  0  0  0
 31 32  1  1  0  0  0
 31 35  1  0  0  0  0
 33 34  1  0  0  0  0
 33 37  1  6  0  0  0
 35 36  1  6  0  0  0
 37 38  1  0  0  0  0
M  END
>  <CHROM.1>
-118.50163368,-108.36988652,70.53580762,-179.66936952,173.47538159,-90.26477098
115.31933177,90.95411656,58.18190706,-164.34129169,-63.67476678,-2.86071713
32.88059646,2.43908661,-1.57460078,-0.73867089,0.52303292

>  <Name>
1ntb_lig

>  <RI>
0

>  <Rbt.Current_Directory>
/home/itssahil/PROJECTS/Mol_Feturizer/New_Systems/rnas/1ntb

>  <Rbt.Executable>
rbdock ($Id: //depot/dev/client3/rdock/2013.1/src/exe/rbdock.cxx#4 $)

>  <Rbt.Library>
libRbt.so (2013.1, Build901 2013/11/27)

>  <Rbt.Parameter_File>
/export/apps/rDock/src/rDock_2013.1_src/data/scripts/dock_solv.prm

>  <Rbt.Receptor>
prm/pocket_docking_8.prm

>  <SCORE>
-16.6736

>  <SCORE.INTER>
-1.04347

>  <SCORE.INTER.CONST>
1

>  <SCORE.INTER.POLAR>
-1.08575

>  <SCORE.INTER.ROT>
11

>  <SCORE.INTER.SOLV>
12.4207

>  <SCORE.INTER.VDW>
-12.15

>  <SCORE.INTER.norm>
-0.0260869

>  <SCORE.INTRA>
-15.6342

>  <SCORE.INTRA.DIHEDRAL>
-9.30776

>  <SCORE.INTRA.DIHEDRAL.0>
15.4453

>  <SCORE.INTRA.POLAR>
0

>  <SCORE.INTRA.POLAR.0>
0

>  <SCORE.INTRA.REPUL>
-0.792103

>  <SCORE.INTRA.REPUL.0>
0.823958

>  <SCORE.INTRA.SOLV>
-1.06668

>  <SCORE.INTRA.SOLV.lig_0>
-99.3069

>  <SCORE.INTRA.VDW>
-6.4865

>  <SCORE.INTRA.VDW.0>
0.946495

>  <SCORE.INTRA.norm>
-0.390856

>  <SCORE.RESTR>
0.00406773

>  <SCORE.RESTR.CAVITY>
0.00406773

>  <SCORE.RESTR.norm>
0.000101693

>  <SCORE.SYSTEM>
0

>  <SCORE.SYSTEM.CONST>
0

>  <SCORE.SYSTEM.DIHEDRAL>
0

>  <SCORE.SYSTEM.SOLV>
0

>  <SCORE.SYSTEM.norm>
0

>  <SCORE.heavy>
40

>  <SCORE.norm>
-0.416841

>  <RMSD>
9.804

$$$$
1ntb_lig
 OpenBabel11021811403D
libRbt.so/2013.1/901 2013/11/27
 40 42  0  0  0  0  0  0  0  0999 V2000
    1.6117   43.8907   -6.5222 C   0  0  0  0  0  0  0  0  0  0  0  0
    2.4480   44.7151   -7.0233 N   0  0  0  0  0  0  0  0  0  0  0  0
    2.3244   41.7460    3.7166 C   0  0  0  0  0  0  0  0  0  0  0  0
    3.1771   42.8776    3.7673 O   0  0  0  0  0  0  0  0  0  0  0  0
    4.0176   45.7745   -0.8523 C   0  0  0  0  0  0  0  0  0  0  0  0
    3.5313   46.4811    0.1050 N   0  0  0  0  0  0  0  0  0  0  0  0
   -0.6759   42.9538    4.0620 C   0  0  0  0  0  0  0  0  0  0  0  0
    1.1904   37.3750    1.4932 C   0  0  0  0  0  0  0  0  0  0  0  0
    1.7068   43.7455   -4.1694 C   0  0  2  0  0  0  0  0  0  0  0  0
    2.0612   43.1606   -5.5196 N   0  0  0  0  0  0  0  0  0  0  0  0
    0.6219   43.2171    0.8059 C   0  0  2  0  0  0  0  0  0  0  0  0
    2.6774   40.2368    0.9913 C   0  0  1  0  0  0  0  0  0  0  0  0
    1.6424   41.1248    0.6112 O   0  0  0  0  0  0  0  0  0  0  0  0
    2.9426   43.8658   -3.2844 C   0  0  1  0  0  0  0  0  0  0  0  0
    3.8857   44.7248   -4.0619 O   0  0  0  0  0  0  0  0  0  0  0  0
    1.6586   42.2553    1.3572 C   0  0  2  0  0  0  0  0  0  0  0  0
    2.5505   38.9703    0.1799 C   0  0  1  0  0  0  0  0  0  0  0  0
    1.3004   38.3509    0.4465 N   0  0  0  0  0  0  0  0  0  0  0  0
    2.6307   44.4240   -1.8974 C   0  0  2  0  0  0  0  0  0  0  0  0
    3.7717   44.5635   -1.0163 N   0  0  0  0  0  0  0  0  0  0  0  0
    1.1815   42.0077    2.7637 C   0  0  1  0  0  0  0  0  0  0  0  0
    0.2648   40.9084    2.7826 O   0  0  0  0  0  0  0  0  0  0  0  0
    2.6351   39.3460   -1.2899 C   0  0  2  0  0  0  0  0  0  0  0  0
    2.5116   38.1951   -2.0967 O   0  0  0  0  0  0  0  0  0  0  0  0
    1.6287   43.5094   -1.2419 C   0  0  1  0  0  0  0  0  0  0  0  0
    1.2370   44.1984   -0.0220 O   0  0  0  0  0  0  0  0  0  0  0  0
    0.4719   43.2573    3.1341 C   0  0  1  0  0  0  0  0  0  0  0  0
   -0.0170   43.8388    1.9233 O   0  0  0  0  0  0  0  0  0  0  0  0
    3.9988   40.0031   -1.5041 C   0  0  1  0  0  0  0  0  0  0  0  0
    4.1526   40.3904   -2.8606 O   0  0  0  0  0  0  0  0  0  0  0  0
    0.3435   43.4173   -2.1081 C   0  0  2  0  0  0  0  0  0  0  0  0
   -0.5912   42.5636   -1.4665 O   0  0  0  0  0  0  0  0  0  0  0  0
    4.1070   41.2276   -0.5949 C   0  0  1  0  0  0  0  0  0  0  0  0
    3.9514   40.8364    0.7682 O   0  0  0  0  0  0  0  0  0  0  0  0
    0.6989   42.8396   -3.4916 C   0  0  1  0  0  0  0  0  0  0  0  0
   -0.4777   42.7479   -4.3038 O   0  0  0  0  0  0  0  0  0  0  0  0
    5.4830   41.8664   -0.7850 C   0  0  0  0  0  0  0  0  0  0  0  0
    5.5736   42.3948   -2.0984 O   0  0  0  0  0  0  0  0  0  0  0  0
    0.4156   43.7582   -6.9775 N   0  0  0  0  0  0  0  0  0  0  0  0
    4.7363   46.3190   -1.7088 N   0  0  0  0  0  0  0  0  0  0  0  0
  1  2  1  0  0  0  0
  1 39  1  0  0  0  0
  3  4  1  0  0  0  0
  5  6  1  0  0  0  0
  5 40  1  0  0  0  0
  9 10  1  6  0  0  0
  9 14  1  0  0  0  0
  9 35  1  0  0  0  0
 10  1  1  0  0  0  0
 11 16  1  0  0  0  0
 11 28  1  0  0  0  0
 11 26  1  6  0  0  0
 12 17  1  0  0  0  0
 12 34  1  0  0  0  0
 12 13  1  6  0  0  0
 14 15  1  6  0  0  0
 14 19  1  0  0  0  0
 16 13  1  6  0  0  0
 16 21  1  0  0  0  0
 17 18  1  6  0  0  0
 17 23  1  0  0  0  0
 18  8  1  0  0  0  0
 19 20  1  1  0  0  0
 19 25  1  0  0  0  0
 20  5  1  0  0  0  0
 21  3  1  1  0  0  0
 21 22  1  0  0  0  0
 21 27  1  0  0  0  0
 23 24  1  6  0  0  0
 23 29  1  0  0  0  0
 25 26  1  1  0  0  0
 25 31  1  0  0  0  0
 27  7  1  1  0  0  0
 27 28  1  0  0  0  0
 29 30  1  6  0  0  0
 29 33  1  0  0  0  0
 31 32  1  1  0  0  0
 31 35  1  0  0  0  0
 33 34  1  0  0  0  0
 33 37  1  1  0  0  0
 35 36  1  6  0  0  0
 37 38  1  0  0  0  0
M  END
>  <CHROM.1>
-128.43877466,96.05413073,72.02680054,176.68082782,174.24128805,-91.06700606
110.12751384,91.79542022,61.42405892,-162.90986541,66.64770302,2.17912743
42.42770146,-0.92469782,-0.49068909,-1.45344208,3.01878636

>  <Name>
1ntb_lig

>  <RI>
0

>  <Rbt.Current_Directory>
/home/itssahil/PROJECTS/Mol_Feturizer/New_Systems/rnas/1ntb

>  <Rbt.Executable>
rbdock ($Id: //depot/dev/client3/rdock/2013.1/src/exe/rbdock.cxx#4 $)

>  <Rbt.Library>
libRbt.so (2013.1, Build901 2013/11/27)

>  <Rbt.Parameter_File>
/export/apps/rDock/src/rDock_2013.1_src/data/scripts/dock_solv.prm

>  <Rbt.Receptor>
prm/pocket_docking_8.prm

>  <SCORE>
-9.42119

>  <SCORE.INTER>
5.87302

>  <SCORE.INTER.CONST>
1

>  <SCORE.INTER.POLAR>
-0.161073

>  <SCORE.INTER.ROT>
11

>  <SCORE.INTER.SOLV>
5.41825

>  <SCORE.INTER.VDW>
-8.28716

>  <SCORE.INTER.norm>
0.146825

>  <SCORE.INTRA>
-15.2942

>  <SCORE.INTRA.DIHEDRAL>
-8.78234

>  <SCORE.INTRA.DIHEDRAL.0>
15.4453

>  <SCORE.INTRA.POLAR>
0

>  <SCORE.INTRA.POLAR.0>
0

>  <SCORE.INTRA.REPUL>
-0.80979

>  <SCORE.INTRA.REPUL.0>
0.823958

>  <SCORE.INTRA.SOLV>
-0.0841637

>  <SCORE.INTRA.SOLV.lig_0>
-99.3069

>  <SCORE.INTRA.VDW>
-6.812

>  <SCORE.INTRA.VDW.0>
0.946495

>  <SCORE.INTRA.norm>
-0.382355

>  <SCORE.RESTR>
0

>  <SCORE.RESTR.CAVITY>
0

>  <SCORE.RESTR.norm>
0

>  <SCORE.SYSTEM>
0

>  <SCORE.SYSTEM.CONST>
0

>  <SCORE.SYSTEM.DIHEDRAL>
0

>  <SCORE.SYSTEM.SOLV>
0

>  <SCORE.SYSTEM.norm>
0

>  <SCORE.heavy>
40

>  <SCORE.norm>
-0.23553

>  <RMSD>
9.861

$$$$
1ntb_lig
 OpenBabel11021811403D
libRbt.so/2013.1/901 2013/11/27
 40 42  0  0  0  0  0  0  0  0999 V2000
    4.4491   44.9104    1.3356 C   0  0  0  0  0  0  0  0  0  0  0  0
    4.4681   44.9458    0.0594 N   0  0  0  0  0  0  0  0  0  0  0  0
   -0.4744   37.0026    7.2712 C   0  0  0  0  0  0  0  0  0  0  0  0
    0.3746   36.2569    6.4148 O   0  0  0  0  0  0  0  0  0  0  0  0
    0.7743   40.0364    0.7059 C   0  0  0  0  0  0  0  0  0  0  0  0
    0.4737   40.4522   -0.4725 N   0  0  0  0  0  0  0  0  0  0  0  0
    1.3066   39.1894    8.8918 C   0  0  0  0  0  0  0  0  0  0  0  0
   -0.3571   36.8457    2.7829 C   0  0  0  0  0  0  0  0  0  0  0  0
    3.0549   43.3520    2.4281 C   0  0  2  0  0  0  0  0  0  0  0  0
    3.2603   44.7496    1.8843 N   0  0  0  0  0  0  0  0  0  0  0  0
    0.6511   40.0518    5.5478 C   0  0  2  0  0  0  0  0  0  0  0  0
   -1.8326   39.4655    4.0046 C   0  0  1  0  0  0  0  0  0  0  0  0
   -1.5869   39.3995    5.3972 O   0  0  0  0  0  0  0  0  0  0  0  0
    1.8373   42.6911    1.7913 C   0  0  1  0  0  0  0  0  0  0  0  0
    2.1176   42.7098    0.3240 O   0  0  0  0  0  0  0  0  0  0  0  0
   -0.3494   38.9160    5.6612 C   0  0  2  0  0  0  0  0  0  0  0  0
   -2.3374   38.1216    3.5381 C   0  0  1  0  0  0  0  0  0  0  0  0
   -1.3520   37.1273    3.7785 N   0  0  0  0  0  0  0  0  0  0  0  0
    1.5702   41.2876    2.3310 C   0  0  2  0  0  0  0  0  0  0  0  0
    0.4258   40.6115    1.7556 N   0  0  0  0  0  0  0  0  0  0  0  0
   -0.2102   38.4798    7.0955 C   0  0  1  0  0  0  0  0  0  0  0  0
   -1.0954   39.2392    7.9256 O   0  0  0  0  0  0  0  0  0  0  0  0
   -3.5973   37.7970    4.3228 C   0  0  2  0  0  0  0  0  0  0  0  0
   -4.1074   36.5411    3.9314 O   0  0  0  0  0  0  0  0  0  0  0  0
    1.3654   41.3925    3.8200 C   0  0  1  0  0  0  0  0  0  0  0  0
    1.3113   40.0158    4.2869 O   0  0  0  0  0  0  0  0  0  0  0  0
    1.1972   38.8006    7.4401 C   0  0  1  0  0  0  0  0  0  0  0  0
    1.5960   39.8927    6.6086 O   0  0  0  0  0  0  0  0  0  0  0  0
   -4.6092   38.9017    4.0177 C   0  0  1  0  0  0  0  0  0  0  0  0
   -5.8189   38.6718    4.7232 O   0  0  0  0  0  0  0  0  0  0  0  0
    2.6194   42.0178    4.4885 C   0  0  2  0  0  0  0  0  0  0  0  0
    2.4114   42.0943    5.8903 O   0  0  0  0  0  0  0  0  0  0  0  0
   -4.0120   40.2480    4.4285 C   0  0  1  0  0  0  0  0  0  0  0  0
   -2.7957   40.4771    3.7189 O   0  0  0  0  0  0  0  0  0  0  0  0
    2.8463   43.4345    3.9266 C   0  0  1  0  0  0  0  0  0  0  0  0
    4.0009   44.0260    4.5342 O   0  0  0  0  0  0  0  0  0  0  0  0
   -5.0105   41.3564    4.0938 C   0  0  0  0  0  0  0  0  0  0  0  0
   -6.0922   41.3007    5.0098 O   0  0  0  0  0  0  0  0  0  0  0  0
    5.5132   45.0478    2.0459 N   0  0  0  0  0  0  0  0  0  0  0  0
    1.4042   38.9719    0.8355 N   0  0  0  0  0  0  0  0  0  0  0  0
  1  2  1  0  0  0  0
  1 39  1  0  0  0  0
  3  4  1  0  0  0  0
  5  6  1  0  0  0  0
  5 40  1  0  0  0  0
  9 10  1  6  0  0  0
  9 14  1  0  0  0  0
  9 35  1  0  0  0  0
 10  1  1  0  0  0  0
 11 16  1  0  0  0  0
 11 28  1  0  0  0  0
 11 26  1  6  0  0  0
 12 17  1  0  0  0  0
 12 34  1  0  0  0  0
 12 13  1  1  0  0  0
 14 15  1  6  0  0  0
 14 19  1  0  0  0  0
 16 13  1  1  0  0  0
 16 21  1  0  0  0  0
 17 18  1  1  0  0  0
 17 23  1  0  0  0  0
 18  8  1  0  0  0  0
 19 20  1  6  0  0  0
 19 25  1  0  0  0  0
 20  5  1  0  0  0  0
 21  3  1  1  0  0  0
 21 22  1  0  0  0  0
 21 27  1  0  0  0  0
 23 24  1  6  0  0  0
 23 29  1  0  0  0  0
 25 26  1  1  0  0  0
 25 31  1  0  0  0  0
 27  7  1  1  0  0  0
 27 28  1  0  0  0  0
 29 30  1  1  0  0  0
 29 33  1  0  0  0  0
 31 32  1  1  0  0  0
 31 35  1  0  0  0  0
 33 34  1  0  0  0  0
 33 37  1  6  0  0  0
 35 36  1  1  0  0  0
 37 38  1  0  0  0  0
M  END
>  <CHROM.1>
-122.33787721,105.35754922,137.11967701,85.46907039,82.72378664,-89.12114899
85.77721047,-105.88911993,55.29286179,-159.33874298,72.71856502,0.04554276
40.39510740,4.00584216,0.62953567,-0.43216598,-1.06770679

>  <Name>
1ntb_lig

>  <RI>
0

>  <Rbt.Current_Directory>
/home/itssahil/PROJECTS/Mol_Feturizer/New_Systems/rnas/1ntb

>  <Rbt.Executable>
rbdock ($Id: //depot/dev/client3/rdock/2013.1/src/exe/rbdock.cxx#4 $)

>  <Rbt.Library>
libRbt.so (2013.1, Build901 2013/11/27)

>  <Rbt.Parameter_File>
/export/apps/rDock/src/rDock_2013.1_src/data/scripts/dock_solv.prm

>  <Rbt.Receptor>
prm/pocket_docking_8.prm

>  <SCORE>
-3.23886

>  <SCORE.INTER>
5.6744

>  <SCORE.INTER.CONST>
1

>  <SCORE.INTER.POLAR>
0

>  <SCORE.INTER.ROT>
11

>  <SCORE.INTER.SOLV>
5.57096

>  <SCORE.INTER.VDW>
-9.00739

>  <SCORE.INTER.norm>
0.14186

>  <SCORE.INTRA>
-8.91326

>  <SCORE.INTRA.DIHEDRAL>
1.14059

>  <SCORE.INTRA.DIHEDRAL.0>
15.4453

>  <SCORE.INTRA.POLAR>
0

>  <SCORE.INTRA.POLAR.0>
0

>  <SCORE.INTRA.REPUL>
-0.823958

>  <SCORE.INTRA.REPUL.0>
0.823958

>  <SCORE.INTRA.SOLV>
0.0608751

>  <SCORE.INTRA.SOLV.lig_0>
-99.3069

>  <SCORE.INTRA.VDW>
-5.3942

>  <SCORE.INTRA.VDW.0>
0.946495

>  <SCORE.INTRA.norm>
-0.222831

>  <SCORE.RESTR>
0

>  <SCORE.RESTR.CAVITY>
0

>  <SCORE.RESTR.norm>
0

>  <SCORE.SYSTEM>
0

>  <SCORE.SYSTEM.CONST>
0

>  <SCORE.SYSTEM.DIHEDRAL>
0

>  <SCORE.SYSTEM.SOLV>
0

>  <SCORE.SYSTEM.norm>
0

>  <SCORE.heavy>
40

>  <SCORE.norm>
-0.0809715

>  <RMSD>
9.963

$$$$
1ntb_lig
 OpenBabel11021811403D
libRbt.so/2013.1/901 2013/11/27
 40 42  0  0  0  0  0  0  0  0999 V2000
   22.6261   28.2787    0.2762 C   0  0  0  0  0  0  0  0  0  0  0  0
   22.2937   29.4850    0.0223 N   0  0  0  0  0  0  0  0  0  0  0  0
   17.6922   33.5397   -0.3896 C   0  0  0  0  0  0  0  0  0  0  0  0
   18.1964   34.8410   -0.6398 O   0  0  0  0  0  0  0  0  0  0  0  0
   18.7855   26.8339   -3.9881 C   0  0  0  0  0  0  0  0  0  0  0  0
   19.4006   25.7128   -3.8582 N   0  0  0  0  0  0  0  0  0  0  0  0
   19.0566   33.5491   -3.3422 C   0  0  0  0  0  0  0  0  0  0  0  0
   11.4473   32.6457   -0.0736 C   0  0  0  0  0  0  0  0  0  0  0  0
   20.3365   27.7318    0.1191 C   0  0  2  0  0  0  0  0  0  0  0  0
   21.6764   27.5215    0.7910 N   0  0  0  0  0  0  0  0  0  0  0  0
   17.0990   30.7095   -2.6639 C   0  0  2  0  0  0  0  0  0  0  0  0
   14.6047   30.8098   -0.7396 C   0  0  1  0  0  0  0  0  0  0  0  0
   15.2922   31.7183   -1.5799 O   0  0  0  0  0  0  0  0  0  0  0  0
   20.4760   27.7040   -1.3990 C   0  0  1  0  0  0  0  0  0  0  0  0
   21.0765   26.3701   -1.7020 O   0  0  0  0  0  0  0  0  0  0  0  0
   16.6343   31.5569   -1.4935 C   0  0  2  0  0  0  0  0  0  0  0  0
   13.1200   31.0248   -0.9068 C   0  0  1  0  0  0  0  0  0  0  0  0
   12.7786   32.3481   -0.5201 N   0  0  0  0  0  0  0  0  0  0  0  0
   19.1529   27.9425   -2.1237 C   0  0  2  0  0  0  0  0  0  0  0  0
   19.2278   27.9218   -3.5700 N   0  0  0  0  0  0  0  0  0  0  0  0
   17.3709   32.8543   -1.6971 C   0  0  1  0  0  0  0  0  0  0  0  0
   16.6032   33.7264   -2.5332 O   0  0  0  0  0  0  0  0  0  0  0  0
   12.7789   30.8131   -2.3723 C   0  0  2  0  0  0  0  0  0  0  0  0
   11.3987   31.0125   -2.5869 O   0  0  0  0  0  0  0  0  0  0  0  0
   18.6202   29.2838   -1.6912 C   0  0  1  0  0  0  0  0  0  0  0  0
   17.2842   29.3563   -2.2621 O   0  0  0  0  0  0  0  0  0  0  0  0
   18.6186   32.4601   -2.3974 C   0  0  1  0  0  0  0  0  0  0  0  0
   18.3326   31.2642   -3.1264 O   0  0  0  0  0  0  0  0  0  0  0  0
   13.1698   29.3761   -2.7177 C   0  0  1  0  0  0  0  0  0  0  0  0
   12.8858   29.1013   -4.0806 O   0  0  0  0  0  0  0  0  0  0  0  0
   18.4251   29.3093   -0.1512 C   0  0  2  0  0  0  0  0  0  0  0  0
   17.9100   30.5747    0.2329 O   0  0  0  0  0  0  0  0  0  0  0  0
   14.6630   29.1900   -2.4467 C   0  0  1  0  0  0  0  0  0  0  0  0
   14.9468   29.4675   -1.0764 O   0  0  0  0  0  0  0  0  0  0  0  0
   19.7822   29.0774    0.5407 C   0  0  1  0  0  0  0  0  0  0  0  0
   19.6191   29.0982    1.9639 O   0  0  0  0  0  0  0  0  0  0  0  0
   15.0478   27.7441   -2.7613 C   0  0  0  0  0  0  0  0  0  0  0  0
   14.6791   27.4445   -4.0980 O   0  0  0  0  0  0  0  0  0  0  0  0
   23.8150   27.8321    0.0695 N   0  0  0  0  0  0  0  0  0  0  0  0
   17.7089   26.8710   -4.6095 N   0  0  0  0  0  0  0  0  0  0  0  0
  1  2  1  0  0  0  0
  1 39  1  0  0  0  0
  3  4  1  0  0  0  0
  5  6  1  0  0  0  0
  5 40  1  0  0  0  0
  9 10  1  1  0  0  0
  9 14  1  0  0  0  0
  9 35  1  0  0  0  0
 10  1  1  0  0  0  0
 11 16  1  0  0  0  0
 11 28  1  0  0  0  0
 11 26  1  1  0  0  0
 12 17  1  0  0  0  0
 12 34  1  0  0  0  0
 12 13  1  6  0  0  0
 14 15  1  1  0  0  0
 14 19  1  0  0  0  0
 16 13  1  6  0  0  0
 16 21  1  0  0  0  0
 17 18  1  6  0  0  0
 17 23  1  0  0  0  0
 18  8  1  0  0  0  0
 19 20  1  6  0  0  0
 19 25  1  0  0  0  0
 20  5  1  0  0  0  0
 21  3  1  1  0  0  0
 21 22  1  0  0  0  0
 21 27  1  0  0  0  0
 23 24  1  1  0  0  0
 23 29  1  0  0  0  0
 25 26  1  6  0  0  0
 25 31  1  0  0  0  0
 27  7  1  6  0  0  0
 27 28  1  0  0  0  0
 29 30  1  6  0  0  0
 29 33  1  0  0  0  0
 31 32  1  1  0  0  0
 31 35  1  0  0  0  0
 33 34  1  0  0  0  0
 33 37  1  1  0  0  0
 35 36  1  1  0  0  0
 37 38  1  0  0  0  0
M  END
>  <CHROM.1>
47.55258579,42.24415390,-84.15001700,-178.83065851,98.51574462,-154.92513516
102.84923312,-71.63246604,-171.09759799,-142.83556234,55.84547965,17.32065595
29.88355953,-1.64956847,-0.30761831,-0.29250423,0.39652892

>  <Name>
1ntb_lig

>  <RI>
0

>  <Rbt.Current_Directory>
/home/itssahil/PROJECTS/Mol_Feturizer/New_Systems/rnas/1ntb

>  <Rbt.Executable>
rbdock ($Id: //depot/dev/client3/rdock/2013.1/src/exe/rbdock.cxx#4 $)

>  <Rbt.Library>
libRbt.so (2013.1, Build901 2013/11/27)

>  <Rbt.Parameter_File>
/export/apps/rDock/src/rDock_2013.1_src/data/scripts/dock_solv.prm

>  <Rbt.Receptor>
prm/blind_docking_80.prm

>  <SCORE>
55.8635

>  <SCORE.INTER>
49.8892

>  <SCORE.INTER.CONST>
1

>  <SCORE.INTER.POLAR>
-1.40956

>  <SCORE.INTER.ROT>
11

>  <SCORE.INTER.SOLV>
33.4223

>  <SCORE.INTER.VDW>
15.8839

>  <SCORE.INTER.norm>
1.24723

>  <SCORE.INTRA>
5.20019

>  <SCORE.INTRA.DIHEDRAL>
0.588235

>  <SCORE.INTRA.DIHEDRAL.0>
15.4453

>  <SCORE.INTRA.POLAR>
0

>  <SCORE.INTRA.POLAR.0>
0

>  <SCORE.INTRA.REPUL>
-0.823958

>  <SCORE.INTRA.REPUL.0>
0.823958

>  <SCORE.INTRA.SOLV>
3.51055

>  <SCORE.INTRA.SOLV.lig_0>
-99.3069

>  <SCORE.INTRA.VDW>
7.27058

>  <SCORE.INTRA.VDW.0>
0.946495

>  <SCORE.INTRA.norm>
0.130005

>  <SCORE.RESTR>
0.774043

>  <SCORE.RESTR.CAVITY>
0.774043

>  <SCORE.RESTR.norm>
0.0193511

>  <SCORE.SYSTEM>
0

>  <SCORE.SYSTEM.CONST>
0

>  <SCORE.SYSTEM.DIHEDRAL>
0

>  <SCORE.SYSTEM.SOLV>
0

>  <SCORE.SYSTEM.norm>
0

>  <SCORE.heavy>
40

>  <SCORE.norm>
1.39659

>  <RMSD>
15.880

$$$$
1ntb_lig
 OpenBabel11021811403D
libRbt.so/2013.1/901 2013/11/27
 40 42  0  0  0  0  0  0  0  0999 V2000
   19.9761   35.2589   -2.5593 C   0  0  0  0  0  0  0  0  0  0  0  0
   20.6897   34.9733   -3.5788 N   0  0  0  0  0  0  0  0  0  0  0  0
   13.4451   27.9819   -0.6074 C   0  0  0  0  0  0  0  0  0  0  0  0
   13.4176   28.7794    0.5646 O   0  0  0  0  0  0  0  0  0  0  0  0
   20.8051   29.2070   -1.6229 C   0  0  0  0  0  0  0  0  0  0  0  0
   20.8334   27.9231   -1.6767 N   0  0  0  0  0  0  0  0  0  0  0  0
   13.2188   30.5400   -2.6037 C   0  0  0  0  0  0  0  0  0  0  0  0
   19.1191   27.9802    1.0917 C   0  0  0  0  0  0  0  0  0  0  0  0
   19.8043   33.5343   -0.9586 C   0  0  2  0  0  0  0  0  0  0  0  0
   20.4413   34.8344   -1.4002 N   0  0  0  0  0  0  0  0  0  0  0  0
   16.5158   29.5788   -1.8543 C   0  0  2  0  0  0  0  0  0  0  0  0
   17.6808   27.3665   -2.2252 C   0  0  1  0  0  0  0  0  0  0  0  0
   16.2924   27.2565   -1.9715 O   0  0  0  0  0  0  0  0  0  0  0  0
   20.2510   32.3777   -1.8460 C   0  0  1  0  0  0  0  0  0  0  0  0
   21.7406   32.3643   -1.7332 O   0  0  0  0  0  0  0  0  0  0  0  0
   15.8197   28.3427   -1.3147 C   0  0  2  0  0  0  0  0  0  0  0  0
   18.4346   26.8753   -1.0131 C   0  0  1  0  0  0  0  0  0  0  0  0
   18.1137   27.6802    0.1122 N   0  0  0  0  0  0  0  0  0  0  0  0
   19.6101   31.0467   -1.4583 C   0  0  2  0  0  0  0  0  0  0  0  0
   20.0041   29.9120   -2.2675 N   0  0  0  0  0  0  0  0  0  0  0  0
   14.3701   28.6025   -1.6282 C   0  0  1  0  0  0  0  0  0  0  0  0
   14.0573   28.1127   -2.9364 O   0  0  0  0  0  0  0  0  0  0  0  0
   18.0164   25.4378   -0.7532 C   0  0  2  0  0  0  0  0  0  0  0  0
   18.6868   24.9309    0.3801 O   0  0  0  0  0  0  0  0  0  0  0  0
   18.1147   31.2052   -1.5519 C   0  0  1  0  0  0  0  0  0  0  0  0
   17.5736   29.9778   -0.9890 O   0  0  0  0  0  0  0  0  0  0  0  0
   14.2508   30.0816   -1.6061 C   0  0  1  0  0  0  0  0  0  0  0  0
   15.5331   30.6127   -1.9479 O   0  0  0  0  0  0  0  0  0  0  0  0
   18.3904   24.6329   -1.9980 C   0  0  1  0  0  0  0  0  0  0  0  0
   18.0237   23.2719   -1.8344 O   0  0  0  0  0  0  0  0  0  0  0  0
   17.6392   32.3474   -0.6140 C   0  0  2  0  0  0  0  0  0  0  0  0
   16.2284   32.4702   -0.7066 O   0  0  0  0  0  0  0  0  0  0  0  0
   17.6686   25.2274   -3.2077 C   0  0  1  0  0  0  0  0  0  0  0  0
   18.0378   26.5958   -3.3701 O   0  0  0  0  0  0  0  0  0  0  0  0
   18.2978   33.6718   -1.0456 C   0  0  1  0  0  0  0  0  0  0  0  0
   17.8687   34.7371   -0.1891 O   0  0  0  0  0  0  0  0  0  0  0  0
   18.0674   24.4429   -4.4580 C   0  0  0  0  0  0  0  0  0  0  0  0
   17.4059   24.9953   -5.5849 O   0  0  0  0  0  0  0  0  0  0  0  0
   18.8623   35.8964   -2.6530 N   0  0  0  0  0  0  0  0  0  0  0  0
   21.5764   29.8028   -0.8504 N   0  0  0  0  0  0  0  0  0  0  0  0
  1  2  1  0  0  0  0
  1 39  1  0  0  0  0
  3  4  1  0  0  0  0
  5  6  1  0  0  0  0
  5 40  1  0  0  0  0
  9 10  1  6  0  0  0
  9 14  1  0  0  0  0
  9 35  1  0  0  0  0
 10  1  1  0  0  0  0
 11 16  1  0  0  0  0
 11 28  1  0  0  0  0
 11 26  1  1  0  0  0
 12 17  1  0  0  0  0
 12 34  1  0  0  0  0
 12 13  1  1  0  0  0
 14 15  1  1  0  0  0
 14 19  1  0  0  0  0
 16 13  1  6  0  0  0
 16 21  1  0  0  0  0
 17 18  1  1  0  0  0
 17 23  1  0  0  0  0
 18  8  1  0  0  0  0
 19 20  1  6  0  0  0
 19 25  1  0  0  0  0
 20  5  1  0  0  0  0
 21  3  1  1  0  0  0
 21 22  1  0  0  0  0
 21 27  1  0  0  0  0
 23 24  1  1  0  0  0
 23 29  1  0  0  0  0
 25 26  1  1  0  0  0
 25 31  1  0  0  0  0
 27  7  1  6  0  0  0
 27 28  1  0  0  0  0
 29 30  1  1  0  0  0
 29 33  1  0  0  0  0
 31 32  1  6  0  0  0
 31 35  1  0  0  0  0
 33 34  1  0  0  0  0
 33 37  1  6  0  0  0
 35 36  1  1  0  0  0
 37 38  1  0  0  0  0
M  END
>  <CHROM.1>
69.50423542,-97.58208571,-176.65227821,85.33549196,37.99088664,-144.13998507
104.51815573,143.29932124,77.76216501,-136.58710528,-179.67922191,17.83514329
29.48141968,-1.66157421,-1.29877339,-0.06772804,-3.06563507

>  <Name>
1ntb_lig

>  <RI>
0

>  <Rbt.Current_Directory>
/home/itssahil/PROJECTS/Mol_Feturizer/New_Systems/rnas/1ntb

>  <Rbt.Executable>
rbdock ($Id: //depot/dev/client3/rdock/2013.1/src/exe/rbdock.cxx#4 $)

>  <Rbt.Library>
libRbt.so (2013.1, Build901 2013/11/27)

>  <Rbt.Parameter_File>
/export/apps/rDock/src/rDock_2013.1_src/data/scripts/dock_solv.prm

>  <Rbt.Receptor>
prm/blind_docking_60.prm

>  <SCORE>
41.8013

>  <SCORE.INTER>
34.6681

>  <SCORE.INTER.CONST>
1

>  <SCORE.INTER.POLAR>
-1.92653

>  <SCORE.INTER.ROT>
11

>  <SCORE.INTER.SOLV>
31.3575

>  <SCORE.INTER.VDW>
8.14798

>  <SCORE.INTER.norm>
0.866702

>  <SCORE.INTRA>
6.41946

>  <SCORE.INTRA.DIHEDRAL>
-0.361317

>  <SCORE.INTRA.DIHEDRAL.0>
15.4453

>  <SCORE.INTRA.POLAR>
0

>  <SCORE.INTRA.POLAR.0>
0

>  <SCORE.INTRA.REPUL>
-0.823958

>  <SCORE.INTRA.REPUL.0>
0.823958

>  <SCORE.INTRA.SOLV>
8.08364

>  <SCORE.INTRA.SOLV.lig_0>
-99.3069

>  <SCORE.INTRA.VDW>
6.67808

>  <SCORE.INTRA.VDW.0>
0.946495

>  <SCORE.INTRA.norm>
0.160486

>  <SCORE.RESTR>
0.713794

>  <SCORE.RESTR.CAVITY>
0.713794

>  <SCORE.RESTR.norm>
0.0178448

>  <SCORE.SYSTEM>
0

>  <SCORE.SYSTEM.CONST>
0

>  <SCORE.SYSTEM.DIHEDRAL>
0

>  <SCORE.SYSTEM.SOLV>
0

>  <SCORE.SYSTEM.norm>
0

>  <SCORE.heavy>
40

>  <SCORE.norm>
1.04503

>  <RMSD>
16.946

$$$$
1ntb_lig
 OpenBabel11021811403D
libRbt.so/2013.1/901 2013/11/27
 40 42  0  0  0  0  0  0  0  0999 V2000
   19.8837   26.2824    4.2108 C   0  0  0  0  0  0  0  0  0  0  0  0
   20.4649   25.4563    4.9917 N   0  0  0  0  0  0  0  0  0  0  0  0
   15.7247   28.5831   -4.2519 C   0  0  0  0  0  0  0  0  0  0  0  0
   15.3967   29.9623   -4.2744 O   0  0  0  0  0  0  0  0  0  0  0  0
   19.2923   24.3473   -1.3431 C   0  0  0  0  0  0  0  0  0  0  0  0
   18.5255   24.2637   -2.3712 N   0  0  0  0  0  0  0  0  0  0  0  0
   15.3259   26.0431   -2.2595 C   0  0  0  0  0  0  0  0  0  0  0  0
   13.6910   31.7324   -1.7605 C   0  0  0  0  0  0  0  0  0  0  0  0
   20.0757   27.1583    2.0286 C   0  0  2  0  0  0  0  0  0  0  0  0
   20.6774   26.9592    3.4032 N   0  0  0  0  0  0  0  0  0  0  0  0
   18.3275   27.8057   -1.7708 C   0  0  2  0  0  0  0  0  0  0  0  0
   17.1364   31.0580   -2.8179 C   0  0  1  0  0  0  0  0  0  0  0  0
   17.5430   29.9967   -1.9738 O   0  0  0  0  0  0  0  0  0  0  0  0
   20.4691   26.0229    1.0900 C   0  0  1  0  0  0  0  0  0  0  0  0
   19.9803   24.7835    1.7658 O   0  0  0  0  0  0  0  0  0  0  0  0
   17.6363   28.8288   -2.6536 C   0  0  2  0  0  0  0  0  0  0  0  0
   16.1382   31.9122   -2.0745 C   0  0  1  0  0  0  0  0  0  0  0  0
   14.9967   31.1366   -1.7386 N   0  0  0  0  0  0  0  0  0  0  0  0
   19.9098   26.1948   -0.3208 C   0  0  2  0  0  0  0  0  0  0  0  0
   20.2501   25.1401   -1.2532 N   0  0  0  0  0  0  0  0  0  0  0  0
   16.2851   28.2115   -2.8989 C   0  0  1  0  0  0  0  0  0  0  0  0
   15.3743   28.6020   -1.8659 O   0  0  0  0  0  0  0  0  0  0  0  0
   16.8072   32.4179   -0.8075 C   0  0  2  0  0  0  0  0  0  0  0  0
   15.9110   33.2171   -0.0669 O   0  0  0  0  0  0  0  0  0  0  0  0
   20.4219   27.5016   -0.8686 C   0  0  1  0  0  0  0  0  0  0  0  0
   19.7030   27.6890   -2.1193 O   0  0  0  0  0  0  0  0  0  0  0  0
   16.5317   26.7500   -2.8221 C   0  0  1  0  0  0  0  0  0  0  0  0
   17.6580   26.5574   -1.9633 O   0  0  0  0  0  0  0  0  0  0  0  0
   18.0205   33.2404   -1.2421 C   0  0  1  0  0  0  0  0  0  0  0  0
   18.7064   33.7458   -0.1073 O   0  0  0  0  0  0  0  0  0  0  0  0
   19.9851   28.6737    0.0511 C   0  0  2  0  0  0  0  0  0  0  0  0
   20.4648   29.8948   -0.4899 O   0  0  0  0  0  0  0  0  0  0  0  0
   18.9536   32.3507   -2.0641 C   0  0  1  0  0  0  0  0  0  0  0  0
   18.2621   31.8429   -3.2039 O   0  0  0  0  0  0  0  0  0  0  0  0
   20.5786   28.4689    1.4582 C   0  0  1  0  0  0  0  0  0  0  0  0
   20.1846   29.5434    2.3199 O   0  0  0  0  0  0  0  0  0  0  0  0
   20.1511   33.1813   -2.5262 C   0  0  0  0  0  0  0  0  0  0  0  0
   19.6912   34.2497   -3.3382 O   0  0  0  0  0  0  0  0  0  0  0  0
   18.6101   26.4657    4.2239 N   0  0  0  0  0  0  0  0  0  0  0  0
   19.0543   23.6442   -0.3453 N   0  0  0  0  0  0  0  0  0  0  0  0
  1  2  1  0  0  0  0
  1 39  1  0  0  0  0
  3  4  1  0  0  0  0
  5  6  1  0  0  0  0
  5 40  1  0  0  0  0
  9 10  1  1  0  0  0
  9 14  1  0  0  0  0
  9 35  1  0  0  0  0
 10  1  1  0  0  0  0
 11 16  1  0  0  0  0
 11 28  1  0  0  0  0
 11 26  1  6  0  0  0
 12 17  1  0  0  0  0
 12 34  1  0  0  0  0
 12 13  1  1  0  0  0
 14 15  1  1  0  0  0
 14 19  1  0  0  0  0
 16 13  1  1  0  0  0
 16 21  1  0  0  0  0
 17 18  1  1  0  0  0
 17 23  1  0  0  0  0
 18  8  1  0  0  0  0
 19 20  1  6  0  0  0
 19 25  1  0  0  0  0
 20  5  1  0  0  0  0
 21  3  1  6  0  0  0
 21 22  1  0  0  0  0
 21 27  1  0  0  0  0
 23 24  1  6  0  0  0
 23 29  1  0  0  0  0
 25 26  1  6  0  0  0
 25 31  1  0  0  0  0
 27  7  1  1  0  0  0
 27 28  1  0  0  0  0
 29 30  1  1  0  0  0
 29 33  1  0  0  0  0
 31 32  1  6  0  0  0
 31 35  1  0  0  0  0
 33 34  1  0  0  0  0
 33 37  1  6  0  0  0
 35 36  1  1  0  0  0
 37 38  1  0  0  0  0
M  END
>  <CHROM.1>
-90.81527608,141.93081484,142.58353382,138.79951483,169.10125077,-144.04088532
99.16058925,107.73571665,-68.66478496,63.29293287,-60.87618793,18.29769644
28.80505294,-0.82343024,-0.92974903,-0.93086739,-0.00529573

>  <Name>
1ntb_lig

>  <RI>
0

>  <Rbt.Current_Directory>
/home/itssahil/PROJECTS/Mol_Feturizer/New_Systems/rnas/1ntb

>  <Rbt.Executable>
rbdock ($Id: //depot/dev/client3/rdock/2013.1/src/exe/rbdock.cxx#4 $)

>  <Rbt.Library>
libRbt.so (2013.1, Build901 2013/11/27)

>  <Rbt.Parameter_File>
/export/apps/rDock/src/rDock_2013.1_src/data/scripts/dock_solv.prm

>  <Rbt.Receptor>
prm/blind_docking_80.prm

>  <SCORE>
0.440562

>  <SCORE.INTER>
0.247138

>  <SCORE.INTER.CONST>
1

>  <SCORE.INTER.POLAR>
0

>  <SCORE.INTER.ROT>
11

>  <SCORE.INTER.SOLV>
13.8773

>  <SCORE.INTER.VDW>
-15.3943

>  <SCORE.INTER.norm>
0.00617844

>  <SCORE.INTRA>
-0.693894

>  <SCORE.INTRA.DIHEDRAL>
-0.704914

>  <SCORE.INTRA.DIHEDRAL.0>
15.4453

>  <SCORE.INTRA.POLAR>
0

>  <SCORE.INTRA.POLAR.0>
0

>  <SCORE.INTRA.REPUL>
-0.823958

>  <SCORE.INTRA.REPUL.0>
0.823958

>  <SCORE.INTRA.SOLV>
4.39581

>  <SCORE.INTRA.SOLV.lig_0>
-99.3069

>  <SCORE.INTRA.VDW>
1.58045

>  <SCORE.INTRA.VDW.0>
0.946495

>  <SCORE.INTRA.norm>
-0.0173474

>  <SCORE.RESTR>
0.887319

>  <SCORE.RESTR.CAVITY>
0.887319

>  <SCORE.RESTR.norm>
0.022183

>  <SCORE.SYSTEM>
0

>  <SCORE.SYSTEM.CONST>
0

>  <SCORE.SYSTEM.DIHEDRAL>
0

>  <SCORE.SYSTEM.SOLV>
0

>  <SCORE.SYSTEM.norm>
0

>  <SCORE.heavy>
40

>  <SCORE.norm>
0.0110141

>  <RMSD>
16.959

$$$$
1ntb_lig
 OpenBabel11021811403D
libRbt.so/2013.1/901 2013/11/27
 40 42  0  0  0  0  0  0  0  0999 V2000
   20.7313   29.2567    3.8439 C   0  0  0  0  0  0  0  0  0  0  0  0
   20.9785   28.5943    4.9071 N   0  0  0  0  0  0  0  0  0  0  0  0
   15.8186   27.5568   -4.2718 C   0  0  0  0  0  0  0  0  0  0  0  0
   15.0758   26.3622   -4.4495 O   0  0  0  0  0  0  0  0  0  0  0  0
   21.8046   25.6255   -1.0668 C   0  0  0  0  0  0  0  0  0  0  0  0
   22.4455   26.0676   -2.0894 N   0  0  0  0  0  0  0  0  0  0  0  0
   16.2551   25.2641   -2.0061 C   0  0  0  0  0  0  0  0  0  0  0  0
   13.4771   30.0979   -1.8735 C   0  0  0  0  0  0  0  0  0  0  0  0
   20.8224   28.8131    1.5286 C   0  0  2  0  0  0  0  0  0  0  0  0
   21.5529   29.0425    2.8343 N   0  0  0  0  0  0  0  0  0  0  0  0
   18.7239   27.7661   -2.0246 C   0  0  2  0  0  0  0  0  0  0  0  0
   16.5237   30.4002   -3.1951 C   0  0  1  0  0  0  0  0  0  0  0  0
   17.3828   29.6498   -2.3567 O   0  0  0  0  0  0  0  0  0  0  0  0
   21.0753   27.4051    1.0009 C   0  0  1  0  0  0  0  0  0  0  0  0
   20.6115   26.4994    2.0947 O   0  0  0  0  0  0  0  0  0  0  0  0
   17.7220   28.4673   -2.9237 C   0  0  2  0  0  0  0  0  0  0  0  0
   15.6206   31.2455   -2.3300 C   0  0  1  0  0  0  0  0  0  0  0  0
   14.8277   30.4088   -1.5001 N   0  0  0  0  0  0  0  0  0  0  0  0
   20.3823   27.1349   -0.3331 C   0  0  2  0  0  0  0  0  0  0  0  0
   20.5861   25.8085   -0.8779 N   0  0  0  0  0  0  0  0  0  0  0  0
   16.5628   27.5070   -2.9578 C   0  0  1  0  0  0  0  0  0  0  0  0
   15.6674   27.7827   -1.8755 O   0  0  0  0  0  0  0  0  0  0  0  0
   16.4987   32.1390   -1.4702 C   0  0  2  0  0  0  0  0  0  0  0  0
   15.7019   32.9466   -0.6314 O   0  0  0  0  0  0  0  0  0  0  0  0
   20.8848   28.1450   -1.3317 C   0  0  1  0  0  0  0  0  0  0  0  0
   20.0499   27.9540   -2.5076 O   0  0  0  0  0  0  0  0  0  0  0  0
   17.1864   26.1743   -2.7641 C   0  0  1  0  0  0  0  0  0  0  0  0
   18.3891   26.3764   -2.0184 O   0  0  0  0  0  0  0  0  0  0  0  0
   17.3192   33.0078   -2.4237 C   0  0  1  0  0  0  0  0  0  0  0  0
   18.1749   33.8716   -1.6919 O   0  0  0  0  0  0  0  0  0  0  0  0
   20.5882   29.5842   -0.8306 C   0  0  2  0  0  0  0  0  0  0  0  0
   21.0560   30.5183   -1.7912 O   0  0  0  0  0  0  0  0  0  0  0  0
   18.1468   32.0995   -3.3336 C   0  0  1  0  0  0  0  0  0  0  0  0
   17.2851   31.2314   -4.0678 O   0  0  0  0  0  0  0  0  0  0  0  0
   21.3137   29.8198    0.5082 C   0  0  1  0  0  0  0  0  0  0  0  0
   21.0500   31.1449    0.9845 O   0  0  0  0  0  0  0  0  0  0  0  0
   18.9430   32.9670   -4.3088 C   0  0  0  0  0  0  0  0  0  0  0  0
   18.0416   33.7026   -5.1203 O   0  0  0  0  0  0  0  0  0  0  0  0
   19.7613   30.0984    3.7649 N   0  0  0  0  0  0  0  0  0  0  0  0
   22.4005   24.9265   -0.2283 N   0  0  0  0  0  0  0  0  0  0  0  0
  1  2  1  0  0  0  0
  1 39  1  0  0  0  0
  3  4  1  0  0  0  0
  5  6  1  0  0  0  0
  5 40  1  0  0  0  0
  9 10  1  1  0  0  0
  9 14  1  0  0  0  0
  9 35  1  0  0  0  0
 10  1  1  0  0  0  0
 11 16  1  0  0  0  0
 11 28  1  0  0  0  0
 11 26  1  6  0  0  0
 12 17  1  0  0  0  0
 12 34  1  0  0  0  0
 12 13  1  1  0  0  0
 14 15  1  1  0  0  0
 14 19  1  0  0  0  0
 16 13  1  1  0  0  0
 16 21  1  0  0  0  0
 17 18  1  1  0  0  0
 17 23  1  0  0  0  0
 18  8  1  0  0  0  0
 19 20  1  6  0  0  0
 19 25  1  0  0  0  0
 20  5  1  0  0  0  0
 21  3  1  6  0  0  0
 21 22  1  0  0  0  0
 21 27  1  0  0  0  0
 23 24  1  1  0  0  0
 23 29  1  0  0  0  0
 25 26  1  6  0  0  0
 25 31  1  0  0  0  0
 27  7  1  1  0  0  0
 27 28  1  0  0  0  0
 29 30  1  1  0  0  0
 29 33  1  0  0  0  0
 31 32  1  6  0  0  0
 31 35  1  0  0  0  0
 33 34  1  0  0  0  0
 33 37  1  6  0  0  0
 35 36  1  1  0  0  0
 37 38  1  0  0  0  0
M  END
>  <CHROM.1>
-116.18343192,132.92278748,141.04596857,149.72358229,175.65786114,-98.67207558
-60.10871395,-80.53215153,159.40962394,41.53645985,-62.10450626,18.64830675
29.11573306,-1.26111970,-0.34647422,-0.79561044,0.20080299

>  <Name>
1ntb_lig

>  <RI>
0

>  <Rbt.Current_Directory>
/home/itssahil/PROJECTS/Mol_Feturizer/New_Systems/rnas/1ntb

>  <Rbt.Executable>
rbdock ($Id: //depot/dev/client3/rdock/2013.1/src/exe/rbdock.cxx#4 $)

>  <Rbt.Library>
libRbt.so (2013.1, Build901 2013/11/27)

>  <Rbt.Parameter_File>
/export/apps/rDock/src/rDock_2013.1_src/data/scripts/dock_solv.prm

>  <Rbt.Receptor>
prm/blind_docking_40.prm

>  <SCORE>
-0.8219

>  <SCORE.INTER>
-4.56724

>  <SCORE.INTER.CONST>
1

>  <SCORE.INTER.POLAR>
-1.47436

>  <SCORE.INTER.ROT>
11

>  <SCORE.INTER.SOLV>
22.1569

>  <SCORE.INTER.VDW>
-16.4493

>  <SCORE.INTER.norm>
-0.114181

>  <SCORE.INTRA>
3.59783

>  <SCORE.INTRA.DIHEDRAL>
-0.472919

>  <SCORE.INTRA.DIHEDRAL.0>
15.4453

>  <SCORE.INTRA.POLAR>
0

>  <SCORE.INTRA.POLAR.0>
0

>  <SCORE.INTRA.REPUL>
-0.823958

>  <SCORE.INTRA.REPUL.0>
0.823958

>  <SCORE.INTRA.SOLV>
0.948557

>  <SCORE.INTRA.SOLV.lig_0>
-99.3069

>  <SCORE.INTRA.VDW>
7.4798

>  <SCORE.INTRA.VDW.0>
0.946495

>  <SCORE.INTRA.norm>
0.0899457

>  <SCORE.RESTR>
0.14751

>  <SCORE.RESTR.CAVITY>
0.14751

>  <SCORE.RESTR.norm>
0.00368775

>  <SCORE.SYSTEM>
0

>  <SCORE.SYSTEM.CONST>
0

>  <SCORE.SYSTEM.DIHEDRAL>
0

>  <SCORE.SYSTEM.SOLV>
0

>  <SCORE.SYSTEM.norm>
0

>  <SCORE.heavy>
40

>  <SCORE.norm>
-0.0205475

>  <RMSD>
17.069

$$$$
1ntb_lig
 OpenBabel11021811403D
libRbt.so/2013.1/901 2013/11/27
 40 42  0  0  0  0  0  0  0  0999 V2000
   19.1914   23.4156   -1.2795 C   0  0  0  0  0  0  0  0  0  0  0  0
   19.1906   22.9974   -2.4859 N   0  0  0  0  0  0  0  0  0  0  0  0
   16.0449   29.0331   -3.7779 C   0  0  0  0  0  0  0  0  0  0  0  0
   16.5941   27.7268   -3.7289 O   0  0  0  0  0  0  0  0  0  0  0  0
   18.6221   28.0841    2.7488 C   0  0  0  0  0  0  0  0  0  0  0  0
   19.2652   29.1936    2.6615 N   0  0  0  0  0  0  0  0  0  0  0  0
   14.2856   28.9475   -1.0433 C   0  0  0  0  0  0  0  0  0  0  0  0
   21.4979   30.8150   -0.2206 C   0  0  0  0  0  0  0  0  0  0  0  0
   20.2821   25.3738   -0.5436 C   0  0  2  0  0  0  0  0  0  0  0  0
   20.3412   23.8909   -0.8412 N   0  0  0  0  0  0  0  0  0  0  0  0
   17.6386   29.8932   -0.5756 C   0  0  2  0  0  0  0  0  0  0  0  0
   18.2271   32.0736   -1.2750 C   0  0  1  0  0  0  0  0  0  0  0  0
   17.9191   31.2996   -2.4196 O   0  0  0  0  0  0  0  0  0  0  0  0
   19.2034   25.6814    0.4892 C   0  0  1  0  0  0  0  0  0  0  0  0
   19.5736   24.8622    1.6823 O   0  0  0  0  0  0  0  0  0  0  0  0
   17.6027   30.0251   -2.0872 C   0  0  2  0  0  0  0  0  0  0  0  0
   19.7251   32.2404   -1.1926 C   0  0  1  0  0  0  0  0  0  0  0  0
   20.3446   30.9691   -1.0610 N   0  0  0  0  0  0  0  0  0  0  0  0
   19.0842   27.1718    0.8010 C   0  0  2  0  0  0  0  0  0  0  0  0
   18.0759   27.5196    1.7808 N   0  0  0  0  0  0  0  0  0  0  0  0
   16.1733   29.6942   -2.4254 C   0  0  1  0  0  0  0  0  0  0  0  0
   15.3730   30.8802   -2.3804 O   0  0  0  0  0  0  0  0  0  0  0  0
   20.1924   32.9098   -2.4741 C   0  0  2  0  0  0  0  0  0  0  0  0
   21.5927   33.0814   -2.4538 O   0  0  0  0  0  0  0  0  0  0  0  0
   18.7714   27.8929   -0.4844 C   0  0  1  0  0  0  0  0  0  0  0  0
   18.8642   29.3059   -0.1515 O   0  0  0  0  0  0  0  0  0  0  0  0
   15.7494   28.7636   -1.3498 C   0  0  1  0  0  0  0  0  0  0  0  0
   16.5343   29.0691   -0.1949 O   0  0  0  0  0  0  0  0  0  0  0  0
   19.4904   34.2659   -2.5500 C   0  0  1  0  0  0  0  0  0  0  0  0
   19.8729   34.9544   -3.7305 O   0  0  0  0  0  0  0  0  0  0  0  0
   19.8886   27.6294   -1.5298 C   0  0  2  0  0  0  0  0  0  0  0  0
   19.5820   28.3281   -2.7264 O   0  0  0  0  0  0  0  0  0  0  0  0
   17.9779   34.0420   -2.5418 C   0  0  1  0  0  0  0  0  0  0  0  0
   17.5954   33.3491   -1.3548 O   0  0  0  0  0  0  0  0  0  0  0  0
   19.9678   26.1191   -1.8248 C   0  0  1  0  0  0  0  0  0  0  0  0
   20.9950   25.8590   -2.7889 O   0  0  0  0  0  0  0  0  0  0  0  0
   17.2754   35.3993   -2.5851 C   0  0  0  0  0  0  0  0  0  0  0  0
   17.9658   36.3079   -1.7424 O   0  0  0  0  0  0  0  0  0  0  0  0
   18.1489   23.3562   -0.5276 N   0  0  0  0  0  0  0  0  0  0  0  0
   18.5717   27.4920    3.8413 N   0  0  0  0  0  0  0  0  0  0  0  0
  1  2  1  0  0  0  0
  1 39  1  0  0  0  0
  3  4  1  0  0  0  0
  5  6  1  0  0  0  0
  5 40  1  0  0  0  0
  9 10  1  6  0  0  0
  9 14  1  0  0  0  0
  9 35  1  0  0  0  0
 10  1  1  0  0  0  0
 11 16  1  0  0  0  0
 11 28  1  0  0  0  0
 11 26  1  6  0  0  0
 12 17  1  0  0  0  0
 12 34  1  0  0  0  0
 12 13  1  6  0  0  0
 14 15  1  1  0  0  0
 14 19  1  0  0  0  0
 16 13  1  1  0  0  0
 16 21  1  0  0  0  0
 17 18  1  6  0  0  0
 17 23  1  0  0  0  0
 18  8  1  0  0  0  0
 19 20  1  1  0  0  0
 19 25  1  0  0  0  0
 20  5  1  0  0  0  0
 21  3  1  6  0  0  0
 21 22  1  0  0  0  0
 21 27  1  0  0  0  0
 23 24  1  1  0  0  0
 23 29  1  0  0  0  0
 25 26  1  1  0  0  0
 25 31  1  0  0  0  0
 27  7  1  1  0  0  0
 27 28  1  0  0  0  0
 29 30  1  6  0  0  0
 29 33  1  0  0  0  0
 31 32  1  6  0  0  0
 31 35  1  0  0  0  0
 33 34  1  0  0  0  0
 33 37  1  1  0  0  0
 35 36  1  6  0  0  0
 37 38  1  0  0  0  0
M  END
>  <CHROM.1>
58.00339688,114.13762651,-74.31722697,103.43958401,2.24494767,-142.69678031
119.91208170,61.80772793,69.76974248,-127.02148058,-40.59820490,18.57881087
29.30216448,-1.13643360,1.48179190,0.63404623,2.96849176

>  <Name>
1ntb_lig

>  <RI>
0

>  <Rbt.Current_Directory>
/home/itssahil/PROJECTS/Mol_Feturizer/New_Systems/rnas/1ntb

>  <Rbt.Executable>
rbdock ($Id: //depot/dev/client3/rdock/2013.1/src/exe/rbdock.cxx#4 $)

>  <Rbt.Library>
libRbt.so (2013.1, Build901 2013/11/27)

>  <Rbt.Parameter_File>
/export/apps/rDock/src/rDock_2013.1_src/data/scripts/dock_solv.prm

>  <Rbt.Receptor>
prm/blind_docking_60.prm

>  <SCORE>
-0.536994

>  <SCORE.INTER>
-14.4749

>  <SCORE.INTER.CONST>
1

>  <SCORE.INTER.POLAR>
-0.87178

>  <SCORE.INTER.ROT>
11

>  <SCORE.INTER.SOLV>
15.8351

>  <SCORE.INTER.VDW>
-22.9557

>  <SCORE.INTER.norm>
-0.361872

>  <SCORE.INTRA>
13.8202

>  <SCORE.INTRA.DIHEDRAL>
10.3748

>  <SCORE.INTRA.DIHEDRAL.0>
15.4453

>  <SCORE.INTRA.POLAR>
0

>  <SCORE.INTRA.POLAR.0>
0

>  <SCORE.INTRA.REPUL>
-0.764619

>  <SCORE.INTRA.REPUL.0>
0.823958

>  <SCORE.INTRA.SOLV>
4.06074

>  <SCORE.INTRA.SOLV.lig_0>
-99.3069

>  <SCORE.INTRA.VDW>
10.4255

>  <SCORE.INTRA.VDW.0>
0.946495

>  <SCORE.INTRA.norm>
0.345505

>  <SCORE.RESTR>
0.117662

>  <SCORE.RESTR.CAVITY>
0.117662

>  <SCORE.RESTR.norm>
0.00294154

>  <SCORE.SYSTEM>
0

>  <SCORE.SYSTEM.CONST>
0

>  <SCORE.SYSTEM.DIHEDRAL>
0

>  <SCORE.SYSTEM.SOLV>
0

>  <SCORE.SYSTEM.norm>
0

>  <SCORE.heavy>
40

>  <SCORE.norm>
-0.0134248

>  <RMSD>
17.076

$$$$
1ntb_lig
 OpenBabel11021811403D
libRbt.so/2013.1/901 2013/11/27
 40 42  0  0  0  0  0  0  0  0999 V2000
   10.5955   31.3563   -2.6747 C   0  0  0  0  0  0  0  0  0  0  0  0
   10.3144   32.4632   -2.1038 N   0  0  0  0  0  0  0  0  0  0  0  0
   21.6084   31.3263   -1.5996 C   0  0  0  0  0  0  0  0  0  0  0  0
   22.6306   31.7195   -0.6992 O   0  0  0  0  0  0  0  0  0  0  0  0
   15.5268   27.7390   -2.1550 C   0  0  0  0  0  0  0  0  0  0  0  0
   15.0639   28.0370   -0.9936 N   0  0  0  0  0  0  0  0  0  0  0  0
   20.0332   33.3273    0.4239 C   0  0  0  0  0  0  0  0  0  0  0  0
   22.4895   28.1336    0.5980 C   0  0  0  0  0  0  0  0  0  0  0  0
   12.8888   30.8547   -2.4396 C   0  0  2  0  0  0  0  0  0  0  0  0
   11.4551   30.5866   -2.0352 N   0  0  0  0  0  0  0  0  0  0  0  0
   17.9572   31.0390   -1.2522 C   0  0  2  0  0  0  0  0  0  0  0  0
   20.3127   28.3455   -1.7052 C   0  0  1  0  0  0  0  0  0  0  0  0
   19.2844   29.1214   -1.1180 O   0  0  0  0  0  0  0  0  0  0  0  0
   13.6888   29.5586   -2.5084 C   0  0  1  0  0  0  0  0  0  0  0  0
   12.9546   28.7096   -3.4943 O   0  0  0  0  0  0  0  0  0  0  0  0
   19.2862   30.3899   -1.5929 C   0  0  2  0  0  0  0  0  0  0  0  0
   20.6514   27.2068   -0.7740 C   0  0  1  0  0  0  0  0  0  0  0  0
   21.1214   27.7208    0.4639 N   0  0  0  0  0  0  0  0  0  0  0  0
   15.1525   29.7806   -2.8839 C   0  0  2  0  0  0  0  0  0  0  0  0
   15.9581   28.5799   -2.9679 N   0  0  0  0  0  0  0  0  0  0  0  0
   20.2848   31.2580   -0.8743 C   0  0  1  0  0  0  0  0  0  0  0  0
   20.4801   30.7770    0.4598 O   0  0  0  0  0  0  0  0  0  0  0  0
   19.3866   26.3960   -0.5471 C   0  0  2  0  0  0  0  0  0  0  0  0
   19.6458   25.3201    0.3280 O   0  0  0  0  0  0  0  0  0  0  0  0
   15.7635   30.6958   -1.8546 C   0  0  1  0  0  0  0  0  0  0  0  0
   17.0836   31.0149   -2.3761 O   0  0  0  0  0  0  0  0  0  0  0  0
   19.6442   32.5961   -0.8348 C   0  0  1  0  0  0  0  0  0  0  0  0
   18.2304   32.3872   -0.8635 O   0  0  0  0  0  0  0  0  0  0  0  0
   18.9398   25.8758   -1.9135 C   0  0  1  0  0  0  0  0  0  0  0  0
   17.7528   25.1087   -1.7857 O   0  0  0  0  0  0  0  0  0  0  0  0
   14.9891   32.0407   -1.8094 C   0  0  2  0  0  0  0  0  0  0  0  0
   15.5888   32.8920   -0.8452 O   0  0  0  0  0  0  0  0  0  0  0  0
   18.6957   27.0664   -2.8413 C   0  0  1  0  0  0  0  0  0  0  0  0
   19.8897   27.8368   -2.9680 O   0  0  0  0  0  0  0  0  0  0  0  0
   13.5233   31.7744   -1.4162 C   0  0  1  0  0  0  0  0  0  0  0  0
   12.7944   33.0068   -1.3697 O   0  0  0  0  0  0  0  0  0  0  0  0
   18.2800   26.5457   -4.2174 C   0  0  0  0  0  0  0  0  0  0  0  0
   17.7414   27.6160   -4.9770 O   0  0  0  0  0  0  0  0  0  0  0  0
   10.0960   31.0196   -3.8117 N   0  0  0  0  0  0  0  0  0  0  0  0
   15.6089   26.5445   -2.4913 N   0  0  0  0  0  0  0  0  0  0  0  0
  1  2  1  0  0  0  0
  1 39  1  0  0  0  0
  3  4  1  0  0  0  0
  5  6  1  0  0  0  0
  5 40  1  0  0  0  0
  9 10  1  1  0  0  0
  9 14  1  0  0  0  0
  9 35  1  0  0  0  0
 10  1  1  0  0  0  0
 11 16  1  0  0  0  0
 11 28  1  0  0  0  0
 11 26  1  6  0  0  0
 12 17  1  0  0  0  0
 12 34  1  0  0  0  0
 12 13  1  1  0  0  0
 14 15  1  6  0  0  0
 14 19  1  0  0  0  0
 16 13  1  1  0  0  0
 16 21  1  0  0  0  0
 17 18  1  1  0  0  0
 17 23  1  0  0  0  0
 18  8  1  0  0  0  0
 19 20  1  1  0  0  0
 19 25  1  0  0  0  0
 20  5  1  0  0  0  0
 21  3  1  6  0  0  0
 21 22  1  0  0  0  0
 21 27  1  0  0  0  0
 23 24  1  1  0  0  0
 23 29  1  0  0  0  0
 25 26  1  6  0  0  0
 25 31  1  0  0  0  0
 27  7  1  1  0  0  0
 27 28  1  0  0  0  0
 29 30  1  1  0  0  0
 29 33  1  0  0  0  0
 31 32  1  1  0  0  0
 31 35  1  0  0  0  0
 33 34  1  0  0  0  0
 33 37  1  6  0  0  0
 35 36  1  6  0  0  0
 37 38  1  0  0  0  0
M  END
>  <CHROM.1>
-141.90349841,-90.56746665,139.47545578,155.97964973,163.72919200,-81.86739014
-31.22473019,-36.72730992,-158.96962992,-141.54595478,165.86306327,17.13168311
29.59513351,-1.70192761,2.91889573,-0.24773745,0.23676228

>  <Name>
1ntb_lig

>  <RI>
0

>  <Rbt.Current_Directory>
/home/itssahil/PROJECTS/Mol_Feturizer/New_Systems/rnas/1ntb

>  <Rbt.Executable>
rbdock ($Id: //depot/dev/client3/rdock/2013.1/src/exe/rbdock.cxx#4 $)

>  <Rbt.Library>
libRbt.so (2013.1, Build901 2013/11/27)

>  <Rbt.Parameter_File>
/export/apps/rDock/src/rDock_2013.1_src/data/scripts/dock_solv.prm

>  <Rbt.Receptor>
prm/blind_docking_100.prm

>  <SCORE>
19.7983

>  <SCORE.INTER>
19.6394

>  <SCORE.INTER.CONST>
1

>  <SCORE.INTER.POLAR>
-1.51165

>  <SCORE.INTER.ROT>
11

>  <SCORE.INTER.SOLV>
27.9898

>  <SCORE.INTER.VDW>
-2.13146

>  <SCORE.INTER.norm>
0.490986

>  <SCORE.INTRA>
-0.376591

>  <SCORE.INTRA.DIHEDRAL>
4.35608

>  <SCORE.INTRA.DIHEDRAL.0>
15.4453

>  <SCORE.INTRA.POLAR>
0

>  <SCORE.INTRA.POLAR.0>
0

>  <SCORE.INTRA.REPUL>
-0.823958

>  <SCORE.INTRA.REPUL.0>
0.823958

>  <SCORE.INTRA.SOLV>
6.69224

>  <SCORE.INTRA.SOLV.lig_0>
-99.3069

>  <SCORE.INTRA.VDW>
-1.78097

>  <SCORE.INTRA.VDW.0>
0.946495

>  <SCORE.INTRA.norm>
-0.00941477

>  <SCORE.RESTR>
0.535432

>  <SCORE.RESTR.CAVITY>
0.535432

>  <SCORE.RESTR.norm>
0.0133858

>  <SCORE.SYSTEM>
0

>  <SCORE.SYSTEM.CONST>
0

>  <SCORE.SYSTEM.DIHEDRAL>
0

>  <SCORE.SYSTEM.SOLV>
0

>  <SCORE.SYSTEM.norm>
0

>  <SCORE.heavy>
40

>  <SCORE.norm>
0.494957

>  <RMSD>
17.184

$$$$
1ntb_lig
 OpenBabel11021811403D
libRbt.so/2013.1/901 2013/11/27
 40 42  0  0  0  0  0  0  0  0999 V2000
   19.0297   24.1916    4.0770 C   0  0  0  0  0  0  0  0  0  0  0  0
   18.2420   24.7499    4.9124 N   0  0  0  0  0  0  0  0  0  0  0  0
   16.4843   27.4627   -4.2913 C   0  0  0  0  0  0  0  0  0  0  0  0
   15.0930   27.3313   -4.5307 O   0  0  0  0  0  0  0  0  0  0  0  0
   20.4971   24.6721   -2.0346 C   0  0  0  0  0  0  0  0  0  0  0  0
   20.0933   23.4890   -1.7356 N   0  0  0  0  0  0  0  0  0  0  0  0
   16.0865   25.2513   -1.9395 C   0  0  0  0  0  0  0  0  0  0  0  0
   13.3030   30.0217   -1.8940 C   0  0  0  0  0  0  0  0  0  0  0  0
   19.6408   25.6082    2.2922 C   0  0  2  0  0  0  0  0  0  0  0  0
   19.9991   24.9542    3.6093 N   0  0  0  0  0  0  0  0  0  0  0  0
   18.4907   27.7118   -1.2178 C   0  0  2  0  0  0  0  0  0  0  0  0
   16.5835   30.1910   -3.0388 C   0  0  1  0  0  0  0  0  0  0  0  0
   17.3861   29.6022   -2.0321 O   0  0  0  0  0  0  0  0  0  0  0  0
   20.5800   25.1510    1.1815 C   0  0  1  0  0  0  0  0  0  0  0  0
   20.4385   23.6641    1.1510 O   0  0  0  0  0  0  0  0  0  0  0  0
   17.8609   28.3938   -2.4186 C   0  0  2  0  0  0  0  0  0  0  0  0
   15.5123   31.0242   -2.3778 C   0  0  1  0  0  0  0  0  0  0  0  0
   14.6899   30.1965   -1.5679 N   0  0  0  0  0  0  0  0  0  0  0  0
   20.2771   25.8080   -0.1636 C   0  0  2  0  0  0  0  0  0  0  0  0
   21.1381   25.4049   -1.2562 N   0  0  0  0  0  0  0  0  0  0  0  0
   16.7520   27.4512   -2.8044 C   0  0  1  0  0  0  0  0  0  0  0  0
   15.5577   27.7818   -2.0878 O   0  0  0  0  0  0  0  0  0  0  0  0
   16.1988   32.0692   -1.5145 C   0  0  2  0  0  0  0  0  0  0  0  0
   15.2391   32.8724   -0.8630 O   0  0  0  0  0  0  0  0  0  0  0  0
   20.3918   27.3002    0.0108 C   0  0  1  0  0  0  0  0  0  0  0  0
   19.9065   27.8603   -1.2410 O   0  0  0  0  0  0  0  0  0  0  0  0
   17.2402   26.1173   -2.3746 C   0  0  1  0  0  0  0  0  0  0  0  0
   18.1347   26.3287   -1.2799 O   0  0  0  0  0  0  0  0  0  0  0  0
   17.0618   32.9201   -2.4465 C   0  0  1  0  0  0  0  0  0  0  0  0
   17.7447   33.9219   -1.7092 O   0  0  0  0  0  0  0  0  0  0  0  0
   19.4035   27.7873    1.1046 C   0  0  2  0  0  0  0  0  0  0  0  0
   19.5174   29.1951    1.2426 O   0  0  0  0  0  0  0  0  0  0  0  0
   18.0691   32.0134   -3.1543 C   0  0  1  0  0  0  0  0  0  0  0  0
   17.3808   31.0064   -3.8942 O   0  0  0  0  0  0  0  0  0  0  0  0
   19.7502   27.1117    2.4453 C   0  0  1  0  0  0  0  0  0  0  0  0
   18.8464   27.5513    3.4663 O   0  0  0  0  0  0  0  0  0  0  0  0
   18.9109   32.8587   -4.1104 C   0  0  0  0  0  0  0  0  0  0  0  0
   19.7382   33.7301   -3.3563 O   0  0  0  0  0  0  0  0  0  0  0  0
   18.8776   22.9729    3.6931 N   0  0  0  0  0  0  0  0  0  0  0  0
   20.2951   25.1150   -3.1790 N   0  0  0  0  0  0  0  0  0  0  0  0
  1  2  1  0  0  0  0
  1 39  1  0  0  0  0
  3  4  1  0  0  0  0
  5  6  1  0  0  0  0
  5 40  1  0  0  0  0
  9 10  1  1  0  0  0
  9 14  1  0  0  0  0
  9 35  1  0  0  0  0
 10  1  1  0  0  0  0
 11 16  1  0  0  0  0
 11 28  1  0  0  0  0
 11 26  1  6  0  0  0
 12 17  1  0  0  0  0
 12 34  1  0  0  0  0
 12 13  1  1  0  0  0
 14 15  1  6  0  0  0
 14 19  1  0  0  0  0
 16 13  1  1  0  0  0
 16 21  1  0  0  0  0
 17 18  1  1  0  0  0
 17 23  1  0  0  0  0
 18  8  1  0  0  0  0
 19 20  1  6  0  0  0
 19 25  1  0  0  0  0
 20  5  1  0  0  0  0
 21  3  1  6  0  0  0
 21 22  1  0  0  0  0
 21 27  1  0  0  0  0
 23 24  1  6  0  0  0
 23 29  1  0  0  0  0
 25 26  1  6  0  0  0
 25 31  1  0  0  0  0
 27  7  1  1  0  0  0
 27 28  1  0  0  0  0
 29 30  1  1  0  0  0
 29 33  1  0  0  0  0
 31 32  1  1  0  0  0
 31 35  1  0  0  0  0
 33 34  1  0  0  0  0
 33 37  1  6  0  0  0
 35 36  1  1  0  0  0
 37 38  1  0  0  0  0
M  END
>  <CHROM.1>
-117.63919701,-94.69616152,174.17998599,148.14186784,-169.73649786,-115.39354851
107.62796397,-68.33190213,-143.02377792,74.49198435,68.14368743,18.13265424
28.02421760,-0.90414090,-0.39010359,-1.19812162,0.56476812

>  <Name>
1ntb_lig

>  <RI>
0

>  <Rbt.Current_Directory>
/home/itssahil/PROJECTS/Mol_Feturizer/New_Systems/rnas/1ntb

>  <Rbt.Executable>
rbdock ($Id: //depot/dev/client3/rdock/2013.1/src/exe/rbdock.cxx#4 $)

>  <Rbt.Library>
libRbt.so (2013.1, Build901 2013/11/27)

>  <Rbt.Parameter_File>
/export/apps/rDock/src/rDock_2013.1_src/data/scripts/dock_solv.prm

>  <Rbt.Receptor>
prm/blind_docking_80.prm

>  <SCORE>
-7.15142

>  <SCORE.INTER>
-8.02595

>  <SCORE.INTER.CONST>
1

>  <SCORE.INTER.POLAR>
-1.69479

>  <SCORE.INTER.ROT>
11

>  <SCORE.INTER.SOLV>
14.0739

>  <SCORE.INTER.VDW>
-15.326

>  <SCORE.INTER.norm>
-0.200649

>  <SCORE.INTRA>
0.836683

>  <SCORE.INTRA.DIHEDRAL>
-0.958247

>  <SCORE.INTRA.DIHEDRAL.0>
15.4453

>  <SCORE.INTRA.POLAR>
0

>  <SCORE.INTRA.POLAR.0>
0

>  <SCORE.INTRA.REPUL>
-0.823958

>  <SCORE.INTRA.REPUL.0>
0.823958

>  <SCORE.INTRA.SOLV>
2.60269

>  <SCORE.INTRA.SOLV.lig_0>
-99.3069

>  <SCORE.INTRA.VDW>
4.13425

>  <SCORE.INTRA.VDW.0>
0.946495

>  <SCORE.INTRA.norm>
0.0209171

>  <SCORE.RESTR>
0.0378557

>  <SCORE.RESTR.CAVITY>
0.0378557

>  <SCORE.RESTR.norm>
0.000946391

>  <SCORE.SYSTEM>
0

>  <SCORE.SYSTEM.CONST>
0

>  <SCORE.SYSTEM.DIHEDRAL>
0

>  <SCORE.SYSTEM.SOLV>
0

>  <SCORE.SYSTEM.norm>
0

>  <SCORE.heavy>
40

>  <SCORE.norm>
-0.178785

>  <RMSD>
17.185

$$$$
1ntb_lig
 OpenBabel11021811403D
libRbt.so/2013.1/901 2013/11/27
 40 42  0  0  0  0  0  0  0  0999 V2000
   11.5276   32.3525   -0.9693 C   0  0  0  0  0  0  0  0  0  0  0  0
   10.3319   32.4748   -1.4002 N   0  0  0  0  0  0  0  0  0  0  0  0
   18.1754   24.4602   -2.2024 C   0  0  0  0  0  0  0  0  0  0  0  0
   17.1273   24.3337   -1.2558 O   0  0  0  0  0  0  0  0  0  0  0  0
   17.6584   32.3713   -1.9621 C   0  0  0  0  0  0  0  0  0  0  0  0
   17.6943   32.9010   -0.7916 N   0  0  0  0  0  0  0  0  0  0  0  0
   17.1870   26.0581   -4.8576 C   0  0  0  0  0  0  0  0  0  0  0  0
   20.8187   24.4087    0.2706 C   0  0  0  0  0  0  0  0  0  0  0  0
   13.6074   31.2950   -1.3181 C   0  0  2  0  0  0  0  0  0  0  0  0
   12.4372   32.0715   -1.8825 N   0  0  0  0  0  0  0  0  0  0  0  0
   17.6897   28.1035   -2.0435 C   0  0  2  0  0  0  0  0  0  0  0  0
   19.8862   27.1509    0.1853 C   0  0  1  0  0  0  0  0  0  0  0  0
   19.6602   27.1637   -1.2121 O   0  0  0  0  0  0  0  0  0  0  0  0
   14.9012   31.6540   -2.0408 C   0  0  1  0  0  0  0  0  0  0  0  0
   15.0407   33.1305   -1.8610 O   0  0  0  0  0  0  0  0  0  0  0  0
   18.3747   26.8583   -1.5105 C   0  0  2  0  0  0  0  0  0  0  0  0
   21.3375   26.8217    0.4377 C   0  0  1  0  0  0  0  0  0  0  0  0
   21.6366   25.5342   -0.0822 N   0  0  0  0  0  0  0  0  0  0  0  0
   16.1082   30.8724   -1.5263 C   0  0  2  0  0  0  0  0  0  0  0  0
   17.3657   31.1786   -2.1764 N   0  0  0  0  0  0  0  0  0  0  0  0
   18.2788   25.8951   -2.6639 C   0  0  1  0  0  0  0  0  0  0  0  0
   19.4091   26.0529   -3.5280 O   0  0  0  0  0  0  0  0  0  0  0  0
   22.1840   27.8695   -0.2654 C   0  0  2  0  0  0  0  0  0  0  0  0
   23.5554   27.6024   -0.0692 O   0  0  0  0  0  0  0  0  0  0  0  0
   15.8224   29.4038   -1.7045 C   0  0  1  0  0  0  0  0  0  0  0  0
   16.9150   28.7260   -1.0241 O   0  0  0  0  0  0  0  0  0  0  0  0
   17.0428   26.3018   -3.3777 C   0  0  1  0  0  0  0  0  0  0  0  0
   16.8507   27.6958   -3.1267 O   0  0  0  0  0  0  0  0  0  0  0  0
   21.8125   29.2227    0.3413 C   0  0  1  0  0  0  0  0  0  0  0  0
   22.5614   30.2607   -0.2715 O   0  0  0  0  0  0  0  0  0  0  0  0
   14.5341   29.0131   -0.9312 C   0  0  2  0  0  0  0  0  0  0  0  0
   14.2913   27.6251   -1.1004 O   0  0  0  0  0  0  0  0  0  0  0  0
   20.3170   29.4646    0.1346 C   0  0  1  0  0  0  0  0  0  0  0  0
   19.5658   28.4198    0.7506 O   0  0  0  0  0  0  0  0  0  0  0  0
   13.3405   29.8132   -1.4877 C   0  0  1  0  0  0  0  0  0  0  0  0
   12.1426   29.4636   -0.7840 O   0  0  0  0  0  0  0  0  0  0  0  0
   19.9387   30.8030    0.7695 C   0  0  0  0  0  0  0  0  0  0  0  0
   18.5592   31.0496    0.5491 O   0  0  0  0  0  0  0  0  0  0  0  0
   11.8278   32.4693    0.2765 N   0  0  0  0  0  0  0  0  0  0  0  0
   17.8729   33.0813   -2.9603 N   0  0  0  0  0  0  0  0  0  0  0  0
  1  2  1  0  0  0  0
  1 39  1  0  0  0  0
  3  4  1  0  0  0  0
  5  6  1  0  0  0  0
  5 40  1  0  0  0  0
  9 10  1  6  0  0  0
  9 14  1  0  0  0  0
  9 35  1  0  0  0  0
 10  1  1  0  0  0  0
 11 16  1  0  0  0  0
 11 28  1  0  0  0  0
 11 26  1  1  0  0  0
 12 17  1  0  0  0  0
 12 34  1  0  0  0  0
 12 13  1  6  0  0  0
 14 15  1  1  0  0  0
 14 19  1  0  0  0  0
 16 13  1  6  0  0  0
 16 21  1  0  0  0  0
 17 18  1  6  0  0  0
 17 23  1  0  0  0  0
 18  8  1  0  0  0  0
 19 20  1  6  0  0  0
 19 25  1  0  0  0  0
 20  5  1  0  0  0  0
 21  3  1  1  0  0  0
 21 22  1  0  0  0  0
 21 27  1  0  0  0  0
 23 24  1  1  0  0  0
 23 29  1  0  0  0  0
 25 26  1  1  0  0  0
 25 31  1  0  0  0  0
 27  7  1  6  0  0  0
 27 28  1  0  0  0  0
 29 30  1  6  0  0  0
 29 33  1  0  0  0  0
 31 32  1  6  0  0  0
 31 35  1  0  0  0  0
 33 34  1  0  0  0  0
 33 37  1  1  0  0  0
 35 36  1  1  0  0  0
 37 38  1  0  0  0  0
M  END
>  <CHROM.1>
-147.29527783,-151.68601567,-151.17381587,152.62700779,110.49164974,-51.62741138
63.09005214,52.17456006,52.06555505,-111.24504167,178.43444585,17.41577891
29.00172056,-1.21220500,-2.62754852,0.22449024,-2.91444516

>  <Name>
1ntb_lig

>  <RI>
0

>  <Rbt.Current_Directory>
/home/itssahil/PROJECTS/Mol_Feturizer/New_Systems/rnas/1ntb

>  <Rbt.Executable>
rbdock ($Id: //depot/dev/client3/rdock/2013.1/src/exe/rbdock.cxx#4 $)

>  <Rbt.Library>
libRbt.so (2013.1, Build901 2013/11/27)

>  <Rbt.Parameter_File>
/export/apps/rDock/src/rDock_2013.1_src/data/scripts/dock_solv.prm

>  <Rbt.Receptor>
prm/blind_docking_100.prm

>  <SCORE>
10.5166

>  <SCORE.INTER>
10.6196

>  <SCORE.INTER.CONST>
1

>  <SCORE.INTER.POLAR>
0

>  <SCORE.INTER.ROT>
11

>  <SCORE.INTER.SOLV>
27.402

>  <SCORE.INTER.VDW>
-12.9876

>  <SCORE.INTER.norm>
0.26549

>  <SCORE.INTRA>
-0.651057

>  <SCORE.INTRA.DIHEDRAL>
6.73891

>  <SCORE.INTRA.DIHEDRAL.0>
15.4453

>  <SCORE.INTRA.POLAR>
0

>  <SCORE.INTRA.POLAR.0>
0

>  <SCORE.INTRA.REPUL>
-0.823958

>  <SCORE.INTRA.REPUL.0>
0.823958

>  <SCORE.INTRA.SOLV>
1.68052

>  <SCORE.INTRA.SOLV.lig_0>
-99.3069

>  <SCORE.INTRA.VDW>
-0.740982

>  <SCORE.INTRA.VDW.0>
0.946495

>  <SCORE.INTRA.norm>
-0.0162764

>  <SCORE.RESTR>
0.548035

>  <SCORE.RESTR.CAVITY>
0.548035

>  <SCORE.RESTR.norm>
0.0137009

>  <SCORE.SYSTEM>
0

>  <SCORE.SYSTEM.CONST>
0

>  <SCORE.SYSTEM.DIHEDRAL>
0

>  <SCORE.SYSTEM.SOLV>
0

>  <SCORE.SYSTEM.norm>
0

>  <SCORE.heavy>
40

>  <SCORE.norm>
0.262914

>  <RMSD>
17.198

$$$$
1ntb_lig
 OpenBabel11021811403D
libRbt.so/2013.1/901 2013/11/27
 40 42  0  0  0  0  0  0  0  0999 V2000
   18.0335   34.7421   -2.0045 C   0  0  0  0  0  0  0  0  0  0  0  0
   18.1619   34.5638   -3.2623 N   0  0  0  0  0  0  0  0  0  0  0  0
   17.4746   24.6250   -1.2619 C   0  0  0  0  0  0  0  0  0  0  0  0
   16.0610   24.5261   -1.2160 O   0  0  0  0  0  0  0  0  0  0  0  0
   13.6903   29.6745   -2.4912 C   0  0  0  0  0  0  0  0  0  0  0  0
   13.6195   28.5824   -3.1652 N   0  0  0  0  0  0  0  0  0  0  0  0
   17.7177   24.2987   -4.4891 C   0  0  0  0  0  0  0  0  0  0  0  0
   20.3741   24.4464    0.5882 C   0  0  0  0  0  0  0  0  0  0  0  0
   17.3693   32.4809   -2.1138 C   0  0  2  0  0  0  0  0  0  0  0  0
   17.8659   33.6477   -1.2873 N   0  0  0  0  0  0  0  0  0  0  0  0
   17.3360   27.6178   -3.3969 C   0  0  2  0  0  0  0  0  0  0  0  0
   18.7867   27.4880   -0.1239 C   0  0  1  0  0  0  0  0  0  0  0  0
   18.7468   27.5917   -1.5352 O   0  0  0  0  0  0  0  0  0  0  0  0
   16.1915   31.7915   -1.4338 C   0  0  1  0  0  0  0  0  0  0  0  0
   15.1663   32.8652   -1.2669 O   0  0  0  0  0  0  0  0  0  0  0  0
   17.6423   26.9969   -2.0462 C   0  0  2  0  0  0  0  0  0  0  0  0
   20.1112   26.8868    0.2798 C   0  0  1  0  0  0  0  0  0  0  0  0
   20.2381   25.5854   -0.2747 N   0  0  0  0  0  0  0  0  0  0  0  0
   15.6732   30.5866   -2.2163 C   0  0  2  0  0  0  0  0  0  0  0  0
   14.5501   29.8966   -1.6163 N   0  0  0  0  0  0  0  0  0  0  0  0
   17.8876   25.5500   -2.3829 C   0  0  1  0  0  0  0  0  0  0  0  0
   19.2687   25.3495   -2.7015 O   0  0  0  0  0  0  0  0  0  0  0  0
   21.2146   27.7837   -0.2557 C   0  0  2  0  0  0  0  0  0  0  0  0
   22.4794   27.2603    0.0863 O   0  0  0  0  0  0  0  0  0  0  0  0
   16.8088   29.6084   -2.3709 C   0  0  1  0  0  0  0  0  0  0  0  0
   16.3035   28.5911   -3.2799 O   0  0  0  0  0  0  0  0  0  0  0  0
   17.0561   25.3093   -3.5883 C   0  0  1  0  0  0  0  0  0  0  0  0
   16.9262   26.5604   -4.2672 O   0  0  0  0  0  0  0  0  0  0  0  0
   21.0178   29.1601    0.3800 C   0  0  1  0  0  0  0  0  0  0  0  0
   22.0128   30.0623   -0.0782 O   0  0  0  0  0  0  0  0  0  0  0  0
   17.9974   30.2826   -3.1078 C   0  0  2  0  0  0  0  0  0  0  0  0
   19.0491   29.3412   -3.2554 O   0  0  0  0  0  0  0  0  0  0  0  0
   19.6287   29.6821    0.0113 C   0  0  1  0  0  0  0  0  0  0  0  0
   18.6299   28.7736    0.4719 O   0  0  0  0  0  0  0  0  0  0  0  0
   18.4973   31.4833   -2.2815 C   0  0  1  0  0  0  0  0  0  0  0  0
   19.5955   32.1169   -2.9485 O   0  0  0  0  0  0  0  0  0  0  0  0
   19.4190   31.0442    0.6732 C   0  0  0  0  0  0  0  0  0  0  0  0
   19.9172   30.9985    2.0007 O   0  0  0  0  0  0  0  0  0  0  0  0
   18.0406   35.9120   -1.4689 N   0  0  0  0  0  0  0  0  0  0  0  0
   12.8991   30.6002   -2.7438 N   0  0  0  0  0  0  0  0  0  0  0  0
  1  2  1  0  0  0  0
  1 39  1  0  0  0  0
  3  4  1  0  0  0  0
  5  6  1  0  0  0  0
  5 40  1  0  0  0  0
  9 10  1  1  0  0  0
  9 14  1  0  0  0  0
  9 35  1  0  0  0  0
 10  1  1  0  0  0  0
 11 16  1  0  0  0  0
 11 28  1  0  0  0  0
 11 26  1  1  0  0  0
 12 17  1  0  0  0  0
 12 34  1  0  0  0  0
 12 13  1  6  0  0  0
 14 15  1  6  0  0  0
 14 19  1  0  0  0  0
 16 13  1  6  0  0  0
 16 21  1  0  0  0  0
 17 18  1  6  0  0  0
 17 23  1  0  0  0  0
 18  8  1  0  0  0  0
 19 20  1  1  0  0  0
 19 25  1  0  0  0  0
 20  5  1  0  0  0  0
 21  3  1  1  0  0  0
 21 22  1  0  0  0  0
 21 27  1  0  0  0  0
 23 24  1  1  0  0  0
 23 29  1  0  0  0  0
 25 26  1  6  0  0  0
 25 31  1  0  0  0  0
 27  7  1  6  0  0  0
 27 28  1  0  0  0  0
 29 30  1  6  0  0  0
 29 33  1  0  0  0  0
 31 32  1  1  0  0  0
 31 35  1  0  0  0  0
 33 34  1  0  0  0  0
 33 37  1  1  0  0  0
 35 36  1  6  0  0  0
 37 38  1  0  0  0  0
M  END
>  <CHROM.1>
-132.11232969,-20.68039078,60.84136013,126.47716657,156.03170101,-118.63160690
134.04477660,93.42780407,74.62941739,-177.38736312,-42.17692611,18.02112704
29.07575434,-1.62765976,-1.81098390,0.50103314,-3.06298185

>  <Name>
1ntb_lig

>  <RI>
0

>  <Rbt.Current_Directory>
/home/itssahil/PROJECTS/Mol_Feturizer/New_Systems/rnas/1ntb

>  <Rbt.Executable>
rbdock ($Id: //depot/dev/client3/rdock/2013.1/src/exe/rbdock.cxx#4 $)

>  <Rbt.Library>
libRbt.so (2013.1, Build901 2013/11/27)

>  <Rbt.Parameter_File>
/export/apps/rDock/src/rDock_2013.1_src/data/scripts/dock_solv.prm

>  <Rbt.Receptor>
prm/blind_docking_60.prm

>  <SCORE>
-12.079

>  <SCORE.INTER>
-9.78288

>  <SCORE.INTER.CONST>
1

>  <SCORE.INTER.POLAR>
-1.52814

>  <SCORE.INTER.ROT>
11

>  <SCORE.INTER.SOLV>
25.365

>  <SCORE.INTER.VDW>
-20.8165

>  <SCORE.INTER.norm>
-0.244572

>  <SCORE.INTRA>
-2.7311

>  <SCORE.INTRA.DIHEDRAL>
0.559632

>  <SCORE.INTRA.DIHEDRAL.0>
15.4453

>  <SCORE.INTRA.POLAR>
0

>  <SCORE.INTRA.POLAR.0>
0

>  <SCORE.INTRA.REPUL>
-0.823958

>  <SCORE.INTRA.REPUL.0>
0.823958

>  <SCORE.INTRA.SOLV>
1.03752

>  <SCORE.INTRA.SOLV.lig_0>
-99.3069

>  <SCORE.INTRA.VDW>
0.590117

>  <SCORE.INTRA.VDW.0>
0.946495

>  <SCORE.INTRA.norm>
-0.0682774

>  <SCORE.RESTR>
0.434953

>  <SCORE.RESTR.CAVITY>
0.434953

>  <SCORE.RESTR.norm>
0.0108738

>  <SCORE.SYSTEM>
0

>  <SCORE.SYSTEM.CONST>
0

>  <SCORE.SYSTEM.DIHEDRAL>
0

>  <SCORE.SYSTEM.SOLV>
0

>  <SCORE.SYSTEM.norm>
0

>  <SCORE.heavy>
40

>  <SCORE.norm>
-0.301976

>  <RMSD>
17.207

$$$$
1ntb_lig
 OpenBabel11021811403D
libRbt.so/2013.1/901 2013/11/27
 40 42  0  0  0  0  0  0  0  0999 V2000
   11.6939   32.2461   -1.8858 C   0  0  0  0  0  0  0  0  0  0  0  0
   10.7600   32.3190   -2.7534 N   0  0  0  0  0  0  0  0  0  0  0  0
   19.4494   24.4910   -2.4787 C   0  0  0  0  0  0  0  0  0  0  0  0
   18.3885   23.9652   -1.6987 O   0  0  0  0  0  0  0  0  0  0  0  0
   17.7843   31.0245   -2.8579 C   0  0  0  0  0  0  0  0  0  0  0  0
   17.8254   30.3665   -3.9613 N   0  0  0  0  0  0  0  0  0  0  0  0
   18.3210   25.5821   -5.3276 C   0  0  0  0  0  0  0  0  0  0  0  0
   19.8870   25.3676    1.4695 C   0  0  0  0  0  0  0  0  0  0  0  0
   13.7716   31.1287   -1.8570 C   0  0  2  0  0  0  0  0  0  0  0  0
   12.9223   32.2734   -2.3661 N   0  0  0  0  0  0  0  0  0  0  0  0
   17.6147   27.6777   -2.5953 C   0  0  2  0  0  0  0  0  0  0  0  0
   19.4394   27.9898   -0.1311 C   0  0  1  0  0  0  0  0  0  0  0  0
   19.6545   27.5602   -1.4628 O   0  0  0  0  0  0  0  0  0  0  0  0
   15.2553   31.4186   -2.0553 C   0  0  1  0  0  0  0  0  0  0  0  0
   15.4959   32.6953   -1.3176 O   0  0  0  0  0  0  0  0  0  0  0  0
   18.6339   26.7882   -1.9069 C   0  0  2  0  0  0  0  0  0  0  0  0
   20.6349   27.5975    0.7029 C   0  0  1  0  0  0  0  0  0  0  0  0
   20.7814   26.1848    0.6998 N   0  0  0  0  0  0  0  0  0  0  0  0
   16.1540   30.2773   -1.5837 C   0  0  2  0  0  0  0  0  0  0  0  0
   17.5755   30.5028   -1.7451 N   0  0  0  0  0  0  0  0  0  0  0  0
   19.0710   25.8557   -3.0052 C   0  0  1  0  0  0  0  0  0  0  0  0
   20.1697   26.4269   -3.7233 O   0  0  0  0  0  0  0  0  0  0  0  0
   21.8656   28.2434    0.0890 C   0  0  2  0  0  0  0  0  0  0  0  0
   23.0179   27.8997    0.8271 O   0  0  0  0  0  0  0  0  0  0  0  0
   15.7755   29.0383   -2.3530 C   0  0  1  0  0  0  0  0  0  0  0  0
   16.5269   27.9639   -1.7226 O   0  0  0  0  0  0  0  0  0  0  0  0
   17.8875   25.7593   -3.8954 C   0  0  1  0  0  0  0  0  0  0  0  0
   17.1528   26.9772   -3.7526 O   0  0  0  0  0  0  0  0  0  0  0  0
   21.6405   29.7552    0.1256 C   0  0  1  0  0  0  0  0  0  0  0  0
   22.7514   30.4335   -0.4397 O   0  0  0  0  0  0  0  0  0  0  0  0
   14.2780   28.7019   -2.1196 C   0  0  2  0  0  0  0  0  0  0  0  0
   13.9464   27.5253   -2.8406 O   0  0  0  0  0  0  0  0  0  0  0  0
   20.3708   30.0862   -0.6592 C   0  0  1  0  0  0  0  0  0  0  0  0
   19.2553   29.4028   -0.0900 O   0  0  0  0  0  0  0  0  0  0  0  0
   13.4068   29.8707   -2.6187 C   0  0  1  0  0  0  0  0  0  0  0  0
   12.0206   29.5755   -2.4105 O   0  0  0  0  0  0  0  0  0  0  0  0
   20.1275   31.5943   -0.5958 C   0  0  0  0  0  0  0  0  0  0  0  0
   19.9854   31.9864    0.7601 O   0  0  0  0  0  0  0  0  0  0  0  0
   11.4585   32.1277   -0.6263 N   0  0  0  0  0  0  0  0  0  0  0  0
   18.0149   32.2466   -2.8669 N   0  0  0  0  0  0  0  0  0  0  0  0
  1  2  1  0  0  0  0
  1 39  1  0  0  0  0
  3  4  1  0  0  0  0
  5  6  1  0  0  0  0
  5 40  1  0  0  0  0
  9 10  1  6  0  0  0
  9 14  1  0  0  0  0
  9 35  1  0  0  0  0
 10  1  1  0  0  0  0
 11 16  1  0  0  0  0
 11 28  1  0  0  0  0
 11 26  1  1  0  0  0
 12 17  1  0  0  0  0
 12 34  1  0  0  0  0
 12 13  1  6  0  0  0
 14 15  1  1  0  0  0
 14 19  1  0  0  0  0
 16 13  1  6  0  0  0
 16 21  1  0  0  0  0
 17 18  1  6  0  0  0
 17 23  1  0  0  0  0
 18  8  1  0  0  0  0
 19 20  1  6  0  0  0
 19 25  1  0  0  0  0
 20  5  1  0  0  0  0
 21  3  1  1  0  0  0
 21 22  1  0  0  0  0
 21 27  1  0  0  0  0
 23 24  1  1  0  0  0
 23 29  1  0  0  0  0
 25 26  1  1  0  0  0
 25 31  1  0  0  0  0
 27  7  1  6  0  0  0
 27 28  1  0  0  0  0
 29 30  1  6  0  0  0
 29 33  1  0  0  0  0
 31 32  1  6  0  0  0
 31 35  1  0  0  0  0
 33 34  1  0  0  0  0
 33 37  1  1  0  0  0
 35 36  1  1  0  0  0
 37 38  1  0  0  0  0
M  END
>  <CHROM.1>
-161.99061595,-128.30888720,167.68085717,125.53583143,91.89835699,-74.39660988
-42.44216542,-80.01387375,53.57966796,-103.40058860,-59.45753108,17.55524249
28.94592570,-1.66624348,-2.77585328,0.33911333,-2.79284021

>  <Name>
1ntb_lig

>  <RI>
0

>  <Rbt.Current_Directory>
/home/itssahil/PROJECTS/Mol_Feturizer/New_Systems/rnas/1ntb

>  <Rbt.Executable>
rbdock ($Id: //depot/dev/client3/rdock/2013.1/src/exe/rbdock.cxx#4 $)

>  <Rbt.Library>
libRbt.so (2013.1, Build901 2013/11/27)

>  <Rbt.Parameter_File>
/export/apps/rDock/src/rDock_2013.1_src/data/scripts/dock_solv.prm

>  <Rbt.Receptor>
prm/blind_docking_80.prm

>  <SCORE>
7.65713

>  <SCORE.INTER>
10.187

>  <SCORE.INTER.CONST>
1

>  <SCORE.INTER.POLAR>
-1.09545

>  <SCORE.INTER.ROT>
11

>  <SCORE.INTER.SOLV>
25.2936

>  <SCORE.INTER.VDW>
-8.92174

>  <SCORE.INTER.norm>
0.254675

>  <SCORE.INTRA>
-3.03348

>  <SCORE.INTRA.DIHEDRAL>
4.00386

>  <SCORE.INTRA.DIHEDRAL.0>
15.4453

>  <SCORE.INTRA.POLAR>
0

>  <SCORE.INTRA.POLAR.0>
0

>  <SCORE.INTRA.REPUL>
-0.823958

>  <SCORE.INTRA.REPUL.0>
0.823958

>  <SCORE.INTRA.SOLV>
5.28377

>  <SCORE.INTRA.SOLV.lig_0>
-99.3069

>  <SCORE.INTRA.VDW>
-3.55751

>  <SCORE.INTRA.VDW.0>
0.946495

>  <SCORE.INTRA.norm>
-0.075837

>  <SCORE.RESTR>
0.503623

>  <SCORE.RESTR.CAVITY>
0.503623

>  <SCORE.RESTR.norm>
0.0125906

>  <SCORE.SYSTEM>
0

>  <SCORE.SYSTEM.CONST>
0

>  <SCORE.SYSTEM.DIHEDRAL>
0

>  <SCORE.SYSTEM.SOLV>
0

>  <SCORE.SYSTEM.norm>
0

>  <SCORE.heavy>
40

>  <SCORE.norm>
0.191428

>  <RMSD>
17.252

$$$$
1ntb_lig
 OpenBabel11021811403D
libRbt.so/2013.1/901 2013/11/27
 40 42  0  0  0  0  0  0  0  0999 V2000
   18.0872   34.6842   -2.2183 C   0  0  0  0  0  0  0  0  0  0  0  0
   17.2241   35.6129   -2.3689 N   0  0  0  0  0  0  0  0  0  0  0  0
   17.7739   24.5288   -1.5169 C   0  0  0  0  0  0  0  0  0  0  0  0
   17.9287   25.1049   -0.2307 O   0  0  0  0  0  0  0  0  0  0  0  0
   13.6099   29.6210   -2.3930 C   0  0  0  0  0  0  0  0  0  0  0  0
   13.5673   28.5902   -3.1595 N   0  0  0  0  0  0  0  0  0  0  0  0
   17.9510   24.4410   -4.7636 C   0  0  0  0  0  0  0  0  0  0  0  0
   20.6950   24.5014    0.5186 C   0  0  0  0  0  0  0  0  0  0  0  0
   17.2423   32.4815   -2.2103 C   0  0  2  0  0  0  0  0  0  0  0  0
   17.7228   33.6884   -1.4335 N   0  0  0  0  0  0  0  0  0  0  0  0
   17.3631   27.6415   -3.4345 C   0  0  2  0  0  0  0  0  0  0  0  0
   18.8442   27.4944   -0.1992 C   0  0  1  0  0  0  0  0  0  0  0  0
   18.8229   27.5923   -1.6113 O   0  0  0  0  0  0  0  0  0  0  0  0
   16.1023   31.7799   -1.4802 C   0  0  1  0  0  0  0  0  0  0  0  0
   15.0493   32.8278   -1.3220 O   0  0  0  0  0  0  0  0  0  0  0  0
   17.7501   26.9544   -2.1376 C   0  0  2  0  0  0  0  0  0  0  0  0
   20.1653   26.8998    0.2246 C   0  0  1  0  0  0  0  0  0  0  0  0
   20.3045   25.5967   -0.3228 N   0  0  0  0  0  0  0  0  0  0  0  0
   15.6024   30.5356   -2.2113 C   0  0  2  0  0  0  0  0  0  0  0  0
   14.5151   29.8325   -1.5624 N   0  0  0  0  0  0  0  0  0  0  0  0
   18.0888   25.5555   -2.5797 C   0  0  1  0  0  0  0  0  0  0  0  0
   19.4714   25.4787   -2.9425 O   0  0  0  0  0  0  0  0  0  0  0  0
   21.2725   27.7987   -0.2996 C   0  0  2  0  0  0  0  0  0  0  0  0
   22.5345   27.2814    0.0614 O   0  0  0  0  0  0  0  0  0  0  0  0
   16.7630   29.5869   -2.3630 C   0  0  1  0  0  0  0  0  0  0  0  0
   16.2674   28.5264   -3.2267 O   0  0  0  0  0  0  0  0  0  0  0  0
   17.2438   25.3369   -3.7800 C   0  0  1  0  0  0  0  0  0  0  0  0
   17.0063   26.6185   -4.3669 O   0  0  0  0  0  0  0  0  0  0  0  0
   21.0621   29.1769    0.3277 C   0  0  1  0  0  0  0  0  0  0  0  0
   22.0598   30.0809   -0.1207 O   0  0  0  0  0  0  0  0  0  0  0  0
   17.9129   30.2718   -3.1498 C   0  0  2  0  0  0  0  0  0  0  0  0
   18.9888   29.3575   -3.2935 O   0  0  0  0  0  0  0  0  0  0  0  0
   19.6762   29.6922   -0.0616 C   0  0  1  0  0  0  0  0  0  0  0  0
   18.6746   28.7818    0.3892 O   0  0  0  0  0  0  0  0  0  0  0  0
   18.3957   31.5126   -2.3743 C   0  0  1  0  0  0  0  0  0  0  0  0
   19.4581   32.1565   -3.0877 O   0  0  0  0  0  0  0  0  0  0  0  0
   19.4526   31.0562    0.5919 C   0  0  0  0  0  0  0  0  0  0  0  0
   20.3368   32.0014    0.0111 O   0  0  0  0  0  0  0  0  0  0  0  0
   19.2478   34.7239   -2.7725 N   0  0  0  0  0  0  0  0  0  0  0  0
   12.7370   30.5001   -2.5031 N   0  0  0  0  0  0  0  0  0  0  0  0
  1  2  1  0  0  0  0
  1 39  1  0  0  0  0
  3  4  1  0  0  0  0
  5  6  1  0  0  0  0
  5 40  1  0  0  0  0
  9 10  1  1  0  0  0
  9 14  1  0  0  0  0
  9 35  1  0  0  0  0
 10  1  1  0  0  0  0
 11 16  1  0  0  0  0
 11 28  1  0  0  0  0
 11 26  1  1  0  0  0
 12 17  1  0  0  0  0
 12 34  1  0  0  0  0
 12 13  1  6  0  0  0
 14 15  1  6  0  0  0
 14 19  1  0  0  0  0
 16 13  1  6  0  0  0
 16 21  1  0  0  0  0
 17 18  1  6  0  0  0
 17 23  1  0  0  0  0
 18  8  1  0  0  0  0
 19 20  1  1  0  0  0
 19 25  1  0  0  0  0
 20  5  1  0  0  0  0
 21  3  1  1  0  0  0
 21 22  1  0  0  0  0
 21 27  1  0  0  0  0
 23 24  1  1  0  0  0
 23 29  1  0  0  0  0
 25 26  1  6  0  0  0
 25 31  1  0  0  0  0
 27  7  1  6  0  0  0
 27 28  1  0  0  0  0
 29 30  1  6  0  0  0
 29 33  1  0  0  0  0
 31 32  1  1  0  0  0
 31 35  1  0  0  0  0
 33 34  1  0  0  0  0
 33 37  1  1  0  0  0
 35 36  1  6  0  0  0
 37 38  1  0  0  0  0
M  END
>  <CHROM.1>
-144.41940263,99.58723087,66.24628987,124.50237570,150.88661986,-130.94020753
130.48197040,87.34014421,-30.87477888,177.59771430,67.45324296,18.11647902
29.12044008,-1.72889954,-1.90921913,0.44961379,-3.07079603

>  <Name>
1ntb_lig

>  <RI>
0

>  <Rbt.Current_Directory>
/home/itssahil/PROJECTS/Mol_Feturizer/New_Systems/rnas/1ntb

>  <Rbt.Executable>
rbdock ($Id: //depot/dev/client3/rdock/2013.1/src/exe/rbdock.cxx#4 $)

>  <Rbt.Library>
libRbt.so (2013.1, Build901 2013/11/27)

>  <Rbt.Parameter_File>
/export/apps/rDock/src/rDock_2013.1_src/data/scripts/dock_solv.prm

>  <Rbt.Receptor>
prm/blind_docking_80.prm

>  <SCORE>
-9.04291

>  <SCORE.INTER>
-10.7658

>  <SCORE.INTER.CONST>
1

>  <SCORE.INTER.POLAR>
-1.52057

>  <SCORE.INTER.ROT>
11

>  <SCORE.INTER.SOLV>
25.266

>  <SCORE.INTER.VDW>
-21.464

>  <SCORE.INTER.norm>
-0.269144

>  <SCORE.INTRA>
1.20439

>  <SCORE.INTRA.DIHEDRAL>
2.38509

>  <SCORE.INTRA.DIHEDRAL.0>
15.4453

>  <SCORE.INTRA.POLAR>
0

>  <SCORE.INTRA.POLAR.0>
0

>  <SCORE.INTRA.REPUL>
-0.823958

>  <SCORE.INTRA.REPUL.0>
0.823958

>  <SCORE.INTRA.SOLV>
3.14072

>  <SCORE.INTRA.SOLV.lig_0>
-99.3069

>  <SCORE.INTRA.VDW>
2.56127

>  <SCORE.INTRA.VDW.0>
0.946495

>  <SCORE.INTRA.norm>
0.0301097

>  <SCORE.RESTR>
0.518463

>  <SCORE.RESTR.CAVITY>
0.518463

>  <SCORE.RESTR.norm>
0.0129616

>  <SCORE.SYSTEM>
0

>  <SCORE.SYSTEM.CONST>
0

>  <SCORE.SYSTEM.DIHEDRAL>
0

>  <SCORE.SYSTEM.SOLV>
0

>  <SCORE.SYSTEM.norm>
0

>  <SCORE.heavy>
40

>  <SCORE.norm>
-0.226073

>  <RMSD>
17.280

$$$$
1ntb_lig
 OpenBabel11021811403D
libRbt.so/2013.1/901 2013/11/27
 40 42  0  0  0  0  0  0  0  0999 V2000
   19.8321   23.8573   -0.6559 C   0  0  0  0  0  0  0  0  0  0  0  0
   18.7364   23.8498   -0.0004 N   0  0  0  0  0  0  0  0  0  0  0  0
   16.6221   32.8637   -1.7416 C   0  0  0  0  0  0  0  0  0  0  0  0
   16.8324   33.2749   -0.4010 O   0  0  0  0  0  0  0  0  0  0  0  0
   18.9989   28.6215    2.9759 C   0  0  0  0  0  0  0  0  0  0  0  0
   19.9372   29.4560    3.2503 N   0  0  0  0  0  0  0  0  0  0  0  0
   19.5165   33.5480   -3.0583 C   0  0  0  0  0  0  0  0  0  0  0  0
   13.1717   29.8913   -1.0680 C   0  0  0  0  0  0  0  0  0  0  0  0
   20.8992   25.8236    0.0931 C   0  0  2  0  0  0  0  0  0  0  0  0
   20.8841   24.3132   -0.0034 N   0  0  0  0  0  0  0  0  0  0  0  0
   19.3624   30.4265   -1.4497 C   0  0  2  0  0  0  0  0  0  0  0  0
   16.7063   28.7480   -1.2810 C   0  0  1  0  0  0  0  0  0  0  0  0
   17.2538   29.7140   -2.1592 O   0  0  0  0  0  0  0  0  0  0  0  0
   19.7294   26.3296    0.9300 C   0  0  1  0  0  0  0  0  0  0  0  0
   19.8915   25.6596    2.2554 O   0  0  0  0  0  0  0  0  0  0  0  0
   17.8715   30.7098   -1.4797 C   0  0  2  0  0  0  0  0  0  0  0  0
   15.2304   28.6143   -1.5684 C   0  0  1  0  0  0  0  0  0  0  0  0
   14.5808   29.8563   -1.3388 N   0  0  0  0  0  0  0  0  0  0  0  0
   19.6839   27.8528    1.0318 C   0  0  2  0  0  0  0  0  0  0  0  0
   18.5932   28.3873    1.8207 N   0  0  0  0  0  0  0  0  0  0  0  0
   17.7880   32.0243   -2.2093 C   0  0  1  0  0  0  0  0  0  0  0  0
   17.6943   31.7958   -3.6193 O   0  0  0  0  0  0  0  0  0  0  0  0
   15.0721   28.2128   -3.0252 C   0  0  2  0  0  0  0  0  0  0  0  0
   13.7054   28.0832   -3.3510 O   0  0  0  0  0  0  0  0  0  0  0  0
   19.5826   28.4099   -0.3645 C   0  0  1  0  0  0  0  0  0  0  0  0
   19.7387   29.8474   -0.2047 O   0  0  0  0  0  0  0  0  0  0  0  0
   19.0724   32.6984   -1.8959 C   0  0  1  0  0  0  0  0  0  0  0  0
   20.0353   31.6729   -1.6420 O   0  0  0  0  0  0  0  0  0  0  0  0
   15.7906   26.8745   -3.1992 C   0  0  1  0  0  0  0  0  0  0  0  0
   15.6924   26.4327   -4.5442 O   0  0  0  0  0  0  0  0  0  0  0  0
   20.7952   27.9437   -1.2145 C   0  0  2  0  0  0  0  0  0  0  0  0
   20.6877   28.4904   -2.5197 O   0  0  0  0  0  0  0  0  0  0  0  0
   17.2595   27.0467   -2.8112 C   0  0  1  0  0  0  0  0  0  0  0  0
   17.3562   27.4917   -1.4592 O   0  0  0  0  0  0  0  0  0  0  0  0
   20.7977   26.4053   -1.3023 C   0  0  1  0  0  0  0  0  0  0  0  0
   21.9117   25.9586   -2.0844 O   0  0  0  0  0  0  0  0  0  0  0  0
   17.9712   25.7012   -2.9541 C   0  0  0  0  0  0  0  0  0  0  0  0
   17.2821   24.7262   -2.1879 O   0  0  0  0  0  0  0  0  0  0  0  0
   19.9064   23.4709   -1.8810 N   0  0  0  0  0  0  0  0  0  0  0  0
   18.4852   27.9572    3.8932 N   0  0  0  0  0  0  0  0  0  0  0  0
  1  2  1  0  0  0  0
  1 39  1  0  0  0  0
  3  4  1  0  0  0  0
  5  6  1  0  0  0  0
  5 40  1  0  0  0  0
  9 10  1  6  0  0  0
  9 14  1  0  0  0  0
  9 35  1  0  0  0  0
 10  1  1  0  0  0  0
 11 16  1  0  0  0  0
 11 28  1  0  0  0  0
 11 26  1  1  0  0  0
 12 17  1  0  0  0  0
 12 34  1  0  0  0  0
 12 13  1  6  0  0  0
 14 15  1  1  0  0  0
 14 19  1  0  0  0  0
 16 13  1  6  0  0  0
 16 21  1  0  0  0  0
 17 18  1  6  0  0  0
 17 23  1  0  0  0  0
 18  8  1  0  0  0  0
 19 20  1  1  0  0  0
 19 25  1  0  0  0  0
 20  5  1  0  0  0  0
 21  3  1  1  0  0  0
 21 22  1  0  0  0  0
 21 27  1  0  0  0  0
 23 24  1  1  0  0  0
 23 29  1  0  0  0  0
 25 26  1  1  0  0  0
 25 31  1  0  0  0  0
 27  7  1  6  0  0  0
 27 28  1  0  0  0  0
 29 30  1  6  0  0  0
 29 33  1  0  0  0  0
 31 32  1  6  0  0  0
 31 35  1  0  0  0  0
 33 34  1  0  0  0  0
 33 37  1  1  0  0  0
 35 36  1  6  0  0  0
 37 38  1  0  0  0  0
M  END
>  <CHROM.1>
65.05835745,-77.19443978,88.65448846,123.69420043,98.00135175,-157.44668794
96.65833920,61.23666692,66.92022454,-167.72409309,-54.92852872,18.25691839
28.34479028,-1.09555643,0.98468252,0.67881668,-3.05400166

>  <Name>
1ntb_lig

>  <RI>
0

>  <Rbt.Current_Directory>
/home/itssahil/PROJECTS/Mol_Feturizer/New_Systems/rnas/1ntb

>  <Rbt.Executable>
rbdock ($Id: //depot/dev/client3/rdock/2013.1/src/exe/rbdock.cxx#4 $)

>  <Rbt.Library>
libRbt.so (2013.1, Build901 2013/11/27)

>  <Rbt.Parameter_File>
/export/apps/rDock/src/rDock_2013.1_src/data/scripts/dock_solv.prm

>  <Rbt.Receptor>
prm/blind_docking_80.prm

>  <SCORE>
-23.6956

>  <SCORE.INTER>
-20.8588

>  <SCORE.INTER.CONST>
1

>  <SCORE.INTER.POLAR>
-1.92054

>  <SCORE.INTER.ROT>
11

>  <SCORE.INTER.SOLV>
14.7999

>  <SCORE.INTER.VDW>
-23.3707

>  <SCORE.INTER.norm>
-0.521469

>  <SCORE.INTRA>
-3.52041

>  <SCORE.INTRA.DIHEDRAL>
3.89511

>  <SCORE.INTRA.DIHEDRAL.0>
15.4453

>  <SCORE.INTRA.POLAR>
0

>  <SCORE.INTRA.POLAR.0>
0

>  <SCORE.INTRA.REPUL>
-0.823958

>  <SCORE.INTRA.REPUL.0>
0.823958

>  <SCORE.INTRA.SOLV>
5.03371

>  <SCORE.INTRA.SOLV.lig_0>
-99.3069

>  <SCORE.INTRA.VDW>
-3.86503

>  <SCORE.INTRA.VDW.0>
0.946495

>  <SCORE.INTRA.norm>
-0.0880103

>  <SCORE.RESTR>
0.683541

>  <SCORE.RESTR.CAVITY>
0.683541

>  <SCORE.RESTR.norm>
0.0170885

>  <SCORE.SYSTEM>
0

>  <SCORE.SYSTEM.CONST>
0

>  <SCORE.SYSTEM.DIHEDRAL>
0

>  <SCORE.SYSTEM.SOLV>
0

>  <SCORE.SYSTEM.norm>
0

>  <SCORE.heavy>
40

>  <SCORE.norm>
-0.592391

>  <RMSD>
17.293

$$$$
1ntb_lig
 OpenBabel11021811403D
libRbt.so/2013.1/901 2013/11/27
 40 42  0  0  0  0  0  0  0  0999 V2000
   19.2684   23.3463   -1.6162 C   0  0  0  0  0  0  0  0  0  0  0  0
   18.4567   22.8003   -0.7957 N   0  0  0  0  0  0  0  0  0  0  0  0
   16.1691   29.5653   -3.7562 C   0  0  0  0  0  0  0  0  0  0  0  0
   14.9903   28.8761   -4.1379 O   0  0  0  0  0  0  0  0  0  0  0  0
   18.6209   27.4275    2.9215 C   0  0  0  0  0  0  0  0  0  0  0  0
   18.5126   28.5697    3.5010 N   0  0  0  0  0  0  0  0  0  0  0  0
   14.2658   28.5869   -1.3067 C   0  0  0  0  0  0  0  0  0  0  0  0
   18.1079   35.6219   -2.5328 C   0  0  0  0  0  0  0  0  0  0  0  0
   20.2762   25.2621   -0.6783 C   0  0  2  0  0  0  0  0  0  0  0  0
   20.3858   23.8098   -1.0902 N   0  0  0  0  0  0  0  0  0  0  0  0
   17.4617   29.6615   -0.3132 C   0  0  2  0  0  0  0  0  0  0  0  0
   18.7699   31.9308   -2.5273 C   0  0  1  0  0  0  0  0  0  0  0  0
   17.7002   31.5343   -1.6890 O   0  0  0  0  0  0  0  0  0  0  0  0
   19.2134   25.4459    0.3995 C   0  0  1  0  0  0  0  0  0  0  0  0
   19.6465   24.5545    1.5174 O   0  0  0  0  0  0  0  0  0  0  0  0
   17.5041   30.1948   -1.7336 C   0  0  2  0  0  0  0  0  0  0  0  0
   19.1006   33.3751   -2.2391 C   0  0  1  0  0  0  0  0  0  0  0  0
   17.9745   34.1928   -2.5229 N   0  0  0  0  0  0  0  0  0  0  0  0
   19.0439   26.9022    0.8275 C   0  0  2  0  0  0  0  0  0  0  0  0
   18.0485   27.1328    1.8540 N   0  0  0  0  0  0  0  0  0  0  0  0
   16.1423   29.8434   -2.2714 C   0  0  1  0  0  0  0  0  0  0  0  0
   15.2170   30.8976   -1.9858 O   0  0  0  0  0  0  0  0  0  0  0  0
   19.4601   33.4879   -0.7671 C   0  0  2  0  0  0  0  0  0  0  0  0
   19.7696   34.8251   -0.4403 O   0  0  0  0  0  0  0  0  0  0  0  0
   18.6697   27.7051   -0.3912 C   0  0  1  0  0  0  0  0  0  0  0  0
   18.7156   29.0915    0.0471 O   0  0  0  0  0  0  0  0  0  0  0  0
   15.7569   28.6225   -1.5209 C   0  0  1  0  0  0  0  0  0  0  0  0
   16.4321   28.6712   -0.2619 O   0  0  0  0  0  0  0  0  0  0  0  0
   20.6738   32.5879   -0.5346 C   0  0  1  0  0  0  0  0  0  0  0  0
   21.0692   32.6344    0.8275 O   0  0  0  0  0  0  0  0  0  0  0  0
   19.7689   27.5679   -1.4790 C   0  0  2  0  0  0  0  0  0  0  0  0
   19.4040   28.3422   -2.6111 O   0  0  0  0  0  0  0  0  0  0  0  0
   20.3102   31.1550   -0.9251 C   0  0  1  0  0  0  0  0  0  0  0  0
   19.9122   31.1103   -2.2943 O   0  0  0  0  0  0  0  0  0  0  0  0
   19.8996   26.0889   -1.8909 C   0  0  1  0  0  0  0  0  0  0  0  0
   20.9109   25.9452   -2.8954 O   0  0  0  0  0  0  0  0  0  0  0  0
   21.5334   30.2603   -0.7233 C   0  0  0  0  0  0  0  0  0  0  0  0
   21.5499   29.7889    0.6146 O   0  0  0  0  0  0  0  0  0  0  0  0
   19.0076   23.4626   -2.8709 N   0  0  0  0  0  0  0  0  0  0  0  0
   19.3763   26.5664    3.4058 N   0  0  0  0  0  0  0  0  0  0  0  0
  1  2  1  0  0  0  0
  1 39  1  0  0  0  0
  3  4  1  0  0  0  0
  5  6  1  0  0  0  0
  5 40  1  0  0  0  0
  9 10  1  6  0  0  0
  9 14  1  0  0  0  0
  9 35  1  0  0  0  0
 10  1  1  0  0  0  0
 11 16  1  0  0  0  0
 11 28  1  0  0  0  0
 11 26  1  6  0  0  0
 12 17  1  0  0  0  0
 12 34  1  0  0  0  0
 12 13  1  1  0  0  0
 14 15  1  1  0  0  0
 14 19  1  0  0  0  0
 16 13  1  1  0  0  0
 16 21  1  0  0  0  0
 17 18  1  1  0  0  0
 17 23  1  0  0  0  0
 18  8  1  0  0  0  0
 19 20  1  1  0  0  0
 19 25  1  0  0  0  0
 20  5  1  0  0  0  0
 21  3  1  6  0  0  0
 21 22  1  0  0  0  0
 21 27  1  0  0  0  0
 23 24  1  6  0  0  0
 23 29  1  0  0  0  0
 25 26  1  1  0  0  0
 25 31  1  0  0  0  0
 27  7  1  1  0  0  0
 27 28  1  0  0  0  0
 29 30  1  1  0  0  0
 29 33  1  0  0  0  0
 31 32  1  6  0  0  0
 31 35  1  0  0  0  0
 33 34  1  0  0  0  0
 33 37  1  6  0  0  0
 35 36  1  6  0  0  0
 37 38  1  0  0  0  0
M  END
>  <CHROM.1>
62.04284733,-91.59450397,-87.17861253,-169.57617031,129.12474540,-170.01194430
108.71491453,115.34256965,163.09960989,-127.52777732,87.52074930,18.67286364
28.98000506,-0.88368232,1.47270728,0.73001407,3.05152530

>  <Name>
1ntb_lig

>  <RI>
0

>  <Rbt.Current_Directory>
/home/itssahil/PROJECTS/Mol_Feturizer/New_Systems/rnas/1ntb

>  <Rbt.Executable>
rbdock ($Id: //depot/dev/client3/rdock/2013.1/src/exe/rbdock.cxx#4 $)

>  <Rbt.Library>
libRbt.so (2013.1, Build901 2013/11/27)

>  <Rbt.Parameter_File>
/export/apps/rDock/src/rDock_2013.1_src/data/scripts/dock_solv.prm

>  <Rbt.Receptor>
prm/blind_docking_100.prm

>  <SCORE>
-16.8421

>  <SCORE.INTER>
-17.0927

>  <SCORE.INTER.CONST>
1

>  <SCORE.INTER.POLAR>
-1.92138

>  <SCORE.INTER.ROT>
11

>  <SCORE.INTER.SOLV>
14.1124

>  <SCORE.INTER.VDW>
-20.628

>  <SCORE.INTER.norm>
-0.427318

>  <SCORE.INTRA>
-0.101133

>  <SCORE.INTRA.DIHEDRAL>
6.88169

>  <SCORE.INTRA.DIHEDRAL.0>
15.4453

>  <SCORE.INTRA.POLAR>
0

>  <SCORE.INTRA.POLAR.0>
0

>  <SCORE.INTRA.REPUL>
-0.797317

>  <SCORE.INTRA.REPUL.0>
0.823958

>  <SCORE.INTRA.SOLV>
1.76968

>  <SCORE.INTRA.SOLV.lig_0>
-99.3069

>  <SCORE.INTRA.VDW>
-0.440231

>  <SCORE.INTRA.VDW.0>
0.946495

>  <SCORE.INTRA.norm>
-0.00252832

>  <SCORE.RESTR>
0.351751

>  <SCORE.RESTR.CAVITY>
0.351751

>  <SCORE.RESTR.norm>
0.00879378

>  <SCORE.SYSTEM>
0

>  <SCORE.SYSTEM.CONST>
0

>  <SCORE.SYSTEM.DIHEDRAL>
0

>  <SCORE.SYSTEM.SOLV>
0

>  <SCORE.SYSTEM.norm>
0

>  <SCORE.heavy>
40

>  <SCORE.norm>
-0.421053

>  <RMSD>
17.334

$$$$
1ntb_lig
 OpenBabel11021811403D
libRbt.so/2013.1/901 2013/11/27
 40 42  0  0  0  0  0  0  0  0999 V2000
   18.0333   22.9696   -0.3168 C   0  0  0  0  0  0  0  0  0  0  0  0
   17.9745   21.9154    0.4010 N   0  0  0  0  0  0  0  0  0  0  0  0
   15.7851   29.4631   -3.7599 C   0  0  0  0  0  0  0  0  0  0  0  0
   16.2326   28.1292   -3.9360 O   0  0  0  0  0  0  0  0  0  0  0  0
   19.2824   27.6055    2.9281 C   0  0  0  0  0  0  0  0  0  0  0  0
   19.4767   26.8006    3.9112 N   0  0  0  0  0  0  0  0  0  0  0  0
   14.0650   29.0409   -1.0317 C   0  0  0  0  0  0  0  0  0  0  0  0
   17.4201   34.2703   -2.5289 C   0  0  0  0  0  0  0  0  0  0  0  0
   19.4471   24.8428   -0.5588 C   0  0  2  0  0  0  0  0  0  0  0  0
   19.2447   23.3475   -0.6775 N   0  0  0  0  0  0  0  0  0  0  0  0
   17.4806   29.6802   -0.5022 C   0  0  2  0  0  0  0  0  0  0  0  0
   18.9654   31.4634   -2.9330 C   0  0  1  0  0  0  0  0  0  0  0  0
   17.8276   31.3503   -2.0983 O   0  0  0  0  0  0  0  0  0  0  0  0
   18.8152   25.3800    0.7207 C   0  0  1  0  0  0  0  0  0  0  0  0
   19.4736   24.6140    1.8214 O   0  0  0  0  0  0  0  0  0  0  0  0
   17.4311   30.0613   -1.9706 C   0  0  2  0  0  0  0  0  0  0  0  0
   19.4411   32.8958   -2.9111 C   0  0  1  0  0  0  0  0  0  0  0  0
   18.4228   33.7489   -3.4137 N   0  0  0  0  0  0  0  0  0  0  0  0
   18.9669   26.8923    0.8711 C   0  0  2  0  0  0  0  0  0  0  0  0
   18.3876   27.4551    2.0733 N   0  0  0  0  0  0  0  0  0  0  0  0
   15.9778   29.8827   -2.3213 C   0  0  1  0  0  0  0  0  0  0  0  0
   15.2600   31.0939   -2.0626 O   0  0  0  0  0  0  0  0  0  0  0  0
   19.7544   33.2626   -1.4703 C   0  0  2  0  0  0  0  0  0  0  0  0
   20.1958   34.6003   -1.3912 O   0  0  0  0  0  0  0  0  0  0  0  0
   18.3210   27.5461   -0.3229 C   0  0  1  0  0  0  0  0  0  0  0  0
   18.6701   28.9539   -0.2115 O   0  0  0  0  0  0  0  0  0  0  0  0
   15.5083   28.8167   -1.4017 C   0  0  1  0  0  0  0  0  0  0  0  0
   16.3292   28.8770   -0.2330 O   0  0  0  0  0  0  0  0  0  0  0  0
   20.8526   32.3102   -0.9968 C   0  0  1  0  0  0  0  0  0  0  0  0
   21.1986   32.5869    0.3513 O   0  0  0  0  0  0  0  0  0  0  0  0
   18.9894   27.0460   -1.6319 C   0  0  2  0  0  0  0  0  0  0  0  0
   18.3767   27.6839   -2.7417 O   0  0  0  0  0  0  0  0  0  0  0  0
   20.3494   30.8719   -1.1230 C   0  0  1  0  0  0  0  0  0  0  0  0
   20.0013   30.5958   -2.4787 O   0  0  0  0  0  0  0  0  0  0  0  0
   18.8037   25.5210   -1.7513 C   0  0  1  0  0  0  0  0  0  0  0  0
   19.4154   25.0433   -2.9554 O   0  0  0  0  0  0  0  0  0  0  0  0
   21.4588   29.9177   -0.6801 C   0  0  0  0  0  0  0  0  0  0  0  0
   21.1409   28.6032   -1.1084 O   0  0  0  0  0  0  0  0  0  0  0  0
   16.9852   23.6383   -0.6485 N   0  0  0  0  0  0  0  0  0  0  0  0
   19.9804   28.6302    2.8310 N   0  0  0  0  0  0  0  0  0  0  0  0
  1  2  1  0  0  0  0
  1 39  1  0  0  0  0
  3  4  1  0  0  0  0
  5  6  1  0  0  0  0
  5 40  1  0  0  0  0
  9 10  1  6  0  0  0
  9 14  1  0  0  0  0
  9 35  1  0  0  0  0
 10  1  1  0  0  0  0
 11 16  1  0  0  0  0
 11 28  1  0  0  0  0
 11 26  1  6  0  0  0
 12 17  1  0  0  0  0
 12 34  1  0  0  0  0
 12 13  1  1  0  0  0
 14 15  1  1  0  0  0
 14 19  1  0  0  0  0
 16 13  1  1  0  0  0
 16 21  1  0  0  0  0
 17 18  1  1  0  0  0
 17 23  1  0  0  0  0
 18  8  1  0  0  0  0
 19 20  1  1  0  0  0
 19 25  1  0  0  0  0
 20  5  1  0  0  0  0
 21  3  1  6  0  0  0
 21 22  1  0  0  0  0
 21 27  1  0  0  0  0
 23 24  1  6  0  0  0
 23 29  1  0  0  0  0
 25 26  1  1  0  0  0
 25 31  1  0  0  0  0
 27  7  1  1  0  0  0
 27 28  1  0  0  0  0
 29 30  1  1  0  0  0
 29 33  1  0  0  0  0
 31 32  1  6  0  0  0
 31 35  1  0  0  0  0
 33 34  1  0  0  0  0
 33 37  1  6  0  0  0
 35 36  1  6  0  0  0
 37 38  1  0  0  0  0
M  END
>  <CHROM.1>
41.36955327,-137.28610480,-94.02782290,-173.92060337,120.45972392,87.45021543
97.93671188,-100.85743654,70.38855636,-136.19604185,-165.19530728,18.49226023
28.72265721,-0.92836094,1.60243495,0.70580684,2.84201702

>  <Name>
1ntb_lig

>  <RI>
0

>  <Rbt.Current_Directory>
/home/itssahil/PROJECTS/Mol_Feturizer/New_Systems/rnas/1ntb

>  <Rbt.Executable>
rbdock ($Id: //depot/dev/client3/rdock/2013.1/src/exe/rbdock.cxx#4 $)

>  <Rbt.Library>
libRbt.so (2013.1, Build901 2013/11/27)

>  <Rbt.Parameter_File>
/export/apps/rDock/src/rDock_2013.1_src/data/scripts/dock_solv.prm

>  <Rbt.Receptor>
prm/blind_docking_100.prm

>  <SCORE>
-6.48925

>  <SCORE.INTER>
-11.7804

>  <SCORE.INTER.CONST>
1

>  <SCORE.INTER.POLAR>
-0.353982

>  <SCORE.INTER.ROT>
11

>  <SCORE.INTER.SOLV>
17.7933

>  <SCORE.INTER.VDW>
-23.5381

>  <SCORE.INTER.norm>
-0.29451

>  <SCORE.INTRA>
5.17891

>  <SCORE.INTRA.DIHEDRAL>
5.98991

>  <SCORE.INTRA.DIHEDRAL.0>
15.4453

>  <SCORE.INTRA.POLAR>
0

>  <SCORE.INTRA.POLAR.0>
0

>  <SCORE.INTRA.REPUL>
-0.801031

>  <SCORE.INTRA.REPUL.0>
0.823958

>  <SCORE.INTRA.SOLV>
3.23921

>  <SCORE.INTRA.SOLV.lig_0>
-99.3069

>  <SCORE.INTRA.VDW>
4.56951

>  <SCORE.INTRA.VDW.0>
0.946495

>  <SCORE.INTRA.norm>
0.129473

>  <SCORE.RESTR>
0.112243

>  <SCORE.RESTR.CAVITY>
0.112243

>  <SCORE.RESTR.norm>
0.00280607

>  <SCORE.SYSTEM>
0

>  <SCORE.SYSTEM.CONST>
0

>  <SCORE.SYSTEM.DIHEDRAL>
0

>  <SCORE.SYSTEM.SOLV>
0

>  <SCORE.SYSTEM.norm>
0

>  <SCORE.heavy>
40

>  <SCORE.norm>
-0.162231

>  <RMSD>
17.346

$$$$
1ntb_lig
 OpenBabel11021811403D
libRbt.so/2013.1/901 2013/11/27
 40 42  0  0  0  0  0  0  0  0999 V2000
   21.1855   23.9462    1.1270 C   0  0  0  0  0  0  0  0  0  0  0  0
   22.3095   23.6521    0.5975 N   0  0  0  0  0  0  0  0  0  0  0  0
   16.4590   32.5630   -2.0238 C   0  0  0  0  0  0  0  0  0  0  0  0
   16.7476   32.8187   -0.6594 O   0  0  0  0  0  0  0  0  0  0  0  0
   19.9967   30.0857    2.0587 C   0  0  0  0  0  0  0  0  0  0  0  0
   20.3520   31.1949    1.5151 N   0  0  0  0  0  0  0  0  0  0  0  0
   18.9651   33.4690   -3.8889 C   0  0  0  0  0  0  0  0  0  0  0  0
   13.3171   30.1263   -1.4828 C   0  0  0  0  0  0  0  0  0  0  0  0
   20.6079   25.9685    0.0582 C   0  0  2  0  0  0  0  0  0  0  0  0
   20.3053   24.5091    0.3217 N   0  0  0  0  0  0  0  0  0  0  0  0
   19.4783   30.4642   -2.1386 C   0  0  2  0  0  0  0  0  0  0  0  0
   16.7747   28.7042   -1.3880 C   0  0  1  0  0  0  0  0  0  0  0  0
   17.3769   29.4800   -2.4077 O   0  0  0  0  0  0  0  0  0  0  0  0
   19.7609   26.8718    0.9479 C   0  0  1  0  0  0  0  0  0  0  0  0
   20.0915   26.4510    2.3426 O   0  0  0  0  0  0  0  0  0  0  0  0
   17.9835   30.5805   -1.9021 C   0  0  2  0  0  0  0  0  0  0  0  0
   15.2883   28.6401   -1.6428 C   0  0  1  0  0  0  0  0  0  0  0  0
   14.7363   29.9482   -1.6037 N   0  0  0  0  0  0  0  0  0  0  0  0
   20.0088   28.3578    0.6971 C   0  0  2  0  0  0  0  0  0  0  0  0
   19.2320   29.2615    1.5201 N   0  0  0  0  0  0  0  0  0  0  0  0
   17.6131   31.8262   -2.6625 C   0  0  1  0  0  0  0  0  0  0  0  0
   17.2943   31.4948   -4.0181 O   0  0  0  0  0  0  0  0  0  0  0  0
   15.0755   28.0332   -3.0194 C   0  0  2  0  0  0  0  0  0  0  0  0
   13.6976   27.9589   -3.3135 O   0  0  0  0  0  0  0  0  0  0  0  0
   19.7008   28.6435   -0.7498 C   0  0  1  0  0  0  0  0  0  0  0  0
   20.1398   30.0143   -0.9609 O   0  0  0  0  0  0  0  0  0  0  0  0
   18.8431   32.6558   -2.6262 C   0  0  1  0  0  0  0  0  0  0  0  0
   19.9516   31.7608   -2.5103 O   0  0  0  0  0  0  0  0  0  0  0  0
   15.6901   26.6336   -2.9892 C   0  0  1  0  0  0  0  0  0  0  0  0
   15.5363   25.9996   -4.2493 O   0  0  0  0  0  0  0  0  0  0  0  0
   20.5931   27.7664   -1.6689 C   0  0  2  0  0  0  0  0  0  0  0  0
   20.2974   28.0611   -3.0253 O   0  0  0  0  0  0  0  0  0  0  0  0
   17.1742   26.7516   -2.6407 C   0  0  1  0  0  0  0  0  0  0  0  0
   17.3269   27.3900   -1.3740 O   0  0  0  0  0  0  0  0  0  0  0  0
   20.3042   26.2781   -1.3937 C   0  0  1  0  0  0  0  0  0  0  0  0
   21.1204   25.4544   -2.2349 O   0  0  0  0  0  0  0  0  0  0  0  0
   17.7820   25.3501   -2.5786 C   0  0  0  0  0  0  0  0  0  0  0  0
   17.2030   24.6391   -1.4962 O   0  0  0  0  0  0  0  0  0  0  0  0
   20.9314   23.7333    2.3703 N   0  0  0  0  0  0  0  0  0  0  0  0
   20.4708   29.7678    3.1636 N   0  0  0  0  0  0  0  0  0  0  0  0
  1  2  1  0  0  0  0
  1 39  1  0  0  0  0
  3  4  1  0  0  0  0
  5  6  1  0  0  0  0
  5 40  1  0  0  0  0
  9 10  1  1  0  0  0
  9 14  1  0  0  0  0
  9 35  1  0  0  0  0
 10  1  1  0  0  0  0
 11 16  1  0  0  0  0
 11 28  1  0  0  0  0
 11 26  1  1  0  0  0
 12 17  1  0  0  0  0
 12 34  1  0  0  0  0
 12 13  1  6  0  0  0
 14 15  1  1  0  0  0
 14 19  1  0  0  0  0
 16 13  1  6  0  0  0
 16 21  1  0  0  0  0
 17 18  1  6  0  0  0
 17 23  1  0  0  0  0
 18  8  1  0  0  0  0
 19 20  1  1  0  0  0
 19 25  1  0  0  0  0
 20  5  1  0  0  0  0
 21  3  1  1  0  0  0
 21 22  1  0  0  0  0
 21 27  1  0  0  0  0
 23 24  1  1  0  0  0
 23 29  1  0  0  0  0
 25 26  1  6  0  0  0
 25 31  1  0  0  0  0
 27  7  1  6  0  0  0
 27 28  1  0  0  0  0
 29 30  1  6  0  0  0
 29 33  1  0  0  0  0
 31 32  1  6  0  0  0
 31 35  1  0  0  0  0
 33 34  1  0  0  0  0
 33 37  1  1  0  0  0
 35 36  1  6  0  0  0
 37 38  1  0  0  0  0
M  END
>  <CHROM.1>
-98.64215903,-76.63792320,67.39417186,118.53852498,114.93456711,-164.41189497
128.48734194,87.55579877,53.74652546,-161.02919676,-65.71639932,18.41579267
28.44198071,-1.18598342,0.86341203,0.62766937,3.10227283

>  <Name>
1ntb_lig

>  <RI>
0

>  <Rbt.Current_Directory>
/home/itssahil/PROJECTS/Mol_Feturizer/New_Systems/rnas/1ntb

>  <Rbt.Executable>
rbdock ($Id: //depot/dev/client3/rdock/2013.1/src/exe/rbdock.cxx#4 $)

>  <Rbt.Library>
libRbt.so (2013.1, Build901 2013/11/27)

>  <Rbt.Parameter_File>
/export/apps/rDock/src/rDock_2013.1_src/data/scripts/dock_solv.prm

>  <Rbt.Receptor>
prm/blind_docking_100.prm

>  <SCORE>
-24.532

>  <SCORE.INTER>
-18.5915

>  <SCORE.INTER.CONST>
1

>  <SCORE.INTER.POLAR>
-2.44911

>  <SCORE.INTER.ROT>
11

>  <SCORE.INTER.SOLV>
24.5119

>  <SCORE.INTER.VDW>
-23.3346

>  <SCORE.INTER.norm>
-0.464787

>  <SCORE.INTRA>
-6.74691

>  <SCORE.INTRA.DIHEDRAL>
4.33011

>  <SCORE.INTRA.DIHEDRAL.0>
15.4453

>  <SCORE.INTRA.POLAR>
0

>  <SCORE.INTRA.POLAR.0>
0

>  <SCORE.INTRA.REPUL>
-0.823958

>  <SCORE.INTRA.REPUL.0>
0.823958

>  <SCORE.INTRA.SOLV>
1.77497

>  <SCORE.INTRA.SOLV.lig_0>
-99.3069

>  <SCORE.INTRA.VDW>
-5.67966

>  <SCORE.INTRA.VDW.0>
0.946495

>  <SCORE.INTRA.norm>
-0.168673

>  <SCORE.RESTR>
0.806388

>  <SCORE.RESTR.CAVITY>
0.806388

>  <SCORE.RESTR.norm>
0.0201597

>  <SCORE.SYSTEM>
0

>  <SCORE.SYSTEM.CONST>
0

>  <SCORE.SYSTEM.DIHEDRAL>
0

>  <SCORE.SYSTEM.SOLV>
0

>  <SCORE.SYSTEM.norm>
0

>  <SCORE.heavy>
40

>  <SCORE.norm>
-0.6133

>  <RMSD>
17.349

$$$$
1ntb_lig
 OpenBabel11021811403D
libRbt.so/2013.1/901 2013/11/27
 40 42  0  0  0  0  0  0  0  0999 V2000
   19.2678   23.5634   -1.5487 C   0  0  0  0  0  0  0  0  0  0  0  0
   18.4186   23.0859   -0.7235 N   0  0  0  0  0  0  0  0  0  0  0  0
   16.3448   29.7822   -3.6333 C   0  0  0  0  0  0  0  0  0  0  0  0
   17.2005   30.6538   -4.3533 O   0  0  0  0  0  0  0  0  0  0  0  0
   18.7648   27.6608    2.9762 C   0  0  0  0  0  0  0  0  0  0  0  0
   19.9936   28.0268    3.0667 N   0  0  0  0  0  0  0  0  0  0  0  0
   14.4718   29.0225   -1.0848 C   0  0  0  0  0  0  0  0  0  0  0  0
   18.8290   33.5724   -4.9449 C   0  0  0  0  0  0  0  0  0  0  0  0
   20.3628   25.4291   -0.6074 C   0  0  2  0  0  0  0  0  0  0  0  0
   20.4057   23.9742   -1.0227 N   0  0  0  0  0  0  0  0  0  0  0  0
   17.7538   29.9546   -0.2393 C   0  0  2  0  0  0  0  0  0  0  0  0
   19.3507   32.0040   -2.2054 C   0  0  1  0  0  0  0  0  0  0  0  0
   18.0511   31.7486   -1.7056 O   0  0  0  0  0  0  0  0  0  0  0  0
   19.2947   25.6630    0.4553 C   0  0  1  0  0  0  0  0  0  0  0  0
   19.6661   24.7480    1.5763 O   0  0  0  0  0  0  0  0  0  0  0  0
   17.7790   30.4219   -1.6832 C   0  0  2  0  0  0  0  0  0  0  0  0
   19.4559   33.4688   -2.5541 C   0  0  1  0  0  0  0  0  0  0  0  0
   18.5099   33.7927   -3.5629 N   0  0  0  0  0  0  0  0  0  0  0  0
   19.1920   27.1248    0.8858 C   0  0  2  0  0  0  0  0  0  0  0  0
   18.1943   27.4022    1.8983 N   0  0  0  0  0  0  0  0  0  0  0  0
   16.3827   30.1260   -2.1626 C   0  0  1  0  0  0  0  0  0  0  0  0
   15.5277   31.2430   -1.8972 O   0  0  0  0  0  0  0  0  0  0  0  0
   19.1623   34.2710   -1.2975 C   0  0  2  0  0  0  0  0  0  0  0  0
   19.2377   35.6531   -1.5709 O   0  0  0  0  0  0  0  0  0  0  0  0
   18.8764   27.9487   -0.3356 C   0  0  1  0  0  0  0  0  0  0  0  0
   18.9851   29.3299    0.1081 O   0  0  0  0  0  0  0  0  0  0  0  0
   15.9546   28.9632   -1.3459 C   0  0  1  0  0  0  0  0  0  0  0  0
   16.6728   29.0281   -0.1117 O   0  0  0  0  0  0  0  0  0  0  0  0
   20.2134   33.8749   -0.2604 C   0  0  1  0  0  0  0  0  0  0  0  0
   20.0017   34.5817    0.9518 O   0  0  0  0  0  0  0  0  0  0  0  0
   19.9833   27.7595   -1.4076 C   0  0  2  0  0  0  0  0  0  0  0  0
   19.6745   28.5541   -2.5423 O   0  0  0  0  0  0  0  0  0  0  0  0
   20.1205   32.3692   -0.0110 C   0  0  1  0  0  0  0  0  0  0  0  0
   20.3326   31.6603   -1.2307 O   0  0  0  0  0  0  0  0  0  0  0  0
   20.0460   26.2769   -1.8226 C   0  0  1  0  0  0  0  0  0  0  0  0
   21.0636   26.0855   -2.8127 O   0  0  0  0  0  0  0  0  0  0  0  0
   21.1927   31.9672    1.0021 C   0  0  0  0  0  0  0  0  0  0  0  0
   21.0699   30.5826    1.2853 O   0  0  0  0  0  0  0  0  0  0  0  0
   19.0254   23.6634   -2.8084 N   0  0  0  0  0  0  0  0  0  0  0  0
   18.0987   27.4966    4.0135 N   0  0  0  0  0  0  0  0  0  0  0  0
  1  2  1  0  0  0  0
  1 39  1  0  0  0  0
  3  4  1  0  0  0  0
  5  6  1  0  0  0  0
  5 40  1  0  0  0  0
  9 10  1  6  0  0  0
  9 14  1  0  0  0  0
  9 35  1  0  0  0  0
 10  1  1  0  0  0  0
 11 16  1  0  0  0  0
 11 28  1  0  0  0  0
 11 26  1  6  0  0  0
 12 17  1  0  0  0  0
 12 34  1  0  0  0  0
 12 13  1  1  0  0  0
 14 15  1  1  0  0  0
 14 19  1  0  0  0  0
 16 13  1  1  0  0  0
 16 21  1  0  0  0  0
 17 18  1  6  0  0  0
 17 23  1  0  0  0  0
 18  8  1  0  0  0  0
 19 20  1  1  0  0  0
 19 25  1  0  0  0  0
 20  5  1  0  0  0  0
 21  3  1  6  0  0  0
 21 22  1  0  0  0  0
 21 27  1  0  0  0  0
 23 24  1  6  0  0  0
 23 29  1  0  0  0  0
 25 26  1  1  0  0  0
 25 31  1  0  0  0  0
 27  7  1  1  0  0  0
 27 28  1  0  0  0  0
 29 30  1  1  0  0  0
 29 33  1  0  0  0  0
 31 32  1  6  0  0  0
 31 35  1  0  0  0  0
 33 34  1  0  0  0  0
 33 37  1  1  0  0  0
 35 36  1  6  0  0  0
 37 38  1  0  0  0  0
M  END
>  <CHROM.1>
61.11533636,-89.79897865,-83.96431054,164.89925975,109.14369735,-84.30641232
108.50210095,19.69277639,-42.02514671,-126.14334562,177.24865834,18.82188478
29.36418017,-0.84707817,1.45653097,1.15638787,3.04912759

>  <Name>
1ntb_lig

>  <RI>
0

>  <Rbt.Current_Directory>
/home/itssahil/PROJECTS/Mol_Feturizer/New_Systems/rnas/1ntb

>  <Rbt.Executable>
rbdock ($Id: //depot/dev/client3/rdock/2013.1/src/exe/rbdock.cxx#4 $)

>  <Rbt.Library>
libRbt.so (2013.1, Build901 2013/11/27)

>  <Rbt.Parameter_File>
/export/apps/rDock/src/rDock_2013.1_src/data/scripts/dock_solv.prm

>  <Rbt.Receptor>
prm/blind_docking_100.prm

>  <SCORE>
-20.3066

>  <SCORE.INTER>
-18.5902

>  <SCORE.INTER.CONST>
1

>  <SCORE.INTER.POLAR>
-1.72437

>  <SCORE.INTER.ROT>
11

>  <SCORE.INTER.SOLV>
14.0216

>  <SCORE.INTER.VDW>
-22.2527

>  <SCORE.INTER.norm>
-0.464755

>  <SCORE.INTRA>
-2.68049

>  <SCORE.INTRA.DIHEDRAL>
5.53752

>  <SCORE.INTRA.DIHEDRAL.0>
15.4453

>  <SCORE.INTRA.POLAR>
0

>  <SCORE.INTRA.POLAR.0>
0

>  <SCORE.INTRA.REPUL>
-0.773773

>  <SCORE.INTRA.REPUL.0>
0.823958

>  <SCORE.INTRA.SOLV>
1.88673

>  <SCORE.INTRA.SOLV.lig_0>
-99.3069

>  <SCORE.INTRA.VDW>
-2.52376

>  <SCORE.INTRA.VDW.0>
0.946495

>  <SCORE.INTRA.norm>
-0.0670124

>  <SCORE.RESTR>
0.964077

>  <SCORE.RESTR.CAVITY>
0.964077

>  <SCORE.RESTR.norm>
0.0241019

>  <SCORE.SYSTEM>
0

>  <SCORE.SYSTEM.CONST>
0

>  <SCORE.SYSTEM.DIHEDRAL>
0

>  <SCORE.SYSTEM.SOLV>
0

>  <SCORE.SYSTEM.norm>
0

>  <SCORE.heavy>
40

>  <SCORE.norm>
-0.507665

>  <RMSD>
17.351

$$$$
1ntb_lig
 OpenBabel11021811403D
libRbt.so/2013.1/901 2013/11/27
 40 42  0  0  0  0  0  0  0  0999 V2000
   19.7799   29.4101    5.4948 C   0  0  0  0  0  0  0  0  0  0  0  0
   21.0516   29.3862    5.6064 N   0  0  0  0  0  0  0  0  0  0  0  0
   18.5745   25.5190   -4.6382 C   0  0  0  0  0  0  0  0  0  0  0  0
   19.8883   26.0076   -4.8517 O   0  0  0  0  0  0  0  0  0  0  0  0
   21.0970   31.0558   -0.5231 C   0  0  0  0  0  0  0  0  0  0  0  0
   22.3302   30.6934   -0.5281 N   0  0  0  0  0  0  0  0  0  0  0  0
   18.6708   23.2857   -2.2753 C   0  0  0  0  0  0  0  0  0  0  0  0
   14.6816   26.7558   -2.3408 C   0  0  0  0  0  0  0  0  0  0  0  0
   19.7818   29.2226    3.1431 C   0  0  2  0  0  0  0  0  0  0  0  0
   19.3146   29.9507    4.3851 N   0  0  0  0  0  0  0  0  0  0  0  0
   18.8527   26.6055   -1.1344 C   0  0  2  0  0  0  0  0  0  0  0  0
   16.9581   28.1642   -3.7884 C   0  0  1  0  0  0  0  0  0  0  0  0
   17.2603   27.5956   -2.5276 O   0  0  0  0  0  0  0  0  0  0  0  0
   19.7303   30.1350    1.9226 C   0  0  1  0  0  0  0  0  0  0  0  0
   20.5997   31.2966    2.2785 O   0  0  0  0  0  0  0  0  0  0  0  0
   18.4263   26.9070   -2.5596 C   0  0  2  0  0  0  0  0  0  0  0  0
   15.5063   28.5774   -3.7973 C   0  0  1  0  0  0  0  0  0  0  0  0
   14.6804   27.4383   -3.6036 N   0  0  0  0  0  0  0  0  0  0  0  0
   20.1644   29.4354    0.6363 C   0  0  2  0  0  0  0  0  0  0  0  0
   20.1385   30.2593   -0.5545 N   0  0  0  0  0  0  0  0  0  0  0  0
   18.2543   25.5377   -3.1618 C   0  0  1  0  0  0  0  0  0  0  0  0
   16.9186   25.0716   -2.9430 O   0  0  0  0  0  0  0  0  0  0  0  0
   15.2941   29.5654   -2.6627 C   0  0  2  0  0  0  0  0  0  0  0  0
   13.9456   29.9781   -2.6193 O   0  0  0  0  0  0  0  0  0  0  0  0
   19.2560   28.2529    0.4200 C   0  0  1  0  0  0  0  0  0  0  0  0
   19.8422   27.5322   -0.6995 O   0  0  0  0  0  0  0  0  0  0  0  0
   19.2105   24.6859   -2.4118 C   0  0  1  0  0  0  0  0  0  0  0  0
   19.3765   25.2755   -1.1203 O   0  0  0  0  0  0  0  0  0  0  0  0
   16.2085   30.7599   -2.9352 C   0  0  1  0  0  0  0  0  0  0  0  0
   16.0717   31.7306   -1.9090 O   0  0  0  0  0  0  0  0  0  0  0  0
   19.3369   27.2886    1.6340 C   0  0  2  0  0  0  0  0  0  0  0  0
   18.4860   26.1764    1.4038 O   0  0  0  0  0  0  0  0  0  0  0  0
   17.6556   30.2709   -3.0029 C   0  0  1  0  0  0  0  0  0  0  0  0
   17.7911   29.2947   -4.0344 O   0  0  0  0  0  0  0  0  0  0  0  0
   18.8802   28.0280    2.9065 C   0  0  1  0  0  0  0  0  0  0  0  0
   18.9489   27.1508    4.0370 O   0  0  0  0  0  0  0  0  0  0  0  0
   18.5672   31.4599   -3.3075 C   0  0  0  0  0  0  0  0  0  0  0  0
   18.3524   31.8807   -4.6451 O   0  0  0  0  0  0  0  0  0  0  0  0
   18.9978   28.9612    6.4127 N   0  0  0  0  0  0  0  0  0  0  0  0
   20.8161   32.2636   -0.4287 N   0  0  0  0  0  0  0  0  0  0  0  0
  1  2  1  0  0  0  0
  1 39  1  0  0  0  0
  3  4  1  0  0  0  0
  5  6  1  0  0  0  0
  5 40  1  0  0  0  0
  9 10  1  1  0  0  0
  9 14  1  0  0  0  0
  9 35  1  0  0  0  0
 10  1  1  0  0  0  0
 11 16  1  0  0  0  0
 11 28  1  0  0  0  0
 11 26  1  6  0  0  0
 12 17  1  0  0  0  0
 12 34  1  0  0  0  0
 12 13  1  1  0  0  0
 14 15  1  1  0  0  0
 14 19  1  0  0  0  0
 16 13  1  1  0  0  0
 16 21  1  0  0  0  0
 17 18  1  1  0  0  0
 17 23  1  0  0  0  0
 18  8  1  0  0  0  0
 19 20  1  6  0  0  0
 19 25  1  0  0  0  0
 20  5  1  0  0  0  0
 21  3  1  6  0  0  0
 21 22  1  0  0  0  0
 21 27  1  0  0  0  0
 23 24  1  6  0  0  0
 23 29  1  0  0  0  0
 25 26  1  6  0  0  0
 25 31  1  0  0  0  0
 27  7  1  1  0  0  0
 27 28  1  0  0  0  0
 29 30  1  1  0  0  0
 29 33  1  0  0  0  0
 31 32  1  6  0  0  0
 31 35  1  0  0  0  0
 33 34  1  0  0  0  0
 33 37  1  6  0  0  0
 35 36  1  1  0  0  0
 37 38  1  0  0  0  0
M  END
>  <CHROM.1>
-156.89973955,60.41519614,117.35256201,164.54679223,166.92352116,67.93231792
73.97316681,62.85366791,55.98042517,-166.38742477,-70.18969243,18.47073467
28.45521389,-0.75547385,-0.20883426,1.17982885,3.13519689

>  <Name>
1ntb_lig

>  <RI>
0

>  <Rbt.Current_Directory>
/home/itssahil/PROJECTS/Mol_Feturizer/New_Systems/rnas/1ntb

>  <Rbt.Executable>
rbdock ($Id: //depot/dev/client3/rdock/2013.1/src/exe/rbdock.cxx#4 $)

>  <Rbt.Library>
libRbt.so (2013.1, Build901 2013/11/27)

>  <Rbt.Parameter_File>
/export/apps/rDock/src/rDock_2013.1_src/data/scripts/dock_solv.prm

>  <Rbt.Receptor>
prm/blind_docking_40.prm

>  <SCORE>
-24.4103

>  <SCORE.INTER>
-20.0633

>  <SCORE.INTER.CONST>
1

>  <SCORE.INTER.POLAR>
-2.5053

>  <SCORE.INTER.ROT>
11

>  <SCORE.INTER.SOLV>
15.81

>  <SCORE.INTER.VDW>
-21.2279

>  <SCORE.INTER.norm>
-0.501583

>  <SCORE.INTRA>
-5.3832

>  <SCORE.INTRA.DIHEDRAL>
-2.76034

>  <SCORE.INTRA.DIHEDRAL.0>
15.4453

>  <SCORE.INTRA.POLAR>
0

>  <SCORE.INTRA.POLAR.0>
0

>  <SCORE.INTRA.REPUL>
-0.823958

>  <SCORE.INTRA.REPUL.0>
0.823958

>  <SCORE.INTRA.SOLV>
0.00120487

>  <SCORE.INTRA.SOLV.lig_0>
-99.3069

>  <SCORE.INTRA.VDW>
0.11616

>  <SCORE.INTRA.VDW.0>
0.946495

>  <SCORE.INTRA.norm>
-0.13458

>  <SCORE.RESTR>
1.03623

>  <SCORE.RESTR.CAVITY>
1.03623

>  <SCORE.RESTR.norm>
0.0259058

>  <SCORE.SYSTEM>
0

>  <SCORE.SYSTEM.CONST>
0

>  <SCORE.SYSTEM.DIHEDRAL>
0

>  <SCORE.SYSTEM.SOLV>
0

>  <SCORE.SYSTEM.norm>
0

>  <SCORE.heavy>
40

>  <SCORE.norm>
-0.610257

>  <RMSD>
17.354

$$$$
1ntb_lig
 OpenBabel11021811403D
libRbt.so/2013.1/901 2013/11/27
 40 42  0  0  0  0  0  0  0  0999 V2000
   19.3174   23.0956    2.2926 C   0  0  0  0  0  0  0  0  0  0  0  0
   18.8807   23.3300    3.4693 N   0  0  0  0  0  0  0  0  0  0  0  0
   16.0667   29.7696   -4.2000 C   0  0  0  0  0  0  0  0  0  0  0  0
   16.6138   31.0530   -4.4528 O   0  0  0  0  0  0  0  0  0  0  0  0
   18.8736   28.5915    2.5748 C   0  0  0  0  0  0  0  0  0  0  0  0
   19.8719   29.4002    2.6112 N   0  0  0  0  0  0  0  0  0  0  0  0
   14.4762   27.7728   -2.1842 C   0  0  0  0  0  0  0  0  0  0  0  0
   15.9533   32.8868   -1.5332 C   0  0  0  0  0  0  0  0  0  0  0  0
   20.4624   24.8517    1.2104 C   0  0  2  0  0  0  0  0  0  0  0  0
   20.5161   23.5757    2.0228 N   0  0  0  0  0  0  0  0  0  0  0  0
   17.7305   28.5911   -1.1377 C   0  0  2  0  0  0  0  0  0  0  0  0
   18.5915   31.6939   -2.4594 C   0  0  1  0  0  0  0  0  0  0  0  0
   17.7608   30.8665   -1.6660 O   0  0  0  0  0  0  0  0  0  0  0  0
   19.4609   25.8361    1.8043 C   0  0  1  0  0  0  0  0  0  0  0  0
   19.9294   26.0572    3.2056 O   0  0  0  0  0  0  0  0  0  0  0  0
   17.5995   29.6429   -2.2242 C   0  0  2  0  0  0  0  0  0  0  0  0
   18.3559   33.1328   -2.0687 C   0  0  1  0  0  0  0  0  0  0  0  0
   17.0010   33.4823   -2.3129 N   0  0  0  0  0  0  0  0  0  0  0  0
   19.3483   27.1299    1.0006 C   0  0  2  0  0  0  0  0  0  0  0  0
   18.4126   28.1035    1.5244 N   0  0  0  0  0  0  0  0  0  0  0  0
   16.1970   29.4370   -2.7319 C   0  0  1  0  0  0  0  0  0  0  0  0
   15.2793   30.2250   -1.9664 O   0  0  0  0  0  0  0  0  0  0  0  0
   18.6638   33.2717   -0.5873 C   0  0  2  0  0  0  0  0  0  0  0  0
   18.4494   34.6010   -0.1658 O   0  0  0  0  0  0  0  0  0  0  0  0
   18.9312   26.7717   -0.4022 C   0  0  1  0  0  0  0  0  0  0  0  0
   19.0324   28.0152   -1.1504 O   0  0  0  0  0  0  0  0  0  0  0  0
   15.9325   27.9952   -2.5004 C   0  0  1  0  0  0  0  0  0  0  0  0
   16.7418   27.5909   -1.3936 O   0  0  0  0  0  0  0  0  0  0  0  0
   20.1302   32.8827   -0.3986 C   0  0  1  0  0  0  0  0  0  0  0  0
   20.4951   32.9814    0.9692 O   0  0  0  0  0  0  0  0  0  0  0  0
   19.9696   25.8086   -1.0383 C   0  0  2  0  0  0  0  0  0  0  0  0
   19.5657   25.4957   -2.3623 O   0  0  0  0  0  0  0  0  0  0  0  0
   20.3298   31.4490   -0.8910 C   0  0  1  0  0  0  0  0  0  0  0  0
   19.9617   31.3514   -2.2659 O   0  0  0  0  0  0  0  0  0  0  0  0
   20.0439   24.5139   -0.2062 C   0  0  1  0  0  0  0  0  0  0  0  0
   20.9986   23.6135   -0.7808 O   0  0  0  0  0  0  0  0  0  0  0  0
   21.8026   31.0706   -0.7325 C   0  0  0  0  0  0  0  0  0  0  0  0
   21.9015   29.6770   -0.4865 O   0  0  0  0  0  0  0  0  0  0  0  0
   18.6276   22.4557    1.4149 N   0  0  0  0  0  0  0  0  0  0  0  0
   18.3522   28.2168    3.6399 N   0  0  0  0  0  0  0  0  0  0  0  0
  1  2  1  0  0  0  0
  1 39  1  0  0  0  0
  3  4  1  0  0  0  0
  5  6  1  0  0  0  0
  5 40  1  0  0  0  0
  9 10  1  1  0  0  0
  9 14  1  0  0  0  0
  9 35  1  0  0  0  0
 10  1  1  0  0  0  0
 11 16  1  0  0  0  0
 11 28  1  0  0  0  0
 11 26  1  6  0  0  0
 12 17  1  0  0  0  0
 12 34  1  0  0  0  0
 12 13  1  1  0  0  0
 14 15  1  1  0  0  0
 14 19  1  0  0  0  0
 16 13  1  1  0  0  0
 16 21  1  0  0  0  0
 17 18  1  1  0  0  0
 17 23  1  0  0  0  0
 18  8  1  0  0  0  0
 19 20  1  1  0  0  0
 19 25  1  0  0  0  0
 20  5  1  0  0  0  0
 21  3  1  6  0  0  0
 21 22  1  0  0  0  0
 21 27  1  0  0  0  0
 23 24  1  6  0  0  0
 23 29  1  0  0  0  0
 25 26  1  6  0  0  0
 25 31  1  0  0  0  0
 27  7  1  1  0  0  0
 27 28  1  0  0  0  0
 29 30  1  1  0  0  0
 29 33  1  0  0  0  0
 31 32  1  6  0  0  0
 31 35  1  0  0  0  0
 33 34  1  0  0  0  0
 33 37  1  6  0  0  0
 35 36  1  6  0  0  0
 37 38  1  0  0  0  0
M  END
>  <CHROM.1>
47.76782704,-101.19291021,-162.32816581,160.67514283,136.38162472,67.56888606
70.89704147,71.25288189,-50.73121646,-94.79022505,149.25869675,18.66266982
28.69306333,-0.44044126,1.26860864,0.82485044,2.96890819

>  <Name>
1ntb_lig

>  <RI>
0

>  <Rbt.Current_Directory>
/home/itssahil/PROJECTS/Mol_Feturizer/New_Systems/rnas/1ntb

>  <Rbt.Executable>
rbdock ($Id: //depot/dev/client3/rdock/2013.1/src/exe/rbdock.cxx#4 $)

>  <Rbt.Library>
libRbt.so (2013.1, Build901 2013/11/27)

>  <Rbt.Parameter_File>
/export/apps/rDock/src/rDock_2013.1_src/data/scripts/dock_solv.prm

>  <Rbt.Receptor>
prm/blind_docking_40.prm

>  <SCORE>
3.97063

>  <SCORE.INTER>
2.19902

>  <SCORE.INTER.CONST>
1

>  <SCORE.INTER.POLAR>
0

>  <SCORE.INTER.ROT>
11

>  <SCORE.INTER.SOLV>
16.8812

>  <SCORE.INTER.VDW>
-15.0944

>  <SCORE.INTER.norm>
0.0549755

>  <SCORE.INTRA>
-0.318802

>  <SCORE.INTRA.DIHEDRAL>
2.74142

>  <SCORE.INTRA.DIHEDRAL.0>
15.4453

>  <SCORE.INTRA.POLAR>
0

>  <SCORE.INTRA.POLAR.0>
0

>  <SCORE.INTRA.REPUL>
-0.823958

>  <SCORE.INTRA.REPUL.0>
0.823958

>  <SCORE.INTRA.SOLV>
2.59326

>  <SCORE.INTRA.SOLV.lig_0>
-99.3069

>  <SCORE.INTRA.VDW>
1.13365

>  <SCORE.INTRA.VDW.0>
0.946495

>  <SCORE.INTRA.norm>
-0.00797005

>  <SCORE.RESTR>
2.09041

>  <SCORE.RESTR.CAVITY>
2.09041

>  <SCORE.RESTR.norm>
0.0522602

>  <SCORE.SYSTEM>
0

>  <SCORE.SYSTEM.CONST>
0

>  <SCORE.SYSTEM.DIHEDRAL>
0

>  <SCORE.SYSTEM.SOLV>
0

>  <SCORE.SYSTEM.norm>
0

>  <SCORE.heavy>
40

>  <SCORE.norm>
0.0992657

>  <RMSD>
17.358

$$$$
1ntb_lig
 OpenBabel11021811403D
libRbt.so/2013.1/901 2013/11/27
 40 42  0  0  0  0  0  0  0  0999 V2000
   18.7837   23.1783   -1.1135 C   0  0  0  0  0  0  0  0  0  0  0  0
   18.0867   23.6033   -2.0952 N   0  0  0  0  0  0  0  0  0  0  0  0
   15.8150   29.2589   -3.5167 C   0  0  0  0  0  0  0  0  0  0  0  0
   16.4241   30.1384   -4.4471 O   0  0  0  0  0  0  0  0  0  0  0  0
   18.6520   27.4080    2.9281 C   0  0  0  0  0  0  0  0  0  0  0  0
   19.7259   28.1028    3.0540 N   0  0  0  0  0  0  0  0  0  0  0  0
   14.1961   28.9179   -0.7162 C   0  0  0  0  0  0  0  0  0  0  0  0
   17.3603   34.2532   -2.4540 C   0  0  0  0  0  0  0  0  0  0  0  0
   20.0334   25.1292   -0.6681 C   0  0  2  0  0  0  0  0  0  0  0  0
   20.0090   23.6603   -1.0327 N   0  0  0  0  0  0  0  0  0  0  0  0
   17.5897   29.7492   -0.3316 C   0  0  2  0  0  0  0  0  0  0  0  0
   18.9049   31.4542   -2.9194 C   0  0  1  0  0  0  0  0  0  0  0  0
   17.8084   31.3363   -2.0317 O   0  0  0  0  0  0  0  0  0  0  0  0
   19.0192   25.4372    0.4280 C   0  0  1  0  0  0  0  0  0  0  0  0
   19.4055   24.5484    1.5650 O   0  0  0  0  0  0  0  0  0  0  0  0
   17.4798   30.0398   -1.8173 C   0  0  2  0  0  0  0  0  0  0  0  0
   19.3702   32.8902   -2.9255 C   0  0  1  0  0  0  0  0  0  0  0  0
   18.3231   33.7336   -3.3832 N   0  0  0  0  0  0  0  0  0  0  0  0
   18.9847   26.9156    0.8100 C   0  0  2  0  0  0  0  0  0  0  0  0
   18.0403   27.2630    1.8516 N   0  0  0  0  0  0  0  0  0  0  0  0
   16.0276   29.7718   -2.1115 C   0  0  1  0  0  0  0  0  0  0  0  0
   15.2586   30.9606   -1.9010 O   0  0  0  0  0  0  0  0  0  0  0  0
   19.7480   33.2655   -1.5024 C   0  0  2  0  0  0  0  0  0  0  0  0
   20.1825   34.6068   -1.4494 O   0  0  0  0  0  0  0  0  0  0  0  0
   18.6470   27.7081   -0.4262 C   0  0  1  0  0  0  0  0  0  0  0  0
   18.8214   29.0988   -0.0367 O   0  0  0  0  0  0  0  0  0  0  0  0
   15.6376   28.7411   -1.1175 C   0  0  1  0  0  0  0  0  0  0  0  0
   16.4874   28.9095    0.0194 O   0  0  0  0  0  0  0  0  0  0  0  0
   20.8744   32.3232   -1.0772 C   0  0  1  0  0  0  0  0  0  0  0  0
   21.2810   32.6084    0.2522 O   0  0  0  0  0  0  0  0  0  0  0  0
   19.7010   27.4429   -1.5348 C   0  0  2  0  0  0  0  0  0  0  0  0
   19.3725   28.2088   -2.6835 O   0  0  0  0  0  0  0  0  0  0  0  0
   20.3767   30.8807   -1.1739 C   0  0  1  0  0  0  0  0  0  0  0  0
   19.9675   30.5962   -2.5107 O   0  0  0  0  0  0  0  0  0  0  0  0
   19.6955   25.9457   -1.8989 C   0  0  1  0  0  0  0  0  0  0  0  0
   20.6636   25.6843   -2.9219 O   0  0  0  0  0  0  0  0  0  0  0  0
   21.5128   29.9366   -0.7797 C   0  0  0  0  0  0  0  0  0  0  0  0
   21.7288   30.0267    0.6194 O   0  0  0  0  0  0  0  0  0  0  0  0
   18.3346   22.3169   -0.2697 N   0  0  0  0  0  0  0  0  0  0  0  0
   18.2052   26.7911    3.9113 N   0  0  0  0  0  0  0  0  0  0  0  0
  1  2  1  0  0  0  0
  1 39  1  0  0  0  0
  3  4  1  0  0  0  0
  5  6  1  0  0  0  0
  5 40  1  0  0  0  0
  9 10  1  6  0  0  0
  9 14  1  0  0  0  0
  9 35  1  0  0  0  0
 10  1  1  0  0  0  0
 11 16  1  0  0  0  0
 11 28  1  0  0  0  0
 11 26  1  6  0  0  0
 12 17  1  0  0  0  0
 12 34  1  0  0  0  0
 12 13  1  1  0  0  0
 14 15  1  1  0  0  0
 14 19  1  0  0  0  0
 16 13  1  1  0  0  0
 16 21  1  0  0  0  0
 17 18  1  1  0  0  0
 17 23  1  0  0  0  0
 18  8  1  0  0  0  0
 19 20  1  1  0  0  0
 19 25  1  0  0  0  0
 20  5  1  0  0  0  0
 21  3  1  6  0  0  0
 21 22  1  0  0  0  0
 21 27  1  0  0  0  0
 23 24  1  6  0  0  0
 23 29  1  0  0  0  0
 25 26  1  1  0  0  0
 25 31  1  0  0  0  0
 27  7  1  1  0  0  0
 27 28  1  0  0  0  0
 29 30  1  1  0  0  0
 29 33  1  0  0  0  0
 31 32  1  6  0  0  0
 31 35  1  0  0  0  0
 33 34  1  0  0  0  0
 33 37  1  6  0  0  0
 35 36  1  6  0  0  0
 37 38  1  0  0  0  0
M  END
>  <CHROM.1>
42.27370282,69.22540159,-78.08436200,-170.20430152,121.16150794,87.54958022
101.96535412,47.64998786,-52.95099510,-125.02860425,71.85147083,18.66579018
28.87043839,-0.94967894,1.53086115,0.64479996,2.89558144

>  <Name>
1ntb_lig

>  <RI>
0

>  <Rbt.Current_Directory>
/home/itssahil/PROJECTS/Mol_Feturizer/New_Systems/rnas/1ntb

>  <Rbt.Executable>
rbdock ($Id: //depot/dev/client3/rdock/2013.1/src/exe/rbdock.cxx#4 $)

>  <Rbt.Library>
libRbt.so (2013.1, Build901 2013/11/27)

>  <Rbt.Parameter_File>
/export/apps/rDock/src/rDock_2013.1_src/data/scripts/dock_solv.prm

>  <Rbt.Receptor>
prm/blind_docking_80.prm

>  <SCORE>
-10.2094

>  <SCORE.INTER>
-13.9671

>  <SCORE.INTER.CONST>
1

>  <SCORE.INTER.POLAR>
-1.48907

>  <SCORE.INTER.ROT>
11

>  <SCORE.INTER.SOLV>
17.9131

>  <SCORE.INTER.VDW>
-21.2522

>  <SCORE.INTER.norm>
-0.349177

>  <SCORE.INTRA>
3.04891

>  <SCORE.INTRA.DIHEDRAL>
4.64565

>  <SCORE.INTRA.DIHEDRAL.0>
15.4453

>  <SCORE.INTRA.POLAR>
0

>  <SCORE.INTRA.POLAR.0>
0

>  <SCORE.INTRA.REPUL>
-0.657302

>  <SCORE.INTRA.REPUL.0>
0.823958

>  <SCORE.INTRA.SOLV>
2.55391

>  <SCORE.INTRA.SOLV.lig_0>
-99.3069

>  <SCORE.INTRA.VDW>
2.73564

>  <SCORE.INTRA.VDW.0>
0.946495

>  <SCORE.INTRA.norm>
0.0762227

>  <SCORE.RESTR>
0.708792

>  <SCORE.RESTR.CAVITY>
0.708792

>  <SCORE.RESTR.norm>
0.0177198

>  <SCORE.SYSTEM>
0

>  <SCORE.SYSTEM.CONST>
0

>  <SCORE.SYSTEM.DIHEDRAL>
0

>  <SCORE.SYSTEM.SOLV>
0

>  <SCORE.SYSTEM.norm>
0

>  <SCORE.heavy>
40

>  <SCORE.norm>
-0.255235

>  <RMSD>
17.395

$$$$
1ntb_lig
 OpenBabel11021811403D
libRbt.so/2013.1/901 2013/11/27
 40 42  0  0  0  0  0  0  0  0999 V2000
   20.0095   24.5824    2.7715 C   0  0  0  0  0  0  0  0  0  0  0  0
   20.0446   23.4591    3.3774 N   0  0  0  0  0  0  0  0  0  0  0  0
   15.4276   29.9117   -3.7623 C   0  0  0  0  0  0  0  0  0  0  0  0
   14.1398   30.3239   -3.3355 O   0  0  0  0  0  0  0  0  0  0  0  0
   18.3627   25.0832   -3.4737 C   0  0  0  0  0  0  0  0  0  0  0  0
   17.6169   25.6348   -4.3634 N   0  0  0  0  0  0  0  0  0  0  0  0
   15.0060   27.1243   -2.1397 C   0  0  0  0  0  0  0  0  0  0  0  0
   18.6501   33.3905   -4.8390 C   0  0  0  0  0  0  0  0  0  0  0  0
   20.0439   25.5973    0.6421 C   0  0  2  0  0  0  0  0  0  0  0  0
   20.6687   24.6359    1.6301 N   0  0  0  0  0  0  0  0  0  0  0  0
   18.2793   28.3975   -1.9989 C   0  0  2  0  0  0  0  0  0  0  0  0
   19.1038   31.2271   -1.8700 C   0  0  1  0  0  0  0  0  0  0  0  0
   17.8137   30.6679   -1.7059 O   0  0  0  0  0  0  0  0  0  0  0  0
   20.0856   25.0309   -0.7729 C   0  0  1  0  0  0  0  0  0  0  0  0
   19.3556   23.7305   -0.6843 O   0  0  0  0  0  0  0  0  0  0  0  0
   17.6066   29.6371   -2.5600 C   0  0  2  0  0  0  0  0  0  0  0  0
   18.9648   32.5811   -2.5226 C   0  0  1  0  0  0  0  0  0  0  0  0
   18.3655   32.4393   -3.8025 N   0  0  0  0  0  0  0  0  0  0  0  0
   19.4928   25.9796   -1.8127 C   0  0  2  0  0  0  0  0  0  0  0  0
   19.5033   25.4881   -3.1750 N   0  0  0  0  0  0  0  0  0  0  0  0
   16.1554   29.2404   -2.6211 C   0  0  1  0  0  0  0  0  0  0  0  0
   15.5118   29.5476   -1.3798 O   0  0  0  0  0  0  0  0  0  0  0  0
   18.0816   33.4404   -1.6337 C   0  0  2  0  0  0  0  0  0  0  0  0
   17.9100   34.7192   -2.2045 O   0  0  0  0  0  0  0  0  0  0  0  0
   20.2703   27.2692   -1.7631 C   0  0  1  0  0  0  0  0  0  0  0  0
   19.5374   28.1800   -2.6289 O   0  0  0  0  0  0  0  0  0  0  0  0
   16.1865   27.7698   -2.8180 C   0  0  1  0  0  0  0  0  0  0  0  0
   17.4044   27.2933   -2.2410 O   0  0  0  0  0  0  0  0  0  0  0  0
   18.7845   33.5508   -0.2805 C   0  0  1  0  0  0  0  0  0  0  0  0
   18.0137   34.3386    0.6133 O   0  0  0  0  0  0  0  0  0  0  0  0
   20.1942   27.8840   -0.3396 C   0  0  2  0  0  0  0  0  0  0  0  0
   20.9200   29.1034   -0.3186 O   0  0  0  0  0  0  0  0  0  0  0  0
   18.9779   32.1468    0.2933 C   0  0  1  0  0  0  0  0  0  0  0  0
   19.7522   31.3560   -0.6069 O   0  0  0  0  0  0  0  0  0  0  0  0
   20.8119   26.9030    0.6755 C   0  0  1  0  0  0  0  0  0  0  0  0
   20.7495   27.4562    1.9954 O   0  0  0  0  0  0  0  0  0  0  0  0
   19.7096   32.2544    1.6315 C   0  0  0  0  0  0  0  0  0  0  0  0
   21.0683   32.5857    1.3938 O   0  0  0  0  0  0  0  0  0  0  0  0
   19.3945   25.6061    3.2505 N   0  0  0  0  0  0  0  0  0  0  0  0
   17.9239   24.1197   -2.8213 N   0  0  0  0  0  0  0  0  0  0  0  0
  1  2  1  0  0  0  0
  1 39  1  0  0  0  0
  3  4  1  0  0  0  0
  5  6  1  0  0  0  0
  5 40  1  0  0  0  0
  9 10  1  1  0  0  0
  9 14  1  0  0  0  0
  9 35  1  0  0  0  0
 10  1  1  0  0  0  0
 11 16  1  0  0  0  0
 11 28  1  0  0  0  0
 11 26  1  6  0  0  0
 12 17  1  0  0  0  0
 12 34  1  0  0  0  0
 12 13  1  1  0  0  0
 14 15  1  1  0  0  0
 14 19  1  0  0  0  0
 16 13  1  1  0  0  0
 16 21  1  0  0  0  0
 17 18  1  6  0  0  0
 17 23  1  0  0  0  0
 18  8  1  0  0  0  0
 19 20  1  6  0  0  0
 19 25  1  0  0  0  0
 20  5  1  0  0  0  0
 21  3  1  6  0  0  0
 21 22  1  0  0  0  0
 21 27  1  0  0  0  0
 23 24  1  6  0  0  0
 23 29  1  0  0  0  0
 25 26  1  6  0  0  0
 25 31  1  0  0  0  0
 27  7  1  1  0  0  0
 27 28  1  0  0  0  0
 29 30  1  1  0  0  0
 29 33  1  0  0  0  0
 31 32  1  6  0  0  0
 31 35  1  0  0  0  0
 33 34  1  0  0  0  0
 33 37  1  1  0  0  0
 35 36  1  1  0  0  0
 37 38  1  0  0  0  0
M  END
>  <CHROM.1>
-140.37357890,149.03342387,162.35939491,108.40617920,79.79878653,-151.95145468
101.90169812,113.91601042,-139.10411843,65.72049313,-72.90549908,18.63197882
28.80139454,-1.15041448,-1.25086731,-0.94442636,0.01698926

>  <Name>
1ntb_lig

>  <RI>
0

>  <Rbt.Current_Directory>
/home/itssahil/PROJECTS/Mol_Feturizer/New_Systems/rnas/1ntb

>  <Rbt.Executable>
rbdock ($Id: //depot/dev/client3/rdock/2013.1/src/exe/rbdock.cxx#4 $)

>  <Rbt.Library>
libRbt.so (2013.1, Build901 2013/11/27)

>  <Rbt.Parameter_File>
/export/apps/rDock/src/rDock_2013.1_src/data/scripts/dock_solv.prm

>  <Rbt.Receptor>
prm/blind_docking_60.prm

>  <SCORE>
-2.38166

>  <SCORE.INTER>
-6.34329

>  <SCORE.INTER.CONST>
1

>  <SCORE.INTER.POLAR>
-0.869531

>  <SCORE.INTER.ROT>
11

>  <SCORE.INTER.SOLV>
13.43

>  <SCORE.INTER.VDW>
-16.7404

>  <SCORE.INTER.norm>
-0.158582

>  <SCORE.INTRA>
2.34748

>  <SCORE.INTRA.DIHEDRAL>
2.67051

>  <SCORE.INTRA.DIHEDRAL.0>
15.4453

>  <SCORE.INTRA.POLAR>
0

>  <SCORE.INTRA.POLAR.0>
0

>  <SCORE.INTRA.REPUL>
-0.786907

>  <SCORE.INTRA.REPUL.0>
0.823958

>  <SCORE.INTRA.SOLV>
3.55188

>  <SCORE.INTRA.SOLV.lig_0>
-99.3069

>  <SCORE.INTRA.VDW>
3.17082

>  <SCORE.INTRA.VDW.0>
0.946495

>  <SCORE.INTRA.norm>
0.0586869

>  <SCORE.RESTR>
1.61415

>  <SCORE.RESTR.CAVITY>
1.61415

>  <SCORE.RESTR.norm>
0.0403538

>  <SCORE.SYSTEM>
0

>  <SCORE.SYSTEM.CONST>
0

>  <SCORE.SYSTEM.DIHEDRAL>
0

>  <SCORE.SYSTEM.SOLV>
0

>  <SCORE.SYSTEM.norm>
0

>  <SCORE.heavy>
40

>  <SCORE.norm>
-0.0595416

>  <RMSD>
17.416

$$$$
1ntb_lig
 OpenBabel11021811403D
libRbt.so/2013.1/901 2013/11/27
 40 42  0  0  0  0  0  0  0  0999 V2000
   10.9955   31.3853   -2.6975 C   0  0  0  0  0  0  0  0  0  0  0  0
   11.1433   31.6990   -3.9264 N   0  0  0  0  0  0  0  0  0  0  0  0
   21.9610   31.3513   -1.3622 C   0  0  0  0  0  0  0  0  0  0  0  0
   22.9349   31.8153   -0.4421 O   0  0  0  0  0  0  0  0  0  0  0  0
   16.2330   27.9828   -1.8496 C   0  0  0  0  0  0  0  0  0  0  0  0
   15.3910   27.0117   -1.8481 N   0  0  0  0  0  0  0  0  0  0  0  0
   20.3676   33.1842    0.8015 C   0  0  0  0  0  0  0  0  0  0  0  0
   22.8931   28.0146    0.4441 C   0  0  0  0  0  0  0  0  0  0  0  0
   13.2806   30.8147   -2.5622 C   0  0  2  0  0  0  0  0  0  0  0  0
   11.8405   30.4853   -2.2328 N   0  0  0  0  0  0  0  0  0  0  0  0
   18.2989   31.0939   -1.1237 C   0  0  2  0  0  0  0  0  0  0  0  0
   20.6057   28.4085   -1.7944 C   0  0  1  0  0  0  0  0  0  0  0  0
   19.5948   29.1503   -1.1372 O   0  0  0  0  0  0  0  0  0  0  0  0
   14.1456   29.5591   -2.5482 C   0  0  1  0  0  0  0  0  0  0  0  0
   13.5124   28.6492   -3.5497 O   0  0  0  0  0  0  0  0  0  0  0  0
   19.6261   30.4568   -1.4932 C   0  0  2  0  0  0  0  0  0  0  0  0
   20.9866   27.2344   -0.9256 C   0  0  1  0  0  0  0  0  0  0  0  0
   21.4987   27.6995    0.3148 N   0  0  0  0  0  0  0  0  0  0  0  0
   15.6161   29.8448   -2.8457 C   0  0  2  0  0  0  0  0  0  0  0  0
   16.4828   28.6844   -2.8494 N   0  0  0  0  0  0  0  0  0  0  0  0
   20.6198   31.2387   -0.6757 C   0  0  1  0  0  0  0  0  0  0  0  0
   20.7766   30.6343    0.6124 O   0  0  0  0  0  0  0  0  0  0  0  0
   19.7366   26.4042   -0.6869 C   0  0  2  0  0  0  0  0  0  0  0  0
   20.0354   25.2944    0.1315 O   0  0  0  0  0  0  0  0  0  0  0  0
   16.1206   30.8158   -1.8099 C   0  0  1  0  0  0  0  0  0  0  0  0
   17.4517   31.1874   -2.2642 O   0  0  0  0  0  0  0  0  0  0  0  0
   19.9978   32.5780   -0.5275 C   0  0  1  0  0  0  0  0  0  0  0  0
   18.5822   32.3960   -0.6066 O   0  0  0  0  0  0  0  0  0  0  0  0
   19.2427   25.9385   -2.0568 C   0  0  1  0  0  0  0  0  0  0  0  0
   18.0665   25.1568   -1.9180 O   0  0  0  0  0  0  0  0  0  0  0  0
   15.2803   32.1207   -1.8475 C   0  0  2  0  0  0  0  0  0  0  0  0
   15.7805   33.0257   -0.8754 O   0  0  0  0  0  0  0  0  0  0  0  0
   18.9562   27.1651   -2.9235 C   0  0  1  0  0  0  0  0  0  0  0  0
   20.1395   27.9502   -3.0612 O   0  0  0  0  0  0  0  0  0  0  0  0
   13.8087   31.7912   -1.5310 C   0  0  1  0  0  0  0  0  0  0  0  0
   13.0191   32.9862   -1.5615 O   0  0  0  0  0  0  0  0  0  0  0  0
   18.4932   26.6996   -4.3042 C   0  0  0  0  0  0  0  0  0  0  0  0
   17.1772   26.1797   -4.2031 O   0  0  0  0  0  0  0  0  0  0  0  0
   10.0686   31.8916   -1.9625 N   0  0  0  0  0  0  0  0  0  0  0  0
   16.8066   28.2952   -0.7913 N   0  0  0  0  0  0  0  0  0  0  0  0
  1  2  1  0  0  0  0
  1 39  1  0  0  0  0
  3  4  1  0  0  0  0
  5  6  1  0  0  0  0
  5 40  1  0  0  0  0
  9 10  1  1  0  0  0
  9 14  1  0  0  0  0
  9 35  1  0  0  0  0
 10  1  1  0  0  0  0
 11 16  1  0  0  0  0
 11 28  1  0  0  0  0
 11 26  1  6  0  0  0
 12 17  1  0  0  0  0
 12 34  1  0  0  0  0
 12 13  1  1  0  0  0
 14 15  1  6  0  0  0
 14 19  1  0  0  0  0
 16 13  1  1  0  0  0
 16 21  1  0  0  0  0
 17 18  1  1  0  0  0
 17 23  1  0  0  0  0
 18  8  1  0  0  0  0
 19 20  1  1  0  0  0
 19 25  1  0  0  0  0
 20  5  1  0  0  0  0
 21  3  1  6  0  0  0
 21 22  1  0  0  0  0
 21 27  1  0  0  0  0
 23 24  1  1  0  0  0
 23 29  1  0  0  0  0
 25 26  1  6  0  0  0
 25 31  1  0  0  0  0
 27  7  1  1  0  0  0
 27 28  1  0  0  0  0
 29 30  1  1  0  0  0
 29 33  1  0  0  0  0
 31 32  1  1  0  0  0
 31 35  1  0  0  0  0
 33 34  1  0  0  0  0
 33 37  1  6  0  0  0
 35 36  1  6  0  0  0
 37 38  1  0  0  0  0
M  END
>  <CHROM.1>
-156.55818595,49.61449128,138.28242552,152.01248585,162.35406861,-86.93053824
-45.85393740,92.19601023,-166.64206221,-133.26370278,72.60493019,17.48132875
29.60187505,-1.64922479,2.92022798,-0.26493877,0.25808911

>  <Name>
1ntb_lig

>  <RI>
0

>  <Rbt.Current_Directory>
/home/itssahil/PROJECTS/Mol_Feturizer/New_Systems/rnas/1ntb

>  <Rbt.Executable>
rbdock ($Id: //depot/dev/client3/rdock/2013.1/src/exe/rbdock.cxx#4 $)

>  <Rbt.Library>
libRbt.so (2013.1, Build901 2013/11/27)

>  <Rbt.Parameter_File>
/export/apps/rDock/src/rDock_2013.1_src/data/scripts/dock_solv.prm

>  <Rbt.Receptor>
prm/blind_docking_100.prm

>  <SCORE>
9.82389

>  <SCORE.INTER>
10.4799

>  <SCORE.INTER.CONST>
1

>  <SCORE.INTER.POLAR>
-2.90764

>  <SCORE.INTER.ROT>
11

>  <SCORE.INTER.SOLV>
26.8401

>  <SCORE.INTER.VDW>
-3.20131

>  <SCORE.INTER.norm>
0.261997

>  <SCORE.INTRA>
-1.7423

>  <SCORE.INTRA.DIHEDRAL>
5.06951

>  <SCORE.INTRA.DIHEDRAL.0>
15.4453

>  <SCORE.INTRA.POLAR>
0

>  <SCORE.INTRA.POLAR.0>
0

>  <SCORE.INTRA.REPUL>
-0.823958

>  <SCORE.INTRA.REPUL.0>
0.823958

>  <SCORE.INTRA.SOLV>
9.97262

>  <SCORE.INTRA.SOLV.lig_0>
-99.3069

>  <SCORE.INTRA.VDW>
-5.14358

>  <SCORE.INTRA.VDW.0>
0.946495

>  <SCORE.INTRA.norm>
-0.0435575

>  <SCORE.RESTR>
1.08631

>  <SCORE.RESTR.CAVITY>
1.08631

>  <SCORE.RESTR.norm>
0.0271577

>  <SCORE.SYSTEM>
0

>  <SCORE.SYSTEM.CONST>
0

>  <SCORE.SYSTEM.DIHEDRAL>
0

>  <SCORE.SYSTEM.SOLV>
0

>  <SCORE.SYSTEM.norm>
0

>  <SCORE.heavy>
40

>  <SCORE.norm>
0.245597

>  <RMSD>
17.464

$$$$
1ntb_lig
 OpenBabel11021811403D
libRbt.so/2013.1/901 2013/11/27
 40 42  0  0  0  0  0  0  0  0999 V2000
   11.0747   31.5644   -2.8849 C   0  0  0  0  0  0  0  0  0  0  0  0
   10.9654   31.4690   -4.1535 N   0  0  0  0  0  0  0  0  0  0  0  0
   21.8372   30.8116   -0.9210 C   0  0  0  0  0  0  0  0  0  0  0  0
   22.7105   31.8039   -0.4081 O   0  0  0  0  0  0  0  0  0  0  0  0
   16.1799   27.4810   -3.4714 C   0  0  0  0  0  0  0  0  0  0  0  0
   15.1608   27.0717   -4.1392 N   0  0  0  0  0  0  0  0  0  0  0  0
   20.2273   33.3918    0.2328 C   0  0  0  0  0  0  0  0  0  0  0  0
   20.4869   27.0995    3.5034 C   0  0  0  0  0  0  0  0  0  0  0  0
   13.2379   30.6698   -2.5909 C   0  0  2  0  0  0  0  0  0  0  0  0
   11.7548   30.5991   -2.2967 N   0  0  0  0  0  0  0  0  0  0  0  0
   18.1584   30.8099   -0.9540 C   0  0  2  0  0  0  0  0  0  0  0  0
   20.4906   28.1848   -0.0429 C   0  0  1  0  0  0  0  0  0  0  0  0
   19.3066   28.9577   -0.1125 O   0  0  0  0  0  0  0  0  0  0  0  0
   13.9084   29.3223   -2.3468 C   0  0  1  0  0  0  0  0  0  0  0  0
   13.1825   28.3686   -3.2386 O   0  0  0  0  0  0  0  0  0  0  0  0
   19.4591   30.0280   -0.9286 C   0  0  2  0  0  0  0  0  0  0  0  0
   20.3245   27.1414    1.0353 C   0  0  1  0  0  0  0  0  0  0  0  0
   20.1212   27.7742    2.2904 N   0  0  0  0  0  0  0  0  0  0  0  0
   15.4140   29.3508   -2.6014 C   0  0  2  0  0  0  0  0  0  0  0  0
   16.1008   28.0935   -2.3886 N   0  0  0  0  0  0  0  0  0  0  0  0
   20.4446   31.0221   -0.3739 C   0  0  1  0  0  0  0  0  0  0  0  0
   20.4621   30.9478    1.0556 O   0  0  0  0  0  0  0  0  0  0  0  0
   19.1128   26.2947    0.6840 C   0  0  2  0  0  0  0  0  0  0  0  0
   18.9054   25.3056    1.6686 O   0  0  0  0  0  0  0  0  0  0  0  0
   16.0206   30.3875   -1.6917 C   0  0  1  0  0  0  0  0  0  0  0  0
   17.4062   30.4958   -2.1213 O   0  0  0  0  0  0  0  0  0  0  0  0
   19.9128   32.3405   -0.7998 C   0  0  1  0  0  0  0  0  0  0  0  0
   18.4973   32.1985   -0.9395 O   0  0  0  0  0  0  0  0  0  0  0  0
   19.3997   25.6463   -0.6705 C   0  0  1  0  0  0  0  0  0  0  0  0
   18.3046   24.8387   -1.0731 O   0  0  0  0  0  0  0  0  0  0  0  0
   15.3824   31.7762   -1.9648 C   0  0  2  0  0  0  0  0  0  0  0  0
   15.9771   32.7393   -1.1087 O   0  0  0  0  0  0  0  0  0  0  0  0
   19.6464   26.7460   -1.7038 C   0  0  1  0  0  0  0  0  0  0  0  0
   20.7471   27.5574   -1.2970 O   0  0  0  0  0  0  0  0  0  0  0  0
   13.8687   31.7079   -1.6852 C   0  0  1  0  0  0  0  0  0  0  0  0
   13.2643   32.9830   -1.9326 O   0  0  0  0  0  0  0  0  0  0  0  0
   19.9652   26.0978   -3.0513 C   0  0  0  0  0  0  0  0  0  0  0  0
   19.9580   27.0946   -4.0607 O   0  0  0  0  0  0  0  0  0  0  0  0
   10.5372   32.5231   -2.2159 N   0  0  0  0  0  0  0  0  0  0  0  0
   17.3242   27.2174   -3.8811 N   0  0  0  0  0  0  0  0  0  0  0  0
  1  2  1  0  0  0  0
  1 39  1  0  0  0  0
  3  4  1  0  0  0  0
  5  6  1  0  0  0  0
  5 40  1  0  0  0  0
  9 10  1  1  0  0  0
  9 14  1  0  0  0  0
  9 35  1  0  0  0  0
 10  1  1  0  0  0  0
 11 16  1  0  0  0  0
 11 28  1  0  0  0  0
 11 26  1  6  0  0  0
 12 17  1  0  0  0  0
 12 34  1  0  0  0  0
 12 13  1  6  0  0  0
 14 15  1  6  0  0  0
 14 19  1  0  0  0  0
 16 13  1  1  0  0  0
 16 21  1  0  0  0  0
 17 18  1  1  0  0  0
 17 23  1  0  0  0  0
 18  8  1  0  0  0  0
 19 20  1  1  0  0  0
 19 25  1  0  0  0  0
 20  5  1  0  0  0  0
 21  3  1  6  0  0  0
 21 22  1  0  0  0  0
 21 27  1  0  0  0  0
 23 24  1  1  0  0  0
 23 29  1  0  0  0  0
 25 26  1  6  0  0  0
 25 31  1  0  0  0  0
 27  7  1  1  0  0  0
 27 28  1  0  0  0  0
 29 30  1  6  0  0  0
 29 33  1  0  0  0  0
 31 32  1  1  0  0  0
 31 35  1  0  0  0  0
 33 34  1  0  0  0  0
 33 37  1  6  0  0  0
 35 36  1  6  0  0  0
 37 38  1  0  0  0  0
M  END
>  <CHROM.1>
-159.44062166,70.93258079,138.67419031,171.39203779,-179.88863165,-153.80703105
93.88229210,-62.72668973,177.71199604,-148.09722711,169.62089464,17.42809720
29.39852666,-1.32048895,2.86098791,-0.39759356,0.16100599

>  <Name>
1ntb_lig

>  <RI>
0

>  <Rbt.Current_Directory>
/home/itssahil/PROJECTS/Mol_Feturizer/New_Systems/rnas/1ntb

>  <Rbt.Executable>
rbdock ($Id: //depot/dev/client3/rdock/2013.1/src/exe/rbdock.cxx#4 $)

>  <Rbt.Library>
libRbt.so (2013.1, Build901 2013/11/27)

>  <Rbt.Parameter_File>
/export/apps/rDock/src/rDock_2013.1_src/data/scripts/dock_solv.prm

>  <Rbt.Receptor>
prm/blind_docking_60.prm

>  <SCORE>
-0.738881

>  <SCORE.INTER>
6.74833

>  <SCORE.INTER.CONST>
1

>  <SCORE.INTER.POLAR>
-2.40546

>  <SCORE.INTER.ROT>
11

>  <SCORE.INTER.SOLV>
27.5607

>  <SCORE.INTER.VDW>
-7.60315

>  <SCORE.INTER.norm>
0.168708

>  <SCORE.INTRA>
-8.2094

>  <SCORE.INTRA.DIHEDRAL>
-1.9032

>  <SCORE.INTRA.DIHEDRAL.0>
15.4453

>  <SCORE.INTRA.POLAR>
0

>  <SCORE.INTRA.POLAR.0>
0

>  <SCORE.INTRA.REPUL>
-0.823958

>  <SCORE.INTRA.REPUL.0>
0.823958

>  <SCORE.INTRA.SOLV>
1.89315

>  <SCORE.INTRA.SOLV.lig_0>
-99.3069

>  <SCORE.INTRA.VDW>
-4.08458

>  <SCORE.INTRA.VDW.0>
0.946495

>  <SCORE.INTRA.norm>
-0.205235

>  <SCORE.RESTR>
0.722183

>  <SCORE.RESTR.CAVITY>
0.722183

>  <SCORE.RESTR.norm>
0.0180546

>  <SCORE.SYSTEM>
0

>  <SCORE.SYSTEM.CONST>
0

>  <SCORE.SYSTEM.DIHEDRAL>
0

>  <SCORE.SYSTEM.SOLV>
0

>  <SCORE.SYSTEM.norm>
0

>  <SCORE.heavy>
40

>  <SCORE.norm>
-0.018472

>  <RMSD>
17.477

$$$$
1ntb_lig
 OpenBabel11021811403D
libRbt.so/2013.1/901 2013/11/27
 40 42  0  0  0  0  0  0  0  0999 V2000
   21.1462   24.7696    5.1132 C   0  0  0  0  0  0  0  0  0  0  0  0
   21.5267   25.1011    6.2861 N   0  0  0  0  0  0  0  0  0  0  0  0
   17.5805   26.8313   -5.0526 C   0  0  0  0  0  0  0  0  0  0  0  0
   17.3509   25.9144   -6.1094 O   0  0  0  0  0  0  0  0  0  0  0  0
   20.7746   29.5064    0.8559 C   0  0  0  0  0  0  0  0  0  0  0  0
   21.7125   29.1654    0.0459 N   0  0  0  0  0  0  0  0  0  0  0  0
   18.0134   23.7584   -4.0782 C   0  0  0  0  0  0  0  0  0  0  0  0
   19.6407   30.2222   -2.0273 C   0  0  0  0  0  0  0  0  0  0  0  0
   20.2525   25.7256    3.1503 C   0  0  2  0  0  0  0  0  0  0  0  0
   20.1222   25.4482    4.6325 N   0  0  0  0  0  0  0  0  0  0  0  0
   18.3005   26.1424   -1.5112 C   0  0  2  0  0  0  0  0  0  0  0  0
   16.7610   28.5314   -1.0783 C   0  0  1  0  0  0  0  0  0  0  0  0
   16.5271   27.5543   -2.0757 O   0  0  0  0  0  0  0  0  0  0  0  0
   19.9214   27.1803    2.8353 C   0  0  1  0  0  0  0  0  0  0  0  0
   20.8769   27.9763    3.6632 O   0  0  0  0  0  0  0  0  0  0  0  0
   17.6876   27.0516   -2.5608 C   0  0  2  0  0  0  0  0  0  0  0  0
   17.2185   29.8051   -1.7468 C   0  0  1  0  0  0  0  0  0  0  0  0
   18.4318   29.5722   -2.4473 N   0  0  0  0  0  0  0  0  0  0  0  0
   20.0095   27.5026    1.3450 C   0  0  2  0  0  0  0  0  0  0  0  0
   19.7086   28.8742    0.9904 N   0  0  0  0  0  0  0  0  0  0  0  0
   17.4558   26.1236   -3.7236 C   0  0  1  0  0  0  0  0  0  0  0  0
   16.1663   25.5122   -3.6118 O   0  0  0  0  0  0  0  0  0  0  0  0
   16.1362   30.2363   -2.7221 C   0  0  2  0  0  0  0  0  0  0  0  0
   16.5188   31.4219   -3.3844 O   0  0  0  0  0  0  0  0  0  0  0  0
   19.0503   26.5982    0.6155 C   0  0  1  0  0  0  0  0  0  0  0  0
   19.3264   26.8219   -0.7951 O   0  0  0  0  0  0  0  0  0  0  0  0
   18.5127   25.0912   -3.5835 C   0  0  1  0  0  0  0  0  0  0  0  0
   18.8385   25.0078   -2.1942 O   0  0  0  0  0  0  0  0  0  0  0  0
   14.8659   30.4692   -1.9038 C   0  0  1  0  0  0  0  0  0  0  0  0
   13.8003   30.8714   -2.7502 O   0  0  0  0  0  0  0  0  0  0  0  0
   19.4072   25.1118    0.8867 C   0  0  2  0  0  0  0  0  0  0  0  0
   18.5017   24.2783    0.1800 O   0  0  0  0  0  0  0  0  0  0  0  0
   14.4985   29.1735   -1.1799 C   0  0  1  0  0  0  0  0  0  0  0  0
   15.5712   28.7703   -0.3302 O   0  0  0  0  0  0  0  0  0  0  0  0
   19.2947   24.8255    2.3966 C   0  0  1  0  0  0  0  0  0  0  0  0
   19.6210   23.4564    2.6637 O   0  0  0  0  0  0  0  0  0  0  0  0
   13.2467   29.4148   -0.3359 C   0  0  0  0  0  0  0  0  0  0  0  0
   12.2049   29.8897   -1.1735 O   0  0  0  0  0  0  0  0  0  0  0  0
   21.7047   23.8195    4.4491 N   0  0  0  0  0  0  0  0  0  0  0  0
   20.9371   30.4908    1.5984 N   0  0  0  0  0  0  0  0  0  0  0  0
  1  2  1  0  0  0  0
  1 39  1  0  0  0  0
  3  4  1  0  0  0  0
  5  6  1  0  0  0  0
  5 40  1  0  0  0  0
  9 10  1  1  0  0  0
  9 14  1  0  0  0  0
  9 35  1  0  0  0  0
 10  1  1  0  0  0  0
 11 16  1  0  0  0  0
 11 28  1  0  0  0  0
 11 26  1  6  0  0  0
 12 17  1  0  0  0  0
 12 34  1  0  0  0  0
 12 13  1  6  0  0  0
 14 15  1  1  0  0  0
 14 19  1  0  0  0  0
 16 13  1  1  0  0  0
 16 21  1  0  0  0  0
 17 18  1  6  0  0  0
 17 23  1  0  0  0  0
 18  8  1  0  0  0  0
 19 20  1  1  0  0  0
 19 25  1  0  0  0  0
 20  5  1  0  0  0  0
 21  3  1  6  0  0  0
 21 22  1  0  0  0  0
 21 27  1  0  0  0  0
 23 24  1  1  0  0  0
 23 29  1  0  0  0  0
 25 26  1  6  0  0  0
 25 31  1  0  0  0  0
 27  7  1  1  0  0  0
 27 28  1  0  0  0  0
 29 30  1  6  0  0  0
 29 33  1  0  0  0  0
 31 32  1  6  0  0  0
 31 35  1  0  0  0  0
 33 34  1  0  0  0  0
 33 37  1  1  0  0  0
 35 36  1  6  0  0  0
 37 38  1  0  0  0  0
M  END
>  <CHROM.1>
-133.82925952,142.46063134,130.86429824,75.36557808,72.96638052,-114.52660864
98.15832340,56.56746407,-179.88081012,-171.16396385,56.49398519,18.18429468
27.35072846,-0.41695067,0.24340433,-0.94579495,0.75570715

>  <Name>
1ntb_lig

>  <RI>
0

>  <Rbt.Current_Directory>
/home/itssahil/PROJECTS/Mol_Feturizer/New_Systems/rnas/1ntb

>  <Rbt.Executable>
rbdock ($Id: //depot/dev/client3/rdock/2013.1/src/exe/rbdock.cxx#4 $)

>  <Rbt.Library>
libRbt.so (2013.1, Build901 2013/11/27)

>  <Rbt.Parameter_File>
/export/apps/rDock/src/rDock_2013.1_src/data/scripts/dock_solv.prm

>  <Rbt.Receptor>
prm/blind_docking_80.prm

>  <SCORE>
-0.864015

>  <SCORE.INTER>
0.702006

>  <SCORE.INTER.CONST>
1

>  <SCORE.INTER.POLAR>
0

>  <SCORE.INTER.ROT>
11

>  <SCORE.INTER.SOLV>
19.453

>  <SCORE.INTER.VDW>
-16.9497

>  <SCORE.INTER.norm>
0.0175502

>  <SCORE.INTRA>
-5.08363

>  <SCORE.INTRA.DIHEDRAL>
-1.91973

>  <SCORE.INTRA.DIHEDRAL.0>
15.4453

>  <SCORE.INTRA.POLAR>
0

>  <SCORE.INTRA.POLAR.0>
0

>  <SCORE.INTRA.REPUL>
-0.823958

>  <SCORE.INTRA.REPUL.0>
0.823958

>  <SCORE.INTRA.SOLV>
1.07381

>  <SCORE.INTRA.SOLV.lig_0>
-99.3069

>  <SCORE.INTRA.VDW>
-0.54088

>  <SCORE.INTRA.VDW.0>
0.946495

>  <SCORE.INTRA.norm>
-0.127091

>  <SCORE.RESTR>
3.51761

>  <SCORE.RESTR.CAVITY>
3.51761

>  <SCORE.RESTR.norm>
0.0879401

>  <SCORE.SYSTEM>
0

>  <SCORE.SYSTEM.CONST>
0

>  <SCORE.SYSTEM.DIHEDRAL>
0

>  <SCORE.SYSTEM.SOLV>
0

>  <SCORE.SYSTEM.norm>
0

>  <SCORE.heavy>
40

>  <SCORE.norm>
-0.0216004

>  <RMSD>
17.488

$$$$
1ntb_lig
 OpenBabel11021811403D
libRbt.so/2013.1/901 2013/11/27
 40 42  0  0  0  0  0  0  0  0999 V2000
   19.7317   23.6596   -0.2065 C   0  0  0  0  0  0  0  0  0  0  0  0
   19.5563   23.4906   -1.4599 N   0  0  0  0  0  0  0  0  0  0  0  0
   16.0560   31.6562   -2.1911 C   0  0  0  0  0  0  0  0  0  0  0  0
   15.9861   33.0565   -1.9797 O   0  0  0  0  0  0  0  0  0  0  0  0
   19.0296   28.4142    3.0078 C   0  0  0  0  0  0  0  0  0  0  0  0
   19.8678   29.2983    3.4176 N   0  0  0  0  0  0  0  0  0  0  0  0
   18.7246   33.2966   -3.0673 C   0  0  0  0  0  0  0  0  0  0  0  0
   14.1072   28.7597   -0.4010 C   0  0  0  0  0  0  0  0  0  0  0  0
   20.9209   25.6626    0.1666 C   0  0  2  0  0  0  0  0  0  0  0  0
   20.9052   24.1493    0.1445 N   0  0  0  0  0  0  0  0  0  0  0  0
   19.3691   30.1822   -1.5705 C   0  0  2  0  0  0  0  0  0  0  0  0
   17.2881   27.7755   -1.8315 C   0  0  1  0  0  0  0  0  0  0  0  0
   17.7055   28.8965   -2.5886 O   0  0  0  0  0  0  0  0  0  0  0  0
   19.7716   26.2090    1.0066 C   0  0  1  0  0  0  0  0  0  0  0  0
   19.9672   25.6046    2.3587 O   0  0  0  0  0  0  0  0  0  0  0  0
   17.8822   29.9873   -1.8052 C   0  0  2  0  0  0  0  0  0  0  0  0
   15.7815   27.6942   -1.8778 C   0  0  1  0  0  0  0  0  0  0  0  0
   15.2184   28.8648   -1.3034 N   0  0  0  0  0  0  0  0  0  0  0  0
   19.7268   27.7354    1.0348 C   0  0  2  0  0  0  0  0  0  0  0  0
   18.6554   28.3078    1.8235 N   0  0  0  0  0  0  0  0  0  0  0  0
   17.4780   31.2560   -2.5081 C   0  0  1  0  0  0  0  0  0  0  0  0
   17.6421   31.1051   -3.9221 O   0  0  0  0  0  0  0  0  0  0  0  0
   15.3635   27.5839   -3.3344 C   0  0  2  0  0  0  0  0  0  0  0  0
   13.9580   27.5146   -3.4359 O   0  0  0  0  0  0  0  0  0  0  0  0
   19.5903   28.2235   -0.3840 C   0  0  1  0  0  0  0  0  0  0  0  0
   19.7487   29.6671   -0.2987 O   0  0  0  0  0  0  0  0  0  0  0  0
   18.4301   32.2746   -1.9999 C   0  0  1  0  0  0  0  0  0  0  0  0
   19.6289   31.5863   -1.6360 O   0  0  0  0  0  0  0  0  0  0  0  0
   16.0012   26.3084   -3.8856 C   0  0  1  0  0  0  0  0  0  0  0  0
   15.6604   26.1371   -5.2525 O   0  0  0  0  0  0  0  0  0  0  0  0
   20.7821   27.7162   -1.2400 C   0  0  2  0  0  0  0  0  0  0  0  0
   20.6417   28.1984   -2.5673 O   0  0  0  0  0  0  0  0  0  0  0  0
   17.5193   26.4078   -3.7335 C   0  0  1  0  0  0  0  0  0  0  0  0
   17.8600   26.5809   -2.3590 O   0  0  0  0  0  0  0  0  0  0  0  0
   20.7842   26.1754   -1.2526 C   0  0  1  0  0  0  0  0  0  0  0  0
   21.8790   25.6910   -2.0393 O   0  0  0  0  0  0  0  0  0  0  0  0
   18.1554   25.1190   -4.2550 C   0  0  0  0  0  0  0  0  0  0  0  0
   17.7967   24.0442   -3.4014 O   0  0  0  0  0  0  0  0  0  0  0  0
   18.8358   23.3503    0.6638 N   0  0  0  0  0  0  0  0  0  0  0  0
   18.5913   27.5705    3.8095 N   0  0  0  0  0  0  0  0  0  0  0  0
  1  2  1  0  0  0  0
  1 39  1  0  0  0  0
  3  4  1  0  0  0  0
  5  6  1  0  0  0  0
  5 40  1  0  0  0  0
  9 10  1  6  0  0  0
  9 14  1  0  0  0  0
  9 35  1  0  0  0  0
 10  1  1  0  0  0  0
 11 16  1  0  0  0  0
 11 28  1  0  0  0  0
 11 26  1  1  0  0  0
 12 17  1  0  0  0  0
 12 34  1  0  0  0  0
 12 13  1  6  0  0  0
 14 15  1  1  0  0  0
 14 19  1  0  0  0  0
 16 13  1  6  0  0  0
 16 21  1  0  0  0  0
 17 18  1  6  0  0  0
 17 23  1  0  0  0  0
 18  8  1  0  0  0  0
 19 20  1  1  0  0  0
 19 25  1  0  0  0  0
 20  5  1  0  0  0  0
 21  3  1  1  0  0  0
 21 22  1  0  0  0  0
 21 27  1  0  0  0  0
 23 24  1  1  0  0  0
 23 29  1  0  0  0  0
 25 26  1  1  0  0  0
 25 31  1  0  0  0  0
 27  7  1  6  0  0  0
 27 28  1  0  0  0  0
 29 30  1  6  0  0  0
 29 33  1  0  0  0  0
 31 32  1  6  0  0  0
 31 35  1  0  0  0  0
 33 34  1  0  0  0  0
 33 37  1  1  0  0  0
 35 36  1  6  0  0  0
 37 38  1  0  0  0  0
M  END
>  <CHROM.1>
52.16009910,88.75097511,67.70505642,94.79908217,102.46154790,-136.18933804
86.89321642,73.67644838,138.03166690,-168.97535685,-67.15184868,18.29778793
27.89926453,-1.30233990,0.76158528,0.91137374,-2.91080857

>  <Name>
1ntb_lig

>  <RI>
0

>  <Rbt.Current_Directory>
/home/itssahil/PROJECTS/Mol_Feturizer/New_Systems/rnas/1ntb

>  <Rbt.Executable>
rbdock ($Id: //depot/dev/client3/rdock/2013.1/src/exe/rbdock.cxx#4 $)

>  <Rbt.Library>
libRbt.so (2013.1, Build901 2013/11/27)

>  <Rbt.Parameter_File>
/export/apps/rDock/src/rDock_2013.1_src/data/scripts/dock_solv.prm

>  <Rbt.Receptor>
prm/blind_docking_60.prm

>  <SCORE>
-19.6202

>  <SCORE.INTER>
-18.2267

>  <SCORE.INTER.CONST>
1

>  <SCORE.INTER.POLAR>
-3.02172

>  <SCORE.INTER.ROT>
11

>  <SCORE.INTER.SOLV>
15.9025

>  <SCORE.INTER.VDW>
-18.3129

>  <SCORE.INTER.norm>
-0.455669

>  <SCORE.INTRA>
-2.27587

>  <SCORE.INTRA.DIHEDRAL>
2.48677

>  <SCORE.INTRA.DIHEDRAL.0>
15.4453

>  <SCORE.INTRA.POLAR>
0

>  <SCORE.INTRA.POLAR.0>
0

>  <SCORE.INTRA.REPUL>
-0.823958

>  <SCORE.INTRA.REPUL.0>
0.823958

>  <SCORE.INTRA.SOLV>
3.82276

>  <SCORE.INTRA.SOLV.lig_0>
-99.3069

>  <SCORE.INTRA.VDW>
-1.31085

>  <SCORE.INTRA.VDW.0>
0.946495

>  <SCORE.INTRA.norm>
-0.0568967

>  <SCORE.RESTR>
0.88237

>  <SCORE.RESTR.CAVITY>
0.88237

>  <SCORE.RESTR.norm>
0.0220592

>  <SCORE.SYSTEM>
0

>  <SCORE.SYSTEM.CONST>
0

>  <SCORE.SYSTEM.DIHEDRAL>
0

>  <SCORE.SYSTEM.SOLV>
0

>  <SCORE.SYSTEM.norm>
0

>  <SCORE.heavy>
40

>  <SCORE.norm>
-0.490506

>  <RMSD>
17.514

$$$$
1ntb_lig
 OpenBabel11021811403D
libRbt.so/2013.1/901 2013/11/27
 40 42  0  0  0  0  0  0  0  0999 V2000
   11.1379   31.2859   -3.4040 C   0  0  0  0  0  0  0  0  0  0  0  0
   11.7618   32.2737   -3.9190 N   0  0  0  0  0  0  0  0  0  0  0  0
   21.7724   30.3923   -0.4555 C   0  0  0  0  0  0  0  0  0  0  0  0
   21.8744   31.0583   -1.7030 O   0  0  0  0  0  0  0  0  0  0  0  0
   16.3508   27.4528   -3.2965 C   0  0  0  0  0  0  0  0  0  0  0  0
   17.1011   28.0033   -4.1831 N   0  0  0  0  0  0  0  0  0  0  0  0
   20.0991   32.6739    1.1488 C   0  0  0  0  0  0  0  0  0  0  0  0
   20.9369   27.6964    2.7826 C   0  0  0  0  0  0  0  0  0  0  0  0
   13.2813   30.6590   -2.6433 C   0  0  2  0  0  0  0  0  0  0  0  0
   11.7802   30.6402   -2.4497 N   0  0  0  0  0  0  0  0  0  0  0  0
   18.0987   30.4119   -0.6505 C   0  0  2  0  0  0  0  0  0  0  0  0
   20.4190   27.6673   -0.1613 C   0  0  1  0  0  0  0  0  0  0  0  0
   19.2192   28.4186   -0.1727 O   0  0  0  0  0  0  0  0  0  0  0  0
   13.8887   29.2939   -2.3393 C   0  0  1  0  0  0  0  0  0  0  0  0
   13.1934   28.3523   -3.2676 O   0  0  0  0  0  0  0  0  0  0  0  0
   19.4015   29.6375   -0.7347 C   0  0  2  0  0  0  0  0  0  0  0  0
   20.2355   26.4765    0.7480 C   0  0  1  0  0  0  0  0  0  0  0  0
   19.9638   26.9178    2.0704 N   0  0  0  0  0  0  0  0  0  0  0  0
   15.4083   29.2702   -2.4914 C   0  0  2  0  0  0  0  0  0  0  0  0
   16.0370   27.9944   -2.2184 N   0  0  0  0  0  0  0  0  0  0  0  0
   20.3561   30.4869    0.0618 C   0  0  1  0  0  0  0  0  0  0  0  0
   20.3111   30.1099    1.4420 O   0  0  0  0  0  0  0  0  0  0  0  0
   19.0618   25.6653    0.2253 C   0  0  2  0  0  0  0  0  0  0  0  0
   18.8395   24.5409    1.0480 O   0  0  0  0  0  0  0  0  0  0  0  0
   15.9861   30.2988   -1.5542 C   0  0  1  0  0  0  0  0  0  0  0  0
   17.4004   30.3565   -1.8899 O   0  0  0  0  0  0  0  0  0  0  0  0
   19.8361   31.8678   -0.0967 C   0  0  1  0  0  0  0  0  0  0  0  0
   18.4289   31.7643   -0.3259 O   0  0  0  0  0  0  0  0  0  0  0  0
   19.4215   25.2246   -1.1938 C   0  0  1  0  0  0  0  0  0  0  0  0
   18.3654   24.4619   -1.7564 O   0  0  0  0  0  0  0  0  0  0  0  0
   15.4142   31.7037   -1.8854 C   0  0  2  0  0  0  0  0  0  0  0  0
   15.9814   32.6584   -1.0017 O   0  0  0  0  0  0  0  0  0  0  0  0
   19.6822   26.4663   -2.0471 C   0  0  1  0  0  0  0  0  0  0  0  0
   20.7435   27.2322   -1.4795 O   0  0  0  0  0  0  0  0  0  0  0  0
   13.8836   31.6881   -1.7085 C   0  0  1  0  0  0  0  0  0  0  0  0
   13.3400   32.9787   -2.0105 O   0  0  0  0  0  0  0  0  0  0  0  0
   20.0734   26.0254   -3.4578 C   0  0  0  0  0  0  0  0  0  0  0  0
   19.9663   27.1326   -4.3381 O   0  0  0  0  0  0  0  0  0  0  0  0
    9.9695   30.9236   -3.8030 N   0  0  0  0  0  0  0  0  0  0  0  0
   15.8530   26.3364   -3.5259 N   0  0  0  0  0  0  0  0  0  0  0  0
  1  2  1  0  0  0  0
  1 39  1  0  0  0  0
  3  4  1  0  0  0  0
  5  6  1  0  0  0  0
  5 40  1  0  0  0  0
  9 10  1  1  0  0  0
  9 14  1  0  0  0  0
  9 35  1  0  0  0  0
 10  1  1  0  0  0  0
 11 16  1  0  0  0  0
 11 28  1  0  0  0  0
 11 26  1  6  0  0  0
 12 17  1  0  0  0  0
 12 34  1  0  0  0  0
 12 13  1  6  0  0  0
 14 15  1  6  0  0  0
 14 19  1  0  0  0  0
 16 13  1  1  0  0  0
 16 21  1  0  0  0  0
 17 18  1  1  0  0  0
 17 23  1  0  0  0  0
 18  8  1  0  0  0  0
 19 20  1  1  0  0  0
 19 25  1  0  0  0  0
 20  5  1  0  0  0  0
 21  3  1  6  0  0  0
 21 22  1  0  0  0  0
 21 27  1  0  0  0  0
 23 24  1  1  0  0  0
 23 29  1  0  0  0  0
 25 26  1  6  0  0  0
 25 31  1  0  0  0  0
 27  7  1  1  0  0  0
 27 28  1  0  0  0  0
 29 30  1  6  0  0  0
 29 33  1  0  0  0  0
 31 32  1  1  0  0  0
 31 35  1  0  0  0  0
 33 34  1  0  0  0  0
 33 37  1  6  0  0  0
 35 36  1  6  0  0  0
 37 38  1  0  0  0  0
M  END
>  <CHROM.1>
-137.82226806,-31.19474400,144.19823001,166.99735668,-177.17559488,-62.08624920
103.74456880,56.09865917,71.03275911,-137.53659472,164.45037716,17.41647929
29.11172336,-1.40254119,2.85085420,-0.43891293,0.26650639

>  <Name>
1ntb_lig

>  <RI>
0

>  <Rbt.Current_Directory>
/home/itssahil/PROJECTS/Mol_Feturizer/New_Systems/rnas/1ntb

>  <Rbt.Executable>
rbdock ($Id: //depot/dev/client3/rdock/2013.1/src/exe/rbdock.cxx#4 $)

>  <Rbt.Library>
libRbt.so (2013.1, Build901 2013/11/27)

>  <Rbt.Parameter_File>
/export/apps/rDock/src/rDock_2013.1_src/data/scripts/dock_solv.prm

>  <Rbt.Receptor>
prm/blind_docking_60.prm

>  <SCORE>
9.91259

>  <SCORE.INTER>
15.1609

>  <SCORE.INTER.CONST>
1

>  <SCORE.INTER.POLAR>
-1.35699

>  <SCORE.INTER.ROT>
11

>  <SCORE.INTER.SOLV>
30.9863

>  <SCORE.INTER.VDW>
-6.63154

>  <SCORE.INTER.norm>
0.379022

>  <SCORE.INTRA>
-6.3496

>  <SCORE.INTRA.DIHEDRAL>
0.768362

>  <SCORE.INTRA.DIHEDRAL.0>
15.4453

>  <SCORE.INTRA.POLAR>
0

>  <SCORE.INTRA.POLAR.0>
0

>  <SCORE.INTRA.REPUL>
-0.798156

>  <SCORE.INTRA.REPUL.0>
0.823958

>  <SCORE.INTRA.SOLV>
1.27922

>  <SCORE.INTRA.SOLV.lig_0>
-99.3069

>  <SCORE.INTRA.VDW>
-3.38261

>  <SCORE.INTRA.VDW.0>
0.946495

>  <SCORE.INTRA.norm>
-0.15874

>  <SCORE.RESTR>
1.10131

>  <SCORE.RESTR.CAVITY>
1.10131

>  <SCORE.RESTR.norm>
0.0275327

>  <SCORE.SYSTEM>
0

>  <SCORE.SYSTEM.CONST>
0

>  <SCORE.SYSTEM.DIHEDRAL>
0

>  <SCORE.SYSTEM.SOLV>
0

>  <SCORE.SYSTEM.norm>
0

>  <SCORE.heavy>
40

>  <SCORE.norm>
0.247815

>  <RMSD>
17.549

$$$$
1ntb_lig
 OpenBabel11021811403D
libRbt.so/2013.1/901 2013/11/27
 40 42  0  0  0  0  0  0  0  0999 V2000
   21.8184   23.6007   -1.2087 C   0  0  0  0  0  0  0  0  0  0  0  0
   22.7091   23.8422   -0.3263 N   0  0  0  0  0  0  0  0  0  0  0  0
   16.3845   29.5240   -3.7489 C   0  0  0  0  0  0  0  0  0  0  0  0
   17.1301   28.3309   -3.9242 O   0  0  0  0  0  0  0  0  0  0  0  0
   18.3511   27.8399    2.7598 C   0  0  0  0  0  0  0  0  0  0  0  0
   19.2922   28.7110    2.8462 N   0  0  0  0  0  0  0  0  0  0  0  0
   14.5020   28.8127   -1.1934 C   0  0  0  0  0  0  0  0  0  0  0  0
   18.5200   33.4222   -4.8281 C   0  0  0  0  0  0  0  0  0  0  0  0
   20.4761   25.3975   -0.4768 C   0  0  2  0  0  0  0  0  0  0  0  0
   20.5866   23.9442   -0.8850 N   0  0  0  0  0  0  0  0  0  0  0  0
   17.7470   29.8670   -0.3488 C   0  0  2  0  0  0  0  0  0  0  0  0
   19.3068   31.8818   -2.3880 C   0  0  1  0  0  0  0  0  0  0  0  0
   18.0133   31.6102   -1.8809 O   0  0  0  0  0  0  0  0  0  0  0  0
   19.2609   25.6237    0.4159 C   0  0  1  0  0  0  0  0  0  0  0  0
   19.4654   24.7065    1.5772 O   0  0  0  0  0  0  0  0  0  0  0  0
   17.7770   30.2783   -1.8095 C   0  0  2  0  0  0  0  0  0  0  0  0
   19.4626   33.3754   -2.5414 C   0  0  1  0  0  0  0  0  0  0  0  0
   18.5011   33.8675   -3.4637 N   0  0  0  0  0  0  0  0  0  0  0  0
   19.0890   27.0836    0.8303 C   0  0  2  0  0  0  0  0  0  0  0  0
   17.9506   27.3538    1.6840 N   0  0  0  0  0  0  0  0  0  0  0  0
   16.3952   29.9257   -2.2924 C   0  0  1  0  0  0  0  0  0  0  0  0
   15.5070   31.0282   -2.0805 O   0  0  0  0  0  0  0  0  0  0  0  0
   19.2410   34.0111   -1.1793 C   0  0  2  0  0  0  0  0  0  0  0  0
   19.3658   35.4137   -1.2681 O   0  0  0  0  0  0  0  0  0  0  0  0
   18.9550   27.9104   -0.4222 C   0  0  1  0  0  0  0  0  0  0  0  0
   18.9905   29.2905    0.0364 O   0  0  0  0  0  0  0  0  0  0  0  0
   15.9889   28.7842   -1.4355 C   0  0  1  0  0  0  0  0  0  0  0  0
   16.6900   28.9168   -0.1969 O   0  0  0  0  0  0  0  0  0  0  0  0
   20.3053   33.4396   -0.2423 C   0  0  1  0  0  0  0  0  0  0  0  0
   20.1601   33.9839    1.0602 O   0  0  0  0  0  0  0  0  0  0  0  0
   20.2097   27.7290   -1.3183 C   0  0  2  0  0  0  0  0  0  0  0  0
   20.0695   28.5262   -2.4841 O   0  0  0  0  0  0  0  0  0  0  0  0
   20.1570   31.9186   -0.1931 C   0  0  1  0  0  0  0  0  0  0  0  0
   20.3025   31.3733   -1.5034 O   0  0  0  0  0  0  0  0  0  0  0  0
   20.3399   26.2481   -1.7233 C   0  0  1  0  0  0  0  0  0  0  0  0
   21.4941   26.0638   -2.5516 O   0  0  0  0  0  0  0  0  0  0  0  0
   21.2416   31.3438    0.7184 C   0  0  0  0  0  0  0  0  0  0  0  0
   21.8552   30.2395    0.0729 O   0  0  0  0  0  0  0  0  0  0  0  0
   22.0944   23.0362   -2.3316 N   0  0  0  0  0  0  0  0  0  0  0  0
   17.8286   27.4005    3.7994 N   0  0  0  0  0  0  0  0  0  0  0  0
  1  2  1  0  0  0  0
  1 39  1  0  0  0  0
  3  4  1  0  0  0  0
  5  6  1  0  0  0  0
  5 40  1  0  0  0  0
  9 10  1  6  0  0  0
  9 14  1  0  0  0  0
  9 35  1  0  0  0  0
 10  1  1  0  0  0  0
 11 16  1  0  0  0  0
 11 28  1  0  0  0  0
 11 26  1  6  0  0  0
 12 17  1  0  0  0  0
 12 34  1  0  0  0  0
 12 13  1  1  0  0  0
 14 15  1  1  0  0  0
 14 19  1  0  0  0  0
 16 13  1  1  0  0  0
 16 21  1  0  0  0  0
 17 18  1  6  0  0  0
 17 23  1  0  0  0  0
 18  8  1  0  0  0  0
 19 20  1  1  0  0  0
 19 25  1  0  0  0  0
 20  5  1  0  0  0  0
 21  3  1  6  0  0  0
 21 22  1  0  0  0  0
 21 27  1  0  0  0  0
 23 24  1  6  0  0  0
 23 29  1  0  0  0  0
 25 26  1  1  0  0  0
 25 31  1  0  0  0  0
 27  7  1  1  0  0  0
 27 28  1  0  0  0  0
 29 30  1  1  0  0  0
 29 33  1  0  0  0  0
 31 32  1  6  0  0  0
 31 35  1  0  0  0  0
 33 34  1  0  0  0  0
 33 37  1  1  0  0  0
 35 36  1  6  0  0  0
 37 38  1  0  0  0  0
M  END
>  <CHROM.1>
-156.23624709,54.50547053,-80.79706287,175.65481754,109.70608563,-62.28151198
120.25049890,40.87443775,64.56072424,-119.24448398,-133.16557797,19.08310160
29.18240769,-0.87812299,-1.26034406,-0.79653734,0.03023259

>  <Name>
1ntb_lig

>  <RI>
0

>  <Rbt.Current_Directory>
/home/itssahil/PROJECTS/Mol_Feturizer/New_Systems/rnas/1ntb

>  <Rbt.Executable>
rbdock ($Id: //depot/dev/client3/rdock/2013.1/src/exe/rbdock.cxx#4 $)

>  <Rbt.Library>
libRbt.so (2013.1, Build901 2013/11/27)

>  <Rbt.Parameter_File>
/export/apps/rDock/src/rDock_2013.1_src/data/scripts/dock_solv.prm

>  <Rbt.Receptor>
prm/blind_docking_60.prm

>  <SCORE>
-17.253

>  <SCORE.INTER>
-15.2169

>  <SCORE.INTER.CONST>
1

>  <SCORE.INTER.POLAR>
-0.87178

>  <SCORE.INTER.ROT>
11

>  <SCORE.INTER.SOLV>
22.2497

>  <SCORE.INTER.VDW>
-25.5886

>  <SCORE.INTER.norm>
-0.380423

>  <SCORE.INTRA>
-3.05322

>  <SCORE.INTRA.DIHEDRAL>
8.2575

>  <SCORE.INTRA.DIHEDRAL.0>
15.4453

>  <SCORE.INTRA.POLAR>
0

>  <SCORE.INTRA.POLAR.0>
0

>  <SCORE.INTRA.REPUL>
-0.823958

>  <SCORE.INTRA.REPUL.0>
0.823958

>  <SCORE.INTRA.SOLV>
0.747589

>  <SCORE.INTRA.SOLV.lig_0>
-99.3069

>  <SCORE.INTRA.VDW>
-3.43597

>  <SCORE.INTRA.VDW.0>
0.946495

>  <SCORE.INTRA.norm>
-0.0763304

>  <SCORE.RESTR>
1.01712

>  <SCORE.RESTR.CAVITY>
1.01712

>  <SCORE.RESTR.norm>
0.0254281

>  <SCORE.SYSTEM>
0

>  <SCORE.SYSTEM.CONST>
0

>  <SCORE.SYSTEM.DIHEDRAL>
0

>  <SCORE.SYSTEM.SOLV>
0

>  <SCORE.SYSTEM.norm>
0

>  <SCORE.heavy>
40

>  <SCORE.norm>
-0.431325

>  <RMSD>
17.553

$$$$
1ntb_lig
 OpenBabel11021811403D
libRbt.so/2013.1/901 2013/11/27
 40 42  0  0  0  0  0  0  0  0999 V2000
   11.0933   31.3238   -3.1803 C   0  0  0  0  0  0  0  0  0  0  0  0
    9.9643   30.8276   -3.5108 N   0  0  0  0  0  0  0  0  0  0  0  0
   21.8677   30.8646   -0.9736 C   0  0  0  0  0  0  0  0  0  0  0  0
   22.7437   31.8057   -0.3759 O   0  0  0  0  0  0  0  0  0  0  0  0
   16.1882   27.4350   -3.5687 C   0  0  0  0  0  0  0  0  0  0  0  0
   17.3013   27.2900   -4.1948 N   0  0  0  0  0  0  0  0  0  0  0  0
   20.1772   33.4225    0.1123 C   0  0  0  0  0  0  0  0  0  0  0  0
   20.5847   27.3038    3.6080 C   0  0  0  0  0  0  0  0  0  0  0  0
   13.2831   30.6550   -2.6114 C   0  0  2  0  0  0  0  0  0  0  0  0
   11.7984   30.6147   -2.3199 N   0  0  0  0  0  0  0  0  0  0  0  0
   18.1910   30.7397   -0.9889 C   0  0  2  0  0  0  0  0  0  0  0  0
   20.6171   28.2296   -0.0021 C   0  0  1  0  0  0  0  0  0  0  0  0
   19.4035   28.9521   -0.0994 O   0  0  0  0  0  0  0  0  0  0  0  0
   13.9196   29.2861   -2.3972 C   0  0  1  0  0  0  0  0  0  0  0  0
   13.1713   28.3710   -3.3106 O   0  0  0  0  0  0  0  0  0  0  0  0
   19.5171   30.0026   -0.9470 C   0  0  2  0  0  0  0  0  0  0  0  0
   20.5039   27.2448    1.1363 C   0  0  1  0  0  0  0  0  0  0  0  0
   20.2911   27.9410    2.3558 N   0  0  0  0  0  0  0  0  0  0  0  0
   15.4258   29.2828   -2.6500 C   0  0  2  0  0  0  0  0  0  0  0  0
   16.0808   28.0044   -2.4650 N   0  0  0  0  0  0  0  0  0  0  0  0
   20.4711   31.0446   -0.4262 C   0  0  1  0  0  0  0  0  0  0  0  0
   20.4965   31.0127    1.0047 O   0  0  0  0  0  0  0  0  0  0  0  0
   19.3215   26.3341    0.8511 C   0  0  2  0  0  0  0  0  0  0  0  0
   19.1638   25.3965    1.8935 O   0  0  0  0  0  0  0  0  0  0  0  0
   16.0568   30.2835   -1.7169 C   0  0  1  0  0  0  0  0  0  0  0  0
   17.4452   30.3668   -2.1429 O   0  0  0  0  0  0  0  0  0  0  0  0
   19.8939   32.3316   -0.8877 C   0  0  1  0  0  0  0  0  0  0  0  0
   18.4835   32.1386   -1.0165 O   0  0  0  0  0  0  0  0  0  0  0  0
   19.6172   25.6198   -0.4679 C   0  0  1  0  0  0  0  0  0  0  0  0
   18.5493   24.7496   -0.8083 O   0  0  0  0  0  0  0  0  0  0  0  0
   15.4537   31.6934   -1.9591 C   0  0  2  0  0  0  0  0  0  0  0  0
   16.0710   32.6219   -1.0812 O   0  0  0  0  0  0  0  0  0  0  0  0
   19.8093   26.6664   -1.5659 C   0  0  1  0  0  0  0  0  0  0  0  0
   20.8827   27.5409   -1.2217 O   0  0  0  0  0  0  0  0  0  0  0  0
   13.9383   31.6565   -1.6822 C   0  0  1  0  0  0  0  0  0  0  0  0
   13.3662   32.9515   -1.9013 O   0  0  0  0  0  0  0  0  0  0  0  0
   20.1369   25.9539   -2.8784 C   0  0  0  0  0  0  0  0  0  0  0  0
   18.9964   25.2311   -3.3131 O   0  0  0  0  0  0  0  0  0  0  0  0
   11.5102   32.4536   -3.6337 N   0  0  0  0  0  0  0  0  0  0  0  0
   15.1343   27.0397   -4.0977 N   0  0  0  0  0  0  0  0  0  0  0  0
  1  2  1  0  0  0  0
  1 39  1  0  0  0  0
  3  4  1  0  0  0  0
  5  6  1  0  0  0  0
  5 40  1  0  0  0  0
  9 10  1  1  0  0  0
  9 14  1  0  0  0  0
  9 35  1  0  0  0  0
 10  1  1  0  0  0  0
 11 16  1  0  0  0  0
 11 28  1  0  0  0  0
 11 26  1  6  0  0  0
 12 17  1  0  0  0  0
 12 34  1  0  0  0  0
 12 13  1  6  0  0  0
 14 15  1  6  0  0  0
 14 19  1  0  0  0  0
 16 13  1  1  0  0  0
 16 21  1  0  0  0  0
 17 18  1  1  0  0  0
 17 23  1  0  0  0  0
 18  8  1  0  0  0  0
 19 20  1  1  0  0  0
 19 25  1  0  0  0  0
 20  5  1  0  0  0  0
 21  3  1  6  0  0  0
 21 22  1  0  0  0  0
 21 27  1  0  0  0  0
 23 24  1  1  0  0  0
 23 29  1  0  0  0  0
 25 26  1  6  0  0  0
 25 31  1  0  0  0  0
 27  7  1  1  0  0  0
 27 28  1  0  0  0  0
 29 30  1  6  0  0  0
 29 33  1  0  0  0  0
 31 32  1  1  0  0  0
 31 35  1  0  0  0  0
 33 34  1  0  0  0  0
 33 37  1  6  0  0  0
 35 36  1  6  0  0  0
 37 38  1  0  0  0  0
M  END
>  <CHROM.1>
-139.93470501,142.64701713,141.14976855,169.54044391,-179.26292955,-159.44470592
96.19497449,108.25873924,-175.62771389,-152.56406912,67.89651964,17.46758714
29.31290844,-1.31251674,2.87777828,-0.42144973,0.14132589

>  <Name>
1ntb_lig

>  <RI>
0

>  <Rbt.Current_Directory>
/home/itssahil/PROJECTS/Mol_Feturizer/New_Systems/rnas/1ntb

>  <Rbt.Executable>
rbdock ($Id: //depot/dev/client3/rdock/2013.1/src/exe/rbdock.cxx#4 $)

>  <Rbt.Library>
libRbt.so (2013.1, Build901 2013/11/27)

>  <Rbt.Parameter_File>
/export/apps/rDock/src/rDock_2013.1_src/data/scripts/dock_solv.prm

>  <Rbt.Receptor>
prm/blind_docking_60.prm

>  <SCORE>
1.98339

>  <SCORE.INTER>
9.07896

>  <SCORE.INTER.CONST>
1

>  <SCORE.INTER.POLAR>
-2.14697

>  <SCORE.INTER.ROT>
11

>  <SCORE.INTER.SOLV>
31.1841

>  <SCORE.INTER.VDW>
-8.1188

>  <SCORE.INTER.norm>
0.226974

>  <SCORE.INTRA>
-7.90231

>  <SCORE.INTRA.DIHEDRAL>
-3.07701

>  <SCORE.INTRA.DIHEDRAL.0>
15.4453

>  <SCORE.INTRA.POLAR>
0

>  <SCORE.INTRA.POLAR.0>
0

>  <SCORE.INTRA.REPUL>
-0.823958

>  <SCORE.INTRA.REPUL.0>
0.823958

>  <SCORE.INTRA.SOLV>
0.498104

>  <SCORE.INTRA.SOLV.lig_0>
-99.3069

>  <SCORE.INTRA.VDW>
-2.49307

>  <SCORE.INTRA.VDW.0>
0.946495

>  <SCORE.INTRA.norm>
-0.197558

>  <SCORE.RESTR>
0.806743

>  <SCORE.RESTR.CAVITY>
0.806743

>  <SCORE.RESTR.norm>
0.0201686

>  <SCORE.SYSTEM>
0

>  <SCORE.SYSTEM.CONST>
0

>  <SCORE.SYSTEM.DIHEDRAL>
0

>  <SCORE.SYSTEM.SOLV>
0

>  <SCORE.SYSTEM.norm>
0

>  <SCORE.heavy>
40

>  <SCORE.norm>
0.0495849

>  <RMSD>
17.563

$$$$
1ntb_lig
 OpenBabel11021811403D
libRbt.so/2013.1/901 2013/11/27
 40 42  0  0  0  0  0  0  0  0999 V2000
   11.0595   31.2514   -3.2392 C   0  0  0  0  0  0  0  0  0  0  0  0
   11.6429   32.2315   -3.8129 N   0  0  0  0  0  0  0  0  0  0  0  0
   21.8326   30.7556   -0.9281 C   0  0  0  0  0  0  0  0  0  0  0  0
   22.7174   31.6376   -0.2577 O   0  0  0  0  0  0  0  0  0  0  0  0
   16.1427   27.4272   -3.5801 C   0  0  0  0  0  0  0  0  0  0  0  0
   17.2510   27.3624   -4.2278 N   0  0  0  0  0  0  0  0  0  0  0  0
   20.1446   33.2517    0.2968 C   0  0  0  0  0  0  0  0  0  0  0  0
   21.2159   28.2899    2.8196 C   0  0  0  0  0  0  0  0  0  0  0  0
   13.2507   30.6588   -2.5963 C   0  0  2  0  0  0  0  0  0  0  0  0
   11.7642   30.6311   -2.3125 N   0  0  0  0  0  0  0  0  0  0  0  0
   18.1558   30.6309   -0.9408 C   0  0  2  0  0  0  0  0  0  0  0  0
   20.5763   28.0575   -0.1169 C   0  0  1  0  0  0  0  0  0  0  0  0
   19.3707   28.7988   -0.1508 O   0  0  0  0  0  0  0  0  0  0  0  0
   13.8714   29.2806   -2.3953 C   0  0  1  0  0  0  0  0  0  0  0  0
   13.1178   28.3846   -3.3232 O   0  0  0  0  0  0  0  0  0  0  0  0
   19.4821   29.8929   -0.9415 C   0  0  2  0  0  0  0  0  0  0  0  0
   20.4331   26.9468    0.8953 C   0  0  1  0  0  0  0  0  0  0  0  0
   20.2021   27.4969    2.1842 N   0  0  0  0  0  0  0  0  0  0  0  0
   15.3787   29.2640   -2.6409 C   0  0  2  0  0  0  0  0  0  0  0  0
   16.0189   27.9764   -2.4679 N   0  0  0  0  0  0  0  0  0  0  0  0
   20.4373   30.9059   -0.3683 C   0  0  1  0  0  0  0  0  0  0  0  0
   20.4663   30.7979    1.0587 O   0  0  0  0  0  0  0  0  0  0  0  0
   19.2493   26.0881    0.4830 C   0  0  2  0  0  0  0  0  0  0  0  0
   19.0638   25.0361    1.4047 O   0  0  0  0  0  0  0  0  0  0  0  0
   16.0158   30.2466   -1.6928 C   0  0  1  0  0  0  0  0  0  0  0  0
   17.4071   30.3199   -2.1111 O   0  0  0  0  0  0  0  0  0  0  0  0
   19.8589   32.2156   -0.7592 C   0  0  1  0  0  0  0  0  0  0  0  0
   18.4481   32.0294   -0.8945 O   0  0  0  0  0  0  0  0  0  0  0  0
   19.5649   25.5310   -0.9052 C   0  0  1  0  0  0  0  0  0  0  0  0
   18.4969   24.7178   -1.3653 O   0  0  0  0  0  0  0  0  0  0  0  0
   15.4292   31.6657   -1.9212 C   0  0  2  0  0  0  0  0  0  0  0  0
   16.0521   32.5770   -1.0293 O   0  0  0  0  0  0  0  0  0  0  0  0
   19.7868   26.6974   -1.8685 C   0  0  1  0  0  0  0  0  0  0  0  0
   20.8602   27.5143   -1.4040 O   0  0  0  0  0  0  0  0  0  0  0  0
   13.9122   31.6421   -1.6521 C   0  0  1  0  0  0  0  0  0  0  0  0
   13.3551   32.9457   -1.8585 O   0  0  0  0  0  0  0  0  0  0  0  0
   20.1343   26.1410   -3.2495 C   0  0  0  0  0  0  0  0  0  0  0  0
   19.0240   25.4145   -3.7516 O   0  0  0  0  0  0  0  0  0  0  0  0
    9.8718   30.8726   -3.5578 N   0  0  0  0  0  0  0  0  0  0  0  0
   15.1072   26.9691   -4.0946 N   0  0  0  0  0  0  0  0  0  0  0  0
  1  2  1  0  0  0  0
  1 39  1  0  0  0  0
  3  4  1  0  0  0  0
  5  6  1  0  0  0  0
  5 40  1  0  0  0  0
  9 10  1  1  0  0  0
  9 14  1  0  0  0  0
  9 35  1  0  0  0  0
 10  1  1  0  0  0  0
 11 16  1  0  0  0  0
 11 28  1  0  0  0  0
 11 26  1  6  0  0  0
 12 17  1  0  0  0  0
 12 34  1  0  0  0  0
 12 13  1  6  0  0  0
 14 15  1  6  0  0  0
 14 19  1  0  0  0  0
 16 13  1  1  0  0  0
 16 21  1  0  0  0  0
 17 18  1  1  0  0  0
 17 23  1  0  0  0  0
 18  8  1  0  0  0  0
 19 20  1  1  0  0  0
 19 25  1  0  0  0  0
 20  5  1  0  0  0  0
 21  3  1  6  0  0  0
 21 22  1  0  0  0  0
 21 27  1  0  0  0  0
 23 24  1  1  0  0  0
 23 29  1  0  0  0  0
 25 26  1  6  0  0  0
 25 31  1  0  0  0  0
 27  7  1  1  0  0  0
 27 28  1  0  0  0  0
 29 30  1  6  0  0  0
 29 33  1  0  0  0  0
 31 32  1  1  0  0  0
 31 35  1  0  0  0  0
 33 34  1  0  0  0  0
 33 37  1  6  0  0  0
 35 36  1  6  0  0  0
 37 38  1  0  0  0  0
M  END
>  <CHROM.1>
-133.86498492,-31.03497982,142.53163511,173.76402790,179.53443587,-64.81864887
97.12069489,103.45079314,-174.02299058,-150.84186300,64.28522151,17.45004292
29.26126577,-1.41085659,2.91595398,-0.41135033,0.22070371

>  <Name>
1ntb_lig

>  <RI>
0

>  <Rbt.Current_Directory>
/home/itssahil/PROJECTS/Mol_Feturizer/New_Systems/rnas/1ntb

>  <Rbt.Executable>
rbdock ($Id: //depot/dev/client3/rdock/2013.1/src/exe/rbdock.cxx#4 $)

>  <Rbt.Library>
libRbt.so (2013.1, Build901 2013/11/27)

>  <Rbt.Parameter_File>
/export/apps/rDock/src/rDock_2013.1_src/data/scripts/dock_solv.prm

>  <Rbt.Receptor>
prm/blind_docking_100.prm

>  <SCORE>
3.67284

>  <SCORE.INTER>
10.2441

>  <SCORE.INTER.CONST>
1

>  <SCORE.INTER.POLAR>
-2.02731

>  <SCORE.INTER.ROT>
11

>  <SCORE.INTER.SOLV>
32.0028

>  <SCORE.INTER.VDW>
-8.01383

>  <SCORE.INTER.norm>
0.256102

>  <SCORE.INTRA>
-7.48828

>  <SCORE.INTRA.DIHEDRAL>
-3.41008

>  <SCORE.INTRA.DIHEDRAL.0>
15.4453

>  <SCORE.INTRA.POLAR>
0

>  <SCORE.INTRA.POLAR.0>
0

>  <SCORE.INTRA.REPUL>
-0.823958

>  <SCORE.INTRA.REPUL.0>
0.823958

>  <SCORE.INTRA.SOLV>
1.12117

>  <SCORE.INTRA.SOLV.lig_0>
-99.3069

>  <SCORE.INTRA.VDW>
-2.22404

>  <SCORE.INTRA.VDW.0>
0.946495

>  <SCORE.INTRA.norm>
-0.187207

>  <SCORE.RESTR>
0.917025

>  <SCORE.RESTR.CAVITY>
0.917025

>  <SCORE.RESTR.norm>
0.0229256

>  <SCORE.SYSTEM>
0

>  <SCORE.SYSTEM.CONST>
0

>  <SCORE.SYSTEM.DIHEDRAL>
0

>  <SCORE.SYSTEM.SOLV>
0

>  <SCORE.SYSTEM.norm>
0

>  <SCORE.heavy>
40

>  <SCORE.norm>
0.0918209

>  <RMSD>
17.567

$$$$
1ntb_lig
 OpenBabel11021811403D
libRbt.so/2013.1/901 2013/11/27
 40 42  0  0  0  0  0  0  0  0999 V2000
   21.8167   23.6515   -1.4676 C   0  0  0  0  0  0  0  0  0  0  0  0
   22.0106   23.7101   -2.7282 N   0  0  0  0  0  0  0  0  0  0  0  0
   16.0723   29.1075   -3.5308 C   0  0  0  0  0  0  0  0  0  0  0  0
   16.9731   29.7536   -4.4147 O   0  0  0  0  0  0  0  0  0  0  0  0
   18.9623   27.2341    3.0295 C   0  0  0  0  0  0  0  0  0  0  0  0
   18.6845   26.3367    3.9067 N   0  0  0  0  0  0  0  0  0  0  0  0
   14.3629   28.8134   -0.7791 C   0  0  0  0  0  0  0  0  0  0  0  0
   19.0481   33.6807   -5.2598 C   0  0  0  0  0  0  0  0  0  0  0  0
   20.5028   25.4409   -0.6691 C   0  0  2  0  0  0  0  0  0  0  0  0
   20.6064   23.9824   -1.0604 N   0  0  0  0  0  0  0  0  0  0  0  0
   17.6920   29.8393   -0.3096 C   0  0  2  0  0  0  0  0  0  0  0  0
   19.2257   31.5254   -2.5338 C   0  0  1  0  0  0  0  0  0  0  0  0
   17.8971   31.3543   -2.0759 O   0  0  0  0  0  0  0  0  0  0  0  0
   19.4901   25.6348    0.4542 C   0  0  1  0  0  0  0  0  0  0  0  0
   19.9835   24.7671    1.5658 O   0  0  0  0  0  0  0  0  0  0  0  0
   17.6265   30.0538   -1.8108 C   0  0  2  0  0  0  0  0  0  0  0  0
   19.4220   32.9716   -2.9194 C   0  0  1  0  0  0  0  0  0  0  0  0
   18.5317   33.3144   -3.9716 N   0  0  0  0  0  0  0  0  0  0  0  0
   19.3274   27.0970    0.8644 C   0  0  2  0  0  0  0  0  0  0  0  0
   18.3792   27.3375    1.9325 N   0  0  0  0  0  0  0  0  0  0  0  0
   16.2027   29.6962   -2.1454 C   0  0  1  0  0  0  0  0  0  0  0  0
   15.3665   30.8514   -2.0220 O   0  0  0  0  0  0  0  0  0  0  0  0
   19.1274   33.8255   -1.6978 C   0  0  2  0  0  0  0  0  0  0  0  0
   19.2868   35.1929   -2.0069 O   0  0  0  0  0  0  0  0  0  0  0  0
   18.8889   27.8749   -0.3491 C   0  0  1  0  0  0  0  0  0  0  0  0
   18.9424   29.2692    0.0623 O   0  0  0  0  0  0  0  0  0  0  0  0
   15.8264   28.6941   -1.1175 C   0  0  1  0  0  0  0  0  0  0  0  0
   16.6207   28.9601    0.0408 O   0  0  0  0  0  0  0  0  0  0  0  0
   20.1178   33.4058   -0.6113 C   0  0  1  0  0  0  0  0  0  0  0  0
   19.9013   34.1590    0.5717 O   0  0  0  0  0  0  0  0  0  0  0  0
   19.9369   27.7276   -1.4850 C   0  0  2  0  0  0  0  0  0  0  0  0
   19.5121   28.4785   -2.6119 O   0  0  0  0  0  0  0  0  0  0  0  0
   19.9350   31.9153   -0.3233 C   0  0  1  0  0  0  0  0  0  0  0  0
   20.1521   31.1599   -1.5139 O   0  0  0  0  0  0  0  0  0  0  0  0
   20.0620   26.2427   -1.8769 C   0  0  1  0  0  0  0  0  0  0  0  0
   21.0262   26.0897   -2.9252 O   0  0  0  0  0  0  0  0  0  0  0  0
   20.9470   31.4879    0.7400 C   0  0  0  0  0  0  0  0  0  0  0  0
   22.2327   31.3939    0.1479 O   0  0  0  0  0  0  0  0  0  0  0  0
   22.7446   23.3171   -0.6412 N   0  0  0  0  0  0  0  0  0  0  0  0
   19.8231   28.0939    3.2872 N   0  0  0  0  0  0  0  0  0  0  0  0
  1  2  1  0  0  0  0
  1 39  1  0  0  0  0
  3  4  1  0  0  0  0
  5  6  1  0  0  0  0
  5 40  1  0  0  0  0
  9 10  1  6  0  0  0
  9 14  1  0  0  0  0
  9 35  1  0  0  0  0
 10  1  1  0  0  0  0
 11 16  1  0  0  0  0
 11 28  1  0  0  0  0
 11 26  1  6  0  0  0
 12 17  1  0  0  0  0
 12 34  1  0  0  0  0
 12 13  1  1  0  0  0
 14 15  1  1  0  0  0
 14 19  1  0  0  0  0
 16 13  1  1  0  0  0
 16 21  1  0  0  0  0
 17 18  1  6  0  0  0
 17 23  1  0  0  0  0
 18  8  1  0  0  0  0
 19 20  1  1  0  0  0
 19 25  1  0  0  0  0
 20  5  1  0  0  0  0
 21  3  1  6  0  0  0
 21 22  1  0  0  0  0
 21 27  1  0  0  0  0
 23 24  1  6  0  0  0
 23 29  1  0  0  0  0
 25 26  1  1  0  0  0
 25 31  1  0  0  0  0
 27  7  1  1  0  0  0
 27 28  1  0  0  0  0
 29 30  1  1  0  0  0
 29 33  1  0  0  0  0
 31 32  1  6  0  0  0
 31 35  1  0  0  0  0
 33 34  1  0  0  0  0
 33 37  1  1  0  0  0
 35 36  1  6  0  0  0
 37 38  1  0  0  0  0
M  END
>  <CHROM.1>
-147.99477477,-93.80685224,-74.25948657,175.27280822,101.71233362,-115.51598257
87.76534681,-116.14962206,-36.65800784,-130.38429774,-75.16167806,19.07474322
29.13914981,-0.97700295,0.88353055,1.21622354,-2.76571862

>  <Name>
1ntb_lig

>  <RI>
0

>  <Rbt.Current_Directory>
/home/itssahil/PROJECTS/Mol_Feturizer/New_Systems/rnas/1ntb

>  <Rbt.Executable>
rbdock ($Id: //depot/dev/client3/rdock/2013.1/src/exe/rbdock.cxx#4 $)

>  <Rbt.Library>
libRbt.so (2013.1, Build901 2013/11/27)

>  <Rbt.Parameter_File>
/export/apps/rDock/src/rDock_2013.1_src/data/scripts/dock_solv.prm

>  <Rbt.Receptor>
prm/blind_docking_80.prm

>  <SCORE>
-15.1377

>  <SCORE.INTER>
-12.3349

>  <SCORE.INTER.CONST>
1

>  <SCORE.INTER.POLAR>
-1.37683

>  <SCORE.INTER.ROT>
11

>  <SCORE.INTER.SOLV>
20.3613

>  <SCORE.INTER.VDW>
-21.3543

>  <SCORE.INTER.norm>
-0.308372

>  <SCORE.INTRA>
-5.04691

>  <SCORE.INTRA.DIHEDRAL>
3.94837

>  <SCORE.INTRA.DIHEDRAL.0>
15.4453

>  <SCORE.INTRA.POLAR>
0

>  <SCORE.INTRA.POLAR.0>
0

>  <SCORE.INTRA.REPUL>
-0.644078

>  <SCORE.INTRA.REPUL.0>
0.823958

>  <SCORE.INTRA.SOLV>
-0.287009

>  <SCORE.INTRA.SOLV.lig_0>
-99.3069

>  <SCORE.INTRA.VDW>
-3.6572

>  <SCORE.INTRA.VDW.0>
0.946495

>  <SCORE.INTRA.norm>
-0.126173

>  <SCORE.RESTR>
2.24406

>  <SCORE.RESTR.CAVITY>
2.24406

>  <SCORE.RESTR.norm>
0.0561015

>  <SCORE.SYSTEM>
0

>  <SCORE.SYSTEM.CONST>
0

>  <SCORE.SYSTEM.DIHEDRAL>
0

>  <SCORE.SYSTEM.SOLV>
0

>  <SCORE.SYSTEM.norm>
0

>  <SCORE.heavy>
40

>  <SCORE.norm>
-0.378444

>  <RMSD>
17.567

$$$$
1ntb_lig
 OpenBabel11021811403D
libRbt.so/2013.1/901 2013/11/27
 40 42  0  0  0  0  0  0  0  0999 V2000
   17.8204   36.3614   -1.9662 C   0  0  0  0  0  0  0  0  0  0  0  0
   17.3980   35.7964   -3.0304 N   0  0  0  0  0  0  0  0  0  0  0  0
   20.1969   26.0951    1.5276 C   0  0  0  0  0  0  0  0  0  0  0  0
   19.8050   25.1135    0.5826 O   0  0  0  0  0  0  0  0  0  0  0  0
   16.1201   30.6975   -1.9745 C   0  0  0  0  0  0  0  0  0  0  0  0
   14.8442   30.8462   -2.0174 N   0  0  0  0  0  0  0  0  0  0  0  0
   18.9956   27.9915    3.8814 C   0  0  0  0  0  0  0  0  0  0  0  0
   20.9133   29.1413   -1.8800 C   0  0  0  0  0  0  0  0  0  0  0  0
   18.3034   34.2643   -0.9992 C   0  0  2  0  0  0  0  0  0  0  0  0
   17.7109   35.6502   -0.8605 N   0  0  0  0  0  0  0  0  0  0  0  0
   18.7206   29.3488    0.6507 C   0  0  2  0  0  0  0  0  0  0  0  0
   18.0934   28.0272   -1.8213 C   0  0  1  0  0  0  0  0  0  0  0  0
   18.0894   27.4372   -0.5344 O   0  0  0  0  0  0  0  0  0  0  0  0
   17.2212   33.1948   -0.9007 C   0  0  1  0  0  0  0  0  0  0  0  0
   16.2563   33.5276   -1.9916 O   0  0  0  0  0  0  0  0  0  0  0  0
   19.0825   27.9324    0.2424 C   0  0  2  0  0  0  0  0  0  0  0  0
   19.2500   27.4616   -2.6093 C   0  0  1  0  0  0  0  0  0  0  0  0
   20.4740   27.7772   -1.9616 N   0  0  0  0  0  0  0  0  0  0  0  0
   17.7748   31.7751   -1.0047 C   0  0  2  0  0  0  0  0  0  0  0  0
   16.7872   30.7190   -0.9216 N   0  0  0  0  0  0  0  0  0  0  0  0
   19.1784   27.2107    1.5603 C   0  0  1  0  0  0  0  0  0  0  0  0
   17.8956   26.6937    1.9292 O   0  0  0  0  0  0  0  0  0  0  0  0
   19.0775   25.9535   -2.6760 C   0  0  2  0  0  0  0  0  0  0  0  0
   20.1416   25.3709   -3.3963 O   0  0  0  0  0  0  0  0  0  0  0  0
   18.7755   31.5831    0.1051 C   0  0  1  0  0  0  0  0  0  0  0  0
   19.3954   30.2962   -0.1703 O   0  0  0  0  0  0  0  0  0  0  0  0
   19.5900   28.2620    2.5235 C   0  0  1  0  0  0  0  0  0  0  0  0
   19.1087   29.5090    2.0171 O   0  0  0  0  0  0  0  0  0  0  0  0
   17.7477   25.6879   -3.3819 C   0  0  1  0  0  0  0  0  0  0  0  0
   17.5101   24.2922   -3.4783 O   0  0  0  0  0  0  0  0  0  0  0  0
   19.9115   32.6347   -0.0127 C   0  0  2  0  0  0  0  0  0  0  0  0
   20.8493   32.4273    1.0322 O   0  0  0  0  0  0  0  0  0  0  0  0
   16.6238   26.3563   -2.5895 C   0  0  1  0  0  0  0  0  0  0  0  0
   16.8648   27.7591   -2.4929 O   0  0  0  0  0  0  0  0  0  0  0  0
   19.3140   34.0497    0.1092 C   0  0  1  0  0  0  0  0  0  0  0  0
   20.3506   35.0328    0.0026 O   0  0  0  0  0  0  0  0  0  0  0  0
   15.2978   26.1184   -3.3123 C   0  0  0  0  0  0  0  0  0  0  0  0
   14.6235   27.3567   -3.4678 O   0  0  0  0  0  0  0  0  0  0  0  0
   18.2990   37.5558   -1.9620 N   0  0  0  0  0  0  0  0  0  0  0  0
   16.7433   30.4646   -3.0253 N   0  0  0  0  0  0  0  0  0  0  0  0
  1  2  1  0  0  0  0
  1 39  1  0  0  0  0
  3  4  1  0  0  0  0
  5  6  1  0  0  0  0
  5 40  1  0  0  0  0
  9 10  1  1  0  0  0
  9 14  1  0  0  0  0
  9 35  1  0  0  0  0
 10  1  1  0  0  0  0
 11 16  1  0  0  0  0
 11 28  1  0  0  0  0
 11 26  1  6  0  0  0
 12 17  1  0  0  0  0
 12 34  1  0  0  0  0
 12 13  1  1  0  0  0
 14 15  1  6  0  0  0
 14 19  1  0  0  0  0
 16 13  1  6  0  0  0
 16 21  1  0  0  0  0
 17 18  1  1  0  0  0
 17 23  1  0  0  0  0
 18  8  1  0  0  0  0
 19 20  1  1  0  0  0
 19 25  1  0  0  0  0
 20  5  1  0  0  0  0
 21  3  1  6  0  0  0
 21 22  1  0  0  0  0
 21 27  1  0  0  0  0
 23 24  1  6  0  0  0
 23 29  1  0  0  0  0
 25 26  1  6  0  0  0
 25 31  1  0  0  0  0
 27  7  1  1  0  0  0
 27 28  1  0  0  0  0
 29 30  1  1  0  0  0
 29 33  1  0  0  0  0
 31 32  1  1  0  0  0
 31 35  1  0  0  0  0
 33 34  1  0  0  0  0
 33 37  1  6  0  0  0
 35 36  1  6  0  0  0
 37 38  1  0  0  0  0
M  END
>  <CHROM.1>
-114.21777132,51.49023918,168.25482299,73.99570506,72.74576070,-66.78749366
72.22285029,-121.29136242,-62.85619958,-97.64743726,-129.44756103,18.28548178
29.79142799,-0.95158337,1.59040170,-0.94164187,0.04302410

>  <Name>
1ntb_lig

>  <RI>
0

>  <Rbt.Current_Directory>
/home/itssahil/PROJECTS/Mol_Feturizer/New_Systems/rnas/1ntb

>  <Rbt.Executable>
rbdock ($Id: //depot/dev/client3/rdock/2013.1/src/exe/rbdock.cxx#4 $)

>  <Rbt.Library>
libRbt.so (2013.1, Build901 2013/11/27)

>  <Rbt.Parameter_File>
/export/apps/rDock/src/rDock_2013.1_src/data/scripts/dock_solv.prm

>  <Rbt.Receptor>
prm/blind_docking_100.prm

>  <SCORE>
1.12389

>  <SCORE.INTER>
1.72693

>  <SCORE.INTER.CONST>
1

>  <SCORE.INTER.POLAR>
-1.09053

>  <SCORE.INTER.ROT>
11

>  <SCORE.INTER.SOLV>
21.3132

>  <SCORE.INTER.VDW>
-13.2514

>  <SCORE.INTER.norm>
0.0431731

>  <SCORE.INTRA>
-1.32915

>  <SCORE.INTRA.DIHEDRAL>
-0.488775

>  <SCORE.INTRA.DIHEDRAL.0>
15.4453

>  <SCORE.INTRA.POLAR>
0

>  <SCORE.INTRA.POLAR.0>
0

>  <SCORE.INTRA.REPUL>
-0.823958

>  <SCORE.INTRA.REPUL.0>
0.823958

>  <SCORE.INTRA.SOLV>
3.94601

>  <SCORE.INTRA.SOLV.lig_0>
-99.3069

>  <SCORE.INTRA.VDW>
1.06203

>  <SCORE.INTRA.VDW.0>
0.946495

>  <SCORE.INTRA.norm>
-0.0332287

>  <SCORE.RESTR>
0.726114

>  <SCORE.RESTR.CAVITY>
0.726114

>  <SCORE.RESTR.norm>
0.0181529

>  <SCORE.SYSTEM>
0

>  <SCORE.SYSTEM.CONST>
0

>  <SCORE.SYSTEM.DIHEDRAL>
0

>  <SCORE.SYSTEM.SOLV>
0

>  <SCORE.SYSTEM.norm>
0

>  <SCORE.heavy>
40

>  <SCORE.norm>
0.0280973

>  <RMSD>
17.590

$$$$
1ntb_lig
 OpenBabel11021811403D
libRbt.so/2013.1/901 2013/11/27
 40 42  0  0  0  0  0  0  0  0999 V2000
   19.2751   23.6229   -0.5594 C   0  0  0  0  0  0  0  0  0  0  0  0
   19.0372   23.4337   -1.7995 N   0  0  0  0  0  0  0  0  0  0  0  0
   16.3457   31.7943   -2.0210 C   0  0  0  0  0  0  0  0  0  0  0  0
   15.3109   31.0047   -2.5832 O   0  0  0  0  0  0  0  0  0  0  0  0
   19.9682   28.7524    2.6227 C   0  0  0  0  0  0  0  0  0  0  0  0
   20.2647   27.9887    3.6132 N   0  0  0  0  0  0  0  0  0  0  0  0
   18.9637   33.2978   -3.2316 C   0  0  0  0  0  0  0  0  0  0  0  0
   14.1228   28.8944   -0.5183 C   0  0  0  0  0  0  0  0  0  0  0  0
   20.7647   25.4323   -0.2887 C   0  0  2  0  0  0  0  0  0  0  0  0
   20.5201   23.9388   -0.2590 N   0  0  0  0  0  0  0  0  0  0  0  0
   19.6207   30.1251   -1.8686 C   0  0  2  0  0  0  0  0  0  0  0  0
   17.3579   27.8543   -1.8728 C   0  0  1  0  0  0  0  0  0  0  0  0
   17.7636   28.9540   -2.6667 O   0  0  0  0  0  0  0  0  0  0  0  0
   19.8818   26.1511    0.7255 C   0  0  1  0  0  0  0  0  0  0  0  0
   20.2280   25.5302    2.0395 O   0  0  0  0  0  0  0  0  0  0  0  0
   18.1069   30.0186   -1.9027 C   0  0  2  0  0  0  0  0  0  0  0  0
   15.8506   27.7751   -1.8900 C   0  0  1  0  0  0  0  0  0  0  0  0
   15.2998   28.9618   -1.3370 N   0  0  0  0  0  0  0  0  0  0  0  0
   20.0706   27.6666    0.7122 C   0  0  2  0  0  0  0  0  0  0  0  0
   19.2579   28.3991    1.6612 N   0  0  0  0  0  0  0  0  0  0  0  0
   17.6867   31.3206   -2.5312 C   0  0  1  0  0  0  0  0  0  0  0  0
   17.6507   31.1867   -3.9559 O   0  0  0  0  0  0  0  0  0  0  0  0
   15.4065   27.6272   -3.3356 C   0  0  2  0  0  0  0  0  0  0  0  0
   13.9992   27.5583   -3.4102 O   0  0  0  0  0  0  0  0  0  0  0  0
   19.7524   28.1632   -0.6743 C   0  0  1  0  0  0  0  0  0  0  0  0
   20.1367   29.5663   -0.6652 O   0  0  0  0  0  0  0  0  0  0  0  0
   18.7560   32.2746   -2.1452 C   0  0  1  0  0  0  0  0  0  0  0  0
   19.9506   31.5134   -1.9537 O   0  0  0  0  0  0  0  0  0  0  0  0
   16.0320   26.3362   -3.8640 C   0  0  1  0  0  0  0  0  0  0  0  0
   15.6666   26.1294   -5.2196 O   0  0  0  0  0  0  0  0  0  0  0  0
   20.6794   27.4765   -1.7131 C   0  0  2  0  0  0  0  0  0  0  0  0
   20.3731   27.9683   -3.0087 O   0  0  0  0  0  0  0  0  0  0  0  0
   17.5528   26.4362   -3.7417 C   0  0  1  0  0  0  0  0  0  0  0  0
   17.9182   26.6449   -2.3785 O   0  0  0  0  0  0  0  0  0  0  0  0
   20.4498   25.9533   -1.6763 C   0  0  1  0  0  0  0  0  0  0  0  0
   21.2987   25.3042   -2.6304 O   0  0  0  0  0  0  0  0  0  0  0  0
   18.1773   25.1327   -4.2400 C   0  0  0  0  0  0  0  0  0  0  0  0
   19.5567   25.3446   -4.4943 O   0  0  0  0  0  0  0  0  0  0  0  0
   18.3696   23.4905    0.3453 N   0  0  0  0  0  0  0  0  0  0  0  0
   20.3567   29.9338    2.6251 N   0  0  0  0  0  0  0  0  0  0  0  0
  1  2  1  0  0  0  0
  1 39  1  0  0  0  0
  3  4  1  0  0  0  0
  5  6  1  0  0  0  0
  5 40  1  0  0  0  0
  9 10  1  6  0  0  0
  9 14  1  0  0  0  0
  9 35  1  0  0  0  0
 10  1  1  0  0  0  0
 11 16  1  0  0  0  0
 11 28  1  0  0  0  0
 11 26  1  1  0  0  0
 12 17  1  0  0  0  0
 12 34  1  0  0  0  0
 12 13  1  6  0  0  0
 14 15  1  1  0  0  0
 14 19  1  0  0  0  0
 16 13  1  6  0  0  0
 16 21  1  0  0  0  0
 17 18  1  6  0  0  0
 17 23  1  0  0  0  0
 18  8  1  0  0  0  0
 19 20  1  1  0  0  0
 19 25  1  0  0  0  0
 20  5  1  0  0  0  0
 21  3  1  1  0  0  0
 21 22  1  0  0  0  0
 21 27  1  0  0  0  0
 23 24  1  1  0  0  0
 23 29  1  0  0  0  0
 25 26  1  1  0  0  0
 25 31  1  0  0  0  0
 27  7  1  6  0  0  0
 27 28  1  0  0  0  0
 29 30  1  6  0  0  0
 29 33  1  0  0  0  0
 31 32  1  6  0  0  0
 31 35  1  0  0  0  0
 33 34  1  0  0  0  0
 33 37  1  1  0  0  0
 35 36  1  6  0  0  0
 37 38  1  0  0  0  0
M  END
>  <CHROM.1>
60.84388976,89.37892967,61.47539366,101.99852368,103.79621969,-142.38710897
103.85755492,-82.05314847,-73.96526108,-169.35622834,163.36546380,18.42734871
27.88880154,-1.54981994,0.76147614,0.84614741,-2.95321450

>  <Name>
1ntb_lig

>  <RI>
0

>  <Rbt.Current_Directory>
/home/itssahil/PROJECTS/Mol_Feturizer/New_Systems/rnas/1ntb

>  <Rbt.Executable>
rbdock ($Id: //depot/dev/client3/rdock/2013.1/src/exe/rbdock.cxx#4 $)

>  <Rbt.Library>
libRbt.so (2013.1, Build901 2013/11/27)

>  <Rbt.Parameter_File>
/export/apps/rDock/src/rDock_2013.1_src/data/scripts/dock_solv.prm

>  <Rbt.Receptor>
prm/blind_docking_80.prm

>  <SCORE>
-20.8484

>  <SCORE.INTER>
-19.0912

>  <SCORE.INTER.CONST>
1

>  <SCORE.INTER.POLAR>
-3.00727

>  <SCORE.INTER.ROT>
11

>  <SCORE.INTER.SOLV>
14.0026

>  <SCORE.INTER.VDW>
-18.3041

>  <SCORE.INTER.norm>
-0.47728

>  <SCORE.INTRA>
-2.00989

>  <SCORE.INTRA.DIHEDRAL>
1.26827

>  <SCORE.INTRA.DIHEDRAL.0>
15.4453

>  <SCORE.INTRA.POLAR>
0

>  <SCORE.INTRA.POLAR.0>
0

>  <SCORE.INTRA.REPUL>
-0.823958

>  <SCORE.INTRA.REPUL.0>
0.823958

>  <SCORE.INTRA.SOLV>
5.86758

>  <SCORE.INTRA.SOLV.lig_0>
-99.3069

>  <SCORE.INTRA.VDW>
-1.45803

>  <SCORE.INTRA.VDW.0>
0.946495

>  <SCORE.INTRA.norm>
-0.0502473

>  <SCORE.RESTR>
0.252691

>  <SCORE.RESTR.CAVITY>
0.252691

>  <SCORE.RESTR.norm>
0.00631728

>  <SCORE.SYSTEM>
0

>  <SCORE.SYSTEM.CONST>
0

>  <SCORE.SYSTEM.DIHEDRAL>
0

>  <SCORE.SYSTEM.SOLV>
0

>  <SCORE.SYSTEM.norm>
0

>  <SCORE.heavy>
40

>  <SCORE.norm>
-0.52121

>  <RMSD>
17.609

$$$$
1ntb_lig
 OpenBabel11021811403D
libRbt.so/2013.1/901 2013/11/27
 40 42  0  0  0  0  0  0  0  0999 V2000
   17.9159   34.7618   -2.6247 C   0  0  0  0  0  0  0  0  0  0  0  0
   18.2231   35.9814   -2.4048 N   0  0  0  0  0  0  0  0  0  0  0  0
   20.4315   25.4306    1.0643 C   0  0  0  0  0  0  0  0  0  0  0  0
   19.7548   24.3302    0.4799 O   0  0  0  0  0  0  0  0  0  0  0  0
   16.4177   29.8925   -1.9404 C   0  0  0  0  0  0  0  0  0  0  0  0
   15.4881   30.7235   -2.2523 N   0  0  0  0  0  0  0  0  0  0  0  0
   20.0137   28.0454    2.9533 C   0  0  0  0  0  0  0  0  0  0  0  0
   17.4579   22.7567   -0.2829 C   0  0  0  0  0  0  0  0  0  0  0  0
   18.9829   32.8199   -3.4350 C   0  0  2  0  0  0  0  0  0  0  0  0
   18.4659   34.2187   -3.6938 N   0  0  0  0  0  0  0  0  0  0  0  0
   19.1511   28.5450   -0.4174 C   0  0  2  0  0  0  0  0  0  0  0  0
   18.2276   25.5084   -1.8276 C   0  0  1  0  0  0  0  0  0  0  0  0
   18.0631   26.5249   -0.8561 O   0  0  0  0  0  0  0  0  0  0  0  0
   17.8318   31.8394   -3.2387 C   0  0  1  0  0  0  0  0  0  0  0  0
   17.0273   31.9403   -4.4935 O   0  0  0  0  0  0  0  0  0  0  0  0
   19.2554   27.0314   -0.4600 C   0  0  2  0  0  0  0  0  0  0  0  0
   16.9970   24.6343   -1.8263 C   0  0  1  0  0  0  0  0  0  0  0  0
   16.8412   24.0243   -0.5531 N   0  0  0  0  0  0  0  0  0  0  0  0
   18.3038   30.4171   -2.9439 C   0  0  2  0  0  0  0  0  0  0  0  0
   17.2492   29.4429   -2.7532 N   0  0  0  0  0  0  0  0  0  0  0  0
   19.5735   26.6704    0.9668 C   0  0  1  0  0  0  0  0  0  0  0  0
   18.3618   26.4887    1.7070 O   0  0  0  0  0  0  0  0  0  0  0  0
   15.7963   25.5164   -2.1243 C   0  0  2  0  0  0  0  0  0  0  0  0
   14.6131   24.7479   -2.1252 O   0  0  0  0  0  0  0  0  0  0  0  0
   19.1503   30.4562   -1.6981 C   0  0  1  0  0  0  0  0  0  0  0  0
   19.7169   29.1207   -1.5902 O   0  0  0  0  0  0  0  0  0  0  0  0
   20.3058   27.8514    1.4879 C   0  0  1  0  0  0  0  0  0  0  0  0
   19.8577   28.9868    0.7441 O   0  0  0  0  0  0  0  0  0  0  0  0
   16.0301   26.1366   -3.5020 C   0  0  1  0  0  0  0  0  0  0  0  0
   14.9474   26.9846   -3.8517 O   0  0  0  0  0  0  0  0  0  0  0  0
   20.3559   31.4130   -1.9019 C   0  0  2  0  0  0  0  0  0  0  0  0
   21.1469   31.4241   -0.7236 O   0  0  0  0  0  0  0  0  0  0  0  0
   17.3325   26.9369   -3.4706 C   0  0  1  0  0  0  0  0  0  0  0  0
   18.4195   26.0830   -3.1181 O   0  0  0  0  0  0  0  0  0  0  0  0
   19.8378   32.8364   -2.1842 C   0  0  1  0  0  0  0  0  0  0  0  0
   20.9393   33.7325   -2.3745 O   0  0  0  0  0  0  0  0  0  0  0  0
   17.5833   27.5307   -4.8570 C   0  0  0  0  0  0  0  0  0  0  0  0
   17.6167   26.4832   -5.8130 O   0  0  0  0  0  0  0  0  0  0  0  0
   17.1036   34.1077   -1.8711 N   0  0  0  0  0  0  0  0  0  0  0  0
   16.5498   29.5410   -0.7548 N   0  0  0  0  0  0  0  0  0  0  0  0
  1  2  1  0  0  0  0
  1 39  1  0  0  0  0
  3  4  1  0  0  0  0
  5  6  1  0  0  0  0
  5 40  1  0  0  0  0
  9 10  1  1  0  0  0
  9 14  1  0  0  0  0
  9 35  1  0  0  0  0
 10  1  1  0  0  0  0
 11 16  1  0  0  0  0
 11 28  1  0  0  0  0
 11 26  1  6  0  0  0
 12 17  1  0  0  0  0
 12 34  1  0  0  0  0
 12 13  1  1  0  0  0
 14 15  1  6  0  0  0
 14 19  1  0  0  0  0
 16 13  1  1  0  0  0
 16 21  1  0  0  0  0
 17 18  1  1  0  0  0
 17 23  1  0  0  0  0
 18  8  1  0  0  0  0
 19 20  1  1  0  0  0
 19 25  1  0  0  0  0
 20  5  1  0  0  0  0
 21  3  1  1  0  0  0
 21 22  1  0  0  0  0
 21 27  1  0  0  0  0
 23 24  1  6  0  0  0
 23 29  1  0  0  0  0
 25 26  1  6  0  0  0
 25 31  1  0  0  0  0
 27  7  1  1  0  0  0
 27 28  1  0  0  0  0
 29 30  1  1  0  0  0
 29 33  1  0  0  0  0
 31 32  1  1  0  0  0
 31 35  1  0  0  0  0
 33 34  1  0  0  0  0
 33 37  1  6  0  0  0
 35 36  1  6  0  0  0
 37 38  1  0  0  0  0
M  END
>  <CHROM.1>
70.18278336,136.61834127,159.54503154,157.86396079,135.23670335,-89.40342206
-49.33019475,80.93162304,-60.14545814,-113.89443786,-56.98992396,18.18687408
28.75221426,-1.70935649,1.39755020,-0.86821996,-0.33779920

>  <Name>
1ntb_lig

>  <RI>
0

>  <Rbt.Current_Directory>
/home/itssahil/PROJECTS/Mol_Feturizer/New_Systems/rnas/1ntb

>  <Rbt.Executable>
rbdock ($Id: //depot/dev/client3/rdock/2013.1/src/exe/rbdock.cxx#4 $)

>  <Rbt.Library>
libRbt.so (2013.1, Build901 2013/11/27)

>  <Rbt.Parameter_File>
/export/apps/rDock/src/rDock_2013.1_src/data/scripts/dock_solv.prm

>  <Rbt.Receptor>
prm/blind_docking_60.prm

>  <SCORE>
-4.98538

>  <SCORE.INTER>
-5.53304

>  <SCORE.INTER.CONST>
1

>  <SCORE.INTER.POLAR>
-0.76612

>  <SCORE.INTER.ROT>
11

>  <SCORE.INTER.SOLV>
26.4485

>  <SCORE.INTER.VDW>
-20.8845

>  <SCORE.INTER.norm>
-0.138326

>  <SCORE.INTRA>
0.54766

>  <SCORE.INTRA.DIHEDRAL>
3.55694

>  <SCORE.INTRA.DIHEDRAL.0>
15.4453

>  <SCORE.INTRA.POLAR>
0

>  <SCORE.INTRA.POLAR.0>
0

>  <SCORE.INTRA.REPUL>
-0.823958

>  <SCORE.INTRA.REPUL.0>
0.823958

>  <SCORE.INTRA.SOLV>
8.94746

>  <SCORE.INTRA.SOLV.lig_0>
-99.3069

>  <SCORE.INTRA.VDW>
-1.58475

>  <SCORE.INTRA.VDW.0>
0.946495

>  <SCORE.INTRA.norm>
0.0136915

>  <SCORE.RESTR>
0

>  <SCORE.RESTR.CAVITY>
0

>  <SCORE.RESTR.norm>
0

>  <SCORE.SYSTEM>
0

>  <SCORE.SYSTEM.CONST>
0

>  <SCORE.SYSTEM.DIHEDRAL>
0

>  <SCORE.SYSTEM.SOLV>
0

>  <SCORE.SYSTEM.norm>
0

>  <SCORE.heavy>
40

>  <SCORE.norm>
-0.124635

>  <RMSD>
17.616

$$$$
1ntb_lig
 OpenBabel11021811403D
libRbt.so/2013.1/901 2013/11/27
 40 42  0  0  0  0  0  0  0  0999 V2000
   19.9167   23.7033    2.1195 C   0  0  0  0  0  0  0  0  0  0  0  0
   20.0222   24.0494    3.3440 N   0  0  0  0  0  0  0  0  0  0  0  0
   15.5913   30.0068   -3.6429 C   0  0  0  0  0  0  0  0  0  0  0  0
   16.5344   30.5631   -4.5437 O   0  0  0  0  0  0  0  0  0  0  0  0
   18.8124   25.1303   -3.9091 C   0  0  0  0  0  0  0  0  0  0  0  0
   18.2447   24.0466   -3.5148 N   0  0  0  0  0  0  0  0  0  0  0  0
   15.1393   27.1056   -2.2433 C   0  0  0  0  0  0  0  0  0  0  0  0
   18.6270   33.3492   -4.6635 C   0  0  0  0  0  0  0  0  0  0  0  0
   20.1625   25.2649    0.3683 C   0  0  2  0  0  0  0  0  0  0  0  0
   20.7915   24.2472    1.2955 N   0  0  0  0  0  0  0  0  0  0  0  0
   18.4243   28.3322   -1.9983 C   0  0  2  0  0  0  0  0  0  0  0  0
   19.2388   31.1998   -1.7058 C   0  0  1  0  0  0  0  0  0  0  0  0
   17.9796   30.5772   -1.5298 O   0  0  0  0  0  0  0  0  0  0  0  0
   20.3498   24.8641   -1.0909 C   0  0  1  0  0  0  0  0  0  0  0  0
   19.7226   23.5124   -1.1981 O   0  0  0  0  0  0  0  0  0  0  0  0
   17.7647   29.6182   -2.4620 C   0  0  2  0  0  0  0  0  0  0  0  0
   19.0268   32.5441   -2.3588 C   0  0  1  0  0  0  0  0  0  0  0  0
   18.4242   32.3707   -3.6332 N   0  0  0  0  0  0  0  0  0  0  0  0
   19.7573   25.8773   -2.0682 C   0  0  2  0  0  0  0  0  0  0  0  0
   19.9037   25.5427   -3.4697 N   0  0  0  0  0  0  0  0  0  0  0  0
   16.3100   29.2416   -2.5563 C   0  0  1  0  0  0  0  0  0  0  0  0
   15.6664   29.4572   -1.2959 O   0  0  0  0  0  0  0  0  0  0  0  0
   18.1097   33.3597   -1.4631 C   0  0  2  0  0  0  0  0  0  0  0  0
   17.8696   34.6275   -2.0337 O   0  0  0  0  0  0  0  0  0  0  0  0
   20.4228   27.2063   -1.8214 C   0  0  1  0  0  0  0  0  0  0  0  0
   19.6817   28.1524   -2.6412 O   0  0  0  0  0  0  0  0  0  0  0  0
   16.3276   27.7906   -2.8672 C   0  0  1  0  0  0  0  0  0  0  0  0
   17.5395   27.2587   -2.3272 O   0  0  0  0  0  0  0  0  0  0  0  0
   18.8180   33.5071   -0.1162 C   0  0  1  0  0  0  0  0  0  0  0  0
   18.0168   34.2569    0.7835 O   0  0  0  0  0  0  0  0  0  0  0  0
   20.1968   27.6515   -0.3513 C   0  0  2  0  0  0  0  0  0  0  0  0
   20.8186   28.9104   -0.1444 O   0  0  0  0  0  0  0  0  0  0  0  0
   19.0861   32.1154    0.4575 C   0  0  1  0  0  0  0  0  0  0  0  0
   19.8909   31.3627   -0.4487 O   0  0  0  0  0  0  0  0  0  0  0  0
   20.8185   26.6109    0.6000 C   0  0  1  0  0  0  0  0  0  0  0  0
   20.6185   27.0076    1.9620 O   0  0  0  0  0  0  0  0  0  0  0  0
   19.8232   32.2613    1.7890 C   0  0  0  0  0  0  0  0  0  0  0  0
   20.1209   30.9719    2.3001 O   0  0  0  0  0  0  0  0  0  0  0  0
   19.0029   22.8971    1.7063 N   0  0  0  0  0  0  0  0  0  0  0  0
   18.2888   25.7977   -4.8186 N   0  0  0  0  0  0  0  0  0  0  0  0
  1  2  1  0  0  0  0
  1 39  1  0  0  0  0
  3  4  1  0  0  0  0
  5  6  1  0  0  0  0
  5 40  1  0  0  0  0
  9 10  1  1  0  0  0
  9 14  1  0  0  0  0
  9 35  1  0  0  0  0
 10  1  1  0  0  0  0
 11 16  1  0  0  0  0
 11 28  1  0  0  0  0
 11 26  1  6  0  0  0
 12 17  1  0  0  0  0
 12 34  1  0  0  0  0
 12 13  1  1  0  0  0
 14 15  1  1  0  0  0
 14 19  1  0  0  0  0
 16 13  1  1  0  0  0
 16 21  1  0  0  0  0
 17 18  1  6  0  0  0
 17 23  1  0  0  0  0
 18  8  1  0  0  0  0
 19 20  1  6  0  0  0
 19 25  1  0  0  0  0
 20  5  1  0  0  0  0
 21  3  1  6  0  0  0
 21 22  1  0  0  0  0
 21 27  1  0  0  0  0
 23 24  1  6  0  0  0
 23 29  1  0  0  0  0
 25 26  1  6  0  0  0
 25 31  1  0  0  0  0
 27  7  1  1  0  0  0
 27 28  1  0  0  0  0
 29 30  1  1  0  0  0
 29 33  1  0  0  0  0
 31 32  1  6  0  0  0
 31 35  1  0  0  0  0
 33 34  1  0  0  0  0
 33 37  1  1  0  0  0
 35 36  1  1  0  0  0
 37 38  1  0  0  0  0
M  END
>  <CHROM.1>
-120.16777026,-109.17104013,160.35104688,102.64755132,83.90668869,-153.38704262
103.90798308,-65.10656434,17.80527231,72.72212822,-177.73185386,18.78313184
28.61523551,-1.24678825,-1.17367527,-1.08340657,0.17560602

>  <Name>
1ntb_lig

>  <RI>
0

>  <Rbt.Current_Directory>
/home/itssahil/PROJECTS/Mol_Feturizer/New_Systems/rnas/1ntb

>  <Rbt.Executable>
rbdock ($Id: //depot/dev/client3/rdock/2013.1/src/exe/rbdock.cxx#4 $)

>  <Rbt.Library>
libRbt.so (2013.1, Build901 2013/11/27)

>  <Rbt.Parameter_File>
/export/apps/rDock/src/rDock_2013.1_src/data/scripts/dock_solv.prm

>  <Rbt.Receptor>
prm/blind_docking_60.prm

>  <SCORE>
-9.48853

>  <SCORE.INTER>
-11.6919

>  <SCORE.INTER.CONST>
1

>  <SCORE.INTER.POLAR>
-1.11939

>  <SCORE.INTER.ROT>
11

>  <SCORE.INTER.SOLV>
15.3638

>  <SCORE.INTER.VDW>
-20.1179

>  <SCORE.INTER.norm>
-0.292298

>  <SCORE.INTRA>
0.335653

>  <SCORE.INTRA.DIHEDRAL>
3.12703

>  <SCORE.INTRA.DIHEDRAL.0>
15.4453

>  <SCORE.INTRA.POLAR>
0

>  <SCORE.INTRA.POLAR.0>
0

>  <SCORE.INTRA.REPUL>
-0.664441

>  <SCORE.INTRA.REPUL.0>
0.823958

>  <SCORE.INTRA.SOLV>
2.59541

>  <SCORE.INTRA.SOLV.lig_0>
-99.3069

>  <SCORE.INTRA.VDW>
0.796644

>  <SCORE.INTRA.VDW.0>
0.946495

>  <SCORE.INTRA.norm>
0.00839132

>  <SCORE.RESTR>
1.86772

>  <SCORE.RESTR.CAVITY>
1.86772

>  <SCORE.RESTR.norm>
0.0466931

>  <SCORE.SYSTEM>
0

>  <SCORE.SYSTEM.CONST>
0

>  <SCORE.SYSTEM.DIHEDRAL>
0

>  <SCORE.SYSTEM.SOLV>
0

>  <SCORE.SYSTEM.norm>
0

>  <SCORE.heavy>
40

>  <SCORE.norm>
-0.237213

>  <RMSD>
17.633

$$$$
1ntb_lig
 OpenBabel11021811403D
libRbt.so/2013.1/901 2013/11/27
 40 42  0  0  0  0  0  0  0  0999 V2000
   19.3372   28.4904    7.3639 C   0  0  0  0  0  0  0  0  0  0  0  0
   20.0627   29.4815    7.7126 N   0  0  0  0  0  0  0  0  0  0  0  0
   19.3036   26.2965   -3.5061 C   0  0  0  0  0  0  0  0  0  0  0  0
   19.9881   27.5382   -3.5016 O   0  0  0  0  0  0  0  0  0  0  0  0
   20.5673   30.1787    1.0375 C   0  0  0  0  0  0  0  0  0  0  0  0
   21.3292   31.1684    1.3410 N   0  0  0  0  0  0  0  0  0  0  0  0
   18.5053   23.6781   -1.7492 C   0  0  0  0  0  0  0  0  0  0  0  0
   13.9593   29.1744   -2.7593 C   0  0  0  0  0  0  0  0  0  0  0  0
   19.1823   28.2846    5.0188 C   0  0  2  0  0  0  0  0  0  0  0  0
   18.5466   28.6983    6.3286 N   0  0  0  0  0  0  0  0  0  0  0  0
   18.7493   26.6489    0.1137 C   0  0  2  0  0  0  0  0  0  0  0  0
   17.6940   28.7912   -2.6167 C   0  0  1  0  0  0  0  0  0  0  0  0
   17.7143   28.1338   -1.3631 O   0  0  0  0  0  0  0  0  0  0  0  0
   18.9986   29.3636    3.9572 C   0  0  1  0  0  0  0  0  0  0  0  0
   19.6213   30.5872    4.5461 O   0  0  0  0  0  0  0  0  0  0  0  0
   18.7597   27.2777   -1.2677 C   0  0  2  0  0  0  0  0  0  0  0  0
   16.4023   29.5628   -2.7376 C   0  0  1  0  0  0  0  0  0  0  0  0
   15.3001   28.6691   -2.6759 N   0  0  0  0  0  0  0  0  0  0  0  0
   19.5980   28.9789    2.6061 C   0  0  2  0  0  0  0  0  0  0  0  0
   19.4552   29.9718    1.5614 N   0  0  0  0  0  0  0  0  0  0  0  0
   18.6018   26.0932   -2.1837 C   0  0  1  0  0  0  0  0  0  0  0  0
   17.2126   25.8250   -2.4011 O   0  0  0  0  0  0  0  0  0  0  0  0
   16.3337   30.5444   -1.5798 C   0  0  2  0  0  0  0  0  0  0  0  0
   15.1360   31.2878   -1.6392 O   0  0  0  0  0  0  0  0  0  0  0  0
   18.9365   27.7046    2.1492 C   0  0  1  0  0  0  0  0  0  0  0  0
   19.6837   27.2992    0.9687 O   0  0  0  0  0  0  0  0  0  0  0  0
   19.2174   24.9686   -1.4362 C   0  0  1  0  0  0  0  0  0  0  0  0
   19.0952   25.2710   -0.0445 O   0  0  0  0  0  0  0  0  0  0  0  0
   17.5429   31.4709   -1.7089 C   0  0  1  0  0  0  0  0  0  0  0  0
   17.5533   32.4191   -0.6531 O   0  0  0  0  0  0  0  0  0  0  0  0
   19.1590   26.5819    3.1980 C   0  0  2  0  0  0  0  0  0  0  0  0
   18.5410   25.3884    2.7420 O   0  0  0  0  0  0  0  0  0  0  0  0
   18.8187   30.6291   -1.6686 C   0  0  1  0  0  0  0  0  0  0  0  0
   18.8061   29.6760   -2.7301 O   0  0  0  0  0  0  0  0  0  0  0  0
   18.5304   27.0033    4.5403 C   0  0  1  0  0  0  0  0  0  0  0  0
   18.7272   25.9766    5.5199 O   0  0  0  0  0  0  0  0  0  0  0  0
   20.0270   31.5518   -1.8301 C   0  0  0  0  0  0  0  0  0  0  0  0
   19.7171   32.5638   -2.7746 O   0  0  0  0  0  0  0  0  0  0  0  0
   19.3532   27.3680    7.9931 N   0  0  0  0  0  0  0  0  0  0  0  0
   20.9129   29.3968    0.1343 N   0  0  0  0  0  0  0  0  0  0  0  0
  1  2  1  0  0  0  0
  1 39  1  0  0  0  0
  3  4  1  0  0  0  0
  5  6  1  0  0  0  0
  5 40  1  0  0  0  0
  9 10  1  1  0  0  0
  9 14  1  0  0  0  0
  9 35  1  0  0  0  0
 10  1  1  0  0  0  0
 11 16  1  0  0  0  0
 11 28  1  0  0  0  0
 11 26  1  1  0  0  0
 12 17  1  0  0  0  0
 12 34  1  0  0  0  0
 12 13  1  1  0  0  0
 14 15  1  1  0  0  0
 14 19  1  0  0  0  0
 16 13  1  1  0  0  0
 16 21  1  0  0  0  0
 17 18  1  1  0  0  0
 17 23  1  0  0  0  0
 18  8  1  0  0  0  0
 19 20  1  6  0  0  0
 19 25  1  0  0  0  0
 20  5  1  0  0  0  0
 21  3  1  6  0  0  0
 21 22  1  0  0  0  0
 21 27  1  0  0  0  0
 23 24  1  6  0  0  0
 23 29  1  0  0  0  0
 25 26  1  6  0  0  0
 25 31  1  0  0  0  0
 27  7  1  1  0  0  0
 27 28  1  0  0  0  0
 29 30  1  1  0  0  0
 29 33  1  0  0  0  0
 31 32  1  6  0  0  0
 31 35  1  0  0  0  0
 33 34  1  0  0  0  0
 33 37  1  6  0  0  0
 35 36  1  1  0  0  0
 37 38  1  0  0  0  0
M  END
>  <CHROM.1>
-133.42110132,93.00156178,126.02123165,171.50923738,177.94354365,179.51029137
129.18824226,-98.48479686,2.97578375,-147.75720367,-38.51796651,18.61034152
28.49987241,0.60591517,-0.04533124,-1.37078255,0.05477231

>  <Name>
1ntb_lig

>  <RI>
0

>  <Rbt.Current_Directory>
/home/itssahil/PROJECTS/Mol_Feturizer/New_Systems/rnas/1ntb

>  <Rbt.Executable>
rbdock ($Id: //depot/dev/client3/rdock/2013.1/src/exe/rbdock.cxx#4 $)

>  <Rbt.Library>
libRbt.so (2013.1, Build901 2013/11/27)

>  <Rbt.Parameter_File>
/export/apps/rDock/src/rDock_2013.1_src/data/scripts/dock_solv.prm

>  <Rbt.Receptor>
prm/blind_docking_40.prm

>  <SCORE>
-6.09667

>  <SCORE.INTER>
-5.92532

>  <SCORE.INTER.CONST>
1

>  <SCORE.INTER.POLAR>
-0.956038

>  <SCORE.INTER.ROT>
11

>  <SCORE.INTER.SOLV>
10.3634

>  <SCORE.INTER.VDW>
-15.1512

>  <SCORE.INTER.norm>
-0.148133

>  <SCORE.INTRA>
-0.673174

>  <SCORE.INTRA.DIHEDRAL>
5.81846

>  <SCORE.INTRA.DIHEDRAL.0>
15.4453

>  <SCORE.INTRA.POLAR>
0

>  <SCORE.INTRA.POLAR.0>
0

>  <SCORE.INTRA.REPUL>
-0.820796

>  <SCORE.INTRA.REPUL.0>
0.823958

>  <SCORE.INTRA.SOLV>
4.2648

>  <SCORE.INTRA.SOLV.lig_0>
-99.3069

>  <SCORE.INTRA.VDW>
-1.61083

>  <SCORE.INTRA.VDW.0>
0.946495

>  <SCORE.INTRA.norm>
-0.0168294

>  <SCORE.RESTR>
0.501822

>  <SCORE.RESTR.CAVITY>
0.501822

>  <SCORE.RESTR.norm>
0.0125456

>  <SCORE.SYSTEM>
0

>  <SCORE.SYSTEM.CONST>
0

>  <SCORE.SYSTEM.DIHEDRAL>
0

>  <SCORE.SYSTEM.SOLV>
0

>  <SCORE.SYSTEM.norm>
0

>  <SCORE.heavy>
40

>  <SCORE.norm>
-0.152417

>  <RMSD>
17.635

$$$$
1ntb_lig
 OpenBabel11021811403D
libRbt.so/2013.1/901 2013/11/27
 40 42  0  0  0  0  0  0  0  0999 V2000
   11.2485   31.5293   -2.9742 C   0  0  0  0  0  0  0  0  0  0  0  0
   11.0732   31.4240   -4.2345 N   0  0  0  0  0  0  0  0  0  0  0  0
   21.8581   30.7800   -0.4683 C   0  0  0  0  0  0  0  0  0  0  0  0
   21.7630   31.6078   -1.6155 O   0  0  0  0  0  0  0  0  0  0  0  0
   15.5664   27.0566   -2.7679 C   0  0  0  0  0  0  0  0  0  0  0  0
   14.8130   26.2319   -2.1320 N   0  0  0  0  0  0  0  0  0  0  0  0
   19.8523   32.0154    1.7746 C   0  0  0  0  0  0  0  0  0  0  0  0
   22.9741   27.6833    0.1945 C   0  0  0  0  0  0  0  0  0  0  0  0
   13.3771   30.5764   -2.6183 C   0  0  2  0  0  0  0  0  0  0  0  0
   11.8803   30.5237   -2.4000 N   0  0  0  0  0  0  0  0  0  0  0  0
   18.2436   30.1462   -0.7301 C   0  0  2  0  0  0  0  0  0  0  0  0
   20.7420   27.8344   -1.7816 C   0  0  1  0  0  0  0  0  0  0  0  0
   19.7453   28.3680   -0.9296 O   0  0  0  0  0  0  0  0  0  0  0  0
   14.0215   29.2280   -2.3159 C   0  0  1  0  0  0  0  0  0  0  0  0
   13.3336   28.2643   -3.2268 O   0  0  0  0  0  0  0  0  0  0  0  0
   19.6654   29.7156   -1.0413 C   0  0  2  0  0  0  0  0  0  0  0  0
   21.2568   26.5498   -1.1788 C   0  0  1  0  0  0  0  0  0  0  0  0
   21.8377   26.8125    0.0904 N   0  0  0  0  0  0  0  0  0  0  0  0
   15.5385   29.2390   -2.4928 C   0  0  2  0  0  0  0  0  0  0  0  0
   16.2015   27.9801   -2.2223 N   0  0  0  0  0  0  0  0  0  0  0  0
   20.4744   30.4165    0.0176 C   0  0  1  0  0  0  0  0  0  0  0  0
   20.5644   29.5961    1.1872 O   0  0  0  0  0  0  0  0  0  0  0  0
   20.0791   25.6031   -1.0192 C   0  0  2  0  0  0  0  0  0  0  0  0
   20.5046   24.3852   -0.4481 O   0  0  0  0  0  0  0  0  0  0  0  0
   16.1070   30.2871   -1.5717 C   0  0  1  0  0  0  0  0  0  0  0  0
   17.5139   30.3757   -1.9309 O   0  0  0  0  0  0  0  0  0  0  0  0
   19.6930   31.6405    0.3239 C   0  0  1  0  0  0  0  0  0  0  0  0
   18.3229   31.3474    0.0408 O   0  0  0  0  0  0  0  0  0  0  0  0
   19.5062   25.3651   -2.4165 C   0  0  1  0  0  0  0  0  0  0  0  0
   18.3913   24.4896   -2.3503 O   0  0  0  0  0  0  0  0  0  0  0  0
   15.4969   31.6759   -1.9021 C   0  0  2  0  0  0  0  0  0  0  0  0
   16.0557   32.6495   -1.0338 O   0  0  0  0  0  0  0  0  0  0  0  0
   19.0825   26.7074   -3.0135 C   0  0  1  0  0  0  0  0  0  0  0  0
   20.2043   27.5864   -3.0784 O   0  0  0  0  0  0  0  0  0  0  0  0
   13.9702   31.6256   -1.7000 C   0  0  1  0  0  0  0  0  0  0  0  0
   13.3914   32.9010   -2.0010 O   0  0  0  0  0  0  0  0  0  0  0  0
   18.5393   26.4738   -4.4235 C   0  0  0  0  0  0  0  0  0  0  0  0
   17.9403   27.6698   -4.8958 O   0  0  0  0  0  0  0  0  0  0  0  0
   10.8168   32.5360   -2.2989 N   0  0  0  0  0  0  0  0  0  0  0  0
   15.7298   26.9144   -3.9926 N   0  0  0  0  0  0  0  0  0  0  0  0
  1  2  1  0  0  0  0
  1 39  1  0  0  0  0
  3  4  1  0  0  0  0
  5  6  1  0  0  0  0
  5 40  1  0  0  0  0
  9 10  1  1  0  0  0
  9 14  1  0  0  0  0
  9 35  1  0  0  0  0
 10  1  1  0  0  0  0
 11 16  1  0  0  0  0
 11 28  1  0  0  0  0
 11 26  1  6  0  0  0
 12 17  1  0  0  0  0
 12 34  1  0  0  0  0
 12 13  1  1  0  0  0
 14 15  1  6  0  0  0
 14 19  1  0  0  0  0
 16 13  1  1  0  0  0
 16 21  1  0  0  0  0
 17 18  1  1  0  0  0
 17 23  1  0  0  0  0
 18  8  1  0  0  0  0
 19 20  1  1  0  0  0
 19 25  1  0  0  0  0
 20  5  1  0  0  0  0
 21  3  1  6  0  0  0
 21 22  1  0  0  0  0
 21 27  1  0  0  0  0
 23 24  1  6  0  0  0
 23 29  1  0  0  0  0
 25 26  1  6  0  0  0
 25 31  1  0  0  0  0
 27  7  1  1  0  0  0
 27 28  1  0  0  0  0
 29 30  1  1  0  0  0
 29 33  1  0  0  0  0
 31 32  1  1  0  0  0
 31 35  1  0  0  0  0
 33 34  1  0  0  0  0
 33 37  1  6  0  0  0
 35 36  1  6  0  0  0
 37 38  1  0  0  0  0
M  END
>  <CHROM.1>
-163.21732316,78.21495310,159.38023435,152.56305427,151.21004689,-61.62089234
45.26436172,-104.66236789,58.00809891,-124.48579935,170.29481816,17.47747193
29.09499958,-1.73134092,2.86856710,-0.34045411,0.37912350

>  <Name>
1ntb_lig

>  <RI>
0

>  <Rbt.Current_Directory>
/home/itssahil/PROJECTS/Mol_Feturizer/New_Systems/rnas/1ntb

>  <Rbt.Executable>
rbdock ($Id: //depot/dev/client3/rdock/2013.1/src/exe/rbdock.cxx#4 $)

>  <Rbt.Library>
libRbt.so (2013.1, Build901 2013/11/27)

>  <Rbt.Parameter_File>
/export/apps/rDock/src/rDock_2013.1_src/data/scripts/dock_solv.prm

>  <Rbt.Receptor>
prm/blind_docking_80.prm

>  <SCORE>
2.07713

>  <SCORE.INTER>
3.39646

>  <SCORE.INTER.CONST>
1

>  <SCORE.INTER.POLAR>
-2.40551

>  <SCORE.INTER.ROT>
11

>  <SCORE.INTER.SOLV>
29.6454

>  <SCORE.INTER.VDW>
-10.5325

>  <SCORE.INTER.norm>
0.0849115

>  <SCORE.INTRA>
-3.16154

>  <SCORE.INTRA.DIHEDRAL>
1.93555

>  <SCORE.INTRA.DIHEDRAL.0>
15.4453

>  <SCORE.INTRA.POLAR>
0

>  <SCORE.INTRA.POLAR.0>
0

>  <SCORE.INTRA.REPUL>
-0.823958

>  <SCORE.INTRA.REPUL.0>
0.823958

>  <SCORE.INTRA.SOLV>
4.47824

>  <SCORE.INTRA.SOLV.lig_0>
-99.3069

>  <SCORE.INTRA.VDW>
-2.24865

>  <SCORE.INTRA.VDW.0>
0.946495

>  <SCORE.INTRA.norm>
-0.0790385

>  <SCORE.RESTR>
1.84221

>  <SCORE.RESTR.CAVITY>
1.84221

>  <SCORE.RESTR.norm>
0.0460551

>  <SCORE.SYSTEM>
0

>  <SCORE.SYSTEM.CONST>
0

>  <SCORE.SYSTEM.DIHEDRAL>
0

>  <SCORE.SYSTEM.SOLV>
0

>  <SCORE.SYSTEM.norm>
0

>  <SCORE.heavy>
40

>  <SCORE.norm>
0.0519281

>  <RMSD>
17.647

$$$$
1ntb_lig
 OpenBabel11021811403D
libRbt.so/2013.1/901 2013/11/27
 40 42  0  0  0  0  0  0  0  0999 V2000
   17.5597   35.7470   -2.5122 C   0  0  0  0  0  0  0  0  0  0  0  0
   17.3281   35.0974   -3.5868 N   0  0  0  0  0  0  0  0  0  0  0  0
   21.3068   25.7076   -0.0994 C   0  0  0  0  0  0  0  0  0  0  0  0
   22.1821   26.2639   -1.0661 O   0  0  0  0  0  0  0  0  0  0  0  0
   15.8801   29.8732   -1.5691 C   0  0  0  0  0  0  0  0  0  0  0  0
   15.2159   30.5935   -2.4009 N   0  0  0  0  0  0  0  0  0  0  0  0
   21.1399   27.8706    2.3242 C   0  0  0  0  0  0  0  0  0  0  0  0
   17.8561   22.9110   -0.2447 C   0  0  0  0  0  0  0  0  0  0  0  0
   18.3751   33.6149   -1.9163 C   0  0  2  0  0  0  0  0  0  0  0  0
   18.1631   35.0693   -1.5547 N   0  0  0  0  0  0  0  0  0  0  0  0
   19.1443   28.6621   -0.4591 C   0  0  2  0  0  0  0  0  0  0  0  0
   18.3970   25.5147   -1.9280 C   0  0  1  0  0  0  0  0  0  0  0  0
   18.2977   26.5433   -0.9604 O   0  0  0  0  0  0  0  0  0  0  0  0
   17.4108   32.7152   -1.1510 C   0  0  1  0  0  0  0  0  0  0  0  0
   16.0515   33.2145   -1.5180 O   0  0  0  0  0  0  0  0  0  0  0  0
   19.4606   27.2276   -0.8413 C   0  0  2  0  0  0  0  0  0  0  0  0
   17.1571   24.6572   -1.8515 C   0  0  1  0  0  0  0  0  0  0  0  0
   17.0616   24.0626   -0.5652 N   0  0  0  0  0  0  0  0  0  0  0  0
   17.6065   31.2323   -1.4598 C   0  0  2  0  0  0  0  0  0  0  0  0
   16.7118   30.3323   -0.7619 N   0  0  0  0  0  0  0  0  0  0  0  0
   20.2846   26.7382    0.3200 C   0  0  1  0  0  0  0  0  0  0  0  0
   19.4295   26.1980    1.3330 O   0  0  0  0  0  0  0  0  0  0  0  0
   15.9537   25.5522   -2.0949 C   0  0  2  0  0  0  0  0  0  0  0  0
   14.7623   24.7997   -2.0244 O   0  0  0  0  0  0  0  0  0  0  0  0
   19.0248   30.8664   -1.1067 C   0  0  1  0  0  0  0  0  0  0  0  0
   19.1942   29.5092   -1.6022 O   0  0  0  0  0  0  0  0  0  0  0  0
   20.9567   27.9586    0.8312 C   0  0  1  0  0  0  0  0  0  0  0  0
   20.1183   29.0693    0.5046 O   0  0  0  0  0  0  0  0  0  0  0  0
   16.1215   26.1548   -3.4899 C   0  0  1  0  0  0  0  0  0  0  0  0
   15.0327   27.0137   -3.7909 O   0  0  0  0  0  0  0  0  0  0  0  0
   20.0192   31.7408   -1.9172 C   0  0  2  0  0  0  0  0  0  0  0  0
   21.3473   31.3707   -1.5805 O   0  0  0  0  0  0  0  0  0  0  0  0
   17.4339   26.9380   -3.5367 C   0  0  1  0  0  0  0  0  0  0  0  0
   18.5272   26.0732   -3.2331 O   0  0  0  0  0  0  0  0  0  0  0  0
   19.7974   33.2253   -1.5684 C   0  0  1  0  0  0  0  0  0  0  0  0
   20.7085   34.0463   -2.3088 O   0  0  0  0  0  0  0  0  0  0  0  0
   17.6179   27.5139   -4.9410 C   0  0  0  0  0  0  0  0  0  0  0  0
   17.5541   26.4600   -5.8885 O   0  0  0  0  0  0  0  0  0  0  0  0
   17.2070   36.9748   -2.3581 N   0  0  0  0  0  0  0  0  0  0  0  0
   15.6608   28.6505   -1.5095 N   0  0  0  0  0  0  0  0  0  0  0  0
  1  2  1  0  0  0  0
  1 39  1  0  0  0  0
  3  4  1  0  0  0  0
  5  6  1  0  0  0  0
  5 40  1  0  0  0  0
  9 10  1  1  0  0  0
  9 14  1  0  0  0  0
  9 35  1  0  0  0  0
 10  1  1  0  0  0  0
 11 16  1  0  0  0  0
 11 28  1  0  0  0  0
 11 26  1  6  0  0  0
 12 17  1  0  0  0  0
 12 34  1  0  0  0  0
 12 13  1  1  0  0  0
 14 15  1  6  0  0  0
 14 19  1  0  0  0  0
 16 13  1  1  0  0  0
 16 21  1  0  0  0  0
 17 18  1  1  0  0  0
 17 23  1  0  0  0  0
 18  8  1  0  0  0  0
 19 20  1  1  0  0  0
 19 25  1  0  0  0  0
 20  5  1  0  0  0  0
 21  3  1  6  0  0  0
 21 22  1  0  0  0  0
 21 27  1  0  0  0  0
 23 24  1  6  0  0  0
 23 29  1  0  0  0  0
 25 26  1  6  0  0  0
 25 31  1  0  0  0  0
 27  7  1  1  0  0  0
 27 28  1  0  0  0  0
 29 30  1  1  0  0  0
 29 33  1  0  0  0  0
 31 32  1  1  0  0  0
 31 35  1  0  0  0  0
 33 34  1  0  0  0  0
 33 37  1  6  0  0  0
 35 36  1  6  0  0  0
 37 38  1  0  0  0  0
M  END
>  <CHROM.1>
-106.19255872,-3.67245155,-173.89543878,170.91663833,149.06361377,-78.85988727
107.91089042,-48.03738748,59.37056762,-104.24622291,-55.57434309,18.24193065
29.04803339,-1.60793400,1.55569774,-0.59421191,-0.07644449

>  <Name>
1ntb_lig

>  <RI>
0

>  <Rbt.Current_Directory>
/home/itssahil/PROJECTS/Mol_Feturizer/New_Systems/rnas/1ntb

>  <Rbt.Executable>
rbdock ($Id: //depot/dev/client3/rdock/2013.1/src/exe/rbdock.cxx#4 $)

>  <Rbt.Library>
libRbt.so (2013.1, Build901 2013/11/27)

>  <Rbt.Parameter_File>
/export/apps/rDock/src/rDock_2013.1_src/data/scripts/dock_solv.prm

>  <Rbt.Receptor>
prm/blind_docking_80.prm

>  <SCORE>
-9.32385

>  <SCORE.INTER>
-2.18671

>  <SCORE.INTER.CONST>
1

>  <SCORE.INTER.POLAR>
-0.594428

>  <SCORE.INTER.ROT>
11

>  <SCORE.INTER.SOLV>
30.1481

>  <SCORE.INTER.VDW>
-20.4591

>  <SCORE.INTER.norm>
-0.0546679

>  <SCORE.INTRA>
-7.13713

>  <SCORE.INTRA.DIHEDRAL>
-1.41496

>  <SCORE.INTRA.DIHEDRAL.0>
15.4453

>  <SCORE.INTRA.POLAR>
0

>  <SCORE.INTRA.POLAR.0>
0

>  <SCORE.INTRA.REPUL>
-0.823958

>  <SCORE.INTRA.REPUL.0>
0.823958

>  <SCORE.INTRA.SOLV>
3.37671

>  <SCORE.INTRA.SOLV.lig_0>
-99.3069

>  <SCORE.INTRA.VDW>
-3.99822

>  <SCORE.INTRA.VDW.0>
0.946495

>  <SCORE.INTRA.norm>
-0.178428

>  <SCORE.RESTR>
0

>  <SCORE.RESTR.CAVITY>
0

>  <SCORE.RESTR.norm>
0

>  <SCORE.SYSTEM>
0

>  <SCORE.SYSTEM.CONST>
0

>  <SCORE.SYSTEM.DIHEDRAL>
0

>  <SCORE.SYSTEM.SOLV>
0

>  <SCORE.SYSTEM.norm>
0

>  <SCORE.heavy>
40

>  <SCORE.norm>
-0.233096

>  <RMSD>
17.649

$$$$
1ntb_lig
 OpenBabel11021811403D
libRbt.so/2013.1/901 2013/11/27
 40 42  0  0  0  0  0  0  0  0999 V2000
   21.3207   24.0251    4.6939 C   0  0  0  0  0  0  0  0  0  0  0  0
   22.2427   23.2417    4.2858 N   0  0  0  0  0  0  0  0  0  0  0  0
   17.0232   28.6844   -4.3197 C   0  0  0  0  0  0  0  0  0  0  0  0
   18.1137   27.9410   -4.8378 O   0  0  0  0  0  0  0  0  0  0  0  0
   20.6337   29.1192    1.9539 C   0  0  0  0  0  0  0  0  0  0  0  0
   21.7188   28.7037    2.5034 N   0  0  0  0  0  0  0  0  0  0  0  0
   15.3629   26.1308   -3.1783 C   0  0  0  0  0  0  0  0  0  0  0  0
   20.6834   28.8559   -1.9220 C   0  0  0  0  0  0  0  0  0  0  0  0
   20.1963   24.7567    2.7532 C   0  0  2  0  0  0  0  0  0  0  0  0
   20.1793   23.9541    4.0363 N   0  0  0  0  0  0  0  0  0  0  0  0
   17.6693   27.4902   -0.9005 C   0  0  2  0  0  0  0  0  0  0  0  0
   18.4131   30.4055   -0.6592 C   0  0  1  0  0  0  0  0  0  0  0  0
   17.3127   29.7673   -1.2804 O   0  0  0  0  0  0  0  0  0  0  0  0
   19.8811   26.2241    3.0220 C   0  0  1  0  0  0  0  0  0  0  0  0
   20.9224   26.6646    3.9985 O   0  0  0  0  0  0  0  0  0  0  0  0
   17.6884   28.6265   -1.9066 C   0  0  2  0  0  0  0  0  0  0  0  0
   19.3400   30.9244   -1.7316 C   0  0  1  0  0  0  0  0  0  0  0  0
   19.8250   29.8424   -2.5136 N   0  0  0  0  0  0  0  0  0  0  0  0
   19.8565   27.0711    1.7514 C   0  0  2  0  0  0  0  0  0  0  0  0
   19.5659   28.4759    1.9506 N   0  0  0  0  0  0  0  0  0  0  0  0
   16.6782   28.1903   -2.9343 C   0  0  1  0  0  0  0  0  0  0  0  0
   15.3733   28.6456   -2.5612 O   0  0  0  0  0  0  0  0  0  0  0  0
   18.5503   31.8802   -2.6100 C   0  0  2  0  0  0  0  0  0  0  0  0
   19.3701   32.3890   -3.6394 O   0  0  0  0  0  0  0  0  0  0  0  0
   18.8164   26.4936    0.8268 C   0  0  1  0  0  0  0  0  0  0  0  0
   18.9829   27.2205   -0.4222 O   0  0  0  0  0  0  0  0  0  0  0  0
   16.7237   26.7077   -2.8850 C   0  0  1  0  0  0  0  0  0  0  0  0
   17.1372   26.3426   -1.5663 O   0  0  0  0  0  0  0  0  0  0  0  0
   18.0621   33.0140   -1.7080 C   0  0  1  0  0  0  0  0  0  0  0  0
   17.3059   33.9512   -2.4587 O   0  0  0  0  0  0  0  0  0  0  0  0
   19.1529   25.0128    0.5036 C   0  0  2  0  0  0  0  0  0  0  0  0
   18.1701   24.4931   -0.3786 O   0  0  0  0  0  0  0  0  0  0  0  0
   17.2019   32.4228   -0.5907 C   0  0  1  0  0  0  0  0  0  0  0  0
   17.9634   31.4803    0.1623 O   0  0  0  0  0  0  0  0  0  0  0  0
   19.1557   24.1920    1.8076 C   0  0  1  0  0  0  0  0  0  0  0  0
   19.4646   22.8217    1.5261 O   0  0  0  0  0  0  0  0  0  0  0  0
   16.7399   33.5525    0.3301 C   0  0  0  0  0  0  0  0  0  0  0  0
   17.7975   34.4844    0.4904 O   0  0  0  0  0  0  0  0  0  0  0  0
   21.4957   24.8500    5.6657 N   0  0  0  0  0  0  0  0  0  0  0  0
   20.6064   30.2486    1.4339 N   0  0  0  0  0  0  0  0  0  0  0  0
  1  2  1  0  0  0  0
  1 39  1  0  0  0  0
  3  4  1  0  0  0  0
  5  6  1  0  0  0  0
  5 40  1  0  0  0  0
  9 10  1  1  0  0  0
  9 14  1  0  0  0  0
  9 35  1  0  0  0  0
 10  1  1  0  0  0  0
 11 16  1  0  0  0  0
 11 28  1  0  0  0  0
 11 26  1  6  0  0  0
 12 17  1  0  0  0  0
 12 34  1  0  0  0  0
 12 13  1  6  0  0  0
 14 15  1  1  0  0  0
 14 19  1  0  0  0  0
 16 13  1  1  0  0  0
 16 21  1  0  0  0  0
 17 18  1  6  0  0  0
 17 23  1  0  0  0  0
 18  8  1  0  0  0  0
 19 20  1  1  0  0  0
 19 25  1  0  0  0  0
 20  5  1  0  0  0  0
 21  3  1  6  0  0  0
 21 22  1  0  0  0  0
 21 27  1  0  0  0  0
 23 24  1  6  0  0  0
 23 29  1  0  0  0  0
 25 26  1  6  0  0  0
 25 31  1  0  0  0  0
 27  7  1  1  0  0  0
 27 28  1  0  0  0  0
 29 30  1  6  0  0  0
 29 33  1  0  0  0  0
 31 32  1  6  0  0  0
 31 35  1  0  0  0  0
 33 34  1  0  0  0  0
 33 37  1  1  0  0  0
 35 36  1  6  0  0  0
 37 38  1  0  0  0  0
M  END
>  <CHROM.1>
-83.43231357,-81.71514411,160.38008615,68.22785087,86.01765294,-65.96401408
98.74613054,-39.20235406,73.80223880,-138.85749454,-38.70638238,18.79149948
28.26192744,-0.07726490,-0.91120864,-1.04503231,-0.07223325

>  <Name>
1ntb_lig

>  <RI>
0

>  <Rbt.Current_Directory>
/home/itssahil/PROJECTS/Mol_Feturizer/New_Systems/rnas/1ntb

>  <Rbt.Executable>
rbdock ($Id: //depot/dev/client3/rdock/2013.1/src/exe/rbdock.cxx#4 $)

>  <Rbt.Library>
libRbt.so (2013.1, Build901 2013/11/27)

>  <Rbt.Parameter_File>
/export/apps/rDock/src/rDock_2013.1_src/data/scripts/dock_solv.prm

>  <Rbt.Receptor>
prm/blind_docking_80.prm

>  <SCORE>
7.17632

>  <SCORE.INTER>
4.18494

>  <SCORE.INTER.CONST>
1

>  <SCORE.INTER.POLAR>
-0.829905

>  <SCORE.INTER.ROT>
11

>  <SCORE.INTER.SOLV>
23.89

>  <SCORE.INTER.VDW>
-13.3404

>  <SCORE.INTER.norm>
0.104624

>  <SCORE.INTRA>
-1.55065

>  <SCORE.INTRA.DIHEDRAL>
0.0686788

>  <SCORE.INTRA.DIHEDRAL.0>
15.4453

>  <SCORE.INTRA.POLAR>
0

>  <SCORE.INTRA.POLAR.0>
0

>  <SCORE.INTRA.REPUL>
-0.820314

>  <SCORE.INTRA.REPUL.0>
0.823958

>  <SCORE.INTRA.SOLV>
3.65091

>  <SCORE.INTRA.SOLV.lig_0>
-99.3069

>  <SCORE.INTRA.VDW>
0.691125

>  <SCORE.INTRA.VDW.0>
0.946495

>  <SCORE.INTRA.norm>
-0.0387663

>  <SCORE.RESTR>
4.54203

>  <SCORE.RESTR.CAVITY>
4.54203

>  <SCORE.RESTR.norm>
0.113551

>  <SCORE.SYSTEM>
0

>  <SCORE.SYSTEM.CONST>
0

>  <SCORE.SYSTEM.DIHEDRAL>
0

>  <SCORE.SYSTEM.SOLV>
0

>  <SCORE.SYSTEM.norm>
0

>  <SCORE.heavy>
40

>  <SCORE.norm>
0.179408

>  <RMSD>
17.651

$$$$
1ntb_lig
 OpenBabel11021811403D
libRbt.so/2013.1/901 2013/11/27
 40 42  0  0  0  0  0  0  0  0999 V2000
   18.8473   25.4475    5.8453 C   0  0  0  0  0  0  0  0  0  0  0  0
   20.1009   25.4465    6.0876 N   0  0  0  0  0  0  0  0  0  0  0  0
   19.6176   26.5266   -4.8909 C   0  0  0  0  0  0  0  0  0  0  0  0
   20.0424   25.5023   -5.7744 O   0  0  0  0  0  0  0  0  0  0  0  0
   19.7579   29.9854    0.7643 C   0  0  0  0  0  0  0  0  0  0  0  0
   20.2186   30.9000    1.5411 N   0  0  0  0  0  0  0  0  0  0  0  0
   19.8752   23.6074   -3.4796 C   0  0  0  0  0  0  0  0  0  0  0  0
   14.9769   26.2589   -2.5838 C   0  0  0  0  0  0  0  0  0  0  0  0
   19.0538   26.6485    3.8252 C   0  0  2  0  0  0  0  0  0  0  0  0
   18.3958   26.4929    5.1794 N   0  0  0  0  0  0  0  0  0  0  0  0
   18.9782   26.2005   -1.2827 C   0  0  2  0  0  0  0  0  0  0  0  0
   17.1410   27.9577   -3.8675 C   0  0  1  0  0  0  0  0  0  0  0  0
   17.4545   27.3544   -2.6259 O   0  0  0  0  0  0  0  0  0  0  0  0
   18.5689   27.9126    3.1238 C   0  0  1  0  0  0  0  0  0  0  0  0
   18.9041   29.0230    4.0654 O   0  0  0  0  0  0  0  0  0  0  0  0
   18.7467   26.9502   -2.5820 C   0  0  2  0  0  0  0  0  0  0  0  0
   15.6574   28.2326   -3.9109 C   0  0  1  0  0  0  0  0  0  0  0  0
   14.9384   27.0123   -3.8049 N   0  0  0  0  0  0  0  0  0  0  0  0
   19.1829   28.0982    1.7378 C   0  0  2  0  0  0  0  0  0  0  0  0
   18.7591   29.2877    1.0283 N   0  0  0  0  0  0  0  0  0  0  0  0
   19.0479   25.9145   -3.6325 C   0  0  1  0  0  0  0  0  0  0  0  0
   17.8637   25.1716   -3.9404 O   0  0  0  0  0  0  0  0  0  0  0  0
   15.3144   29.1351   -2.7377 C   0  0  2  0  0  0  0  0  0  0  0  0
   13.9319   29.4164   -2.7250 O   0  0  0  0  0  0  0  0  0  0  0  0
   18.8281   26.8930    0.9061 C   0  0  1  0  0  0  0  0  0  0  0  0
   19.5979   27.0454   -0.3188 O   0  0  0  0  0  0  0  0  0  0  0  0
   20.0454   25.0225   -2.9909 C   0  0  1  0  0  0  0  0  0  0  0  0
   19.8204   25.0846   -1.5806 O   0  0  0  0  0  0  0  0  0  0  0  0
   16.1186   30.4230   -2.9162 C   0  0  1  0  0  0  0  0  0  0  0  0
   15.8558   31.3210   -1.8494 O   0  0  0  0  0  0  0  0  0  0  0  0
   19.3606   25.6016    1.5836 C   0  0  2  0  0  0  0  0  0  0  0  0
   19.0286   24.4813    0.7780 O   0  0  0  0  0  0  0  0  0  0  0  0
   17.6073   30.0763   -2.9534 C   0  0  1  0  0  0  0  0  0  0  0  0
   17.8695   29.1728   -4.0259 O   0  0  0  0  0  0  0  0  0  0  0  0
   18.7091   25.4453    2.9712 C   0  0  1  0  0  0  0  0  0  0  0  0
   19.1904   24.2568    3.6100 O   0  0  0  0  0  0  0  0  0  0  0  0
   18.4104   31.3601   -3.1642 C   0  0  0  0  0  0  0  0  0  0  0  0
   18.2834   31.7720   -4.5158 O   0  0  0  0  0  0  0  0  0  0  0  0
   18.0663   24.5059    6.2443 N   0  0  0  0  0  0  0  0  0  0  0  0
   20.2897   29.8015   -0.3447 N   0  0  0  0  0  0  0  0  0  0  0  0
  1  2  1  0  0  0  0
  1 39  1  0  0  0  0
  3  4  1  0  0  0  0
  5  6  1  0  0  0  0
  5 40  1  0  0  0  0
  9 10  1  1  0  0  0
  9 14  1  0  0  0  0
  9 35  1  0  0  0  0
 10  1  1  0  0  0  0
 11 16  1  0  0  0  0
 11 28  1  0  0  0  0
 11 26  1  1  0  0  0
 12 17  1  0  0  0  0
 12 34  1  0  0  0  0
 12 13  1  1  0  0  0
 14 15  1  1  0  0  0
 14 19  1  0  0  0  0
 16 13  1  1  0  0  0
 16 21  1  0  0  0  0
 17 18  1  1  0  0  0
 17 23  1  0  0  0  0
 18  8  1  0  0  0  0
 19 20  1  6  0  0  0
 19 25  1  0  0  0  0
 20  5  1  0  0  0  0
 21  3  1  6  0  0  0
 21 22  1  0  0  0  0
 21 27  1  0  0  0  0
 23 24  1  6  0  0  0
 23 29  1  0  0  0  0
 25 26  1  6  0  0  0
 25 31  1  0  0  0  0
 27  7  1  6  0  0  0
 27 28  1  0  0  0  0
 29 30  1  1  0  0  0
 29 33  1  0  0  0  0
 31 32  1  6  0  0  0
 31 35  1  0  0  0  0
 33 34  1  0  0  0  0
 33 37  1  6  0  0  0
 35 36  1  1  0  0  0
 37 38  1  0  0  0  0
M  END
>  <CHROM.1>
-176.52708431,59.44008592,131.34882230,173.32862240,-174.76191307,67.15150192
121.16265260,-90.00747018,172.48768240,-161.32913272,-74.66382531,18.30089814
27.41475452,-0.63223998,0.89183468,-1.23631036,1.19061297

>  <Name>
1ntb_lig

>  <RI>
0

>  <Rbt.Current_Directory>
/home/itssahil/PROJECTS/Mol_Feturizer/New_Systems/rnas/1ntb

>  <Rbt.Executable>
rbdock ($Id: //depot/dev/client3/rdock/2013.1/src/exe/rbdock.cxx#4 $)

>  <Rbt.Library>
libRbt.so (2013.1, Build901 2013/11/27)

>  <Rbt.Parameter_File>
/export/apps/rDock/src/rDock_2013.1_src/data/scripts/dock_solv.prm

>  <Rbt.Receptor>
prm/blind_docking_100.prm

>  <SCORE>
-19.7349

>  <SCORE.INTER>
-19.6755

>  <SCORE.INTER.CONST>
1

>  <SCORE.INTER.POLAR>
-2.51471

>  <SCORE.INTER.ROT>
11

>  <SCORE.INTER.SOLV>
13.2758

>  <SCORE.INTER.VDW>
-20.0932

>  <SCORE.INTER.norm>
-0.491887

>  <SCORE.INTRA>
-3.77664

>  <SCORE.INTRA.DIHEDRAL>
-3.26584

>  <SCORE.INTRA.DIHEDRAL.0>
15.4453

>  <SCORE.INTRA.POLAR>
0

>  <SCORE.INTRA.POLAR.0>
0

>  <SCORE.INTRA.REPUL>
-0.823958

>  <SCORE.INTRA.REPUL.0>
0.823958

>  <SCORE.INTRA.SOLV>
0.183956

>  <SCORE.INTRA.SOLV.lig_0>
-99.3069

>  <SCORE.INTRA.VDW>
1.88409

>  <SCORE.INTRA.VDW.0>
0.946495

>  <SCORE.INTRA.norm>
-0.094416

>  <SCORE.RESTR>
3.71723

>  <SCORE.RESTR.CAVITY>
3.71723

>  <SCORE.RESTR.norm>
0.0929307

>  <SCORE.SYSTEM>
0

>  <SCORE.SYSTEM.CONST>
0

>  <SCORE.SYSTEM.DIHEDRAL>
0

>  <SCORE.SYSTEM.SOLV>
0

>  <SCORE.SYSTEM.norm>
0

>  <SCORE.heavy>
40

>  <SCORE.norm>
-0.493372

>  <RMSD>
17.667

$$$$
1ntb_lig
 OpenBabel11021811403D
libRbt.so/2013.1/901 2013/11/27
 40 42  0  0  0  0  0  0  0  0999 V2000
   12.0094   32.1724   -1.7120 C   0  0  0  0  0  0  0  0  0  0  0  0
   12.0444   32.1105   -0.4372 N   0  0  0  0  0  0  0  0  0  0  0  0
   18.0974   24.0404   -2.1822 C   0  0  0  0  0  0  0  0  0  0  0  0
   17.2020   24.1225   -1.0859 O   0  0  0  0  0  0  0  0  0  0  0  0
   18.5221   31.6520   -0.7066 C   0  0  0  0  0  0  0  0  0  0  0  0
   18.4663   32.9147   -0.4729 N   0  0  0  0  0  0  0  0  0  0  0  0
   17.1670   25.5182   -4.9263 C   0  0  0  0  0  0  0  0  0  0  0  0
   22.4455   24.3050   -1.9029 C   0  0  0  0  0  0  0  0  0  0  0  0
   14.1860   31.2623   -1.7081 C   0  0  2  0  0  0  0  0  0  0  0  0
   13.1826   32.2203   -2.3134 N   0  0  0  0  0  0  0  0  0  0  0  0
   17.9836   27.7154   -2.3069 C   0  0  2  0  0  0  0  0  0  0  0  0
   20.3505   25.8310   -0.4069 C   0  0  1  0  0  0  0  0  0  0  0  0
   19.8826   26.6468   -1.4650 O   0  0  0  0  0  0  0  0  0  0  0  0
   15.6138   31.6965   -2.0210 C   0  0  1  0  0  0  0  0  0  0  0  0
   15.7214   33.0796   -1.4668 O   0  0  0  0  0  0  0  0  0  0  0  0
   18.5621   26.4522   -1.6959 C   0  0  2  0  0  0  0  0  0  0  0  0
   21.8369   26.0443   -0.2524 C   0  0  1  0  0  0  0  0  0  0  0  0
   22.5044   25.6648   -1.4473 N   0  0  0  0  0  0  0  0  0  0  0  0
   16.6644   30.7427   -1.4561 C   0  0  2  0  0  0  0  0  0  0  0  0
   18.0398   31.1111   -1.7209 N   0  0  0  0  0  0  0  0  0  0  0  0
   18.3245   25.4166   -2.7628 C   0  0  1  0  0  0  0  0  0  0  0  0
   19.4292   25.3896   -3.6727 O   0  0  0  0  0  0  0  0  0  0  0  0
   22.0716   27.5203    0.0211 C   0  0  2  0  0  0  0  0  0  0  0  0
   23.4514   27.7777    0.1645 O   0  0  0  0  0  0  0  0  0  0  0  0
   16.4141   29.3761   -2.0391 C   0  0  1  0  0  0  0  0  0  0  0  0
   17.3163   28.4919   -1.3177 O   0  0  0  0  0  0  0  0  0  0  0  0
   17.1074   25.8906   -3.4675 C   0  0  1  0  0  0  0  0  0  0  0  0
   17.0653   27.3123   -3.3256 O   0  0  0  0  0  0  0  0  0  0  0  0
   21.3295   27.8573    1.3146 C   0  0  1  0  0  0  0  0  0  0  0  0
   21.4964   29.2293    1.6365 O   0  0  0  0  0  0  0  0  0  0  0  0
   14.9798   28.8991   -1.6848 C   0  0  2  0  0  0  0  0  0  0  0  0
   14.7701   27.6059   -2.2306 O   0  0  0  0  0  0  0  0  0  0  0  0
   19.8451   27.5400    1.1312 C   0  0  1  0  0  0  0  0  0  0  0  0
   19.6792   26.1606    0.8068 O   0  0  0  0  0  0  0  0  0  0  0  0
   13.9520   29.8796   -2.2820 C   0  0  1  0  0  0  0  0  0  0  0  0
   12.6220   29.4530   -1.9638 O   0  0  0  0  0  0  0  0  0  0  0  0
   19.1076   27.8463    2.4349 C   0  0  0  0  0  0  0  0  0  0  0  0
   17.7111   27.7183    2.2211 O   0  0  0  0  0  0  0  0  0  0  0  0
   10.9050   32.2116   -2.3711 N   0  0  0  0  0  0  0  0  0  0  0  0
   19.1331   30.9113    0.0837 N   0  0  0  0  0  0  0  0  0  0  0  0
  1  2  1  0  0  0  0
  1 39  1  0  0  0  0
  3  4  1  0  0  0  0
  5  6  1  0  0  0  0
  5 40  1  0  0  0  0
  9 10  1  6  0  0  0
  9 14  1  0  0  0  0
  9 35  1  0  0  0  0
 10  1  1  0  0  0  0
 11 16  1  0  0  0  0
 11 28  1  0  0  0  0
 11 26  1  1  0  0  0
 12 17  1  0  0  0  0
 12 34  1  0  0  0  0
 12 13  1  6  0  0  0
 14 15  1  1  0  0  0
 14 19  1  0  0  0  0
 16 13  1  6  0  0  0
 16 21  1  0  0  0  0
 17 18  1  6  0  0  0
 17 23  1  0  0  0  0
 18  8  1  0  0  0  0
 19 20  1  6  0  0  0
 19 25  1  0  0  0  0
 20  5  1  0  0  0  0
 21  3  1  1  0  0  0
 21 22  1  0  0  0  0
 21 27  1  0  0  0  0
 23 24  1  1  0  0  0
 23 29  1  0  0  0  0
 25 26  1  1  0  0  0
 25 31  1  0  0  0  0
 27  7  1  6  0  0  0
 27 28  1  0  0  0  0
 29 30  1  6  0  0  0
 29 33  1  0  0  0  0
 31 32  1  6  0  0  0
 31 35  1  0  0  0  0
 33 34  1  0  0  0  0
 33 37  1  1  0  0  0
 35 36  1  1  0  0  0
 37 38  1  0  0  0  0
M  END
>  <CHROM.1>
-157.95749604,42.43631008,-159.85861982,177.06438201,153.53639947,-62.46367159
100.50776660,-89.41797587,44.96212607,-131.43935921,172.60038244,17.70251629
28.40374857,-1.21723023,-2.66003526,0.42889905,-2.68525478

>  <Name>
1ntb_lig

>  <RI>
0

>  <Rbt.Current_Directory>
/home/itssahil/PROJECTS/Mol_Feturizer/New_Systems/rnas/1ntb

>  <Rbt.Executable>
rbdock ($Id: //depot/dev/client3/rdock/2013.1/src/exe/rbdock.cxx#4 $)

>  <Rbt.Library>
libRbt.so (2013.1, Build901 2013/11/27)

>  <Rbt.Parameter_File>
/export/apps/rDock/src/rDock_2013.1_src/data/scripts/dock_solv.prm

>  <Rbt.Receptor>
prm/blind_docking_80.prm

>  <SCORE>
-9.5091

>  <SCORE.INTER>
-1.80341

>  <SCORE.INTER.CONST>
1

>  <SCORE.INTER.POLAR>
0

>  <SCORE.INTER.ROT>
11

>  <SCORE.INTER.SOLV>
22.4052

>  <SCORE.INTER.VDW>
-19.604

>  <SCORE.INTER.norm>
-0.0450852

>  <SCORE.INTRA>
-7.84098

>  <SCORE.INTRA.DIHEDRAL>
-0.72447

>  <SCORE.INTRA.DIHEDRAL.0>
15.4453

>  <SCORE.INTRA.POLAR>
0

>  <SCORE.INTRA.POLAR.0>
0

>  <SCORE.INTRA.REPUL>
-0.823958

>  <SCORE.INTRA.REPUL.0>
0.823958

>  <SCORE.INTRA.SOLV>
0.392636

>  <SCORE.INTRA.SOLV.lig_0>
-99.3069

>  <SCORE.INTRA.VDW>
-3.55528

>  <SCORE.INTRA.VDW.0>
0.946495

>  <SCORE.INTRA.norm>
-0.196025

>  <SCORE.RESTR>
0.135295

>  <SCORE.RESTR.CAVITY>
0.135295

>  <SCORE.RESTR.norm>
0.00338238

>  <SCORE.SYSTEM>
0

>  <SCORE.SYSTEM.CONST>
0

>  <SCORE.SYSTEM.DIHEDRAL>
0

>  <SCORE.SYSTEM.SOLV>
0

>  <SCORE.SYSTEM.norm>
0

>  <SCORE.heavy>
40

>  <SCORE.norm>
-0.237727

>  <RMSD>
17.674

$$$$
1ntb_lig
 OpenBabel11021811403D
libRbt.so/2013.1/901 2013/11/27
 40 42  0  0  0  0  0  0  0  0999 V2000
   18.5906   25.4733    5.4969 C   0  0  0  0  0  0  0  0  0  0  0  0
   17.8173   24.4579    5.5332 N   0  0  0  0  0  0  0  0  0  0  0  0
   17.7794   27.3396   -4.6632 C   0  0  0  0  0  0  0  0  0  0  0  0
   18.9930   26.6182   -4.7943 O   0  0  0  0  0  0  0  0  0  0  0  0
   20.3163   29.4612    1.3982 C   0  0  0  0  0  0  0  0  0  0  0  0
   20.4841   30.5819    2.0047 N   0  0  0  0  0  0  0  0  0  0  0  0
   15.7785   25.2805   -3.1346 C   0  0  0  0  0  0  0  0  0  0  0  0
   15.3215   30.3503   -1.9850 C   0  0  0  0  0  0  0  0  0  0  0  0
   20.0165   25.5836    3.6206 C   0  0  2  0  0  0  0  0  0  0  0  0
   19.8205   25.2392    5.0814 N   0  0  0  0  0  0  0  0  0  0  0  0
   18.0049   26.9777   -1.0090 C   0  0  2  0  0  0  0  0  0  0  0  0
   18.2896   29.9889   -3.0002 C   0  0  1  0  0  0  0  0  0  0  0  0
   17.9133   29.1118   -1.9547 O   0  0  0  0  0  0  0  0  0  0  0  0
   19.5651   27.0107    3.3301 C   0  0  1  0  0  0  0  0  0  0  0  0
   20.3839   27.8627    4.2443 O   0  0  0  0  0  0  0  0  0  0  0  0
   18.2249   27.8266   -2.2479 C   0  0  2  0  0  0  0  0  0  0  0  0
   17.4354   31.2309   -2.9208 C   0  0  1  0  0  0  0  0  0  0  0  0
   16.0677   30.8860   -3.0879 N   0  0  0  0  0  0  0  0  0  0  0  0
   19.7152   27.3959    1.8598 C   0  0  2  0  0  0  0  0  0  0  0  0
   19.3045   28.7449    1.5292 N   0  0  0  0  0  0  0  0  0  0  0  0
   17.2683   27.2296   -3.2456 C   0  0  1  0  0  0  0  0  0  0  0  0
   15.9886   27.8615   -3.1346 O   0  0  0  0  0  0  0  0  0  0  0  0
   17.6445   31.8557   -1.5516 C   0  0  2  0  0  0  0  0  0  0  0  0
   16.8581   33.0197   -1.4200 O   0  0  0  0  0  0  0  0  0  0  0  0
   18.8972   26.4320    1.0401 C   0  0  1  0  0  0  0  0  0  0  0  0
   19.2386   26.7342   -0.3413 O   0  0  0  0  0  0  0  0  0  0  0  0
   17.1599   25.8058   -2.8413 C   0  0  1  0  0  0  0  0  0  0  0  0
   17.4194   25.7458   -1.4369 O   0  0  0  0  0  0  0  0  0  0  0  0
   19.1298   32.2008   -1.4415 C   0  0  1  0  0  0  0  0  0  0  0  0
   19.4081   32.7870   -0.1795 O   0  0  0  0  0  0  0  0  0  0  0  0
   19.3800   24.9774    1.2877 C   0  0  2  0  0  0  0  0  0  0  0  0
   18.6069   24.0883    0.4964 O   0  0  0  0  0  0  0  0  0  0  0  0
   19.9498   30.9222   -1.6166 C   0  0  1  0  0  0  0  0  0  0  0  0
   19.6681   30.3339   -2.8854 O   0  0  0  0  0  0  0  0  0  0  0  0
   19.2009   24.6250    2.7770 C   0  0  1  0  0  0  0  0  0  0  0  0
   19.6421   23.2843    3.0221 O   0  0  0  0  0  0  0  0  0  0  0  0
   21.4362   31.2718   -1.5388 C   0  0  0  0  0  0  0  0  0  0  0  0
   21.7567   31.6496   -0.2095 O   0  0  0  0  0  0  0  0  0  0  0  0
   18.2083   26.6457    5.8644 N   0  0  0  0  0  0  0  0  0  0  0  0
   21.1751   29.0711    0.5876 N   0  0  0  0  0  0  0  0  0  0  0  0
  1  2  1  0  0  0  0
  1 39  1  0  0  0  0
  3  4  1  0  0  0  0
  5  6  1  0  0  0  0
  5 40  1  0  0  0  0
  9 10  1  1  0  0  0
  9 14  1  0  0  0  0
  9 35  1  0  0  0  0
 10  1  1  0  0  0  0
 11 16  1  0  0  0  0
 11 28  1  0  0  0  0
 11 26  1  6  0  0  0
 12 17  1  0  0  0  0
 12 34  1  0  0  0  0
 12 13  1  1  0  0  0
 14 15  1  1  0  0  0
 14 19  1  0  0  0  0
 16 13  1  1  0  0  0
 16 21  1  0  0  0  0
 17 18  1  1  0  0  0
 17 23  1  0  0  0  0
 18  8  1  0  0  0  0
 19 20  1  1  0  0  0
 19 25  1  0  0  0  0
 20  5  1  0  0  0  0
 21  3  1  6  0  0  0
 21 22  1  0  0  0  0
 21 27  1  0  0  0  0
 23 24  1  6  0  0  0
 23 29  1  0  0  0  0
 25 26  1  6  0  0  0
 25 31  1  0  0  0  0
 27  7  1  1  0  0  0
 27 28  1  0  0  0  0
 29 30  1  1  0  0  0
 29 33  1  0  0  0  0
 31 32  1  6  0  0  0
 31 35  1  0  0  0  0
 33 34  1  0  0  0  0
 33 37  1  6  0  0  0
 35 36  1  6  0  0  0
 37 38  1  0  0  0  0
M  END
>  <CHROM.1>
52.89975707,98.32938380,156.97958600,155.94191875,170.96590973,79.94103273
102.54181815,-128.12669726,61.98895040,-125.93859401,69.33380856,18.69136627
28.11103344,-0.07161220,-1.21208437,-1.12274313,-0.60295974

>  <Name>
1ntb_lig

>  <RI>
0

>  <Rbt.Current_Directory>
/home/itssahil/PROJECTS/Mol_Feturizer/New_Systems/rnas/1ntb

>  <Rbt.Executable>
rbdock ($Id: //depot/dev/client3/rdock/2013.1/src/exe/rbdock.cxx#4 $)

>  <Rbt.Library>
libRbt.so (2013.1, Build901 2013/11/27)

>  <Rbt.Parameter_File>
/export/apps/rDock/src/rDock_2013.1_src/data/scripts/dock_solv.prm

>  <Rbt.Receptor>
prm/blind_docking_40.prm

>  <SCORE>
-8.08655

>  <SCORE.INTER>
-7.41928

>  <SCORE.INTER.CONST>
1

>  <SCORE.INTER.POLAR>
-0.448332

>  <SCORE.INTER.ROT>
11

>  <SCORE.INTER.SOLV>
10.6916

>  <SCORE.INTER.VDW>
-17.9489

>  <SCORE.INTER.norm>
-0.185482

>  <SCORE.INTRA>
-1.40143

>  <SCORE.INTRA.DIHEDRAL>
-0.48987

>  <SCORE.INTRA.DIHEDRAL.0>
15.4453

>  <SCORE.INTRA.POLAR>
0

>  <SCORE.INTRA.POLAR.0>
0

>  <SCORE.INTRA.REPUL>
-0.823958

>  <SCORE.INTRA.REPUL.0>
0.823958

>  <SCORE.INTRA.SOLV>
7.39187

>  <SCORE.INTRA.SOLV.lig_0>
-99.3069

>  <SCORE.INTRA.VDW>
-0.732643

>  <SCORE.INTRA.VDW.0>
0.946495

>  <SCORE.INTRA.norm>
-0.0350358

>  <SCORE.RESTR>
0.734162

>  <SCORE.RESTR.CAVITY>
0.734162

>  <SCORE.RESTR.norm>
0.018354

>  <SCORE.SYSTEM>
0

>  <SCORE.SYSTEM.CONST>
0

>  <SCORE.SYSTEM.DIHEDRAL>
0

>  <SCORE.SYSTEM.SOLV>
0

>  <SCORE.SYSTEM.norm>
0

>  <SCORE.heavy>
40

>  <SCORE.norm>
-0.202164

>  <RMSD>
17.685

$$$$
1ntb_lig
 OpenBabel11021811403D
libRbt.so/2013.1/901 2013/11/27
 40 42  0  0  0  0  0  0  0  0999 V2000
   11.9050   31.9924   -1.6768 C   0  0  0  0  0  0  0  0  0  0  0  0
   11.8814   32.2137   -0.4196 N   0  0  0  0  0  0  0  0  0  0  0  0
   17.6859   24.4001   -2.6435 C   0  0  0  0  0  0  0  0  0  0  0  0
   16.7212   24.5243   -1.6119 O   0  0  0  0  0  0  0  0  0  0  0  0
   18.2898   32.4646   -1.1554 C   0  0  0  0  0  0  0  0  0  0  0  0
   18.5105   32.4139    0.1098 N   0  0  0  0  0  0  0  0  0  0  0  0
   17.3714   26.2765   -5.2817 C   0  0  0  0  0  0  0  0  0  0  0  0
   19.5238   23.5051    0.0658 C   0  0  0  0  0  0  0  0  0  0  0  0
   14.1673   31.3232   -1.6817 C   0  0  2  0  0  0  0  0  0  0  0  0
   13.0686   32.1835   -2.2681 N   0  0  0  0  0  0  0  0  0  0  0  0
   18.1764   28.0341   -2.3460 C   0  0  2  0  0  0  0  0  0  0  0  0
   19.8564   26.4315   -0.0220 C   0  0  1  0  0  0  0  0  0  0  0  0
   19.7537   26.5768   -1.4265 O   0  0  0  0  0  0  0  0  0  0  0  0
   15.5431   31.8568   -2.0657 C   0  0  1  0  0  0  0  0  0  0  0  0
   15.5647   33.2594   -1.5518 O   0  0  0  0  0  0  0  0  0  0  0  0
   18.4610   26.6365   -1.8267 C   0  0  2  0  0  0  0  0  0  0  0  0
   20.9912   25.4846    0.2847 C   0  0  1  0  0  0  0  0  0  0  0  0
   20.7231   24.2114   -0.2848 N   0  0  0  0  0  0  0  0  0  0  0  0
   16.6867   31.0032   -1.5217 C   0  0  2  0  0  0  0  0  0  0  0  0
   18.0175   31.4685   -1.8538 N   0  0  0  0  0  0  0  0  0  0  0  0
   18.2036   25.7664   -3.0283 C   0  0  1  0  0  0  0  0  0  0  0  0
   19.3997   25.6378   -3.8041 O   0  0  0  0  0  0  0  0  0  0  0  0
   22.2592   26.0623   -0.3212 C   0  0  2  0  0  0  0  0  0  0  0  0
   23.3538   25.2079   -0.0713 O   0  0  0  0  0  0  0  0  0  0  0  0
   16.5206   29.6053   -2.0588 C   0  0  1  0  0  0  0  0  0  0  0  0
   17.5173   28.8140   -1.3539 O   0  0  0  0  0  0  0  0  0  0  0  0
   17.1808   26.5097   -3.8053 C   0  0  1  0  0  0  0  0  0  0  0  0
   17.3475   27.8967   -3.5024 O   0  0  0  0  0  0  0  0  0  0  0  0
   22.4859   27.4245    0.3347 C   0  0  1  0  0  0  0  0  0  0  0  0
   23.6563   28.0347   -0.1865 O   0  0  0  0  0  0  0  0  0  0  0  0
   15.1433   29.0297   -1.6321 C   0  0  2  0  0  0  0  0  0  0  0  0
   15.0133   27.7092   -2.1355 O   0  0  0  0  0  0  0  0  0  0  0  0
   21.2698   28.3119    0.0669 C   0  0  1  0  0  0  0  0  0  0  0  0
   20.0942   27.6965    0.5908 O   0  0  0  0  0  0  0  0  0  0  0  0
   14.0190   29.9108   -2.2099 C   0  0  1  0  0  0  0  0  0  0  0  0
   12.7402   29.3925   -1.8250 O   0  0  0  0  0  0  0  0  0  0  0  0
   21.4819   29.6632    0.7498 C   0  0  0  0  0  0  0  0  0  0  0  0
   22.0031   30.5852   -0.1940 O   0  0  0  0  0  0  0  0  0  0  0  0
   10.8593   31.6311   -2.3339 N   0  0  0  0  0  0  0  0  0  0  0  0
   18.2900   33.5668   -1.7315 N   0  0  0  0  0  0  0  0  0  0  0  0
  1  2  1  0  0  0  0
  1 39  1  0  0  0  0
  3  4  1  0  0  0  0
  5  6  1  0  0  0  0
  5 40  1  0  0  0  0
  9 10  1  6  0  0  0
  9 14  1  0  0  0  0
  9 35  1  0  0  0  0
 10  1  1  0  0  0  0
 11 16  1  0  0  0  0
 11 28  1  0  0  0  0
 11 26  1  1  0  0  0
 12 17  1  0  0  0  0
 12 34  1  0  0  0  0
 12 13  1  6  0  0  0
 14 15  1  1  0  0  0
 14 19  1  0  0  0  0
 16 13  1  6  0  0  0
 16 21  1  0  0  0  0
 17 18  1  6  0  0  0
 17 23  1  0  0  0  0
 18  8  1  0  0  0  0
 19 20  1  6  0  0  0
 19 25  1  0  0  0  0
 20  5  1  0  0  0  0
 21  3  1  1  0  0  0
 21 22  1  0  0  0  0
 21 27  1  0  0  0  0
 23 24  1  1  0  0  0
 23 29  1  0  0  0  0
 25 26  1  1  0  0  0
 25 31  1  0  0  0  0
 27  7  1  6  0  0  0
 27 28  1  0  0  0  0
 29 30  1  6  0  0  0
 29 33  1  0  0  0  0
 31 32  1  6  0  0  0
 31 35  1  0  0  0  0
 33 34  1  0  0  0  0
 33 37  1  1  0  0  0
 35 36  1  1  0  0  0
 37 38  1  0  0  0  0
M  END
>  <CHROM.1>
-162.44910463,58.43562481,-140.84762869,141.28671118,111.98414837,-57.32253468
74.80024029,70.32554733,42.40494325,-133.09718431,96.10188384,17.83132134
28.57871569,-1.44102832,2.57410475,-0.31369970,0.22485844

>  <Name>
1ntb_lig

>  <RI>
0

>  <Rbt.Current_Directory>
/home/itssahil/PROJECTS/Mol_Feturizer/New_Systems/rnas/1ntb

>  <Rbt.Executable>
rbdock ($Id: //depot/dev/client3/rdock/2013.1/src/exe/rbdock.cxx#4 $)

>  <Rbt.Library>
libRbt.so (2013.1, Build901 2013/11/27)

>  <Rbt.Parameter_File>
/export/apps/rDock/src/rDock_2013.1_src/data/scripts/dock_solv.prm

>  <Rbt.Receptor>
prm/blind_docking_40.prm

>  <SCORE>
15.3359

>  <SCORE.INTER>
12.1985

>  <SCORE.INTER.CONST>
1

>  <SCORE.INTER.POLAR>
0

>  <SCORE.INTER.ROT>
11

>  <SCORE.INTER.SOLV>
24.3584

>  <SCORE.INTER.VDW>
-10.9205

>  <SCORE.INTER.norm>
0.304963

>  <SCORE.INTRA>
2.27392

>  <SCORE.INTRA.DIHEDRAL>
14.3232

>  <SCORE.INTRA.DIHEDRAL.0>
15.4453

>  <SCORE.INTRA.POLAR>
0

>  <SCORE.INTRA.POLAR.0>
0

>  <SCORE.INTRA.REPUL>
-0.823958

>  <SCORE.INTRA.REPUL.0>
0.823958

>  <SCORE.INTRA.SOLV>
-0.287393

>  <SCORE.INTRA.SOLV.lig_0>
-99.3069

>  <SCORE.INTRA.VDW>
-0.624171

>  <SCORE.INTRA.VDW.0>
0.946495

>  <SCORE.INTRA.norm>
0.056848

>  <SCORE.RESTR>
0.863513

>  <SCORE.RESTR.CAVITY>
0.863513

>  <SCORE.RESTR.norm>
0.0215878

>  <SCORE.SYSTEM>
0

>  <SCORE.SYSTEM.CONST>
0

>  <SCORE.SYSTEM.DIHEDRAL>
0

>  <SCORE.SYSTEM.SOLV>
0

>  <SCORE.SYSTEM.norm>
0

>  <SCORE.heavy>
40

>  <SCORE.norm>
0.383398

>  <RMSD>
17.699

$$$$
1ntb_lig
 OpenBabel11021811403D
libRbt.so/2013.1/901 2013/11/27
 40 42  0  0  0  0  0  0  0  0999 V2000
   12.6750   31.2029   -2.3277 C   0  0  0  0  0  0  0  0  0  0  0  0
   12.6261   30.0991   -2.9675 N   0  0  0  0  0  0  0  0  0  0  0  0
   21.8720   28.6603    0.7073 C   0  0  0  0  0  0  0  0  0  0  0  0
   22.5467   29.5131   -0.2026 O   0  0  0  0  0  0  0  0  0  0  0  0
   18.1994   32.9621   -2.1546 C   0  0  0  0  0  0  0  0  0  0  0  0
   17.5891   34.0904   -2.0742 N   0  0  0  0  0  0  0  0  0  0  0  0
   20.0181   31.0919    1.8163 C   0  0  0  0  0  0  0  0  0  0  0  0
   20.0994   24.0539    1.9529 C   0  0  0  0  0  0  0  0  0  0  0  0
   14.5942   30.7082   -1.0479 C   0  0  2  0  0  0  0  0  0  0  0  0
   13.1408   31.1281   -1.0957 N   0  0  0  0  0  0  0  0  0  0  0  0
   18.5780   29.2618   -0.8166 C   0  0  2  0  0  0  0  0  0  0  0  0
   20.0070   26.0301   -0.5889 C   0  0  1  0  0  0  0  0  0  0  0  0
   19.1746   27.0969   -0.1728 O   0  0  0  0  0  0  0  0  0  0  0  0
   15.4473   31.5871   -1.9560 C   0  0  1  0  0  0  0  0  0  0  0  0
   15.2261   32.9779   -1.4573 O   0  0  0  0  0  0  0  0  0  0  0  0
   19.7074   28.2990   -0.4982 C   0  0  2  0  0  0  0  0  0  0  0  0
   19.3071   24.7261   -0.2921 C   0  0  1  0  0  0  0  0  0  0  0  0
   19.0820   24.6077    1.1053 N   0  0  0  0  0  0  0  0  0  0  0  0
   16.9200   31.1825   -1.9651 C   0  0  2  0  0  0  0  0  0  0  0  0
   17.7772   31.9888   -2.8093 N   0  0  0  0  0  0  0  0  0  0  0  0
   20.3892   28.9485    0.6767 C   0  0  1  0  0  0  0  0  0  0  0  0
   19.7793   28.5148    1.8970 O   0  0  0  0  0  0  0  0  0  0  0  0
   17.9779   24.7305   -1.0283 C   0  0  2  0  0  0  0  0  0  0  0  0
   17.2753   23.5333   -0.7763 O   0  0  0  0  0  0  0  0  0  0  0  0
   17.0064   29.7501   -2.4243 C   0  0  1  0  0  0  0  0  0  0  0  0
   18.3984   29.3777   -2.2241 O   0  0  0  0  0  0  0  0  0  0  0  0
   20.1458   30.3997    0.4840 C   0  0  1  0  0  0  0  0  0  0  0  0
   18.9284   30.5283   -0.2540 O   0  0  0  0  0  0  0  0  0  0  0  0
   18.2945   24.8590   -2.5185 C   0  0  1  0  0  0  0  0  0  0  0  0
   17.0959   24.8767   -3.2781 O   0  0  0  0  0  0  0  0  0  0  0  0
   16.1827   28.8356   -1.4780 C   0  0  2  0  0  0  0  0  0  0  0  0
   16.2891   27.4910   -1.9194 O   0  0  0  0  0  0  0  0  0  0  0  0
   19.0787   26.1512   -2.7488 C   0  0  1  0  0  0  0  0  0  0  0  0
   20.2828   26.1321   -1.9839 O   0  0  0  0  0  0  0  0  0  0  0  0
   14.7041   29.2684   -1.5069 C   0  0  1  0  0  0  0  0  0  0  0  0
   13.9296   28.4333   -0.6380 O   0  0  0  0  0  0  0  0  0  0  0  0
   19.4235   26.2641   -4.2340 C   0  0  0  0  0  0  0  0  0  0  0  0
   20.5028   25.3921   -4.5291 O   0  0  0  0  0  0  0  0  0  0  0  0
   12.2737   32.3143   -2.8369 N   0  0  0  0  0  0  0  0  0  0  0  0
   19.3035   32.8243   -1.5991 N   0  0  0  0  0  0  0  0  0  0  0  0
  1  2  1  0  0  0  0
  1 39  1  0  0  0  0
  3  4  1  0  0  0  0
  5  6  1  0  0  0  0
  5 40  1  0  0  0  0
  9 10  1  6  0  0  0
  9 14  1  0  0  0  0
  9 35  1  0  0  0  0
 10  1  1  0  0  0  0
 11 16  1  0  0  0  0
 11 28  1  0  0  0  0
 11 26  1  6  0  0  0
 12 17  1  0  0  0  0
 12 34  1  0  0  0  0
 12 13  1  6  0  0  0
 14 15  1  1  0  0  0
 14 19  1  0  0  0  0
 16 13  1  1  0  0  0
 16 21  1  0  0  0  0
 17 18  1  1  0  0  0
 17 23  1  0  0  0  0
 18  8  1  0  0  0  0
 19 20  1  6  0  0  0
 19 25  1  0  0  0  0
 20  5  1  0  0  0  0
 21  3  1  6  0  0  0
 21 22  1  0  0  0  0
 21 27  1  0  0  0  0
 23 24  1  6  0  0  0
 23 29  1  0  0  0  0
 25 26  1  1  0  0  0
 25 31  1  0  0  0  0
 27  7  1  1  0  0  0
 27 28  1  0  0  0  0
 29 30  1  6  0  0  0
 29 33  1  0  0  0  0
 31 32  1  6  0  0  0
 31 35  1  0  0  0  0
 33 34  1  0  0  0  0
 33 37  1  6  0  0  0
 35 36  1  1  0  0  0
 37 38  1  0  0  0  0
M  END
>  <CHROM.1>
52.12917432,64.87366264,153.61544480,-175.69429611,146.66985226,-86.54797099
88.39978776,-89.10918105,79.81299776,71.94329791,-76.77575143,17.82638381
28.70336568,-1.23656605,2.28249145,-0.35404126,0.09667791

>  <Name>
1ntb_lig

>  <RI>
0

>  <Rbt.Current_Directory>
/home/itssahil/PROJECTS/Mol_Feturizer/New_Systems/rnas/1ntb

>  <Rbt.Executable>
rbdock ($Id: //depot/dev/client3/rdock/2013.1/src/exe/rbdock.cxx#4 $)

>  <Rbt.Library>
libRbt.so (2013.1, Build901 2013/11/27)

>  <Rbt.Parameter_File>
/export/apps/rDock/src/rDock_2013.1_src/data/scripts/dock_solv.prm

>  <Rbt.Receptor>
prm/blind_docking_100.prm

>  <SCORE>
19.2731

>  <SCORE.INTER>
20.0941

>  <SCORE.INTER.CONST>
1

>  <SCORE.INTER.POLAR>
0

>  <SCORE.INTER.ROT>
11

>  <SCORE.INTER.SOLV>
24.3033

>  <SCORE.INTER.VDW>
-5.63832

>  <SCORE.INTER.norm>
0.502354

>  <SCORE.INTRA>
-1.10567

>  <SCORE.INTRA.DIHEDRAL>
-2.55037

>  <SCORE.INTRA.DIHEDRAL.0>
15.4453

>  <SCORE.INTRA.POLAR>
0

>  <SCORE.INTRA.POLAR.0>
0

>  <SCORE.INTRA.REPUL>
-0.823958

>  <SCORE.INTRA.REPUL.0>
0.823958

>  <SCORE.INTRA.SOLV>
3.57203

>  <SCORE.INTRA.SOLV.lig_0>
-99.3069

>  <SCORE.INTRA.VDW>
2.50329

>  <SCORE.INTRA.VDW.0>
0.946495

>  <SCORE.INTRA.norm>
-0.0276418

>  <SCORE.RESTR>
0.284593

>  <SCORE.RESTR.CAVITY>
0.284593

>  <SCORE.RESTR.norm>
0.00711482

>  <SCORE.SYSTEM>
0

>  <SCORE.SYSTEM.CONST>
0

>  <SCORE.SYSTEM.DIHEDRAL>
0

>  <SCORE.SYSTEM.SOLV>
0

>  <SCORE.SYSTEM.norm>
0

>  <SCORE.heavy>
40

>  <SCORE.norm>
0.481827

>  <RMSD>
17.732

$$$$
1ntb_lig
 OpenBabel11021811403D
libRbt.so/2013.1/901 2013/11/27
 40 42  0  0  0  0  0  0  0  0999 V2000
   18.2234   35.0301   -2.2258 C   0  0  0  0  0  0  0  0  0  0  0  0
   19.1068   34.8531   -3.1305 N   0  0  0  0  0  0  0  0  0  0  0  0
   19.1328   24.4541   -0.5213 C   0  0  0  0  0  0  0  0  0  0  0  0
   19.3034   24.5496    0.8830 O   0  0  0  0  0  0  0  0  0  0  0  0
   14.9794   29.3228   -1.9188 C   0  0  0  0  0  0  0  0  0  0  0  0
   15.0586   28.3977   -2.8076 N   0  0  0  0  0  0  0  0  0  0  0  0
   20.8483   24.8553   -3.2556 C   0  0  0  0  0  0  0  0  0  0  0  0
   17.6889   26.3618    3.6811 C   0  0  0  0  0  0  0  0  0  0  0  0
   18.0303   32.6971   -1.9333 C   0  0  2  0  0  0  0  0  0  0  0  0
   18.1366   34.0763   -1.3188 N   0  0  0  0  0  0  0  0  0  0  0  0
   19.2516   27.7699   -2.1105 C   0  0  2  0  0  0  0  0  0  0  0  0
   18.7713   28.4955    0.7928 C   0  0  1  0  0  0  0  0  0  0  0  0
   19.6545   27.5730    0.1821 O   0  0  0  0  0  0  0  0  0  0  0  0
   16.9919   31.8521   -1.2036 C   0  0  1  0  0  0  0  0  0  0  0  0
   15.7235   32.6348   -1.3062 O   0  0  0  0  0  0  0  0  0  0  0  0
   19.0654   26.9344   -0.8571 C   0  0  2  0  0  0  0  0  0  0  0  0
   18.6412   28.1451    2.2553 C   0  0  1  0  0  0  0  0  0  0  0  0
   18.0988   26.8395    2.3911 N   0  0  0  0  0  0  0  0  0  0  0  0
   16.8694   30.4386   -1.7689 C   0  0  2  0  0  0  0  0  0  0  0  0
   15.8922   29.5935   -1.1142 N   0  0  0  0  0  0  0  0  0  0  0  0
   19.7680   25.6468   -1.1972 C   0  0  1  0  0  0  0  0  0  0  0  0
   21.1511   25.7352   -0.8391 O   0  0  0  0  0  0  0  0  0  0  0  0
   20.0286   28.1922    2.8729 C   0  0  2  0  0  0  0  0  0  0  0  0
   19.9656   27.8615    4.2430 O   0  0  0  0  0  0  0  0  0  0  0  0
   18.2194   29.7774   -1.6662 C   0  0  1  0  0  0  0  0  0  0  0  0
   18.0770   28.5240   -2.3907 O   0  0  0  0  0  0  0  0  0  0  0  0
   19.6388   25.5384   -2.6716 C   0  0  1  0  0  0  0  0  0  0  0  0
   19.5317   26.8685   -3.1840 O   0  0  0  0  0  0  0  0  0  0  0  0
   20.5485   29.6186    2.6923 C   0  0  1  0  0  0  0  0  0  0  0  0
   21.8510   29.7426    3.2417 O   0  0  0  0  0  0  0  0  0  0  0  0
   19.2780   30.6011   -2.4481 C   0  0  2  0  0  0  0  0  0  0  0  0
   20.5375   29.9543   -2.3504 O   0  0  0  0  0  0  0  0  0  0  0  0
   20.5764   29.9506    1.2001 C   0  0  1  0  0  0  0  0  0  0  0  0
   19.2664   29.8246    0.6493 O   0  0  0  0  0  0  0  0  0  0  0  0
   19.3792   32.0133   -1.8400 C   0  0  1  0  0  0  0  0  0  0  0  0
   20.3531   32.7868   -2.5510 O   0  0  0  0  0  0  0  0  0  0  0  0
   21.0656   31.3880    1.0208 C   0  0  0  0  0  0  0  0  0  0  0  0
   21.6337   31.5288   -0.2714 O   0  0  0  0  0  0  0  0  0  0  0  0
   17.4483   36.0571   -2.2093 N   0  0  0  0  0  0  0  0  0  0  0  0
   13.9638   30.0392   -1.8722 N   0  0  0  0  0  0  0  0  0  0  0  0
  1  2  1  0  0  0  0
  1 39  1  0  0  0  0
  3  4  1  0  0  0  0
  5  6  1  0  0  0  0
  5 40  1  0  0  0  0
  9 10  1  1  0  0  0
  9 14  1  0  0  0  0
  9 35  1  0  0  0  0
 10  1  1  0  0  0  0
 11 16  1  0  0  0  0
 11 28  1  0  0  0  0
 11 26  1  6  0  0  0
 12 17  1  0  0  0  0
 12 34  1  0  0  0  0
 12 13  1  6  0  0  0
 14 15  1  6  0  0  0
 14 19  1  0  0  0  0
 16 13  1  1  0  0  0
 16 21  1  0  0  0  0
 17 18  1  6  0  0  0
 17 23  1  0  0  0  0
 18  8  1  0  0  0  0
 19 20  1  1  0  0  0
 19 25  1  0  0  0  0
 20  5  1  0  0  0  0
 21  3  1  1  0  0  0
 21 22  1  0  0  0  0
 21 27  1  0  0  0  0
 23 24  1  1  0  0  0
 23 29  1  0  0  0  0
 25 26  1  6  0  0  0
 25 31  1  0  0  0  0
 27  7  1  6  0  0  0
 27 28  1  0  0  0  0
 29 30  1  6  0  0  0
 29 33  1  0  0  0  0
 31 32  1  1  0  0  0
 31 35  1  0  0  0  0
 33 34  1  0  0  0  0
 33 37  1  1  0  0  0
 35 36  1  6  0  0  0
 37 38  1  0  0  0  0
M  END
>  <CHROM.1>
-137.64467666,-50.30586830,88.54112528,122.90890856,87.16757095,-170.38197233
114.79566896,81.37479771,-66.06636892,-169.79990405,155.24823025,18.83637305
29.38358661,-0.60161749,-1.99631272,1.00072224,-3.13132852

>  <Name>
1ntb_lig

>  <RI>
0

>  <Rbt.Current_Directory>
/home/itssahil/PROJECTS/Mol_Feturizer/New_Systems/rnas/1ntb

>  <Rbt.Executable>
rbdock ($Id: //depot/dev/client3/rdock/2013.1/src/exe/rbdock.cxx#4 $)

>  <Rbt.Library>
libRbt.so (2013.1, Build901 2013/11/27)

>  <Rbt.Parameter_File>
/export/apps/rDock/src/rDock_2013.1_src/data/scripts/dock_solv.prm

>  <Rbt.Receptor>
prm/blind_docking_60.prm

>  <SCORE>
-7.27437

>  <SCORE.INTER>
-6.52908

>  <SCORE.INTER.CONST>
1

>  <SCORE.INTER.POLAR>
0

>  <SCORE.INTER.ROT>
11

>  <SCORE.INTER.SOLV>
20.4873

>  <SCORE.INTER.VDW>
-22.1152

>  <SCORE.INTER.norm>
-0.163227

>  <SCORE.INTRA>
-3.61534

>  <SCORE.INTRA.DIHEDRAL>
4.32071

>  <SCORE.INTRA.DIHEDRAL.0>
15.4453

>  <SCORE.INTRA.POLAR>
0

>  <SCORE.INTRA.POLAR.0>
0

>  <SCORE.INTRA.REPUL>
-0.820617

>  <SCORE.INTRA.REPUL.0>
0.823958

>  <SCORE.INTRA.SOLV>
0.644071

>  <SCORE.INTRA.SOLV.lig_0>
-99.3069

>  <SCORE.INTRA.VDW>
-1.99465

>  <SCORE.INTRA.VDW.0>
0.946495

>  <SCORE.INTRA.norm>
-0.0903836

>  <SCORE.RESTR>
2.87006

>  <SCORE.RESTR.CAVITY>
2.87006

>  <SCORE.RESTR.norm>
0.0717514

>  <SCORE.SYSTEM>
0

>  <SCORE.SYSTEM.CONST>
0

>  <SCORE.SYSTEM.DIHEDRAL>
0

>  <SCORE.SYSTEM.SOLV>
0

>  <SCORE.SYSTEM.norm>
0

>  <SCORE.heavy>
40

>  <SCORE.norm>
-0.181859

>  <RMSD>
17.775

$$$$
1ntb_lig
 OpenBabel11021811403D
libRbt.so/2013.1/901 2013/11/27
 40 42  0  0  0  0  0  0  0  0999 V2000
   11.5348   31.0767   -3.3241 C   0  0  0  0  0  0  0  0  0  0  0  0
   10.3795   30.6749   -3.6901 N   0  0  0  0  0  0  0  0  0  0  0  0
   22.1094   30.9454   -0.6011 C   0  0  0  0  0  0  0  0  0  0  0  0
   22.2550   31.4025   -1.9354 O   0  0  0  0  0  0  0  0  0  0  0  0
   16.5040   27.0063   -3.2978 C   0  0  0  0  0  0  0  0  0  0  0  0
   17.2910   27.2687   -4.2795 N   0  0  0  0  0  0  0  0  0  0  0  0
   20.2279   33.5138    0.0647 C   0  0  0  0  0  0  0  0  0  0  0  0
   20.5808   26.8643    3.8948 C   0  0  0  0  0  0  0  0  0  0  0  0
   13.6737   30.3173   -2.6804 C   0  0  2  0  0  0  0  0  0  0  0  0
   12.1734   30.2869   -2.4824 N   0  0  0  0  0  0  0  0  0  0  0  0
   18.4515   30.6066   -0.8000 C   0  0  2  0  0  0  0  0  0  0  0  0
   20.8378   28.1763    0.4108 C   0  0  1  0  0  0  0  0  0  0  0  0
   19.6969   29.0134    0.3695 O   0  0  0  0  0  0  0  0  0  0  0  0
   14.2936   28.9591   -2.3708 C   0  0  1  0  0  0  0  0  0  0  0  0
   13.6037   28.0066   -3.2921 O   0  0  0  0  0  0  0  0  0  0  0  0
   19.8084   29.9581   -0.5948 C   0  0  2  0  0  0  0  0  0  0  0  0
   20.6034   27.0890    1.4313 C   0  0  1  0  0  0  0  0  0  0  0  0
   20.4173   27.6662    2.7157 N   0  0  0  0  0  0  0  0  0  0  0  0
   15.8128   28.9475   -2.5272 C   0  0  2  0  0  0  0  0  0  0  0  0
   16.4531   27.6785   -2.2492 N   0  0  0  0  0  0  0  0  0  0  0  0
   20.6746   31.1092   -0.1569 C   0  0  1  0  0  0  0  0  0  0  0  0
   20.6144   31.2527    1.2661 O   0  0  0  0  0  0  0  0  0  0  0  0
   19.3536   26.3269    1.0241 C   0  0  2  0  0  0  0  0  0  0  0  0
   19.0819   25.3008    1.9536 O   0  0  0  0  0  0  0  0  0  0  0  0
   16.3845   29.9860   -1.5973 C   0  0  1  0  0  0  0  0  0  0  0  0
   17.7973   30.0538   -1.9373 O   0  0  0  0  0  0  0  0  0  0  0  0
   20.0619   32.2950   -0.8056 C   0  0  1  0  0  0  0  0  0  0  0  0
   18.6735   32.0064   -0.9856 O   0  0  0  0  0  0  0  0  0  0  0  0
   19.6237   25.7349   -0.3594 C   0  0  1  0  0  0  0  0  0  0  0  0
   18.4931   25.0083   -0.8147 O   0  0  0  0  0  0  0  0  0  0  0  0
   15.7998   31.3841   -1.9344 C   0  0  2  0  0  0  0  0  0  0  0  0
   16.3614   32.3483   -1.0574 O   0  0  0  0  0  0  0  0  0  0  0  0
   19.9410   26.8718   -1.3314 C   0  0  1  0  0  0  0  0  0  0  0  0
   21.0773   27.6017   -0.8716 O   0  0  0  0  0  0  0  0  0  0  0  0
   14.2699   31.3566   -1.7529 C   0  0  1  0  0  0  0  0  0  0  0  0
   13.7145   32.6408   -2.0603 O   0  0  0  0  0  0  0  0  0  0  0  0
   20.2428   26.2779   -2.7076 C   0  0  0  0  0  0  0  0  0  0  0  0
   21.3431   25.3890   -2.5999 O   0  0  0  0  0  0  0  0  0  0  0  0
   12.0378   32.1907   -3.7265 N   0  0  0  0  0  0  0  0  0  0  0  0
   15.6990   26.0634   -3.3960 N   0  0  0  0  0  0  0  0  0  0  0  0
  1  2  1  0  0  0  0
  1 39  1  0  0  0  0
  3  4  1  0  0  0  0
  5  6  1  0  0  0  0
  5 40  1  0  0  0  0
  9 10  1  1  0  0  0
  9 14  1  0  0  0  0
  9 35  1  0  0  0  0
 10  1  1  0  0  0  0
 11 16  1  0  0  0  0
 11 28  1  0  0  0  0
 11 26  1  6  0  0  0
 12 17  1  0  0  0  0
 12 34  1  0  0  0  0
 12 13  1  6  0  0  0
 14 15  1  6  0  0  0
 14 19  1  0  0  0  0
 16 13  1  1  0  0  0
 16 21  1  0  0  0  0
 17 18  1  1  0  0  0
 17 23  1  0  0  0  0
 18  8  1  0  0  0  0
 19 20  1  1  0  0  0
 19 25  1  0  0  0  0
 20  5  1  0  0  0  0
 21  3  1  6  0  0  0
 21 22  1  0  0  0  0
 21 27  1  0  0  0  0
 23 24  1  1  0  0  0
 23 29  1  0  0  0  0
 25 26  1  6  0  0  0
 25 31  1  0  0  0  0
 27  7  1  1  0  0  0
 27 28  1  0  0  0  0
 29 30  1  6  0  0  0
 29 33  1  0  0  0  0
 31 32  1  1  0  0  0
 31 35  1  0  0  0  0
 33 34  1  0  0  0  0
 33 37  1  6  0  0  0
 35 36  1  6  0  0  0
 37 38  1  0  0  0  0
M  END
>  <CHROM.1>
-146.89856719,147.17669031,143.09232491,-175.81210968,167.24258979,-161.09353823
89.35816006,72.31350979,83.64635062,-158.47708908,-59.03867256,17.74543579
29.16433042,-1.20821783,2.85601666,-0.42984365,0.06805214

>  <Name>
1ntb_lig

>  <RI>
0

>  <Rbt.Current_Directory>
/home/itssahil/PROJECTS/Mol_Feturizer/New_Systems/rnas/1ntb

>  <Rbt.Executable>
rbdock ($Id: //depot/dev/client3/rdock/2013.1/src/exe/rbdock.cxx#4 $)

>  <Rbt.Library>
libRbt.so (2013.1, Build901 2013/11/27)

>  <Rbt.Parameter_File>
/export/apps/rDock/src/rDock_2013.1_src/data/scripts/dock_solv.prm

>  <Rbt.Receptor>
prm/blind_docking_60.prm

>  <SCORE>
-4.32244

>  <SCORE.INTER>
1.06955

>  <SCORE.INTER.CONST>
1

>  <SCORE.INTER.POLAR>
-1.68088

>  <SCORE.INTER.ROT>
11

>  <SCORE.INTER.SOLV>
30.1395

>  <SCORE.INTER.VDW>
-14.6639

>  <SCORE.INTER.norm>
0.0267387

>  <SCORE.INTRA>
-6.39172

>  <SCORE.INTRA.DIHEDRAL>
-2.65156

>  <SCORE.INTRA.DIHEDRAL.0>
15.4453

>  <SCORE.INTRA.POLAR>
0

>  <SCORE.INTRA.POLAR.0>
0

>  <SCORE.INTRA.REPUL>
-0.823958

>  <SCORE.INTRA.REPUL.0>
0.823958

>  <SCORE.INTRA.SOLV>
-0.0757278

>  <SCORE.INTRA.SOLV.lig_0>
-99.3069

>  <SCORE.INTRA.VDW>
-0.908289

>  <SCORE.INTRA.VDW.0>
0.946495

>  <SCORE.INTRA.norm>
-0.159793

>  <SCORE.RESTR>
0.999732

>  <SCORE.RESTR.CAVITY>
0.999732

>  <SCORE.RESTR.norm>
0.0249933

>  <SCORE.SYSTEM>
0

>  <SCORE.SYSTEM.CONST>
0

>  <SCORE.SYSTEM.DIHEDRAL>
0

>  <SCORE.SYSTEM.SOLV>
0

>  <SCORE.SYSTEM.norm>
0

>  <SCORE.heavy>
40

>  <SCORE.norm>
-0.108061

>  <RMSD>
17.777

$$$$
1ntb_lig
 OpenBabel11021811403D
libRbt.so/2013.1/901 2013/11/27
 40 42  0  0  0  0  0  0  0  0999 V2000
   11.9478   32.1008   -1.7370 C   0  0  0  0  0  0  0  0  0  0  0  0
   10.9687   31.9414   -2.5408 N   0  0  0  0  0  0  0  0  0  0  0  0
   17.9359   23.9169   -1.5594 C   0  0  0  0  0  0  0  0  0  0  0  0
   19.1731   23.5004   -1.0063 O   0  0  0  0  0  0  0  0  0  0  0  0
   18.6822   31.1117   -0.8303 C   0  0  0  0  0  0  0  0  0  0  0  0
   18.5601   32.0851    0.0001 N   0  0  0  0  0  0  0  0  0  0  0  0
   16.8063   25.0814   -4.3787 C   0  0  0  0  0  0  0  0  0  0  0  0
   22.4193   24.2656   -1.6457 C   0  0  0  0  0  0  0  0  0  0  0  0
   14.1503   31.2596   -1.6538 C   0  0  2  0  0  0  0  0  0  0  0  0
   13.1389   32.1832   -2.2980 N   0  0  0  0  0  0  0  0  0  0  0  0
   17.8168   27.5548   -2.0946 C   0  0  2  0  0  0  0  0  0  0  0  0
   20.3203   25.8571   -0.1854 C   0  0  1  0  0  0  0  0  0  0  0  0
   19.7718   26.5711   -1.2779 O   0  0  0  0  0  0  0  0  0  0  0  0
   15.5685   31.6151   -2.0865 C   0  0  1  0  0  0  0  0  0  0  0  0
   15.7433   33.0427   -1.6826 O   0  0  0  0  0  0  0  0  0  0  0  0
   18.4377   26.3639   -1.3874 C   0  0  2  0  0  0  0  0  0  0  0  0
   21.8053   26.1223   -0.1307 C   0  0  1  0  0  0  0  0  0  0  0  0
   22.4204   25.6650   -1.3264 N   0  0  0  0  0  0  0  0  0  0  0  0
   16.6248   30.6901   -1.4854 C   0  0  2  0  0  0  0  0  0  0  0  0
   17.9918   30.9867   -1.8607 N   0  0  0  0  0  0  0  0  0  0  0  0
   18.1207   25.2159   -2.3086 C   0  0  1  0  0  0  0  0  0  0  0  0
   19.1550   25.0750   -3.2882 O   0  0  0  0  0  0  0  0  0  0  0  0
   22.0078   27.6215    0.0109 C   0  0  2  0  0  0  0  0  0  0  0  0
   23.3845   27.9268    0.0570 O   0  0  0  0  0  0  0  0  0  0  0  0
   16.3064   29.2806   -1.9118 C   0  0  1  0  0  0  0  0  0  0  0  0
   17.2253   28.4452   -1.1542 O   0  0  0  0  0  0  0  0  0  0  0  0
   16.8552   25.6180   -2.9715 C   0  0  1  0  0  0  0  0  0  0  0  0
   16.8252   27.0470   -2.9904 O   0  0  0  0  0  0  0  0  0  0  0  0
   21.3247   28.0425    1.3122 C   0  0  1  0  0  0  0  0  0  0  0  0
   21.4653   29.4401    1.5139 O   0  0  0  0  0  0  0  0  0  0  0  0
   14.8829   28.8868   -1.4333 C   0  0  2  0  0  0  0  0  0  0  0  0
   14.6090   27.5527   -1.8324 O   0  0  0  0  0  0  0  0  0  0  0  0
   19.8434   27.6713    1.2368 C   0  0  1  0  0  0  0  0  0  0  0  0
   19.7040   26.2662    1.0332 O   0  0  0  0  0  0  0  0  0  0  0  0
   13.8483   29.8344   -2.0704 C   0  0  1  0  0  0  0  0  0  0  0  0
   12.5281   29.4839   -1.6386 O   0  0  0  0  0  0  0  0  0  0  0  0
   19.1665   28.0628    2.5506 C   0  0  0  0  0  0  0  0  0  0  0  0
   19.8089   27.3923    3.6232 O   0  0  0  0  0  0  0  0  0  0  0  0
   11.7918   32.1527   -0.4608 N   0  0  0  0  0  0  0  0  0  0  0  0
   19.5689   30.2594   -0.6459 N   0  0  0  0  0  0  0  0  0  0  0  0
  1  2  1  0  0  0  0
  1 39  1  0  0  0  0
  3  4  1  0  0  0  0
  5  6  1  0  0  0  0
  5 40  1  0  0  0  0
  9 10  1  6  0  0  0
  9 14  1  0  0  0  0
  9 35  1  0  0  0  0
 10  1  1  0  0  0  0
 11 16  1  0  0  0  0
 11 28  1  0  0  0  0
 11 26  1  1  0  0  0
 12 17  1  0  0  0  0
 12 34  1  0  0  0  0
 12 13  1  6  0  0  0
 14 15  1  1  0  0  0
 14 19  1  0  0  0  0
 16 13  1  6  0  0  0
 16 21  1  0  0  0  0
 17 18  1  6  0  0  0
 17 23  1  0  0  0  0
 18  8  1  0  0  0  0
 19 20  1  6  0  0  0
 19 25  1  0  0  0  0
 20  5  1  0  0  0  0
 21  3  1  1  0  0  0
 21 22  1  0  0  0  0
 21 27  1  0  0  0  0
 23 24  1  1  0  0  0
 23 29  1  0  0  0  0
 25 26  1  1  0  0  0
 25 31  1  0  0  0  0
 27  7  1  6  0  0  0
 27 28  1  0  0  0  0
 29 30  1  6  0  0  0
 29 33  1  0  0  0  0
 31 32  1  6  0  0  0
 31 35  1  0  0  0  0
 33 34  1  0  0  0  0
 33 37  1  1  0  0  0
 35 36  1  1  0  0  0
 37 38  1  0  0  0  0
M  END
>  <CHROM.1>
-166.28826278,-130.26306650,-161.74398635,179.47841204,154.62022168,-64.55645803
126.43534606,-68.65341542,-67.97531200,-131.31631783,-58.43452382,17.75222262
28.28746094,-1.05082727,-2.68339319,0.43792640,-2.72014158

>  <Name>
1ntb_lig

>  <RI>
0

>  <Rbt.Current_Directory>
/home/itssahil/PROJECTS/Mol_Feturizer/New_Systems/rnas/1ntb

>  <Rbt.Executable>
rbdock ($Id: //depot/dev/client3/rdock/2013.1/src/exe/rbdock.cxx#4 $)

>  <Rbt.Library>
libRbt.so (2013.1, Build901 2013/11/27)

>  <Rbt.Parameter_File>
/export/apps/rDock/src/rDock_2013.1_src/data/scripts/dock_solv.prm

>  <Rbt.Receptor>
prm/blind_docking_40.prm

>  <SCORE>
-9.68081

>  <SCORE.INTER>
-2.44004

>  <SCORE.INTER.CONST>
1

>  <SCORE.INTER.POLAR>
0

>  <SCORE.INTER.ROT>
11

>  <SCORE.INTER.SOLV>
20.4805

>  <SCORE.INTER.VDW>
-19.3868

>  <SCORE.INTER.norm>
-0.0610009

>  <SCORE.INTRA>
-7.46049

>  <SCORE.INTRA.DIHEDRAL>
-1.92496

>  <SCORE.INTRA.DIHEDRAL.0>
15.4453

>  <SCORE.INTRA.POLAR>
0

>  <SCORE.INTRA.POLAR.0>
0

>  <SCORE.INTRA.REPUL>
-0.823958

>  <SCORE.INTRA.REPUL.0>
0.823958

>  <SCORE.INTRA.SOLV>
2.99717

>  <SCORE.INTRA.SOLV.lig_0>
-99.3069

>  <SCORE.INTRA.VDW>
-3.87681

>  <SCORE.INTRA.VDW.0>
0.946495

>  <SCORE.INTRA.norm>
-0.186512

>  <SCORE.RESTR>
0.219721

>  <SCORE.RESTR.CAVITY>
0.219721

>  <SCORE.RESTR.norm>
0.00549302

>  <SCORE.SYSTEM>
0

>  <SCORE.SYSTEM.CONST>
0

>  <SCORE.SYSTEM.DIHEDRAL>
0

>  <SCORE.SYSTEM.SOLV>
0

>  <SCORE.SYSTEM.norm>
0

>  <SCORE.heavy>
40

>  <SCORE.norm>
-0.24202

>  <RMSD>
17.778

$$$$
1ntb_lig
 OpenBabel11021811403D
libRbt.so/2013.1/901 2013/11/27
 40 42  0  0  0  0  0  0  0  0999 V2000
   12.1252   32.0182   -1.7335 C   0  0  0  0  0  0  0  0  0  0  0  0
   12.0205   32.0851   -0.4628 N   0  0  0  0  0  0  0  0  0  0  0  0
   18.2849   24.0013   -2.9578 C   0  0  0  0  0  0  0  0  0  0  0  0
   18.0812   23.2366   -4.1342 O   0  0  0  0  0  0  0  0  0  0  0  0
   18.2619   31.4361   -2.8637 C   0  0  0  0  0  0  0  0  0  0  0  0
   18.1395   30.8019   -3.9750 N   0  0  0  0  0  0  0  0  0  0  0  0
   17.5059   25.8468   -5.5205 C   0  0  0  0  0  0  0  0  0  0  0  0
   22.6220   23.9254   -1.5298 C   0  0  0  0  0  0  0  0  0  0  0  0
   14.3210   31.1566   -1.6892 C   0  0  2  0  0  0  0  0  0  0  0  0
   13.3420   32.1841   -2.2152 N   0  0  0  0  0  0  0  0  0  0  0  0
   18.1152   27.6557   -2.5689 C   0  0  2  0  0  0  0  0  0  0  0  0
   20.2981   25.7849   -0.5818 C   0  0  1  0  0  0  0  0  0  0  0  0
   19.9750   26.4938   -1.7638 O   0  0  0  0  0  0  0  0  0  0  0  0
   15.7588   31.5721   -1.9807 C   0  0  1  0  0  0  0  0  0  0  0  0
   15.9091   32.9075   -1.3281 O   0  0  0  0  0  0  0  0  0  0  0  0
   18.6755   26.3232   -2.1060 C   0  0  2  0  0  0  0  0  0  0  0  0
   21.7803   25.9172   -0.3281 C   0  0  1  0  0  0  0  0  0  0  0  0
   22.5062   25.3510   -1.4097 N   0  0  0  0  0  0  0  0  0  0  0  0
   16.7848   30.5504   -1.4949 C   0  0  2  0  0  0  0  0  0  0  0  0
   18.1687   30.8983   -1.7429 N   0  0  0  0  0  0  0  0  0  0  0  0
   18.5245   25.4479   -3.3219 C   0  0  1  0  0  0  0  0  0  0  0  0
   19.6853   25.5597   -4.1520 O   0  0  0  0  0  0  0  0  0  0  0  0
   22.1043   27.3970   -0.2101 C   0  0  2  0  0  0  0  0  0  0  0  0
   23.4847   27.5786    0.0185 O   0  0  0  0  0  0  0  0  0  0  0  0
   16.4922   29.2376   -2.1739 C   0  0  1  0  0  0  0  0  0  0  0  0
   17.3728   28.2781   -1.5257 O   0  0  0  0  0  0  0  0  0  0  0  0
   17.3468   26.0073   -4.0308 C   0  0  1  0  0  0  0  0  0  0  0  0
   17.2710   27.3940   -3.6924 O   0  0  0  0  0  0  0  0  0  0  0  0
   21.2935   27.9381    0.9677 C   0  0  1  0  0  0  0  0  0  0  0  0
   21.5386   29.3251    1.1399 O   0  0  0  0  0  0  0  0  0  0  0  0
   15.0468   28.7767   -1.8441 C   0  0  2  0  0  0  0  0  0  0  0  0
   14.7971   27.5332   -2.4809 O   0  0  0  0  0  0  0  0  0  0  0  0
   19.8076   27.6990    0.6977 C   0  0  1  0  0  0  0  0  0  0  0  0
   19.5633   26.3042    0.5239 O   0  0  0  0  0  0  0  0  0  0  0  0
   14.0442   29.8267   -2.3603 C   0  0  1  0  0  0  0  0  0  0  0  0
   12.7043   29.4156   -2.0637 O   0  0  0  0  0  0  0  0  0  0  0  0
   18.9983   28.2108    1.8896 C   0  0  0  0  0  0  0  0  0  0  0  0
   19.3863   27.5011    3.0550 O   0  0  0  0  0  0  0  0  0  0  0  0
   11.1100   31.8272   -2.5007 N   0  0  0  0  0  0  0  0  0  0  0  0
   18.5419   32.6477   -2.8798 N   0  0  0  0  0  0  0  0  0  0  0  0
  1  2  1  0  0  0  0
  1 39  1  0  0  0  0
  3  4  1  0  0  0  0
  5  6  1  0  0  0  0
  5 40  1  0  0  0  0
  9 10  1  6  0  0  0
  9 14  1  0  0  0  0
  9 35  1  0  0  0  0
 10  1  1  0  0  0  0
 11 16  1  0  0  0  0
 11 28  1  0  0  0  0
 11 26  1  1  0  0  0
 12 17  1  0  0  0  0
 12 34  1  0  0  0  0
 12 13  1  6  0  0  0
 14 15  1  1  0  0  0
 14 19  1  0  0  0  0
 16 13  1  6  0  0  0
 16 21  1  0  0  0  0
 17 18  1  6  0  0  0
 17 23  1  0  0  0  0
 18  8  1  0  0  0  0
 19 20  1  6  0  0  0
 19 25  1  0  0  0  0
 20  5  1  0  0  0  0
 21  3  1  1  0  0  0
 21 22  1  0  0  0  0
 21 27  1  0  0  0  0
 23 24  1  1  0  0  0
 23 29  1  0  0  0  0
 25 26  1  1  0  0  0
 25 31  1  0  0  0  0
 27  7  1  6  0  0  0
 27 28  1  0  0  0  0
 29 30  1  6  0  0  0
 29 33  1  0  0  0  0
 31 32  1  6  0  0  0
 31 35  1  0  0  0  0
 33 34  1  0  0  0  0
 33 37  1  1  0  0  0
 35 36  1  1  0  0  0
 37 38  1  0  0  0  0
M  END
>  <CHROM.1>
-165.96687341,59.41432205,-159.22386928,175.00259428,138.59086378,-76.38277097
-38.88793257,-71.80621803,176.97832999,-125.45784195,-60.56404898,17.82656277
28.30847345,-1.67535399,-2.70545781,0.49460040,-2.53710956

>  <Name>
1ntb_lig

>  <RI>
0

>  <Rbt.Current_Directory>
/home/itssahil/PROJECTS/Mol_Feturizer/New_Systems/rnas/1ntb

>  <Rbt.Executable>
rbdock ($Id: //depot/dev/client3/rdock/2013.1/src/exe/rbdock.cxx#4 $)

>  <Rbt.Library>
libRbt.so (2013.1, Build901 2013/11/27)

>  <Rbt.Parameter_File>
/export/apps/rDock/src/rDock_2013.1_src/data/scripts/dock_solv.prm

>  <Rbt.Receptor>
prm/blind_docking_80.prm

>  <SCORE>
-11.408

>  <SCORE.INTER>
-9.06619

>  <SCORE.INTER.CONST>
1

>  <SCORE.INTER.POLAR>
-1.09545

>  <SCORE.INTER.ROT>
11

>  <SCORE.INTER.SOLV>
25.9359

>  <SCORE.INTER.VDW>
-21.9713

>  <SCORE.INTER.norm>
-0.226655

>  <SCORE.INTRA>
-3.29056

>  <SCORE.INTRA.DIHEDRAL>
1.43138

>  <SCORE.INTRA.DIHEDRAL.0>
15.4453

>  <SCORE.INTRA.POLAR>
0

>  <SCORE.INTRA.POLAR.0>
0

>  <SCORE.INTRA.REPUL>
-0.823958

>  <SCORE.INTRA.REPUL.0>
0.823958

>  <SCORE.INTRA.SOLV>
0.94762

>  <SCORE.INTRA.SOLV.lig_0>
-99.3069

>  <SCORE.INTRA.VDW>
-0.360278

>  <SCORE.INTRA.VDW.0>
0.946495

>  <SCORE.INTRA.norm>
-0.0822641

>  <SCORE.RESTR>
0.948757

>  <SCORE.RESTR.CAVITY>
0.948757

>  <SCORE.RESTR.norm>
0.0237189

>  <SCORE.SYSTEM>
0

>  <SCORE.SYSTEM.CONST>
0

>  <SCORE.SYSTEM.DIHEDRAL>
0

>  <SCORE.SYSTEM.SOLV>
0

>  <SCORE.SYSTEM.norm>
0

>  <SCORE.heavy>
40

>  <SCORE.norm>
-0.2852

>  <RMSD>
17.827

$$$$
1ntb_lig
 OpenBabel11021811403D
libRbt.so/2013.1/901 2013/11/27
 40 42  0  0  0  0  0  0  0  0999 V2000
   12.0727   32.0293   -1.7115 C   0  0  0  0  0  0  0  0  0  0  0  0
   11.1282   31.8302   -2.5473 N   0  0  0  0  0  0  0  0  0  0  0  0
   18.2980   24.0386   -2.8952 C   0  0  0  0  0  0  0  0  0  0  0  0
   18.0604   23.2788   -4.0685 O   0  0  0  0  0  0  0  0  0  0  0  0
   18.7175   31.2145   -0.8151 C   0  0  0  0  0  0  0  0  0  0  0  0
   18.4368   32.2420   -0.0956 N   0  0  0  0  0  0  0  0  0  0  0  0
   17.5375   25.8707   -5.4731 C   0  0  0  0  0  0  0  0  0  0  0  0
   22.5524   24.0498   -1.7224 C   0  0  0  0  0  0  0  0  0  0  0  0
   14.2733   31.1791   -1.6907 C   0  0  2  0  0  0  0  0  0  0  0  0
   13.2748   32.1785   -2.2340 N   0  0  0  0  0  0  0  0  0  0  0  0
   18.0942   27.6926   -2.5191 C   0  0  2  0  0  0  0  0  0  0  0  0
   20.2952   25.7608   -0.5609 C   0  0  1  0  0  0  0  0  0  0  0  0
   19.9526   26.5479   -1.6866 O   0  0  0  0  0  0  0  0  0  0  0  0
   15.6993   31.5787   -2.0535 C   0  0  1  0  0  0  0  0  0  0  0  0
   15.8704   32.9458   -1.4759 O   0  0  0  0  0  0  0  0  0  0  0  0
   18.6591   26.3659   -2.0451 C   0  0  2  0  0  0  0  0  0  0  0  0
   21.7732   25.9141   -0.2951 C   0  0  1  0  0  0  0  0  0  0  0  0
   22.5143   25.4513   -1.4149 N   0  0  0  0  0  0  0  0  0  0  0  0
   16.7434   30.5830   -1.5524 C   0  0  2  0  0  0  0  0  0  0  0  0
   18.1171   30.9174   -1.8664 N   0  0  0  0  0  0  0  0  0  0  0  0
   18.5308   25.4861   -3.2603 C   0  0  1  0  0  0  0  0  0  0  0  0
   19.7014   25.6049   -4.0757 O   0  0  0  0  0  0  0  0  0  0  0  0
   22.0565   27.3890   -0.0649 C   0  0  2  0  0  0  0  0  0  0  0  0
   23.4314   27.5906    0.1794 O   0  0  0  0  0  0  0  0  0  0  0  0
   16.4291   29.2372   -2.1525 C   0  0  1  0  0  0  0  0  0  0  0  0
   17.3334   28.3120   -1.4873 O   0  0  0  0  0  0  0  0  0  0  0  0
   17.3580   26.0341   -3.9860 C   0  0  1  0  0  0  0  0  0  0  0  0
   17.2667   27.4211   -3.6526 O   0  0  0  0  0  0  0  0  0  0  0  0
   21.2312   27.8172    1.1487 C   0  0  1  0  0  0  0  0  0  0  0  0
   21.4381   29.1934    1.4258 O   0  0  0  0  0  0  0  0  0  0  0  0
   14.9970   28.7941   -1.7489 C   0  0  2  0  0  0  0  0  0  0  0  0
   14.7269   27.5197   -2.3119 O   0  0  0  0  0  0  0  0  0  0  0  0
   19.7524   27.5586    0.8585 C   0  0  1  0  0  0  0  0  0  0  0  0
   19.5465   26.1748    0.5794 O   0  0  0  0  0  0  0  0  0  0  0  0
   13.9752   29.8165   -2.2827 C   0  0  1  0  0  0  0  0  0  0  0  0
   12.6472   29.4215   -1.9184 O   0  0  0  0  0  0  0  0  0  0  0  0
   18.9295   27.9565    2.0841 C   0  0  0  0  0  0  0  0  0  0  0  0
   19.3071   27.1423    3.1827 O   0  0  0  0  0  0  0  0  0  0  0  0
   11.8751   32.0579   -0.4404 N   0  0  0  0  0  0  0  0  0  0  0  0
   19.6738   30.4872   -0.4939 N   0  0  0  0  0  0  0  0  0  0  0  0
  1  2  1  0  0  0  0
  1 39  1  0  0  0  0
  3  4  1  0  0  0  0
  5  6  1  0  0  0  0
  5 40  1  0  0  0  0
  9 10  1  6  0  0  0
  9 14  1  0  0  0  0
  9 35  1  0  0  0  0
 10  1  1  0  0  0  0
 11 16  1  0  0  0  0
 11 28  1  0  0  0  0
 11 26  1  1  0  0  0
 12 17  1  0  0  0  0
 12 34  1  0  0  0  0
 12 13  1  6  0  0  0
 14 15  1  1  0  0  0
 14 19  1  0  0  0  0
 16 13  1  6  0  0  0
 16 21  1  0  0  0  0
 17 18  1  6  0  0  0
 17 23  1  0  0  0  0
 18  8  1  0  0  0  0
 19 20  1  6  0  0  0
 19 25  1  0  0  0  0
 20  5  1  0  0  0  0
 21  3  1  1  0  0  0
 21 22  1  0  0  0  0
 21 27  1  0  0  0  0
 23 24  1  1  0  0  0
 23 29  1  0  0  0  0
 25 26  1  1  0  0  0
 25 31  1  0  0  0  0
 27  7  1  6  0  0  0
 27 28  1  0  0  0  0
 29 30  1  6  0  0  0
 29 33  1  0  0  0  0
 31 32  1  6  0  0  0
 31 35  1  0  0  0  0
 33 34  1  0  0  0  0
 33 37  1  1  0  0  0
 35 36  1  1  0  0  0
 37 38  1  0  0  0  0
M  END
>  <CHROM.1>
-166.59129054,-123.03876146,-157.77038207,174.86974826,143.32120294,-69.83605291
111.29898605,-65.32270326,174.56016924,-122.18264109,-62.40671928,17.83702106
28.27415999,-1.42582509,-2.72512566,0.48250181,-2.51051972

>  <Name>
1ntb_lig

>  <RI>
0

>  <Rbt.Current_Directory>
/home/itssahil/PROJECTS/Mol_Feturizer/New_Systems/rnas/1ntb

>  <Rbt.Executable>
rbdock ($Id: //depot/dev/client3/rdock/2013.1/src/exe/rbdock.cxx#4 $)

>  <Rbt.Library>
libRbt.so (2013.1, Build901 2013/11/27)

>  <Rbt.Parameter_File>
/export/apps/rDock/src/rDock_2013.1_src/data/scripts/dock_solv.prm

>  <Rbt.Receptor>
prm/blind_docking_60.prm

>  <SCORE>
-9.46038

>  <SCORE.INTER>
-3.4694

>  <SCORE.INTER.CONST>
1

>  <SCORE.INTER.POLAR>
0

>  <SCORE.INTER.ROT>
11

>  <SCORE.INTER.SOLV>
21.4107

>  <SCORE.INTER.VDW>
-20.3832

>  <SCORE.INTER.norm>
-0.086735

>  <SCORE.INTRA>
-6.65482

>  <SCORE.INTRA.DIHEDRAL>
1.39634

>  <SCORE.INTRA.DIHEDRAL.0>
15.4453

>  <SCORE.INTRA.POLAR>
0

>  <SCORE.INTRA.POLAR.0>
0

>  <SCORE.INTRA.REPUL>
-0.823958

>  <SCORE.INTRA.REPUL.0>
0.823958

>  <SCORE.INTRA.SOLV>
1.57122

>  <SCORE.INTRA.SOLV.lig_0>
-99.3069

>  <SCORE.INTRA.VDW>
-4.01881

>  <SCORE.INTRA.VDW.0>
0.946495

>  <SCORE.INTRA.norm>
-0.166371

>  <SCORE.RESTR>
0.663843

>  <SCORE.RESTR.CAVITY>
0.663843

>  <SCORE.RESTR.norm>
0.0165961

>  <SCORE.SYSTEM>
0

>  <SCORE.SYSTEM.CONST>
0

>  <SCORE.SYSTEM.DIHEDRAL>
0

>  <SCORE.SYSTEM.SOLV>
0

>  <SCORE.SYSTEM.norm>
0

>  <SCORE.heavy>
40

>  <SCORE.norm>
-0.236509

>  <RMSD>
17.829

$$$$
1ntb_lig
 OpenBabel11021811403D
libRbt.so/2013.1/901 2013/11/27
 40 42  0  0  0  0  0  0  0  0999 V2000
   12.1294   31.9255   -1.8525 C   0  0  0  0  0  0  0  0  0  0  0  0
   11.1765   31.9416   -2.7022 N   0  0  0  0  0  0  0  0  0  0  0  0
   18.3459   23.8934   -2.9086 C   0  0  0  0  0  0  0  0  0  0  0  0
   19.4708   23.3756   -2.2182 O   0  0  0  0  0  0  0  0  0  0  0  0
   18.3970   31.3099   -2.3983 C   0  0  0  0  0  0  0  0  0  0  0  0
   18.1766   32.5318   -2.7304 N   0  0  0  0  0  0  0  0  0  0  0  0
   17.6057   25.7243   -5.4932 C   0  0  0  0  0  0  0  0  0  0  0  0
   22.6744   23.8200   -1.2437 C   0  0  0  0  0  0  0  0  0  0  0  0
   14.2819   30.9608   -1.8101 C   0  0  2  0  0  0  0  0  0  0  0  0
   13.3450   32.0164   -2.3566 N   0  0  0  0  0  0  0  0  0  0  0  0
   18.1699   27.5498   -2.5428 C   0  0  2  0  0  0  0  0  0  0  0  0
   20.3059   25.7443   -0.4782 C   0  0  1  0  0  0  0  0  0  0  0  0
   20.0173   26.3928   -1.7030 O   0  0  0  0  0  0  0  0  0  0  0  0
   15.7250   31.4529   -1.8195 C   0  0  1  0  0  0  0  0  0  0  0  0
   15.7079   32.6992   -0.9959 O   0  0  0  0  0  0  0  0  0  0  0  0
   18.7232   26.2200   -2.0640 C   0  0  2  0  0  0  0  0  0  0  0  0
   21.7830   25.8766   -0.1969 C   0  0  1  0  0  0  0  0  0  0  0  0
   22.5280   25.2478   -1.2299 N   0  0  0  0  0  0  0  0  0  0  0  0
   16.7142   30.4094   -1.3043 C   0  0  2  0  0  0  0  0  0  0  0  0
   18.1008   30.8274   -1.2877 N   0  0  0  0  0  0  0  0  0  0  0  0
   18.5908   25.3380   -3.2771 C   0  0  1  0  0  0  0  0  0  0  0  0
   19.7641   25.4453   -4.0901 O   0  0  0  0  0  0  0  0  0  0  0  0
   22.1192   27.3576   -0.1489 C   0  0  2  0  0  0  0  0  0  0  0  0
   23.4957   27.5387    0.1023 O   0  0  0  0  0  0  0  0  0  0  0  0
   16.5938   29.1846   -2.1735 C   0  0  1  0  0  0  0  0  0  0  0  0
   17.4115   28.1779   -1.5146 O   0  0  0  0  0  0  0  0  0  0  0  0
   17.4240   25.8932   -4.0069 C   0  0  1  0  0  0  0  0  0  0  0  0
   17.3428   27.2817   -3.6775 O   0  0  0  0  0  0  0  0  0  0  0  0
   21.2868   27.9671    0.9794 C   0  0  1  0  0  0  0  0  0  0  0  0
   21.5419   29.3591    1.0845 O   0  0  0  0  0  0  0  0  0  0  0  0
   15.1397   28.6424   -2.1332 C   0  0  2  0  0  0  0  0  0  0  0  0
   15.0518   27.4822   -2.9459 O   0  0  0  0  0  0  0  0  0  0  0  0
   19.8053   27.7273    0.6873 C   0  0  1  0  0  0  0  0  0  0  0  0
   19.5509   26.3276    0.5811 O   0  0  0  0  0  0  0  0  0  0  0  0
   14.1769   29.7184   -2.6711 C   0  0  1  0  0  0  0  0  0  0  0  0
   12.8294   29.2330   -2.6407 O   0  0  0  0  0  0  0  0  0  0  0  0
   18.9738   28.3083    1.8313 C   0  0  0  0  0  0  0  0  0  0  0  0
   17.6119   27.9601    1.6406 O   0  0  0  0  0  0  0  0  0  0  0  0
   11.9248   31.8030   -0.5880 N   0  0  0  0  0  0  0  0  0  0  0  0
   18.8854   30.5287   -3.2337 N   0  0  0  0  0  0  0  0  0  0  0  0
  1  2  1  0  0  0  0
  1 39  1  0  0  0  0
  3  4  1  0  0  0  0
  5  6  1  0  0  0  0
  5 40  1  0  0  0  0
  9 10  1  6  0  0  0
  9 14  1  0  0  0  0
  9 35  1  0  0  0  0
 10  1  1  0  0  0  0
 11 16  1  0  0  0  0
 11 28  1  0  0  0  0
 11 26  1  1  0  0  0
 12 17  1  0  0  0  0
 12 34  1  0  0  0  0
 12 13  1  6  0  0  0
 14 15  1  1  0  0  0
 14 19  1  0  0  0  0
 16 13  1  6  0  0  0
 16 21  1  0  0  0  0
 17 18  1  6  0  0  0
 17 23  1  0  0  0  0
 18  8  1  0  0  0  0
 19 20  1  6  0  0  0
 19 25  1  0  0  0  0
 20  5  1  0  0  0  0
 21  3  1  1  0  0  0
 21 22  1  0  0  0  0
 21 27  1  0  0  0  0
 23 24  1  1  0  0  0
 23 29  1  0  0  0  0
 25 26  1  1  0  0  0
 25 31  1  0  0  0  0
 27  7  1  6  0  0  0
 27 28  1  0  0  0  0
 29 30  1  6  0  0  0
 29 33  1  0  0  0  0
 31 32  1  6  0  0  0
 31 35  1  0  0  0  0
 33 34  1  0  0  0  0
 33 37  1  1  0  0  0
 35 36  1  1  0  0  0
 37 38  1  0  0  0  0
M  END
>  <CHROM.1>
-151.72895289,-130.88593441,-162.25676259,175.22413118,135.73258964,-78.74546761
-49.77996347,84.42296683,-64.39567637,-135.43440112,-173.60368644,17.85313731
28.23949480,-1.63115608,-2.68548458,0.47189845,-2.59040692

>  <Name>
1ntb_lig

>  <RI>
0

>  <Rbt.Current_Directory>
/home/itssahil/PROJECTS/Mol_Feturizer/New_Systems/rnas/1ntb

>  <Rbt.Executable>
rbdock ($Id: //depot/dev/client3/rdock/2013.1/src/exe/rbdock.cxx#4 $)

>  <Rbt.Library>
libRbt.so (2013.1, Build901 2013/11/27)

>  <Rbt.Parameter_File>
/export/apps/rDock/src/rDock_2013.1_src/data/scripts/dock_solv.prm

>  <Rbt.Receptor>
prm/blind_docking_40.prm

>  <SCORE>
-7.23033

>  <SCORE.INTER>
-2.35789

>  <SCORE.INTER.CONST>
1

>  <SCORE.INTER.POLAR>
-0.152783

>  <SCORE.INTER.ROT>
11

>  <SCORE.INTER.SOLV>
25.7863

>  <SCORE.INTER.VDW>
-20.5914

>  <SCORE.INTER.norm>
-0.0589473

>  <SCORE.INTRA>
-4.92887

>  <SCORE.INTRA.DIHEDRAL>
0.278657

>  <SCORE.INTRA.DIHEDRAL.0>
15.4453

>  <SCORE.INTRA.POLAR>
0

>  <SCORE.INTRA.POLAR.0>
0

>  <SCORE.INTRA.REPUL>
-0.823958

>  <SCORE.INTRA.REPUL.0>
0.823958

>  <SCORE.INTRA.SOLV>
2.02164

>  <SCORE.INTRA.SOLV.lig_0>
-99.3069

>  <SCORE.INTRA.VDW>
-1.95923

>  <SCORE.INTRA.VDW.0>
0.946495

>  <SCORE.INTRA.norm>
-0.123222

>  <SCORE.RESTR>
0.0564304

>  <SCORE.RESTR.CAVITY>
0.0564304

>  <SCORE.RESTR.norm>
0.00141076

>  <SCORE.SYSTEM>
0

>  <SCORE.SYSTEM.CONST>
0

>  <SCORE.SYSTEM.DIHEDRAL>
0

>  <SCORE.SYSTEM.SOLV>
0

>  <SCORE.SYSTEM.norm>
0

>  <SCORE.heavy>
40

>  <SCORE.norm>
-0.180758

>  <RMSD>
17.848

$$$$
1ntb_lig
 OpenBabel11021811403D
libRbt.so/2013.1/901 2013/11/27
 40 42  0  0  0  0  0  0  0  0999 V2000
   12.1624   32.0407   -1.6120 C   0  0  0  0  0  0  0  0  0  0  0  0
   11.1532   31.9675   -2.3908 N   0  0  0  0  0  0  0  0  0  0  0  0
   18.3944   23.8232   -3.0698 C   0  0  0  0  0  0  0  0  0  0  0  0
   19.5565   23.3566   -2.4049 O   0  0  0  0  0  0  0  0  0  0  0  0
   18.6706   31.3043   -1.5070 C   0  0  0  0  0  0  0  0  0  0  0  0
   19.1558   31.0107   -0.3535 N   0  0  0  0  0  0  0  0  0  0  0  0
   17.5539   25.6756   -5.6080 C   0  0  0  0  0  0  0  0  0  0  0  0
   22.6133   23.8856   -1.7430 C   0  0  0  0  0  0  0  0  0  0  0  0
   14.3145   31.0770   -1.6876 C   0  0  2  0  0  0  0  0  0  0  0  0
   13.3380   32.1104   -2.2065 N   0  0  0  0  0  0  0  0  0  0  0  0
   17.9669   27.4469   -2.6000 C   0  0  2  0  0  0  0  0  0  0  0  0
   20.2475   25.6214   -0.6456 C   0  0  1  0  0  0  0  0  0  0  0  0
   19.8814   26.3932   -1.7744 O   0  0  0  0  0  0  0  0  0  0  0  0
   15.7167   31.3284   -2.2312 C   0  0  1  0  0  0  0  0  0  0  0  0
   16.0513   32.7172   -1.7940 O   0  0  0  0  0  0  0  0  0  0  0  0
   18.6052   26.1440   -2.1541 C   0  0  2  0  0  0  0  0  0  0  0  0
   21.7311   25.7765   -0.4140 C   0  0  1  0  0  0  0  0  0  0  0  0
   22.4472   25.2972   -1.5431 N   0  0  0  0  0  0  0  0  0  0  0  0
   16.7339   30.2916   -1.7590 C   0  0  2  0  0  0  0  0  0  0  0  0
   18.0850   30.4862   -2.2432 N   0  0  0  0  0  0  0  0  0  0  0  0
   18.5437   25.2914   -3.3936 C   0  0  1  0  0  0  0  0  0  0  0  0
   19.7140   25.5020   -4.1905 O   0  0  0  0  0  0  0  0  0  0  0  0
   22.0208   27.2541   -0.2106 C   0  0  2  0  0  0  0  0  0  0  0  0
   23.4009   27.4572    0.0010 O   0  0  0  0  0  0  0  0  0  0  0  0
   16.2565   28.9340   -2.2053 C   0  0  1  0  0  0  0  0  0  0  0  0
   17.1587   27.9914   -1.5621 O   0  0  0  0  0  0  0  0  0  0  0  0
   17.3482   25.7877   -4.1195 C   0  0  1  0  0  0  0  0  0  0  0  0
   17.1699   27.1572   -3.7508 O   0  0  0  0  0  0  0  0  0  0  0  0
   21.2225   27.7001    1.0146 C   0  0  1  0  0  0  0  0  0  0  0  0
   21.4368   29.0798    1.2680 O   0  0  0  0  0  0  0  0  0  0  0  0
   14.8495   28.6431   -1.6170 C   0  0  2  0  0  0  0  0  0  0  0  0
   14.4253   27.3556   -2.0373 O   0  0  0  0  0  0  0  0  0  0  0  0
   19.7375   27.4395    0.7602 C   0  0  1  0  0  0  0  0  0  0  0  0
   19.5241   26.0522    0.5048 O   0  0  0  0  0  0  0  0  0  0  0  0
   13.8527   29.7021   -2.1261 C   0  0  1  0  0  0  0  0  0  0  0  0
   12.5481   29.4473   -1.5918 O   0  0  0  0  0  0  0  0  0  0  0  0
   18.9418   27.8554    1.9977 C   0  0  0  0  0  0  0  0  0  0  0  0
   19.1331   29.2417    2.2300 O   0  0  0  0  0  0  0  0  0  0  0  0
   12.0483   32.0223   -0.3305 N   0  0  0  0  0  0  0  0  0  0  0  0
   18.7291   32.4783   -1.9131 N   0  0  0  0  0  0  0  0  0  0  0  0
  1  2  1  0  0  0  0
  1 39  1  0  0  0  0
  3  4  1  0  0  0  0
  5  6  1  0  0  0  0
  5 40  1  0  0  0  0
  9 10  1  6  0  0  0
  9 14  1  0  0  0  0
  9 35  1  0  0  0  0
 10  1  1  0  0  0  0
 11 16  1  0  0  0  0
 11 28  1  0  0  0  0
 11 26  1  1  0  0  0
 12 17  1  0  0  0  0
 12 34  1  0  0  0  0
 12 13  1  6  0  0  0
 14 15  1  1  0  0  0
 14 19  1  0  0  0  0
 16 13  1  6  0  0  0
 16 21  1  0  0  0  0
 17 18  1  6  0  0  0
 17 23  1  0  0  0  0
 18  8  1  0  0  0  0
 19 20  1  6  0  0  0
 19 25  1  0  0  0  0
 20  5  1  0  0  0  0
 21  3  1  1  0  0  0
 21 22  1  0  0  0  0
 21 27  1  0  0  0  0
 23 24  1  1  0  0  0
 23 29  1  0  0  0  0
 25 26  1  1  0  0  0
 25 31  1  0  0  0  0
 27  7  1  6  0  0  0
 27 28  1  0  0  0  0
 29 30  1  6  0  0  0
 29 33  1  0  0  0  0
 31 32  1  6  0  0  0
 31 35  1  0  0  0  0
 33 34  1  0  0  0  0
 33 37  1  1  0  0  0
 35 36  1  1  0  0  0
 37 38  1  0  0  0  0
M  END
>  <CHROM.1>
-170.95087127,-128.10601419,-160.81687213,170.95144437,141.89955838,-77.34262301
83.92145751,78.07932263,-65.48084476,-109.46828458,61.14011927,17.84484199
28.21806237,-1.51751046,-2.65821471,0.44221510,-2.57671002

>  <Name>
1ntb_lig

>  <RI>
0

>  <Rbt.Current_Directory>
/home/itssahil/PROJECTS/Mol_Feturizer/New_Systems/rnas/1ntb

>  <Rbt.Executable>
rbdock ($Id: //depot/dev/client3/rdock/2013.1/src/exe/rbdock.cxx#4 $)

>  <Rbt.Library>
libRbt.so (2013.1, Build901 2013/11/27)

>  <Rbt.Parameter_File>
/export/apps/rDock/src/rDock_2013.1_src/data/scripts/dock_solv.prm

>  <Rbt.Receptor>
prm/blind_docking_100.prm

>  <SCORE>
-9.59248

>  <SCORE.INTER>
-3.24053

>  <SCORE.INTER.CONST>
1

>  <SCORE.INTER.POLAR>
0

>  <SCORE.INTER.ROT>
11

>  <SCORE.INTER.SOLV>
20.2087

>  <SCORE.INTER.VDW>
-19.8299

>  <SCORE.INTER.norm>
-0.0810132

>  <SCORE.INTRA>
-6.35195

>  <SCORE.INTRA.DIHEDRAL>
0.168439

>  <SCORE.INTRA.DIHEDRAL.0>
15.4453

>  <SCORE.INTRA.POLAR>
0

>  <SCORE.INTRA.POLAR.0>
0

>  <SCORE.INTRA.REPUL>
-0.823958

>  <SCORE.INTRA.REPUL.0>
0.823958

>  <SCORE.INTRA.SOLV>
1.8184

>  <SCORE.INTRA.SOLV.lig_0>
-99.3069

>  <SCORE.INTRA.VDW>
-3.22558

>  <SCORE.INTRA.VDW.0>
0.946495

>  <SCORE.INTRA.norm>
-0.158799

>  <SCORE.RESTR>
0

>  <SCORE.RESTR.CAVITY>
0

>  <SCORE.RESTR.norm>
0

>  <SCORE.SYSTEM>
0

>  <SCORE.SYSTEM.CONST>
0

>  <SCORE.SYSTEM.DIHEDRAL>
0

>  <SCORE.SYSTEM.SOLV>
0

>  <SCORE.SYSTEM.norm>
0

>  <SCORE.heavy>
40

>  <SCORE.norm>
-0.239812

>  <RMSD>
17.853

$$$$
1ntb_lig
 OpenBabel11021811403D
libRbt.so/2013.1/901 2013/11/27
 40 42  0  0  0  0  0  0  0  0999 V2000
   22.4948   22.7501   -2.9584 C   0  0  0  0  0  0  0  0  0  0  0  0
   22.1740   22.4417   -1.7617 N   0  0  0  0  0  0  0  0  0  0  0  0
   18.0046   32.3652    0.1002 C   0  0  0  0  0  0  0  0  0  0  0  0
   18.2141   33.7324   -0.2116 O   0  0  0  0  0  0  0  0  0  0  0  0
   18.3286   27.2041   -4.2640 C   0  0  0  0  0  0  0  0  0  0  0  0
   18.1945   25.9320   -4.3893 N   0  0  0  0  0  0  0  0  0  0  0  0
   20.4946   32.5045   -1.9879 C   0  0  0  0  0  0  0  0  0  0  0  0
   12.7316   30.7003   -1.1960 C   0  0  0  0  0  0  0  0  0  0  0  0
   21.5292   24.8520   -2.4941 C   0  0  2  0  0  0  0  0  0  0  0  0
   22.5892   24.0418   -3.2089 N   0  0  0  0  0  0  0  0  0  0  0  0
   19.1272   29.2920   -1.5819 C   0  0  2  0  0  0  0  0  0  0  0  0
   15.9693   29.0525   -0.7587 C   0  0  1  0  0  0  0  0  0  0  0  0
   16.8532   29.8258   -1.5491 O   0  0  0  0  0  0  0  0  0  0  0  0
   20.9079   25.8846   -3.4282 C   0  0  1  0  0  0  0  0  0  0  0  0
   20.3620   25.0877   -4.5678 O   0  0  0  0  0  0  0  0  0  0  0  0
   18.0166   30.0697   -0.8996 C   0  0  2  0  0  0  0  0  0  0  0  0
   14.5985   29.0887   -1.3896 C   0  0  1  0  0  0  0  0  0  0  0  0
   14.1213   30.4260   -1.4278 N   0  0  0  0  0  0  0  0  0  0  0  0
   19.8516   26.7492   -2.7431 C   0  0  2  0  0  0  0  0  0  0  0  0
   19.2253   27.7451   -3.5878 N   0  0  0  0  0  0  0  0  0  0  0  0
   18.4572   31.5012   -1.0536 C   0  0  1  0  0  0  0  0  0  0  0  0
   17.9661   32.0337   -2.2883 O   0  0  0  0  0  0  0  0  0  0  0  0
   14.7198   28.5455   -2.8034 C   0  0  2  0  0  0  0  0  0  0  0  0
   13.4633   28.5665   -3.4449 O   0  0  0  0  0  0  0  0  0  0  0  0
   20.5058   27.4501   -1.5809 C   0  0  1  0  0  0  0  0  0  0  0  0
   19.4119   28.0928   -0.8692 O   0  0  0  0  0  0  0  0  0  0  0  0
   19.9387   31.4250   -1.0958 C   0  0  1  0  0  0  0  0  0  0  0  0
   20.2797   30.1370   -1.6137 O   0  0  0  0  0  0  0  0  0  0  0  0
   15.2348   27.1108   -2.6868 C   0  0  1  0  0  0  0  0  0  0  0  0
   15.3814   26.5327   -3.9745 O   0  0  0  0  0  0  0  0  0  0  0  0
   21.0992   26.4083   -0.5946 C   0  0  2  0  0  0  0  0  0  0  0  0
   21.6972   27.0883    0.4981 O   0  0  0  0  0  0  0  0  0  0  0  0
   16.5817   27.1250   -1.9634 C   0  0  1  0  0  0  0  0  0  0  0  0
   16.4326   27.7072   -0.6695 O   0  0  0  0  0  0  0  0  0  0  0  0
   22.1668   25.5667   -1.3200 C   0  0  1  0  0  0  0  0  0  0  0  0
   22.7248   24.5996   -0.4224 O   0  0  0  0  0  0  0  0  0  0  0  0
   17.0818   25.6876   -1.8179 C   0  0  0  0  0  0  0  0  0  0  0  0
   18.0498   25.6340   -0.7823 O   0  0  0  0  0  0  0  0  0  0  0  0
   22.6896   21.8642   -3.8710 N   0  0  0  0  0  0  0  0  0  0  0  0
   17.5641   27.9627   -4.8859 N   0  0  0  0  0  0  0  0  0  0  0  0
  1  2  1  0  0  0  0
  1 39  1  0  0  0  0
  3  4  1  0  0  0  0
  5  6  1  0  0  0  0
  5 40  1  0  0  0  0
  9 10  1  6  0  0  0
  9 14  1  0  0  0  0
  9 35  1  0  0  0  0
 10  1  1  0  0  0  0
 11 16  1  0  0  0  0
 11 28  1  0  0  0  0
 11 26  1  1  0  0  0
 12 17  1  0  0  0  0
 12 34  1  0  0  0  0
 12 13  1  6  0  0  0
 14 15  1  6  0  0  0
 14 19  1  0  0  0  0
 16 13  1  6  0  0  0
 16 21  1  0  0  0  0
 17 18  1  6  0  0  0
 17 23  1  0  0  0  0
 18  8  1  0  0  0  0
 19 20  1  6  0  0  0
 19 25  1  0  0  0  0
 20  5  1  0  0  0  0
 21  3  1  1  0  0  0
 21 22  1  0  0  0  0
 21 27  1  0  0  0  0
 23 24  1  1  0  0  0
 23 29  1  0  0  0  0
 25 26  1  1  0  0  0
 25 31  1  0  0  0  0
 27  7  1  6  0  0  0
 27 28  1  0  0  0  0
 29 30  1  6  0  0  0
 29 33  1  0  0  0  0
 31 32  1  1  0  0  0
 31 35  1  0  0  0  0
 33 34  1  0  0  0  0
 33 37  1  1  0  0  0
 35 36  1  1  0  0  0
 37 38  1  0  0  0  0
M  END
>  <CHROM.1>
-135.29978672,-38.03757183,-178.42524646,166.96370508,110.62241786,-142.56200399
81.11727794,-13.59022875,-168.78321911,-80.56514974,-160.01614827,18.60933992
27.80077435,-2.02448041,0.82481026,0.21426248,-2.80018230

>  <Name>
1ntb_lig

>  <RI>
0

>  <Rbt.Current_Directory>
/home/itssahil/PROJECTS/Mol_Feturizer/New_Systems/rnas/1ntb

>  <Rbt.Executable>
rbdock ($Id: //depot/dev/client3/rdock/2013.1/src/exe/rbdock.cxx#4 $)

>  <Rbt.Library>
libRbt.so (2013.1, Build901 2013/11/27)

>  <Rbt.Parameter_File>
/export/apps/rDock/src/rDock_2013.1_src/data/scripts/dock_solv.prm

>  <Rbt.Receptor>
prm/blind_docking_60.prm

>  <SCORE>
5.09738

>  <SCORE.INTER>
3.42717

>  <SCORE.INTER.CONST>
1

>  <SCORE.INTER.POLAR>
-2.52014

>  <SCORE.INTER.ROT>
11

>  <SCORE.INTER.SOLV>
25.2628

>  <SCORE.INTER.VDW>
-8.66904

>  <SCORE.INTER.norm>
0.0856793

>  <SCORE.INTRA>
0.357176

>  <SCORE.INTRA.DIHEDRAL>
-0.821008

>  <SCORE.INTRA.DIHEDRAL.0>
15.4453

>  <SCORE.INTRA.POLAR>
0

>  <SCORE.INTRA.POLAR.0>
0

>  <SCORE.INTRA.REPUL>
-0.823958

>  <SCORE.INTRA.REPUL.0>
0.823958

>  <SCORE.INTRA.SOLV>
8.25065

>  <SCORE.INTRA.SOLV.lig_0>
-99.3069

>  <SCORE.INTRA.VDW>
0.762141

>  <SCORE.INTRA.VDW.0>
0.946495

>  <SCORE.INTRA.norm>
0.00892941

>  <SCORE.RESTR>
1.31303

>  <SCORE.RESTR.CAVITY>
1.31303

>  <SCORE.RESTR.norm>
0.0328257

>  <SCORE.SYSTEM>
0

>  <SCORE.SYSTEM.CONST>
0

>  <SCORE.SYSTEM.DIHEDRAL>
0

>  <SCORE.SYSTEM.SOLV>
0

>  <SCORE.SYSTEM.norm>
0

>  <SCORE.heavy>
40

>  <SCORE.norm>
0.127434

>  <RMSD>
17.853

$$$$
1ntb_lig
 OpenBabel11021811403D
libRbt.so/2013.1/901 2013/11/27
 40 42  0  0  0  0  0  0  0  0999 V2000
   18.4733   22.0874    1.0671 C   0  0  0  0  0  0  0  0  0  0  0  0
   18.3810   21.6436   -0.1265 N   0  0  0  0  0  0  0  0  0  0  0  0
   19.7213   32.9365   -0.0739 C   0  0  0  0  0  0  0  0  0  0  0  0
   20.3784   33.8852   -0.8976 O   0  0  0  0  0  0  0  0  0  0  0  0
   18.3785   26.7822   -2.0661 C   0  0  0  0  0  0  0  0  0  0  0  0
   18.7275   26.0647   -3.0739 N   0  0  0  0  0  0  0  0  0  0  0  0
   22.5696   31.4102   -0.4454 C   0  0  0  0  0  0  0  0  0  0  0  0
   18.3815   34.0488   -3.1832 C   0  0  0  0  0  0  0  0  0  0  0  0
   19.0913   24.3455    1.3584 C   0  0  2  0  0  0  0  0  0  0  0  0
   19.4954   22.8880    1.3008 N   0  0  0  0  0  0  0  0  0  0  0  0
   19.8429   29.2645    0.1175 C   0  0  2  0  0  0  0  0  0  0  0  0
   17.1173   31.1663   -1.2185 C   0  0  1  0  0  0  0  0  0  0  0  0
   18.2357   30.2984   -1.2260 O   0  0  0  0  0  0  0  0  0  0  0  0
   19.3343   25.0334    0.0194 C   0  0  1  0  0  0  0  0  0  0  0  0
   18.5328   24.2452   -0.9646 O   0  0  0  0  0  0  0  0  0  0  0  0
   19.0488   30.5265   -0.1670 C   0  0  2  0  0  0  0  0  0  0  0  0
   17.1606   32.0219   -2.4614 C   0  0  1  0  0  0  0  0  0  0  0  0
   18.3443   32.8069   -2.4645 N   0  0  0  0  0  0  0  0  0  0  0  0
   18.9695   26.5164    0.0362 C   0  0  2  0  0  0  0  0  0  0  0  0
   19.1769   27.2181   -1.2137 N   0  0  0  0  0  0  0  0  0  0  0  0
   20.1175   31.5380   -0.4862 C   0  0  1  0  0  0  0  0  0  0  0  0
   20.4193   31.5054   -1.8851 O   0  0  0  0  0  0  0  0  0  0  0  0
   17.1540   31.0968   -3.6666 C   0  0  2  0  0  0  0  0  0  0  0  0
   17.2037   31.8478   -4.8600 O   0  0  0  0  0  0  0  0  0  0  0  0
   19.7945   27.1867    1.1040 C   0  0  1  0  0  0  0  0  0  0  0  0
   19.2613   28.5372    1.1944 O   0  0  0  0  0  0  0  0  0  0  0  0
   21.2966   31.0815    0.2908 C   0  0  1  0  0  0  0  0  0  0  0  0
   21.1738   29.6663    0.4502 O   0  0  0  0  0  0  0  0  0  0  0  0
   15.8587   30.2873   -3.5999 C   0  0  1  0  0  0  0  0  0  0  0  0
   15.7808   29.3894   -4.6960 O   0  0  0  0  0  0  0  0  0  0  0  0
   19.5188   26.5290    2.4830 C   0  0  2  0  0  0  0  0  0  0  0  0
   20.2939   27.1836    3.4754 O   0  0  0  0  0  0  0  0  0  0  0  0
   15.8275   29.5100   -2.2836 C   0  0  1  0  0  0  0  0  0  0  0  0
   15.9068   30.4143   -1.1830 O   0  0  0  0  0  0  0  0  0  0  0  0
   19.9105   25.0398    2.4274 C   0  0  1  0  0  0  0  0  0  0  0  0
   19.6620   24.4177    3.6938 O   0  0  0  0  0  0  0  0  0  0  0  0
   14.5176   28.7257   -2.2019 C   0  0  0  0  0  0  0  0  0  0  0  0
   14.2653   28.1089   -3.4542 O   0  0  0  0  0  0  0  0  0  0  0  0
   17.6414   21.7585    1.9921 N   0  0  0  0  0  0  0  0  0  0  0  0
   17.1882   27.1193   -1.9397 N   0  0  0  0  0  0  0  0  0  0  0  0
  1  2  1  0  0  0  0
  1 39  1  0  0  0  0
  3  4  1  0  0  0  0
  5  6  1  0  0  0  0
  5 40  1  0  0  0  0
  9 10  1  6  0  0  0
  9 14  1  0  0  0  0
  9 35  1  0  0  0  0
 10  1  1  0  0  0  0
 11 16  1  0  0  0  0
 11 28  1  0  0  0  0
 11 26  1  1  0  0  0
 12 17  1  0  0  0  0
 12 34  1  0  0  0  0
 12 13  1  6  0  0  0
 14 15  1  6  0  0  0
 14 19  1  0  0  0  0
 16 13  1  6  0  0  0
 16 21  1  0  0  0  0
 17 18  1  1  0  0  0
 17 23  1  0  0  0  0
 18  8  1  0  0  0  0
 19 20  1  6  0  0  0
 19 25  1  0  0  0  0
 20  5  1  0  0  0  0
 21  3  1  1  0  0  0
 21 22  1  0  0  0  0
 21 27  1  0  0  0  0
 23 24  1  6  0  0  0
 23 29  1  0  0  0  0
 25 26  1  1  0  0  0
 25 31  1  0  0  0  0
 27  7  1  6  0  0  0
 27 28  1  0  0  0  0
 29 30  1  6  0  0  0
 29 33  1  0  0  0  0
 31 32  1  1  0  0  0
 31 35  1  0  0  0  0
 33 34  1  0  0  0  0
 33 37  1  1  0  0  0
 35 36  1  1  0  0  0
 37 38  1  0  0  0  0
M  END
>  <CHROM.1>
-96.92613094,102.82694610,161.80199504,117.98252179,155.90327808,-154.28607377
66.94120597,-109.50043670,-152.62446275,-80.31055333,44.08687517,18.54996800
28.44888577,-0.74012235,1.43812727,0.73992722,2.79897735

>  <Name>
1ntb_lig

>  <RI>
0

>  <Rbt.Current_Directory>
/home/itssahil/PROJECTS/Mol_Feturizer/New_Systems/rnas/1ntb

>  <Rbt.Executable>
rbdock ($Id: //depot/dev/client3/rdock/2013.1/src/exe/rbdock.cxx#4 $)

>  <Rbt.Library>
libRbt.so (2013.1, Build901 2013/11/27)

>  <Rbt.Parameter_File>
/export/apps/rDock/src/rDock_2013.1_src/data/scripts/dock_solv.prm

>  <Rbt.Receptor>
prm/blind_docking_80.prm

>  <SCORE>
-9.34135

>  <SCORE.INTER>
-9.88443

>  <SCORE.INTER.CONST>
1

>  <SCORE.INTER.POLAR>
-1.01248

>  <SCORE.INTER.ROT>
11

>  <SCORE.INTER.SOLV>
17.4179

>  <SCORE.INTER.VDW>
-19.954

>  <SCORE.INTER.norm>
-0.247111

>  <SCORE.INTRA>
0.0704921

>  <SCORE.INTRA.DIHEDRAL>
3.24513

>  <SCORE.INTRA.DIHEDRAL.0>
15.4453

>  <SCORE.INTRA.POLAR>
0

>  <SCORE.INTRA.POLAR.0>
0

>  <SCORE.INTRA.REPUL>
-0.815622

>  <SCORE.INTRA.REPUL.0>
0.823958

>  <SCORE.INTRA.SOLV>
5.54353

>  <SCORE.INTRA.SOLV.lig_0>
-99.3069

>  <SCORE.INTRA.VDW>
-0.245726

>  <SCORE.INTRA.VDW.0>
0.946495

>  <SCORE.INTRA.norm>
0.0017623

>  <SCORE.RESTR>
0.472592

>  <SCORE.RESTR.CAVITY>
0.472592

>  <SCORE.RESTR.norm>
0.0118148

>  <SCORE.SYSTEM>
0

>  <SCORE.SYSTEM.CONST>
0

>  <SCORE.SYSTEM.DIHEDRAL>
0

>  <SCORE.SYSTEM.SOLV>
0

>  <SCORE.SYSTEM.norm>
0

>  <SCORE.heavy>
40

>  <SCORE.norm>
-0.233534

>  <RMSD>
17.867

$$$$
1ntb_lig
 OpenBabel11021811403D
libRbt.so/2013.1/901 2013/11/27
 40 42  0  0  0  0  0  0  0  0999 V2000
   12.1472   31.9934   -1.7523 C   0  0  0  0  0  0  0  0  0  0  0  0
   12.0402   32.0357   -0.4807 N   0  0  0  0  0  0  0  0  0  0  0  0
   18.3359   23.8451   -2.9357 C   0  0  0  0  0  0  0  0  0  0  0  0
   19.4968   23.3553   -2.2854 O   0  0  0  0  0  0  0  0  0  0  0  0
   18.1663   31.1624   -3.1509 C   0  0  0  0  0  0  0  0  0  0  0  0
   18.4427   32.4021   -3.3478 N   0  0  0  0  0  0  0  0  0  0  0  0
   17.5273   25.6609   -5.5104 C   0  0  0  0  0  0  0  0  0  0  0  0
   22.6145   23.8968   -1.5112 C   0  0  0  0  0  0  0  0  0  0  0  0
   14.3341   31.1103   -1.6922 C   0  0  2  0  0  0  0  0  0  0  0  0
   13.3684   32.1456   -2.2274 N   0  0  0  0  0  0  0  0  0  0  0  0
   18.0199   27.4900   -2.5495 C   0  0  2  0  0  0  0  0  0  0  0  0
   20.2482   25.6842   -0.5413 C   0  0  1  0  0  0  0  0  0  0  0  0
   19.9099   26.3999   -1.7149 O   0  0  0  0  0  0  0  0  0  0  0  0
   15.7619   31.4158   -2.1314 C   0  0  1  0  0  0  0  0  0  0  0  0
   16.0343   32.7899   -1.6122 O   0  0  0  0  0  0  0  0  0  0  0  0
   18.6235   26.1797   -2.0778 C   0  0  2  0  0  0  0  0  0  0  0  0
   21.7259   25.8510   -0.2820 C   0  0  1  0  0  0  0  0  0  0  0  0
   22.4686   25.3176   -1.3688 N   0  0  0  0  0  0  0  0  0  0  0  0
   16.7713   30.3802   -1.6403 C   0  0  2  0  0  0  0  0  0  0  0  0
   18.1456   30.6252   -2.0261 N   0  0  0  0  0  0  0  0  0  0  0  0
   18.5255   25.3001   -3.2959 C   0  0  1  0  0  0  0  0  0  0  0  0
   19.6942   25.4569   -4.1075 O   0  0  0  0  0  0  0  0  0  0  0  0
   22.0117   27.3369   -0.1440 C   0  0  2  0  0  0  0  0  0  0  0  0
   23.3865   27.5507    0.0906 O   0  0  0  0  0  0  0  0  0  0  0  0
   16.3562   29.0347   -2.1765 C   0  0  1  0  0  0  0  0  0  0  0  0
   17.2376   28.0828   -1.5182 O   0  0  0  0  0  0  0  0  0  0  0  0
   17.3386   25.8143   -4.0234 C   0  0  1  0  0  0  0  0  0  0  0  0
   17.2042   27.1969   -3.6862 O   0  0  0  0  0  0  0  0  0  0  0  0
   21.1845   27.8419    1.0384 C   0  0  1  0  0  0  0  0  0  0  0  0
   21.3937   29.2324    1.2292 O   0  0  0  0  0  0  0  0  0  0  0  0
   14.9217   28.6875   -1.6948 C   0  0  2  0  0  0  0  0  0  0  0  0
   14.5564   27.4120   -2.1985 O   0  0  0  0  0  0  0  0  0  0  0  0
   19.7059   27.5685    0.7614 C   0  0  1  0  0  0  0  0  0  0  0  0
   19.4977   26.1703    0.5690 O   0  0  0  0  0  0  0  0  0  0  0  0
   13.9346   29.7475   -2.2204 C   0  0  1  0  0  0  0  0  0  0  0  0
   12.6049   29.4411   -1.7842 O   0  0  0  0  0  0  0  0  0  0  0  0
   18.8810   28.0440    1.9576 C   0  0  0  0  0  0  0  0  0  0  0  0
   19.2949   27.3403    3.1178 O   0  0  0  0  0  0  0  0  0  0  0  0
   11.1308   31.8384   -2.5259 N   0  0  0  0  0  0  0  0  0  0  0  0
   17.8459   30.4474   -4.1167 N   0  0  0  0  0  0  0  0  0  0  0  0
  1  2  1  0  0  0  0
  1 39  1  0  0  0  0
  3  4  1  0  0  0  0
  5  6  1  0  0  0  0
  5 40  1  0  0  0  0
  9 10  1  6  0  0  0
  9 14  1  0  0  0  0
  9 35  1  0  0  0  0
 10  1  1  0  0  0  0
 11 16  1  0  0  0  0
 11 28  1  0  0  0  0
 11 26  1  1  0  0  0
 12 17  1  0  0  0  0
 12 34  1  0  0  0  0
 12 13  1  6  0  0  0
 14 15  1  1  0  0  0
 14 19  1  0  0  0  0
 16 13  1  6  0  0  0
 16 21  1  0  0  0  0
 17 18  1  6  0  0  0
 17 23  1  0  0  0  0
 18  8  1  0  0  0  0
 19 20  1  6  0  0  0
 19 25  1  0  0  0  0
 20  5  1  0  0  0  0
 21  3  1  1  0  0  0
 21 22  1  0  0  0  0
 21 27  1  0  0  0  0
 23 24  1  1  0  0  0
 23 29  1  0  0  0  0
 25 26  1  1  0  0  0
 25 31  1  0  0  0  0
 27  7  1  6  0  0  0
 27 28  1  0  0  0  0
 29 30  1  6  0  0  0
 29 33  1  0  0  0  0
 31 32  1  6  0  0  0
 31 35  1  0  0  0  0
 33 34  1  0  0  0  0
 33 37  1  1  0  0  0
 35 36  1  1  0  0  0
 37 38  1  0  0  0  0
M  END
>  <CHROM.1>
-173.30289849,57.90605869,-160.72489168,173.78503139,139.64496466,-76.02490347
-33.55133194,106.65084263,-66.25680764,-116.00041933,-59.89991586,17.80804418
28.19077495,-1.62318644,-2.72775840,0.52217518,-2.50870924

>  <Name>
1ntb_lig

>  <RI>
0

>  <Rbt.Current_Directory>
/home/itssahil/PROJECTS/Mol_Feturizer/New_Systems/rnas/1ntb

>  <Rbt.Executable>
rbdock ($Id: //depot/dev/client3/rdock/2013.1/src/exe/rbdock.cxx#4 $)

>  <Rbt.Library>
libRbt.so (2013.1, Build901 2013/11/27)

>  <Rbt.Parameter_File>
/export/apps/rDock/src/rDock_2013.1_src/data/scripts/dock_solv.prm

>  <Rbt.Receptor>
prm/blind_docking_40.prm

>  <SCORE>
-11.3158

>  <SCORE.INTER>
-9.82041

>  <SCORE.INTER.CONST>
1

>  <SCORE.INTER.POLAR>
-1.09545

>  <SCORE.INTER.ROT>
11

>  <SCORE.INTER.SOLV>
26.2608

>  <SCORE.INTER.VDW>
-22.5824

>  <SCORE.INTER.norm>
-0.24551

>  <SCORE.INTRA>
-1.75847

>  <SCORE.INTRA.DIHEDRAL>
0.931179

>  <SCORE.INTRA.DIHEDRAL.0>
15.4453

>  <SCORE.INTRA.POLAR>
0

>  <SCORE.INTRA.POLAR.0>
0

>  <SCORE.INTRA.REPUL>
-0.819843

>  <SCORE.INTRA.REPUL.0>
0.823958

>  <SCORE.INTRA.SOLV>
2.333

>  <SCORE.INTRA.SOLV.lig_0>
-99.3069

>  <SCORE.INTRA.VDW>
0.708652

>  <SCORE.INTRA.VDW.0>
0.946495

>  <SCORE.INTRA.norm>
-0.0439618

>  <SCORE.RESTR>
0.263053

>  <SCORE.RESTR.CAVITY>
0.263053

>  <SCORE.RESTR.norm>
0.00657633

>  <SCORE.SYSTEM>
0

>  <SCORE.SYSTEM.CONST>
0

>  <SCORE.SYSTEM.DIHEDRAL>
0

>  <SCORE.SYSTEM.SOLV>
0

>  <SCORE.SYSTEM.norm>
0

>  <SCORE.heavy>
40

>  <SCORE.norm>
-0.282896

>  <RMSD>
17.870

$$$$
1ntb_lig
 OpenBabel11021811403D
libRbt.so/2013.1/901 2013/11/27
 40 42  0  0  0  0  0  0  0  0999 V2000
   11.5835   31.4217   -2.8582 C   0  0  0  0  0  0  0  0  0  0  0  0
   11.3792   31.5133   -4.1152 N   0  0  0  0  0  0  0  0  0  0  0  0
   22.0724   30.7649   -0.6396 C   0  0  0  0  0  0  0  0  0  0  0  0
   22.8638   31.8405   -0.1632 O   0  0  0  0  0  0  0  0  0  0  0  0
   16.7989   27.0716   -3.2793 C   0  0  0  0  0  0  0  0  0  0  0  0
   16.3455   26.0310   -3.8822 N   0  0  0  0  0  0  0  0  0  0  0  0
   20.2012   33.3456    0.0074 C   0  0  0  0  0  0  0  0  0  0  0  0
   18.8629   28.4387    3.0709 C   0  0  0  0  0  0  0  0  0  0  0  0
   13.6319   30.2702   -2.6483 C   0  0  2  0  0  0  0  0  0  0  0  0
   12.1315   30.2933   -2.4500 N   0  0  0  0  0  0  0  0  0  0  0  0
   18.4120   30.4262   -0.7874 C   0  0  2  0  0  0  0  0  0  0  0  0
   20.9372   28.3194    0.7354 C   0  0  1  0  0  0  0  0  0  0  0  0
   19.6708   28.8513    0.3926 O   0  0  0  0  0  0  0  0  0  0  0  0
   14.2023   28.8894   -2.3435 C   0  0  1  0  0  0  0  0  0  0  0  0
   13.4783   27.9657   -3.2678 O   0  0  0  0  0  0  0  0  0  0  0  0
   19.7710   29.7799   -0.5885 C   0  0  2  0  0  0  0  0  0  0  0  0
   20.7662   27.3760    1.9013 C   0  0  1  0  0  0  0  0  0  0  0  0
   20.2525   28.0828    3.0211 N   0  0  0  0  0  0  0  0  0  0  0  0
   15.7201   28.8235   -2.5003 C   0  0  2  0  0  0  0  0  0  0  0  0
   16.3142   27.5313   -2.2268 N   0  0  0  0  0  0  0  0  0  0  0  0
   20.6434   30.9373   -0.1803 C   0  0  1  0  0  0  0  0  0  0  0  0
   20.6010   31.1041    1.2408 O   0  0  0  0  0  0  0  0  0  0  0  0
   19.7875   26.2908    1.4853 C   0  0  2  0  0  0  0  0  0  0  0  0
   19.5831   25.3836    2.5463 O   0  0  0  0  0  0  0  0  0  0  0  0
   16.3291   29.8375   -1.5670 C   0  0  1  0  0  0  0  0  0  0  0  0
   17.7434   29.8554   -1.9072 O   0  0  0  0  0  0  0  0  0  0  0  0
   20.0235   32.1129   -0.8407 C   0  0  1  0  0  0  0  0  0  0  0  0
   18.6328   31.8226   -0.9987 O   0  0  0  0  0  0  0  0  0  0  0  0
   20.4017   25.5743    0.2824 C   0  0  1  0  0  0  0  0  0  0  0  0
   19.5385   24.5435   -0.1717 O   0  0  0  0  0  0  0  0  0  0  0  0
   15.7952   31.2570   -1.8992 C   0  0  2  0  0  0  0  0  0  0  0  0
   16.3914   32.1973   -1.0192 O   0  0  0  0  0  0  0  0  0  0  0  0
   20.6342   26.5919   -0.8348 C   0  0  1  0  0  0  0  0  0  0  0  0
   21.5014   27.6277   -0.3762 O   0  0  0  0  0  0  0  0  0  0  0  0
   14.2654   31.2841   -1.7175 C   0  0  1  0  0  0  0  0  0  0  0  0
   13.7566   32.5886   -2.0203 O   0  0  0  0  0  0  0  0  0  0  0  0
   21.2781   25.8821   -2.0260 C   0  0  0  0  0  0  0  0  0  0  0  0
   20.3762   24.9115   -2.5329 O   0  0  0  0  0  0  0  0  0  0  0  0
   11.2550   32.3550   -2.0356 N   0  0  0  0  0  0  0  0  0  0  0  0
   17.8119   27.6410   -3.7224 N   0  0  0  0  0  0  0  0  0  0  0  0
  1  2  1  0  0  0  0
  1 39  1  0  0  0  0
  3  4  1  0  0  0  0
  5  6  1  0  0  0  0
  5 40  1  0  0  0  0
  9 10  1  1  0  0  0
  9 14  1  0  0  0  0
  9 35  1  0  0  0  0
 10  1  1  0  0  0  0
 11 16  1  0  0  0  0
 11 28  1  0  0  0  0
 11 26  1  6  0  0  0
 12 17  1  0  0  0  0
 12 34  1  0  0  0  0
 12 13  1  6  0  0  0
 14 15  1  6  0  0  0
 14 19  1  0  0  0  0
 16 13  1  1  0  0  0
 16 21  1  0  0  0  0
 17 18  1  1  0  0  0
 17 23  1  0  0  0  0
 18  8  1  0  0  0  0
 19 20  1  1  0  0  0
 19 25  1  0  0  0  0
 20  5  1  0  0  0  0
 21  3  1  6  0  0  0
 21 22  1  0  0  0  0
 21 27  1  0  0  0  0
 23 24  1  1  0  0  0
 23 29  1  0  0  0  0
 25 26  1  6  0  0  0
 25 31  1  0  0  0  0
 27  7  1  1  0  0  0
 27 28  1  0  0  0  0
 29 30  1  6  0  0  0
 29 33  1  0  0  0  0
 31 32  1  1  0  0  0
 31 35  1  0  0  0  0
 33 34  1  0  0  0  0
 33 37  1  6  0  0  0
 35 36  1  6  0  0  0
 37 38  1  0  0  0  0
M  END
>  <CHROM.1>
-172.32251953,80.62917469,145.02663352,175.63618655,-173.19167879,76.63448724
114.09134190,-112.95065734,-176.60972990,-160.56875724,63.58871678,17.83718335
29.16850628,-1.00071004,2.85096461,-0.43777231,0.14497030

>  <Name>
1ntb_lig

>  <RI>
0

>  <Rbt.Current_Directory>
/home/itssahil/PROJECTS/Mol_Feturizer/New_Systems/rnas/1ntb

>  <Rbt.Executable>
rbdock ($Id: //depot/dev/client3/rdock/2013.1/src/exe/rbdock.cxx#4 $)

>  <Rbt.Library>
libRbt.so (2013.1, Build901 2013/11/27)

>  <Rbt.Parameter_File>
/export/apps/rDock/src/rDock_2013.1_src/data/scripts/dock_solv.prm

>  <Rbt.Receptor>
prm/blind_docking_100.prm

>  <SCORE>
-7.82193

>  <SCORE.INTER>
-5.52238

>  <SCORE.INTER.CONST>
1

>  <SCORE.INTER.POLAR>
-1.74283

>  <SCORE.INTER.ROT>
11

>  <SCORE.INTER.SOLV>
23.3963

>  <SCORE.INTER.VDW>
-16.6043

>  <SCORE.INTER.norm>
-0.138059

>  <SCORE.INTRA>
-2.70816

>  <SCORE.INTRA.DIHEDRAL>
-6.01657

>  <SCORE.INTRA.DIHEDRAL.0>
15.4453

>  <SCORE.INTRA.POLAR>
0

>  <SCORE.INTRA.POLAR.0>
0

>  <SCORE.INTRA.REPUL>
-0.823958

>  <SCORE.INTRA.REPUL.0>
0.823958

>  <SCORE.INTRA.SOLV>
-0.516409

>  <SCORE.INTRA.SOLV.lig_0>
-99.3069

>  <SCORE.INTRA.VDW>
4.67812

>  <SCORE.INTRA.VDW.0>
0.946495

>  <SCORE.INTRA.norm>
-0.0677041

>  <SCORE.RESTR>
0.408614

>  <SCORE.RESTR.CAVITY>
0.408614

>  <SCORE.RESTR.norm>
0.0102154

>  <SCORE.SYSTEM>
0

>  <SCORE.SYSTEM.CONST>
0

>  <SCORE.SYSTEM.DIHEDRAL>
0

>  <SCORE.SYSTEM.SOLV>
0

>  <SCORE.SYSTEM.norm>
0

>  <SCORE.heavy>
40

>  <SCORE.norm>
-0.195548

>  <RMSD>
17.881

$$$$
1ntb_lig
 OpenBabel11021811403D
libRbt.so/2013.1/901 2013/11/27
 40 42  0  0  0  0  0  0  0  0999 V2000
   18.0799   35.8763   -1.3468 C   0  0  0  0  0  0  0  0  0  0  0  0
   17.2657   35.7723   -2.3248 N   0  0  0  0  0  0  0  0  0  0  0  0
   20.6651   25.2820    0.6903 C   0  0  0  0  0  0  0  0  0  0  0  0
   20.5872   24.4038    1.8007 O   0  0  0  0  0  0  0  0  0  0  0  0
   16.3208   30.2687   -2.0360 C   0  0  0  0  0  0  0  0  0  0  0  0
   15.0428   30.2795   -1.8993 N   0  0  0  0  0  0  0  0  0  0  0  0
   19.2294   26.8006    3.1828 C   0  0  0  0  0  0  0  0  0  0  0  0
   21.2967   24.3980   -3.5173 C   0  0  0  0  0  0  0  0  0  0  0  0
   18.5519   33.6471   -0.7356 C   0  0  2  0  0  0  0  0  0  0  0  0
   17.9345   34.9841   -0.3860 N   0  0  0  0  0  0  0  0  0  0  0  0
   19.0862   28.5596    0.1429 C   0  0  2  0  0  0  0  0  0  0  0  0
   19.0267   27.0786   -2.6461 C   0  0  1  0  0  0  0  0  0  0  0  0
   18.6242   26.7967   -1.3185 O   0  0  0  0  0  0  0  0  0  0  0  0
   17.4982   32.5450   -0.7481 C   0  0  1  0  0  0  0  0  0  0  0  0
   16.4851   32.9981   -1.7482 O   0  0  0  0  0  0  0  0  0  0  0  0
   19.5421   27.2254   -0.4193 C   0  0  2  0  0  0  0  0  0  0  0  0
   19.2459   25.7738   -3.3727 C   0  0  1  0  0  0  0  0  0  0  0  0
   20.2763   25.0341   -2.7336 N   0  0  0  0  0  0  0  0  0  0  0  0
   18.0787   31.1687   -1.0667 C   0  0  2  0  0  0  0  0  0  0  0  0
   17.1186   30.0847   -1.0960 N   0  0  0  0  0  0  0  0  0  0  0  0
   19.5926   26.3408    0.7980 C   0  0  1  0  0  0  0  0  0  0  0  0
   18.3166   25.7276    1.0101 O   0  0  0  0  0  0  0  0  0  0  0  0
   17.9456   24.9890   -3.3274 C   0  0  2  0  0  0  0  0  0  0  0  0
   18.0985   23.7509   -3.9865 O   0  0  0  0  0  0  0  0  0  0  0  0
   19.1252   30.8534   -0.0296 C   0  0  1  0  0  0  0  0  0  0  0  0
   19.7625   29.6338   -0.5017 O   0  0  0  0  0  0  0  0  0  0  0  0
   19.8918   27.2719    1.9142 C   0  0  1  0  0  0  0  0  0  0  0  0
   19.3814   28.5540    1.5416 O   0  0  0  0  0  0  0  0  0  0  0  0
   16.8871   25.8396   -4.0299 C   0  0  1  0  0  0  0  0  0  0  0  0
   15.6343   25.1730   -4.0236 O   0  0  0  0  0  0  0  0  0  0  0  0
   20.2323   31.9417   -0.0405 C   0  0  2  0  0  0  0  0  0  0  0  0
   21.2138   31.6184    0.9323 O   0  0  0  0  0  0  0  0  0  0  0  0
   16.7694   27.1813   -3.3062 C   0  0  1  0  0  0  0  0  0  0  0  0
   18.0298   27.8495   -3.3128 O   0  0  0  0  0  0  0  0  0  0  0  0
   19.6086   33.3098    0.2966 C   0  0  1  0  0  0  0  0  0  0  0  0
   20.6184   34.3260    0.2909 O   0  0  0  0  0  0  0  0  0  0  0  0
   15.7342   28.0447   -4.0276 C   0  0  0  0  0  0  0  0  0  0  0  0
   14.4411   27.5060   -3.8036 O   0  0  0  0  0  0  0  0  0  0  0  0
   18.9693   36.8041   -1.2846 N   0  0  0  0  0  0  0  0  0  0  0  0
   16.8145   30.3945   -3.1705 N   0  0  0  0  0  0  0  0  0  0  0  0
  1  2  1  0  0  0  0
  1 39  1  0  0  0  0
  3  4  1  0  0  0  0
  5  6  1  0  0  0  0
  5 40  1  0  0  0  0
  9 10  1  1  0  0  0
  9 14  1  0  0  0  0
  9 35  1  0  0  0  0
 10  1  1  0  0  0  0
 11 16  1  0  0  0  0
 11 28  1  0  0  0  0
 11 26  1  6  0  0  0
 12 17  1  0  0  0  0
 12 34  1  0  0  0  0
 12 13  1  1  0  0  0
 14 15  1  6  0  0  0
 14 19  1  0  0  0  0
 16 13  1  6  0  0  0
 16 21  1  0  0  0  0
 17 18  1  1  0  0  0
 17 23  1  0  0  0  0
 18  8  1  0  0  0  0
 19 20  1  1  0  0  0
 19 25  1  0  0  0  0
 20  5  1  0  0  0  0
 21  3  1  6  0  0  0
 21 22  1  0  0  0  0
 21 27  1  0  0  0  0
 23 24  1  6  0  0  0
 23 29  1  0  0  0  0
 25 26  1  6  0  0  0
 25 31  1  0  0  0  0
 27  7  1  1  0  0  0
 27 28  1  0  0  0  0
 29 30  1  1  0  0  0
 29 33  1  0  0  0  0
 31 32  1  1  0  0  0
 31 35  1  0  0  0  0
 33 34  1  0  0  0  0
 33 37  1  6  0  0  0
 35 36  1  6  0  0  0
 37 38  1  0  0  0  0
M  END
>  <CHROM.1>
-119.25804003,79.26955055,172.24732596,115.33984917,99.14649159,-135.36268336
65.11233742,-126.58377568,-174.58630973,-94.23158130,70.73284397,18.42652726
29.09642436,-1.23651991,1.60390215,-0.87366343,0.15660551

>  <Name>
1ntb_lig

>  <RI>
0

>  <Rbt.Current_Directory>
/home/itssahil/PROJECTS/Mol_Feturizer/New_Systems/rnas/1ntb

>  <Rbt.Executable>
rbdock ($Id: //depot/dev/client3/rdock/2013.1/src/exe/rbdock.cxx#4 $)

>  <Rbt.Library>
libRbt.so (2013.1, Build901 2013/11/27)

>  <Rbt.Parameter_File>
/export/apps/rDock/src/rDock_2013.1_src/data/scripts/dock_solv.prm

>  <Rbt.Receptor>
prm/blind_docking_60.prm

>  <SCORE>
-11.0125

>  <SCORE.INTER>
-8.96921

>  <SCORE.INTER.CONST>
1

>  <SCORE.INTER.POLAR>
-1.0828

>  <SCORE.INTER.ROT>
11

>  <SCORE.INTER.SOLV>
17.0543

>  <SCORE.INTER.VDW>
-18.9882

>  <SCORE.INTER.norm>
-0.22423

>  <SCORE.INTRA>
-2.80566

>  <SCORE.INTRA.DIHEDRAL>
5.49413

>  <SCORE.INTRA.DIHEDRAL.0>
15.4453

>  <SCORE.INTRA.POLAR>
0

>  <SCORE.INTRA.POLAR.0>
0

>  <SCORE.INTRA.REPUL>
-0.823958

>  <SCORE.INTRA.REPUL.0>
0.823958

>  <SCORE.INTRA.SOLV>
4.86005

>  <SCORE.INTRA.SOLV.lig_0>
-99.3069

>  <SCORE.INTRA.VDW>
-3.86296

>  <SCORE.INTRA.VDW.0>
0.946495

>  <SCORE.INTRA.norm>
-0.0701415

>  <SCORE.RESTR>
0.762397

>  <SCORE.RESTR.CAVITY>
0.762397

>  <SCORE.RESTR.norm>
0.0190599

>  <SCORE.SYSTEM>
0

>  <SCORE.SYSTEM.CONST>
0

>  <SCORE.SYSTEM.DIHEDRAL>
0

>  <SCORE.SYSTEM.SOLV>
0

>  <SCORE.SYSTEM.norm>
0

>  <SCORE.heavy>
40

>  <SCORE.norm>
-0.275312

>  <RMSD>
17.907

$$$$
1ntb_lig
 OpenBabel11021811403D
libRbt.so/2013.1/901 2013/11/27
 40 42  0  0  0  0  0  0  0  0999 V2000
   18.0682   35.6472   -1.8387 C   0  0  0  0  0  0  0  0  0  0  0  0
   17.4510   36.0053   -2.8974 N   0  0  0  0  0  0  0  0  0  0  0  0
   22.0085   25.7890   -1.7330 C   0  0  0  0  0  0  0  0  0  0  0  0
   21.5671   24.4443   -1.6474 O   0  0  0  0  0  0  0  0  0  0  0  0
   15.3647   29.7670   -2.0865 C   0  0  0  0  0  0  0  0  0  0  0  0
   15.4270   29.5027   -3.3428 N   0  0  0  0  0  0  0  0  0  0  0  0
   22.6560   27.9124    0.6445 C   0  0  0  0  0  0  0  0  0  0  0  0
   18.4448   22.7341   -0.0561 C   0  0  0  0  0  0  0  0  0  0  0  0
   17.8880   33.2983   -1.7118 C   0  0  2  0  0  0  0  0  0  0  0  0
   17.5152   34.6586   -1.1626 N   0  0  0  0  0  0  0  0  0  0  0  0
   19.5527   28.4080   -0.9301 C   0  0  2  0  0  0  0  0  0  0  0  0
   18.7492   25.0920   -2.0249 C   0  0  1  0  0  0  0  0  0  0  0  0
   18.8496   26.1899   -1.1368 O   0  0  0  0  0  0  0  0  0  0  0  0
   16.9066   32.2308   -1.2403 C   0  0  1  0  0  0  0  0  0  0  0  0
   15.5715   32.7046   -1.7146 O   0  0  0  0  0  0  0  0  0  0  0  0
   19.8475   27.0316   -1.4981 C   0  0  2  0  0  0  0  0  0  0  0  0
   17.4937   24.3197   -1.6995 C   0  0  1  0  0  0  0  0  0  0  0  0
   17.5647   23.8234   -0.3706 N   0  0  0  0  0  0  0  0  0  0  0  0
   17.2586   30.8328   -1.7447 C   0  0  2  0  0  0  0  0  0  0  0  0
   16.3548   29.7801   -1.3292 N   0  0  0  0  0  0  0  0  0  0  0  0
   21.1549   26.6660   -0.8469 C   0  0  1  0  0  0  0  0  0  0  0  0
   20.9126   26.0129    0.4036 O   0  0  0  0  0  0  0  0  0  0  0  0
   16.3138   25.2679   -1.8319 C   0  0  2  0  0  0  0  0  0  0  0  0
   15.1106   24.5967   -1.5277 O   0  0  0  0  0  0  0  0  0  0  0  0
   18.6431   30.4960   -1.2550 C   0  0  1  0  0  0  0  0  0  0  0  0
   18.9835   29.2511   -1.9262 O   0  0  0  0  0  0  0  0  0  0  0  0
   21.8220   27.9702   -0.6091 C   0  0  1  0  0  0  0  0  0  0  0  0
   20.7916   28.9508   -0.4678 O   0  0  0  0  0  0  0  0  0  0  0  0
   16.2981   25.7602   -3.2792 C   0  0  1  0  0  0  0  0  0  0  0  0
   15.2208   26.6612   -3.4825 O   0  0  0  0  0  0  0  0  0  0  0  0
   19.6621   31.5478   -1.7703 C   0  0  2  0  0  0  0  0  0  0  0  0
   20.9600   31.2044   -1.3102 O   0  0  0  0  0  0  0  0  0  0  0  0
   17.6259   26.4560   -3.5803 C   0  0  1  0  0  0  0  0  0  0  0  0
   18.7077   25.5490   -3.3747 O   0  0  0  0  0  0  0  0  0  0  0  0
   19.2790   32.9392   -1.2304 C   0  0  1  0  0  0  0  0  0  0  0  0
   20.2108   33.9222   -1.6972 O   0  0  0  0  0  0  0  0  0  0  0  0
   17.6234   26.9200   -5.0371 C   0  0  0  0  0  0  0  0  0  0  0  0
   17.4804   25.7917   -5.8850 O   0  0  0  0  0  0  0  0  0  0  0  0
   19.1456   36.2259   -1.4385 N   0  0  0  0  0  0  0  0  0  0  0  0
   14.2724   30.0829   -1.5826 N   0  0  0  0  0  0  0  0  0  0  0  0
  1  2  1  0  0  0  0
  1 39  1  0  0  0  0
  3  4  1  0  0  0  0
  5  6  1  0  0  0  0
  5 40  1  0  0  0  0
  9 10  1  1  0  0  0
  9 14  1  0  0  0  0
  9 35  1  0  0  0  0
 10  1  1  0  0  0  0
 11 16  1  0  0  0  0
 11 28  1  0  0  0  0
 11 26  1  6  0  0  0
 12 17  1  0  0  0  0
 12 34  1  0  0  0  0
 12 13  1  1  0  0  0
 14 15  1  6  0  0  0
 14 19  1  0  0  0  0
 16 13  1  1  0  0  0
 16 21  1  0  0  0  0
 17 18  1  1  0  0  0
 17 23  1  0  0  0  0
 18  8  1  0  0  0  0
 19 20  1  1  0  0  0
 19 25  1  0  0  0  0
 20  5  1  0  0  0  0
 21  3  1  6  0  0  0
 21 22  1  0  0  0  0
 21 27  1  0  0  0  0
 23 24  1  6  0  0  0
 23 29  1  0  0  0  0
 25 26  1  6  0  0  0
 25 31  1  0  0  0  0
 27  7  1  1  0  0  0
 27 28  1  0  0  0  0
 29 30  1  1  0  0  0
 29 33  1  0  0  0  0
 31 32  1  1  0  0  0
 31 35  1  0  0  0  0
 33 34  1  0  0  0  0
 33 37  1  6  0  0  0
 35 36  1  6  0  0  0
 37 38  1  0  0  0  0
M  END
>  <CHROM.1>
-161.05900638,83.37350136,175.52295625,-171.08825487,156.25066508,-72.54424769
82.38483054,63.92755108,-80.60694374,-134.94465322,-60.62540507,18.38639900
28.75862027,-1.78580513,-1.62885242,0.36220996,-3.10811474

>  <Name>
1ntb_lig

>  <RI>
0

>  <Rbt.Current_Directory>
/home/itssahil/PROJECTS/Mol_Feturizer/New_Systems/rnas/1ntb

>  <Rbt.Executable>
rbdock ($Id: //depot/dev/client3/rdock/2013.1/src/exe/rbdock.cxx#4 $)

>  <Rbt.Library>
libRbt.so (2013.1, Build901 2013/11/27)

>  <Rbt.Parameter_File>
/export/apps/rDock/src/rDock_2013.1_src/data/scripts/dock_solv.prm

>  <Rbt.Receptor>
prm/blind_docking_80.prm

>  <SCORE>
-11.5529

>  <SCORE.INTER>
-2.58701

>  <SCORE.INTER.CONST>
1

>  <SCORE.INTER.POLAR>
0

>  <SCORE.INTER.ROT>
11

>  <SCORE.INTER.SOLV>
26.3496

>  <SCORE.INTER.VDW>
-21.4412

>  <SCORE.INTER.norm>
-0.0646752

>  <SCORE.INTRA>
-8.97053

>  <SCORE.INTRA.DIHEDRAL>
-3.03815

>  <SCORE.INTRA.DIHEDRAL.0>
15.4453

>  <SCORE.INTRA.POLAR>
0

>  <SCORE.INTRA.POLAR.0>
0

>  <SCORE.INTRA.REPUL>
-0.823958

>  <SCORE.INTRA.REPUL.0>
0.823958

>  <SCORE.INTRA.SOLV>
1.51885

>  <SCORE.INTRA.SOLV.lig_0>
-99.3069

>  <SCORE.INTRA.VDW>
-4.09109

>  <SCORE.INTRA.VDW.0>
0.946495

>  <SCORE.INTRA.norm>
-0.224263

>  <SCORE.RESTR>
0.00467724

>  <SCORE.RESTR.CAVITY>
0.00467724

>  <SCORE.RESTR.norm>
0.000116931

>  <SCORE.SYSTEM>
0

>  <SCORE.SYSTEM.CONST>
0

>  <SCORE.SYSTEM.DIHEDRAL>
0

>  <SCORE.SYSTEM.SOLV>
0

>  <SCORE.SYSTEM.norm>
0

>  <SCORE.heavy>
40

>  <SCORE.norm>
-0.288821

>  <RMSD>
17.925

$$$$
1ntb_lig
 OpenBabel11021811403D
libRbt.so/2013.1/901 2013/11/27
 40 42  0  0  0  0  0  0  0  0999 V2000
   11.9010   31.7018   -2.5983 C   0  0  0  0  0  0  0  0  0  0  0  0
   11.0050   31.0480   -1.9660 N   0  0  0  0  0  0  0  0  0  0  0  0
   21.9710   27.9276   -0.3055 C   0  0  0  0  0  0  0  0  0  0  0  0
   22.9610   28.1066    0.6935 O   0  0  0  0  0  0  0  0  0  0  0  0
   15.4724   27.0358   -2.3495 C   0  0  0  0  0  0  0  0  0  0  0  0
   16.4296   27.0676   -3.2067 N   0  0  0  0  0  0  0  0  0  0  0  0
   20.8410   30.1207    1.8143 C   0  0  0  0  0  0  0  0  0  0  0  0
   19.0776   22.9493    1.7961 C   0  0  0  0  0  0  0  0  0  0  0  0
   14.1953   31.3947   -2.1425 C   0  0  2  0  0  0  0  0  0  0  0  0
   12.9079   32.1421   -1.8686 N   0  0  0  0  0  0  0  0  0  0  0  0
   18.4061   28.8342   -0.3702 C   0  0  2  0  0  0  0  0  0  0  0  0
   20.0092   25.5882   -0.5987 C   0  0  1  0  0  0  0  0  0  0  0  0
   19.0252   26.5818   -0.3781 O   0  0  0  0  0  0  0  0  0  0  0  0
   14.1183   29.9639   -1.6212 C   0  0  1  0  0  0  0  0  0  0  0  0
   12.9390   29.3676   -2.3181 O   0  0  0  0  0  0  0  0  0  0  0  0
   19.4954   27.8192   -0.6650 C   0  0  2  0  0  0  0  0  0  0  0  0
   19.4106   24.2374   -0.2895 C   0  0  1  0  0  0  0  0  0  0  0  0
   19.0128   24.1876    1.0731 N   0  0  0  0  0  0  0  0  0  0  0  0
   15.4074   29.1767   -1.8475 C   0  0  2  0  0  0  0  0  0  0  0  0
   15.3869   27.8080   -1.3745 N   0  0  0  0  0  0  0  0  0  0  0  0
   20.6053   28.2288    0.2664 C   0  0  1  0  0  0  0  0  0  0  0  0
   20.4479   27.5770    1.5311 O   0  0  0  0  0  0  0  0  0  0  0  0
   18.1990   24.0463   -1.1862 C   0  0  2  0  0  0  0  0  0  0  0  0
   17.5931   22.7982   -0.9302 O   0  0  0  0  0  0  0  0  0  0  0  0
   16.5269   29.9068   -1.1519 C   0  0  1  0  0  0  0  0  0  0  0  0
   17.7377   29.2160   -1.5679 O   0  0  0  0  0  0  0  0  0  0  0  0
   20.4224   29.6923    0.4317 C   0  0  1  0  0  0  0  0  0  0  0  0
   19.0342   29.9684    0.2320 O   0  0  0  0  0  0  0  0  0  0  0  0
   18.6985   24.1102   -2.6297 C   0  0  1  0  0  0  0  0  0  0  0  0
   17.6174   23.9451   -3.5340 O   0  0  0  0  0  0  0  0  0  0  0  0
   16.6500   31.3506   -1.7093 C   0  0  2  0  0  0  0  0  0  0  0  0
   17.7178   32.0150   -1.0517 O   0  0  0  0  0  0  0  0  0  0  0  0
   19.3724   25.4629   -2.8615 C   0  0  1  0  0  0  0  0  0  0  0  0
   20.4584   25.6275   -1.9511 O   0  0  0  0  0  0  0  0  0  0  0  0
   15.3361   32.1129   -1.4507 C   0  0  1  0  0  0  0  0  0  0  0  0
   15.4335   33.4486   -1.9594 O   0  0  0  0  0  0  0  0  0  0  0  0
   19.9006   25.5147   -4.2953 C   0  0  0  0  0  0  0  0  0  0  0  0
   20.0889   26.8689   -4.6735 O   0  0  0  0  0  0  0  0  0  0  0  0
   11.8198   31.9408   -3.8601 N   0  0  0  0  0  0  0  0  0  0  0  0
   14.5369   26.2320   -2.5084 N   0  0  0  0  0  0  0  0  0  0  0  0
  1  2  1  0  0  0  0
  1 39  1  0  0  0  0
  3  4  1  0  0  0  0
  5  6  1  0  0  0  0
  5 40  1  0  0  0  0
  9 10  1  1  0  0  0
  9 14  1  0  0  0  0
  9 35  1  0  0  0  0
 10  1  1  0  0  0  0
 11 16  1  0  0  0  0
 11 28  1  0  0  0  0
 11 26  1  6  0  0  0
 12 17  1  0  0  0  0
 12 34  1  0  0  0  0
 12 13  1  6  0  0  0
 14 15  1  6  0  0  0
 14 19  1  0  0  0  0
 16 13  1  1  0  0  0
 16 21  1  0  0  0  0
 17 18  1  1  0  0  0
 17 23  1  0  0  0  0
 18  8  1  0  0  0  0
 19 20  1  1  0  0  0
 19 25  1  0  0  0  0
 20  5  1  0  0  0  0
 21  3  1  6  0  0  0
 21 22  1  0  0  0  0
 21 27  1  0  0  0  0
 23 24  1  1  0  0  0
 23 29  1  0  0  0  0
 25 26  1  6  0  0  0
 25 31  1  0  0  0  0
 27  7  1  1  0  0  0
 27 28  1  0  0  0  0
 29 30  1  6  0  0  0
 29 33  1  0  0  0  0
 31 32  1  1  0  0  0
 31 35  1  0  0  0  0
 33 34  1  0  0  0  0
 33 37  1  6  0  0  0
 35 36  1  6  0  0  0
 37 38  1  0  0  0  0
M  END
>  <CHROM.1>
-69.60473582,108.74556141,166.07800353,-178.78366963,-178.43272948,-147.59381981
114.38670129,56.29633914,-169.62984976,-125.26168479,159.51440958,17.50296436
28.06134308,-1.32558477,2.48746926,-0.41246266,0.22002779

>  <Name>
1ntb_lig

>  <RI>
0

>  <Rbt.Current_Directory>
/home/itssahil/PROJECTS/Mol_Feturizer/New_Systems/rnas/1ntb

>  <Rbt.Executable>
rbdock ($Id: //depot/dev/client3/rdock/2013.1/src/exe/rbdock.cxx#4 $)

>  <Rbt.Library>
libRbt.so (2013.1, Build901 2013/11/27)

>  <Rbt.Parameter_File>
/export/apps/rDock/src/rDock_2013.1_src/data/scripts/dock_solv.prm

>  <Rbt.Receptor>
prm/blind_docking_80.prm

>  <SCORE>
3.09327

>  <SCORE.INTER>
11.5689

>  <SCORE.INTER.CONST>
1

>  <SCORE.INTER.POLAR>
-0.743699

>  <SCORE.INTER.ROT>
11

>  <SCORE.INTER.SOLV>
31.2918

>  <SCORE.INTER.VDW>
-11.1723

>  <SCORE.INTER.norm>
0.289222

>  <SCORE.INTRA>
-8.64762

>  <SCORE.INTRA.DIHEDRAL>
-2.2597

>  <SCORE.INTRA.DIHEDRAL.0>
15.4453

>  <SCORE.INTRA.POLAR>
0

>  <SCORE.INTRA.POLAR.0>
0

>  <SCORE.INTRA.REPUL>
-0.823958

>  <SCORE.INTRA.REPUL.0>
0.823958

>  <SCORE.INTRA.SOLV>
1.45426

>  <SCORE.INTRA.SOLV.lig_0>
-99.3069

>  <SCORE.INTRA.VDW>
-4.12511

>  <SCORE.INTRA.VDW.0>
0.946495

>  <SCORE.INTRA.norm>
-0.216191

>  <SCORE.RESTR>
0.172024

>  <SCORE.RESTR.CAVITY>
0.172024

>  <SCORE.RESTR.norm>
0.00430061

>  <SCORE.SYSTEM>
0

>  <SCORE.SYSTEM.CONST>
0

>  <SCORE.SYSTEM.DIHEDRAL>
0

>  <SCORE.SYSTEM.SOLV>
0

>  <SCORE.SYSTEM.norm>
0

>  <SCORE.heavy>
40

>  <SCORE.norm>
0.0773317

>  <RMSD>
17.946

$$$$
1ntb_lig
 OpenBabel11021811403D
libRbt.so/2013.1/901 2013/11/27
 40 42  0  0  0  0  0  0  0  0999 V2000
   11.6516   31.4818   -3.0576 C   0  0  0  0  0  0  0  0  0  0  0  0
   11.4820   32.4665   -2.2628 N   0  0  0  0  0  0  0  0  0  0  0  0
   22.0145   29.5401   -0.2528 C   0  0  0  0  0  0  0  0  0  0  0  0
   22.6438   30.8081   -0.3335 O   0  0  0  0  0  0  0  0  0  0  0  0
   16.3371   26.7453   -3.2078 C   0  0  0  0  0  0  0  0  0  0  0  0
   17.2882   27.0559   -4.0146 N   0  0  0  0  0  0  0  0  0  0  0  0
   20.3798   31.9479    1.2000 C   0  0  0  0  0  0  0  0  0  0  0  0
   20.0662   25.1893    3.4028 C   0  0  0  0  0  0  0  0  0  0  0  0
   13.6277   30.2557   -2.6606 C   0  0  2  0  0  0  0  0  0  0  0  0
   12.1270   30.3806   -2.5084 N   0  0  0  0  0  0  0  0  0  0  0  0
   18.3489   29.6661   -0.5392 C   0  0  2  0  0  0  0  0  0  0  0  0
   20.5536   26.8547    0.0897 C   0  0  1  0  0  0  0  0  0  0  0  0
   19.3923   27.6638    0.0599 O   0  0  0  0  0  0  0  0  0  0  0  0
   14.0950   28.8424   -2.3302 C   0  0  1  0  0  0  0  0  0  0  0  0
   13.3389   27.9617   -3.2707 O   0  0  0  0  0  0  0  0  0  0  0  0
   19.6273   28.8479   -0.5544 C   0  0  2  0  0  0  0  0  0  0  0  0
   20.2941   25.6686    0.9866 C   0  0  1  0  0  0  0  0  0  0  0  0
   20.0177   26.1145    2.3065 N   0  0  0  0  0  0  0  0  0  0  0  0
   15.6090   28.6740   -2.4401 C   0  0  2  0  0  0  0  0  0  0  0  0
   16.1066   27.3472   -2.1408 N   0  0  0  0  0  0  0  0  0  0  0  0
   20.5904   29.7041    0.2244 C   0  0  1  0  0  0  0  0  0  0  0  0
   20.5012   29.3955    1.6193 O   0  0  0  0  0  0  0  0  0  0  0  0
   19.0931   24.9190    0.4350 C   0  0  2  0  0  0  0  0  0  0  0  0
   18.7997   23.8017    1.2450 O   0  0  0  0  0  0  0  0  0  0  0  0
   16.2561   29.6525   -1.4946 C   0  0  1  0  0  0  0  0  0  0  0  0
   17.6780   29.5731   -1.7915 O   0  0  0  0  0  0  0  0  0  0  0  0
   20.1196   31.0915   -0.0122 C   0  0  1  0  0  0  0  0  0  0  0  0
   18.7155   31.0215   -0.2708 O   0  0  0  0  0  0  0  0  0  0  0  0
   19.4593   24.4701   -0.9798 C   0  0  1  0  0  0  0  0  0  0  0  0
   18.3789   23.7633   -1.5687 O   0  0  0  0  0  0  0  0  0  0  0  0
   15.8288   31.1018   -1.8515 C   0  0  2  0  0  0  0  0  0  0  0  0
   16.4598   32.0072   -0.9592 O   0  0  0  0  0  0  0  0  0  0  0  0
   19.7973   25.7028   -1.8189 C   0  0  1  0  0  0  0  0  0  0  0  0
   20.8831   26.4125   -1.2249 O   0  0  0  0  0  0  0  0  0  0  0  0
   14.2994   31.2325   -1.7168 C   0  0  1  0  0  0  0  0  0  0  0  0
   13.8886   32.5656   -2.0428 O   0  0  0  0  0  0  0  0  0  0  0  0
   20.1949   25.2520   -3.2247 C   0  0  0  0  0  0  0  0  0  0  0  0
   20.1091   26.3574   -4.1097 O   0  0  0  0  0  0  0  0  0  0  0  0
   11.4013   31.5603   -4.3174 N   0  0  0  0  0  0  0  0  0  0  0  0
   15.5542   25.8279   -3.5114 N   0  0  0  0  0  0  0  0  0  0  0  0
  1  2  1  0  0  0  0
  1 39  1  0  0  0  0
  3  4  1  0  0  0  0
  5  6  1  0  0  0  0
  5 40  1  0  0  0  0
  9 10  1  1  0  0  0
  9 14  1  0  0  0  0
  9 35  1  0  0  0  0
 10  1  1  0  0  0  0
 11 16  1  0  0  0  0
 11 28  1  0  0  0  0
 11 26  1  6  0  0  0
 12 17  1  0  0  0  0
 12 34  1  0  0  0  0
 12 13  1  6  0  0  0
 14 15  1  6  0  0  0
 14 19  1  0  0  0  0
 16 13  1  1  0  0  0
 16 21  1  0  0  0  0
 17 18  1  1  0  0  0
 17 23  1  0  0  0  0
 18  8  1  0  0  0  0
 19 20  1  1  0  0  0
 19 25  1  0  0  0  0
 20  5  1  0  0  0  0
 21  3  1  6  0  0  0
 21 22  1  0  0  0  0
 21 27  1  0  0  0  0
 23 24  1  1  0  0  0
 23 29  1  0  0  0  0
 25 26  1  6  0  0  0
 25 31  1  0  0  0  0
 27  7  1  1  0  0  0
 27 28  1  0  0  0  0
 29 30  1  6  0  0  0
 29 33  1  0  0  0  0
 31 32  1  1  0  0  0
 31 35  1  0  0  0  0
 33 34  1  0  0  0  0
 33 37  1  6  0  0  0
 35 36  1  6  0  0  0
 37 38  1  0  0  0  0
M  END
>  <CHROM.1>
-166.09626068,-96.32763096,147.33285790,170.30569311,-179.48848198,-164.51337155
100.64277970,69.05509457,136.78689360,-141.38750285,162.19330441,17.61991992
28.46847264,-1.20499761,2.72282637,-0.47380014,0.20364499

>  <Name>
1ntb_lig

>  <RI>
0

>  <Rbt.Current_Directory>
/home/itssahil/PROJECTS/Mol_Feturizer/New_Systems/rnas/1ntb

>  <Rbt.Executable>
rbdock ($Id: //depot/dev/client3/rdock/2013.1/src/exe/rbdock.cxx#4 $)

>  <Rbt.Library>
libRbt.so (2013.1, Build901 2013/11/27)

>  <Rbt.Parameter_File>
/export/apps/rDock/src/rDock_2013.1_src/data/scripts/dock_solv.prm

>  <Rbt.Receptor>
prm/blind_docking_60.prm

>  <SCORE>
-5.07271

>  <SCORE.INTER>
-0.589285

>  <SCORE.INTER.CONST>
1

>  <SCORE.INTER.POLAR>
-1.58043

>  <SCORE.INTER.ROT>
11

>  <SCORE.INTER.SOLV>
26.2862

>  <SCORE.INTER.VDW>
-14.8201

>  <SCORE.INTER.norm>
-0.0147321

>  <SCORE.INTRA>
-4.58341

>  <SCORE.INTRA.DIHEDRAL>
1.92062

>  <SCORE.INTRA.DIHEDRAL.0>
15.4453

>  <SCORE.INTRA.POLAR>
0

>  <SCORE.INTRA.POLAR.0>
0

>  <SCORE.INTRA.REPUL>
-0.810623

>  <SCORE.INTRA.REPUL.0>
0.823958

>  <SCORE.INTRA.SOLV>
0.899693

>  <SCORE.INTRA.SOLV.lig_0>
-99.3069

>  <SCORE.INTRA.VDW>
-1.94045

>  <SCORE.INTRA.VDW.0>
0.946495

>  <SCORE.INTRA.norm>
-0.114585

>  <SCORE.RESTR>
0.0999787

>  <SCORE.RESTR.CAVITY>
0.0999787

>  <SCORE.RESTR.norm>
0.00249947

>  <SCORE.SYSTEM>
0

>  <SCORE.SYSTEM.CONST>
0

>  <SCORE.SYSTEM.DIHEDRAL>
0

>  <SCORE.SYSTEM.SOLV>
0

>  <SCORE.SYSTEM.norm>
0

>  <SCORE.heavy>
40

>  <SCORE.norm>
-0.126818

>  <RMSD>
17.949

$$$$
1ntb_lig
 OpenBabel11021811403D
libRbt.so/2013.1/901 2013/11/27
 40 42  0  0  0  0  0  0  0  0999 V2000
   19.5997   27.4285    6.4910 C   0  0  0  0  0  0  0  0  0  0  0  0
   20.6606   28.0246    6.1044 N   0  0  0  0  0  0  0  0  0  0  0  0
   19.9486   25.5631   -4.4305 C   0  0  0  0  0  0  0  0  0  0  0  0
   20.2837   24.3993   -5.1679 O   0  0  0  0  0  0  0  0  0  0  0  0
   19.3257   29.8907    0.5143 C   0  0  0  0  0  0  0  0  0  0  0  0
   19.4018   31.0719    1.0154 N   0  0  0  0  0  0  0  0  0  0  0  0
   20.0248   22.8832   -2.5887 C   0  0  0  0  0  0  0  0  0  0  0  0
   15.1841   25.5032   -2.5917 C   0  0  0  0  0  0  0  0  0  0  0  0
   19.3379   27.1527    4.1627 C   0  0  2  0  0  0  0  0  0  0  0  0
   18.7216   27.1557    5.5451 N   0  0  0  0  0  0  0  0  0  0  0  0
   19.1765   25.8133   -0.8423 C   0  0  2  0  0  0  0  0  0  0  0  0
   17.5337   27.3128   -3.7080 C   0  0  1  0  0  0  0  0  0  0  0  0
   17.7527   26.8114   -2.4023 O   0  0  0  0  0  0  0  0  0  0  0  0
   18.6038   28.1146    3.2349 C   0  0  1  0  0  0  0  0  0  0  0  0
   18.6981   29.4431    3.9117 O   0  0  0  0  0  0  0  0  0  0  0  0
   19.0226   26.3664   -2.2474 C   0  0  2  0  0  0  0  0  0  0  0  0
   16.0466   27.3759   -3.9589 C   0  0  1  0  0  0  0  0  0  0  0  0
   15.4883   26.0726   -3.8737 N   0  0  0  0  0  0  0  0  0  0  0  0
   19.1708   28.1246    1.8168 C   0  0  2  0  0  0  0  0  0  0  0  0
   18.5121   29.0259    0.8941 N   0  0  0  0  0  0  0  0  0  0  0  0
   19.3102   25.1722   -3.1182 C   0  0  1  0  0  0  0  0  0  0  0  0
   18.1037   24.4399   -3.3577 O   0  0  0  0  0  0  0  0  0  0  0  0
   15.4303   28.2697   -2.8960 C   0  0  2  0  0  0  0  0  0  0  0  0
   14.0339   28.3556   -3.0787 O   0  0  0  0  0  0  0  0  0  0  0  0
   19.0767   26.7246    1.2678 C   0  0  1  0  0  0  0  0  0  0  0  0
   19.8025   26.7685    0.0078 O   0  0  0  0  0  0  0  0  0  0  0  0
   20.2439   24.3479   -2.3112 C   0  0  1  0  0  0  0  0  0  0  0  0
   19.9757   24.6319   -0.9362 O   0  0  0  0  0  0  0  0  0  0  0  0
   16.0732   29.6487   -3.0460 C   0  0  1  0  0  0  0  0  0  0  0  0
   15.5507   30.5449   -2.0777 O   0  0  0  0  0  0  0  0  0  0  0  0
   19.8630   25.7412    2.1760 C   0  0  2  0  0  0  0  0  0  0  0  0
   19.7735   24.4326    1.6339 O   0  0  0  0  0  0  0  0  0  0  0  0
   17.5858   29.5120   -2.8698 C   0  0  1  0  0  0  0  0  0  0  0  0
   18.1092   28.6100   -3.8434 O   0  0  0  0  0  0  0  0  0  0  0  0
   19.2532   25.7520    3.5910 C   0  0  1  0  0  0  0  0  0  0  0  0
   19.9683   24.8484    4.4422 O   0  0  0  0  0  0  0  0  0  0  0  0
   18.2325   30.8854   -3.0517 C   0  0  0  0  0  0  0  0  0  0  0  0
   17.9435   31.3672   -4.3543 O   0  0  0  0  0  0  0  0  0  0  0  0
   19.3843   27.1335    7.7248 N   0  0  0  0  0  0  0  0  0  0  0  0
   20.0598   29.5847   -0.4417 N   0  0  0  0  0  0  0  0  0  0  0  0
  1  2  1  0  0  0  0
  1 39  1  0  0  0  0
  3  4  1  0  0  0  0
  5  6  1  0  0  0  0
  5 40  1  0  0  0  0
  9 10  1  1  0  0  0
  9 14  1  0  0  0  0
  9 35  1  0  0  0  0
 10  1  1  0  0  0  0
 11 16  1  0  0  0  0
 11 28  1  0  0  0  0
 11 26  1  1  0  0  0
 12 17  1  0  0  0  0
 12 34  1  0  0  0  0
 12 13  1  1  0  0  0
 14 15  1  1  0  0  0
 14 19  1  0  0  0  0
 16 13  1  1  0  0  0
 16 21  1  0  0  0  0
 17 18  1  1  0  0  0
 17 23  1  0  0  0  0
 18  8  1  0  0  0  0
 19 20  1  6  0  0  0
 19 25  1  0  0  0  0
 20  5  1  0  0  0  0
 21  3  1  6  0  0  0
 21 22  1  0  0  0  0
 21 27  1  0  0  0  0
 23 24  1  6  0  0  0
 23 29  1  0  0  0  0
 25 26  1  6  0  0  0
 25 31  1  0  0  0  0
 27  7  1  1  0  0  0
 27 28  1  0  0  0  0
 29 30  1  1  0  0  0
 29 33  1  0  0  0  0
 31 32  1  6  0  0  0
 31 35  1  0  0  0  0
 33 34  1  0  0  0  0
 33 37  1  6  0  0  0
 35 36  1  1  0  0  0
 37 38  1  0  0  0  0
M  END
>  <CHROM.1>
-124.52934039,20.41051036,137.64289883,162.15965192,-178.59119820,81.09512284
117.11850866,-98.30587100,175.87887036,-149.15725924,-60.19033954,18.49466926
27.24284942,-0.36636930,0.96602813,-1.12026130,1.02921429

>  <Name>
1ntb_lig

>  <RI>
0

>  <Rbt.Current_Directory>
/home/itssahil/PROJECTS/Mol_Feturizer/New_Systems/rnas/1ntb

>  <Rbt.Executable>
rbdock ($Id: //depot/dev/client3/rdock/2013.1/src/exe/rbdock.cxx#4 $)

>  <Rbt.Library>
libRbt.so (2013.1, Build901 2013/11/27)

>  <Rbt.Parameter_File>
/export/apps/rDock/src/rDock_2013.1_src/data/scripts/dock_solv.prm

>  <Rbt.Receptor>
prm/blind_docking_40.prm

>  <SCORE>
-24.8696

>  <SCORE.INTER>
-21.14

>  <SCORE.INTER.CONST>
1

>  <SCORE.INTER.POLAR>
-2.27099

>  <SCORE.INTER.ROT>
11

>  <SCORE.INTER.SOLV>
12.5774

>  <SCORE.INTER.VDW>
-21.6491

>  <SCORE.INTER.norm>
-0.528499

>  <SCORE.INTRA>
-4.71285

>  <SCORE.INTRA.DIHEDRAL>
-0.553154

>  <SCORE.INTRA.DIHEDRAL.0>
15.4453

>  <SCORE.INTRA.POLAR>
0

>  <SCORE.INTRA.POLAR.0>
0

>  <SCORE.INTRA.REPUL>
-0.823958

>  <SCORE.INTRA.REPUL.0>
0.823958

>  <SCORE.INTRA.SOLV>
0.554196

>  <SCORE.INTRA.SOLV.lig_0>
-99.3069

>  <SCORE.INTRA.VDW>
-0.593583

>  <SCORE.INTRA.VDW.0>
0.946495

>  <SCORE.INTRA.norm>
-0.117821

>  <SCORE.RESTR>
0.983161

>  <SCORE.RESTR.CAVITY>
0.983161

>  <SCORE.RESTR.norm>
0.024579

>  <SCORE.SYSTEM>
0

>  <SCORE.SYSTEM.CONST>
0

>  <SCORE.SYSTEM.DIHEDRAL>
0

>  <SCORE.SYSTEM.SOLV>
0

>  <SCORE.SYSTEM.norm>
0

>  <SCORE.heavy>
40

>  <SCORE.norm>
-0.621741

>  <RMSD>
17.975

$$$$
1ntb_lig
 OpenBabel11021811403D
libRbt.so/2013.1/901 2013/11/27
 40 42  0  0  0  0  0  0  0  0999 V2000
   18.4744   34.7964   -2.7251 C   0  0  0  0  0  0  0  0  0  0  0  0
   19.6915   34.7848   -3.1108 N   0  0  0  0  0  0  0  0  0  0  0  0
   15.8597   25.1741   -2.3172 C   0  0  0  0  0  0  0  0  0  0  0  0
   14.7832   25.8303   -1.6684 O   0  0  0  0  0  0  0  0  0  0  0  0
   21.4697   30.6311   -0.2759 C   0  0  0  0  0  0  0  0  0  0  0  0
   22.5220   31.2705   -0.6444 N   0  0  0  0  0  0  0  0  0  0  0  0
   15.7150   27.2900   -4.7833 C   0  0  0  0  0  0  0  0  0  0  0  0
   22.1075   23.2358   -1.7678 C   0  0  0  0  0  0  0  0  0  0  0  0
   18.1583   33.2002   -1.0169 C   0  0  2  0  0  0  0  0  0  0  0  0
   18.2855   34.6515   -1.4276 N   0  0  0  0  0  0  0  0  0  0  0  0
   18.0422   28.1355   -2.2885 C   0  0  2  0  0  0  0  0  0  0  0  0
   19.0434   25.1299   -0.7660 C   0  0  1  0  0  0  0  0  0  0  0  0
   18.9508   26.0271   -1.8572 O   0  0  0  0  0  0  0  0  0  0  0  0
   19.4670   32.4512   -1.2437 C   0  0  1  0  0  0  0  0  0  0  0  0
   20.4782   33.1984   -0.4370 O   0  0  0  0  0  0  0  0  0  0  0  0
   17.7803   26.7086   -1.8422 C   0  0  2  0  0  0  0  0  0  0  0  0
   20.4826   24.7008   -0.6132 C   0  0  1  0  0  0  0  0  0  0  0  0
   20.9126   24.0308   -1.7894 N   0  0  0  0  0  0  0  0  0  0  0  0
   19.3797   30.9725   -0.8718 C   0  0  2  0  0  0  0  0  0  0  0  0
   20.5985   30.2139   -1.0639 N   0  0  0  0  0  0  0  0  0  0  0  0
   16.8183   26.1967   -2.8812 C   0  0  1  0  0  0  0  0  0  0  0  0
   17.5408   25.6373   -3.9831 O   0  0  0  0  0  0  0  0  0  0  0  0
   21.3221   25.9485   -0.3961 C   0  0  2  0  0  0  0  0  0  0  0  0
   22.6831   25.6040   -0.2565 O   0  0  0  0  0  0  0  0  0  0  0  0
   18.2903   30.3467   -1.7035 C   0  0  1  0  0  0  0  0  0  0  0  0
   18.1340   29.0046   -1.1645 O   0  0  0  0  0  0  0  0  0  0  0  0
   16.0840   27.4068   -3.3271 C   0  0  1  0  0  0  0  0  0  0  0  0
   16.9537   28.5239   -3.1298 O   0  0  0  0  0  0  0  0  0  0  0  0
   20.8076   26.6152    0.8799 C   0  0  1  0  0  0  0  0  0  0  0  0
   21.5423   27.7991    1.1491 O   0  0  0  0  0  0  0  0  0  0  0  0
   16.9400   31.0676   -1.4442 C   0  0  2  0  0  0  0  0  0  0  0  0
   15.9263   30.4543   -2.2254 O   0  0  0  0  0  0  0  0  0  0  0  0
   19.3259   26.9482    0.7022 C   0  0  1  0  0  0  0  0  0  0  0  0
   18.5891   25.7571    0.4309 O   0  0  0  0  0  0  0  0  0  0  0  0
   17.0666   32.5506   -1.8427 C   0  0  1  0  0  0  0  0  0  0  0  0
   15.8274   33.2306   -1.6094 O   0  0  0  0  0  0  0  0  0  0  0  0
   18.8029   27.5856    1.9897 C   0  0  0  0  0  0  0  0  0  0  0  0
   17.4490   27.9662    1.8042 O   0  0  0  0  0  0  0  0  0  0  0  0
   17.4911   34.9158   -3.5465 N   0  0  0  0  0  0  0  0  0  0  0  0
   21.3138   30.3536    0.9263 N   0  0  0  0  0  0  0  0  0  0  0  0
  1  2  1  0  0  0  0
  1 39  1  0  0  0  0
  3  4  1  0  0  0  0
  5  6  1  0  0  0  0
  5 40  1  0  0  0  0
  9 10  1  6  0  0  0
  9 14  1  0  0  0  0
  9 35  1  0  0  0  0
 10  1  1  0  0  0  0
 11 16  1  0  0  0  0
 11 28  1  0  0  0  0
 11 26  1  1  0  0  0
 12 17  1  0  0  0  0
 12 34  1  0  0  0  0
 12 13  1  6  0  0  0
 14 15  1  1  0  0  0
 14 19  1  0  0  0  0
 16 13  1  6  0  0  0
 16 21  1  0  0  0  0
 17 18  1  6  0  0  0
 17 23  1  0  0  0  0
 18  8  1  0  0  0  0
 19 20  1  6  0  0  0
 19 25  1  0  0  0  0
 20  5  1  0  0  0  0
 21  3  1  1  0  0  0
 21 22  1  0  0  0  0
 21 27  1  0  0  0  0
 23 24  1  1  0  0  0
 23 29  1  0  0  0  0
 25 26  1  1  0  0  0
 25 31  1  0  0  0  0
 27  7  1  6  0  0  0
 27 28  1  0  0  0  0
 29 30  1  6  0  0  0
 29 33  1  0  0  0  0
 31 32  1  6  0  0  0
 31 35  1  0  0  0  0
 33 34  1  0  0  0  0
 33 37  1  1  0  0  0
 35 36  1  1  0  0  0
 37 38  1  0  0  0  0
M  END
>  <CHROM.1>
65.82488249,-89.11152792,-176.12659498,-164.26487791,141.90667181,-164.02907431
65.77547963,-111.16310943,82.33202956,-135.71552006,176.70020583,18.75938256
28.86838754,-1.29912711,1.71803062,-0.51098181,-0.02127323

>  <Name>
1ntb_lig

>  <RI>
0

>  <Rbt.Current_Directory>
/home/itssahil/PROJECTS/Mol_Feturizer/New_Systems/rnas/1ntb

>  <Rbt.Executable>
rbdock ($Id: //depot/dev/client3/rdock/2013.1/src/exe/rbdock.cxx#4 $)

>  <Rbt.Library>
libRbt.so (2013.1, Build901 2013/11/27)

>  <Rbt.Parameter_File>
/export/apps/rDock/src/rDock_2013.1_src/data/scripts/dock_solv.prm

>  <Rbt.Receptor>
prm/blind_docking_80.prm

>  <SCORE>
14.0018

>  <SCORE.INTER>
15.9667

>  <SCORE.INTER.CONST>
1

>  <SCORE.INTER.POLAR>
0

>  <SCORE.INTER.ROT>
11

>  <SCORE.INTER.SOLV>
26.6363

>  <SCORE.INTER.VDW>
-9.16761

>  <SCORE.INTER.norm>
0.399168

>  <SCORE.INTRA>
-2.50275

>  <SCORE.INTRA.DIHEDRAL>
-0.0166349

>  <SCORE.INTRA.DIHEDRAL.0>
15.4453

>  <SCORE.INTRA.POLAR>
0

>  <SCORE.INTRA.POLAR.0>
0

>  <SCORE.INTRA.REPUL>
-0.823958

>  <SCORE.INTRA.REPUL.0>
0.823958

>  <SCORE.INTRA.SOLV>
3.56868

>  <SCORE.INTRA.SOLV.lig_0>
-99.3069

>  <SCORE.INTRA.VDW>
-0.158984

>  <SCORE.INTRA.VDW.0>
0.946495

>  <SCORE.INTRA.norm>
-0.0625688

>  <SCORE.RESTR>
0.537789

>  <SCORE.RESTR.CAVITY>
0.537789

>  <SCORE.RESTR.norm>
0.0134447

>  <SCORE.SYSTEM>
0

>  <SCORE.SYSTEM.CONST>
0

>  <SCORE.SYSTEM.DIHEDRAL>
0

>  <SCORE.SYSTEM.SOLV>
0

>  <SCORE.SYSTEM.norm>
0

>  <SCORE.heavy>
40

>  <SCORE.norm>
0.350044

>  <RMSD>
18.023

$$$$
1ntb_lig
 OpenBabel11021811403D
libRbt.so/2013.1/901 2013/11/27
 40 42  0  0  0  0  0  0  0  0999 V2000
   12.2411   32.2975   -2.3096 C   0  0  0  0  0  0  0  0  0  0  0  0
   11.5918   32.0547   -1.2374 N   0  0  0  0  0  0  0  0  0  0  0  0
   18.0460   23.7054   -3.8718 C   0  0  0  0  0  0  0  0  0  0  0  0
   19.3151   23.1205   -3.6317 O   0  0  0  0  0  0  0  0  0  0  0  0
   18.3978   29.8719   -0.4812 C   0  0  0  0  0  0  0  0  0  0  0  0
   18.1104   28.8509    0.2447 N   0  0  0  0  0  0  0  0  0  0  0  0
   17.3705   25.7883   -6.2770 C   0  0  0  0  0  0  0  0  0  0  0  0
   17.4742   23.1103   -0.4978 C   0  0  0  0  0  0  0  0  0  0  0  0
   14.2332   31.1350   -1.8139 C   0  0  2  0  0  0  0  0  0  0  0  0
   13.5453   32.4359   -2.1679 N   0  0  0  0  0  0  0  0  0  0  0  0
   17.5194   27.2613   -3.0890 C   0  0  2  0  0  0  0  0  0  0  0  0
   19.4653   25.7863   -0.8565 C   0  0  1  0  0  0  0  0  0  0  0  0
   19.3831   26.1515   -2.2218 O   0  0  0  0  0  0  0  0  0  0  0  0
   15.7492   31.2802   -1.8892 C   0  0  1  0  0  0  0  0  0  0  0  0
   16.0733   32.3875   -0.9402 O   0  0  0  0  0  0  0  0  0  0  0  0
   18.1446   25.9276   -2.7224 C   0  0  2  0  0  0  0  0  0  0  0  0
   19.6326   24.2889   -0.7654 C   0  0  1  0  0  0  0  0  0  0  0  0
   18.5064   23.6427   -1.3412 N   0  0  0  0  0  0  0  0  0  0  0  0
   16.4890   29.9829   -1.5693 C   0  0  2  0  0  0  0  0  0  0  0  0
   17.9340   30.0663   -1.6219 N   0  0  0  0  0  0  0  0  0  0  0  0
   18.1937   25.1996   -4.0395 C   0  0  1  0  0  0  0  0  0  0  0  0
   19.4179   25.4990   -4.7183 O   0  0  0  0  0  0  0  0  0  0  0  0
   20.8893   23.9113   -1.5315 C   0  0  2  0  0  0  0  0  0  0  0  0
   21.0884   22.5152   -1.4866 O   0  0  0  0  0  0  0  0  0  0  0  0
   16.0341   28.9334   -2.5500 C   0  0  1  0  0  0  0  0  0  0  0  0
   16.6243   27.6935   -2.0698 O   0  0  0  0  0  0  0  0  0  0  0  0
   17.0490   25.7522   -4.8054 C   0  0  1  0  0  0  0  0  0  0  0  0
   16.8186   27.0773   -4.3212 O   0  0  0  0  0  0  0  0  0  0  0  0
   22.0553   24.6377   -0.8605 C   0  0  1  0  0  0  0  0  0  0  0  0
   23.2721   24.3388   -1.5266 O   0  0  0  0  0  0  0  0  0  0  0  0
   14.4972   28.7386   -2.4486 C   0  0  2  0  0  0  0  0  0  0  0  0
   14.0922   27.7373   -3.3692 O   0  0  0  0  0  0  0  0  0  0  0  0
   21.7916   26.1432   -0.9032 C   0  0  1  0  0  0  0  0  0  0  0  0
   20.5676   26.4416   -0.2338 O   0  0  0  0  0  0  0  0  0  0  0  0
   13.7895   30.0641   -2.7897 C   0  0  1  0  0  0  0  0  0  0  0  0
   12.3690   29.9008   -2.7008 O   0  0  0  0  0  0  0  0  0  0  0  0
   22.9417   26.8681   -0.2038 C   0  0  0  0  0  0  0  0  0  0  0  0
   22.6192   28.2442   -0.0821 O   0  0  0  0  0  0  0  0  0  0  0  0
   11.6636   32.4252   -3.4524 N   0  0  0  0  0  0  0  0  0  0  0  0
   19.1385   30.7589   -0.0214 N   0  0  0  0  0  0  0  0  0  0  0  0
  1  2  1  0  0  0  0
  1 39  1  0  0  0  0
  3  4  1  0  0  0  0
  5  6  1  0  0  0  0
  5 40  1  0  0  0  0
  9 10  1  6  0  0  0
  9 14  1  0  0  0  0
  9 35  1  0  0  0  0
 10  1  1  0  0  0  0
 11 16  1  0  0  0  0
 11 28  1  0  0  0  0
 11 26  1  1  0  0  0
 12 17  1  0  0  0  0
 12 34  1  0  0  0  0
 12 13  1  6  0  0  0
 14 15  1  1  0  0  0
 14 19  1  0  0  0  0
 16 13  1  6  0  0  0
 16 21  1  0  0  0  0
 17 18  1  6  0  0  0
 17 23  1  0  0  0  0
 18  8  1  0  0  0  0
 19 20  1  6  0  0  0
 19 25  1  0  0  0  0
 20  5  1  0  0  0  0
 21  3  1  1  0  0  0
 21 22  1  0  0  0  0
 21 27  1  0  0  0  0
 23 24  1  1  0  0  0
 23 29  1  0  0  0  0
 25 26  1  1  0  0  0
 25 31  1  0  0  0  0
 27  7  1  6  0  0  0
 27 28  1  0  0  0  0
 29 30  1  6  0  0  0
 29 33  1  0  0  0  0
 31 32  1  6  0  0  0
 31 35  1  0  0  0  0
 33 34  1  0  0  0  0
 33 37  1  1  0  0  0
 35 36  1  1  0  0  0
 37 38  1  0  0  0  0
M  END
>  <CHROM.1>
170.44050669,69.25044701,-177.11465484,79.67678964,114.53151492,-100.89708930
115.22473042,52.91507515,-86.86303180,-116.64460820,-172.29246250,17.64371052
27.50516900,-2.08873833,2.53338391,-0.46619092,0.48976655

>  <Name>
1ntb_lig

>  <RI>
0

>  <Rbt.Current_Directory>
/home/itssahil/PROJECTS/Mol_Feturizer/New_Systems/rnas/1ntb

>  <Rbt.Executable>
rbdock ($Id: //depot/dev/client3/rdock/2013.1/src/exe/rbdock.cxx#4 $)

>  <Rbt.Library>
libRbt.so (2013.1, Build901 2013/11/27)

>  <Rbt.Parameter_File>
/export/apps/rDock/src/rDock_2013.1_src/data/scripts/dock_solv.prm

>  <Rbt.Receptor>
prm/blind_docking_100.prm

>  <SCORE>
19.8146

>  <SCORE.INTER>
16.853

>  <SCORE.INTER.CONST>
1

>  <SCORE.INTER.POLAR>
-0.785491

>  <SCORE.INTER.ROT>
11

>  <SCORE.INTER.SOLV>
25.0681

>  <SCORE.INTER.VDW>
-5.43575

>  <SCORE.INTER.norm>
0.421325

>  <SCORE.INTRA>
1.97221

>  <SCORE.INTRA.DIHEDRAL>
6.12626

>  <SCORE.INTRA.DIHEDRAL.0>
15.4453

>  <SCORE.INTRA.POLAR>
0

>  <SCORE.INTRA.POLAR.0>
0

>  <SCORE.INTRA.REPUL>
-0.823958

>  <SCORE.INTRA.REPUL.0>
0.823958

>  <SCORE.INTRA.SOLV>
2.70685

>  <SCORE.INTRA.SOLV.lig_0>
-99.3069

>  <SCORE.INTRA.VDW>
1.67544

>  <SCORE.INTRA.VDW.0>
0.946495

>  <SCORE.INTRA.norm>
0.0493053

>  <SCORE.RESTR>
0.989431

>  <SCORE.RESTR.CAVITY>
0.989431

>  <SCORE.RESTR.norm>
0.0247358

>  <SCORE.SYSTEM>
0

>  <SCORE.SYSTEM.CONST>
0

>  <SCORE.SYSTEM.DIHEDRAL>
0

>  <SCORE.SYSTEM.SOLV>
0

>  <SCORE.SYSTEM.norm>
0

>  <SCORE.heavy>
40

>  <SCORE.norm>
0.495366

>  <RMSD>
18.028

$$$$
1ntb_lig
 OpenBabel11021811403D
libRbt.so/2013.1/901 2013/11/27
 40 42  0  0  0  0  0  0  0  0999 V2000
   11.8445   31.6056   -3.3085 C   0  0  0  0  0  0  0  0  0  0  0  0
   12.1045   32.8087   -2.9693 N   0  0  0  0  0  0  0  0  0  0  0  0
   21.9939   28.7506   -0.1550 C   0  0  0  0  0  0  0  0  0  0  0  0
   22.5063   27.5443    0.3860 O   0  0  0  0  0  0  0  0  0  0  0  0
   16.1773   26.6733   -3.2277 C   0  0  0  0  0  0  0  0  0  0  0  0
   15.4773   25.7050   -3.7014 N   0  0  0  0  0  0  0  0  0  0  0  0
   20.5097   31.0819    1.5603 C   0  0  0  0  0  0  0  0  0  0  0  0
   20.1705   24.1818    2.6616 C   0  0  0  0  0  0  0  0  0  0  0  0
   13.7546   30.4035   -2.6211 C   0  0  2  0  0  0  0  0  0  0  0  0
   12.2722   30.6737   -2.4785 N   0  0  0  0  0  0  0  0  0  0  0  0
   18.3550   29.1894   -0.4721 C   0  0  2  0  0  0  0  0  0  0  0  0
   20.3228   26.1548   -0.1907 C   0  0  1  0  0  0  0  0  0  0  0  0
   19.2337   27.0555   -0.1093 O   0  0  0  0  0  0  0  0  0  0  0  0
   14.0754   28.9433   -2.3215 C   0  0  1  0  0  0  0  0  0  0  0  0
   13.2456   28.1647   -3.2896 O   0  0  0  0  0  0  0  0  0  0  0  0
   19.5693   28.2840   -0.5707 C   0  0  2  0  0  0  0  0  0  0  0  0
   19.8647   24.7975    0.2852 C   0  0  1  0  0  0  0  0  0  0  0  0
   19.4433   24.8790    1.6392 N   0  0  0  0  0  0  0  0  0  0  0  0
   15.5662   28.6274   -2.4228 C   0  0  2  0  0  0  0  0  0  0  0  0
   15.9262   27.2509   -2.1519 N   0  0  0  0  0  0  0  0  0  0  0  0
   20.5755   28.9635    0.3198 C   0  0  1  0  0  0  0  0  0  0  0  0
   20.4324   28.4957    1.6651 O   0  0  0  0  0  0  0  0  0  0  0  0
   18.7012   24.3631   -0.5901 C   0  0  2  0  0  0  0  0  0  0  0  0
   18.2260   23.0994   -0.1803 O   0  0  0  0  0  0  0  0  0  0  0  0
   16.2972   29.5140   -1.4483 C   0  0  1  0  0  0  0  0  0  0  0  0
   17.7073   29.3003   -1.7351 O   0  0  0  0  0  0  0  0  0  0  0  0
   20.2141   30.4012    0.2490 C   0  0  1  0  0  0  0  0  0  0  0  0
   18.8148   30.4703   -0.0348 O   0  0  0  0  0  0  0  0  0  0  0  0
   19.2240   24.2961   -2.0252 C   0  0  1  0  0  0  0  0  0  0  0  0
   18.1876   23.9005   -2.9102 O   0  0  0  0  0  0  0  0  0  0  0  0
   16.0200   31.0066   -1.7732 C   0  0  2  0  0  0  0  0  0  0  0  0
   16.7283   31.8234   -0.8537 O   0  0  0  0  0  0  0  0  0  0  0  0
   19.7550   25.6734   -2.4239 C   0  0  1  0  0  0  0  0  0  0  0  0
   20.7961   26.0697   -1.5327 O   0  0  0  0  0  0  0  0  0  0  0  0
   14.5099   31.2859   -1.6481 C   0  0  1  0  0  0  0  0  0  0  0  0
   14.2372   32.6607   -1.9449 O   0  0  0  0  0  0  0  0  0  0  0  0
   20.3074   25.5988   -3.8476 C   0  0  0  0  0  0  0  0  0  0  0  0
   19.2278   25.4825   -4.7604 O   0  0  0  0  0  0  0  0  0  0  0  0
   11.2287   31.3138   -4.4000 N   0  0  0  0  0  0  0  0  0  0  0  0
   17.2004   27.0399   -3.8324 N   0  0  0  0  0  0  0  0  0  0  0  0
  1  2  1  0  0  0  0
  1 39  1  0  0  0  0
  3  4  1  0  0  0  0
  5  6  1  0  0  0  0
  5 40  1  0  0  0  0
  9 10  1  1  0  0  0
  9 14  1  0  0  0  0
  9 35  1  0  0  0  0
 10  1  1  0  0  0  0
 11 16  1  0  0  0  0
 11 28  1  0  0  0  0
 11 26  1  6  0  0  0
 12 17  1  0  0  0  0
 12 34  1  0  0  0  0
 12 13  1  6  0  0  0
 14 15  1  6  0  0  0
 14 19  1  0  0  0  0
 16 13  1  1  0  0  0
 16 21  1  0  0  0  0
 17 18  1  1  0  0  0
 17 23  1  0  0  0  0
 18  8  1  0  0  0  0
 19 20  1  1  0  0  0
 19 25  1  0  0  0  0
 20  5  1  0  0  0  0
 21  3  1  6  0  0  0
 21 22  1  0  0  0  0
 21 27  1  0  0  0  0
 23 24  1  1  0  0  0
 23 29  1  0  0  0  0
 25 26  1  6  0  0  0
 25 31  1  0  0  0  0
 27  7  1  1  0  0  0
 27 28  1  0  0  0  0
 29 30  1  6  0  0  0
 29 33  1  0  0  0  0
 31 32  1  1  0  0  0
 31 35  1  0  0  0  0
 33 34  1  0  0  0  0
 33 37  1  6  0  0  0
 35 36  1  6  0  0  0
 37 38  1  0  0  0  0
M  END
>  <CHROM.1>
-147.96084111,-78.04754568,149.93043895,-177.74153400,179.23733175,-114.50991558
104.18430785,-114.75820862,-87.03630166,-136.84951077,71.95026050,17.56227873
28.06992907,-1.41316465,2.69328720,-0.53868055,0.35247426

>  <Name>
1ntb_lig

>  <RI>
0

>  <Rbt.Current_Directory>
/home/itssahil/PROJECTS/Mol_Feturizer/New_Systems/rnas/1ntb

>  <Rbt.Executable>
rbdock ($Id: //depot/dev/client3/rdock/2013.1/src/exe/rbdock.cxx#4 $)

>  <Rbt.Library>
libRbt.so (2013.1, Build901 2013/11/27)

>  <Rbt.Parameter_File>
/export/apps/rDock/src/rDock_2013.1_src/data/scripts/dock_solv.prm

>  <Rbt.Receptor>
prm/blind_docking_80.prm

>  <SCORE>
-7.5886

>  <SCORE.INTER>
-1.93952

>  <SCORE.INTER.CONST>
1

>  <SCORE.INTER.POLAR>
-1.19341

>  <SCORE.INTER.ROT>
11

>  <SCORE.INTER.SOLV>
27.8506

>  <SCORE.INTER.VDW>
-17.5319

>  <SCORE.INTER.norm>
-0.048488

>  <SCORE.INTRA>
-6.28152

>  <SCORE.INTRA.DIHEDRAL>
0.51463

>  <SCORE.INTRA.DIHEDRAL.0>
15.4453

>  <SCORE.INTRA.POLAR>
0

>  <SCORE.INTRA.POLAR.0>
0

>  <SCORE.INTRA.REPUL>
-0.814335

>  <SCORE.INTRA.REPUL.0>
0.823958

>  <SCORE.INTRA.SOLV>
3.68595

>  <SCORE.INTRA.SOLV.lig_0>
-99.3069

>  <SCORE.INTRA.VDW>
-4.31014

>  <SCORE.INTRA.VDW.0>
0.946495

>  <SCORE.INTRA.norm>
-0.157038

>  <SCORE.RESTR>
0.632439

>  <SCORE.RESTR.CAVITY>
0.632439

>  <SCORE.RESTR.norm>
0.015811

>  <SCORE.SYSTEM>
0

>  <SCORE.SYSTEM.CONST>
0

>  <SCORE.SYSTEM.DIHEDRAL>
0

>  <SCORE.SYSTEM.SOLV>
0

>  <SCORE.SYSTEM.norm>
0

>  <SCORE.heavy>
40

>  <SCORE.norm>
-0.189715

>  <RMSD>
18.038

$$$$
1ntb_lig
 OpenBabel11021811403D
libRbt.so/2013.1/901 2013/11/27
 40 42  0  0  0  0  0  0  0  0999 V2000
   17.9836   35.3320   -1.9767 C   0  0  0  0  0  0  0  0  0  0  0  0
   18.9234   35.6764   -2.7694 N   0  0  0  0  0  0  0  0  0  0  0  0
   15.7323   24.9566   -1.7251 C   0  0  0  0  0  0  0  0  0  0  0  0
   14.5369   24.7230   -2.4508 O   0  0  0  0  0  0  0  0  0  0  0  0
   21.1408   30.6411   -1.6487 C   0  0  0  0  0  0  0  0  0  0  0  0
   21.7904   31.7499   -1.6760 N   0  0  0  0  0  0  0  0  0  0  0  0
   15.4211   26.6016   -4.5138 C   0  0  0  0  0  0  0  0  0  0  0  0
   18.8639   22.5168   -1.1276 C   0  0  0  0  0  0  0  0  0  0  0  0
   17.4336   33.0430   -1.8234 C   0  0  2  0  0  0  0  0  0  0  0  0
   17.1652   34.4028   -2.4316 N   0  0  0  0  0  0  0  0  0  0  0  0
   17.9025   27.8576   -2.3644 C   0  0  2  0  0  0  0  0  0  0  0  0
   19.0983   25.3159   -0.3390 C   0  0  1  0  0  0  0  0  0  0  0  0
   18.8440   25.8519   -1.6243 O   0  0  0  0  0  0  0  0  0  0  0  0
   18.6887   32.4154   -2.4199 C   0  0  1  0  0  0  0  0  0  0  0  0
   19.7760   33.4019   -2.1435 O   0  0  0  0  0  0  0  0  0  0  0  0
   17.6747   26.5350   -1.6555 C   0  0  2  0  0  0  0  0  0  0  0  0
   20.2989   24.4048   -0.4235 C   0  0  1  0  0  0  0  0  0  0  0  0
   20.0287   23.3339   -1.3165 N   0  0  0  0  0  0  0  0  0  0  0  0
   18.9851   31.0262   -1.8587 C   0  0  2  0  0  0  0  0  0  0  0  0
   20.1709   30.3856   -2.3889 N   0  0  0  0  0  0  0  0  0  0  0  0
   16.6490   25.8546   -2.5226 C   0  0  1  0  0  0  0  0  0  0  0  0
   17.3003   25.1022   -3.5517 O   0  0  0  0  0  0  0  0  0  0  0  0
   21.4708   25.2222   -0.9405 C   0  0  2  0  0  0  0  0  0  0  0  0
   22.6215   24.4131   -1.0485 O   0  0  0  0  0  0  0  0  0  0  0  0
   17.7967   30.1453   -2.1446 C   0  0  1  0  0  0  0  0  0  0  0  0
   18.0642   28.9118   -1.4213 O   0  0  0  0  0  0  0  0  0  0  0  0
   15.8834   26.9723   -3.1285 C   0  0  1  0  0  0  0  0  0  0  0  0
   16.7605   28.0993   -3.1895 O   0  0  0  0  0  0  0  0  0  0  0  0
   21.7050   26.3503    0.0645 C   0  0  1  0  0  0  0  0  0  0  0  0
   22.7872   27.1673   -0.3538 O   0  0  0  0  0  0  0  0  0  0  0  0
   16.5191   30.7465   -1.4992 C   0  0  2  0  0  0  0  0  0  0  0  0
   15.4158   29.8952   -1.7680 O   0  0  0  0  0  0  0  0  0  0  0  0
   20.4303   27.1873    0.1757 C   0  0  1  0  0  0  0  0  0  0  0  0
   19.3432   26.3643    0.5954 O   0  0  0  0  0  0  0  0  0  0  0  0
   16.2490   32.1395   -2.0999 C   0  0  1  0  0  0  0  0  0  0  0  0
   15.0719   32.7085   -1.5143 O   0  0  0  0  0  0  0  0  0  0  0  0
   20.6532   28.2962    1.2044 C   0  0  0  0  0  0  0  0  0  0  0  0
   20.9484   27.7114    2.4627 O   0  0  0  0  0  0  0  0  0  0  0  0
   17.8249   35.8707   -0.8189 N   0  0  0  0  0  0  0  0  0  0  0  0
   21.5143   29.7335   -0.8848 N   0  0  0  0  0  0  0  0  0  0  0  0
  1  2  1  0  0  0  0
  1 39  1  0  0  0  0
  3  4  1  0  0  0  0
  5  6  1  0  0  0  0
  5 40  1  0  0  0  0
  9 10  1  6  0  0  0
  9 14  1  0  0  0  0
  9 35  1  0  0  0  0
 10  1  1  0  0  0  0
 11 16  1  0  0  0  0
 11 28  1  0  0  0  0
 11 26  1  1  0  0  0
 12 17  1  0  0  0  0
 12 34  1  0  0  0  0
 12 13  1  6  0  0  0
 14 15  1  1  0  0  0
 14 19  1  0  0  0  0
 16 13  1  6  0  0  0
 16 21  1  0  0  0  0
 17 18  1  6  0  0  0
 17 23  1  0  0  0  0
 18  8  1  0  0  0  0
 19 20  1  6  0  0  0
 19 25  1  0  0  0  0
 20  5  1  0  0  0  0
 21  3  1  1  0  0  0
 21 22  1  0  0  0  0
 21 27  1  0  0  0  0
 23 24  1  1  0  0  0
 23 29  1  0  0  0  0
 25 26  1  1  0  0  0
 25 31  1  0  0  0  0
 27  7  1  6  0  0  0
 27 28  1  0  0  0  0
 29 30  1  6  0  0  0
 29 33  1  0  0  0  0
 31 32  1  6  0  0  0
 31 35  1  0  0  0  0
 33 34  1  0  0  0  0
 33 37  1  1  0  0  0
 35 36  1  1  0  0  0
 37 38  1  0  0  0  0
M  END
>  <CHROM.1>
-74.96198600,103.55702260,-160.15873208,171.74508586,133.76080702,-53.96693961
92.83976721,-79.45780164,159.43105645,-128.41949669,-60.42000905,18.62876331
28.67516599,-1.52010532,-1.72833020,0.39585309,3.10967936

>  <Name>
1ntb_lig

>  <RI>
0

>  <Rbt.Current_Directory>
/home/itssahil/PROJECTS/Mol_Feturizer/New_Systems/rnas/1ntb

>  <Rbt.Executable>
rbdock ($Id: //depot/dev/client3/rdock/2013.1/src/exe/rbdock.cxx#4 $)

>  <Rbt.Library>
libRbt.so (2013.1, Build901 2013/11/27)

>  <Rbt.Parameter_File>
/export/apps/rDock/src/rDock_2013.1_src/data/scripts/dock_solv.prm

>  <Rbt.Receptor>
prm/blind_docking_80.prm

>  <SCORE>
-1.92968

>  <SCORE.INTER>
0.466182

>  <SCORE.INTER.CONST>
1

>  <SCORE.INTER.POLAR>
-0.593742

>  <SCORE.INTER.ROT>
11

>  <SCORE.INTER.SOLV>
25.3481

>  <SCORE.INTER.VDW>
-17.0928

>  <SCORE.INTER.norm>
0.0116546

>  <SCORE.INTRA>
-2.3981

>  <SCORE.INTRA.DIHEDRAL>
2.81698

>  <SCORE.INTRA.DIHEDRAL.0>
15.4453

>  <SCORE.INTRA.POLAR>
0

>  <SCORE.INTRA.POLAR.0>
0

>  <SCORE.INTRA.REPUL>
-0.823958

>  <SCORE.INTRA.REPUL.0>
0.823958

>  <SCORE.INTRA.SOLV>
2.42447

>  <SCORE.INTRA.SOLV.lig_0>
-99.3069

>  <SCORE.INTRA.VDW>
-0.899036

>  <SCORE.INTRA.VDW.0>
0.946495

>  <SCORE.INTRA.norm>
-0.0599525

>  <SCORE.RESTR>
0.00223346

>  <SCORE.RESTR.CAVITY>
0.00223346

>  <SCORE.RESTR.norm>
5.58364e-05

>  <SCORE.SYSTEM>
0

>  <SCORE.SYSTEM.CONST>
0

>  <SCORE.SYSTEM.DIHEDRAL>
0

>  <SCORE.SYSTEM.SOLV>
0

>  <SCORE.SYSTEM.norm>
0

>  <SCORE.heavy>
40

>  <SCORE.norm>
-0.0482421

>  <RMSD>
18.071

$$$$
1ntb_lig
 OpenBabel11021811403D
libRbt.so/2013.1/901 2013/11/27
 40 42  0  0  0  0  0  0  0  0999 V2000
   19.4965   33.7203   -0.7572 C   0  0  0  0  0  0  0  0  0  0  0  0
   20.0909   34.7550   -0.3031 N   0  0  0  0  0  0  0  0  0  0  0  0
   19.4343   22.6290   -1.3565 C   0  0  0  0  0  0  0  0  0  0  0  0
   20.7110   22.9276   -1.8962 O   0  0  0  0  0  0  0  0  0  0  0  0
   16.1901   28.9339   -1.5541 C   0  0  0  0  0  0  0  0  0  0  0  0
   15.0435   29.1101   -1.0007 N   0  0  0  0  0  0  0  0  0  0  0  0
   19.6448   23.6694    1.7181 C   0  0  0  0  0  0  0  0  0  0  0  0
   14.6956   25.3888   -1.9119 C   0  0  0  0  0  0  0  0  0  0  0  0
   19.5271   31.3651   -0.6246 C   0  0  2  0  0  0  0  0  0  0  0  0
   19.4080   32.7015    0.0760 N   0  0  0  0  0  0  0  0  0  0  0  0
   18.9392   26.1990   -0.6184 C   0  0  2  0  0  0  0  0  0  0  0  0
   17.2928   24.6031   -3.3027 C   0  0  1  0  0  0  0  0  0  0  0  0
   17.4026   25.0758   -1.9728 O   0  0  0  0  0  0  0  0  0  0  0  0
   18.2518   30.5458   -0.4597 C   0  0  1  0  0  0  0  0  0  0  0  0
   17.1703   31.4064   -1.0268 O   0  0  0  0  0  0  0  0  0  0  0  0
   18.6797   25.0104   -1.5260 C   0  0  2  0  0  0  0  0  0  0  0  0
   16.0924   25.2512   -3.9490 C   0  0  1  0  0  0  0  0  0  0  0  0
   14.9135   24.8944   -3.2416 N   0  0  0  0  0  0  0  0  0  0  0  0
   18.3345   29.1735   -1.1251 C   0  0  2  0  0  0  0  0  0  0  0  0
   17.1462   28.3546   -1.0024 N   0  0  0  0  0  0  0  0  0  0  0  0
   18.8971   23.8311   -0.6155 C   0  0  1  0  0  0  0  0  0  0  0  0
   17.6742   23.4932    0.0475 O   0  0  0  0  0  0  0  0  0  0  0  0
   16.2883   26.7570   -3.8953 C   0  0  2  0  0  0  0  0  0  0  0  0
   15.1854   27.4148   -4.4797 O   0  0  0  0  0  0  0  0  0  0  0  0
   19.4938   28.4293   -0.5149 C   0  0  1  0  0  0  0  0  0  0  0  0
   19.6305   27.2262   -1.3211 O   0  0  0  0  0  0  0  0  0  0  0  0
   19.8878   24.3144    0.3782 C   0  0  1  0  0  0  0  0  0  0  0  0
   19.7262   25.7310    0.4794 O   0  0  0  0  0  0  0  0  0  0  0  0
   17.5675   27.0679   -4.6728 C   0  0  1  0  0  0  0  0  0  0  0  0
   17.8240   28.4635   -4.6633 O   0  0  0  0  0  0  0  0  0  0  0  0
   20.8087   29.2288   -0.7201 C   0  0  2  0  0  0  0  0  0  0  0  0
   21.8886   28.5045   -0.1514 O   0  0  0  0  0  0  0  0  0  0  0  0
   18.7335   26.3174   -4.0287 C   0  0  1  0  0  0  0  0  0  0  0  0
   18.4735   24.9147   -4.0382 O   0  0  0  0  0  0  0  0  0  0  0  0
   20.6887   30.5988   -0.0251 C   0  0  1  0  0  0  0  0  0  0  0  0
   21.8955   31.3496   -0.2053 O   0  0  0  0  0  0  0  0  0  0  0  0
   20.0071   26.6023   -4.8251 C   0  0  0  0  0  0  0  0  0  0  0  0
   20.8755   25.4845   -4.7301 O   0  0  0  0  0  0  0  0  0  0  0  0
   19.0345   33.6603   -1.9567 N   0  0  0  0  0  0  0  0  0  0  0  0
   16.3656   29.3071   -2.7274 N   0  0  0  0  0  0  0  0  0  0  0  0
  1  2  1  0  0  0  0
  1 39  1  0  0  0  0
  3  4  1  0  0  0  0
  5  6  1  0  0  0  0
  5 40  1  0  0  0  0
  9 10  1  1  0  0  0
  9 14  1  0  0  0  0
  9 35  1  0  0  0  0
 10  1  1  0  0  0  0
 11 16  1  0  0  0  0
 11 28  1  0  0  0  0
 11 26  1  6  0  0  0
 12 17  1  0  0  0  0
 12 34  1  0  0  0  0
 12 13  1  1  0  0  0
 14 15  1  6  0  0  0
 14 19  1  0  0  0  0
 16 13  1  1  0  0  0
 16 21  1  0  0  0  0
 17 18  1  1  0  0  0
 17 23  1  0  0  0  0
 18  8  1  0  0  0  0
 19 20  1  1  0  0  0
 19 25  1  0  0  0  0
 20  5  1  0  0  0  0
 21  3  1  6  0  0  0
 21 22  1  0  0  0  0
 21 27  1  0  0  0  0
 23 24  1  6  0  0  0
 23 29  1  0  0  0  0
 25 26  1  6  0  0  0
 25 31  1  0  0  0  0
 27  7  1  1  0  0  0
 27 28  1  0  0  0  0
 29 30  1  1  0  0  0
 29 33  1  0  0  0  0
 31 32  1  1  0  0  0
 31 35  1  0  0  0  0
 33 34  1  0  0  0  0
 33 37  1  6  0  0  0
 35 36  1  6  0  0  0
 37 38  1  0  0  0  0
M  END
>  <CHROM.1>
-117.77658477,-144.45276058,164.22036540,-154.31007216,144.66769240,68.54916631
61.56219364,-130.33259609,63.15748734,-96.89711598,-150.19595501,18.50153132
27.56949328,-1.72257320,1.36190407,-0.64771793,0.05735020

>  <Name>
1ntb_lig

>  <RI>
0

>  <Rbt.Current_Directory>
/home/itssahil/PROJECTS/Mol_Feturizer/New_Systems/rnas/1ntb

>  <Rbt.Executable>
rbdock ($Id: //depot/dev/client3/rdock/2013.1/src/exe/rbdock.cxx#4 $)

>  <Rbt.Library>
libRbt.so (2013.1, Build901 2013/11/27)

>  <Rbt.Parameter_File>
/export/apps/rDock/src/rDock_2013.1_src/data/scripts/dock_solv.prm

>  <Rbt.Receptor>
prm/blind_docking_100.prm

>  <SCORE>
-2.85313

>  <SCORE.INTER>
-4.95729

>  <SCORE.INTER.CONST>
1

>  <SCORE.INTER.POLAR>
-0.821816

>  <SCORE.INTER.ROT>
11

>  <SCORE.INTER.SOLV>
18.715

>  <SCORE.INTER.VDW>
-17.7371

>  <SCORE.INTER.norm>
-0.123932

>  <SCORE.INTRA>
1.44414

>  <SCORE.INTRA.DIHEDRAL>
2.8816

>  <SCORE.INTRA.DIHEDRAL.0>
15.4453

>  <SCORE.INTRA.POLAR>
0

>  <SCORE.INTRA.POLAR.0>
0

>  <SCORE.INTRA.REPUL>
-0.768782

>  <SCORE.INTRA.REPUL.0>
0.823958

>  <SCORE.INTRA.SOLV>
5.21011

>  <SCORE.INTRA.SOLV.lig_0>
-99.3069

>  <SCORE.INTRA.VDW>
1.2422

>  <SCORE.INTRA.VDW.0>
0.946495

>  <SCORE.INTRA.norm>
0.0361036

>  <SCORE.RESTR>
0.660016

>  <SCORE.RESTR.CAVITY>
0.660016

>  <SCORE.RESTR.norm>
0.0165004

>  <SCORE.SYSTEM>
0

>  <SCORE.SYSTEM.CONST>
0

>  <SCORE.SYSTEM.DIHEDRAL>
0

>  <SCORE.SYSTEM.SOLV>
0

>  <SCORE.SYSTEM.norm>
0

>  <SCORE.heavy>
40

>  <SCORE.norm>
-0.0713282

>  <RMSD>
18.076

$$$$
1ntb_lig
 OpenBabel11021811403D
libRbt.so/2013.1/901 2013/11/27
 40 42  0  0  0  0  0  0  0  0999 V2000
   17.9904   35.7501   -0.9402 C   0  0  0  0  0  0  0  0  0  0  0  0
   17.9708   35.0037    0.0955 N   0  0  0  0  0  0  0  0  0  0  0  0
   21.9942   26.3156   -0.7804 C   0  0  0  0  0  0  0  0  0  0  0  0
   21.4400   25.0138   -0.8729 O   0  0  0  0  0  0  0  0  0  0  0  0
   16.3025   29.7733   -1.9527 C   0  0  0  0  0  0  0  0  0  0  0  0
   16.5882   29.0002   -2.9390 N   0  0  0  0  0  0  0  0  0  0  0  0
   21.7593   28.3680    1.7321 C   0  0  0  0  0  0  0  0  0  0  0  0
   19.0618   23.6468    0.5122 C   0  0  0  0  0  0  0  0  0  0  0  0
   17.9567   33.8889   -2.3895 C   0  0  2  0  0  0  0  0  0  0  0  0
   17.4112   35.2502   -2.0148 N   0  0  0  0  0  0  0  0  0  0  0  0
   19.7270   29.2037   -1.0115 C   0  0  2  0  0  0  0  0  0  0  0  0
   19.2178   25.7902   -2.1226 C   0  0  1  0  0  0  0  0  0  0  0  0
   18.9543   27.0790   -1.5994 O   0  0  0  0  0  0  0  0  0  0  0  0
   17.2547   32.7844   -1.6071 C   0  0  1  0  0  0  0  0  0  0  0  0
   15.8069   32.9434   -1.9394 O   0  0  0  0  0  0  0  0  0  0  0  0
   20.0927   27.7987   -1.4542 C   0  0  2  0  0  0  0  0  0  0  0  0
   18.2445   24.8117   -1.5114 C   0  0  1  0  0  0  0  0  0  0  0  0
   18.4204   24.7742   -0.1025 N   0  0  0  0  0  0  0  0  0  0  0  0
   17.7925   31.3916   -1.9288 C   0  0  2  0  0  0  0  0  0  0  0  0
   17.1564   30.3035   -1.2153 N   0  0  0  0  0  0  0  0  0  0  0  0
   20.9376   27.2907   -0.3161 C   0  0  1  0  0  0  0  0  0  0  0  0
   20.1059   26.6785    0.6751 O   0  0  0  0  0  0  0  0  0  0  0  0
   16.8382   25.2826   -1.8417 C   0  0  2  0  0  0  0  0  0  0  0  0
   15.8848   24.4052   -1.2833 O   0  0  0  0  0  0  0  0  0  0  0  0
   19.2652   31.3763   -1.6111 C   0  0  1  0  0  0  0  0  0  0  0  0
   19.7428   30.0992   -2.1182 O   0  0  0  0  0  0  0  0  0  0  0  0
   21.5678   28.5118    0.2444 C   0  0  1  0  0  0  0  0  0  0  0  0
   20.6894   29.6047   -0.0335 O   0  0  0  0  0  0  0  0  0  0  0  0
   16.7199   25.2980   -3.3659 C   0  0  1  0  0  0  0  0  0  0  0  0
   15.4278   25.7358   -3.7564 O   0  0  0  0  0  0  0  0  0  0  0  0
   20.0013   32.4635   -2.4395 C   0  0  2  0  0  0  0  0  0  0  0  0
   21.3871   32.4224   -2.1362 O   0  0  0  0  0  0  0  0  0  0  0  0
   17.7845   26.2358   -3.9360 C   0  0  1  0  0  0  0  0  0  0  0  0
   19.0826   25.7946   -3.5418 O   0  0  0  0  0  0  0  0  0  0  0  0
   19.4389   33.8515   -2.0773 C   0  0  1  0  0  0  0  0  0  0  0  0
   20.1087   34.8669   -2.8340 O   0  0  0  0  0  0  0  0  0  0  0  0
   17.6877   26.2266   -5.4618 C   0  0  0  0  0  0  0  0  0  0  0  0
   18.0501   24.9426   -5.9437 O   0  0  0  0  0  0  0  0  0  0  0  0
   18.5586   36.9046   -0.9485 N   0  0  0  0  0  0  0  0  0  0  0  0
   15.1145   30.0676   -1.7320 N   0  0  0  0  0  0  0  0  0  0  0  0
  1  2  1  0  0  0  0
  1 39  1  0  0  0  0
  3  4  1  0  0  0  0
  5  6  1  0  0  0  0
  5 40  1  0  0  0  0
  9 10  1  1  0  0  0
  9 14  1  0  0  0  0
  9 35  1  0  0  0  0
 10  1  1  0  0  0  0
 11 16  1  0  0  0  0
 11 28  1  0  0  0  0
 11 26  1  6  0  0  0
 12 17  1  0  0  0  0
 12 34  1  0  0  0  0
 12 13  1  1  0  0  0
 14 15  1  6  0  0  0
 14 19  1  0  0  0  0
 16 13  1  1  0  0  0
 16 21  1  0  0  0  0
 17 18  1  1  0  0  0
 17 23  1  0  0  0  0
 18  8  1  0  0  0  0
 19 20  1  1  0  0  0
 19 25  1  0  0  0  0
 20  5  1  0  0  0  0
 21  3  1  6  0  0  0
 21 22  1  0  0  0  0
 21 27  1  0  0  0  0
 23 24  1  1  0  0  0
 23 29  1  0  0  0  0
 25 26  1  6  0  0  0
 25 31  1  0  0  0  0
 27  7  1  1  0  0  0
 27 28  1  0  0  0  0
 29 30  1  1  0  0  0
 29 33  1  0  0  0  0
 31 32  1  1  0  0  0
 31 35  1  0  0  0  0
 33 34  1  0  0  0  0
 33 37  1  6  0  0  0
 35 36  1  6  0  0  0
 37 38  1  0  0  0  0
M  END
>  <CHROM.1>
84.72997561,-54.30952122,174.98785823,145.39332047,174.93505367,-106.01490432
98.81682304,74.67998099,-84.25872933,-95.46031826,-66.44290851,18.65091559
29.11898038,-1.71976310,1.57831587,-0.59145472,0.04771331

>  <Name>
1ntb_lig

>  <RI>
0

>  <Rbt.Current_Directory>
/home/itssahil/PROJECTS/Mol_Feturizer/New_Systems/rnas/1ntb

>  <Rbt.Executable>
rbdock ($Id: //depot/dev/client3/rdock/2013.1/src/exe/rbdock.cxx#4 $)

>  <Rbt.Library>
libRbt.so (2013.1, Build901 2013/11/27)

>  <Rbt.Parameter_File>
/export/apps/rDock/src/rDock_2013.1_src/data/scripts/dock_solv.prm

>  <Rbt.Receptor>
prm/blind_docking_60.prm

>  <SCORE>
-10.5564

>  <SCORE.INTER>
-6.85582

>  <SCORE.INTER.CONST>
1

>  <SCORE.INTER.POLAR>
-0.246286

>  <SCORE.INTER.ROT>
11

>  <SCORE.INTER.SOLV>
17.3348

>  <SCORE.INTER.VDW>
-20.4612

>  <SCORE.INTER.norm>
-0.171395

>  <SCORE.INTRA>
-3.70055

>  <SCORE.INTRA.DIHEDRAL>
-0.461965

>  <SCORE.INTRA.DIHEDRAL.0>
15.4453

>  <SCORE.INTRA.POLAR>
0

>  <SCORE.INTRA.POLAR.0>
0

>  <SCORE.INTRA.REPUL>
-0.823958

>  <SCORE.INTRA.REPUL.0>
0.823958

>  <SCORE.INTRA.SOLV>
6.30533

>  <SCORE.INTRA.SOLV.lig_0>
-99.3069

>  <SCORE.INTRA.VDW>
-2.50245

>  <SCORE.INTRA.VDW.0>
0.946495

>  <SCORE.INTRA.norm>
-0.0925137

>  <SCORE.RESTR>
0

>  <SCORE.RESTR.CAVITY>
0

>  <SCORE.RESTR.norm>
0

>  <SCORE.SYSTEM>
0

>  <SCORE.SYSTEM.CONST>
0

>  <SCORE.SYSTEM.DIHEDRAL>
0

>  <SCORE.SYSTEM.SOLV>
0

>  <SCORE.SYSTEM.norm>
0

>  <SCORE.heavy>
40

>  <SCORE.norm>
-0.263909

>  <RMSD>
18.087

$$$$
1ntb_lig
 OpenBabel11021811403D
libRbt.so/2013.1/901 2013/11/27
 40 42  0  0  0  0  0  0  0  0999 V2000
   11.7469   31.4144   -3.4868 C   0  0  0  0  0  0  0  0  0  0  0  0
   12.0410   32.6525   -3.5911 N   0  0  0  0  0  0  0  0  0  0  0  0
   21.9258   28.7313   -0.1862 C   0  0  0  0  0  0  0  0  0  0  0  0
   22.5026   27.5570    0.3604 O   0  0  0  0  0  0  0  0  0  0  0  0
   15.7597   26.5893   -3.2197 C   0  0  0  0  0  0  0  0  0  0  0  0
   15.1036   26.9453   -4.2661 N   0  0  0  0  0  0  0  0  0  0  0  0
   20.3654   30.9443    1.6159 C   0  0  0  0  0  0  0  0  0  0  0  0
   20.2228   24.4717    3.0777 C   0  0  0  0  0  0  0  0  0  0  0  0
   13.7095   30.4633   -2.5871 C   0  0  2  0  0  0  0  0  0  0  0  0
   12.2415   30.7975   -2.4309 N   0  0  0  0  0  0  0  0  0  0  0  0
   18.2728   29.0527   -0.4813 C   0  0  2  0  0  0  0  0  0  0  0  0
   20.3835   26.1235   -0.1614 C   0  0  1  0  0  0  0  0  0  0  0  0
   19.2271   26.9393   -0.1985 O   0  0  0  0  0  0  0  0  0  0  0  0
   13.9690   28.9898   -2.2933 C   0  0  1  0  0  0  0  0  0  0  0  0
   13.0976   28.2504   -3.2555 O   0  0  0  0  0  0  0  0  0  0  0  0
   19.5180   28.1950   -0.6149 C   0  0  2  0  0  0  0  0  0  0  0  0
   20.0754   24.8838    0.6429 C   0  0  1  0  0  0  0  0  0  0  0  0
   19.7325   25.2457    1.9728 N   0  0  0  0  0  0  0  0  0  0  0  0
   15.4437   28.6095   -2.4084 C   0  0  2  0  0  0  0  0  0  0  0  0
   15.7457   27.2181   -2.1434 N   0  0  0  0  0  0  0  0  0  0  0  0
   20.5021   28.8765    0.2983 C   0  0  1  0  0  0  0  0  0  0  0  0
   20.3795   28.3549    1.6258 O   0  0  0  0  0  0  0  0  0  0  0  0
   18.9026   24.1779   -0.0166 C   0  0  2  0  0  0  0  0  0  0  0  0
   18.5654   23.0126    0.7039 O   0  0  0  0  0  0  0  0  0  0  0  0
   16.2211   29.4612   -1.4386 C   0  0  1  0  0  0  0  0  0  0  0  0
   17.6180   29.1870   -1.7383 O   0  0  0  0  0  0  0  0  0  0  0  0
   20.0901   30.3021    0.2810 C   0  0  1  0  0  0  0  0  0  0  0  0
   18.6885   30.3321    0.0021 O   0  0  0  0  0  0  0  0  0  0  0  0
   19.3402   23.8185   -1.4367 C   0  0  1  0  0  0  0  0  0  0  0  0
   18.2898   23.1570   -2.1244 O   0  0  0  0  0  0  0  0  0  0  0  0
   16.0064   30.9652   -1.7581 C   0  0  2  0  0  0  0  0  0  0  0  0
   16.7576   31.7482   -0.8433 O   0  0  0  0  0  0  0  0  0  0  0  0
   19.7237   25.1006   -2.1763 C   0  0  1  0  0  0  0  0  0  0  0  0
   20.7791   25.7646   -1.4831 O   0  0  0  0  0  0  0  0  0  0  0  0
   14.5110   31.3097   -1.6191 C   0  0  1  0  0  0  0  0  0  0  0  0
   14.2959   32.6957   -1.9108 O   0  0  0  0  0  0  0  0  0  0  0  0
   20.1921   24.7387   -3.5860 C   0  0  0  0  0  0  0  0  0  0  0  0
   20.3717   25.9288   -4.3368 O   0  0  0  0  0  0  0  0  0  0  0  0
   11.0363   30.7973   -4.3643 N   0  0  0  0  0  0  0  0  0  0  0  0
   16.4126   25.5310   -3.2393 N   0  0  0  0  0  0  0  0  0  0  0  0
  1  2  1  0  0  0  0
  1 39  1  0  0  0  0
  3  4  1  0  0  0  0
  5  6  1  0  0  0  0
  5 40  1  0  0  0  0
  9 10  1  1  0  0  0
  9 14  1  0  0  0  0
  9 35  1  0  0  0  0
 10  1  1  0  0  0  0
 11 16  1  0  0  0  0
 11 28  1  0  0  0  0
 11 26  1  6  0  0  0
 12 17  1  0  0  0  0
 12 34  1  0  0  0  0
 12 13  1  6  0  0  0
 14 15  1  6  0  0  0
 14 19  1  0  0  0  0
 16 13  1  1  0  0  0
 16 21  1  0  0  0  0
 17 18  1  1  0  0  0
 17 23  1  0  0  0  0
 18  8  1  0  0  0  0
 19 20  1  1  0  0  0
 19 25  1  0  0  0  0
 20  5  1  0  0  0  0
 21  3  1  6  0  0  0
 21 22  1  0  0  0  0
 21 27  1  0  0  0  0
 23 24  1  1  0  0  0
 23 29  1  0  0  0  0
 25 26  1  6  0  0  0
 25 31  1  0  0  0  0
 27  7  1  1  0  0  0
 27 28  1  0  0  0  0
 29 30  1  6  0  0  0
 29 33  1  0  0  0  0
 31 32  1  1  0  0  0
 31 35  1  0  0  0  0
 33 34  1  0  0  0  0
 33 37  1  6  0  0  0
 35 36  1  6  0  0  0
 37 38  1  0  0  0  0
M  END
>  <CHROM.1>
-128.13825741,-77.23263716,154.95800432,165.05002062,-173.66416242,-138.88933593
94.10027062,-25.95692557,-89.78105012,-137.18185834,171.97501014,17.54215307
27.96605606,-1.30071236,2.68550016,-0.54383204,0.30461850

>  <Name>
1ntb_lig

>  <RI>
0

>  <Rbt.Current_Directory>
/home/itssahil/PROJECTS/Mol_Feturizer/New_Systems/rnas/1ntb

>  <Rbt.Executable>
rbdock ($Id: //depot/dev/client3/rdock/2013.1/src/exe/rbdock.cxx#4 $)

>  <Rbt.Library>
libRbt.so (2013.1, Build901 2013/11/27)

>  <Rbt.Parameter_File>
/export/apps/rDock/src/rDock_2013.1_src/data/scripts/dock_solv.prm

>  <Rbt.Receptor>
prm/blind_docking_100.prm

>  <SCORE>
-4.38161

>  <SCORE.INTER>
1.13982

>  <SCORE.INTER.CONST>
1

>  <SCORE.INTER.POLAR>
-1.29373

>  <SCORE.INTER.ROT>
11

>  <SCORE.INTER.SOLV>
31.6784

>  <SCORE.INTER.VDW>
-16.4205

>  <SCORE.INTER.norm>
0.0284954

>  <SCORE.INTRA>
-5.9383

>  <SCORE.INTRA.DIHEDRAL>
0.935205

>  <SCORE.INTRA.DIHEDRAL.0>
15.4453

>  <SCORE.INTRA.POLAR>
0

>  <SCORE.INTRA.POLAR.0>
0

>  <SCORE.INTRA.REPUL>
-0.770017

>  <SCORE.INTRA.REPUL.0>
0.823958

>  <SCORE.INTRA.SOLV>
0.823515

>  <SCORE.INTRA.SOLV.lig_0>
-99.3069

>  <SCORE.INTRA.VDW>
-2.96757

>  <SCORE.INTRA.VDW.0>
0.946495

>  <SCORE.INTRA.norm>
-0.148457

>  <SCORE.RESTR>
0.416874

>  <SCORE.RESTR.CAVITY>
0.416874

>  <SCORE.RESTR.norm>
0.0104219

>  <SCORE.SYSTEM>
0

>  <SCORE.SYSTEM.CONST>
0

>  <SCORE.SYSTEM.DIHEDRAL>
0

>  <SCORE.SYSTEM.SOLV>
0

>  <SCORE.SYSTEM.norm>
0

>  <SCORE.heavy>
40

>  <SCORE.norm>
-0.10954

>  <RMSD>
18.095

$$$$
1ntb_lig
 OpenBabel11021811403D
libRbt.so/2013.1/901 2013/11/27
 40 42  0  0  0  0  0  0  0  0999 V2000
   17.9617   23.6337    5.5333 C   0  0  0  0  0  0  0  0  0  0  0  0
   16.8864   24.2946    5.7256 N   0  0  0  0  0  0  0  0  0  0  0  0
   18.6155   31.0743   -2.6564 C   0  0  0  0  0  0  0  0  0  0  0  0
   18.2713   30.5808   -3.9402 O   0  0  0  0  0  0  0  0  0  0  0  0
   19.0653   24.9155   -0.4579 C   0  0  0  0  0  0  0  0  0  0  0  0
   17.9066   24.7691   -0.9946 N   0  0  0  0  0  0  0  0  0  0  0  0
   21.3549   31.0321   -0.9031 C   0  0  0  0  0  0  0  0  0  0  0  0
   18.6554   25.3407   -5.5871 C   0  0  0  0  0  0  0  0  0  0  0  0
   18.3641   25.1866    3.8034 C   0  0  2  0  0  0  0  0  0  0  0  0
   18.9122   24.2693    4.8754 N   0  0  0  0  0  0  0  0  0  0  0  0
   19.0721   28.4896   -0.0785 C   0  0  2  0  0  0  0  0  0  0  0  0
   17.6412   28.1817   -3.3944 C   0  0  1  0  0  0  0  0  0  0  0  0
   18.3678   27.8740   -2.2191 O   0  0  0  0  0  0  0  0  0  0  0  0
   19.1778   25.0736    2.5189 C   0  0  1  0  0  0  0  0  0  0  0  0
   19.1006   23.6293    2.1449 O   0  0  0  0  0  0  0  0  0  0  0  0
   18.4187   28.9322   -1.3750 C   0  0  2  0  0  0  0  0  0  0  0  0
   17.3818   26.9019   -4.1518 C   0  0  1  0  0  0  0  0  0  0  0  0
   18.6153   26.3044   -4.5241 N   0  0  0  0  0  0  0  0  0  0  0  0
   18.6810   26.0044    1.4146 C   0  0  2  0  0  0  0  0  0  0  0  0
   19.4170   25.9338    0.1692 N   0  0  0  0  0  0  0  0  0  0  0  0
   19.3466   30.0070   -1.8760 C   0  0  1  0  0  0  0  0  0  0  0  0
   20.3762   29.4266   -2.6835 O   0  0  0  0  0  0  0  0  0  0  0  0
   16.6120   25.9646   -3.2366 C   0  0  2  0  0  0  0  0  0  0  0  0
   16.3508   24.7441   -3.8944 O   0  0  0  0  0  0  0  0  0  0  0  0
   18.7492   27.4180    1.9315 C   0  0  1  0  0  0  0  0  0  0  0  0
   18.0875   28.2195    0.9137 O   0  0  0  0  0  0  0  0  0  0  0  0
   19.9412   30.5802   -0.6430 C   0  0  1  0  0  0  0  0  0  0  0  0
   19.9302   29.5503    0.3482 O   0  0  0  0  0  0  0  0  0  0  0  0
   15.3026   26.6677   -2.8782 C   0  0  1  0  0  0  0  0  0  0  0  0
   14.5251   25.8529   -2.0148 O   0  0  0  0  0  0  0  0  0  0  0  0
   17.8834   27.5603    3.2123 C   0  0  2  0  0  0  0  0  0  0  0  0
   17.9501   28.9007    3.6738 O   0  0  0  0  0  0  0  0  0  0  0  0
   15.6249   27.9964   -2.1938 C   0  0  1  0  0  0  0  0  0  0  0  0
   16.4072   28.8138   -3.0628 O   0  0  0  0  0  0  0  0  0  0  0  0
   18.4238   26.6157    4.3032 C   0  0  1  0  0  0  0  0  0  0  0  0
   17.6349   26.7354    5.4930 O   0  0  0  0  0  0  0  0  0  0  0  0
   14.3161   28.7148   -1.8642 C   0  0  0  0  0  0  0  0  0  0  0  0
   13.5529   28.8600   -3.0512 O   0  0  0  0  0  0  0  0  0  0  0  0
   18.1054   22.4182    5.9304 N   0  0  0  0  0  0  0  0  0  0  0  0
   19.8836   23.9803   -0.5076 N   0  0  0  0  0  0  0  0  0  0  0  0
  1  2  1  0  0  0  0
  1 39  1  0  0  0  0
  3  4  1  0  0  0  0
  5  6  1  0  0  0  0
  5 40  1  0  0  0  0
  9 10  1  1  0  0  0
  9 14  1  0  0  0  0
  9 35  1  0  0  0  0
 10  1  1  0  0  0  0
 11 16  1  0  0  0  0
 11 28  1  0  0  0  0
 11 26  1  1  0  0  0
 12 17  1  0  0  0  0
 12 34  1  0  0  0  0
 12 13  1  1  0  0  0
 14 15  1  6  0  0  0
 14 19  1  0  0  0  0
 16 13  1  6  0  0  0
 16 21  1  0  0  0  0
 17 18  1  1  0  0  0
 17 23  1  0  0  0  0
 18  8  1  0  0  0  0
 19 20  1  6  0  0  0
 19 25  1  0  0  0  0
 20  5  1  0  0  0  0
 21  3  1  6  0  0  0
 21 22  1  0  0  0  0
 21 27  1  0  0  0  0
 23 24  1  6  0  0  0
 23 29  1  0  0  0  0
 25 26  1  6  0  0  0
 25 31  1  0  0  0  0
 27  7  1  6  0  0  0
 27 28  1  0  0  0  0
 29 30  1  1  0  0  0
 29 33  1  0  0  0  0
 31 32  1  1  0  0  0
 31 35  1  0  0  0  0
 33 34  1  0  0  0  0
 33 37  1  6  0  0  0
 35 36  1  1  0  0  0
 37 38  1  0  0  0  0
M  END
>  <CHROM.1>
-137.08105543,-35.43164940,162.26370236,-168.59926248,173.73788601,-160.20914893
77.64374509,69.31809482,-75.02662217,-83.75693120,-55.55066050,18.00424853
27.06509457,-0.19454563,1.37177979,1.07213296,2.15825434

>  <Name>
1ntb_lig

>  <RI>
0

>  <Rbt.Current_Directory>
/home/itssahil/PROJECTS/Mol_Feturizer/New_Systems/rnas/1ntb

>  <Rbt.Executable>
rbdock ($Id: //depot/dev/client3/rdock/2013.1/src/exe/rbdock.cxx#4 $)

>  <Rbt.Library>
libRbt.so (2013.1, Build901 2013/11/27)

>  <Rbt.Parameter_File>
/export/apps/rDock/src/rDock_2013.1_src/data/scripts/dock_solv.prm

>  <Rbt.Receptor>
prm/blind_docking_100.prm

>  <SCORE>
-29.5542

>  <SCORE.INTER>
-26.1232

>  <SCORE.INTER.CONST>
1

>  <SCORE.INTER.POLAR>
-2.89241

>  <SCORE.INTER.ROT>
11

>  <SCORE.INTER.SOLV>
15.2144

>  <SCORE.INTER.VDW>
-23.7789

>  <SCORE.INTER.norm>
-0.653079

>  <SCORE.INTRA>
-5.97991

>  <SCORE.INTRA.DIHEDRAL>
-7.02766

>  <SCORE.INTRA.DIHEDRAL.0>
15.4453

>  <SCORE.INTRA.POLAR>
0

>  <SCORE.INTRA.POLAR.0>
0

>  <SCORE.INTRA.REPUL>
-0.823958

>  <SCORE.INTRA.REPUL.0>
0.823958

>  <SCORE.INTRA.SOLV>
3.65049

>  <SCORE.INTRA.SOLV.lig_0>
-99.3069

>  <SCORE.INTRA.VDW>
-0.171538

>  <SCORE.INTRA.VDW.0>
0.946495

>  <SCORE.INTRA.norm>
-0.149498

>  <SCORE.RESTR>
2.54887

>  <SCORE.RESTR.CAVITY>
2.54887

>  <SCORE.RESTR.norm>
0.0637217

>  <SCORE.SYSTEM>
0

>  <SCORE.SYSTEM.CONST>
0

>  <SCORE.SYSTEM.DIHEDRAL>
0

>  <SCORE.SYSTEM.SOLV>
0

>  <SCORE.SYSTEM.norm>
0

>  <SCORE.heavy>
40

>  <SCORE.norm>
-0.738856

>  <RMSD>
18.098

$$$$
1ntb_lig
 OpenBabel11021811403D
libRbt.so/2013.1/901 2013/11/27
 40 42  0  0  0  0  0  0  0  0999 V2000
   18.0616   23.8498    5.5462 C   0  0  0  0  0  0  0  0  0  0  0  0
   18.5240   23.5074    6.6860 N   0  0  0  0  0  0  0  0  0  0  0  0
   18.6157   31.3094   -2.6078 C   0  0  0  0  0  0  0  0  0  0  0  0
   19.4940   32.3955   -2.8513 O   0  0  0  0  0  0  0  0  0  0  0  0
   20.6103   25.8794    0.1953 C   0  0  0  0  0  0  0  0  0  0  0  0
   21.2514   24.7657    0.1698 N   0  0  0  0  0  0  0  0  0  0  0  0
   21.3584   31.1875   -0.8633 C   0  0  0  0  0  0  0  0  0  0  0  0
   18.2699   25.4598   -5.6324 C   0  0  0  0  0  0  0  0  0  0  0  0
   18.4029   25.1583    3.6130 C   0  0  2  0  0  0  0  0  0  0  0  0
   18.9608   24.2068    4.6495 N   0  0  0  0  0  0  0  0  0  0  0  0
   19.0891   28.5938   -0.1714 C   0  0  2  0  0  0  0  0  0  0  0  0
   17.5896   28.4277   -3.4624 C   0  0  1  0  0  0  0  0  0  0  0  0
   18.3839   28.0892   -2.3405 O   0  0  0  0  0  0  0  0  0  0  0  0
   19.1868   25.0665    2.3085 C   0  0  1  0  0  0  0  0  0  0  0  0
   19.0807   23.6333    1.9004 O   0  0  0  0  0  0  0  0  0  0  0  0
   18.4313   29.1014   -1.4416 C   0  0  2  0  0  0  0  0  0  0  0  0
   17.2048   27.1586   -4.1833 C   0  0  1  0  0  0  0  0  0  0  0  0
   18.3726   26.4907   -4.6390 N   0  0  0  0  0  0  0  0  0  0  0  0
   18.6797   26.0316    1.2389 C   0  0  2  0  0  0  0  0  0  0  0  0
   19.3874   25.9823   -0.0237 N   0  0  0  0  0  0  0  0  0  0  0  0
   19.3532   30.2057   -1.8862 C   0  0  1  0  0  0  0  0  0  0  0  0
   20.3842   29.6739   -2.7249 O   0  0  0  0  0  0  0  0  0  0  0  0
   16.4553   26.2724   -3.2027 C   0  0  2  0  0  0  0  0  0  0  0  0
   16.0794   25.0632   -3.8250 O   0  0  0  0  0  0  0  0  0  0  0  0
   18.7794   27.4307    1.7893 C   0  0  1  0  0  0  0  0  0  0  0  0
   18.1075   28.2668    0.8066 O   0  0  0  0  0  0  0  0  0  0  0  0
   19.9473   30.7156   -0.6254 C   0  0  1  0  0  0  0  0  0  0  0  0
   19.9429   29.6345    0.3097 O   0  0  0  0  0  0  0  0  0  0  0  0
   15.2167   27.0497   -2.7566 C   0  0  1  0  0  0  0  0  0  0  0  0
   14.4623   26.2859   -1.8285 O   0  0  0  0  0  0  0  0  0  0  0  0
   17.9438   27.5526    3.0920 C   0  0  2  0  0  0  0  0  0  0  0  0
   18.0398   28.8799    3.5852 O   0  0  0  0  0  0  0  0  0  0  0  0
   15.6613   28.3637   -2.1136 C   0  0  1  0  0  0  0  0  0  0  0  0
   16.4202   29.1298   -3.0477 O   0  0  0  0  0  0  0  0  0  0  0  0
   18.4940   26.5734    4.1468 C   0  0  1  0  0  0  0  0  0  0  0  0
   17.7330   26.6739    5.3563 O   0  0  0  0  0  0  0  0  0  0  0  0
   14.4221   29.1560   -1.6965 C   0  0  0  0  0  0  0  0  0  0  0  0
   13.9882   28.7055   -0.4232 O   0  0  0  0  0  0  0  0  0  0  0  0
   16.8006   23.8718    5.2911 N   0  0  0  0  0  0  0  0  0  0  0  0
   21.2115   26.9229    0.5055 N   0  0  0  0  0  0  0  0  0  0  0  0
  1  2  1  0  0  0  0
  1 39  1  0  0  0  0
  3  4  1  0  0  0  0
  5  6  1  0  0  0  0
  5 40  1  0  0  0  0
  9 10  1  1  0  0  0
  9 14  1  0  0  0  0
  9 35  1  0  0  0  0
 10  1  1  0  0  0  0
 11 16  1  0  0  0  0
 11 28  1  0  0  0  0
 11 26  1  1  0  0  0
 12 17  1  0  0  0  0
 12 34  1  0  0  0  0
 12 13  1  1  0  0  0
 14 15  1  6  0  0  0
 14 19  1  0  0  0  0
 16 13  1  6  0  0  0
 16 21  1  0  0  0  0
 17 18  1  1  0  0  0
 17 23  1  0  0  0  0
 18  8  1  0  0  0  0
 19 20  1  6  0  0  0
 19 25  1  0  0  0  0
 20  5  1  0  0  0  0
 21  3  1  6  0  0  0
 21 22  1  0  0  0  0
 21 27  1  0  0  0  0
 23 24  1  6  0  0  0
 23 29  1  0  0  0  0
 25 26  1  6  0  0  0
 25 31  1  0  0  0  0
 27  7  1  6  0  0  0
 27 28  1  0  0  0  0
 29 30  1  1  0  0  0
 29 33  1  0  0  0  0
 31 32  1  1  0  0  0
 31 35  1  0  0  0  0
 33 34  1  0  0  0  0
 33 37  1  6  0  0  0
 35 36  1  1  0  0  0
 37 38  1  0  0  0  0
M  END
>  <CHROM.1>
-154.52068393,-153.84714645,163.02757071,-161.68243248,170.34769736,-164.04422685
-41.32490752,97.85111113,172.55748365,-86.10343095,84.16464097,18.19194144
27.34868451,-0.05849563,1.44039906,0.86660430,2.13482947

>  <Name>
1ntb_lig

>  <RI>
0

>  <Rbt.Current_Directory>
/home/itssahil/PROJECTS/Mol_Feturizer/New_Systems/rnas/1ntb

>  <Rbt.Executable>
rbdock ($Id: //depot/dev/client3/rdock/2013.1/src/exe/rbdock.cxx#4 $)

>  <Rbt.Library>
libRbt.so (2013.1, Build901 2013/11/27)

>  <Rbt.Parameter_File>
/export/apps/rDock/src/rDock_2013.1_src/data/scripts/dock_solv.prm

>  <Rbt.Receptor>
prm/blind_docking_100.prm

>  <SCORE>
-12.1241

>  <SCORE.INTER>
-14.0407

>  <SCORE.INTER.CONST>
1

>  <SCORE.INTER.POLAR>
-0.541816

>  <SCORE.INTER.ROT>
11

>  <SCORE.INTER.SOLV>
15.7856

>  <SCORE.INTER.VDW>
-23.7496

>  <SCORE.INTER.norm>
-0.351018

>  <SCORE.INTRA>
-0.263919

>  <SCORE.INTRA.DIHEDRAL>
-5.0878

>  <SCORE.INTRA.DIHEDRAL.0>
15.4453

>  <SCORE.INTRA.POLAR>
0

>  <SCORE.INTRA.POLAR.0>
0

>  <SCORE.INTRA.REPUL>
-0.256452

>  <SCORE.INTRA.REPUL.0>
0.823958

>  <SCORE.INTRA.SOLV>
2.46683

>  <SCORE.INTRA.SOLV.lig_0>
-99.3069

>  <SCORE.INTRA.VDW>
2.32882

>  <SCORE.INTRA.VDW.0>
0.946495

>  <SCORE.INTRA.norm>
-0.00659798

>  <SCORE.RESTR>
2.1805

>  <SCORE.RESTR.CAVITY>
2.1805

>  <SCORE.RESTR.norm>
0.0545126

>  <SCORE.SYSTEM>
0

>  <SCORE.SYSTEM.CONST>
0

>  <SCORE.SYSTEM.DIHEDRAL>
0

>  <SCORE.SYSTEM.SOLV>
0

>  <SCORE.SYSTEM.norm>
0

>  <SCORE.heavy>
40

>  <SCORE.norm>
-0.303103

>  <RMSD>
18.103

$$$$
1ntb_lig
 OpenBabel11021811403D
libRbt.so/2013.1/901 2013/11/27
 40 42  0  0  0  0  0  0  0  0999 V2000
   18.1614   24.1297    5.9840 C   0  0  0  0  0  0  0  0  0  0  0  0
   18.6318   24.2502    7.1648 N   0  0  0  0  0  0  0  0  0  0  0  0
   18.7028   31.0268   -2.6134 C   0  0  0  0  0  0  0  0  0  0  0  0
   17.7520   31.6518   -1.7675 O   0  0  0  0  0  0  0  0  0  0  0  0
   19.1043   24.8302   -0.3939 C   0  0  0  0  0  0  0  0  0  0  0  0
   17.8941   24.6744   -0.7979 N   0  0  0  0  0  0  0  0  0  0  0  0
   21.4529   30.8749   -0.8831 C   0  0  0  0  0  0  0  0  0  0  0  0
   18.6071   25.3304   -5.6440 C   0  0  0  0  0  0  0  0  0  0  0  0
   18.4579   25.1921    3.8985 C   0  0  2  0  0  0  0  0  0  0  0  0
   19.0225   24.3260    5.0041 N   0  0  0  0  0  0  0  0  0  0  0  0
   19.1097   28.3762   -0.0948 C   0  0  2  0  0  0  0  0  0  0  0  0
   17.7111   28.1982   -3.4366 C   0  0  1  0  0  0  0  0  0  0  0  0
   18.3737   27.8255   -2.2423 O   0  0  0  0  0  0  0  0  0  0  0  0
   19.2761   25.0486    2.6199 C   0  0  1  0  0  0  0  0  0  0  0  0
   19.2287   23.5903    2.2991 O   0  0  0  0  0  0  0  0  0  0  0  0
   18.4588   28.8636   -1.3764 C   0  0  2  0  0  0  0  0  0  0  0  0
   17.3917   26.9497   -4.2225 C   0  0  1  0  0  0  0  0  0  0  0  0
   18.5938   26.2740   -4.5625 N   0  0  0  0  0  0  0  0  0  0  0  0
   18.7627   25.9281    1.4817 C   0  0  2  0  0  0  0  0  0  0  0  0
   19.5023   25.8268    0.2405 N   0  0  0  0  0  0  0  0  0  0  0  0
   19.4111   29.9241   -1.8617 C   0  0  1  0  0  0  0  0  0  0  0  0
   20.4191   29.3342   -2.6895 O   0  0  0  0  0  0  0  0  0  0  0  0
   16.5284   26.0551   -3.3489 C   0  0  2  0  0  0  0  0  0  0  0  0
   16.2077   24.8644   -4.0346 O   0  0  0  0  0  0  0  0  0  0  0  0
   18.8014   27.3608    1.9464 C   0  0  1  0  0  0  0  0  0  0  0  0
   18.1256   28.1109    0.8992 O   0  0  0  0  0  0  0  0  0  0  0  0
   20.0297   30.4549   -0.6215 C   0  0  1  0  0  0  0  0  0  0  0  0
   19.9987   29.4046    0.3475 O   0  0  0  0  0  0  0  0  0  0  0  0
   15.2582   26.8415   -3.0239 C   0  0  1  0  0  0  0  0  0  0  0  0
   14.3974   26.0703   -2.2004 O   0  0  0  0  0  0  0  0  0  0  0  0
   17.9306   27.5324    3.2202 C   0  0  2  0  0  0  0  0  0  0  0  0
   17.9694   28.8899    3.6323 O   0  0  0  0  0  0  0  0  0  0  0  0
   15.6463   28.1355   -2.3078 C   0  0  1  0  0  0  0  0  0  0  0  0
   16.5123   28.9090   -3.1368 O   0  0  0  0  0  0  0  0  0  0  0  0
   18.4879   26.6396    4.3456 C   0  0  1  0  0  0  0  0  0  0  0  0
   17.6946   26.7868    5.5293 O   0  0  0  0  0  0  0  0  0  0  0  0
   14.3788   28.9375   -2.0113 C   0  0  0  0  0  0  0  0  0  0  0  0
   14.7384   30.2655   -1.6656 O   0  0  0  0  0  0  0  0  0  0  0  0
   16.9238   23.8597    5.7581 N   0  0  0  0  0  0  0  0  0  0  0  0
   19.9343   23.9247   -0.5885 N   0  0  0  0  0  0  0  0  0  0  0  0
  1  2  1  0  0  0  0
  1 39  1  0  0  0  0
  3  4  1  0  0  0  0
  5  6  1  0  0  0  0
  5 40  1  0  0  0  0
  9 10  1  1  0  0  0
  9 14  1  0  0  0  0
  9 35  1  0  0  0  0
 10  1  1  0  0  0  0
 11 16  1  0  0  0  0
 11 28  1  0  0  0  0
 11 26  1  1  0  0  0
 12 17  1  0  0  0  0
 12 34  1  0  0  0  0
 12 13  1  1  0  0  0
 14 15  1  6  0  0  0
 14 19  1  0  0  0  0
 16 13  1  6  0  0  0
 16 21  1  0  0  0  0
 17 18  1  1  0  0  0
 17 23  1  0  0  0  0
 18  8  1  0  0  0  0
 19 20  1  6  0  0  0
 19 25  1  0  0  0  0
 20  5  1  0  0  0  0
 21  3  1  6  0  0  0
 21 22  1  0  0  0  0
 21 27  1  0  0  0  0
 23 24  1  6  0  0  0
 23 29  1  0  0  0  0
 25 26  1  6  0  0  0
 25 31  1  0  0  0  0
 27  7  1  6  0  0  0
 27 28  1  0  0  0  0
 29 30  1  1  0  0  0
 29 33  1  0  0  0  0
 31 32  1  1  0  0  0
 31 35  1  0  0  0  0
 33 34  1  0  0  0  0
 33 37  1  6  0  0  0
 35 36  1  1  0  0  0
 37 38  1  0  0  0  0
M  END
>  <CHROM.1>
-162.37333260,-135.40144848,166.68475166,-168.16367058,176.97876580,-159.82901580
82.31608299,60.47784951,60.09798577,-84.34150623,-165.29730038,18.07271999
27.17224871,-0.05961398,1.21508028,1.23712644,2.28718726

>  <Name>
1ntb_lig

>  <RI>
0

>  <Rbt.Current_Directory>
/home/itssahil/PROJECTS/Mol_Feturizer/New_Systems/rnas/1ntb

>  <Rbt.Executable>
rbdock ($Id: //depot/dev/client3/rdock/2013.1/src/exe/rbdock.cxx#4 $)

>  <Rbt.Library>
libRbt.so (2013.1, Build901 2013/11/27)

>  <Rbt.Parameter_File>
/export/apps/rDock/src/rDock_2013.1_src/data/scripts/dock_solv.prm

>  <Rbt.Receptor>
prm/blind_docking_80.prm

>  <SCORE>
-22.4843

>  <SCORE.INTER>
-16.5697

>  <SCORE.INTER.CONST>
1

>  <SCORE.INTER.POLAR>
-0.737373

>  <SCORE.INTER.ROT>
11

>  <SCORE.INTER.SOLV>
13.6982

>  <SCORE.INTER.VDW>
-24.088

>  <SCORE.INTER.norm>
-0.414242

>  <SCORE.INTRA>
-9.47343

>  <SCORE.INTRA.DIHEDRAL>
-8.23592

>  <SCORE.INTRA.DIHEDRAL.0>
15.4453

>  <SCORE.INTRA.POLAR>
0

>  <SCORE.INTRA.POLAR.0>
0

>  <SCORE.INTRA.REPUL>
-0.823958

>  <SCORE.INTRA.REPUL.0>
0.823958

>  <SCORE.INTRA.SOLV>
2.1678

>  <SCORE.INTRA.SOLV.lig_0>
-99.3069

>  <SCORE.INTRA.VDW>
-2.31958

>  <SCORE.INTRA.VDW.0>
0.946495

>  <SCORE.INTRA.norm>
-0.236836

>  <SCORE.RESTR>
3.55881

>  <SCORE.RESTR.CAVITY>
3.55881

>  <SCORE.RESTR.norm>
0.0889702

>  <SCORE.SYSTEM>
0

>  <SCORE.SYSTEM.CONST>
0

>  <SCORE.SYSTEM.DIHEDRAL>
0

>  <SCORE.SYSTEM.SOLV>
0

>  <SCORE.SYSTEM.norm>
0

>  <SCORE.heavy>
40

>  <SCORE.norm>
-0.562108

>  <RMSD>
18.115

$$$$
1ntb_lig
 OpenBabel11021811403D
libRbt.so/2013.1/901 2013/11/27
 40 42  0  0  0  0  0  0  0  0999 V2000
   18.6754   22.5980    4.0241 C   0  0  0  0  0  0  0  0  0  0  0  0
   18.4831   21.9826    5.1262 N   0  0  0  0  0  0  0  0  0  0  0  0
   18.8112   31.7531   -2.0533 C   0  0  0  0  0  0  0  0  0  0  0  0
   19.7658   32.7134   -2.4739 O   0  0  0  0  0  0  0  0  0  0  0  0
   19.4374   25.3357   -0.9494 C   0  0  0  0  0  0  0  0  0  0  0  0
   18.2486   25.0317   -1.3318 N   0  0  0  0  0  0  0  0  0  0  0  0
   21.6885   31.2156   -0.6348 C   0  0  0  0  0  0  0  0  0  0  0  0
   19.2558   26.6458   -3.9389 C   0  0  0  0  0  0  0  0  0  0  0  0
   18.7658   24.8268    3.2561 C   0  0  2  0  0  0  0  0  0  0  0  0
   19.3547   23.7254    4.1112 N   0  0  0  0  0  0  0  0  0  0  0  0
   19.2810   28.7330   -0.0057 C   0  0  2  0  0  0  0  0  0  0  0  0
   17.5657   29.1236   -3.1769 C   0  0  1  0  0  0  0  0  0  0  0  0
   18.3289   28.5507   -2.1311 O   0  0  0  0  0  0  0  0  0  0  0  0
   19.5410   24.9799    1.9520 C   0  0  1  0  0  0  0  0  0  0  0  0
   19.4655   23.6360    1.3040 O   0  0  0  0  0  0  0  0  0  0  0  0
   18.5500   29.4393   -1.1330 C   0  0  2  0  0  0  0  0  0  0  0  0
   17.2294   28.0446   -4.1775 C   0  0  1  0  0  0  0  0  0  0  0  0
   18.4242   27.5094   -4.7282 N   0  0  0  0  0  0  0  0  0  0  0  0
   19.0023   26.1017    1.0664 C   0  0  2  0  0  0  0  0  0  0  0  0
   19.7006   26.2876   -0.1888 N   0  0  0  0  0  0  0  0  0  0  0  0
   19.5167   30.5179   -1.5443 C   0  0  1  0  0  0  0  0  0  0  0  0
   20.4121   30.0172   -2.5427 O   0  0  0  0  0  0  0  0  0  0  0  0
   16.4650   26.9524   -3.4485 C   0  0  2  0  0  0  0  0  0  0  0  0
   16.1331   25.9098   -4.3392 O   0  0  0  0  0  0  0  0  0  0  0  0
   19.0734   27.3874    1.8488 C   0  0  1  0  0  0  0  0  0  0  0  0
   18.3738   28.3630    1.0272 O   0  0  0  0  0  0  0  0  0  0  0  0
   20.2715   30.8245   -0.3038 C   0  0  1  0  0  0  0  0  0  0  0  0
   20.2640   29.6408    0.4973 O   0  0  0  0  0  0  0  0  0  0  0  0
   15.1976   27.5957   -2.8851 C   0  0  1  0  0  0  0  0  0  0  0  0
   14.4277   26.6345   -2.1800 O   0  0  0  0  0  0  0  0  0  0  0  0
   18.2458   27.2629    3.1564 C   0  0  2  0  0  0  0  0  0  0  0  0
   18.3144   28.4877    3.8701 O   0  0  0  0  0  0  0  0  0  0  0  0
   15.5955   28.7366   -1.9481 C   0  0  1  0  0  0  0  0  0  0  0  0
   16.3701   29.7014   -2.6584 O   0  0  0  0  0  0  0  0  0  0  0  0
   18.8278   26.1310    4.0249 C   0  0  1  0  0  0  0  0  0  0  0  0
   18.0745   26.0033    5.2367 O   0  0  0  0  0  0  0  0  0  0  0  0
   14.3281   29.4010   -1.4096 C   0  0  0  0  0  0  0  0  0  0  0  0
   13.8350   28.6448   -0.3154 O   0  0  0  0  0  0  0  0  0  0  0  0
   18.2171   22.1648    2.9025 N   0  0  0  0  0  0  0  0  0  0  0  0
   20.3933   24.6227   -1.3024 N   0  0  0  0  0  0  0  0  0  0  0  0
  1  2  1  0  0  0  0
  1 39  1  0  0  0  0
  3  4  1  0  0  0  0
  5  6  1  0  0  0  0
  5 40  1  0  0  0  0
  9 10  1  1  0  0  0
  9 14  1  0  0  0  0
  9 35  1  0  0  0  0
 10  1  1  0  0  0  0
 11 16  1  0  0  0  0
 11 28  1  0  0  0  0
 11 26  1  1  0  0  0
 12 17  1  0  0  0  0
 12 34  1  0  0  0  0
 12 13  1  1  0  0  0
 14 15  1  6  0  0  0
 14 19  1  0  0  0  0
 16 13  1  6  0  0  0
 16 21  1  0  0  0  0
 17 18  1  1  0  0  0
 17 23  1  0  0  0  0
 18  8  1  0  0  0  0
 19 20  1  6  0  0  0
 19 25  1  0  0  0  0
 20  5  1  0  0  0  0
 21  3  1  6  0  0  0
 21 22  1  0  0  0  0
 21 27  1  0  0  0  0
 23 24  1  6  0  0  0
 23 29  1  0  0  0  0
 25 26  1  6  0  0  0
 25 31  1  0  0  0  0
 27  7  1  6  0  0  0
 27 28  1  0  0  0  0
 29 30  1  1  0  0  0
 29 33  1  0  0  0  0
 31 32  1  1  0  0  0
 31 35  1  0  0  0  0
 33 34  1  0  0  0  0
 33 37  1  6  0  0  0
 35 36  1  1  0  0  0
 37 38  1  0  0  0  0
M  END
>  <CHROM.1>
-100.25207219,-137.48100612,164.24903459,-173.88007877,175.87320435,73.34925361
71.35893399,59.16435843,-177.75204511,-77.81236953,82.15235141,18.28268334
27.36747132,-0.22861749,1.38411534,0.92279362,2.42126748

>  <Name>
1ntb_lig

>  <RI>
0

>  <Rbt.Current_Directory>
/home/itssahil/PROJECTS/Mol_Feturizer/New_Systems/rnas/1ntb

>  <Rbt.Executable>
rbdock ($Id: //depot/dev/client3/rdock/2013.1/src/exe/rbdock.cxx#4 $)

>  <Rbt.Library>
libRbt.so (2013.1, Build901 2013/11/27)

>  <Rbt.Parameter_File>
/export/apps/rDock/src/rDock_2013.1_src/data/scripts/dock_solv.prm

>  <Rbt.Receptor>
prm/blind_docking_40.prm

>  <SCORE>
-19.2839

>  <SCORE.INTER>
-15.2376

>  <SCORE.INTER.CONST>
1

>  <SCORE.INTER.POLAR>
-0.44584

>  <SCORE.INTER.ROT>
11

>  <SCORE.INTER.SOLV>
15.138

>  <SCORE.INTER.VDW>
-24.6516

>  <SCORE.INTER.norm>
-0.380941

>  <SCORE.INTRA>
-4.81448

>  <SCORE.INTRA.DIHEDRAL>
-8.29762

>  <SCORE.INTRA.DIHEDRAL.0>
15.4453

>  <SCORE.INTRA.POLAR>
0

>  <SCORE.INTRA.POLAR.0>
0

>  <SCORE.INTRA.REPUL>
-0.823958

>  <SCORE.INTRA.REPUL.0>
0.823958

>  <SCORE.INTRA.SOLV>
2.6695

>  <SCORE.INTRA.SOLV.lig_0>
-99.3069

>  <SCORE.INTRA.VDW>
2.11936

>  <SCORE.INTRA.VDW.0>
0.946495

>  <SCORE.INTRA.norm>
-0.120362

>  <SCORE.RESTR>
0.768215

>  <SCORE.RESTR.CAVITY>
0.768215

>  <SCORE.RESTR.norm>
0.0192054

>  <SCORE.SYSTEM>
0

>  <SCORE.SYSTEM.CONST>
0

>  <SCORE.SYSTEM.DIHEDRAL>
0

>  <SCORE.SYSTEM.SOLV>
0

>  <SCORE.SYSTEM.norm>
0

>  <SCORE.heavy>
40

>  <SCORE.norm>
-0.482097

>  <RMSD>
18.126

$$$$
1ntb_lig
 OpenBabel11021811403D
libRbt.so/2013.1/901 2013/11/27
 40 42  0  0  0  0  0  0  0  0999 V2000
   17.1926   26.2371    5.9507 C   0  0  0  0  0  0  0  0  0  0  0  0
   16.4170   25.2563    5.6928 N   0  0  0  0  0  0  0  0  0  0  0  0
   19.9645   26.1873   -3.9931 C   0  0  0  0  0  0  0  0  0  0  0  0
   20.1608   25.1783   -4.9697 O   0  0  0  0  0  0  0  0  0  0  0  0
   20.3831   29.4162    1.7333 C   0  0  0  0  0  0  0  0  0  0  0  0
   21.3841   28.7597    1.2652 N   0  0  0  0  0  0  0  0  0  0  0  0
   20.0312   23.2382   -2.6225 C   0  0  0  0  0  0  0  0  0  0  0  0
   20.6718   29.8414   -1.5112 C   0  0  0  0  0  0  0  0  0  0  0  0
   19.1810   26.0886    4.6899 C   0  0  2  0  0  0  0  0  0  0  0  0
   18.4771   25.9453    6.0221 N   0  0  0  0  0  0  0  0  0  0  0  0
   19.2259   25.8443   -0.4054 C   0  0  2  0  0  0  0  0  0  0  0  0
   17.6848   28.3654   -1.1415 C   0  0  1  0  0  0  0  0  0  0  0  0
   17.7981   27.0988   -1.7637 O   0  0  0  0  0  0  0  0  0  0  0  0
   18.8800   27.4420    4.0553 C   0  0  1  0  0  0  0  0  0  0  0  0
   19.3339   28.4454    5.0648 O   0  0  0  0  0  0  0  0  0  0  0  0
   19.0651   26.6243   -1.6976 C   0  0  2  0  0  0  0  0  0  0  0  0
   18.2964   29.4061   -2.0478 C   0  0  1  0  0  0  0  0  0  0  0  0
   19.6732   29.1206   -2.2484 N   0  0  0  0  0  0  0  0  0  0  0  0
   19.5449   27.6225    2.6923 C   0  0  2  0  0  0  0  0  0  0  0  0
   19.2951   28.8945    2.0463 N   0  0  0  0  0  0  0  0  0  0  0  0
   19.3338   25.5890   -2.7574 C   0  0  1  0  0  0  0  0  0  0  0  0
   18.1184   24.9163   -3.1030 O   0  0  0  0  0  0  0  0  0  0  0  0
   17.5622   29.3582   -3.3772 C   0  0  2  0  0  0  0  0  0  0  0  0
   18.1029   30.3085   -4.2690 O   0  0  0  0  0  0  0  0  0  0  0  0
   19.0568   26.5217    1.7867 C   0  0  1  0  0  0  0  0  0  0  0  0
   19.8682   26.6401    0.5851 O   0  0  0  0  0  0  0  0  0  0  0  0
   20.2665   24.6347   -2.1080 C   0  0  1  0  0  0  0  0  0  0  0  0
   20.0130   24.6886   -0.7022 O   0  0  0  0  0  0  0  0  0  0  0  0
   16.0947   29.6739   -3.0874 C   0  0  1  0  0  0  0  0  0  0  0  0
   15.3368   29.6423   -4.2867 O   0  0  0  0  0  0  0  0  0  0  0  0
   19.4021   25.1364    2.3965 C   0  0  2  0  0  0  0  0  0  0  0  0
   18.9470   24.1153    1.5222 O   0  0  0  0  0  0  0  0  0  0  0  0
   15.5519   28.6421   -2.0982 C   0  0  1  0  0  0  0  0  0  0  0  0
   16.3155   28.6748   -0.8936 O   0  0  0  0  0  0  0  0  0  0  0  0
   18.7037   24.9898    3.7622 C   0  0  1  0  0  0  0  0  0  0  0  0
   19.0124   23.7152    4.3387 O   0  0  0  0  0  0  0  0  0  0  0  0
   14.0936   28.9764   -1.7832 C   0  0  0  0  0  0  0  0  0  0  0  0
   13.3122   28.8004   -2.9540 O   0  0  0  0  0  0  0  0  0  0  0  0
   16.7535   27.4294    6.1540 N   0  0  0  0  0  0  0  0  0  0  0  0
   20.4985   30.6363    1.9451 N   0  0  0  0  0  0  0  0  0  0  0  0
  1  2  1  0  0  0  0
  1 39  1  0  0  0  0
  3  4  1  0  0  0  0
  5  6  1  0  0  0  0
  5 40  1  0  0  0  0
  9 10  1  1  0  0  0
  9 14  1  0  0  0  0
  9 35  1  0  0  0  0
 10  1  1  0  0  0  0
 11 16  1  0  0  0  0
 11 28  1  0  0  0  0
 11 26  1  1  0  0  0
 12 17  1  0  0  0  0
 12 34  1  0  0  0  0
 12 13  1  6  0  0  0
 14 15  1  1  0  0  0
 14 19  1  0  0  0  0
 16 13  1  6  0  0  0
 16 21  1  0  0  0  0
 17 18  1  6  0  0  0
 17 23  1  0  0  0  0
 18  8  1  0  0  0  0
 19 20  1  6  0  0  0
 19 25  1  0  0  0  0
 20  5  1  0  0  0  0
 21  3  1  6  0  0  0
 21 22  1  0  0  0  0
 21 27  1  0  0  0  0
 23 24  1  6  0  0  0
 23 29  1  0  0  0  0
 25 26  1  6  0  0  0
 25 31  1  0  0  0  0
 27  7  1  6  0  0  0
 27 28  1  0  0  0  0
 29 30  1  6  0  0  0
 29 33  1  0  0  0  0
 31 32  1  6  0  0  0
 31 35  1  0  0  0  0
 33 34  1  0  0  0  0
 33 37  1  1  0  0  0
 35 36  1  1  0  0  0
 37 38  1  0  0  0  0
M  END
>  <CHROM.1>
50.44318896,90.76926404,130.85256962,75.16046560,88.46503820,-100.60874692
126.93352874,39.62368124,-178.37586925,-166.13167308,66.16050605,18.45906041
27.18975695,0.13685950,1.35132191,-0.94580219,1.61100710

>  <Name>
1ntb_lig

>  <RI>
0

>  <Rbt.Current_Directory>
/home/itssahil/PROJECTS/Mol_Feturizer/New_Systems/rnas/1ntb

>  <Rbt.Executable>
rbdock ($Id: //depot/dev/client3/rdock/2013.1/src/exe/rbdock.cxx#4 $)

>  <Rbt.Library>
libRbt.so (2013.1, Build901 2013/11/27)

>  <Rbt.Parameter_File>
/export/apps/rDock/src/rDock_2013.1_src/data/scripts/dock_solv.prm

>  <Rbt.Receptor>
prm/blind_docking_40.prm

>  <SCORE>
-21.9598

>  <SCORE.INTER>
-19.2379

>  <SCORE.INTER.CONST>
1

>  <SCORE.INTER.POLAR>
-2.8458

>  <SCORE.INTER.ROT>
11

>  <SCORE.INTER.SOLV>
18.0865

>  <SCORE.INTER.VDW>
-20.3015

>  <SCORE.INTER.norm>
-0.480949

>  <SCORE.INTRA>
-3.44847

>  <SCORE.INTRA.DIHEDRAL>
0.158326

>  <SCORE.INTRA.DIHEDRAL.0>
15.4453

>  <SCORE.INTRA.POLAR>
0

>  <SCORE.INTRA.POLAR.0>
0

>  <SCORE.INTRA.REPUL>
-0.823958

>  <SCORE.INTRA.REPUL.0>
0.823958

>  <SCORE.INTRA.SOLV>
3.3935

>  <SCORE.INTRA.SOLV.lig_0>
-99.3069

>  <SCORE.INTRA.VDW>
-1.1046

>  <SCORE.INTRA.VDW.0>
0.946495

>  <SCORE.INTRA.norm>
-0.0862118

>  <SCORE.RESTR>
0.726619

>  <SCORE.RESTR.CAVITY>
0.726619

>  <SCORE.RESTR.norm>
0.0181655

>  <SCORE.SYSTEM>
0

>  <SCORE.SYSTEM.CONST>
0

>  <SCORE.SYSTEM.DIHEDRAL>
0

>  <SCORE.SYSTEM.SOLV>
0

>  <SCORE.SYSTEM.norm>
0

>  <SCORE.heavy>
40

>  <SCORE.norm>
-0.548995

>  <RMSD>
18.150

$$$$
1ntb_lig
 OpenBabel11021811403D
libRbt.so/2013.1/901 2013/11/27
 40 42  0  0  0  0  0  0  0  0999 V2000
   17.7154   28.2553    6.0558 C   0  0  0  0  0  0  0  0  0  0  0  0
   16.9115   29.2472    6.0539 N   0  0  0  0  0  0  0  0  0  0  0  0
   20.5891   25.8789   -3.5009 C   0  0  0  0  0  0  0  0  0  0  0  0
   19.5122   25.8326   -4.4220 O   0  0  0  0  0  0  0  0  0  0  0  0
   19.9570   30.5673    0.9241 C   0  0  0  0  0  0  0  0  0  0  0  0
   21.2352   30.5314    1.0551 N   0  0  0  0  0  0  0  0  0  0  0  0
   21.1562   23.3399   -1.5485 C   0  0  0  0  0  0  0  0  0  0  0  0
   14.6628   25.3996   -2.4804 C   0  0  0  0  0  0  0  0  0  0  0  0
   19.7400   28.3483    4.8484 C   0  0  2  0  0  0  0  0  0  0  0  0
   18.9958   28.5587    6.1494 N   0  0  0  0  0  0  0  0  0  0  0  0
   20.0501   26.2283    0.1215 C   0  0  2  0  0  0  0  0  0  0  0  0
   17.9806   27.1344   -2.7058 C   0  0  1  0  0  0  0  0  0  0  0  0
   18.3969   26.9428   -1.3663 O   0  0  0  0  0  0  0  0  0  0  0  0
   19.0822   29.1221    3.7110 C   0  0  1  0  0  0  0  0  0  0  0  0
   19.0914   30.5458    4.1637 O   0  0  0  0  0  0  0  0  0  0  0  0
   19.7229   26.6765   -1.2913 C   0  0  2  0  0  0  0  0  0  0  0  0
   16.4738   27.0615   -2.7592 C   0  0  1  0  0  0  0  0  0  0  0  0
   16.0382   25.7805   -2.3274 N   0  0  0  0  0  0  0  0  0  0  0  0
   19.7807   28.9172    2.3683 C   0  0  2  0  0  0  0  0  0  0  0  0
   19.1984   29.6344    1.2529 N   0  0  0  0  0  0  0  0  0  0  0  0
   20.1048   25.4828   -2.1257 C   0  0  1  0  0  0  0  0  0  0  0  0
   18.9934   24.5873   -2.2354 O   0  0  0  0  0  0  0  0  0  0  0  0
   15.9207   28.1318   -1.8335 C   0  0  2  0  0  0  0  0  0  0  0  0
   14.5101   28.1010   -1.8381 O   0  0  0  0  0  0  0  0  0  0  0  0
   19.7607   27.4440    2.0531 C   0  0  1  0  0  0  0  0  0  0  0  0
   20.6017   27.3033    0.8745 O   0  0  0  0  0  0  0  0  0  0  0  0
   21.1961   24.8339   -1.3573 C   0  0  1  0  0  0  0  0  0  0  0  0
   20.9918   25.1577    0.0199 O   0  0  0  0  0  0  0  0  0  0  0  0
   16.4260   29.4770   -2.3555 C   0  0  1  0  0  0  0  0  0  0  0  0
   15.9538   30.5340   -1.5347 O   0  0  0  0  0  0  0  0  0  0  0  0
   20.4727   26.6474    3.1795 C   0  0  2  0  0  0  0  0  0  0  0  0
   20.4552   25.2656    2.8563 O   0  0  0  0  0  0  0  0  0  0  0  0
   17.9549   29.4631   -2.3624 C   0  0  1  0  0  0  0  0  0  0  0  0
   18.4277   28.3995   -3.1874 O   0  0  0  0  0  0  0  0  0  0  0  0
   19.7316   26.8710    4.5118 C   0  0  1  0  0  0  0  0  0  0  0  0
   20.3769   26.1417    5.5625 O   0  0  0  0  0  0  0  0  0  0  0  0
   18.4605   30.7961   -2.9147 C   0  0  0  0  0  0  0  0  0  0  0  0
   17.9759   30.9661   -4.2371 O   0  0  0  0  0  0  0  0  0  0  0  0
   17.3108   27.0385    5.9481 N   0  0  0  0  0  0  0  0  0  0  0  0
   19.4161   31.6019    0.4957 N   0  0  0  0  0  0  0  0  0  0  0  0
  1  2  1  0  0  0  0
  1 39  1  0  0  0  0
  3  4  1  0  0  0  0
  5  6  1  0  0  0  0
  5 40  1  0  0  0  0
  9 10  1  1  0  0  0
  9 14  1  0  0  0  0
  9 35  1  0  0  0  0
 10  1  1  0  0  0  0
 11 16  1  0  0  0  0
 11 28  1  0  0  0  0
 11 26  1  1  0  0  0
 12 17  1  0  0  0  0
 12 34  1  0  0  0  0
 12 13  1  1  0  0  0
 14 15  1  1  0  0  0
 14 19  1  0  0  0  0
 16 13  1  1  0  0  0
 16 21  1  0  0  0  0
 17 18  1  1  0  0  0
 17 23  1  0  0  0  0
 18  8  1  0  0  0  0
 19 20  1  6  0  0  0
 19 25  1  0  0  0  0
 20  5  1  0  0  0  0
 21  3  1  6  0  0  0
 21 22  1  0  0  0  0
 21 27  1  0  0  0  0
 23 24  1  6  0  0  0
 23 29  1  0  0  0  0
 25 26  1  6  0  0  0
 25 31  1  0  0  0  0
 27  7  1  1  0  0  0
 27 28  1  0  0  0  0
 29 30  1  1  0  0  0
 29 33  1  0  0  0  0
 31 32  1  6  0  0  0
 31 35  1  0  0  0  0
 33 34  1  0  0  0  0
 33 37  1  6  0  0  0
 35 36  1  1  0  0  0
 37 38  1  0  0  0  0
M  END
>  <CHROM.1>
55.13559405,-107.48218460,124.02540746,165.22306089,-169.48883353,-170.58695134
108.38602986,30.50153207,-94.28124655,-147.47367803,-60.13648855,18.77265806
27.68922044,0.29899497,1.26298379,-1.00528309,1.19633163

>  <Name>
1ntb_lig

>  <RI>
0

>  <Rbt.Current_Directory>
/home/itssahil/PROJECTS/Mol_Feturizer/New_Systems/rnas/1ntb

>  <Rbt.Executable>
rbdock ($Id: //depot/dev/client3/rdock/2013.1/src/exe/rbdock.cxx#4 $)

>  <Rbt.Library>
libRbt.so (2013.1, Build901 2013/11/27)

>  <Rbt.Parameter_File>
/export/apps/rDock/src/rDock_2013.1_src/data/scripts/dock_solv.prm

>  <Rbt.Receptor>
prm/blind_docking_40.prm

>  <SCORE>
-9.08846

>  <SCORE.INTER>
-6.90293

>  <SCORE.INTER.CONST>
1

>  <SCORE.INTER.POLAR>
-1.32365

>  <SCORE.INTER.ROT>
11

>  <SCORE.INTER.SOLV>
15.3181

>  <SCORE.INTER.VDW>
-16.2292

>  <SCORE.INTER.norm>
-0.172573

>  <SCORE.INTRA>
-2.19145

>  <SCORE.INTRA.DIHEDRAL>
2.43219

>  <SCORE.INTRA.DIHEDRAL.0>
15.4453

>  <SCORE.INTRA.POLAR>
0

>  <SCORE.INTRA.POLAR.0>
0

>  <SCORE.INTRA.REPUL>
-0.823958

>  <SCORE.INTRA.REPUL.0>
0.823958

>  <SCORE.INTRA.SOLV>
1.70902

>  <SCORE.INTRA.SOLV.lig_0>
-99.3069

>  <SCORE.INTRA.VDW>
-0.142268

>  <SCORE.INTRA.VDW.0>
0.946495

>  <SCORE.INTRA.norm>
-0.0547863

>  <SCORE.RESTR>
0.00591704

>  <SCORE.RESTR.CAVITY>
0.00591704

>  <SCORE.RESTR.norm>
0.000147926

>  <SCORE.SYSTEM>
0

>  <SCORE.SYSTEM.CONST>
0

>  <SCORE.SYSTEM.DIHEDRAL>
0

>  <SCORE.SYSTEM.SOLV>
0

>  <SCORE.SYSTEM.norm>
0

>  <SCORE.heavy>
40

>  <SCORE.norm>
-0.227212

>  <RMSD>
18.162

$$$$
1ntb_lig
 OpenBabel11021811403D
libRbt.so/2013.1/901 2013/11/27
 40 42  0  0  0  0  0  0  0  0999 V2000
   19.1488   28.6275    7.2757 C   0  0  0  0  0  0  0  0  0  0  0  0
   19.0097   27.5858    8.0007 N   0  0  0  0  0  0  0  0  0  0  0  0
   19.7439   24.3076   -2.8454 C   0  0  0  0  0  0  0  0  0  0  0  0
   19.5106   22.9993   -3.3396 O   0  0  0  0  0  0  0  0  0  0  0  0
   20.3413   29.7575    0.8624 C   0  0  0  0  0  0  0  0  0  0  0  0
   20.8577   30.9291    0.9755 N   0  0  0  0  0  0  0  0  0  0  0  0
   18.5987   22.4278   -0.4506 C   0  0  0  0  0  0  0  0  0  0  0  0
   16.4898   24.7323   -4.9175 C   0  0  0  0  0  0  0  0  0  0  0  0
   19.0353   28.1655    4.9650 C   0  0  2  0  0  0  0  0  0  0  0  0
   18.3663   28.6936    6.2158 N   0  0  0  0  0  0  0  0  0  0  0  0
   18.7691   25.8460    0.3511 C   0  0  2  0  0  0  0  0  0  0  0  0
   18.2500   27.0915   -3.0102 C   0  0  1  0  0  0  0  0  0  0  0  0
   18.0031   26.7665   -1.6546 O   0  0  0  0  0  0  0  0  0  0  0  0
   18.7942   29.0963    3.7816 C   0  0  1  0  0  0  0  0  0  0  0  0
   19.3374   30.4174    4.2192 O   0  0  0  0  0  0  0  0  0  0  0  0
   18.9821   25.9808   -1.1457 C   0  0  2  0  0  0  0  0  0  0  0  0
   16.9789   26.8830   -3.7971 C   0  0  1  0  0  0  0  0  0  0  0  0
   16.5841   25.5207   -3.7217 N   0  0  0  0  0  0  0  0  0  0  0  0
   19.4255   28.5898    2.4864 C   0  0  2  0  0  0  0  0  0  0  0  0
   19.2303   29.4398    1.3300 N   0  0  0  0  0  0  0  0  0  0  0  0
   18.8753   24.5610   -1.6354 C   0  0  1  0  0  0  0  0  0  0  0  0
   17.5111   24.2488   -1.9361 O   0  0  0  0  0  0  0  0  0  0  0  0
   15.9018   27.7649   -3.1882 C   0  0  2  0  0  0  0  0  0  0  0  0
   14.6847   27.6005   -3.8827 O   0  0  0  0  0  0  0  0  0  0  0  0
   18.8457   27.2320    2.1857 C   0  0  1  0  0  0  0  0  0  0  0  0
   19.6245   26.7344    1.0623 O   0  0  0  0  0  0  0  0  0  0  0  0
   19.3343   23.7424   -0.4857 C   0  0  1  0  0  0  0  0  0  0  0  0
   19.0584   24.4904    0.7007 O   0  0  0  0  0  0  0  0  0  0  0  0
   16.3904   29.2089   -3.3036 C   0  0  1  0  0  0  0  0  0  0  0  0
   15.4355   30.0991   -2.7474 O   0  0  0  0  0  0  0  0  0  0  0  0
   19.1283   26.2587    3.3618 C   0  0  2  0  0  0  0  0  0  0  0  0
   18.5871   24.9837    3.0524 O   0  0  0  0  0  0  0  0  0  0  0  0
   17.7223   29.3419   -2.5644 C   0  0  1  0  0  0  0  0  0  0  0  0
   18.6807   28.4457   -3.1243 O   0  0  0  0  0  0  0  0  0  0  0  0
   18.4657   26.7987    4.6438 C   0  0  1  0  0  0  0  0  0  0  0  0
   18.7173   25.9108    5.7395 O   0  0  0  0  0  0  0  0  0  0  0  0
   18.2273   30.7779   -2.7068 C   0  0  0  0  0  0  0  0  0  0  0  0
   18.2015   31.1469   -4.0763 O   0  0  0  0  0  0  0  0  0  0  0  0
   20.0119   29.5439    7.5423 N   0  0  0  0  0  0  0  0  0  0  0  0
   20.9411   28.8866    0.2078 N   0  0  0  0  0  0  0  0  0  0  0  0
  1  2  1  0  0  0  0
  1 39  1  0  0  0  0
  3  4  1  0  0  0  0
  5  6  1  0  0  0  0
  5 40  1  0  0  0  0
  9 10  1  1  0  0  0
  9 14  1  0  0  0  0
  9 35  1  0  0  0  0
 10  1  1  0  0  0  0
 11 16  1  0  0  0  0
 11 28  1  0  0  0  0
 11 26  1  1  0  0  0
 12 17  1  0  0  0  0
 12 34  1  0  0  0  0
 12 13  1  1  0  0  0
 14 15  1  1  0  0  0
 14 19  1  0  0  0  0
 16 13  1  6  0  0  0
 16 21  1  0  0  0  0
 17 18  1  1  0  0  0
 17 23  1  0  0  0  0
 18  8  1  0  0  0  0
 19 20  1  6  0  0  0
 19 25  1  0  0  0  0
 20  5  1  0  0  0  0
 21  3  1  6  0  0  0
 21 22  1  0  0  0  0
 21 27  1  0  0  0  0
 23 24  1  6  0  0  0
 23 29  1  0  0  0  0
 25 26  1  6  0  0  0
 25 31  1  0  0  0  0
 27  7  1  1  0  0  0
 27 28  1  0  0  0  0
 29 30  1  1  0  0  0
 29 33  1  0  0  0  0
 31 32  1  6  0  0  0
 31 35  1  0  0  0  0
 33 34  1  0  0  0  0
 33 37  1  6  0  0  0
 35 36  1  1  0  0  0
 37 38  1  0  0  0  0
M  END
>  <CHROM.1>
-135.07680877,-94.58524857,141.99631378,133.52257615,171.49709478,-119.07691080
122.71461124,-106.84137371,-174.50320433,-152.28622921,-50.65785295,18.47492575
27.26778563,0.30871861,0.40968654,-1.34885223,0.25287314

>  <Name>
1ntb_lig

>  <RI>
0

>  <Rbt.Current_Directory>
/home/itssahil/PROJECTS/Mol_Feturizer/New_Systems/rnas/1ntb

>  <Rbt.Executable>
rbdock ($Id: //depot/dev/client3/rdock/2013.1/src/exe/rbdock.cxx#4 $)

>  <Rbt.Library>
libRbt.so (2013.1, Build901 2013/11/27)

>  <Rbt.Parameter_File>
/export/apps/rDock/src/rDock_2013.1_src/data/scripts/dock_solv.prm

>  <Rbt.Receptor>
prm/blind_docking_40.prm

>  <SCORE>
-26.5788

>  <SCORE.INTER>
-20.8625

>  <SCORE.INTER.CONST>
1

>  <SCORE.INTER.POLAR>
-2.73318

>  <SCORE.INTER.ROT>
11

>  <SCORE.INTER.SOLV>
11.7428

>  <SCORE.INTER.VDW>
-19.6453

>  <SCORE.INTER.norm>
-0.521562

>  <SCORE.INTRA>
-6.38984

>  <SCORE.INTRA.DIHEDRAL>
4.55188

>  <SCORE.INTRA.DIHEDRAL.0>
15.4453

>  <SCORE.INTRA.POLAR>
0

>  <SCORE.INTRA.POLAR.0>
0

>  <SCORE.INTRA.REPUL>
-0.823958

>  <SCORE.INTRA.REPUL.0>
0.823958

>  <SCORE.INTRA.SOLV>
0.560696

>  <SCORE.INTRA.SOLV.lig_0>
-99.3069

>  <SCORE.INTRA.VDW>
-4.82634

>  <SCORE.INTRA.VDW.0>
0.946495

>  <SCORE.INTRA.norm>
-0.159746

>  <SCORE.RESTR>
0.673503

>  <SCORE.RESTR.CAVITY>
0.673503

>  <SCORE.RESTR.norm>
0.0168376

>  <SCORE.SYSTEM>
0

>  <SCORE.SYSTEM.CONST>
0

>  <SCORE.SYSTEM.DIHEDRAL>
0

>  <SCORE.SYSTEM.SOLV>
0

>  <SCORE.SYSTEM.norm>
0

>  <SCORE.heavy>
40

>  <SCORE.norm>
-0.664471

>  <RMSD>
18.165

$$$$
1ntb_lig
 OpenBabel11021811403D
libRbt.so/2013.1/901 2013/11/27
 40 42  0  0  0  0  0  0  0  0999 V2000
   18.2891   34.7114   -2.3862 C   0  0  0  0  0  0  0  0  0  0  0  0
   17.3035   35.2967   -2.9484 N   0  0  0  0  0  0  0  0  0  0  0  0
   15.5789   25.3338   -2.5596 C   0  0  0  0  0  0  0  0  0  0  0  0
   14.6651   26.0485   -1.7444 O   0  0  0  0  0  0  0  0  0  0  0  0
   21.5119   30.3438   -0.3356 C   0  0  0  0  0  0  0  0  0  0  0  0
   21.4079   29.9195    0.8732 N   0  0  0  0  0  0  0  0  0  0  0  0
   15.7232   27.5638   -4.9232 C   0  0  0  0  0  0  0  0  0  0  0  0
   19.0627   21.8095   -2.0806 C   0  0  0  0  0  0  0  0  0  0  0  0
   18.1193   33.0005   -0.7707 C   0  0  2  0  0  0  0  0  0  0  0  0
   18.1533   34.4786   -1.0949 N   0  0  0  0  0  0  0  0  0  0  0  0
   18.0794   28.0247   -2.3558 C   0  0  2  0  0  0  0  0  0  0  0  0
   18.7837   24.9605   -0.8807 C   0  0  1  0  0  0  0  0  0  0  0  0
   18.7363   25.8093   -2.0127 O   0  0  0  0  0  0  0  0  0  0  0  0
   19.4310   32.3259   -1.1570 C   0  0  1  0  0  0  0  0  0  0  0  0
   20.4796   33.0659   -0.3924 O   0  0  0  0  0  0  0  0  0  0  0  0
   17.6498   26.6176   -1.9826 C   0  0  2  0  0  0  0  0  0  0  0  0
   19.8665   23.9305   -1.0933 C   0  0  1  0  0  0  0  0  0  0  0  0
   19.5655   23.1447   -2.2375 N   0  0  0  0  0  0  0  0  0  0  0  0
   19.4345   30.8245   -0.8767 C   0  0  2  0  0  0  0  0  0  0  0  0
   20.6602   30.1342   -1.2214 N   0  0  0  0  0  0  0  0  0  0  0  0
   16.6577   26.2662   -3.0594 C   0  0  1  0  0  0  0  0  0  0  0  0
   17.3350   25.6799   -4.1759 O   0  0  0  0  0  0  0  0  0  0  0  0
   21.1780   24.6677   -1.3063 C   0  0  2  0  0  0  0  0  0  0  0  0
   22.2265   23.7483   -1.5207 O   0  0  0  0  0  0  0  0  0  0  0  0
   18.3013   30.2036   -1.6515 C   0  0  1  0  0  0  0  0  0  0  0  0
   18.2453   28.8251   -1.1902 O   0  0  0  0  0  0  0  0  0  0  0  0
   16.0733   27.5709   -3.4576 C   0  0  1  0  0  0  0  0  0  0  0  0
   17.0588   28.5721   -3.1938 O   0  0  0  0  0  0  0  0  0  0  0  0
   21.4384   25.4879   -0.0427 C   0  0  1  0  0  0  0  0  0  0  0  0
   22.6508   26.2148   -0.1671 O   0  0  0  0  0  0  0  0  0  0  0  0
   16.9520   30.8463   -1.2311 C   0  0  2  0  0  0  0  0  0  0  0  0
   15.8980   30.2381   -1.9614 O   0  0  0  0  0  0  0  0  0  0  0  0
   20.2706   26.4512    0.1721 C   0  0  1  0  0  0  0  0  0  0  0  0
   19.0526   25.7188    0.2962 O   0  0  0  0  0  0  0  0  0  0  0  0
   16.9852   32.3553   -1.5410 C   0  0  1  0  0  0  0  0  0  0  0  0
   15.7459   32.9638   -1.1587 O   0  0  0  0  0  0  0  0  0  0  0  0
   20.5151   27.2490    1.4533 C   0  0  0  0  0  0  0  0  0  0  0  0
   19.3770   28.0505    1.7270 O   0  0  0  0  0  0  0  0  0  0  0  0
   19.3579   34.3902   -3.0267 N   0  0  0  0  0  0  0  0  0  0  0  0
   22.4841   31.0517   -0.6525 N   0  0  0  0  0  0  0  0  0  0  0  0
  1  2  1  0  0  0  0
  1 39  1  0  0  0  0
  3  4  1  0  0  0  0
  5  6  1  0  0  0  0
  5 40  1  0  0  0  0
  9 10  1  6  0  0  0
  9 14  1  0  0  0  0
  9 35  1  0  0  0  0
 10  1  1  0  0  0  0
 11 16  1  0  0  0  0
 11 28  1  0  0  0  0
 11 26  1  1  0  0  0
 12 17  1  0  0  0  0
 12 34  1  0  0  0  0
 12 13  1  6  0  0  0
 14 15  1  1  0  0  0
 14 19  1  0  0  0  0
 16 13  1  6  0  0  0
 16 21  1  0  0  0  0
 17 18  1  6  0  0  0
 17 23  1  0  0  0  0
 18  8  1  0  0  0  0
 19 20  1  6  0  0  0
 19 25  1  0  0  0  0
 20  5  1  0  0  0  0
 21  3  1  1  0  0  0
 21 22  1  0  0  0  0
 21 27  1  0  0  0  0
 23 24  1  1  0  0  0
 23 29  1  0  0  0  0
 25 26  1  1  0  0  0
 25 31  1  0  0  0  0
 27  7  1  6  0  0  0
 27 28  1  0  0  0  0
 29 30  1  6  0  0  0
 29 33  1  0  0  0  0
 31 32  1  6  0  0  0
 31 35  1  0  0  0  0
 33 34  1  0  0  0  0
 33 37  1  1  0  0  0
 35 36  1  1  0  0  0
 37 38  1  0  0  0  0
M  END
>  <CHROM.1>
62.62959240,115.50666325,-165.27451754,170.11124930,135.20947694,-104.09813345
78.26584853,66.04056424,74.52939189,-136.11229607,-174.42505943,18.74342947
28.55412063,-1.44579032,1.70687841,-0.49686297,0.05575634

>  <Name>
1ntb_lig

>  <RI>
0

>  <Rbt.Current_Directory>
/home/itssahil/PROJECTS/Mol_Feturizer/New_Systems/rnas/1ntb

>  <Rbt.Executable>
rbdock ($Id: //depot/dev/client3/rdock/2013.1/src/exe/rbdock.cxx#4 $)

>  <Rbt.Library>
libRbt.so (2013.1, Build901 2013/11/27)

>  <Rbt.Parameter_File>
/export/apps/rDock/src/rDock_2013.1_src/data/scripts/dock_solv.prm

>  <Rbt.Receptor>
prm/blind_docking_60.prm

>  <SCORE>
11.5519

>  <SCORE.INTER>
15.9769

>  <SCORE.INTER.CONST>
1

>  <SCORE.INTER.POLAR>
0

>  <SCORE.INTER.ROT>
11

>  <SCORE.INTER.SOLV>
23.1368

>  <SCORE.INTER.VDW>
-7.99434

>  <SCORE.INTER.norm>
0.399422

>  <SCORE.INTRA>
-4.42497

>  <SCORE.INTRA.DIHEDRAL>
1.52115

>  <SCORE.INTRA.DIHEDRAL.0>
15.4453

>  <SCORE.INTRA.POLAR>
0

>  <SCORE.INTRA.POLAR.0>
0

>  <SCORE.INTRA.REPUL>
-0.823958

>  <SCORE.INTRA.REPUL.0>
0.823958

>  <SCORE.INTRA.SOLV>
3.27494

>  <SCORE.INTRA.SOLV.lig_0>
-99.3069

>  <SCORE.INTRA.VDW>
-2.70323

>  <SCORE.INTRA.VDW.0>
0.946495

>  <SCORE.INTRA.norm>
-0.110624

>  <SCORE.RESTR>
0

>  <SCORE.RESTR.CAVITY>
0

>  <SCORE.RESTR.norm>
0

>  <SCORE.SYSTEM>
0

>  <SCORE.SYSTEM.CONST>
0

>  <SCORE.SYSTEM.DIHEDRAL>
0

>  <SCORE.SYSTEM.SOLV>
0

>  <SCORE.SYSTEM.norm>
0

>  <SCORE.heavy>
40

>  <SCORE.norm>
0.288798

>  <RMSD>
18.168

$$$$
1ntb_lig
 OpenBabel11021811403D
libRbt.so/2013.1/901 2013/11/27
 40 42  0  0  0  0  0  0  0  0999 V2000
   17.5588   21.2819    0.9573 C   0  0  0  0  0  0  0  0  0  0  0  0
   17.3120   21.5274    2.1857 N   0  0  0  0  0  0  0  0  0  0  0  0
   16.8717   30.3220   -3.5813 C   0  0  0  0  0  0  0  0  0  0  0  0
   17.5971   31.4840   -3.2154 O   0  0  0  0  0  0  0  0  0  0  0  0
   19.3635   26.4517    2.2397 C   0  0  0  0  0  0  0  0  0  0  0  0
   20.5046   27.0372    2.1565 N   0  0  0  0  0  0  0  0  0  0  0  0
   14.4735   28.3645   -2.5829 C   0  0  0  0  0  0  0  0  0  0  0  0
   18.1420   33.5361   -1.2176 C   0  0  0  0  0  0  0  0  0  0  0  0
   19.1365   22.7666    0.0233 C   0  0  2  0  0  0  0  0  0  0  0  0
   18.8214   21.4007    0.5942 N   0  0  0  0  0  0  0  0  0  0  0  0
   17.6225   27.6033   -1.2192 C   0  0  2  0  0  0  0  0  0  0  0  0
   19.4555   30.6096   -1.1990 C   0  0  1  0  0  0  0  0  0  0  0  0
   18.4017   29.7615   -0.7814 O   0  0  0  0  0  0  0  0  0  0  0  0
   18.6897   23.8724    0.9733 C   0  0  1  0  0  0  0  0  0  0  0  0
   19.4139   23.5935    2.2498 O   0  0  0  0  0  0  0  0  0  0  0  0
   17.9757   28.9645   -1.7903 C   0  0  2  0  0  0  0  0  0  0  0  0
   19.5594   31.7642   -0.2322 C   0  0  1  0  0  0  0  0  0  0  0  0
   18.3492   32.5075   -0.2381 N   0  0  0  0  0  0  0  0  0  0  0  0
   18.9593   25.2729    0.4268 C   0  0  2  0  0  0  0  0  0  0  0  0
   18.5577   26.3622    1.2927 N   0  0  0  0  0  0  0  0  0  0  0  0
   16.6705   29.4409   -2.3706 C   0  0  1  0  0  0  0  0  0  0  0  0
   15.9186   30.1405   -1.3735 O   0  0  0  0  0  0  0  0  0  0  0  0
   19.8051   31.1927    1.1541 C   0  0  2  0  0  0  0  0  0  0  0  0
   19.9008   32.2333    2.1020 O   0  0  0  0  0  0  0  0  0  0  0  0
   18.2294   25.4096   -0.8842 C   0  0  1  0  0  0  0  0  0  0  0  0
   18.6831   26.6780   -1.4332 O   0  0  0  0  0  0  0  0  0  0  0  0
   15.9613   28.1931   -2.7480 C   0  0  1  0  0  0  0  0  0  0  0  0
   16.4351   27.1604   -1.8806 O   0  0  0  0  0  0  0  0  0  0  0  0
   21.1169   30.4103    1.0874 C   0  0  1  0  0  0  0  0  0  0  0  0
   21.4144   29.8369    2.3509 O   0  0  0  0  0  0  0  0  0  0  0  0
   18.7115   24.3201   -1.8796 C   0  0  2  0  0  0  0  0  0  0  0  0
   18.0228   24.4755   -3.1108 O   0  0  0  0  0  0  0  0  0  0  0  0
   20.9853   29.3115    0.0323 C   0  0  1  0  0  0  0  0  0  0  0  0
   20.6853   29.8897   -1.2370 O   0  0  0  0  0  0  0  0  0  0  0  0
   18.4110   22.9255   -1.2974 C   0  0  1  0  0  0  0  0  0  0  0  0
   18.8502   21.9079   -2.2051 O   0  0  0  0  0  0  0  0  0  0  0  0
   22.3076   28.5493   -0.0576 C   0  0  0  0  0  0  0  0  0  0  0  0
   22.5949   27.9652    1.2028 O   0  0  0  0  0  0  0  0  0  0  0  0
   16.6366   20.9640    0.1181 N   0  0  0  0  0  0  0  0  0  0  0  0
   19.0426   25.8878    3.3007 N   0  0  0  0  0  0  0  0  0  0  0  0
  1  2  1  0  0  0  0
  1 39  1  0  0  0  0
  3  4  1  0  0  0  0
  5  6  1  0  0  0  0
  5 40  1  0  0  0  0
  9 10  1  1  0  0  0
  9 14  1  0  0  0  0
  9 35  1  0  0  0  0
 10  1  1  0  0  0  0
 11 16  1  0  0  0  0
 11 28  1  0  0  0  0
 11 26  1  6  0  0  0
 12 17  1  0  0  0  0
 12 34  1  0  0  0  0
 12 13  1  1  0  0  0
 14 15  1  1  0  0  0
 14 19  1  0  0  0  0
 16 13  1  1  0  0  0
 16 21  1  0  0  0  0
 17 18  1  1  0  0  0
 17 23  1  0  0  0  0
 18  8  1  0  0  0  0
 19 20  1  1  0  0  0
 19 25  1  0  0  0  0
 20  5  1  0  0  0  0
 21  3  1  6  0  0  0
 21 22  1  0  0  0  0
 21 27  1  0  0  0  0
 23 24  1  1  0  0  0
 23 29  1  0  0  0  0
 25 26  1  6  0  0  0
 25 31  1  0  0  0  0
 27  7  1  1  0  0  0
 27 28  1  0  0  0  0
 29 30  1  1  0  0  0
 29 33  1  0  0  0  0
 31 32  1  6  0  0  0
 31 35  1  0  0  0  0
 33 34  1  0  0  0  0
 33 37  1  6  0  0  0
 35 36  1  6  0  0  0
 37 38  1  0  0  0  0
M  END
>  <CHROM.1>
52.52128181,-94.37059746,-178.52997787,160.61627025,143.01529258,-85.16247074
74.21976934,80.77449697,-61.78526676,-103.57174233,60.41644542,18.68582853
27.32805549,-0.31463712,1.67475379,0.80222637,2.96335462

>  <Name>
1ntb_lig

>  <RI>
0

>  <Rbt.Current_Directory>
/home/itssahil/PROJECTS/Mol_Feturizer/New_Systems/rnas/1ntb

>  <Rbt.Executable>
rbdock ($Id: //depot/dev/client3/rdock/2013.1/src/exe/rbdock.cxx#4 $)

>  <Rbt.Library>
libRbt.so (2013.1, Build901 2013/11/27)

>  <Rbt.Parameter_File>
/export/apps/rDock/src/rDock_2013.1_src/data/scripts/dock_solv.prm

>  <Rbt.Receptor>
prm/blind_docking_80.prm

>  <SCORE>
-0.303832

>  <SCORE.INTER>
1.91152

>  <SCORE.INTER.CONST>
1

>  <SCORE.INTER.POLAR>
0

>  <SCORE.INTER.ROT>
11

>  <SCORE.INTER.SOLV>
17.9963

>  <SCORE.INTER.VDW>
-15.6578

>  <SCORE.INTER.norm>
0.0477879

>  <SCORE.INTRA>
-5.02231

>  <SCORE.INTRA.DIHEDRAL>
-1.05923

>  <SCORE.INTRA.DIHEDRAL.0>
15.4453

>  <SCORE.INTRA.POLAR>
0

>  <SCORE.INTRA.POLAR.0>
0

>  <SCORE.INTRA.REPUL>
-0.823958

>  <SCORE.INTRA.REPUL.0>
0.823958

>  <SCORE.INTRA.SOLV>
5.9077

>  <SCORE.INTRA.SOLV.lig_0>
-99.3069

>  <SCORE.INTRA.VDW>
-3.32676

>  <SCORE.INTRA.VDW.0>
0.946495

>  <SCORE.INTRA.norm>
-0.125558

>  <SCORE.RESTR>
2.80697

>  <SCORE.RESTR.CAVITY>
2.80697

>  <SCORE.RESTR.norm>
0.0701741

>  <SCORE.SYSTEM>
0

>  <SCORE.SYSTEM.CONST>
0

>  <SCORE.SYSTEM.DIHEDRAL>
0

>  <SCORE.SYSTEM.SOLV>
0

>  <SCORE.SYSTEM.norm>
0

>  <SCORE.heavy>
40

>  <SCORE.norm>
-0.00759579

>  <RMSD>
18.174

$$$$
1ntb_lig
 OpenBabel11021811403D
libRbt.so/2013.1/901 2013/11/27
 40 42  0  0  0  0  0  0  0  0999 V2000
   13.0677   30.6007   -1.2741 C   0  0  0  0  0  0  0  0  0  0  0  0
   12.3552   31.6576   -1.2009 N   0  0  0  0  0  0  0  0  0  0  0  0
   22.1324   28.2145    1.0328 C   0  0  0  0  0  0  0  0  0  0  0  0
   22.9691   28.5593   -0.0587 O   0  0  0  0  0  0  0  0  0  0  0  0
   18.7069   32.6345   -2.2499 C   0  0  0  0  0  0  0  0  0  0  0  0
   19.1950   32.7084   -1.0632 N   0  0  0  0  0  0  0  0  0  0  0  0
   20.3614   30.8772    1.6273 C   0  0  0  0  0  0  0  0  0  0  0  0
   20.0382   24.1612    2.4012 C   0  0  0  0  0  0  0  0  0  0  0  0
   15.2419   30.0886   -2.0336 C   0  0  2  0  0  0  0  0  0  0  0  0
   13.8186   30.4924   -2.3533 N   0  0  0  0  0  0  0  0  0  0  0  0
   19.1951   28.9365   -1.0614 C   0  0  2  0  0  0  0  0  0  0  0  0
   20.2552   25.6341   -0.3657 C   0  0  1  0  0  0  0  0  0  0  0  0
   19.4757   26.7983   -0.1633 O   0  0  0  0  0  0  0  0  0  0  0  0
   16.2382   31.0688   -2.6431 C   0  0  1  0  0  0  0  0  0  0  0  0
   15.8663   32.3967   -2.0682 O   0  0  0  0  0  0  0  0  0  0  0  0
   20.1639   27.9195   -0.4861 C   0  0  2  0  0  0  0  0  0  0  0  0
   19.4323   24.4281    0.0177 C   0  0  1  0  0  0  0  0  0  0  0  0
   19.0779   24.5040    1.3910 N   0  0  0  0  0  0  0  0  0  0  0  0
   17.6920   30.6865   -2.3731 C   0  0  2  0  0  0  0  0  0  0  0  0
   18.6812   31.5879   -2.9267 N   0  0  0  0  0  0  0  0  0  0  0  0
   20.7071   28.6164    0.7330 C   0  0  1  0  0  0  0  0  0  0  0  0
   19.8722   28.3454    1.8638 O   0  0  0  0  0  0  0  0  0  0  0  0
   18.1767   24.4274   -0.8380 C   0  0  2  0  0  0  0  0  0  0  0  0
   17.3633   23.3216   -0.5120 O   0  0  0  0  0  0  0  0  0  0  0  0
   17.9253   29.3114   -2.9428 C   0  0  1  0  0  0  0  0  0  0  0  0
   19.2543   28.9381   -2.4838 O   0  0  0  0  0  0  0  0  0  0  0  0
   20.6347   30.0589    0.3920 C   0  0  1  0  0  0  0  0  0  0  0  0
   19.5684   30.2168   -0.5467 O   0  0  0  0  0  0  0  0  0  0  0  0
   18.6308   24.3436   -2.2955 C   0  0  1  0  0  0  0  0  0  0  0  0
   17.5080   24.3443   -3.1632 O   0  0  0  0  0  0  0  0  0  0  0  0
   16.9507   28.2921   -2.2935 C   0  0  2  0  0  0  0  0  0  0  0  0
   17.1967   27.0027   -2.8330 O   0  0  0  0  0  0  0  0  0  0  0  0
   19.5308   25.5407   -2.6036 C   0  0  1  0  0  0  0  0  0  0  0  0
   20.6585   25.5389   -1.7298 O   0  0  0  0  0  0  0  0  0  0  0  0
   15.4984   28.7064   -2.5989 C   0  0  1  0  0  0  0  0  0  0  0  0
   14.5857   27.7748   -2.0061 O   0  0  0  0  0  0  0  0  0  0  0  0
   20.0113   25.4403   -4.0515 C   0  0  0  0  0  0  0  0  0  0  0  0
   20.1438   26.7461   -4.5898 O   0  0  0  0  0  0  0  0  0  0  0  0
   13.0402   29.6855   -0.3700 N   0  0  0  0  0  0  0  0  0  0  0  0
   18.1756   33.6390   -2.7551 N   0  0  0  0  0  0  0  0  0  0  0  0
  1  2  1  0  0  0  0
  1 39  1  0  0  0  0
  3  4  1  0  0  0  0
  5  6  1  0  0  0  0
  5 40  1  0  0  0  0
  9 10  1  6  0  0  0
  9 14  1  0  0  0  0
  9 35  1  0  0  0  0
 10  1  1  0  0  0  0
 11 16  1  0  0  0  0
 11 28  1  0  0  0  0
 11 26  1  6  0  0  0
 12 17  1  0  0  0  0
 12 34  1  0  0  0  0
 12 13  1  6  0  0  0
 14 15  1  1  0  0  0
 14 19  1  0  0  0  0
 16 13  1  1  0  0  0
 16 21  1  0  0  0  0
 17 18  1  1  0  0  0
 17 23  1  0  0  0  0
 18  8  1  0  0  0  0
 19 20  1  6  0  0  0
 19 25  1  0  0  0  0
 20  5  1  0  0  0  0
 21  3  1  1  0  0  0
 21 22  1  0  0  0  0
 21 27  1  0  0  0  0
 23 24  1  1  0  0  0
 23 29  1  0  0  0  0
 25 26  1  1  0  0  0
 25 31  1  0  0  0  0
 27  7  1  1  0  0  0
 27 28  1  0  0  0  0
 29 30  1  6  0  0  0
 29 33  1  0  0  0  0
 31 32  1  6  0  0  0
 31 35  1  0  0  0  0
 33 34  1  0  0  0  0
 33 37  1  6  0  0  0
 35 36  1  1  0  0  0
 37 38  1  0  0  0  0
M  END
>  <CHROM.1>
-126.14807735,132.95959415,149.77151543,179.75780591,146.02291605,-78.30969662
74.03167073,72.08567109,60.71048597,60.70068651,146.56382253,18.26099875
28.31778478,-1.28326050,2.22828081,-0.33618564,0.01202569

>  <Name>
1ntb_lig

>  <RI>
0

>  <Rbt.Current_Directory>
/home/itssahil/PROJECTS/Mol_Feturizer/New_Systems/rnas/1ntb

>  <Rbt.Executable>
rbdock ($Id: //depot/dev/client3/rdock/2013.1/src/exe/rbdock.cxx#4 $)

>  <Rbt.Library>
libRbt.so (2013.1, Build901 2013/11/27)

>  <Rbt.Parameter_File>
/export/apps/rDock/src/rDock_2013.1_src/data/scripts/dock_solv.prm

>  <Rbt.Receptor>
prm/blind_docking_80.prm

>  <SCORE>
-15.4153

>  <SCORE.INTER>
-10.9879

>  <SCORE.INTER.CONST>
1

>  <SCORE.INTER.POLAR>
-0.87178

>  <SCORE.INTER.ROT>
11

>  <SCORE.INTER.SOLV>
22.8973

>  <SCORE.INTER.VDW>
-22.9851

>  <SCORE.INTER.norm>
-0.274697

>  <SCORE.INTRA>
-4.46581

>  <SCORE.INTRA.DIHEDRAL>
-1.50385

>  <SCORE.INTRA.DIHEDRAL.0>
15.4453

>  <SCORE.INTRA.POLAR>
0

>  <SCORE.INTRA.POLAR.0>
0

>  <SCORE.INTRA.REPUL>
-0.823958

>  <SCORE.INTRA.REPUL.0>
0.823958

>  <SCORE.INTRA.SOLV>
2.41342

>  <SCORE.INTRA.SOLV.lig_0>
-99.3069

>  <SCORE.INTRA.VDW>
-0.800813

>  <SCORE.INTRA.VDW.0>
0.946495

>  <SCORE.INTRA.norm>
-0.111645

>  <SCORE.RESTR>
0.0383678

>  <SCORE.RESTR.CAVITY>
0.0383678

>  <SCORE.RESTR.norm>
0.000959194

>  <SCORE.SYSTEM>
0

>  <SCORE.SYSTEM.CONST>
0

>  <SCORE.SYSTEM.DIHEDRAL>
0

>  <SCORE.SYSTEM.SOLV>
0

>  <SCORE.SYSTEM.norm>
0

>  <SCORE.heavy>
40

>  <SCORE.norm>
-0.385383

>  <RMSD>
18.175

$$$$
1ntb_lig
 OpenBabel11021811403D
libRbt.so/2013.1/901 2013/11/27
 40 42  0  0  0  0  0  0  0  0999 V2000
   11.8523   31.4950   -3.1240 C   0  0  0  0  0  0  0  0  0  0  0  0
   11.9296   32.6406   -2.5656 N   0  0  0  0  0  0  0  0  0  0  0  0
   21.9688   28.5387   -0.0799 C   0  0  0  0  0  0  0  0  0  0  0  0
   22.6188   27.3351   -0.4528 O   0  0  0  0  0  0  0  0  0  0  0  0
   15.3819   26.3486   -2.9964 C   0  0  0  0  0  0  0  0  0  0  0  0
   15.1712   26.6361   -4.2314 N   0  0  0  0  0  0  0  0  0  0  0  0
   19.9403   29.4215    2.3047 C   0  0  0  0  0  0  0  0  0  0  0  0
   22.6796   24.0208   -0.3849 C   0  0  0  0  0  0  0  0  0  0  0  0
   13.7684   30.2260   -2.5908 C   0  0  2  0  0  0  0  0  0  0  0  0
   12.2878   30.4789   -2.4042 N   0  0  0  0  0  0  0  0  0  0  0  0
   18.3415   28.5241   -0.6943 C   0  0  2  0  0  0  0  0  0  0  0  0
   20.6217   26.2297   -2.1918 C   0  0  1  0  0  0  0  0  0  0  0  0
   19.6210   26.6622   -1.2887 O   0  0  0  0  0  0  0  0  0  0  0  0
   14.1137   28.7678   -2.3091 C   0  0  1  0  0  0  0  0  0  0  0  0
   13.2651   27.9855   -3.2577 O   0  0  0  0  0  0  0  0  0  0  0  0
   19.7205   27.9891   -1.0350 C   0  0  2  0  0  0  0  0  0  0  0  0
   20.9046   24.7689   -1.9372 C   0  0  1  0  0  0  0  0  0  0  0  0
   21.3839   24.5954   -0.6115 N   0  0  0  0  0  0  0  0  0  0  0  0
   15.6044   28.4692   -2.4549 C   0  0  2  0  0  0  0  0  0  0  0  0
   15.9871   27.0953   -2.2026 N   0  0  0  0  0  0  0  0  0  0  0  0
   20.5126   28.2646    0.2154 C   0  0  1  0  0  0  0  0  0  0  0  0
   20.3942   27.1631    1.1219 O   0  0  0  0  0  0  0  0  0  0  0  0
   19.6054   24.0023   -2.1187 C   0  0  2  0  0  0  0  0  0  0  0  0
   19.8119   22.6269   -1.8815 O   0  0  0  0  0  0  0  0  0  0  0  0
   16.3532   29.3584   -1.4965 C   0  0  1  0  0  0  0  0  0  0  0  0
   17.7568   29.1621   -1.8248 O   0  0  0  0  0  0  0  0  0  0  0  0
   19.8660   29.4656    0.8004 C   0  0  1  0  0  0  0  0  0  0  0  0
   18.5009   29.4576    0.3764 O   0  0  0  0  0  0  0  0  0  0  0  0
   19.1500   24.2322   -3.5599 C   0  0  1  0  0  0  0  0  0  0  0  0
   17.9313   23.5487   -3.8075 O   0  0  0  0  0  0  0  0  0  0  0  0
   16.0505   30.8497   -1.8044 C   0  0  2  0  0  0  0  0  0  0  0  0
   16.7758   31.6691   -0.9008 O   0  0  0  0  0  0  0  0  0  0  0  0
   18.9639   25.7326   -3.7874 C   0  0  1  0  0  0  0  0  0  0  0  0
   20.1898   26.4181   -3.5373 O   0  0  0  0  0  0  0  0  0  0  0  0
   14.5415   31.1114   -1.6346 C   0  0  1  0  0  0  0  0  0  0  0  0
   14.2454   32.4846   -1.9153 O   0  0  0  0  0  0  0  0  0  0  0  0
   18.5397   25.9655   -5.2377 C   0  0  0  0  0  0  0  0  0  0  0  0
   17.2656   25.3791   -5.4501 O   0  0  0  0  0  0  0  0  0  0  0  0
   11.4039   31.3388   -4.3199 N   0  0  0  0  0  0  0  0  0  0  0  0
   14.9197   25.2934   -2.5279 N   0  0  0  0  0  0  0  0  0  0  0  0
  1  2  1  0  0  0  0
  1 39  1  0  0  0  0
  3  4  1  0  0  0  0
  5  6  1  0  0  0  0
  5 40  1  0  0  0  0
  9 10  1  1  0  0  0
  9 14  1  0  0  0  0
  9 35  1  0  0  0  0
 10  1  1  0  0  0  0
 11 16  1  0  0  0  0
 11 28  1  0  0  0  0
 11 26  1  6  0  0  0
 12 17  1  0  0  0  0
 12 34  1  0  0  0  0
 12 13  1  1  0  0  0
 14 15  1  6  0  0  0
 14 19  1  0  0  0  0
 16 13  1  1  0  0  0
 16 21  1  0  0  0  0
 17 18  1  1  0  0  0
 17 23  1  0  0  0  0
 18  8  1  0  0  0  0
 19 20  1  1  0  0  0
 19 25  1  0  0  0  0
 20  5  1  0  0  0  0
 21  3  1  6  0  0  0
 21 22  1  0  0  0  0
 21 27  1  0  0  0  0
 23 24  1  6  0  0  0
 23 29  1  0  0  0  0
 25 26  1  6  0  0  0
 25 31  1  0  0  0  0
 27  7  1  1  0  0  0
 27 28  1  0  0  0  0
 29 30  1  1  0  0  0
 29 33  1  0  0  0  0
 31 32  1  1  0  0  0
 31 35  1  0  0  0  0
 33 34  1  0  0  0  0
 33 37  1  6  0  0  0
 35 36  1  6  0  0  0
 37 38  1  0  0  0  0
M  END
>  <CHROM.1>
-153.96643295,-88.51298235,167.26964679,152.97380191,151.64993331,-120.50606106
59.27609553,39.35128951,-72.57782192,-113.72193013,64.79419943,17.54025140
27.77050966,-1.93710071,2.72427413,-0.48100716,0.56015806

>  <Name>
1ntb_lig

>  <RI>
0

>  <Rbt.Current_Directory>
/home/itssahil/PROJECTS/Mol_Feturizer/New_Systems/rnas/1ntb

>  <Rbt.Executable>
rbdock ($Id: //depot/dev/client3/rdock/2013.1/src/exe/rbdock.cxx#4 $)

>  <Rbt.Library>
libRbt.so (2013.1, Build901 2013/11/27)

>  <Rbt.Parameter_File>
/export/apps/rDock/src/rDock_2013.1_src/data/scripts/dock_solv.prm

>  <Rbt.Receptor>
prm/blind_docking_60.prm

>  <SCORE>
-8.01522

>  <SCORE.INTER>
-4.09984

>  <SCORE.INTER.CONST>
1

>  <SCORE.INTER.POLAR>
-1.7615

>  <SCORE.INTER.ROT>
11

>  <SCORE.INTER.SOLV>
32.4202

>  <SCORE.INTER.VDW>
-18.6016

>  <SCORE.INTER.norm>
-0.102496

>  <SCORE.INTRA>
-4.49034

>  <SCORE.INTRA.DIHEDRAL>
2.07245

>  <SCORE.INTRA.DIHEDRAL.0>
15.4453

>  <SCORE.INTRA.POLAR>
0

>  <SCORE.INTRA.POLAR.0>
0

>  <SCORE.INTRA.REPUL>
-0.80535

>  <SCORE.INTRA.REPUL.0>
0.823958

>  <SCORE.INTRA.SOLV>
4.24522

>  <SCORE.INTRA.SOLV.lig_0>
-99.3069

>  <SCORE.INTRA.VDW>
-3.62243

>  <SCORE.INTRA.VDW.0>
0.946495

>  <SCORE.INTRA.norm>
-0.112259

>  <SCORE.RESTR>
0.574958

>  <SCORE.RESTR.CAVITY>
0.574958

>  <SCORE.RESTR.norm>
0.014374

>  <SCORE.SYSTEM>
0

>  <SCORE.SYSTEM.CONST>
0

>  <SCORE.SYSTEM.DIHEDRAL>
0

>  <SCORE.SYSTEM.SOLV>
0

>  <SCORE.SYSTEM.norm>
0

>  <SCORE.heavy>
40

>  <SCORE.norm>
-0.200381

>  <RMSD>
18.185

$$$$
1ntb_lig
 OpenBabel11021811403D
libRbt.so/2013.1/901 2013/11/27
 40 42  0  0  0  0  0  0  0  0999 V2000
   19.1292   28.8481    7.4279 C   0  0  0  0  0  0  0  0  0  0  0  0
   19.5625   30.0067    7.7441 N   0  0  0  0  0  0  0  0  0  0  0  0
   19.6437   24.2057   -2.5798 C   0  0  0  0  0  0  0  0  0  0  0  0
   19.2876   22.9381   -3.1060 O   0  0  0  0  0  0  0  0  0  0  0  0
   20.3903   29.6727    1.0318 C   0  0  0  0  0  0  0  0  0  0  0  0
   20.9981   30.7906    1.2131 N   0  0  0  0  0  0  0  0  0  0  0  0
   18.2595   22.4554   -0.2132 C   0  0  0  0  0  0  0  0  0  0  0  0
   16.8047   25.1033   -4.8897 C   0  0  0  0  0  0  0  0  0  0  0  0
   18.9830   28.2266    5.1567 C   0  0  2  0  0  0  0  0  0  0  0  0
   18.3193   28.8061    6.3875 N   0  0  0  0  0  0  0  0  0  0  0  0
   18.6694   25.8601    0.5584 C   0  0  2  0  0  0  0  0  0  0  0  0
   18.4450   27.1860   -2.7953 C   0  0  1  0  0  0  0  0  0  0  0  0
   18.0584   26.8106   -1.4862 O   0  0  0  0  0  0  0  0  0  0  0  0
   18.7884   29.1384    3.9502 C   0  0  1  0  0  0  0  0  0  0  0  0
   19.3735   30.4489    4.3650 O   0  0  0  0  0  0  0  0  0  0  0  0
   18.9511   25.9571   -0.9299 C   0  0  2  0  0  0  0  0  0  0  0  0
   17.2169   27.2170   -3.6724 C   0  0  1  0  0  0  0  0  0  0  0  0
   16.6304   25.9245   -3.7254 N   0  0  0  0  0  0  0  0  0  0  0  0
   19.4156   28.5808    2.6742 C   0  0  2  0  0  0  0  0  0  0  0  0
   19.2638   29.4109    1.4971 N   0  0  0  0  0  0  0  0  0  0  0  0
   18.7512   24.5436   -1.4085 C   0  0  1  0  0  0  0  0  0  0  0  0
   17.3793   24.3360   -1.7605 O   0  0  0  0  0  0  0  0  0  0  0  0
   16.2334   28.2033   -3.0652 C   0  0  2  0  0  0  0  0  0  0  0  0
   15.0582   28.2640   -3.8437 O   0  0  0  0  0  0  0  0  0  0  0  0
   18.7911   27.2380    2.3968 C   0  0  1  0  0  0  0  0  0  0  0  0
   19.5642   26.6878    1.2940 O   0  0  0  0  0  0  0  0  0  0  0  0
   19.0980   23.7072   -0.2326 C   0  0  1  0  0  0  0  0  0  0  0  0
   18.8361   24.4909    0.9337 O   0  0  0  0  0  0  0  0  0  0  0  0
   16.9268   29.5656   -3.0400 C   0  0  1  0  0  0  0  0  0  0  0  0
   16.0689   30.5459   -2.4772 O   0  0  0  0  0  0  0  0  0  0  0  0
   19.0257   26.2820    3.5973 C   0  0  2  0  0  0  0  0  0  0  0  0
   18.4428   25.0203    3.3098 O   0  0  0  0  0  0  0  0  0  0  0  0
   18.2077   29.4544   -2.2125 C   0  0  1  0  0  0  0  0  0  0  0  0
   19.0685   28.4679   -2.7792 O   0  0  0  0  0  0  0  0  0  0  0  0
   18.3686   26.8739    4.8591 C   0  0  1  0  0  0  0  0  0  0  0  0
   18.5761   26.0025    5.9771 O   0  0  0  0  0  0  0  0  0  0  0  0
   18.9182   30.8081   -2.2138 C   0  0  0  0  0  0  0  0  0  0  0  0
   18.1981   31.7126   -1.3916 O   0  0  0  0  0  0  0  0  0  0  0  0
   19.4384   27.7904    8.0923 N   0  0  0  0  0  0  0  0  0  0  0  0
   20.9117   28.8043    0.3103 N   0  0  0  0  0  0  0  0  0  0  0  0
  1  2  1  0  0  0  0
  1 39  1  0  0  0  0
  3  4  1  0  0  0  0
  5  6  1  0  0  0  0
  5 40  1  0  0  0  0
  9 10  1  1  0  0  0
  9 14  1  0  0  0  0
  9 35  1  0  0  0  0
 10  1  1  0  0  0  0
 11 16  1  0  0  0  0
 11 28  1  0  0  0  0
 11 26  1  1  0  0  0
 12 17  1  0  0  0  0
 12 34  1  0  0  0  0
 12 13  1  1  0  0  0
 14 15  1  1  0  0  0
 14 19  1  0  0  0  0
 16 13  1  6  0  0  0
 16 21  1  0  0  0  0
 17 18  1  1  0  0  0
 17 23  1  0  0  0  0
 18  8  1  0  0  0  0
 19 20  1  6  0  0  0
 19 25  1  0  0  0  0
 20  5  1  0  0  0  0
 21  3  1  6  0  0  0
 21 22  1  0  0  0  0
 21 27  1  0  0  0  0
 23 24  1  6  0  0  0
 23 29  1  0  0  0  0
 25 26  1  6  0  0  0
 25 31  1  0  0  0  0
 27  7  1  1  0  0  0
 27 28  1  0  0  0  0
 29 30  1  1  0  0  0
 29 33  1  0  0  0  0
 31 32  1  6  0  0  0
 31 35  1  0  0  0  0
 33 34  1  0  0  0  0
 33 37  1  6  0  0  0
 35 36  1  1  0  0  0
 37 38  1  0  0  0  0
M  END
>  <CHROM.1>
-129.27834763,106.31290285,143.20353895,139.51504305,166.47551382,-103.56463809
123.05392803,-101.09346530,-171.95544839,-149.80673241,72.78575768,18.53081194
27.38941109,0.57971449,0.31296533,-1.38424816,0.11687948

>  <Name>
1ntb_lig

>  <RI>
0

>  <Rbt.Current_Directory>
/home/itssahil/PROJECTS/Mol_Feturizer/New_Systems/rnas/1ntb

>  <Rbt.Executable>
rbdock ($Id: //depot/dev/client3/rdock/2013.1/src/exe/rbdock.cxx#4 $)

>  <Rbt.Library>
libRbt.so (2013.1, Build901 2013/11/27)

>  <Rbt.Parameter_File>
/export/apps/rDock/src/rDock_2013.1_src/data/scripts/dock_solv.prm

>  <Rbt.Receptor>
prm/blind_docking_40.prm

>  <SCORE>
-24.3174

>  <SCORE.INTER>
-16.9745

>  <SCORE.INTER.CONST>
1

>  <SCORE.INTER.POLAR>
-1.88225

>  <SCORE.INTER.ROT>
11

>  <SCORE.INTER.SOLV>
10.3427

>  <SCORE.INTER.VDW>
-19.4231

>  <SCORE.INTER.norm>
-0.424362

>  <SCORE.INTRA>
-7.84391

>  <SCORE.INTRA.DIHEDRAL>
4.69312

>  <SCORE.INTRA.DIHEDRAL.0>
15.4453

>  <SCORE.INTRA.POLAR>
0

>  <SCORE.INTRA.POLAR.0>
0

>  <SCORE.INTRA.REPUL>
-0.823958

>  <SCORE.INTRA.REPUL.0>
0.823958

>  <SCORE.INTRA.SOLV>
2.23396

>  <SCORE.INTRA.SOLV.lig_0>
-99.3069

>  <SCORE.INTRA.VDW>
-7.18767

>  <SCORE.INTRA.VDW.0>
0.946495

>  <SCORE.INTRA.norm>
-0.196098

>  <SCORE.RESTR>
0.501004

>  <SCORE.RESTR.CAVITY>
0.501004

>  <SCORE.RESTR.norm>
0.0125251

>  <SCORE.SYSTEM>
0

>  <SCORE.SYSTEM.CONST>
0

>  <SCORE.SYSTEM.DIHEDRAL>
0

>  <SCORE.SYSTEM.SOLV>
0

>  <SCORE.SYSTEM.norm>
0

>  <SCORE.heavy>
40

>  <SCORE.norm>
-0.607935

>  <RMSD>
18.187

$$$$
1ntb_lig
 OpenBabel11021811403D
libRbt.so/2013.1/901 2013/11/27
 40 42  0  0  0  0  0  0  0  0999 V2000
   18.6966   22.6907    4.1796 C   0  0  0  0  0  0  0  0  0  0  0  0
   18.5833   21.9925    3.1167 N   0  0  0  0  0  0  0  0  0  0  0  0
   18.3285   31.2979   -2.6346 C   0  0  0  0  0  0  0  0  0  0  0  0
   19.1159   32.4024   -3.0474 O   0  0  0  0  0  0  0  0  0  0  0  0
   19.6141   25.2282   -1.0118 C   0  0  0  0  0  0  0  0  0  0  0  0
   20.6056   24.5511   -1.4707 N   0  0  0  0  0  0  0  0  0  0  0  0
   21.1013   31.4927   -0.9453 C   0  0  0  0  0  0  0  0  0  0  0  0
   18.7020   25.4282   -5.6014 C   0  0  0  0  0  0  0  0  0  0  0  0
   18.7883   24.8163    3.1603 C   0  0  2  0  0  0  0  0  0  0  0  0
   19.4239   23.7856    4.0683 N   0  0  0  0  0  0  0  0  0  0  0  0
   19.1437   28.6727   -0.1895 C   0  0  2  0  0  0  0  0  0  0  0  0
   17.7131   28.3709   -3.5083 C   0  0  1  0  0  0  0  0  0  0  0  0
   18.4561   28.0743   -2.3404 O   0  0  0  0  0  0  0  0  0  0  0  0
   19.5958   24.9876    1.8783 C   0  0  1  0  0  0  0  0  0  0  0  0
   19.6393   23.6237    1.2704 O   0  0  0  0  0  0  0  0  0  0  0  0
   18.4097   29.0937   -1.4496 C   0  0  2  0  0  0  0  0  0  0  0  0
   17.4524   27.0854   -4.2554 C   0  0  1  0  0  0  0  0  0  0  0  0
   18.6850   26.4936   -4.6397 N   0  0  0  0  0  0  0  0  0  0  0  0
   19.0098   26.0414    0.9409 C   0  0  2  0  0  0  0  0  0  0  0  0
   19.7366   26.2413   -0.2958 N   0  0  0  0  0  0  0  0  0  0  0  0
   19.1963   30.2881   -1.9205 C   0  0  1  0  0  0  0  0  0  0  0  0
   20.2629   29.8647   -2.7762 O   0  0  0  0  0  0  0  0  0  0  0  0
   16.6999   26.1484   -3.3256 C   0  0  2  0  0  0  0  0  0  0  0  0
   16.4384   24.9227   -3.9734 O   0  0  0  0  0  0  0  0  0  0  0  0
   18.9613   27.3509    1.6846 C   0  0  1  0  0  0  0  0  0  0  0  0
   18.2230   28.2492    0.8104 O   0  0  0  0  0  0  0  0  0  0  0  0
   19.7553   30.8714   -0.6756 C   0  0  1  0  0  0  0  0  0  0  0  0
   19.8876   29.8049    0.2669 O   0  0  0  0  0  0  0  0  0  0  0  0
   15.3906   26.8453   -2.9548 C   0  0  1  0  0  0  0  0  0  0  0  0
   14.6290   26.0305   -2.0775 O   0  0  0  0  0  0  0  0  0  0  0  0
   18.0993   27.2045    2.9675 C   0  0  2  0  0  0  0  0  0  0  0  0
   18.0551   28.4510    3.6445 O   0  0  0  0  0  0  0  0  0  0  0  0
   15.7130   28.1798   -2.2817 C   0  0  1  0  0  0  0  0  0  0  0  0
   16.4793   28.9972   -3.1648 O   0  0  0  0  0  0  0  0  0  0  0  0
   18.7299   26.1431    3.8896 C   0  0  1  0  0  0  0  0  0  0  0  0
   17.9456   25.9961    5.0794 O   0  0  0  0  0  0  0  0  0  0  0  0
   14.4039   28.8918   -1.9398 C   0  0  0  0  0  0  0  0  0  0  0  0
   13.5908   28.9541   -3.1007 O   0  0  0  0  0  0  0  0  0  0  0  0
   18.1601   22.3410    5.2957 N   0  0  0  0  0  0  0  0  0  0  0  0
   18.4557   24.9058   -1.3291 N   0  0  0  0  0  0  0  0  0  0  0  0
  1  2  1  0  0  0  0
  1 39  1  0  0  0  0
  3  4  1  0  0  0  0
  5  6  1  0  0  0  0
  5 40  1  0  0  0  0
  9 10  1  1  0  0  0
  9 14  1  0  0  0  0
  9 35  1  0  0  0  0
 10  1  1  0  0  0  0
 11 16  1  0  0  0  0
 11 28  1  0  0  0  0
 11 26  1  1  0  0  0
 12 17  1  0  0  0  0
 12 34  1  0  0  0  0
 12 13  1  1  0  0  0
 14 15  1  6  0  0  0
 14 19  1  0  0  0  0
 16 13  1  6  0  0  0
 16 21  1  0  0  0  0
 17 18  1  1  0  0  0
 17 23  1  0  0  0  0
 18  8  1  0  0  0  0
 19 20  1  6  0  0  0
 19 25  1  0  0  0  0
 20  5  1  0  0  0  0
 21  3  1  6  0  0  0
 21 22  1  0  0  0  0
 21 27  1  0  0  0  0
 23 24  1  6  0  0  0
 23 29  1  0  0  0  0
 25 26  1  6  0  0  0
 25 31  1  0  0  0  0
 27  7  1  6  0  0  0
 27 28  1  0  0  0  0
 29 30  1  1  0  0  0
 29 33  1  0  0  0  0
 31 32  1  1  0  0  0
 31 35  1  0  0  0  0
 33 34  1  0  0  0  0
 33 37  1  6  0  0  0
 35 36  1  1  0  0  0
 37 38  1  0  0  0  0
M  END
>  <CHROM.1>
-111.68513165,66.60181339,155.45100381,-163.03845056,176.18234375,-166.53737767
68.65144402,-123.77541138,179.61637873,-78.81793804,-52.07396334,18.22790443
27.10701821,-0.49626707,1.23588408,1.12542435,2.49247277

>  <Name>
1ntb_lig

>  <RI>
0

>  <Rbt.Current_Directory>
/home/itssahil/PROJECTS/Mol_Feturizer/New_Systems/rnas/1ntb

>  <Rbt.Executable>
rbdock ($Id: //depot/dev/client3/rdock/2013.1/src/exe/rbdock.cxx#4 $)

>  <Rbt.Library>
libRbt.so (2013.1, Build901 2013/11/27)

>  <Rbt.Parameter_File>
/export/apps/rDock/src/rDock_2013.1_src/data/scripts/dock_solv.prm

>  <Rbt.Receptor>
prm/blind_docking_100.prm

>  <SCORE>
-23.9334

>  <SCORE.INTER>
-20.6538

>  <SCORE.INTER.CONST>
1

>  <SCORE.INTER.POLAR>
-1.53487

>  <SCORE.INTER.ROT>
11

>  <SCORE.INTER.SOLV>
13.6615

>  <SCORE.INTER.VDW>
-24.1402

>  <SCORE.INTER.norm>
-0.516346

>  <SCORE.INTRA>
-5.49181

>  <SCORE.INTRA.DIHEDRAL>
-6.88392

>  <SCORE.INTRA.DIHEDRAL.0>
15.4453

>  <SCORE.INTRA.POLAR>
0

>  <SCORE.INTRA.POLAR.0>
0

>  <SCORE.INTRA.REPUL>
-0.823958

>  <SCORE.INTRA.REPUL.0>
0.823958

>  <SCORE.INTRA.SOLV>
3.42404

>  <SCORE.INTRA.SOLV.lig_0>
-99.3069

>  <SCORE.INTRA.VDW>
0.357916

>  <SCORE.INTRA.VDW.0>
0.946495

>  <SCORE.INTRA.norm>
-0.137295

>  <SCORE.RESTR>
2.21224

>  <SCORE.RESTR.CAVITY>
2.21224

>  <SCORE.RESTR.norm>
0.0553061

>  <SCORE.SYSTEM>
0

>  <SCORE.SYSTEM.CONST>
0

>  <SCORE.SYSTEM.DIHEDRAL>
0

>  <SCORE.SYSTEM.SOLV>
0

>  <SCORE.SYSTEM.norm>
0

>  <SCORE.heavy>
40

>  <SCORE.norm>
-0.598335

>  <RMSD>
18.190

$$$$
1ntb_lig
 OpenBabel11021811403D
libRbt.so/2013.1/901 2013/11/27
 40 42  0  0  0  0  0  0  0  0999 V2000
   19.5421   35.1166   -0.7183 C   0  0  0  0  0  0  0  0  0  0  0  0
   18.3738   35.6235   -0.6275 N   0  0  0  0  0  0  0  0  0  0  0  0
   21.1130   24.4731   -0.0071 C   0  0  0  0  0  0  0  0  0  0  0  0
   22.2819   25.1221   -0.4792 O   0  0  0  0  0  0  0  0  0  0  0  0
   17.3531   30.4406   -3.1176 C   0  0  0  0  0  0  0  0  0  0  0  0
   17.7276   29.7250   -4.1174 N   0  0  0  0  0  0  0  0  0  0  0  0
   19.8424   26.0523    2.5369 C   0  0  0  0  0  0  0  0  0  0  0  0
   19.7748   24.8060   -5.8723 C   0  0  0  0  0  0  0  0  0  0  0  0
   20.0251   32.8161   -0.5175 C   0  0  2  0  0  0  0  0  0  0  0  0
   19.8179   34.1601    0.1473 N   0  0  0  0  0  0  0  0  0  0  0  0
   19.3043   27.6289   -0.5583 C   0  0  2  0  0  0  0  0  0  0  0  0
   18.5021   26.6112   -2.9699 C   0  0  1  0  0  0  0  0  0  0  0  0
   18.8035   25.7656   -1.8752 O   0  0  0  0  0  0  0  0  0  0  0  0
   18.6912   32.1824   -0.8968 C   0  0  1  0  0  0  0  0  0  0  0  0
   18.0365   33.1814   -1.7942 O   0  0  0  0  0  0  0  0  0  0  0  0
   19.7785   26.2908   -1.0953 C   0  0  2  0  0  0  0  0  0  0  0  0
   18.2356   25.7546   -4.1839 C   0  0  1  0  0  0  0  0  0  0  0  0
   19.3938   24.9962   -4.5016 N   0  0  0  0  0  0  0  0  0  0  0  0
   18.8467   30.8082   -1.5448 C   0  0  2  0  0  0  0  0  0  0  0  0
   17.6087   30.1625   -1.9296 N   0  0  0  0  0  0  0  0  0  0  0  0
   19.9975   25.4793    0.1539 C   0  0  1  0  0  0  0  0  0  0  0  0
   18.7852   24.8138    0.5234 O   0  0  0  0  0  0  0  0  0  0  0  0
   17.0839   24.8203   -3.8534 C   0  0  2  0  0  0  0  0  0  0  0  0
   16.7988   23.9867   -4.9554 O   0  0  0  0  0  0  0  0  0  0  0  0
   19.5708   29.9140   -0.5721 C   0  0  1  0  0  0  0  0  0  0  0  0
   19.8523   28.6990   -1.3209 O   0  0  0  0  0  0  0  0  0  0  0  0
   20.3504   26.4856    1.1861 C   0  0  1  0  0  0  0  0  0  0  0  0
   19.7340   27.7168    0.8022 O   0  0  0  0  0  0  0  0  0  0  0  0
   15.8773   25.6995   -3.5240 C   0  0  1  0  0  0  0  0  0  0  0  0
   14.7551   24.8951   -3.1965 O   0  0  0  0  0  0  0  0  0  0  0  0
   20.9540   30.5224   -0.2156 C   0  0  2  0  0  0  0  0  0  0  0  0
   21.6242   29.6587    0.6893 O   0  0  0  0  0  0  0  0  0  0  0  0
   16.2324   26.6068   -2.3456 C   0  0  1  0  0  0  0  0  0  0  0  0
   17.3612   27.4140   -2.6763 O   0  0  0  0  0  0  0  0  0  0  0  0
   20.7525   31.8997    0.4452 C   0  0  1  0  0  0  0  0  0  0  0  0
   22.0209   32.4750    0.7808 O   0  0  0  0  0  0  0  0  0  0  0  0
   15.0373   27.5088   -2.0365 C   0  0  0  0  0  0  0  0  0  0  0  0
   14.4231   27.9013   -3.2536 O   0  0  0  0  0  0  0  0  0  0  0  0
   20.4070   35.5255   -1.5788 N   0  0  0  0  0  0  0  0  0  0  0  0
   16.7440   31.5052   -3.3229 N   0  0  0  0  0  0  0  0  0  0  0  0
  1  2  1  0  0  0  0
  1 39  1  0  0  0  0
  3  4  1  0  0  0  0
  5  6  1  0  0  0  0
  5 40  1  0  0  0  0
  9 10  1  1  0  0  0
  9 14  1  0  0  0  0
  9 35  1  0  0  0  0
 10  1  1  0  0  0  0
 11 16  1  0  0  0  0
 11 28  1  0  0  0  0
 11 26  1  6  0  0  0
 12 17  1  0  0  0  0
 12 34  1  0  0  0  0
 12 13  1  1  0  0  0
 14 15  1  6  0  0  0
 14 19  1  0  0  0  0
 16 13  1  6  0  0  0
 16 21  1  0  0  0  0
 17 18  1  1  0  0  0
 17 23  1  0  0  0  0
 18  8  1  0  0  0  0
 19 20  1  1  0  0  0
 19 25  1  0  0  0  0
 20  5  1  0  0  0  0
 21  3  1  6  0  0  0
 21 22  1  0  0  0  0
 21 27  1  0  0  0  0
 23 24  1  6  0  0  0
 23 29  1  0  0  0  0
 25 26  1  6  0  0  0
 25 31  1  0  0  0  0
 27  7  1  1  0  0  0
 27 28  1  0  0  0  0
 29 30  1  1  0  0  0
 29 33  1  0  0  0  0
 31 32  1  1  0  0  0
 31 35  1  0  0  0  0
 33 34  1  0  0  0  0
 33 37  1  6  0  0  0
 35 36  1  6  0  0  0
 37 38  1  0  0  0  0
M  END
>  <CHROM.1>
-77.77032836,114.31749553,-168.53127584,141.80795000,60.25905165,-140.30965920
92.84470012,91.63761108,52.41229074,-125.23671617,-38.00740094,18.78050842
28.57897620,-1.56014393,1.28057283,-0.74865271,0.06424796

>  <Name>
1ntb_lig

>  <RI>
0

>  <Rbt.Current_Directory>
/home/itssahil/PROJECTS/Mol_Feturizer/New_Systems/rnas/1ntb

>  <Rbt.Executable>
rbdock ($Id: //depot/dev/client3/rdock/2013.1/src/exe/rbdock.cxx#4 $)

>  <Rbt.Library>
libRbt.so (2013.1, Build901 2013/11/27)

>  <Rbt.Parameter_File>
/export/apps/rDock/src/rDock_2013.1_src/data/scripts/dock_solv.prm

>  <Rbt.Receptor>
prm/blind_docking_60.prm

>  <SCORE>
-16.9999

>  <SCORE.INTER>
-13.4348

>  <SCORE.INTER.CONST>
1

>  <SCORE.INTER.POLAR>
-2.06672

>  <SCORE.INTER.ROT>
11

>  <SCORE.INTER.SOLV>
20.7435

>  <SCORE.INTER.VDW>
-19.9153

>  <SCORE.INTER.norm>
-0.335869

>  <SCORE.INTRA>
-5.17013

>  <SCORE.INTRA.DIHEDRAL>
1.94437

>  <SCORE.INTRA.DIHEDRAL.0>
15.4453

>  <SCORE.INTRA.POLAR>
0

>  <SCORE.INTRA.POLAR.0>
0

>  <SCORE.INTRA.REPUL>
-0.823958

>  <SCORE.INTRA.REPUL.0>
0.823958

>  <SCORE.INTRA.SOLV>
2.67856

>  <SCORE.INTRA.SOLV.lig_0>
-99.3069

>  <SCORE.INTRA.VDW>
-3.3618

>  <SCORE.INTRA.VDW.0>
0.946495

>  <SCORE.INTRA.norm>
-0.129253

>  <SCORE.RESTR>
1.60496

>  <SCORE.RESTR.CAVITY>
1.60496

>  <SCORE.RESTR.norm>
0.0401239

>  <SCORE.SYSTEM>
0

>  <SCORE.SYSTEM.CONST>
0

>  <SCORE.SYSTEM.DIHEDRAL>
0

>  <SCORE.SYSTEM.SOLV>
0

>  <SCORE.SYSTEM.norm>
0

>  <SCORE.heavy>
40

>  <SCORE.norm>
-0.424998

>  <RMSD>
18.208

$$$$
1ntb_lig
 OpenBabel11021811403D
libRbt.so/2013.1/901 2013/11/27
 40 42  0  0  0  0  0  0  0  0999 V2000
   17.6091   35.1100   -2.1312 C   0  0  0  0  0  0  0  0  0  0  0  0
   16.9966   34.1073   -1.6316 N   0  0  0  0  0  0  0  0  0  0  0  0
   21.8728   25.8736   -0.4033 C   0  0  0  0  0  0  0  0  0  0  0  0
   21.1543   24.6556   -0.5057 O   0  0  0  0  0  0  0  0  0  0  0  0
   16.8619   29.9287   -3.0144 C   0  0  0  0  0  0  0  0  0  0  0  0
   15.6901   30.3956   -3.2611 N   0  0  0  0  0  0  0  0  0  0  0  0
   21.7812   28.2881    1.7743 C   0  0  0  0  0  0  0  0  0  0  0  0
   18.7318   23.3905    0.4489 C   0  0  0  0  0  0  0  0  0  0  0  0
   18.9505   33.5632   -3.3034 C   0  0  2  0  0  0  0  0  0  0  0  0
   18.2229   34.8902   -3.2780 N   0  0  0  0  0  0  0  0  0  0  0  0
   19.9512   28.9182   -1.1600 C   0  0  2  0  0  0  0  0  0  0  0  0
   19.0810   25.5374   -2.0573 C   0  0  1  0  0  0  0  0  0  0  0  0
   18.9673   26.8232   -1.4760 O   0  0  0  0  0  0  0  0  0  0  0  0
   17.9846   32.4153   -3.5760 C   0  0  1  0  0  0  0  0  0  0  0  0
   17.3480   32.7557   -4.8839 O   0  0  0  0  0  0  0  0  0  0  0  0
   20.1731   27.4326   -1.3779 C   0  0  2  0  0  0  0  0  0  0  0  0
   17.9674   24.6668   -1.5276 C   0  0  1  0  0  0  0  0  0  0  0  0
   18.0849   24.5396   -0.1178 N   0  0  0  0  0  0  0  0  0  0  0  0
   18.6680   31.0495   -3.5812 C   0  0  2  0  0  0  0  0  0  0  0  0
   17.7956   29.9228   -3.8403 N   0  0  0  0  0  0  0  0  0  0  0  0
   20.9161   27.0124   -0.1375 C   0  0  1  0  0  0  0  0  0  0  0  0
   19.9874   26.6444    0.8877 O   0  0  0  0  0  0  0  0  0  0  0  0
   16.6470   25.3331   -1.8755 C   0  0  2  0  0  0  0  0  0  0  0  0
   15.5682   24.5626   -1.3926 O   0  0  0  0  0  0  0  0  0  0  0  0
   19.3210   30.8504   -2.2380 C   0  0  1  0  0  0  0  0  0  0  0  0
   20.1052   29.6336   -2.3812 O   0  0  0  0  0  0  0  0  0  0  0  0
   21.6587   28.2297    0.2736 C   0  0  1  0  0  0  0  0  0  0  0  0
   20.9178   29.3558   -0.2021 O   0  0  0  0  0  0  0  0  0  0  0  0
   16.5880   25.4363   -3.3997 C   0  0  1  0  0  0  0  0  0  0  0  0
   15.3786   26.0578   -3.8060 O   0  0  0  0  0  0  0  0  0  0  0  0
   20.3453   31.9856   -1.9690 C   0  0  2  0  0  0  0  0  0  0  0  0
   20.9582   31.7714   -0.7070 O   0  0  0  0  0  0  0  0  0  0  0  0
   17.7851   26.2526   -3.8878 C   0  0  1  0  0  0  0  0  0  0  0  0
   18.9999   25.6269   -3.4777 O   0  0  0  0  0  0  0  0  0  0  0  0
   19.6151   33.3425   -1.9598 C   0  0  1  0  0  0  0  0  0  0  0  0
   20.5475   34.4016   -1.7123 O   0  0  0  0  0  0  0  0  0  0  0  0
   17.7443   26.3288   -5.4142 C   0  0  0  0  0  0  0  0  0  0  0  0
   17.7340   25.0137   -5.9459 O   0  0  0  0  0  0  0  0  0  0  0  0
   17.6501   36.2554   -1.5463 N   0  0  0  0  0  0  0  0  0  0  0  0
   17.1209   29.4999   -1.8761 N   0  0  0  0  0  0  0  0  0  0  0  0
  1  2  1  0  0  0  0
  1 39  1  0  0  0  0
  3  4  1  0  0  0  0
  5  6  1  0  0  0  0
  5 40  1  0  0  0  0
  9 10  1  1  0  0  0
  9 14  1  0  0  0  0
  9 35  1  0  0  0  0
 10  1  1  0  0  0  0
 11 16  1  0  0  0  0
 11 28  1  0  0  0  0
 11 26  1  6  0  0  0
 12 17  1  0  0  0  0
 12 34  1  0  0  0  0
 12 13  1  1  0  0  0
 14 15  1  6  0  0  0
 14 19  1  0  0  0  0
 16 13  1  1  0  0  0
 16 21  1  0  0  0  0
 17 18  1  1  0  0  0
 17 23  1  0  0  0  0
 18  8  1  0  0  0  0
 19 20  1  1  0  0  0
 19 25  1  0  0  0  0
 20  5  1  0  0  0  0
 21  3  1  6  0  0  0
 21 22  1  0  0  0  0
 21 27  1  0  0  0  0
 23 24  1  6  0  0  0
 23 29  1  0  0  0  0
 25 26  1  6  0  0  0
 25 31  1  0  0  0  0
 27  7  1  1  0  0  0
 27 28  1  0  0  0  0
 29 30  1  1  0  0  0
 29 33  1  0  0  0  0
 31 32  1  1  0  0  0
 31 35  1  0  0  0  0
 33 34  1  0  0  0  0
 33 37  1  6  0  0  0
 35 36  1  6  0  0  0
 37 38  1  0  0  0  0
M  END
>  <CHROM.1>
79.86406908,-42.10758080,154.85644149,151.32450805,162.86960463,-96.91226001
-55.63091935,98.62044324,-76.85754854,-140.16870165,-56.93562723,18.74584302
28.89455657,-2.03382433,1.57080609,-0.75460936,-0.09545608

>  <Name>
1ntb_lig

>  <RI>
0

>  <Rbt.Current_Directory>
/home/itssahil/PROJECTS/Mol_Feturizer/New_Systems/rnas/1ntb

>  <Rbt.Executable>
rbdock ($Id: //depot/dev/client3/rdock/2013.1/src/exe/rbdock.cxx#4 $)

>  <Rbt.Library>
libRbt.so (2013.1, Build901 2013/11/27)

>  <Rbt.Parameter_File>
/export/apps/rDock/src/rDock_2013.1_src/data/scripts/dock_solv.prm

>  <Rbt.Receptor>
prm/blind_docking_60.prm

>  <SCORE>
-9.30992

>  <SCORE.INTER>
-10.54

>  <SCORE.INTER.CONST>
1

>  <SCORE.INTER.POLAR>
-1.95517

>  <SCORE.INTER.ROT>
11

>  <SCORE.INTER.SOLV>
23.5689

>  <SCORE.INTER.VDW>
-19.2991

>  <SCORE.INTER.norm>
-0.2635

>  <SCORE.INTRA>
1.23008

>  <SCORE.INTRA.DIHEDRAL>
0.494504

>  <SCORE.INTRA.DIHEDRAL.0>
15.4453

>  <SCORE.INTRA.POLAR>
0

>  <SCORE.INTRA.POLAR.0>
0

>  <SCORE.INTRA.REPUL>
-0.805957

>  <SCORE.INTRA.REPUL.0>
0.823958

>  <SCORE.INTRA.SOLV>
7.26195

>  <SCORE.INTRA.SOLV.lig_0>
-99.3069

>  <SCORE.INTRA.VDW>
1.38164

>  <SCORE.INTRA.VDW.0>
0.946495

>  <SCORE.INTRA.norm>
0.030752

>  <SCORE.RESTR>
0

>  <SCORE.RESTR.CAVITY>
0

>  <SCORE.RESTR.norm>
0

>  <SCORE.SYSTEM>
0

>  <SCORE.SYSTEM.CONST>
0

>  <SCORE.SYSTEM.DIHEDRAL>
0

>  <SCORE.SYSTEM.SOLV>
0

>  <SCORE.SYSTEM.norm>
0

>  <SCORE.heavy>
40

>  <SCORE.norm>
-0.232748

>  <RMSD>
18.212

$$$$
1ntb_lig
 OpenBabel11021811403D
libRbt.so/2013.1/901 2013/11/27
 40 42  0  0  0  0  0  0  0  0999 V2000
   18.1307   35.7524   -1.3385 C   0  0  0  0  0  0  0  0  0  0  0  0
   18.0888   36.9461   -1.7895 N   0  0  0  0  0  0  0  0  0  0  0  0
   16.7917   24.9723   -1.5698 C   0  0  0  0  0  0  0  0  0  0  0  0
   15.4293   24.8294   -1.9357 O   0  0  0  0  0  0  0  0  0  0  0  0
   21.6599   31.2407   -1.1276 C   0  0  0  0  0  0  0  0  0  0  0  0
   21.7436   31.2469    0.1550 N   0  0  0  0  0  0  0  0  0  0  0  0
   15.8571   26.6698   -4.1823 C   0  0  0  0  0  0  0  0  0  0  0  0
   21.9426   23.8748   -2.1894 C   0  0  0  0  0  0  0  0  0  0  0  0
   18.0035   33.4140   -1.6239 C   0  0  2  0  0  0  0  0  0  0  0  0
   17.8882   34.8008   -2.2193 N   0  0  0  0  0  0  0  0  0  0  0  0
   18.3468   28.2348   -2.2568 C   0  0  2  0  0  0  0  0  0  0  0  0
   20.0815   25.5699   -0.6855 C   0  0  1  0  0  0  0  0  0  0  0  0
   19.6969   26.3910   -1.7727 O   0  0  0  0  0  0  0  0  0  0  0  0
   19.3343   32.7688   -1.9949 C   0  0  1  0  0  0  0  0  0  0  0  0
   20.3717   33.7121   -1.4793 O   0  0  0  0  0  0  0  0  0  0  0  0
   18.4355   26.8602   -1.6193 C   0  0  2  0  0  0  0  0  0  0  0  0
   21.5787   25.6606   -0.5166 C   0  0  1  0  0  0  0  0  0  0  0  0
   22.2250   25.1909   -1.6909 N   0  0  0  0  0  0  0  0  0  0  0  0
   19.4855   31.3534   -1.4414 C   0  0  2  0  0  0  0  0  0  0  0  0
   20.7353   30.6950   -1.7610 N   0  0  0  0  0  0  0  0  0  0  0  0
   17.4361   26.0537   -2.4053 C   0  0  1  0  0  0  0  0  0  0  0  0
   18.0676   25.4769   -3.5531 O   0  0  0  0  0  0  0  0  0  0  0  0
   21.9354   27.1188   -0.2817 C   0  0  2  0  0  0  0  0  0  0  0  0
   23.3304   27.2621   -0.1265 O   0  0  0  0  0  0  0  0  0  0  0  0
   18.3531   30.5189   -1.9815 C   0  0  1  0  0  0  0  0  0  0  0  0
   18.4486   29.2545   -1.2685 O   0  0  0  0  0  0  0  0  0  0  0  0
   16.4235   27.0485   -2.8384 C   0  0  1  0  0  0  0  0  0  0  0  0
   17.0848   28.3129   -2.9236 O   0  0  0  0  0  0  0  0  0  0  0  0
   21.2100   27.5554    0.9913 C   0  0  1  0  0  0  0  0  0  0  0  0
   21.4897   28.9171    1.2765 O   0  0  0  0  0  0  0  0  0  0  0  0
   16.9903   31.1369   -1.5679 C   0  0  2  0  0  0  0  0  0  0  0  0
   15.9390   30.3288   -2.0739 O   0  0  0  0  0  0  0  0  0  0  0  0
   19.7061   27.3601    0.7963 C   0  0  1  0  0  0  0  0  0  0  0  0
   19.4269   25.9909    0.5089 O   0  0  0  0  0  0  0  0  0  0  0  0
   16.8727   32.5566   -2.1550 C   0  0  1  0  0  0  0  0  0  0  0  0
   15.6190   33.1413   -1.7822 O   0  0  0  0  0  0  0  0  0  0  0  0
   18.9826   27.7662    2.0805 C   0  0  0  0  0  0  0  0  0  0  0  0
   19.1835   29.1516    2.3100 O   0  0  0  0  0  0  0  0  0  0  0  0
   18.3681   35.4898   -0.1014 N   0  0  0  0  0  0  0  0  0  0  0  0
   22.5102   31.8527   -1.7978 N   0  0  0  0  0  0  0  0  0  0  0  0
  1  2  1  0  0  0  0
  1 39  1  0  0  0  0
  3  4  1  0  0  0  0
  5  6  1  0  0  0  0
  5 40  1  0  0  0  0
  9 10  1  6  0  0  0
  9 14  1  0  0  0  0
  9 35  1  0  0  0  0
 10  1  1  0  0  0  0
 11 16  1  0  0  0  0
 11 28  1  0  0  0  0
 11 26  1  1  0  0  0
 12 17  1  0  0  0  0
 12 34  1  0  0  0  0
 12 13  1  6  0  0  0
 14 15  1  1  0  0  0
 14 19  1  0  0  0  0
 16 13  1  6  0  0  0
 16 21  1  0  0  0  0
 17 18  1  6  0  0  0
 17 23  1  0  0  0  0
 18  8  1  0  0  0  0
 19 20  1  6  0  0  0
 19 25  1  0  0  0  0
 20  5  1  0  0  0  0
 21  3  1  1  0  0  0
 21 22  1  0  0  0  0
 21 27  1  0  0  0  0
 23 24  1  1  0  0  0
 23 29  1  0  0  0  0
 25 26  1  1  0  0  0
 25 31  1  0  0  0  0
 27  7  1  6  0  0  0
 27 28  1  0  0  0  0
 29 30  1  6  0  0  0
 29 33  1  0  0  0  0
 31 32  1  6  0  0  0
 31 35  1  0  0  0  0
 33 34  1  0  0  0  0
 33 37  1  1  0  0  0
 35 36  1  1  0  0  0
 37 38  1  0  0  0  0
M  END
>  <CHROM.1>
-101.33883110,177.96832197,179.97240734,-151.25221670,147.85649389,-55.69914209
70.24976874,63.52407145,143.29631326,-132.56279798,64.03595365,19.06585630
29.26812495,-1.24415310,1.72089912,-0.42728460,0.03769020

>  <Name>
1ntb_lig

>  <RI>
0

>  <Rbt.Current_Directory>
/home/itssahil/PROJECTS/Mol_Feturizer/New_Systems/rnas/1ntb

>  <Rbt.Executable>
rbdock ($Id: //depot/dev/client3/rdock/2013.1/src/exe/rbdock.cxx#4 $)

>  <Rbt.Library>
libRbt.so (2013.1, Build901 2013/11/27)

>  <Rbt.Parameter_File>
/export/apps/rDock/src/rDock_2013.1_src/data/scripts/dock_solv.prm

>  <Rbt.Receptor>
prm/blind_docking_60.prm

>  <SCORE>
-8.60645

>  <SCORE.INTER>
-7.97766

>  <SCORE.INTER.CONST>
1

>  <SCORE.INTER.POLAR>
0

>  <SCORE.INTER.ROT>
11

>  <SCORE.INTER.SOLV>
24.228

>  <SCORE.INTER.VDW>
-24.3278

>  <SCORE.INTER.norm>
-0.199441

>  <SCORE.INTRA>
-0.628798

>  <SCORE.INTRA.DIHEDRAL>
4.10558

>  <SCORE.INTRA.DIHEDRAL.0>
15.4453

>  <SCORE.INTRA.POLAR>
0

>  <SCORE.INTRA.POLAR.0>
0

>  <SCORE.INTRA.REPUL>
-0.823958

>  <SCORE.INTRA.REPUL.0>
0.823958

>  <SCORE.INTRA.SOLV>
0.637905

>  <SCORE.INTRA.SOLV.lig_0>
-99.3069

>  <SCORE.INTRA.VDW>
1.11925

>  <SCORE.INTRA.VDW.0>
0.946495

>  <SCORE.INTRA.norm>
-0.0157199

>  <SCORE.RESTR>
0

>  <SCORE.RESTR.CAVITY>
0

>  <SCORE.RESTR.norm>
0

>  <SCORE.SYSTEM>
0

>  <SCORE.SYSTEM.CONST>
0

>  <SCORE.SYSTEM.DIHEDRAL>
0

>  <SCORE.SYSTEM.SOLV>
0

>  <SCORE.SYSTEM.norm>
0

>  <SCORE.heavy>
40

>  <SCORE.norm>
-0.215161

>  <RMSD>
18.217

$$$$
1ntb_lig
 OpenBabel11021811403D
libRbt.so/2013.1/901 2013/11/27
 40 42  0  0  0  0  0  0  0  0999 V2000
   18.1084   33.3640   -3.7985 C   0  0  0  0  0  0  0  0  0  0  0  0
   18.8612   33.4861   -4.8225 N   0  0  0  0  0  0  0  0  0  0  0  0
   20.9403   25.0381    0.4706 C   0  0  0  0  0  0  0  0  0  0  0  0
   21.1389   23.8008    1.1339 O   0  0  0  0  0  0  0  0  0  0  0  0
   21.5449   30.7419    0.3118 C   0  0  0  0  0  0  0  0  0  0  0  0
   22.4902   31.5511   -0.0100 N   0  0  0  0  0  0  0  0  0  0  0  0
   19.2185   25.0032    3.2299 C   0  0  0  0  0  0  0  0  0  0  0  0
   21.6121   24.8933   -2.5991 C   0  0  0  0  0  0  0  0  0  0  0  0
   17.8685   31.6454   -2.2001 C   0  0  2  0  0  0  0  0  0  0  0  0
   17.6069   32.1603   -3.5992 N   0  0  0  0  0  0  0  0  0  0  0  0
   18.4977   27.7135    1.1110 C   0  0  2  0  0  0  0  0  0  0  0  0
   19.1144   27.0084   -2.1661 C   0  0  1  0  0  0  0  0  0  0  0  0
   18.4974   26.6193   -0.9529 O   0  0  0  0  0  0  0  0  0  0  0  0
   19.2897   31.1080   -2.0723 C   0  0  1  0  0  0  0  0  0  0  0  0
   20.1669   32.2591   -2.4429 O   0  0  0  0  0  0  0  0  0  0  0  0
   19.2879   26.8852    0.1143 C   0  0  2  0  0  0  0  0  0  0  0  0
   19.3389   25.7779   -3.0112 C   0  0  1  0  0  0  0  0  0  0  0  0
   20.2021   24.8779   -2.3313 N   0  0  0  0  0  0  0  0  0  0  0  0
   19.5928   30.5481   -0.6841 C   0  0  2  0  0  0  0  0  0  0  0  0
   20.9328   30.0278   -0.5065 N   0  0  0  0  0  0  0  0  0  0  0  0
   19.6201   25.6396    0.8923 C   0  0  1  0  0  0  0  0  0  0  0  0
   18.5716   24.6764    0.7440 O   0  0  0  0  0  0  0  0  0  0  0  0
   17.9901   25.1189   -3.2454 C   0  0  2  0  0  0  0  0  0  0  0  0
   18.1441   23.9531   -4.0251 O   0  0  0  0  0  0  0  0  0  0  0  0
   18.6088   29.4423   -0.4030 C   0  0  1  0  0  0  0  0  0  0  0  0
   18.8287   29.0931    0.9920 O   0  0  0  0  0  0  0  0  0  0  0  0
   19.6841   26.0961    2.3030 C   0  0  1  0  0  0  0  0  0  0  0  0
   18.8265   27.2340    2.4169 O   0  0  0  0  0  0  0  0  0  0  0  0
   17.1172   26.1383   -3.9777 C   0  0  1  0  0  0  0  0  0  0  0  0
   15.8301   25.5961   -4.2289 O   0  0  0  0  0  0  0  0  0  0  0  0
   17.1572   29.9873   -0.4798 C   0  0  2  0  0  0  0  0  0  0  0  0
   16.2481   28.9344   -0.1982 O   0  0  0  0  0  0  0  0  0  0  0  0
   16.9961   27.3961   -3.1167 C   0  0  1  0  0  0  0  0  0  0  0  0
   18.2909   27.9392   -2.8645 O   0  0  0  0  0  0  0  0  0  0  0  0
   16.8885   30.5304   -1.8965 C   0  0  1  0  0  0  0  0  0  0  0  0
   15.5515   31.0375   -1.9840 O   0  0  0  0  0  0  0  0  0  0  0  0
   16.1500   28.4281   -3.8628 C   0  0  0  0  0  0  0  0  0  0  0  0
   17.0050   29.2801   -4.6081 O   0  0  0  0  0  0  0  0  0  0  0  0
   17.8328   34.3528   -3.0225 N   0  0  0  0  0  0  0  0  0  0  0  0
   21.2392   30.6056    1.5096 N   0  0  0  0  0  0  0  0  0  0  0  0
  1  2  1  0  0  0  0
  1 39  1  0  0  0  0
  3  4  1  0  0  0  0
  5  6  1  0  0  0  0
  5 40  1  0  0  0  0
  9 10  1  6  0  0  0
  9 14  1  0  0  0  0
  9 35  1  0  0  0  0
 10  1  1  0  0  0  0
 11 16  1  0  0  0  0
 11 28  1  0  0  0  0
 11 26  1  1  0  0  0
 12 17  1  0  0  0  0
 12 34  1  0  0  0  0
 12 13  1  1  0  0  0
 14 15  1  1  0  0  0
 14 19  1  0  0  0  0
 16 13  1  6  0  0  0
 16 21  1  0  0  0  0
 17 18  1  1  0  0  0
 17 23  1  0  0  0  0
 18  8  1  0  0  0  0
 19 20  1  6  0  0  0
 19 25  1  0  0  0  0
 20  5  1  0  0  0  0
 21  3  1  6  0  0  0
 21 22  1  0  0  0  0
 21 27  1  0  0  0  0
 23 24  1  6  0  0  0
 23 29  1  0  0  0  0
 25 26  1  1  0  0  0
 25 31  1  0  0  0  0
 27  7  1  1  0  0  0
 27 28  1  0  0  0  0
 29 30  1  1  0  0  0
 29 33  1  0  0  0  0
 31 32  1  6  0  0  0
 31 35  1  0  0  0  0
 33 34  1  0  0  0  0
 33 37  1  6  0  0  0
 35 36  1  1  0  0  0
 37 38  1  0  0  0  0
M  END
>  <CHROM.1>
-79.44746487,127.41266394,54.82073436,116.75835267,126.33048519,-95.07587846
113.73292975,-107.84058575,-174.10504618,-150.40752471,-92.82095825,18.75227903
28.35156493,-1.34548662,1.89783681,-1.01495674,-0.09608838

>  <Name>
1ntb_lig

>  <RI>
0

>  <Rbt.Current_Directory>
/home/itssahil/PROJECTS/Mol_Feturizer/New_Systems/rnas/1ntb

>  <Rbt.Executable>
rbdock ($Id: //depot/dev/client3/rdock/2013.1/src/exe/rbdock.cxx#4 $)

>  <Rbt.Library>
libRbt.so (2013.1, Build901 2013/11/27)

>  <Rbt.Parameter_File>
/export/apps/rDock/src/rDock_2013.1_src/data/scripts/dock_solv.prm

>  <Rbt.Receptor>
prm/blind_docking_80.prm

>  <SCORE>
-7.77129

>  <SCORE.INTER>
-4.61377

>  <SCORE.INTER.CONST>
1

>  <SCORE.INTER.POLAR>
-0.302011

>  <SCORE.INTER.ROT>
11

>  <SCORE.INTER.SOLV>
27.7548

>  <SCORE.INTER.VDW>
-22.2541

>  <SCORE.INTER.norm>
-0.115344

>  <SCORE.INTRA>
-3.88394

>  <SCORE.INTRA.DIHEDRAL>
8.56211

>  <SCORE.INTRA.DIHEDRAL.0>
15.4453

>  <SCORE.INTRA.POLAR>
0

>  <SCORE.INTRA.POLAR.0>
0

>  <SCORE.INTRA.REPUL>
-0.820903

>  <SCORE.INTRA.REPUL.0>
0.823958

>  <SCORE.INTRA.SOLV>
1.8044

>  <SCORE.INTRA.SOLV.lig_0>
-99.3069

>  <SCORE.INTRA.VDW>
-4.96267

>  <SCORE.INTRA.VDW.0>
0.946495

>  <SCORE.INTRA.norm>
-0.0970984

>  <SCORE.RESTR>
0.726419

>  <SCORE.RESTR.CAVITY>
0.726419

>  <SCORE.RESTR.norm>
0.0181605

>  <SCORE.SYSTEM>
0

>  <SCORE.SYSTEM.CONST>
0

>  <SCORE.SYSTEM.DIHEDRAL>
0

>  <SCORE.SYSTEM.SOLV>
0

>  <SCORE.SYSTEM.norm>
0

>  <SCORE.heavy>
40

>  <SCORE.norm>
-0.194282

>  <RMSD>
18.226

$$$$
1ntb_lig
 OpenBabel11021811403D
libRbt.so/2013.1/901 2013/11/27
 40 42  0  0  0  0  0  0  0  0999 V2000
   18.3155   35.7214   -1.1699 C   0  0  0  0  0  0  0  0  0  0  0  0
   19.4273   36.3303   -1.3230 N   0  0  0  0  0  0  0  0  0  0  0  0
   15.8005   26.5159   -2.3667 C   0  0  0  0  0  0  0  0  0  0  0  0
   16.3720   25.2187   -2.3346 O   0  0  0  0  0  0  0  0  0  0  0  0
   21.9159   31.0532   -0.6648 C   0  0  0  0  0  0  0  0  0  0  0  0
   22.9368   31.7665   -0.3469 N   0  0  0  0  0  0  0  0  0  0  0  0
   15.4966   29.0548   -4.3772 C   0  0  0  0  0  0  0  0  0  0  0  0
   18.8124   23.7738   -3.9746 C   0  0  0  0  0  0  0  0  0  0  0  0
   18.3400   33.6978    0.0426 C   0  0  2  0  0  0  0  0  0  0  0  0
   18.1133   35.1941    0.0223 N   0  0  0  0  0  0  0  0  0  0  0  0
   18.4108   29.1080   -2.4124 C   0  0  2  0  0  0  0  0  0  0  0  0
   19.0726   25.6774   -1.7522 C   0  0  1  0  0  0  0  0  0  0  0  0
   19.0178   26.8556   -2.5351 O   0  0  0  0  0  0  0  0  0  0  0  0
   19.6007   33.3254   -0.7300 C   0  0  1  0  0  0  0  0  0  0  0  0
   20.6966   34.0897   -0.0617 O   0  0  0  0  0  0  0  0  0  0  0  0
   18.0108   27.6698   -2.1378 C   0  0  2  0  0  0  0  0  0  0  0  0
   20.2224   24.8277   -2.2365 C   0  0  1  0  0  0  0  0  0  0  0  0
   20.0128   24.4620   -3.5928 N   0  0  0  0  0  0  0  0  0  0  0  0
   19.8563   31.8200   -0.7640 C   0  0  2  0  0  0  0  0  0  0  0  0
   21.0456   31.4112   -1.4824 N   0  0  0  0  0  0  0  0  0  0  0  0
   16.7769   27.4911   -2.9820 C   0  0  1  0  0  0  0  0  0  0  0  0
   17.1422   27.0571   -4.2962 O   0  0  0  0  0  0  0  0  0  0  0  0
   21.4946   25.6498   -2.1163 C   0  0  2  0  0  0  0  0  0  0  0  0
   22.6036   24.9032   -2.5671 O   0  0  0  0  0  0  0  0  0  0  0  0
   18.6615   31.1591   -1.4009 C   0  0  1  0  0  0  0  0  0  0  0  0
   18.8863   29.7327   -1.2247 O   0  0  0  0  0  0  0  0  0  0  0  0
   16.1815   28.8488   -3.0509 C   0  0  1  0  0  0  0  0  0  0  0  0
   17.2506   29.7856   -2.9004 O   0  0  0  0  0  0  0  0  0  0  0  0
   21.6570   26.0058   -0.6384 C   0  0  1  0  0  0  0  0  0  0  0  0
   22.8276   26.7840   -0.4439 O   0  0  0  0  0  0  0  0  0  0  0  0
   17.3764   31.4885   -0.5945 C   0  0  2  0  0  0  0  0  0  0  0  0
   16.2667   30.8456   -1.2022 O   0  0  0  0  0  0  0  0  0  0  0  0
   20.4264   26.7883   -0.1791 C   0  0  1  0  0  0  0  0  0  0  0  0
   19.2505   26.0048   -0.3761 O   0  0  0  0  0  0  0  0  0  0  0  0
   17.1483   33.0124   -0.5947 C   0  0  1  0  0  0  0  0  0  0  0  0
   15.9648   33.3332    0.1461 O   0  0  0  0  0  0  0  0  0  0  0  0
   20.5735   27.1167    1.3069 C   0  0  0  0  0  0  0  0  0  0  0  0
   20.3000   25.9527    2.0702 O   0  0  0  0  0  0  0  0  0  0  0  0
   17.4559   35.6045   -2.1201 N   0  0  0  0  0  0  0  0  0  0  0  0
   21.7934   29.9135   -0.1824 N   0  0  0  0  0  0  0  0  0  0  0  0
  1  2  1  0  0  0  0
  1 39  1  0  0  0  0
  3  4  1  0  0  0  0
  5  6  1  0  0  0  0
  5 40  1  0  0  0  0
  9 10  1  6  0  0  0
  9 14  1  0  0  0  0
  9 35  1  0  0  0  0
 10  1  1  0  0  0  0
 11 16  1  0  0  0  0
 11 28  1  0  0  0  0
 11 26  1  1  0  0  0
 12 17  1  0  0  0  0
 12 34  1  0  0  0  0
 12 13  1  6  0  0  0
 14 15  1  1  0  0  0
 14 19  1  0  0  0  0
 16 13  1  6  0  0  0
 16 21  1  0  0  0  0
 17 18  1  6  0  0  0
 17 23  1  0  0  0  0
 18  8  1  0  0  0  0
 19 20  1  6  0  0  0
 19 25  1  0  0  0  0
 20  5  1  0  0  0  0
 21  3  1  1  0  0  0
 21 22  1  0  0  0  0
 21 27  1  0  0  0  0
 23 24  1  1  0  0  0
 23 29  1  0  0  0  0
 25 26  1  1  0  0  0
 25 31  1  0  0  0  0
 27  7  1  6  0  0  0
 27 28  1  0  0  0  0
 29 30  1  6  0  0  0
 29 33  1  0  0  0  0
 31 32  1  6  0  0  0
 31 35  1  0  0  0  0
 33 34  1  0  0  0  0
 33 37  1  1  0  0  0
 35 36  1  1  0  0  0
 37 38  1  0  0  0  0
M  END
>  <CHROM.1>
43.52954015,-102.23430128,-154.64725899,-179.33072157,149.70230718,-56.31907358
106.66113722,-103.98295944,-65.39842818,-142.71309704,-76.43612621,19.02872980
29.31996105,-1.44218882,1.70347932,-0.42207932,0.20023232

>  <Name>
1ntb_lig

>  <RI>
0

>  <Rbt.Current_Directory>
/home/itssahil/PROJECTS/Mol_Feturizer/New_Systems/rnas/1ntb

>  <Rbt.Executable>
rbdock ($Id: //depot/dev/client3/rdock/2013.1/src/exe/rbdock.cxx#4 $)

>  <Rbt.Library>
libRbt.so (2013.1, Build901 2013/11/27)

>  <Rbt.Parameter_File>
/export/apps/rDock/src/rDock_2013.1_src/data/scripts/dock_solv.prm

>  <Rbt.Receptor>
prm/blind_docking_60.prm

>  <SCORE>
5.70756

>  <SCORE.INTER>
5.87338

>  <SCORE.INTER.CONST>
1

>  <SCORE.INTER.POLAR>
-0.218281

>  <SCORE.INTER.ROT>
11

>  <SCORE.INTER.SOLV>
25.1685

>  <SCORE.INTER.VDW>
-14.6796

>  <SCORE.INTER.norm>
0.146834

>  <SCORE.INTRA>
-1.38743

>  <SCORE.INTRA.DIHEDRAL>
-0.934284

>  <SCORE.INTRA.DIHEDRAL.0>
15.4453

>  <SCORE.INTRA.POLAR>
0

>  <SCORE.INTRA.POLAR.0>
0

>  <SCORE.INTRA.REPUL>
-0.823958

>  <SCORE.INTRA.REPUL.0>
0.823958

>  <SCORE.INTRA.SOLV>
2.73748

>  <SCORE.INTRA.SOLV.lig_0>
-99.3069

>  <SCORE.INTRA.VDW>
1.83075

>  <SCORE.INTRA.VDW.0>
0.946495

>  <SCORE.INTRA.norm>
-0.0346858

>  <SCORE.RESTR>
1.22161

>  <SCORE.RESTR.CAVITY>
1.22161

>  <SCORE.RESTR.norm>
0.0305403

>  <SCORE.SYSTEM>
0

>  <SCORE.SYSTEM.CONST>
0

>  <SCORE.SYSTEM.DIHEDRAL>
0

>  <SCORE.SYSTEM.SOLV>
0

>  <SCORE.SYSTEM.norm>
0

>  <SCORE.heavy>
40

>  <SCORE.norm>
0.142689

>  <RMSD>
18.231

$$$$
1ntb_lig
 OpenBabel11021811403D
libRbt.so/2013.1/901 2013/11/27
 40 42  0  0  0  0  0  0  0  0999 V2000
   18.1021   26.5428    6.5103 C   0  0  0  0  0  0  0  0  0  0  0  0
   17.6621   27.6795    6.8905 N   0  0  0  0  0  0  0  0  0  0  0  0
   19.8348   26.3060   -3.7274 C   0  0  0  0  0  0  0  0  0  0  0  0
   19.6559   25.2450   -4.6507 O   0  0  0  0  0  0  0  0  0  0  0  0
   20.2954   29.7686    1.8693 C   0  0  0  0  0  0  0  0  0  0  0  0
   20.4681   30.9227    2.4081 N   0  0  0  0  0  0  0  0  0  0  0  0
   18.6774   23.6006   -2.3414 C   0  0  0  0  0  0  0  0  0  0  0  0
   14.7446   29.2562   -3.1612 C   0  0  0  0  0  0  0  0  0  0  0  0
   19.9464   26.5232    5.0392 C   0  0  2  0  0  0  0  0  0  0  0  0
   19.4151   26.4292    6.4534 N   0  0  0  0  0  0  0  0  0  0  0  0
   19.1525   26.2766   -0.1124 C   0  0  2  0  0  0  0  0  0  0  0  0
   18.4285   28.8053   -2.6108 C   0  0  1  0  0  0  0  0  0  0  0  0
   18.3540   28.0370   -1.4241 O   0  0  0  0  0  0  0  0  0  0  0  0
   19.3753   27.7407    4.3205 C   0  0  1  0  0  0  0  0  0  0  0  0
   19.7705   28.9044    5.1698 O   0  0  0  0  0  0  0  0  0  0  0  0
   19.2954   27.0633   -1.4026 C   0  0  2  0  0  0  0  0  0  0  0  0
   17.1580   29.6088   -2.7475 C   0  0  1  0  0  0  0  0  0  0  0  0
   16.0430   28.7340   -2.8424 N   0  0  0  0  0  0  0  0  0  0  0  0
   19.8592   27.8623    2.8771 C   0  0  2  0  0  0  0  0  0  0  0  0
   19.3498   29.0058    2.1486 N   0  0  0  0  0  0  0  0  0  0  0  0
   19.0539   26.0241   -2.4651 C   0  0  1  0  0  0  0  0  0  0  0  0
   17.6556   25.9427   -2.7604 O   0  0  0  0  0  0  0  0  0  0  0  0
   17.0220   30.4828   -1.5121 C   0  0  2  0  0  0  0  0  0  0  0  0
   15.8407   31.2508   -1.5840 O   0  0  0  0  0  0  0  0  0  0  0  0
   19.4562   26.6093    2.1437 C   0  0  1  0  0  0  0  0  0  0  0  0
   20.1104   26.7087    0.8482 O   0  0  0  0  0  0  0  0  0  0  0  0
   19.5089   24.7549   -1.8450 C   0  0  1  0  0  0  0  0  0  0  0  0
   19.3549   24.8979   -0.4311 O   0  0  0  0  0  0  0  0  0  0  0  0
   18.2488   31.3944   -1.4740 C   0  0  1  0  0  0  0  0  0  0  0  0
   18.1983   32.2428   -0.3376 O   0  0  0  0  0  0  0  0  0  0  0  0
   20.0731   25.3640    2.8357 C   0  0  2  0  0  0  0  0  0  0  0  0
   19.6934   24.1977    2.1218 O   0  0  0  0  0  0  0  0  0  0  0  0
   19.5081   30.5285   -1.4247 C   0  0  1  0  0  0  0  0  0  0  0  0
   19.5567   29.6757   -2.5674 O   0  0  0  0  0  0  0  0  0  0  0  0
   19.5514   25.2713    4.2826 C   0  0  1  0  0  0  0  0  0  0  0  0
   20.1118   24.1259    4.9356 O   0  0  0  0  0  0  0  0  0  0  0  0
   20.7362   31.4392   -1.4192 C   0  0  0  0  0  0  0  0  0  0  0  0
   21.8925   30.6599   -1.1583 O   0  0  0  0  0  0  0  0  0  0  0  0
   17.3206   25.5759    6.1784 N   0  0  0  0  0  0  0  0  0  0  0  0
   21.0733   29.3892    0.9763 N   0  0  0  0  0  0  0  0  0  0  0  0
  1  2  1  0  0  0  0
  1 39  1  0  0  0  0
  3  4  1  0  0  0  0
  5  6  1  0  0  0  0
  5 40  1  0  0  0  0
  9 10  1  1  0  0  0
  9 14  1  0  0  0  0
  9 35  1  0  0  0  0
 10  1  1  0  0  0  0
 11 16  1  0  0  0  0
 11 28  1  0  0  0  0
 11 26  1  1  0  0  0
 12 17  1  0  0  0  0
 12 34  1  0  0  0  0
 12 13  1  1  0  0  0
 14 15  1  1  0  0  0
 14 19  1  0  0  0  0
 16 13  1  1  0  0  0
 16 21  1  0  0  0  0
 17 18  1  1  0  0  0
 17 23  1  0  0  0  0
 18  8  1  0  0  0  0
 19 20  1  6  0  0  0
 19 25  1  0  0  0  0
 20  5  1  0  0  0  0
 21  3  1  6  0  0  0
 21 22  1  0  0  0  0
 21 27  1  0  0  0  0
 23 24  1  6  0  0  0
 23 29  1  0  0  0  0
 25 26  1  6  0  0  0
 25 31  1  0  0  0  0
 27  7  1  6  0  0  0
 27 28  1  0  0  0  0
 29 30  1  1  0  0  0
 29 33  1  0  0  0  0
 31 32  1  6  0  0  0
 31 35  1  0  0  0  0
 33 34  1  0  0  0  0
 33 37  1  6  0  0  0
 35 36  1  1  0  0  0
 37 38  1  0  0  0  0
M  END
>  <CHROM.1>
49.55958472,-102.32729843,145.05025235,165.07091781,-179.63987990,-171.53312197
114.96577352,-109.94547789,175.31949469,-137.95442098,170.72302108,18.98664214
27.76731727,0.55455001,0.37453130,-1.43693444,0.67036876

>  <Name>
1ntb_lig

>  <RI>
0

>  <Rbt.Current_Directory>
/home/itssahil/PROJECTS/Mol_Feturizer/New_Systems/rnas/1ntb

>  <Rbt.Executable>
rbdock ($Id: //depot/dev/client3/rdock/2013.1/src/exe/rbdock.cxx#4 $)

>  <Rbt.Library>
libRbt.so (2013.1, Build901 2013/11/27)

>  <Rbt.Parameter_File>
/export/apps/rDock/src/rDock_2013.1_src/data/scripts/dock_solv.prm

>  <Rbt.Receptor>
prm/blind_docking_40.prm

>  <SCORE>
-12.259

>  <SCORE.INTER>
-7.92516

>  <SCORE.INTER.CONST>
1

>  <SCORE.INTER.POLAR>
-0.78898

>  <SCORE.INTER.ROT>
11

>  <SCORE.INTER.SOLV>
10.896

>  <SCORE.INTER.VDW>
-17.2188

>  <SCORE.INTER.norm>
-0.198129

>  <SCORE.INTRA>
-5.5763

>  <SCORE.INTRA.DIHEDRAL>
-1.45856

>  <SCORE.INTRA.DIHEDRAL.0>
15.4453

>  <SCORE.INTRA.POLAR>
0

>  <SCORE.INTRA.POLAR.0>
0

>  <SCORE.INTRA.REPUL>
-0.823958

>  <SCORE.INTRA.REPUL.0>
0.823958

>  <SCORE.INTRA.SOLV>
5.53175

>  <SCORE.INTRA.SOLV.lig_0>
-99.3069

>  <SCORE.INTRA.VDW>
-3.49311

>  <SCORE.INTRA.VDW.0>
0.946495

>  <SCORE.INTRA.norm>
-0.139408

>  <SCORE.RESTR>
1.24242

>  <SCORE.RESTR.CAVITY>
1.24242

>  <SCORE.RESTR.norm>
0.0310605

>  <SCORE.SYSTEM>
0

>  <SCORE.SYSTEM.CONST>
0

>  <SCORE.SYSTEM.DIHEDRAL>
0

>  <SCORE.SYSTEM.SOLV>
0

>  <SCORE.SYSTEM.norm>
0

>  <SCORE.heavy>
40

>  <SCORE.norm>
-0.306476

>  <RMSD>
18.242

$$$$
1ntb_lig
 OpenBabel11021811403D
libRbt.so/2013.1/901 2013/11/27
 40 42  0  0  0  0  0  0  0  0999 V2000
   19.4270   28.6793    7.4929 C   0  0  0  0  0  0  0  0  0  0  0  0
   20.0862   29.6768    7.9408 N   0  0  0  0  0  0  0  0  0  0  0  0
   19.4692   24.2668   -2.5725 C   0  0  0  0  0  0  0  0  0  0  0  0
   19.0497   23.0060   -3.0672 O   0  0  0  0  0  0  0  0  0  0  0  0
   20.8039   29.7160    1.0859 C   0  0  0  0  0  0  0  0  0  0  0  0
   21.5709   28.7764    0.6606 N   0  0  0  0  0  0  0  0  0  0  0  0
   18.1952   22.5716   -0.1061 C   0  0  0  0  0  0  0  0  0  0  0  0
   16.5998   25.1472   -4.6832 C   0  0  0  0  0  0  0  0  0  0  0  0
   19.2866   28.2964    5.1692 C   0  0  2  0  0  0  0  0  0  0  0  0
   18.6971   28.9135    6.4193 N   0  0  0  0  0  0  0  0  0  0  0  0
   18.7183   25.9755    0.5978 C   0  0  2  0  0  0  0  0  0  0  0  0
   18.3184   27.2675   -2.7529 C   0  0  1  0  0  0  0  0  0  0  0  0
   18.0046   26.9157   -1.4180 O   0  0  0  0  0  0  0  0  0  0  0  0
   19.1764   29.2501    3.9846 C   0  0  1  0  0  0  0  0  0  0  0  0
   19.8970   30.4839    4.4207 O   0  0  0  0  0  0  0  0  0  0  0  0
   18.9120   26.0502   -0.9057 C   0  0  2  0  0  0  0  0  0  0  0  0
   17.0411   27.3049   -3.5564 C   0  0  1  0  0  0  0  0  0  0  0  0
   16.4344   26.0206   -3.5562 N   0  0  0  0  0  0  0  0  0  0  0  0
   19.7315   28.6596    2.6901 C   0  0  2  0  0  0  0  0  0  0  0  0
   19.6556   29.5269    1.5327 N   0  0  0  0  0  0  0  0  0  0  0  0
   18.6556   24.6359   -1.3541 C   0  0  1  0  0  0  0  0  0  0  0  0
   17.2611   24.4527   -1.6208 O   0  0  0  0  0  0  0  0  0  0  0  0
   16.1091   28.3138   -2.9067 C   0  0  2  0  0  0  0  0  0  0  0  0
   14.8910   28.3814   -3.6154 O   0  0  0  0  0  0  0  0  0  0  0  0
   18.9695   27.3946    2.3911 C   0  0  1  0  0  0  0  0  0  0  0  0
   19.6720   26.7927    1.2684 O   0  0  0  0  0  0  0  0  0  0  0  0
   19.0557   23.8056   -0.1910 C   0  0  1  0  0  0  0  0  0  0  0  0
   18.8800   24.6073    0.9793 O   0  0  0  0  0  0  0  0  0  0  0  0
   16.8219   29.6659   -2.9421 C   0  0  1  0  0  0  0  0  0  0  0  0
   16.0126   30.6664   -2.3439 O   0  0  0  0  0  0  0  0  0  0  0  0
   19.1149   26.3930    3.5684 C   0  0  2  0  0  0  0  0  0  0  0  0
   18.4026   25.2047    3.2605 O   0  0  0  0  0  0  0  0  0  0  0  0
   18.1478   29.5468   -2.1899 C   0  0  1  0  0  0  0  0  0  0  0  0
   18.9597   28.5401   -2.7921 O   0  0  0  0  0  0  0  0  0  0  0  0
   18.5335   27.0210    4.8497 C   0  0  1  0  0  0  0  0  0  0  0  0
   18.6599   26.1082    5.9465 O   0  0  0  0  0  0  0  0  0  0  0  0
   18.8759   30.8898   -2.2526 C   0  0  0  0  0  0  0  0  0  0  0  0
   20.1904   30.7309   -1.7435 O   0  0  0  0  0  0  0  0  0  0  0  0
   19.4490   27.5255    8.0621 N   0  0  0  0  0  0  0  0  0  0  0  0
   21.2278   30.8849    1.1130 N   0  0  0  0  0  0  0  0  0  0  0  0
  1  2  1  0  0  0  0
  1 39  1  0  0  0  0
  3  4  1  0  0  0  0
  5  6  1  0  0  0  0
  5 40  1  0  0  0  0
  9 10  1  1  0  0  0
  9 14  1  0  0  0  0
  9 35  1  0  0  0  0
 10  1  1  0  0  0  0
 11 16  1  0  0  0  0
 11 28  1  0  0  0  0
 11 26  1  1  0  0  0
 12 17  1  0  0  0  0
 12 34  1  0  0  0  0
 12 13  1  1  0  0  0
 14 15  1  1  0  0  0
 14 19  1  0  0  0  0
 16 13  1  6  0  0  0
 16 21  1  0  0  0  0
 17 18  1  1  0  0  0
 17 23  1  0  0  0  0
 18  8  1  0  0  0  0
 19 20  1  6  0  0  0
 19 25  1  0  0  0  0
 20  5  1  0  0  0  0
 21  3  1  6  0  0  0
 21 22  1  0  0  0  0
 21 27  1  0  0  0  0
 23 24  1  6  0  0  0
 23 29  1  0  0  0  0
 25 26  1  6  0  0  0
 25 31  1  0  0  0  0
 27  7  1  1  0  0  0
 27 28  1  0  0  0  0
 29 30  1  1  0  0  0
 29 33  1  0  0  0  0
 31 32  1  6  0  0  0
 31 35  1  0  0  0  0
 33 34  1  0  0  0  0
 33 37  1  6  0  0  0
 35 36  1  1  0  0  0
 37 38  1  0  0  0  0
M  END
>  <CHROM.1>
-138.50383763,106.82282068,141.94261972,139.13500711,166.53979230,-99.58718955
120.97475082,60.33824328,-171.49232607,-155.20074289,-170.91906999,18.65592501
27.42903309,0.62678929,0.16008965,1.34360832,2.78773474

>  <Name>
1ntb_lig

>  <RI>
0

>  <Rbt.Current_Directory>
/home/itssahil/PROJECTS/Mol_Feturizer/New_Systems/rnas/1ntb

>  <Rbt.Executable>
rbdock ($Id: //depot/dev/client3/rdock/2013.1/src/exe/rbdock.cxx#4 $)

>  <Rbt.Library>
libRbt.so (2013.1, Build901 2013/11/27)

>  <Rbt.Parameter_File>
/export/apps/rDock/src/rDock_2013.1_src/data/scripts/dock_solv.prm

>  <Rbt.Receptor>
prm/blind_docking_40.prm

>  <SCORE>
-24.5666

>  <SCORE.INTER>
-17.4085

>  <SCORE.INTER.CONST>
1

>  <SCORE.INTER.POLAR>
-1.82327

>  <SCORE.INTER.ROT>
11

>  <SCORE.INTER.SOLV>
10.6342

>  <SCORE.INTER.VDW>
-20.0062

>  <SCORE.INTER.norm>
-0.435213

>  <SCORE.INTRA>
-7.64574

>  <SCORE.INTRA.DIHEDRAL>
3.74089

>  <SCORE.INTRA.DIHEDRAL.0>
15.4453

>  <SCORE.INTRA.POLAR>
0

>  <SCORE.INTRA.POLAR.0>
0

>  <SCORE.INTRA.REPUL>
-0.823958

>  <SCORE.INTRA.REPUL.0>
0.823958

>  <SCORE.INTRA.SOLV>
1.42062

>  <SCORE.INTRA.SOLV.lig_0>
-99.3069

>  <SCORE.INTRA.VDW>
-6.10672

>  <SCORE.INTRA.VDW.0>
0.946495

>  <SCORE.INTRA.norm>
-0.191144

>  <SCORE.RESTR>
0.487708

>  <SCORE.RESTR.CAVITY>
0.487708

>  <SCORE.RESTR.norm>
0.0121927

>  <SCORE.SYSTEM>
0

>  <SCORE.SYSTEM.CONST>
0

>  <SCORE.SYSTEM.DIHEDRAL>
0

>  <SCORE.SYSTEM.SOLV>
0

>  <SCORE.SYSTEM.norm>
0

>  <SCORE.heavy>
40

>  <SCORE.norm>
-0.614164

>  <RMSD>
18.250

$$$$
1ntb_lig
 OpenBabel11021811403D
libRbt.so/2013.1/901 2013/11/27
 40 42  0  0  0  0  0  0  0  0999 V2000
   19.0403   21.8848   -1.1731 C   0  0  0  0  0  0  0  0  0  0  0  0
   20.1853   22.2325   -1.6183 N   0  0  0  0  0  0  0  0  0  0  0  0
   20.7167   30.0952    2.0864 C   0  0  0  0  0  0  0  0  0  0  0  0
   21.1104   29.0017    2.8987 O   0  0  0  0  0  0  0  0  0  0  0  0
   18.9579   26.3598   -4.5689 C   0  0  0  0  0  0  0  0  0  0  0  0
   20.2351   26.4410   -4.4495 N   0  0  0  0  0  0  0  0  0  0  0  0
   22.7848   28.2434    0.3910 C   0  0  0  0  0  0  0  0  0  0  0  0
   19.9618   33.6699   -0.5414 C   0  0  0  0  0  0  0  0  0  0  0  0
   17.7722   23.8269   -1.6042 C   0  0  2  0  0  0  0  0  0  0  0  0
   18.0028   22.3500   -1.8419 N   0  0  0  0  0  0  0  0  0  0  0  0
   19.6483   28.6768   -1.1356 C   0  0  2  0  0  0  0  0  0  0  0  0
   17.9345   31.3135   -0.6746 C   0  0  1  0  0  0  0  0  0  0  0  0
   19.3013   30.9456   -0.7006 O   0  0  0  0  0  0  0  0  0  0  0  0
   18.0726   24.6363   -2.8610 C   0  0  1  0  0  0  0  0  0  0  0  0
   17.1695   24.0665   -3.9058 O   0  0  0  0  0  0  0  0  0  0  0  0
   19.5085   29.7592   -0.0807 C   0  0  2  0  0  0  0  0  0  0  0  0
   17.7966   32.7035   -1.2467 C   0  0  1  0  0  0  0  0  0  0  0  0
   18.5299   33.6256   -0.4533 N   0  0  0  0  0  0  0  0  0  0  0  0
   17.8833   26.1387   -2.6620 C   0  0  2  0  0  0  0  0  0  0  0  0
   18.1514   26.9552   -3.8278 N   0  0  0  0  0  0  0  0  0  0  0  0
   20.8364   29.7194    0.6279 C   0  0  1  0  0  0  0  0  0  0  0  0
   21.7669   30.5873   -0.0281 O   0  0  0  0  0  0  0  0  0  0  0  0
   18.3534   32.6849   -2.6603 C   0  0  2  0  0  0  0  0  0  0  0  0
   18.2577   33.9674   -3.2405 O   0  0  0  0  0  0  0  0  0  0  0  0
   18.7974   26.5796   -1.5483 C   0  0  1  0  0  0  0  0  0  0  0  0
   18.4266   27.9617   -1.2866 O   0  0  0  0  0  0  0  0  0  0  0  0
   21.2827   28.3109    0.4891 C   0  0  1  0  0  0  0  0  0  0  0  0
   20.6897   27.7970   -0.7057 O   0  0  0  0  0  0  0  0  0  0  0  0
   17.5210   31.6775   -3.4538 C   0  0  1  0  0  0  0  0  0  0  0  0
   17.9865   31.5978   -4.7920 O   0  0  0  0  0  0  0  0  0  0  0  0
   18.4686   25.7989   -0.2473 C   0  0  2  0  0  0  0  0  0  0  0  0
   19.3301   26.2390    0.7911 O   0  0  0  0  0  0  0  0  0  0  0  0
   17.6262   30.3086   -2.7809 C   0  0  1  0  0  0  0  0  0  0  0  0
   17.1586   30.3909   -1.4356 O   0  0  0  0  0  0  0  0  0  0  0  0
   18.6833   24.2919   -0.4864 C   0  0  1  0  0  0  0  0  0  0  0  0
   18.3840   23.5567    0.7062 O   0  0  0  0  0  0  0  0  0  0  0  0
   16.7682   29.3080   -3.5555 C   0  0  0  0  0  0  0  0  0  0  0  0
   15.4133   29.7266   -3.5145 O   0  0  0  0  0  0  0  0  0  0  0  0
   18.9008   21.1499   -0.1261 N   0  0  0  0  0  0  0  0  0  0  0  0
   18.4729   25.6970   -5.5028 N   0  0  0  0  0  0  0  0  0  0  0  0
  1  2  1  0  0  0  0
  1 39  1  0  0  0  0
  3  4  1  0  0  0  0
  5  6  1  0  0  0  0
  5 40  1  0  0  0  0
  9 10  1  6  0  0  0
  9 14  1  0  0  0  0
  9 35  1  0  0  0  0
 10  1  1  0  0  0  0
 11 16  1  0  0  0  0
 11 28  1  0  0  0  0
 11 26  1  1  0  0  0
 12 17  1  0  0  0  0
 12 34  1  0  0  0  0
 12 13  1  6  0  0  0
 14 15  1  6  0  0  0
 14 19  1  0  0  0  0
 16 13  1  6  0  0  0
 16 21  1  0  0  0  0
 17 18  1  1  0  0  0
 17 23  1  0  0  0  0
 18  8  1  0  0  0  0
 19 20  1  6  0  0  0
 19 25  1  0  0  0  0
 20  5  1  0  0  0  0
 21  3  1  1  0  0  0
 21 22  1  0  0  0  0
 21 27  1  0  0  0  0
 23 24  1  6  0  0  0
 23 29  1  0  0  0  0
 25 26  1  1  0  0  0
 25 31  1  0  0  0  0
 27  7  1  6  0  0  0
 27 28  1  0  0  0  0
 29 30  1  6  0  0  0
 29 33  1  0  0  0  0
 31 32  1  1  0  0  0
 31 35  1  0  0  0  0
 33 34  1  0  0  0  0
 33 37  1  6  0  0  0
 35 36  1  1  0  0  0
 37 38  1  0  0  0  0
M  END
>  <CHROM.1>
111.25150748,-73.20147994,-144.08929778,174.02622705,101.08192175,75.11334273
-25.96142471,-87.17609213,117.83231682,-136.61329595,-61.69631592,18.90181894
28.05138908,-1.50553273,-1.58583940,-0.99460756,-0.00147128

>  <Name>
1ntb_lig

>  <RI>
0

>  <Rbt.Current_Directory>
/home/itssahil/PROJECTS/Mol_Feturizer/New_Systems/rnas/1ntb

>  <Rbt.Executable>
rbdock ($Id: //depot/dev/client3/rdock/2013.1/src/exe/rbdock.cxx#4 $)

>  <Rbt.Library>
libRbt.so (2013.1, Build901 2013/11/27)

>  <Rbt.Parameter_File>
/export/apps/rDock/src/rDock_2013.1_src/data/scripts/dock_solv.prm

>  <Rbt.Receptor>
prm/blind_docking_80.prm

>  <SCORE>
23.0059

>  <SCORE.INTER>
3.52448

>  <SCORE.INTER.CONST>
1

>  <SCORE.INTER.POLAR>
-0.964874

>  <SCORE.INTER.ROT>
11

>  <SCORE.INTER.SOLV>
24.3332

>  <SCORE.INTER.VDW>
-13.4785

>  <SCORE.INTER.norm>
0.0881119

>  <SCORE.INTRA>
17.2223

>  <SCORE.INTRA.DIHEDRAL>
9.27831

>  <SCORE.INTRA.DIHEDRAL.0>
15.4453

>  <SCORE.INTRA.POLAR>
0

>  <SCORE.INTRA.POLAR.0>
0

>  <SCORE.INTRA.REPUL>
-0.823958

>  <SCORE.INTRA.REPUL.0>
0.823958

>  <SCORE.INTRA.SOLV>
3.78362

>  <SCORE.INTRA.SOLV.lig_0>
-99.3069

>  <SCORE.INTRA.VDW>
14.8111

>  <SCORE.INTRA.VDW.0>
0.946495

>  <SCORE.INTRA.norm>
0.430557

>  <SCORE.RESTR>
2.25913

>  <SCORE.RESTR.CAVITY>
2.25913

>  <SCORE.RESTR.norm>
0.0564782

>  <SCORE.SYSTEM>
0

>  <SCORE.SYSTEM.CONST>
0

>  <SCORE.SYSTEM.DIHEDRAL>
0

>  <SCORE.SYSTEM.SOLV>
0

>  <SCORE.SYSTEM.norm>
0

>  <SCORE.heavy>
40

>  <SCORE.norm>
0.575148

>  <RMSD>
18.270

$$$$
1ntb_lig
 OpenBabel11021811403D
libRbt.so/2013.1/901 2013/11/27
 40 42  0  0  0  0  0  0  0  0999 V2000
   18.3089   35.9485   -1.3783 C   0  0  0  0  0  0  0  0  0  0  0  0
   17.8794   36.7752   -2.2514 N   0  0  0  0  0  0  0  0  0  0  0  0
   17.0957   24.9490   -1.5819 C   0  0  0  0  0  0  0  0  0  0  0  0
   16.6055   23.9561   -2.4675 O   0  0  0  0  0  0  0  0  0  0  0  0
   21.2231   30.5719   -0.0987 C   0  0  0  0  0  0  0  0  0  0  0  0
   20.9959   31.0272    1.0817 N   0  0  0  0  0  0  0  0  0  0  0  0
   16.1978   26.3523   -4.3756 C   0  0  0  0  0  0  0  0  0  0  0  0
   22.2400   24.3974   -2.0978 C   0  0  0  0  0  0  0  0  0  0  0  0
   18.5729   33.6042   -1.3661 C   0  0  2  0  0  0  0  0  0  0  0  0
   19.0478   34.9597   -1.8436 N   0  0  0  0  0  0  0  0  0  0  0  0
   17.9715   28.4682   -2.2003 C   0  0  2  0  0  0  0  0  0  0  0  0
   19.9724   25.9560   -0.5449 C   0  0  1  0  0  0  0  0  0  0  0  0
   19.6119   26.9850   -1.4478 O   0  0  0  0  0  0  0  0  0  0  0  0
   19.7162   32.5953   -1.3602 C   0  0  1  0  0  0  0  0  0  0  0  0
   20.7511   33.1977   -0.4671 O   0  0  0  0  0  0  0  0  0  0  0  0
   18.2693   27.1589   -1.4926 C   0  0  2  0  0  0  0  0  0  0  0  0
   21.4702   25.9789   -0.3583 C   0  0  1  0  0  0  0  0  0  0  0  0
   22.1139   25.7382   -1.6012 N   0  0  0  0  0  0  0  0  0  0  0  0
   19.2792   31.2016   -0.9138 C   0  0  2  0  0  0  0  0  0  0  0  0
   20.3290   30.2042   -0.8856 N   0  0  0  0  0  0  0  0  0  0  0  0
   17.5986   26.1357   -2.3703 C   0  0  1  0  0  0  0  0  0  0  0  0
   18.5023   25.6997   -3.3913 O   0  0  0  0  0  0  0  0  0  0  0  0
   21.8556   27.3532    0.1627 C   0  0  2  0  0  0  0  0  0  0  0  0
   23.2523   27.4327    0.3461 O   0  0  0  0  0  0  0  0  0  0  0  0
   18.1966   30.7309   -1.8500 C   0  0  1  0  0  0  0  0  0  0  0  0
   17.7000   29.4990   -1.2566 O   0  0  0  0  0  0  0  0  0  0  0  0
   16.4647   26.8691   -2.9857 C   0  0  1  0  0  0  0  0  0  0  0  0
   16.8343   28.2489   -3.0382 O   0  0  0  0  0  0  0  0  0  0  0  0
   21.1314   27.5436    1.4957 C   0  0  1  0  0  0  0  0  0  0  0  0
   21.4375   28.8150    2.0466 O   0  0  0  0  0  0  0  0  0  0  0  0
   17.0030   31.7233   -1.8278 C   0  0  2  0  0  0  0  0  0  0  0  0
   15.9901   31.2544   -2.7043 O   0  0  0  0  0  0  0  0  0  0  0  0
   19.6251   27.4234    1.2627 C   0  0  1  0  0  0  0  0  0  0  0  0
   19.3193   26.1451    0.7081 O   0  0  0  0  0  0  0  0  0  0  0  0
   17.4824   33.1111   -2.2953 C   0  0  1  0  0  0  0  0  0  0  0  0
   16.3914   34.0395   -2.2807 O   0  0  0  0  0  0  0  0  0  0  0  0
   18.9021   27.5816    2.6006 C   0  0  0  0  0  0  0  0  0  0  0  0
   19.3155   26.5467    3.4784 O   0  0  0  0  0  0  0  0  0  0  0  0
   18.0221   36.0535   -0.1283 N   0  0  0  0  0  0  0  0  0  0  0  0
   22.3911   30.5351   -0.5244 N   0  0  0  0  0  0  0  0  0  0  0  0
  1  2  1  0  0  0  0
  1 39  1  0  0  0  0
  3  4  1  0  0  0  0
  5  6  1  0  0  0  0
  5 40  1  0  0  0  0
  9 10  1  6  0  0  0
  9 14  1  0  0  0  0
  9 35  1  0  0  0  0
 10  1  1  0  0  0  0
 11 16  1  0  0  0  0
 11 28  1  0  0  0  0
 11 26  1  1  0  0  0
 12 17  1  0  0  0  0
 12 34  1  0  0  0  0
 12 13  1  6  0  0  0
 14 15  1  1  0  0  0
 14 19  1  0  0  0  0
 16 13  1  6  0  0  0
 16 21  1  0  0  0  0
 17 18  1  6  0  0  0
 17 23  1  0  0  0  0
 18  8  1  0  0  0  0
 19 20  1  6  0  0  0
 19 25  1  0  0  0  0
 20  5  1  0  0  0  0
 21  3  1  1  0  0  0
 21 22  1  0  0  0  0
 21 27  1  0  0  0  0
 23 24  1  1  0  0  0
 23 29  1  0  0  0  0
 25 26  1  1  0  0  0
 25 31  1  0  0  0  0
 27  7  1  6  0  0  0
 27 28  1  0  0  0  0
 29 30  1  6  0  0  0
 29 33  1  0  0  0  0
 31 32  1  6  0  0  0
 31 35  1  0  0  0  0
 33 34  1  0  0  0  0
 33 37  1  1  0  0  0
 35 36  1  1  0  0  0
 37 38  1  0  0  0  0
M  END
>  <CHROM.1>
-154.33120343,-128.99540560,147.21941729,-170.06814979,166.47803636,-80.12696818
59.75010864,46.71170622,-173.73830338,-117.58160055,-61.19849255,19.11804764
29.26838101,-1.00326168,-1.76312005,0.66816481,-3.09156407

>  <Name>
1ntb_lig

>  <RI>
0

>  <Rbt.Current_Directory>
/home/itssahil/PROJECTS/Mol_Feturizer/New_Systems/rnas/1ntb

>  <Rbt.Executable>
rbdock ($Id: //depot/dev/client3/rdock/2013.1/src/exe/rbdock.cxx#4 $)

>  <Rbt.Library>
libRbt.so (2013.1, Build901 2013/11/27)

>  <Rbt.Parameter_File>
/export/apps/rDock/src/rDock_2013.1_src/data/scripts/dock_solv.prm

>  <Rbt.Receptor>
prm/blind_docking_80.prm

>  <SCORE>
12.7271

>  <SCORE.INTER>
16.6626

>  <SCORE.INTER.CONST>
1

>  <SCORE.INTER.POLAR>
0

>  <SCORE.INTER.ROT>
11

>  <SCORE.INTER.SOLV>
18.1037

>  <SCORE.INTER.VDW>
-5.85951

>  <SCORE.INTER.norm>
0.416565

>  <SCORE.INTRA>
-4.3815

>  <SCORE.INTRA.DIHEDRAL>
-0.531608

>  <SCORE.INTRA.DIHEDRAL.0>
15.4453

>  <SCORE.INTRA.POLAR>
0

>  <SCORE.INTRA.POLAR.0>
0

>  <SCORE.INTRA.REPUL>
-0.665511

>  <SCORE.INTRA.REPUL.0>
0.823958

>  <SCORE.INTRA.SOLV>
5.38434

>  <SCORE.INTRA.SOLV.lig_0>
-99.3069

>  <SCORE.INTRA.VDW>
-3.48031

>  <SCORE.INTRA.VDW.0>
0.946495

>  <SCORE.INTRA.norm>
-0.109537

>  <SCORE.RESTR>
0.446003

>  <SCORE.RESTR.CAVITY>
0.446003

>  <SCORE.RESTR.norm>
0.0111501

>  <SCORE.SYSTEM>
0

>  <SCORE.SYSTEM.CONST>
0

>  <SCORE.SYSTEM.DIHEDRAL>
0

>  <SCORE.SYSTEM.SOLV>
0

>  <SCORE.SYSTEM.norm>
0

>  <SCORE.heavy>
40

>  <SCORE.norm>
0.318178

>  <RMSD>
18.272

$$$$
1ntb_lig
 OpenBabel11021811403D
libRbt.so/2013.1/901 2013/11/27
 40 42  0  0  0  0  0  0  0  0999 V2000
   19.6791   35.7101   -1.5786 C   0  0  0  0  0  0  0  0  0  0  0  0
   18.5387   36.2799   -1.6493 N   0  0  0  0  0  0  0  0  0  0  0  0
   16.7323   25.1771   -2.0154 C   0  0  0  0  0  0  0  0  0  0  0  0
   17.6493   24.4201   -1.2431 O   0  0  0  0  0  0  0  0  0  0  0  0
   20.6076   29.9028   -1.2917 C   0  0  0  0  0  0  0  0  0  0  0  0
   21.6651   30.3857   -0.7436 N   0  0  0  0  0  0  0  0  0  0  0  0
   16.7615   25.9172   -5.1827 C   0  0  0  0  0  0  0  0  0  0  0  0
   20.6584   23.3792   -1.8496 C   0  0  0  0  0  0  0  0  0  0  0  0
   18.9658   33.5681   -2.2631 C   0  0  2  0  0  0  0  0  0  0  0  0
   19.8923   34.7492   -2.4569 N   0  0  0  0  0  0  0  0  0  0  0  0
   17.8386   28.5202   -3.0804 C   0  0  2  0  0  0  0  0  0  0  0  0
   19.2003   26.4073   -0.4721 C   0  0  1  0  0  0  0  0  0  0  0  0
   19.1361   27.3021   -1.5672 O   0  0  0  0  0  0  0  0  0  0  0  0
   19.7003   32.3971   -1.6195 C   0  0  1  0  0  0  0  0  0  0  0  0
   20.2288   32.9402   -0.3320 O   0  0  0  0  0  0  0  0  0  0  0  0
   17.8754   27.4045   -2.0520 C   0  0  2  0  0  0  0  0  0  0  0  0
   20.4121   25.5231   -0.6401 C   0  0  1  0  0  0  0  0  0  0  0  0
   20.2946   24.7677   -1.8371 N   0  0  0  0  0  0  0  0  0  0  0  0
   18.8134   31.1682   -1.4306 C   0  0  2  0  0  0  0  0  0  0  0  0
   19.4610   30.0267   -0.8182 N   0  0  0  0  0  0  0  0  0  0  0  0
   17.4796   26.1907   -2.8503 C   0  0  1  0  0  0  0  0  0  0  0  0
   18.6406   25.5880   -3.4317 O   0  0  0  0  0  0  0  0  0  0  0  0
   21.6375   26.4184   -0.7153 C   0  0  2  0  0  0  0  0  0  0  0  0
   22.8022   25.6400   -0.8831 O   0  0  0  0  0  0  0  0  0  0  0  0
   18.2953   30.7555   -2.7839 C   0  0  1  0  0  0  0  0  0  0  0  0
   17.3173   29.7147   -2.5073 O   0  0  0  0  0  0  0  0  0  0  0  0
   16.6047   26.7275   -3.9221 C   0  0  1  0  0  0  0  0  0  0  0  0
   17.0056   28.0796   -4.1553 O   0  0  0  0  0  0  0  0  0  0  0  0
   21.7017   27.1971    0.5988 C   0  0  1  0  0  0  0  0  0  0  0  0
   22.8236   28.0660    0.6034 O   0  0  0  0  0  0  0  0  0  0  0  0
   17.5011   31.9225   -3.4301 C   0  0  2  0  0  0  0  0  0  0  0  0
   17.0106   31.5085   -4.6958 O   0  0  0  0  0  0  0  0  0  0  0  0
   20.4136   28.0050    0.7594 C   0  0  1  0  0  0  0  0  0  0  0  0
   19.2868   27.1300    0.7537 O   0  0  0  0  0  0  0  0  0  0  0  0
   18.4329   33.1358   -3.6140 C   0  0  1  0  0  0  0  0  0  0  0  0
   17.7144   34.2225   -4.2100 O   0  0  0  0  0  0  0  0  0  0  0  0
   20.4633   28.7587    2.0887 C   0  0  0  0  0  0  0  0  0  0  0  0
   19.2295   29.4292    2.2903 O   0  0  0  0  0  0  0  0  0  0  0  0
   20.5573   36.0305   -0.6943 N   0  0  0  0  0  0  0  0  0  0  0  0
   20.6994   29.3187   -2.3857 N   0  0  0  0  0  0  0  0  0  0  0  0
  1  2  1  0  0  0  0
  1 39  1  0  0  0  0
  3  4  1  0  0  0  0
  5  6  1  0  0  0  0
  5 40  1  0  0  0  0
  9 10  1  6  0  0  0
  9 14  1  0  0  0  0
  9 35  1  0  0  0  0
 10  1  1  0  0  0  0
 11 16  1  0  0  0  0
 11 28  1  0  0  0  0
 11 26  1  1  0  0  0
 12 17  1  0  0  0  0
 12 34  1  0  0  0  0
 12 13  1  6  0  0  0
 14 15  1  1  0  0  0
 14 19  1  0  0  0  0
 16 13  1  6  0  0  0
 16 21  1  0  0  0  0
 17 18  1  6  0  0  0
 17 23  1  0  0  0  0
 18  8  1  0  0  0  0
 19 20  1  6  0  0  0
 19 25  1  0  0  0  0
 20  5  1  0  0  0  0
 21  3  1  1  0  0  0
 21 22  1  0  0  0  0
 21 27  1  0  0  0  0
 23 24  1  1  0  0  0
 23 29  1  0  0  0  0
 25 26  1  1  0  0  0
 25 31  1  0  0  0  0
 27  7  1  6  0  0  0
 27 28  1  0  0  0  0
 29 30  1  6  0  0  0
 29 33  1  0  0  0  0
 31 32  1  6  0  0  0
 31 35  1  0  0  0  0
 33 34  1  0  0  0  0
 33 37  1  1  0  0  0
 35 36  1  1  0  0  0
 37 38  1  0  0  0  0
M  END
>  <CHROM.1>
-104.68104737,-64.56011919,126.96270963,136.01350171,171.83600435,-137.59414124
-41.30700470,95.02992751,-79.64066988,-115.12799091,-175.61966998,19.24050919
29.20249443,-1.68118936,-1.62851606,0.81528533,3.11119782

>  <Name>
1ntb_lig

>  <RI>
0

>  <Rbt.Current_Directory>
/home/itssahil/PROJECTS/Mol_Feturizer/New_Systems/rnas/1ntb

>  <Rbt.Executable>
rbdock ($Id: //depot/dev/client3/rdock/2013.1/src/exe/rbdock.cxx#4 $)

>  <Rbt.Library>
libRbt.so (2013.1, Build901 2013/11/27)

>  <Rbt.Parameter_File>
/export/apps/rDock/src/rDock_2013.1_src/data/scripts/dock_solv.prm

>  <Rbt.Receptor>
prm/blind_docking_60.prm

>  <SCORE>
-7.65294

>  <SCORE.INTER>
-11.3506

>  <SCORE.INTER.CONST>
1

>  <SCORE.INTER.POLAR>
-1.40929

>  <SCORE.INTER.ROT>
11

>  <SCORE.INTER.SOLV>
21.3052

>  <SCORE.INTER.VDW>
-20.9045

>  <SCORE.INTER.norm>
-0.283765

>  <SCORE.INTRA>
3.39563

>  <SCORE.INTRA.DIHEDRAL>
9.65046

>  <SCORE.INTRA.DIHEDRAL.0>
15.4453

>  <SCORE.INTRA.POLAR>
0

>  <SCORE.INTRA.POLAR.0>
0

>  <SCORE.INTRA.REPUL>
-0.823958

>  <SCORE.INTRA.REPUL.0>
0.823958

>  <SCORE.INTRA.SOLV>
12.012

>  <SCORE.INTRA.SOLV.lig_0>
-99.3069

>  <SCORE.INTRA.VDW>
-3.31582

>  <SCORE.INTRA.VDW.0>
0.946495

>  <SCORE.INTRA.norm>
0.0848907

>  <SCORE.RESTR>
0.302017

>  <SCORE.RESTR.CAVITY>
0.302017

>  <SCORE.RESTR.norm>
0.00755042

>  <SCORE.SYSTEM>
0

>  <SCORE.SYSTEM.CONST>
0

>  <SCORE.SYSTEM.DIHEDRAL>
0

>  <SCORE.SYSTEM.SOLV>
0

>  <SCORE.SYSTEM.norm>
0

>  <SCORE.heavy>
40

>  <SCORE.norm>
-0.191323

>  <RMSD>
18.274

$$$$
1ntb_lig
 OpenBabel11021811403D
libRbt.so/2013.1/901 2013/11/27
 40 42  0  0  0  0  0  0  0  0999 V2000
   20.2654   33.0916    0.7263 C   0  0  0  0  0  0  0  0  0  0  0  0
   20.3496   33.9017   -0.2569 N   0  0  0  0  0  0  0  0  0  0  0  0
   14.7047   25.3781   -2.4124 C   0  0  0  0  0  0  0  0  0  0  0  0
   15.2300   24.6817   -1.2945 O   0  0  0  0  0  0  0  0  0  0  0  0
   18.2766   30.5452   -2.8821 C   0  0  0  0  0  0  0  0  0  0  0  0
   17.5805   31.0123   -1.9078 N   0  0  0  0  0  0  0  0  0  0  0  0
   14.1645   28.5831   -2.5382 C   0  0  0  0  0  0  0  0  0  0  0  0
   17.4679   25.7454   -6.2329 C   0  0  0  0  0  0  0  0  0  0  0  0
   20.8147   30.8273    0.3561 C   0  0  2  0  0  0  0  0  0  0  0  0
   21.2374   32.2047    0.8198 N   0  0  0  0  0  0  0  0  0  0  0  0
   17.5259   27.7040   -2.0056 C   0  0  2  0  0  0  0  0  0  0  0  0
   17.9421   24.5158   -3.4571 C   0  0  1  0  0  0  0  0  0  0  0  0
   17.7117   25.9121   -3.4927 O   0  0  0  0  0  0  0  0  0  0  0  0
   20.1308   30.8947   -1.0050 C   0  0  1  0  0  0  0  0  0  0  0  0
   21.1388   31.5290   -1.9068 O   0  0  0  0  0  0  0  0  0  0  0  0
   17.0207   26.3296   -2.4051 C   0  0  2  0  0  0  0  0  0  0  0  0
   18.5788   24.0972   -4.7602 C   0  0  1  0  0  0  0  0  0  0  0  0
   17.7012   24.3850   -5.8392 N   0  0  0  0  0  0  0  0  0  0  0  0
   19.6579   29.5305   -1.5029 C   0  0  2  0  0  0  0  0  0  0  0  0
   19.0043   29.5368   -2.7954 N   0  0  0  0  0  0  0  0  0  0  0  0
   15.5697   26.5776   -2.7218 C   0  0  1  0  0  0  0  0  0  0  0  0
   15.4255   26.9452   -4.0978 O   0  0  0  0  0  0  0  0  0  0  0  0
   19.8694   24.8823   -4.9237 C   0  0  2  0  0  0  0  0  0  0  0  0
   20.5027   24.5352   -6.1357 O   0  0  0  0  0  0  0  0  0  0  0  0
   18.6993   28.9699   -0.4845 C   0  0  1  0  0  0  0  0  0  0  0  0
   18.4451   27.6062   -0.9228 O   0  0  0  0  0  0  0  0  0  0  0  0
   15.1974   27.7240   -1.8561 C   0  0  1  0  0  0  0  0  0  0  0  0
   16.3879   28.4801   -1.6233 O   0  0  0  0  0  0  0  0  0  0  0  0
   20.7618   24.5252   -3.7348 C   0  0  1  0  0  0  0  0  0  0  0  0
   21.9922   25.2279   -3.8125 O   0  0  0  0  0  0  0  0  0  0  0  0
   19.3985   28.8480    0.8962 C   0  0  2  0  0  0  0  0  0  0  0  0
   18.4839   28.3054    1.8360 O   0  0  0  0  0  0  0  0  0  0  0  0
   20.0326   24.8889   -2.4410 C   0  0  1  0  0  0  0  0  0  0  0  0
   18.7956   24.1822   -2.3650 O   0  0  0  0  0  0  0  0  0  0  0  0
   19.8486   30.2443    1.3673 C   0  0  1  0  0  0  0  0  0  0  0  0
   20.4962   30.1490    2.6416 O   0  0  0  0  0  0  0  0  0  0  0  0
   20.9111   24.5023   -1.2510 C   0  0  0  0  0  0  0  0  0  0  0  0
   21.3331   23.1563   -1.4016 O   0  0  0  0  0  0  0  0  0  0  0  0
   19.2854   33.1172    1.5599 N   0  0  0  0  0  0  0  0  0  0  0  0
   18.1967   31.0811   -4.0015 N   0  0  0  0  0  0  0  0  0  0  0  0
  1  2  1  0  0  0  0
  1 39  1  0  0  0  0
  3  4  1  0  0  0  0
  5  6  1  0  0  0  0
  5 40  1  0  0  0  0
  9 10  1  1  0  0  0
  9 14  1  0  0  0  0
  9 35  1  0  0  0  0
 10  1  1  0  0  0  0
 11 16  1  0  0  0  0
 11 28  1  0  0  0  0
 11 26  1  1  0  0  0
 12 17  1  0  0  0  0
 12 34  1  0  0  0  0
 12 13  1  6  0  0  0
 14 15  1  6  0  0  0
 14 19  1  0  0  0  0
 16 13  1  6  0  0  0
 16 21  1  0  0  0  0
 17 18  1  6  0  0  0
 17 23  1  0  0  0  0
 18  8  1  0  0  0  0
 19 20  1  6  0  0  0
 19 25  1  0  0  0  0
 20  5  1  0  0  0  0
 21  3  1  1  0  0  0
 21 22  1  0  0  0  0
 21 27  1  0  0  0  0
 23 24  1  6  0  0  0
 23 29  1  0  0  0  0
 25 26  1  6  0  0  0
 25 31  1  0  0  0  0
 27  7  1  6  0  0  0
 27 28  1  0  0  0  0
 29 30  1  6  0  0  0
 29 33  1  0  0  0  0
 31 32  1  1  0  0  0
 31 35  1  0  0  0  0
 33 34  1  0  0  0  0
 33 37  1  1  0  0  0
 35 36  1  1  0  0  0
 37 38  1  0  0  0  0
M  END
>  <CHROM.1>
49.36062019,-103.45807122,-171.20087039,173.90546035,144.20558006,71.05687162
-39.44030514,-38.46824589,32.81492593,-77.56324297,-50.87349072,18.65160747
27.80971200,-1.96508817,-1.37258628,0.21997500,-2.63165078

>  <Name>
1ntb_lig

>  <RI>
0

>  <Rbt.Current_Directory>
/home/itssahil/PROJECTS/Mol_Feturizer/New_Systems/rnas/1ntb

>  <Rbt.Executable>
rbdock ($Id: //depot/dev/client3/rdock/2013.1/src/exe/rbdock.cxx#4 $)

>  <Rbt.Library>
libRbt.so (2013.1, Build901 2013/11/27)

>  <Rbt.Parameter_File>
/export/apps/rDock/src/rDock_2013.1_src/data/scripts/dock_solv.prm

>  <Rbt.Receptor>
prm/blind_docking_100.prm

>  <SCORE>
-6.38202

>  <SCORE.INTER>
-15.7606

>  <SCORE.INTER.CONST>
1

>  <SCORE.INTER.POLAR>
-2.72814

>  <SCORE.INTER.ROT>
11

>  <SCORE.INTER.SOLV>
18.7715

>  <SCORE.INTER.VDW>
-18.6037

>  <SCORE.INTER.norm>
-0.394015

>  <SCORE.INTRA>
4.01724

>  <SCORE.INTRA.DIHEDRAL>
-4.99581

>  <SCORE.INTRA.DIHEDRAL.0>
15.4453

>  <SCORE.INTRA.POLAR>
0

>  <SCORE.INTRA.POLAR.0>
0

>  <SCORE.INTRA.REPUL>
-0.786508

>  <SCORE.INTRA.REPUL.0>
0.823958

>  <SCORE.INTRA.SOLV>
5.30882

>  <SCORE.INTRA.SOLV.lig_0>
-99.3069

>  <SCORE.INTRA.VDW>
7.79328

>  <SCORE.INTRA.VDW.0>
0.946495

>  <SCORE.INTRA.norm>
0.100431

>  <SCORE.RESTR>
5.36133

>  <SCORE.RESTR.CAVITY>
5.36133

>  <SCORE.RESTR.norm>
0.134033

>  <SCORE.SYSTEM>
0

>  <SCORE.SYSTEM.CONST>
0

>  <SCORE.SYSTEM.DIHEDRAL>
0

>  <SCORE.SYSTEM.SOLV>
0

>  <SCORE.SYSTEM.norm>
0

>  <SCORE.heavy>
40

>  <SCORE.norm>
-0.159551

>  <RMSD>
18.280

$$$$
1ntb_lig
 OpenBabel11021811403D
libRbt.so/2013.1/901 2013/11/27
 40 42  0  0  0  0  0  0  0  0999 V2000
   18.8676   34.6880   -0.0130 C   0  0  0  0  0  0  0  0  0  0  0  0
   18.2693   34.0282    0.9018 N   0  0  0  0  0  0  0  0  0  0  0  0
   20.5666   24.7024    0.4705 C   0  0  0  0  0  0  0  0  0  0  0  0
   20.4519   23.7286   -0.5536 O   0  0  0  0  0  0  0  0  0  0  0  0
   17.6769   31.2384   -3.3982 C   0  0  0  0  0  0  0  0  0  0  0  0
   18.1977   31.3202   -4.5704 N   0  0  0  0  0  0  0  0  0  0  0  0
   18.7985   26.5420    2.4879 C   0  0  0  0  0  0  0  0  0  0  0  0
   21.3550   24.4847   -3.6070 C   0  0  0  0  0  0  0  0  0  0  0  0
   20.3736   33.0165   -0.7228 C   0  0  2  0  0  0  0  0  0  0  0  0
   20.1468   34.4088   -0.1742 N   0  0  0  0  0  0  0  0  0  0  0  0
   19.2141   27.9085   -0.7238 C   0  0  2  0  0  0  0  0  0  0  0  0
   19.3168   26.4631   -3.2932 C   0  0  1  0  0  0  0  0  0  0  0  0
   18.9345   25.9835   -2.0174 O   0  0  0  0  0  0  0  0  0  0  0  0
   19.0997   32.4624   -1.3514 C   0  0  1  0  0  0  0  0  0  0  0  0
   18.7347   33.4528   -2.4086 O   0  0  0  0  0  0  0  0  0  0  0  0
   19.7082   26.5079   -1.0370 C   0  0  2  0  0  0  0  0  0  0  0  0
   19.1441   25.3515   -4.2997 C   0  0  1  0  0  0  0  0  0  0  0  0
   19.9817   24.2570   -3.9567 N   0  0  0  0  0  0  0  0  0  0  0  0
   19.2701   31.0448   -1.8936 C   0  0  2  0  0  0  0  0  0  0  0  0
   18.0898   30.4714   -2.5064 N   0  0  0  0  0  0  0  0  0  0  0  0
   19.5287   25.7820    0.2699 C   0  0  1  0  0  0  0  0  0  0  0  0
   18.2145   25.2190    0.3400 O   0  0  0  0  0  0  0  0  0  0  0  0
   17.6891   24.9149   -4.2692 C   0  0  2  0  0  0  0  0  0  0  0  0
   17.4738   23.8663   -5.1883 O   0  0  0  0  0  0  0  0  0  0  0  0
   19.6958   30.1579   -0.7523 C   0  0  1  0  0  0  0  0  0  0  0  0
   20.0236   28.8836   -1.3726 O   0  0  0  0  0  0  0  0  0  0  0  0
   19.6748   26.8410    1.2992 C   0  0  1  0  0  0  0  0  0  0  0  0
   19.2773   28.0738    0.6947 O   0  0  0  0  0  0  0  0  0  0  0  0
   16.8495   26.1354   -4.6470 C   0  0  1  0  0  0  0  0  0  0  0  0
   15.4688   25.8079   -4.6349 O   0  0  0  0  0  0  0  0  0  0  0  0
   21.0203   30.6818   -0.1346 C   0  0  2  0  0  0  0  0  0  0  0  0
   21.4104   29.8253    0.9277 O   0  0  0  0  0  0  0  0  0  0  0  0
   17.1296   27.2580   -3.6474 C   0  0  1  0  0  0  0  0  0  0  0  0
   18.5181   27.5854   -3.6603 O   0  0  0  0  0  0  0  0  0  0  0  0
   20.8028   32.1067    0.4102 C   0  0  1  0  0  0  0  0  0  0  0  0
   22.0170   32.6049    0.9844 O   0  0  0  0  0  0  0  0  0  0  0  0
   16.3147   28.4895   -4.0436 C   0  0  0  0  0  0  0  0  0  0  0  0
   14.9420   28.1380   -4.1098 O   0  0  0  0  0  0  0  0  0  0  0  0
   18.2733   35.5859   -0.7175 N   0  0  0  0  0  0  0  0  0  0  0  0
   16.7386   31.9953   -3.0929 N   0  0  0  0  0  0  0  0  0  0  0  0
  1  2  1  0  0  0  0
  1 39  1  0  0  0  0
  3  4  1  0  0  0  0
  5  6  1  0  0  0  0
  5 40  1  0  0  0  0
  9 10  1  1  0  0  0
  9 14  1  0  0  0  0
  9 35  1  0  0  0  0
 10  1  1  0  0  0  0
 11 16  1  0  0  0  0
 11 28  1  0  0  0  0
 11 26  1  6  0  0  0
 12 17  1  0  0  0  0
 12 34  1  0  0  0  0
 12 13  1  1  0  0  0
 14 15  1  6  0  0  0
 14 19  1  0  0  0  0
 16 13  1  6  0  0  0
 16 21  1  0  0  0  0
 17 18  1  1  0  0  0
 17 23  1  0  0  0  0
 18  8  1  0  0  0  0
 19 20  1  1  0  0  0
 19 25  1  0  0  0  0
 20  5  1  0  0  0  0
 21  3  1  1  0  0  0
 21 22  1  0  0  0  0
 21 27  1  0  0  0  0
 23 24  1  6  0  0  0
 23 29  1  0  0  0  0
 25 26  1  6  0  0  0
 25 31  1  0  0  0  0
 27  7  1  1  0  0  0
 27 28  1  0  0  0  0
 29 30  1  1  0  0  0
 29 33  1  0  0  0  0
 31 32  1  1  0  0  0
 31 35  1  0  0  0  0
 33 34  1  0  0  0  0
 33 37  1  6  0  0  0
 35 36  1  6  0  0  0
 37 38  1  0  0  0  0
M  END
>  <CHROM.1>
17.79114242,68.01288075,-165.87407374,144.28717172,79.77575593,-46.69059129
54.61636320,78.75621014,-61.59365059,-123.79332242,56.26757159,18.92294807
28.74491654,-1.70295336,1.38395971,-0.95727608,0.13400573

>  <Name>
1ntb_lig

>  <RI>
0

>  <Rbt.Current_Directory>
/home/itssahil/PROJECTS/Mol_Feturizer/New_Systems/rnas/1ntb

>  <Rbt.Executable>
rbdock ($Id: //depot/dev/client3/rdock/2013.1/src/exe/rbdock.cxx#4 $)

>  <Rbt.Library>
libRbt.so (2013.1, Build901 2013/11/27)

>  <Rbt.Parameter_File>
/export/apps/rDock/src/rDock_2013.1_src/data/scripts/dock_solv.prm

>  <Rbt.Receptor>
prm/blind_docking_100.prm

>  <SCORE>
-10.0595

>  <SCORE.INTER>
-15.3668

>  <SCORE.INTER.CONST>
1

>  <SCORE.INTER.POLAR>
-2.209

>  <SCORE.INTER.ROT>
11

>  <SCORE.INTER.SOLV>
19.578

>  <SCORE.INTER.VDW>
-20.3406

>  <SCORE.INTER.norm>
-0.38417

>  <SCORE.INTRA>
3.06822

>  <SCORE.INTRA.DIHEDRAL>
1.76387

>  <SCORE.INTRA.DIHEDRAL.0>
15.4453

>  <SCORE.INTRA.POLAR>
0

>  <SCORE.INTRA.POLAR.0>
0

>  <SCORE.INTRA.REPUL>
-0.659243

>  <SCORE.INTRA.REPUL.0>
0.823958

>  <SCORE.INTRA.SOLV>
4.23607

>  <SCORE.INTRA.SOLV.lig_0>
-99.3069

>  <SCORE.INTRA.VDW>
3.36447

>  <SCORE.INTRA.VDW.0>
0.946495

>  <SCORE.INTRA.norm>
0.0767055

>  <SCORE.RESTR>
2.23912

>  <SCORE.RESTR.CAVITY>
2.23912

>  <SCORE.RESTR.norm>
0.0559779

>  <SCORE.SYSTEM>
0

>  <SCORE.SYSTEM.CONST>
0

>  <SCORE.SYSTEM.DIHEDRAL>
0

>  <SCORE.SYSTEM.SOLV>
0

>  <SCORE.SYSTEM.norm>
0

>  <SCORE.heavy>
40

>  <SCORE.norm>
-0.251487

>  <RMSD>
18.283

$$$$
1ntb_lig
 OpenBabel11021811403D
libRbt.so/2013.1/901 2013/11/27
 40 42  0  0  0  0  0  0  0  0999 V2000
   18.1335   35.6531   -1.9946 C   0  0  0  0  0  0  0  0  0  0  0  0
   17.3704   36.6766   -1.9792 N   0  0  0  0  0  0  0  0  0  0  0  0
   17.1223   24.6728   -1.4782 C   0  0  0  0  0  0  0  0  0  0  0  0
   15.7048   24.7081   -1.4806 O   0  0  0  0  0  0  0  0  0  0  0  0
   21.2943   30.5758   -1.6094 C   0  0  0  0  0  0  0  0  0  0  0  0
   22.1377   31.5319   -1.7730 N   0  0  0  0  0  0  0  0  0  0  0  0
   16.1765   26.0419   -4.2730 C   0  0  0  0  0  0  0  0  0  0  0  0
   22.3341   24.0342   -1.8765 C   0  0  0  0  0  0  0  0  0  0  0  0
   17.8460   33.3119   -2.0415 C   0  0  2  0  0  0  0  0  0  0  0  0
   17.7239   34.6473   -2.7435 N   0  0  0  0  0  0  0  0  0  0  0  0
   18.2090   28.0966   -2.2724 C   0  0  2  0  0  0  0  0  0  0  0  0
   20.1448   25.6461   -0.5020 C   0  0  1  0  0  0  0  0  0  0  0  0
   19.7790   26.5251   -1.5497 O   0  0  0  0  0  0  0  0  0  0  0  0
   19.0453   32.5279   -2.5628 C   0  0  1  0  0  0  0  0  0  0  0  0
   20.2182   33.4215   -2.3227 O   0  0  0  0  0  0  0  0  0  0  0  0
   18.4515   26.7939   -1.5321 C   0  0  2  0  0  0  0  0  0  0  0  0
   21.6298   25.7710   -0.2619 C   0  0  1  0  0  0  0  0  0  0  0  0
   22.3400   25.3998   -1.4345 N   0  0  0  0  0  0  0  0  0  0  0  0
   19.1934   31.1575   -1.9050 C   0  0  2  0  0  0  0  0  0  0  0  0
   20.3211   30.3715   -2.3612 N   0  0  0  0  0  0  0  0  0  0  0  0
   17.6644   25.7927   -2.3353 C   0  0  1  0  0  0  0  0  0  0  0  0
   18.4789   25.2584   -3.3841 O   0  0  0  0  0  0  0  0  0  0  0  0
   21.9276   27.2207    0.0823 C   0  0  2  0  0  0  0  0  0  0  0  0
   23.3093   27.3959    0.3076 O   0  0  0  0  0  0  0  0  0  0  0  0
   17.9304   30.3778   -2.1641 C   0  0  1  0  0  0  0  0  0  0  0  0
   18.0618   29.1757   -1.3554 O   0  0  0  0  0  0  0  0  0  0  0  0
   16.5534   26.5849   -2.9190 C   0  0  1  0  0  0  0  0  0  0  0  0
   17.0158   27.9318   -3.0421 O   0  0  0  0  0  0  0  0  0  0  0  0
   21.1353   27.5500    1.3477 C   0  0  1  0  0  0  0  0  0  0  0  0
   21.3574   28.8978    1.7324 O   0  0  0  0  0  0  0  0  0  0  0  0
   16.7052   31.1411   -1.5929 C   0  0  2  0  0  0  0  0  0  0  0  0
   15.5296   30.3838   -1.8346 O   0  0  0  0  0  0  0  0  0  0  0  0
   19.6483   27.3222    1.0746 C   0  0  1  0  0  0  0  0  0  0  0  0
   19.4271   25.9671    0.6872 O   0  0  0  0  0  0  0  0  0  0  0  0
   16.5845   32.5101   -2.2897 C   0  0  1  0  0  0  0  0  0  0  0  0
   15.4573   33.2277   -1.7733 O   0  0  0  0  0  0  0  0  0  0  0  0
   18.8585   27.6203    2.3493 C   0  0  0  0  0  0  0  0  0  0  0  0
   19.3114   26.7667    3.3880 O   0  0  0  0  0  0  0  0  0  0  0  0
   19.2192   35.5910   -1.3068 N   0  0  0  0  0  0  0  0  0  0  0  0
   21.4664   29.7614   -0.6854 N   0  0  0  0  0  0  0  0  0  0  0  0
  1  2  1  0  0  0  0
  1 39  1  0  0  0  0
  3  4  1  0  0  0  0
  5  6  1  0  0  0  0
  5 40  1  0  0  0  0
  9 10  1  6  0  0  0
  9 14  1  0  0  0  0
  9 35  1  0  0  0  0
 10  1  1  0  0  0  0
 11 16  1  0  0  0  0
 11 28  1  0  0  0  0
 11 26  1  1  0  0  0
 12 17  1  0  0  0  0
 12 34  1  0  0  0  0
 12 13  1  6  0  0  0
 14 15  1  1  0  0  0
 14 19  1  0  0  0  0
 16 13  1  6  0  0  0
 16 21  1  0  0  0  0
 17 18  1  6  0  0  0
 17 23  1  0  0  0  0
 18  8  1  0  0  0  0
 19 20  1  6  0  0  0
 19 25  1  0  0  0  0
 20  5  1  0  0  0  0
 21  3  1  1  0  0  0
 21 22  1  0  0  0  0
 21 27  1  0  0  0  0
 23 24  1  1  0  0  0
 23 29  1  0  0  0  0
 25 26  1  1  0  0  0
 25 31  1  0  0  0  0
 27  7  1  6  0  0  0
 27 28  1  0  0  0  0
 29 30  1  6  0  0  0
 29 33  1  0  0  0  0
 31 32  1  6  0  0  0
 31 35  1  0  0  0  0
 33 34  1  0  0  0  0
 33 37  1  1  0  0  0
 35 36  1  1  0  0  0
 37 38  1  0  0  0  0
M  END
>  <CHROM.1>
-103.70709466,-134.51868872,176.08339044,-159.99937924,158.08794059,-68.26400118
93.22028461,-87.36332253,115.77634720,-111.81959149,-59.16014099,19.00967642
29.05275090,-1.27644283,-1.81042857,0.47433180,3.08814424

>  <Name>
1ntb_lig

>  <RI>
0

>  <Rbt.Current_Directory>
/home/itssahil/PROJECTS/Mol_Feturizer/New_Systems/rnas/1ntb

>  <Rbt.Executable>
rbdock ($Id: //depot/dev/client3/rdock/2013.1/src/exe/rbdock.cxx#4 $)

>  <Rbt.Library>
libRbt.so (2013.1, Build901 2013/11/27)

>  <Rbt.Parameter_File>
/export/apps/rDock/src/rDock_2013.1_src/data/scripts/dock_solv.prm

>  <Rbt.Receptor>
prm/blind_docking_60.prm

>  <SCORE>
-14.1946

>  <SCORE.INTER>
-11.1093

>  <SCORE.INTER.CONST>
1

>  <SCORE.INTER.POLAR>
-0.572885

>  <SCORE.INTER.ROT>
11

>  <SCORE.INTER.SOLV>
24.8392

>  <SCORE.INTER.VDW>
-24.7096

>  <SCORE.INTER.norm>
-0.277732

>  <SCORE.INTRA>
-3.08535

>  <SCORE.INTRA.DIHEDRAL>
3.31007

>  <SCORE.INTRA.DIHEDRAL.0>
15.4453

>  <SCORE.INTRA.POLAR>
0

>  <SCORE.INTRA.POLAR.0>
0

>  <SCORE.INTRA.REPUL>
-0.823958

>  <SCORE.INTRA.REPUL.0>
0.823958

>  <SCORE.INTRA.SOLV>
2.64832

>  <SCORE.INTRA.SOLV.lig_0>
-99.3069

>  <SCORE.INTRA.VDW>
-1.94475

>  <SCORE.INTRA.VDW.0>
0.946495

>  <SCORE.INTRA.norm>
-0.0771337

>  <SCORE.RESTR>
0

>  <SCORE.RESTR.CAVITY>
0

>  <SCORE.RESTR.norm>
0

>  <SCORE.SYSTEM>
0

>  <SCORE.SYSTEM.CONST>
0

>  <SCORE.SYSTEM.DIHEDRAL>
0

>  <SCORE.SYSTEM.SOLV>
0

>  <SCORE.SYSTEM.norm>
0

>  <SCORE.heavy>
40

>  <SCORE.norm>
-0.354866

>  <RMSD>
18.288

$$$$
1ntb_lig
 OpenBabel11021811403D
libRbt.so/2013.1/901 2013/11/27
 40 42  0  0  0  0  0  0  0  0999 V2000
   17.3232   25.9773    5.7741 C   0  0  0  0  0  0  0  0  0  0  0  0
   16.5208   26.9654    5.6740 N   0  0  0  0  0  0  0  0  0  0  0  0
   20.3286   25.2156   -4.0777 C   0  0  0  0  0  0  0  0  0  0  0  0
   20.2944   24.1434   -5.0047 O   0  0  0  0  0  0  0  0  0  0  0  0
   19.9011   29.5070    1.3939 C   0  0  0  0  0  0  0  0  0  0  0  0
   20.9987   29.3381    0.7467 N   0  0  0  0  0  0  0  0  0  0  0  0
   20.0907   22.4902   -2.3182 C   0  0  0  0  0  0  0  0  0  0  0  0
   16.6228   25.2952   -5.2131 C   0  0  0  0  0  0  0  0  0  0  0  0
   19.2923   26.3256    4.5222 C   0  0  2  0  0  0  0  0  0  0  0  0
   18.6018   26.2879    5.8686 N   0  0  0  0  0  0  0  0  0  0  0  0
   19.3148   25.4258   -0.5474 C   0  0  2  0  0  0  0  0  0  0  0  0
   18.0515   27.2879   -3.3869 C   0  0  1  0  0  0  0  0  0  0  0  0
   18.0786   26.5595   -2.1734 O   0  0  0  0  0  0  0  0  0  0  0  0
   18.7889   27.4944    3.6822 C   0  0  1  0  0  0  0  0  0  0  0  0
   19.0638   28.7059    4.5119 O   0  0  0  0  0  0  0  0  0  0  0  0
   19.3013   26.0242   -1.9422 C   0  0  2  0  0  0  0  0  0  0  0  0
   16.6236   27.3720   -3.8690 C   0  0  1  0  0  0  0  0  0  0  0  0
   16.1198   26.0665   -4.1120 N   0  0  0  0  0  0  0  0  0  0  0  0
   19.4353   27.5572    2.2999 C   0  0  2  0  0  0  0  0  0  0  0  0
   18.9956   28.6529    1.4611 N   0  0  0  0  0  0  0  0  0  0  0  0
   19.5712   24.8359   -2.8266 C   0  0  1  0  0  0  0  0  0  0  0  0
   18.3393   24.1949   -3.1738 O   0  0  0  0  0  0  0  0  0  0  0  0
   15.8022   28.0462   -2.7829 C   0  0  2  0  0  0  0  0  0  0  0  0
   14.4516   28.1417   -3.1795 O   0  0  0  0  0  0  0  0  0  0  0  0
   19.1407   26.2619    1.5888 C   0  0  1  0  0  0  0  0  0  0  0  0
   19.9394   26.3133    0.3740 O   0  0  0  0  0  0  0  0  0  0  0  0
   20.3863   23.9287   -1.9810 C   0  0  1  0  0  0  0  0  0  0  0  0
   20.0380   24.1949   -0.6205 O   0  0  0  0  0  0  0  0  0  0  0  0
   16.3964   29.4394   -2.5750 C   0  0  1  0  0  0  0  0  0  0  0  0
   15.6827   30.1347   -1.5645 O   0  0  0  0  0  0  0  0  0  0  0  0
   19.6931   25.0651    2.4090 C   0  0  2  0  0  0  0  0  0  0  0  0
   19.4179   23.8578    1.7156 O   0  0  0  0  0  0  0  0  0  0  0  0
   17.8651   29.2969   -2.1743 C   0  0  1  0  0  0  0  0  0  0  0  0
   18.5807   28.5971   -3.1908 O   0  0  0  0  0  0  0  0  0  0  0  0
   19.0083   25.0304    3.7889 C   0  0  1  0  0  0  0  0  0  0  0  0
   19.5075   23.9303    4.5588 O   0  0  0  0  0  0  0  0  0  0  0  0
   18.4684   30.6906   -1.9977 C   0  0  0  0  0  0  0  0  0  0  0  0
   17.8993   31.3025   -0.8514 O   0  0  0  0  0  0  0  0  0  0  0  0
   16.9193   24.7557    5.7586 N   0  0  0  0  0  0  0  0  0  0  0  0
   19.7301   30.5540    2.0430 N   0  0  0  0  0  0  0  0  0  0  0  0
  1  2  1  0  0  0  0
  1 39  1  0  0  0  0
  3  4  1  0  0  0  0
  5  6  1  0  0  0  0
  5 40  1  0  0  0  0
  9 10  1  1  0  0  0
  9 14  1  0  0  0  0
  9 35  1  0  0  0  0
 10  1  1  0  0  0  0
 11 16  1  0  0  0  0
 11 28  1  0  0  0  0
 11 26  1  1  0  0  0
 12 17  1  0  0  0  0
 12 34  1  0  0  0  0
 12 13  1  1  0  0  0
 14 15  1  1  0  0  0
 14 19  1  0  0  0  0
 16 13  1  6  0  0  0
 16 21  1  0  0  0  0
 17 18  1  1  0  0  0
 17 23  1  0  0  0  0
 18  8  1  0  0  0  0
 19 20  1  6  0  0  0
 19 25  1  0  0  0  0
 20  5  1  0  0  0  0
 21  3  1  6  0  0  0
 21 22  1  0  0  0  0
 21 27  1  0  0  0  0
 23 24  1  6  0  0  0
 23 29  1  0  0  0  0
 25 26  1  6  0  0  0
 25 31  1  0  0  0  0
 27  7  1  6  0  0  0
 27 28  1  0  0  0  0
 29 30  1  1  0  0  0
 29 33  1  0  0  0  0
 31 32  1  6  0  0  0
 31 35  1  0  0  0  0
 33 34  1  0  0  0  0
 33 37  1  6  0  0  0
 35 36  1  1  0  0  0
 37 38  1  0  0  0  0
M  END
>  <CHROM.1>
68.44118702,-92.16968426,139.00762248,157.28004440,172.28372590,-69.41770769
106.60188597,71.37010574,-166.92553943,-157.19494493,68.99762595,18.50715342
26.77083925,-0.07910682,-1.26535050,1.21916814,-1.83094756

>  <Name>
1ntb_lig

>  <RI>
0

>  <Rbt.Current_Directory>
/home/itssahil/PROJECTS/Mol_Feturizer/New_Systems/rnas/1ntb

>  <Rbt.Executable>
rbdock ($Id: //depot/dev/client3/rdock/2013.1/src/exe/rbdock.cxx#4 $)

>  <Rbt.Library>
libRbt.so (2013.1, Build901 2013/11/27)

>  <Rbt.Parameter_File>
/export/apps/rDock/src/rDock_2013.1_src/data/scripts/dock_solv.prm

>  <Rbt.Receptor>
prm/blind_docking_40.prm

>  <SCORE>
-21.7519

>  <SCORE.INTER>
-16.5042

>  <SCORE.INTER.CONST>
1

>  <SCORE.INTER.POLAR>
-1.57975

>  <SCORE.INTER.ROT>
11

>  <SCORE.INTER.SOLV>
13.3384

>  <SCORE.INTER.VDW>
-21.1164

>  <SCORE.INTER.norm>
-0.412604

>  <SCORE.INTRA>
-6.72604

>  <SCORE.INTRA.DIHEDRAL>
-1.31436

>  <SCORE.INTRA.DIHEDRAL.0>
15.4453

>  <SCORE.INTRA.POLAR>
0

>  <SCORE.INTRA.POLAR.0>
0

>  <SCORE.INTRA.REPUL>
-0.823958

>  <SCORE.INTRA.REPUL.0>
0.823958

>  <SCORE.INTRA.SOLV>
2.36198

>  <SCORE.INTRA.SOLV.lig_0>
-99.3069

>  <SCORE.INTRA.VDW>
-3.13006

>  <SCORE.INTRA.VDW.0>
0.946495

>  <SCORE.INTRA.norm>
-0.168151

>  <SCORE.RESTR>
1.4783

>  <SCORE.RESTR.CAVITY>
1.4783

>  <SCORE.RESTR.norm>
0.0369576

>  <SCORE.SYSTEM>
0

>  <SCORE.SYSTEM.CONST>
0

>  <SCORE.SYSTEM.DIHEDRAL>
0

>  <SCORE.SYSTEM.SOLV>
0

>  <SCORE.SYSTEM.norm>
0

>  <SCORE.heavy>
40

>  <SCORE.norm>
-0.543797

>  <RMSD>
18.289

$$$$
1ntb_lig
 OpenBabel11021811403D
libRbt.so/2013.1/901 2013/11/27
 40 42  0  0  0  0  0  0  0  0999 V2000
   18.5372   22.2500    4.1348 C   0  0  0  0  0  0  0  0  0  0  0  0
   17.2894   22.5049    4.2253 N   0  0  0  0  0  0  0  0  0  0  0  0
   18.3968   30.9724   -2.5691 C   0  0  0  0  0  0  0  0  0  0  0  0
   18.2114   30.6466   -3.9365 O   0  0  0  0  0  0  0  0  0  0  0  0
   19.2452   24.7290   -1.1058 C   0  0  0  0  0  0  0  0  0  0  0  0
   18.0452   24.3919   -1.4195 N   0  0  0  0  0  0  0  0  0  0  0  0
   21.2118   31.0302   -0.9404 C   0  0  0  0  0  0  0  0  0  0  0  0
   18.5892   25.2813   -5.7842 C   0  0  0  0  0  0  0  0  0  0  0  0
   18.7131   24.3767    3.1290 C   0  0  2  0  0  0  0  0  0  0  0  0
   19.3254   23.2989    3.9975 N   0  0  0  0  0  0  0  0  0  0  0  0
   19.1765   28.2589   -0.2104 C   0  0  2  0  0  0  0  0  0  0  0  0
   17.6737   28.0965   -3.5073 C   0  0  1  0  0  0  0  0  0  0  0  0
   18.4209   27.7398   -2.3590 O   0  0  0  0  0  0  0  0  0  0  0  0
   19.4390   24.4794    1.7921 C   0  0  1  0  0  0  0  0  0  0  0  0
   19.3280   23.1155    1.1927 O   0  0  0  0  0  0  0  0  0  0  0  0
   18.4293   28.7368   -1.4421 C   0  0  2  0  0  0  0  0  0  0  0  0
   17.3780   26.8462   -4.2997 C   0  0  1  0  0  0  0  0  0  0  0  0
   18.5937   26.2430   -4.7187 N   0  0  0  0  0  0  0  0  0  0  0  0
   18.8759   25.5762    0.8906 C   0  0  2  0  0  0  0  0  0  0  0  0
   19.5271   25.7140   -0.3957 N   0  0  0  0  0  0  0  0  0  0  0  0
   19.2455   29.9159   -1.9010 C   0  0  1  0  0  0  0  0  0  0  0  0
   20.2775   29.4793   -2.7917 O   0  0  0  0  0  0  0  0  0  0  0  0
   16.6138   25.8910   -3.3984 C   0  0  2  0  0  0  0  0  0  0  0  0
   16.3194   24.6967   -4.0894 O   0  0  0  0  0  0  0  0  0  0  0  0
   18.9872   26.8864    1.6263 C   0  0  1  0  0  0  0  0  0  0  0  0
   18.2645   27.8407    0.7997 O   0  0  0  0  0  0  0  0  0  0  0  0
   19.8518   30.4477   -0.6551 C   0  0  1  0  0  0  0  0  0  0  0  0
   19.9686   29.3533    0.2569 O   0  0  0  0  0  0  0  0  0  0  0  0
   15.3236   26.6013   -2.9883 C   0  0  1  0  0  0  0  0  0  0  0  0
   14.5525   25.7704   -2.1347 O   0  0  0  0  0  0  0  0  0  0  0  0
   18.2093   26.8130    2.9678 C   0  0  2  0  0  0  0  0  0  0  0  0
   18.3149   28.0600    3.6371 O   0  0  0  0  0  0  0  0  0  0  0  0
   15.6814   27.9020   -2.2686 C   0  0  1  0  0  0  0  0  0  0  0  0
   16.4572   28.7357   -3.1279 O   0  0  0  0  0  0  0  0  0  0  0  0
   18.8149   25.7050    3.8509 C   0  0  1  0  0  0  0  0  0  0  0  0
   18.1076   25.6245    5.0941 O   0  0  0  0  0  0  0  0  0  0  0  0
   14.3915   28.6286   -1.8868 C   0  0  0  0  0  0  0  0  0  0  0  0
   13.5980   28.8102   -3.0486 O   0  0  0  0  0  0  0  0  0  0  0  0
   18.9994   21.0492    4.1503 N   0  0  0  0  0  0  0  0  0  0  0  0
   20.1957   24.0174   -1.4758 N   0  0  0  0  0  0  0  0  0  0  0  0
  1  2  1  0  0  0  0
  1 39  1  0  0  0  0
  3  4  1  0  0  0  0
  5  6  1  0  0  0  0
  5 40  1  0  0  0  0
  9 10  1  1  0  0  0
  9 14  1  0  0  0  0
  9 35  1  0  0  0  0
 10  1  1  0  0  0  0
 11 16  1  0  0  0  0
 11 28  1  0  0  0  0
 11 26  1  1  0  0  0
 12 17  1  0  0  0  0
 12 34  1  0  0  0  0
 12 13  1  1  0  0  0
 14 15  1  6  0  0  0
 14 19  1  0  0  0  0
 16 13  1  6  0  0  0
 16 21  1  0  0  0  0
 17 18  1  1  0  0  0
 17 23  1  0  0  0  0
 18  8  1  0  0  0  0
 19 20  1  6  0  0  0
 19 25  1  0  0  0  0
 20  5  1  0  0  0  0
 21  3  1  6  0  0  0
 21 22  1  0  0  0  0
 21 27  1  0  0  0  0
 23 24  1  6  0  0  0
 23 29  1  0  0  0  0
 25 26  1  6  0  0  0
 25 31  1  0  0  0  0
 27  7  1  6  0  0  0
 27 28  1  0  0  0  0
 29 30  1  1  0  0  0
 29 33  1  0  0  0  0
 31 32  1  1  0  0  0
 31 35  1  0  0  0  0
 33 34  1  0  0  0  0
 33 37  1  6  0  0  0
 35 36  1  1  0  0  0
 37 38  1  0  0  0  0
M  END
>  <CHROM.1>
-109.76960033,-37.19438773,154.93207630,-164.37084814,176.77648922,-162.24302571
70.27282978,58.35447411,-84.39374717,-82.89571909,-54.88371550,18.14475128
26.69711064,-0.55016769,1.23135527,1.09668280,2.47504995

>  <Name>
1ntb_lig

>  <RI>
0

>  <Rbt.Current_Directory>
/home/itssahil/PROJECTS/Mol_Feturizer/New_Systems/rnas/1ntb

>  <Rbt.Executable>
rbdock ($Id: //depot/dev/client3/rdock/2013.1/src/exe/rbdock.cxx#4 $)

>  <Rbt.Library>
libRbt.so (2013.1, Build901 2013/11/27)

>  <Rbt.Parameter_File>
/export/apps/rDock/src/rDock_2013.1_src/data/scripts/dock_solv.prm

>  <Rbt.Receptor>
prm/blind_docking_40.prm

>  <SCORE>
-27.9323

>  <SCORE.INTER>
-23.5799

>  <SCORE.INTER.CONST>
1

>  <SCORE.INTER.POLAR>
-2.69779

>  <SCORE.INTER.ROT>
11

>  <SCORE.INTER.SOLV>
15.2629

>  <SCORE.INTER.VDW>
-22.7483

>  <SCORE.INTER.norm>
-0.589498

>  <SCORE.INTRA>
-4.90955

>  <SCORE.INTRA.DIHEDRAL>
-4.60302

>  <SCORE.INTRA.DIHEDRAL.0>
15.4453

>  <SCORE.INTRA.POLAR>
0

>  <SCORE.INTRA.POLAR.0>
0

>  <SCORE.INTRA.REPUL>
-0.823958

>  <SCORE.INTRA.REPUL.0>
0.823958

>  <SCORE.INTRA.SOLV>
4.01788

>  <SCORE.INTRA.SOLV.lig_0>
-99.3069

>  <SCORE.INTRA.VDW>
-0.49719

>  <SCORE.INTRA.VDW.0>
0.946495

>  <SCORE.INTRA.norm>
-0.122739

>  <SCORE.RESTR>
0.557154

>  <SCORE.RESTR.CAVITY>
0.557154

>  <SCORE.RESTR.norm>
0.0139288

>  <SCORE.SYSTEM>
0

>  <SCORE.SYSTEM.CONST>
0

>  <SCORE.SYSTEM.DIHEDRAL>
0

>  <SCORE.SYSTEM.SOLV>
0

>  <SCORE.SYSTEM.norm>
0

>  <SCORE.heavy>
40

>  <SCORE.norm>
-0.698308

>  <RMSD>
18.296

$$$$
1ntb_lig
 OpenBabel11021811403D
libRbt.so/2013.1/901 2013/11/27
 40 42  0  0  0  0  0  0  0  0999 V2000
   18.8160   22.2254    3.9059 C   0  0  0  0  0  0  0  0  0  0  0  0
   18.8657   21.4839    4.9442 N   0  0  0  0  0  0  0  0  0  0  0  0
   18.5654   31.2010   -2.3739 C   0  0  0  0  0  0  0  0  0  0  0  0
   19.4246   32.2491   -2.7905 O   0  0  0  0  0  0  0  0  0  0  0  0
   19.5850   24.9608   -1.0436 C   0  0  0  0  0  0  0  0  0  0  0  0
   20.5146   24.1388   -1.3787 N   0  0  0  0  0  0  0  0  0  0  0  0
   21.4227   31.0731   -0.8249 C   0  0  0  0  0  0  0  0  0  0  0  0
   18.2915   25.4883   -5.6515 C   0  0  0  0  0  0  0  0  0  0  0  0
   18.8520   24.4541    3.1330 C   0  0  2  0  0  0  0  0  0  0  0  0
   19.4680   23.3691    3.9899 N   0  0  0  0  0  0  0  0  0  0  0  0
   19.2729   28.3840   -0.1159 C   0  0  2  0  0  0  0  0  0  0  0  0
   17.6662   28.3889   -3.3672 C   0  0  1  0  0  0  0  0  0  0  0  0
   18.4348   27.9663   -2.2561 O   0  0  0  0  0  0  0  0  0  0  0  0
   19.6301   24.6324    1.8339 C   0  0  1  0  0  0  0  0  0  0  0  0
   19.5984   23.2879    1.1833 O   0  0  0  0  0  0  0  0  0  0  0  0
   18.5174   28.9341   -1.3119 C   0  0  2  0  0  0  0  0  0  0  0  0
   17.2584   27.1734   -4.1639 C   0  0  1  0  0  0  0  0  0  0  0  0
   18.4145   26.5005   -4.6413 N   0  0  0  0  0  0  0  0  0  0  0  0
   19.0639   25.7393    0.9468 C   0  0  2  0  0  0  0  0  0  0  0  0
   19.7639   25.9480   -0.3038 N   0  0  0  0  0  0  0  0  0  0  0  0
   19.3783   30.0851   -1.7603 C   0  0  1  0  0  0  0  0  0  0  0  0
   20.3630   29.6252   -2.6919 O   0  0  0  0  0  0  0  0  0  0  0  0
   16.4714   26.2543   -3.2448 C   0  0  2  0  0  0  0  0  0  0  0  0
   16.0726   25.0928   -3.9394 O   0  0  0  0  0  0  0  0  0  0  0  0
   19.0921   27.0251    1.7317 C   0  0  1  0  0  0  0  0  0  0  0  0
   18.3689   27.9811    0.9074 O   0  0  0  0  0  0  0  0  0  0  0  0
   20.0437   30.5495   -0.5177 C   0  0  1  0  0  0  0  0  0  0  0  0
   20.1306   29.4241    0.3594 O   0  0  0  0  0  0  0  0  0  0  0  0
   15.2475   27.0388   -2.7716 C   0  0  1  0  0  0  0  0  0  0  0  0
   14.4596   26.2450   -1.8982 O   0  0  0  0  0  0  0  0  0  0  0  0
   18.2607   26.8739    3.0340 C   0  0  2  0  0  0  0  0  0  0  0  0
   18.2887   28.0989    3.7501 O   0  0  0  0  0  0  0  0  0  0  0  0
   15.7175   28.3019   -2.0495 C   0  0  1  0  0  0  0  0  0  0  0  0
   16.5100   29.0983   -2.9287 O   0  0  0  0  0  0  0  0  0  0  0  0
   18.8707   25.7582    3.9042 C   0  0  1  0  0  0  0  0  0  0  0  0
   18.1142   25.6061    5.1112 O   0  0  0  0  0  0  0  0  0  0  0  0
   14.4938   29.1031   -1.6044 C   0  0  0  0  0  0  0  0  0  0  0  0
   14.0252   28.5891   -0.3680 O   0  0  0  0  0  0  0  0  0  0  0  0
   18.1539   21.8955    2.8531 N   0  0  0  0  0  0  0  0  0  0  0  0
   18.4428   24.8153   -1.5137 N   0  0  0  0  0  0  0  0  0  0  0  0
  1  2  1  0  0  0  0
  1 39  1  0  0  0  0
  3  4  1  0  0  0  0
  5  6  1  0  0  0  0
  5 40  1  0  0  0  0
  9 10  1  1  0  0  0
  9 14  1  0  0  0  0
  9 35  1  0  0  0  0
 10  1  1  0  0  0  0
 11 16  1  0  0  0  0
 11 28  1  0  0  0  0
 11 26  1  1  0  0  0
 12 17  1  0  0  0  0
 12 34  1  0  0  0  0
 12 13  1  1  0  0  0
 14 15  1  6  0  0  0
 14 19  1  0  0  0  0
 16 13  1  6  0  0  0
 16 21  1  0  0  0  0
 17 18  1  1  0  0  0
 17 23  1  0  0  0  0
 18  8  1  0  0  0  0
 19 20  1  6  0  0  0
 19 25  1  0  0  0  0
 20  5  1  0  0  0  0
 21  3  1  6  0  0  0
 21 22  1  0  0  0  0
 21 27  1  0  0  0  0
 23 24  1  6  0  0  0
 23 29  1  0  0  0  0
 25 26  1  6  0  0  0
 25 31  1  0  0  0  0
 27  7  1  6  0  0  0
 27 28  1  0  0  0  0
 29 30  1  1  0  0  0
 29 33  1  0  0  0  0
 31 32  1  1  0  0  0
 31 35  1  0  0  0  0
 33 34  1  0  0  0  0
 33 37  1  6  0  0  0
 35 36  1  1  0  0  0
 37 38  1  0  0  0  0
M  END
>  <CHROM.1>
-100.80711012,-150.75219769,158.11425107,-162.86257800,176.28690977,-166.78128133
68.25286520,-112.42655164,-179.36517171,-78.06052120,83.85276561,18.28041489
26.91399579,-0.36805675,1.28723009,1.08084194,2.50614312

>  <Name>
1ntb_lig

>  <RI>
0

>  <Rbt.Current_Directory>
/home/itssahil/PROJECTS/Mol_Feturizer/New_Systems/rnas/1ntb

>  <Rbt.Executable>
rbdock ($Id: //depot/dev/client3/rdock/2013.1/src/exe/rbdock.cxx#4 $)

>  <Rbt.Library>
libRbt.so (2013.1, Build901 2013/11/27)

>  <Rbt.Parameter_File>
/export/apps/rDock/src/rDock_2013.1_src/data/scripts/dock_solv.prm

>  <Rbt.Receptor>
prm/blind_docking_80.prm

>  <SCORE>
-20.1213

>  <SCORE.INTER>
-16.7084

>  <SCORE.INTER.CONST>
1

>  <SCORE.INTER.POLAR>
-0.616721

>  <SCORE.INTER.ROT>
11

>  <SCORE.INTER.SOLV>
14.0664

>  <SCORE.INTER.VDW>
-24.7054

>  <SCORE.INTER.norm>
-0.417711

>  <SCORE.INTRA>
-5.18316

>  <SCORE.INTRA.DIHEDRAL>
-6.25084

>  <SCORE.INTRA.DIHEDRAL.0>
15.4453

>  <SCORE.INTRA.POLAR>
0

>  <SCORE.INTRA.POLAR.0>
0

>  <SCORE.INTRA.REPUL>
-0.823958

>  <SCORE.INTRA.REPUL.0>
0.823958

>  <SCORE.INTRA.SOLV>
2.69109

>  <SCORE.INTRA.SOLV.lig_0>
-99.3069

>  <SCORE.INTRA.VDW>
0.716502

>  <SCORE.INTRA.VDW.0>
0.946495

>  <SCORE.INTRA.norm>
-0.129579

>  <SCORE.RESTR>
1.77027

>  <SCORE.RESTR.CAVITY>
1.77027

>  <SCORE.RESTR.norm>
0.0442567

>  <SCORE.SYSTEM>
0

>  <SCORE.SYSTEM.CONST>
0

>  <SCORE.SYSTEM.DIHEDRAL>
0

>  <SCORE.SYSTEM.SOLV>
0

>  <SCORE.SYSTEM.norm>
0

>  <SCORE.heavy>
40

>  <SCORE.norm>
-0.503033

>  <RMSD>
18.299

$$$$
1ntb_lig
 OpenBabel11021811403D
libRbt.so/2013.1/901 2013/11/27
 40 42  0  0  0  0  0  0  0  0999 V2000
   17.7067   34.1627   -2.4844 C   0  0  0  0  0  0  0  0  0  0  0  0
   18.1436   35.3245   -2.1852 N   0  0  0  0  0  0  0  0  0  0  0  0
   20.6458   24.8773    1.0723 C   0  0  0  0  0  0  0  0  0  0  0  0
   20.3332   24.2108    2.2841 O   0  0  0  0  0  0  0  0  0  0  0  0
   16.8363   29.3285   -1.3271 C   0  0  0  0  0  0  0  0  0  0  0  0
   15.7660   29.7463   -1.9033 N   0  0  0  0  0  0  0  0  0  0  0  0
   19.1450   26.9595    3.0704 C   0  0  0  0  0  0  0  0  0  0  0  0
   21.8499   24.4987   -2.6294 C   0  0  0  0  0  0  0  0  0  0  0  0
   19.0072   32.3093   -3.1471 C   0  0  2  0  0  0  0  0  0  0  0  0
   18.2840   33.5854   -3.5205 N   0  0  0  0  0  0  0  0  0  0  0  0
   19.5164   28.1302   -0.2231 C   0  0  2  0  0  0  0  0  0  0  0  0
   19.4888   26.3581   -2.7211 C   0  0  1  0  0  0  0  0  0  0  0  0
   19.0082   26.1783   -1.4016 O   0  0  0  0  0  0  0  0  0  0  0  0
   18.0200   31.2198   -2.7427 C   0  0  1  0  0  0  0  0  0  0  0  0
   17.1258   31.0569   -3.9283 O   0  0  0  0  0  0  0  0  0  0  0  0
   19.8720   26.6781   -0.4857 C   0  0  2  0  0  0  0  0  0  0  0  0
   19.5556   25.0113   -3.3994 C   0  0  1  0  0  0  0  0  0  0  0  0
   20.4559   24.1641   -2.7001 N   0  0  0  0  0  0  0  0  0  0  0  0
   18.7046   29.9193   -2.3271 C   0  0  2  0  0  0  0  0  0  0  0  0
   17.8115   28.8479   -1.9371 N   0  0  0  0  0  0  0  0  0  0  0  0
   19.6959   26.0336    0.8636 C   0  0  1  0  0  0  0  0  0  0  0  0
   18.3433   25.5929    1.0222 O   0  0  0  0  0  0  0  0  0  0  0  0
   18.1612   24.4080   -3.3796 C   0  0  2  0  0  0  0  0  0  0  0  0
   18.1689   23.1384   -3.9951 O   0  0  0  0  0  0  0  0  0  0  0  0
   19.6203   30.2243   -1.1701 C   0  0  1  0  0  0  0  0  0  0  0  0
   20.3735   28.9980   -0.9573 O   0  0  0  0  0  0  0  0  0  0  0  0
   19.9836   27.1232    1.8293 C   0  0  1  0  0  0  0  0  0  0  0  0
   19.6640   28.3562    1.1807 O   0  0  0  0  0  0  0  0  0  0  0  0
   17.2500   25.3665   -4.1466 C   0  0  1  0  0  0  0  0  0  0  0  0
   15.9198   24.8726   -4.1675 O   0  0  0  0  0  0  0  0  0  0  0  0
   20.6641   31.2965   -1.5837 C   0  0  2  0  0  0  0  0  0  0  0  0
   21.5241   31.5582   -0.4855 O   0  0  0  0  0  0  0  0  0  0  0  0
   17.2888   26.7363   -3.4684 C   0  0  1  0  0  0  0  0  0  0  0  0
   18.6268   27.2308   -3.4475 O   0  0  0  0  0  0  0  0  0  0  0  0
   19.9347   32.5937   -1.9832 C   0  0  1  0  0  0  0  0  0  0  0  0
   20.8850   33.5944   -2.3677 O   0  0  0  0  0  0  0  0  0  0  0  0
   16.4030   27.7038   -4.2538 C   0  0  0  0  0  0  0  0  0  0  0  0
   15.0497   27.5069   -3.8765 O   0  0  0  0  0  0  0  0  0  0  0  0
   16.7488   33.5977   -1.8372 N   0  0  0  0  0  0  0  0  0  0  0  0
   16.9525   29.4477   -0.0947 N   0  0  0  0  0  0  0  0  0  0  0  0
  1  2  1  0  0  0  0
  1 39  1  0  0  0  0
  3  4  1  0  0  0  0
  5  6  1  0  0  0  0
  5 40  1  0  0  0  0
  9 10  1  1  0  0  0
  9 14  1  0  0  0  0
  9 35  1  0  0  0  0
 10  1  1  0  0  0  0
 11 16  1  0  0  0  0
 11 28  1  0  0  0  0
 11 26  1  6  0  0  0
 12 17  1  0  0  0  0
 12 34  1  0  0  0  0
 12 13  1  1  0  0  0
 14 15  1  6  0  0  0
 14 19  1  0  0  0  0
 16 13  1  6  0  0  0
 16 21  1  0  0  0  0
 17 18  1  1  0  0  0
 17 23  1  0  0  0  0
 18  8  1  0  0  0  0
 19 20  1  1  0  0  0
 19 25  1  0  0  0  0
 20  5  1  0  0  0  0
 21  3  1  1  0  0  0
 21 22  1  0  0  0  0
 21 27  1  0  0  0  0
 23 24  1  6  0  0  0
 23 29  1  0  0  0  0
 25 26  1  6  0  0  0
 25 31  1  0  0  0  0
 27  7  1  1  0  0  0
 27 28  1  0  0  0  0
 29 30  1  1  0  0  0
 29 33  1  0  0  0  0
 31 32  1  1  0  0  0
 31 35  1  0  0  0  0
 33 34  1  0  0  0  0
 33 37  1  6  0  0  0
 35 36  1  6  0  0  0
 37 38  1  0  0  0  0
M  END
>  <CHROM.1>
68.44024650,117.13296095,153.49718647,123.57479911,90.10706394,-64.00561424
-36.54008303,87.73186918,-173.13538486,-79.80538477,81.17661535,18.71414789
28.40541270,-1.71499789,1.69679878,-0.96624496,-0.00999752

>  <Name>
1ntb_lig

>  <RI>
0

>  <Rbt.Current_Directory>
/home/itssahil/PROJECTS/Mol_Feturizer/New_Systems/rnas/1ntb

>  <Rbt.Executable>
rbdock ($Id: //depot/dev/client3/rdock/2013.1/src/exe/rbdock.cxx#4 $)

>  <Rbt.Library>
libRbt.so (2013.1, Build901 2013/11/27)

>  <Rbt.Parameter_File>
/export/apps/rDock/src/rDock_2013.1_src/data/scripts/dock_solv.prm

>  <Rbt.Receptor>
prm/blind_docking_80.prm

>  <SCORE>
-5.29099

>  <SCORE.INTER>
-11.2659

>  <SCORE.INTER.CONST>
1

>  <SCORE.INTER.POLAR>
-1.43125

>  <SCORE.INTER.ROT>
11

>  <SCORE.INTER.SOLV>
18.2263

>  <SCORE.INTER.VDW>
-19.7485

>  <SCORE.INTER.norm>
-0.281648

>  <SCORE.INTRA>
4.50332

>  <SCORE.INTRA.DIHEDRAL>
3.29805

>  <SCORE.INTRA.DIHEDRAL.0>
15.4453

>  <SCORE.INTRA.POLAR>
0

>  <SCORE.INTRA.POLAR.0>
0

>  <SCORE.INTRA.REPUL>
-0.823958

>  <SCORE.INTRA.REPUL.0>
0.823958

>  <SCORE.INTRA.SOLV>
9.60525

>  <SCORE.INTRA.SOLV.lig_0>
-99.3069

>  <SCORE.INTRA.VDW>
2.17146

>  <SCORE.INTRA.VDW.0>
0.946495

>  <SCORE.INTRA.norm>
0.112583

>  <SCORE.RESTR>
1.47162

>  <SCORE.RESTR.CAVITY>
1.47162

>  <SCORE.RESTR.norm>
0.0367905

>  <SCORE.SYSTEM>
0

>  <SCORE.SYSTEM.CONST>
0

>  <SCORE.SYSTEM.DIHEDRAL>
0

>  <SCORE.SYSTEM.SOLV>
0

>  <SCORE.SYSTEM.norm>
0

>  <SCORE.heavy>
40

>  <SCORE.norm>
-0.132275

>  <RMSD>
18.308

$$$$
1ntb_lig
 OpenBabel11021811403D
libRbt.so/2013.1/901 2013/11/27
 40 42  0  0  0  0  0  0  0  0999 V2000
   19.5033   26.3765    7.2913 C   0  0  0  0  0  0  0  0  0  0  0  0
   18.7453   25.3563    7.4128 N   0  0  0  0  0  0  0  0  0  0  0  0
   18.6676   31.3096   -2.5135 C   0  0  0  0  0  0  0  0  0  0  0  0
   19.5059   32.3565   -2.9735 O   0  0  0  0  0  0  0  0  0  0  0  0
   19.5371   25.3748    0.9328 C   0  0  0  0  0  0  0  0  0  0  0  0
   18.4215   25.1387    0.3396 N   0  0  0  0  0  0  0  0  0  0  0  0
   21.6136   31.3818   -1.1368 C   0  0  0  0  0  0  0  0  0  0  0  0
   19.4610   25.7584   -5.0013 C   0  0  0  0  0  0  0  0  0  0  0  0
   19.4825   26.9268    4.9972 C   0  0  2  0  0  0  0  0  0  0  0  0
   20.2432   26.4108    6.1997 N   0  0  0  0  0  0  0  0  0  0  0  0
   19.4234   29.0138    0.2600 C   0  0  2  0  0  0  0  0  0  0  0  0
   17.9208   28.4474   -2.9807 C   0  0  1  0  0  0  0  0  0  0  0  0
   18.4337   28.1860   -1.6874 O   0  0  0  0  0  0  0  0  0  0  0  0
   20.1152   26.4378    3.6990 C   0  0  1  0  0  0  0  0  0  0  0  0
   20.0970   24.9477    3.8041 O   0  0  0  0  0  0  0  0  0  0  0  0
   18.6108   29.3291   -0.9826 C   0  0  2  0  0  0  0  0  0  0  0  0
   17.8456   27.1468   -3.7433 C   0  0  1  0  0  0  0  0  0  0  0  0
   19.1456   26.5899   -3.8746 N   0  0  0  0  0  0  0  0  0  0  0  0
   19.3996   26.9580    2.4540 C   0  0  2  0  0  0  0  0  0  0  0  0
   19.9578   26.5194    1.1916 N   0  0  0  0  0  0  0  0  0  0  0  0
   19.4799   30.3143   -1.7184 C   0  0  1  0  0  0  0  0  0  0  0  0
   20.3854   29.6183   -2.5814 O   0  0  0  0  0  0  0  0  0  0  0  0
   16.9557   26.1963   -2.9603 C   0  0  2  0  0  0  0  0  0  0  0  0
   16.8588   24.9564   -3.6267 O   0  0  0  0  0  0  0  0  0  0  0  0
   19.4311   28.4639    2.4939 C   0  0  1  0  0  0  0  0  0  0  0  0
   18.5746   28.8840    1.3957 O   0  0  0  0  0  0  0  0  0  0  0  0
   20.2403   31.0028   -0.6460 C   0  0  1  0  0  0  0  0  0  0  0  0
   20.3455   30.0897    0.4487 O   0  0  0  0  0  0  0  0  0  0  0  0
   15.5801   26.8556   -2.8587 C   0  0  1  0  0  0  0  0  0  0  0  0
   14.6877   26.0263   -2.1309 O   0  0  0  0  0  0  0  0  0  0  0  0
   18.7442   28.9780    3.7878 C   0  0  2  0  0  0  0  0  0  0  0  0
   18.7721   30.3969    3.7985 O   0  0  0  0  0  0  0  0  0  0  0  0
   15.7286   28.2062   -2.1577 C   0  0  1  0  0  0  0  0  0  0  0  0
   16.6266   29.0382   -2.8903 O   0  0  0  0  0  0  0  0  0  0  0  0
   19.5021   28.4418    5.0176 C   0  0  1  0  0  0  0  0  0  0  0  0
   18.8802   28.9079    6.2210 O   0  0  0  0  0  0  0  0  0  0  0  0
   14.3583   28.8804   -2.0846 C   0  0  0  0  0  0  0  0  0  0  0  0
   14.5255   30.2339   -1.6942 O   0  0  0  0  0  0  0  0  0  0  0  0
   19.5646   27.3012    8.1839 N   0  0  0  0  0  0  0  0  0  0  0  0
   20.2314   24.4222    1.3289 N   0  0  0  0  0  0  0  0  0  0  0  0
  1  2  1  0  0  0  0
  1 39  1  0  0  0  0
  3  4  1  0  0  0  0
  5  6  1  0  0  0  0
  5 40  1  0  0  0  0
  9 10  1  1  0  0  0
  9 14  1  0  0  0  0
  9 35  1  0  0  0  0
 10  1  1  0  0  0  0
 11 16  1  0  0  0  0
 11 28  1  0  0  0  0
 11 26  1  1  0  0  0
 12 17  1  0  0  0  0
 12 34  1  0  0  0  0
 12 13  1  1  0  0  0
 14 15  1  1  0  0  0
 14 19  1  0  0  0  0
 16 13  1  6  0  0  0
 16 21  1  0  0  0  0
 17 18  1  1  0  0  0
 17 23  1  0  0  0  0
 18  8  1  0  0  0  0
 19 20  1  6  0  0  0
 19 25  1  0  0  0  0
 20  5  1  0  0  0  0
 21  3  1  6  0  0  0
 21 22  1  0  0  0  0
 21 27  1  0  0  0  0
 23 24  1  6  0  0  0
 23 29  1  0  0  0  0
 25 26  1  6  0  0  0
 25 31  1  0  0  0  0
 27  7  1  6  0  0  0
 27 28  1  0  0  0  0
 29 30  1  1  0  0  0
 29 33  1  0  0  0  0
 31 32  1  6  0  0  0
 31 35  1  0  0  0  0
 33 34  1  0  0  0  0
 33 37  1  6  0  0  0
 35 36  1  1  0  0  0
 37 38  1  0  0  0  0
M  END
>  <CHROM.1>
-156.63870342,81.95473129,174.87329520,175.83406607,-168.23056519,-151.40331002
81.53628869,85.61088759,168.91171042,-90.69781030,-168.00358627,18.62323291
27.95808740,0.48046460,0.97838225,1.16698227,2.27296946

>  <Name>
1ntb_lig

>  <RI>
0

>  <Rbt.Current_Directory>
/home/itssahil/PROJECTS/Mol_Feturizer/New_Systems/rnas/1ntb

>  <Rbt.Executable>
rbdock ($Id: //depot/dev/client3/rdock/2013.1/src/exe/rbdock.cxx#4 $)

>  <Rbt.Library>
libRbt.so (2013.1, Build901 2013/11/27)

>  <Rbt.Parameter_File>
/export/apps/rDock/src/rDock_2013.1_src/data/scripts/dock_solv.prm

>  <Rbt.Receptor>
prm/blind_docking_40.prm

>  <SCORE>
-19.8071

>  <SCORE.INTER>
-11.648

>  <SCORE.INTER.CONST>
1

>  <SCORE.INTER.POLAR>
-0.87178

>  <SCORE.INTER.ROT>
11

>  <SCORE.INTER.SOLV>
14.4126

>  <SCORE.INTER.VDW>
-20.597

>  <SCORE.INTER.norm>
-0.291201

>  <SCORE.INTRA>
-9.44715

>  <SCORE.INTRA.DIHEDRAL>
-7.31438

>  <SCORE.INTRA.DIHEDRAL.0>
15.4453

>  <SCORE.INTRA.POLAR>
0

>  <SCORE.INTRA.POLAR.0>
0

>  <SCORE.INTRA.REPUL>
-0.823958

>  <SCORE.INTRA.REPUL.0>
0.823958

>  <SCORE.INTRA.SOLV>
-0.167013

>  <SCORE.INTRA.SOLV.lig_0>
-99.3069

>  <SCORE.INTRA.VDW>
-1.58667

>  <SCORE.INTRA.VDW.0>
0.946495

>  <SCORE.INTRA.norm>
-0.236179

>  <SCORE.RESTR>
1.28813

>  <SCORE.RESTR.CAVITY>
1.28813

>  <SCORE.RESTR.norm>
0.0322034

>  <SCORE.SYSTEM>
0

>  <SCORE.SYSTEM.CONST>
0

>  <SCORE.SYSTEM.DIHEDRAL>
0

>  <SCORE.SYSTEM.SOLV>
0

>  <SCORE.SYSTEM.norm>
0

>  <SCORE.heavy>
40

>  <SCORE.norm>
-0.495176

>  <RMSD>
18.309

$$$$
1ntb_lig
 OpenBabel11021811403D
libRbt.so/2013.1/901 2013/11/27
 40 42  0  0  0  0  0  0  0  0999 V2000
   18.8032   22.3475    3.5831 C   0  0  0  0  0  0  0  0  0  0  0  0
   18.5115   21.9037    2.4220 N   0  0  0  0  0  0  0  0  0  0  0  0
   18.3123   31.8574   -1.8456 C   0  0  0  0  0  0  0  0  0  0  0  0
   17.4412   31.5065   -2.9078 O   0  0  0  0  0  0  0  0  0  0  0  0
   20.8501   26.4268   -0.2394 C   0  0  0  0  0  0  0  0  0  0  0  0
   21.5741   27.3496    0.2862 N   0  0  0  0  0  0  0  0  0  0  0  0
   21.3195   31.4515   -0.6742 C   0  0  0  0  0  0  0  0  0  0  0  0
   14.1215   29.1952   -1.0878 C   0  0  0  0  0  0  0  0  0  0  0  0
   18.8974   24.6108    2.9242 C   0  0  2  0  0  0  0  0  0  0  0  0
   19.5550   23.4311    3.6075 N   0  0  0  0  0  0  0  0  0  0  0  0
   19.1100   28.8221    0.0741 C   0  0  2  0  0  0  0  0  0  0  0  0
   17.0889   27.6318   -1.5688 C   0  0  1  0  0  0  0  0  0  0  0  0
   18.0015   28.6354   -1.9737 O   0  0  0  0  0  0  0  0  0  0  0  0
   19.5967   24.9407    1.6100 C   0  0  1  0  0  0  0  0  0  0  0  0
   19.5139   23.6828    0.8082 O   0  0  0  0  0  0  0  0  0  0  0  0
   18.2531   29.5117   -0.9719 C   0  0  2  0  0  0  0  0  0  0  0  0
   15.7882   27.8338   -2.3078 C   0  0  1  0  0  0  0  0  0  0  0  0
   15.2412   29.1032   -1.9812 N   0  0  0  0  0  0  0  0  0  0  0  0
   18.9871   26.1456    0.8963 C   0  0  2  0  0  0  0  0  0  0  0  0
   19.6116   26.5001   -0.3614 N   0  0  0  0  0  0  0  0  0  0  0  0
   19.1231   30.6527   -1.4283 C   0  0  1  0  0  0  0  0  0  0  0  0
   19.9614   30.2271   -2.5077 O   0  0  0  0  0  0  0  0  0  0  0  0
   16.0815   27.7681   -3.7972 C   0  0  2  0  0  0  0  0  0  0  0  0
   14.8964   27.9615   -4.5380 O   0  0  0  0  0  0  0  0  0  0  0  0
   19.0741   27.3294    1.8244 C   0  0  1  0  0  0  0  0  0  0  0  0
   18.3104   28.3772    1.1648 O   0  0  0  0  0  0  0  0  0  0  0  0
   19.9573   30.9729   -0.2433 C   0  0  1  0  0  0  0  0  0  0  0  0
   20.0790   29.7723    0.5229 O   0  0  0  0  0  0  0  0  0  0  0  0
   16.6639   26.3822   -4.0759 C   0  0  1  0  0  0  0  0  0  0  0  0
   16.9716   26.2442   -5.4543 O   0  0  0  0  0  0  0  0  0  0  0  0
   18.3221   27.0262    3.1483 C   0  0  2  0  0  0  0  0  0  0  0  0
   18.4041   28.1576    4.0010 O   0  0  0  0  0  0  0  0  0  0  0  0
   17.9286   26.1984   -3.2366 C   0  0  1  0  0  0  0  0  0  0  0  0
   17.6175   26.3383   -1.8514 O   0  0  0  0  0  0  0  0  0  0  0  0
   18.9742   25.8143    3.8415 C   0  0  1  0  0  0  0  0  0  0  0  0
   18.2912   25.5214    5.0662 O   0  0  0  0  0  0  0  0  0  0  0  0
   18.4935   24.8005   -3.4905 C   0  0  0  0  0  0  0  0  0  0  0  0
   19.5161   24.5327   -2.5445 O   0  0  0  0  0  0  0  0  0  0  0  0
   18.4135   21.7654    4.6625 N   0  0  0  0  0  0  0  0  0  0  0  0
   21.3982   25.4141   -0.7091 N   0  0  0  0  0  0  0  0  0  0  0  0
  1  2  1  0  0  0  0
  1 39  1  0  0  0  0
  3  4  1  0  0  0  0
  5  6  1  0  0  0  0
  5 40  1  0  0  0  0
  9 10  1  1  0  0  0
  9 14  1  0  0  0  0
  9 35  1  0  0  0  0
 10  1  1  0  0  0  0
 11 16  1  0  0  0  0
 11 28  1  0  0  0  0
 11 26  1  1  0  0  0
 12 17  1  0  0  0  0
 12 34  1  0  0  0  0
 12 13  1  6  0  0  0
 14 15  1  6  0  0  0
 14 19  1  0  0  0  0
 16 13  1  6  0  0  0
 16 21  1  0  0  0  0
 17 18  1  6  0  0  0
 17 23  1  0  0  0  0
 18  8  1  0  0  0  0
 19 20  1  6  0  0  0
 19 25  1  0  0  0  0
 20  5  1  0  0  0  0
 21  3  1  6  0  0  0
 21 22  1  0  0  0  0
 21 27  1  0  0  0  0
 23 24  1  6  0  0  0
 23 29  1  0  0  0  0
 25 26  1  6  0  0  0
 25 31  1  0  0  0  0
 27  7  1  6  0  0  0
 27 28  1  0  0  0  0
 29 30  1  6  0  0  0
 29 33  1  0  0  0  0
 31 32  1  1  0  0  0
 31 35  1  0  0  0  0
 33 34  1  0  0  0  0
 33 37  1  1  0  0  0
 35 36  1  1  0  0  0
 37 38  1  0  0  0  0
M  END
>  <CHROM.1>
-109.33904175,60.87455104,158.80944831,111.15289934,71.95730246,-104.66596621
-42.56478755,-81.20206939,-59.37767510,-73.41218343,-169.50479301,18.46403885
27.12967487,-0.26717260,1.05309598,1.13559151,2.75080415

>  <Name>
1ntb_lig

>  <RI>
0

>  <Rbt.Current_Directory>
/home/itssahil/PROJECTS/Mol_Feturizer/New_Systems/rnas/1ntb

>  <Rbt.Executable>
rbdock ($Id: //depot/dev/client3/rdock/2013.1/src/exe/rbdock.cxx#4 $)

>  <Rbt.Library>
libRbt.so (2013.1, Build901 2013/11/27)

>  <Rbt.Parameter_File>
/export/apps/rDock/src/rDock_2013.1_src/data/scripts/dock_solv.prm

>  <Rbt.Receptor>
prm/blind_docking_80.prm

>  <SCORE>
-11.3702

>  <SCORE.INTER>
-12.021

>  <SCORE.INTER.CONST>
1

>  <SCORE.INTER.POLAR>
-1.43994

>  <SCORE.INTER.ROT>
11

>  <SCORE.INTER.SOLV>
13.2516

>  <SCORE.INTER.VDW>
-18.5647

>  <SCORE.INTER.norm>
-0.300524

>  <SCORE.INTRA>
-0.537399

>  <SCORE.INTRA.DIHEDRAL>
-0.666772

>  <SCORE.INTRA.DIHEDRAL.0>
15.4453

>  <SCORE.INTRA.POLAR>
0

>  <SCORE.INTRA.POLAR.0>
0

>  <SCORE.INTRA.REPUL>
-0.823958

>  <SCORE.INTRA.REPUL.0>
0.823958

>  <SCORE.INTRA.SOLV>
6.53952

>  <SCORE.INTRA.SOLV.lig_0>
-99.3069

>  <SCORE.INTRA.VDW>
0.646015

>  <SCORE.INTRA.VDW.0>
0.946495

>  <SCORE.INTRA.norm>
-0.013435

>  <SCORE.RESTR>
1.18818

>  <SCORE.RESTR.CAVITY>
1.18818

>  <SCORE.RESTR.norm>
0.0297044

>  <SCORE.SYSTEM>
0

>  <SCORE.SYSTEM.CONST>
0

>  <SCORE.SYSTEM.DIHEDRAL>
0

>  <SCORE.SYSTEM.SOLV>
0

>  <SCORE.SYSTEM.norm>
0

>  <SCORE.heavy>
40

>  <SCORE.norm>
-0.284254

>  <RMSD>
18.322

$$$$
1ntb_lig
 OpenBabel11021811403D
libRbt.so/2013.1/901 2013/11/27
 40 42  0  0  0  0  0  0  0  0999 V2000
   19.5290   33.9216   -1.9376 C   0  0  0  0  0  0  0  0  0  0  0  0
   20.1494   34.4987   -0.9825 N   0  0  0  0  0  0  0  0  0  0  0  0
   20.5950   24.5033   -1.6155 C   0  0  0  0  0  0  0  0  0  0  0  0
   21.8432   24.9965   -1.1583 O   0  0  0  0  0  0  0  0  0  0  0  0
   22.3680   28.2681    0.7226 C   0  0  0  0  0  0  0  0  0  0  0  0
   21.8160   28.5055    1.8588 N   0  0  0  0  0  0  0  0  0  0  0  0
   19.2363   23.4636    1.1509 C   0  0  0  0  0  0  0  0  0  0  0  0
   20.1514   24.9710   -4.7634 C   0  0  0  0  0  0  0  0  0  0  0  0
   19.9116   31.7312   -1.1492 C   0  0  2  0  0  0  0  0  0  0  0  0
   19.9882   32.7335   -2.2808 N   0  0  0  0  0  0  0  0  0  0  0  0
   18.8440   26.9050    0.5525 C   0  0  2  0  0  0  0  0  0  0  0  0
   18.9502   27.4752   -2.8780 C   0  0  1  0  0  0  0  0  0  0  0  0
   18.3789   26.8631   -1.7364 O   0  0  0  0  0  0  0  0  0  0  0  0
   20.9247   30.6084   -1.3440 C   0  0  1  0  0  0  0  0  0  0  0  0
   22.2475   31.2983   -1.4226 O   0  0  0  0  0  0  0  0  0  0  0  0
   19.3261   26.5149   -0.8329 C   0  0  2  0  0  0  0  0  0  0  0  0
   18.5187   26.7089   -4.1048 C   0  0  1  0  0  0  0  0  0  0  0  0
   18.9868   25.3702   -4.0255 N   0  0  0  0  0  0  0  0  0  0  0  0
   20.8651   29.5536   -0.2411 C   0  0  2  0  0  0  0  0  0  0  0  0
   21.8110   28.4650   -0.3752 N   0  0  0  0  0  0  0  0  0  0  0  0
   19.4844   25.0210   -0.7316 C   0  0  1  0  0  0  0  0  0  0  0  0
   18.2509   24.3750   -1.0636 O   0  0  0  0  0  0  0  0  0  0  0  0
   17.0001   26.7205   -4.1535 C   0  0  2  0  0  0  0  0  0  0  0  0
   16.5415   26.0064   -5.2805 O   0  0  0  0  0  0  0  0  0  0  0  0
   19.4728   28.9782   -0.2218 C   0  0  1  0  0  0  0  0  0  0  0  0
   19.4345   28.1340    0.9623 O   0  0  0  0  0  0  0  0  0  0  0  0
   19.8046   24.7835    0.6979 C   0  0  1  0  0  0  0  0  0  0  0  0
   19.2176   25.8521    1.4442 O   0  0  0  0  0  0  0  0  0  0  0  0
   16.5683   28.1847   -4.2384 C   0  0  1  0  0  0  0  0  0  0  0  0
   15.1531   28.2802   -4.2818 O   0  0  0  0  0  0  0  0  0  0  0  0
   18.4333   30.1043    0.0267 C   0  0  2  0  0  0  0  0  0  0  0  0
   17.1316   29.5395    0.0553 O   0  0  0  0  0  0  0  0  0  0  0  0
   17.1058   28.9314   -3.0173 C   0  0  1  0  0  0  0  0  0  0  0  0
   18.5285   28.8336   -2.9749 O   0  0  0  0  0  0  0  0  0  0  0  0
   18.5174   31.1391   -1.1119 C   0  0  1  0  0  0  0  0  0  0  0  0
   17.5633   32.1859   -0.8973 O   0  0  0  0  0  0  0  0  0  0  0  0
   16.7017   30.4025   -3.1180 C   0  0  0  0  0  0  0  0  0  0  0  0
   17.1908   30.9373   -4.3375 O   0  0  0  0  0  0  0  0  0  0  0  0
   18.5362   34.4690   -2.5463 N   0  0  0  0  0  0  0  0  0  0  0  0
   23.5449   27.8677    0.6874 N   0  0  0  0  0  0  0  0  0  0  0  0
  1  2  1  0  0  0  0
  1 39  1  0  0  0  0
  3  4  1  0  0  0  0
  5  6  1  0  0  0  0
  5 40  1  0  0  0  0
  9 10  1  6  0  0  0
  9 14  1  0  0  0  0
  9 35  1  0  0  0  0
 10  1  1  0  0  0  0
 11 16  1  0  0  0  0
 11 28  1  0  0  0  0
 11 26  1  1  0  0  0
 12 17  1  0  0  0  0
 12 34  1  0  0  0  0
 12 13  1  1  0  0  0
 14 15  1  1  0  0  0
 14 19  1  0  0  0  0
 16 13  1  6  0  0  0
 16 21  1  0  0  0  0
 17 18  1  1  0  0  0
 17 23  1  0  0  0  0
 18  8  1  0  0  0  0
 19 20  1  6  0  0  0
 19 25  1  0  0  0  0
 20  5  1  0  0  0  0
 21  3  1  6  0  0  0
 21 22  1  0  0  0  0
 21 27  1  0  0  0  0
 23 24  1  6  0  0  0
 23 29  1  0  0  0  0
 25 26  1  1  0  0  0
 25 31  1  0  0  0  0
 27  7  1  1  0  0  0
 27 28  1  0  0  0  0
 29 30  1  1  0  0  0
 29 33  1  0  0  0  0
 31 32  1  6  0  0  0
 31 35  1  0  0  0  0
 33 34  1  0  0  0  0
 33 37  1  6  0  0  0
 35 36  1  1  0  0  0
 37 38  1  0  0  0  0
M  END
>  <CHROM.1>
-156.43521092,61.15965803,38.85235200,124.08952487,136.14366146,-101.14012242
133.43905653,29.18047955,65.65009338,-133.40454822,-56.91776291,19.18665666
28.42553270,-1.53098888,-1.65438477,0.82124622,3.12435685

>  <Name>
1ntb_lig

>  <RI>
0

>  <Rbt.Current_Directory>
/home/itssahil/PROJECTS/Mol_Feturizer/New_Systems/rnas/1ntb

>  <Rbt.Executable>
rbdock ($Id: //depot/dev/client3/rdock/2013.1/src/exe/rbdock.cxx#4 $)

>  <Rbt.Library>
libRbt.so (2013.1, Build901 2013/11/27)

>  <Rbt.Parameter_File>
/export/apps/rDock/src/rDock_2013.1_src/data/scripts/dock_solv.prm

>  <Rbt.Receptor>
prm/blind_docking_80.prm

>  <SCORE>
-16.3092

>  <SCORE.INTER>
-19.1351

>  <SCORE.INTER.CONST>
1

>  <SCORE.INTER.POLAR>
-2.34678

>  <SCORE.INTER.ROT>
11

>  <SCORE.INTER.SOLV>
25.9794

>  <SCORE.INTER.VDW>
-24.5273

>  <SCORE.INTER.norm>
-0.478379

>  <SCORE.INTRA>
2.18227

>  <SCORE.INTRA.DIHEDRAL>
9.90871

>  <SCORE.INTRA.DIHEDRAL.0>
15.4453

>  <SCORE.INTRA.POLAR>
0

>  <SCORE.INTRA.POLAR.0>
0

>  <SCORE.INTRA.REPUL>
-0.823958

>  <SCORE.INTRA.REPUL.0>
0.823958

>  <SCORE.INTRA.SOLV>
3.80025

>  <SCORE.INTRA.SOLV.lig_0>
-99.3069

>  <SCORE.INTRA.VDW>
-0.55242

>  <SCORE.INTRA.VDW.0>
0.946495

>  <SCORE.INTRA.norm>
0.0545568

>  <SCORE.RESTR>
0.643713

>  <SCORE.RESTR.CAVITY>
0.643713

>  <SCORE.RESTR.norm>
0.0160928

>  <SCORE.SYSTEM>
0

>  <SCORE.SYSTEM.CONST>
0

>  <SCORE.SYSTEM.DIHEDRAL>
0

>  <SCORE.SYSTEM.SOLV>
0

>  <SCORE.SYSTEM.norm>
0

>  <SCORE.heavy>
40

>  <SCORE.norm>
-0.407729

>  <RMSD>
18.330

$$$$
1ntb_lig
 OpenBabel11021811403D
libRbt.so/2013.1/901 2013/11/27
 40 42  0  0  0  0  0  0  0  0999 V2000
   18.5177   34.4221   -1.9127 C   0  0  0  0  0  0  0  0  0  0  0  0
   19.7481   34.6479   -1.6572 N   0  0  0  0  0  0  0  0  0  0  0  0
   17.9606   24.1114   -2.0839 C   0  0  0  0  0  0  0  0  0  0  0  0
   19.1715   23.6080   -1.5447 O   0  0  0  0  0  0  0  0  0  0  0  0
   20.4099   29.9681   -1.4567 C   0  0  0  0  0  0  0  0  0  0  0  0
   21.3438   30.8111   -1.1938 N   0  0  0  0  0  0  0  0  0  0  0  0
   17.1021   25.4821   -4.9060 C   0  0  0  0  0  0  0  0  0  0  0  0
   22.3202   24.3782   -1.9519 C   0  0  0  0  0  0  0  0  0  0  0  0
   17.4329   32.7186   -0.6931 C   0  0  2  0  0  0  0  0  0  0  0  0
   17.7510   34.1884   -0.8649 N   0  0  0  0  0  0  0  0  0  0  0  0
   17.8480   27.7789   -2.3518 C   0  0  2  0  0  0  0  0  0  0  0  0
   20.1961   25.8799   -0.4043 C   0  0  1  0  0  0  0  0  0  0  0  0
   19.7247   26.7461   -1.4200 O   0  0  0  0  0  0  0  0  0  0  0  0
   18.7038   31.8768   -0.7265 C   0  0  1  0  0  0  0  0  0  0  0  0
   19.5510   32.4222    0.3765 O   0  0  0  0  0  0  0  0  0  0  0  0
   18.4109   26.5407   -1.6780 C   0  0  2  0  0  0  0  0  0  0  0  0
   21.6868   26.0689   -0.2606 C   0  0  1  0  0  0  0  0  0  0  0  0
   22.3343   25.7336   -1.4795 N   0  0  0  0  0  0  0  0  0  0  0  0
   18.4316   30.3804   -0.5871 C   0  0  2  0  0  0  0  0  0  0  0  0
   19.6066   29.5339   -0.6079 N   0  0  0  0  0  0  0  0  0  0  0  0
   18.2021   25.4649   -2.7105 C   0  0  1  0  0  0  0  0  0  0  0  0
   19.3305   25.4050   -3.5893 O   0  0  0  0  0  0  0  0  0  0  0  0
   21.9433   27.5289    0.0731 C   0  0  2  0  0  0  0  0  0  0  0  0
   23.3279   27.7636    0.2090 O   0  0  0  0  0  0  0  0  0  0  0  0
   17.5227   29.9655   -1.7149 C   0  0  1  0  0  0  0  0  0  0  0  0
   17.1544   28.5915   -1.4108 O   0  0  0  0  0  0  0  0  0  0  0  0
   17.0038   25.9097   -3.4645 C   0  0  1  0  0  0  0  0  0  0  0  0
   16.9572   27.3358   -3.3782 O   0  0  0  0  0  0  0  0  0  0  0  0
   21.2219   27.8183    1.3896 C   0  0  1  0  0  0  0  0  0  0  0  0
   21.4099   29.1730    1.7680 O   0  0  0  0  0  0  0  0  0  0  0  0
   16.2019   30.7798   -1.6631 C   0  0  2  0  0  0  0  0  0  0  0  0
   15.3557   30.3640   -2.7238 O   0  0  0  0  0  0  0  0  0  0  0  0
   19.7315   27.5267    1.2125 C   0  0  1  0  0  0  0  0  0  0  0  0
   19.5445   26.1647    0.8313 O   0  0  0  0  0  0  0  0  0  0  0  0
   16.5187   32.2797   -1.8190 C   0  0  1  0  0  0  0  0  0  0  0  0
   15.3090   33.0457   -1.7734 O   0  0  0  0  0  0  0  0  0  0  0  0
   19.0146   27.7851    2.5380 C   0  0  0  0  0  0  0  0  0  0  0  0
   19.4831   26.8624    3.5083 O   0  0  0  0  0  0  0  0  0  0  0  0
   18.0551   34.3975   -3.1131 N   0  0  0  0  0  0  0  0  0  0  0  0
   20.2431   29.5875   -2.6288 N   0  0  0  0  0  0  0  0  0  0  0  0
  1  2  1  0  0  0  0
  1 39  1  0  0  0  0
  3  4  1  0  0  0  0
  5  6  1  0  0  0  0
  5 40  1  0  0  0  0
  9 10  1  6  0  0  0
  9 14  1  0  0  0  0
  9 35  1  0  0  0  0
 10  1  1  0  0  0  0
 11 16  1  0  0  0  0
 11 28  1  0  0  0  0
 11 26  1  1  0  0  0
 12 17  1  0  0  0  0
 12 34  1  0  0  0  0
 12 13  1  6  0  0  0
 14 15  1  1  0  0  0
 14 19  1  0  0  0  0
 16 13  1  6  0  0  0
 16 21  1  0  0  0  0
 17 18  1  6  0  0  0
 17 23  1  0  0  0  0
 18  8  1  0  0  0  0
 19 20  1  6  0  0  0
 19 25  1  0  0  0  0
 20  5  1  0  0  0  0
 21  3  1  1  0  0  0
 21 22  1  0  0  0  0
 21 27  1  0  0  0  0
 23 24  1  1  0  0  0
 23 29  1  0  0  0  0
 25 26  1  1  0  0  0
 25 31  1  0  0  0  0
 27  7  1  6  0  0  0
 27 28  1  0  0  0  0
 29 30  1  6  0  0  0
 29 33  1  0  0  0  0
 31 32  1  6  0  0  0
 31 35  1  0  0  0  0
 33 34  1  0  0  0  0
 33 37  1  1  0  0  0
 35 36  1  1  0  0  0
 37 38  1  0  0  0  0
M  END
>  <CHROM.1>
51.05302596,-102.86287153,138.32729749,174.65615301,159.14773743,-66.17337725
-39.54657880,91.44773695,-73.06457629,-107.99429743,-64.57940725,19.04722583
28.73402117,-1.13707410,-1.97199960,0.71311111,-2.92452097

>  <Name>
1ntb_lig

>  <RI>
0

>  <Rbt.Current_Directory>
/home/itssahil/PROJECTS/Mol_Feturizer/New_Systems/rnas/1ntb

>  <Rbt.Executable>
rbdock ($Id: //depot/dev/client3/rdock/2013.1/src/exe/rbdock.cxx#4 $)

>  <Rbt.Library>
libRbt.so (2013.1, Build901 2013/11/27)

>  <Rbt.Parameter_File>
/export/apps/rDock/src/rDock_2013.1_src/data/scripts/dock_solv.prm

>  <Rbt.Receptor>
prm/blind_docking_60.prm

>  <SCORE>
-15.5472

>  <SCORE.INTER>
-13.4974

>  <SCORE.INTER.CONST>
1

>  <SCORE.INTER.POLAR>
-0.87178

>  <SCORE.INTER.ROT>
11

>  <SCORE.INTER.SOLV>
18.8511

>  <SCORE.INTER.VDW>
-23.3093

>  <SCORE.INTER.norm>
-0.337435

>  <SCORE.INTRA>
-2.26778

>  <SCORE.INTRA.DIHEDRAL>
0.790407

>  <SCORE.INTRA.DIHEDRAL.0>
15.4453

>  <SCORE.INTRA.POLAR>
0

>  <SCORE.INTRA.POLAR.0>
0

>  <SCORE.INTRA.REPUL>
-0.822914

>  <SCORE.INTRA.REPUL.0>
0.823958

>  <SCORE.INTRA.SOLV>
9.84184

>  <SCORE.INTRA.SOLV.lig_0>
-99.3069

>  <SCORE.INTRA.VDW>
-3.46933

>  <SCORE.INTRA.VDW.0>
0.946495

>  <SCORE.INTRA.norm>
-0.0566946

>  <SCORE.RESTR>
0.217987

>  <SCORE.RESTR.CAVITY>
0.217987

>  <SCORE.RESTR.norm>
0.00544967

>  <SCORE.SYSTEM>
0

>  <SCORE.SYSTEM.CONST>
0

>  <SCORE.SYSTEM.DIHEDRAL>
0

>  <SCORE.SYSTEM.SOLV>
0

>  <SCORE.SYSTEM.norm>
0

>  <SCORE.heavy>
40

>  <SCORE.norm>
-0.38868

>  <RMSD>
18.349

$$$$
1ntb_lig
 OpenBabel11021811403D
libRbt.so/2013.1/901 2013/11/27
 40 42  0  0  0  0  0  0  0  0999 V2000
   18.8486   27.3766    6.6438 C   0  0  0  0  0  0  0  0  0  0  0  0
   19.0135   26.3865    7.4328 N   0  0  0  0  0  0  0  0  0  0  0  0
   20.2974   25.1816   -4.1213 C   0  0  0  0  0  0  0  0  0  0  0  0
   19.4265   25.9305   -4.9525 O   0  0  0  0  0  0  0  0  0  0  0  0
   20.5711   29.5694    1.2692 C   0  0  0  0  0  0  0  0  0  0  0  0
   20.4740   30.6104    2.0169 N   0  0  0  0  0  0  0  0  0  0  0  0
   20.0430   22.4133   -2.4325 C   0  0  0  0  0  0  0  0  0  0  0  0
   15.4778   26.0058   -2.5685 C   0  0  0  0  0  0  0  0  0  0  0  0
   18.9732   26.8450    4.3486 C   0  0  2  0  0  0  0  0  0  0  0  0
   18.1245   27.1345    5.5680 N   0  0  0  0  0  0  0  0  0  0  0  0
   19.4406   25.3174   -0.5461 C   0  0  2  0  0  0  0  0  0  0  0  0
   18.1658   27.4182   -3.1933 C   0  0  1  0  0  0  0  0  0  0  0  0
   18.1757   26.5388   -2.0840 O   0  0  0  0  0  0  0  0  0  0  0  0
   18.8753   27.9780    3.3330 C   0  0  1  0  0  0  0  0  0  0  0  0
   19.3197   29.1953    4.0763 O   0  0  0  0  0  0  0  0  0  0  0  0
   19.3884   25.9578   -1.9212 C   0  0  2  0  0  0  0  0  0  0  0  0
   16.7675   27.9589   -3.3696 C   0  0  1  0  0  0  0  0  0  0  0  0
   15.8676   26.8911   -3.6290 N   0  0  0  0  0  0  0  0  0  0  0  0
   19.6923   27.7180    2.0690 C   0  0  2  0  0  0  0  0  0  0  0  0
   19.6382   28.7665    1.0714 N   0  0  0  0  0  0  0  0  0  0  0  0
   19.5812   24.7887   -2.8503 C   0  0  1  0  0  0  0  0  0  0  0  0
   18.3150   24.1984   -3.1625 O   0  0  0  0  0  0  0  0  0  0  0  0
   16.3725   28.6630   -2.0825 C   0  0  2  0  0  0  0  0  0  0  0  0
   15.0645   29.1808   -2.1898 O   0  0  0  0  0  0  0  0  0  0  0  0
   19.1937   26.4394    1.4472 C   0  0  1  0  0  0  0  0  0  0  0  0
   20.1327   26.1562    0.3728 O   0  0  0  0  0  0  0  0  0  0  0  0
   20.4004   23.8307   -2.0670 C   0  0  1  0  0  0  0  0  0  0  0  0
   20.1187   24.0668   -0.6857 O   0  0  0  0  0  0  0  0  0  0  0  0
   17.3777   29.7947   -1.8672 C   0  0  1  0  0  0  0  0  0  0  0  0
   17.0778   30.5008   -0.6733 O   0  0  0  0  0  0  0  0  0  0  0  0
   19.3347   25.2658    2.4537 C   0  0  2  0  0  0  0  0  0  0  0  0
   18.8734   24.0702    1.8439 O   0  0  0  0  0  0  0  0  0  0  0  0
   18.7836   29.1995   -1.7839 C   0  0  1  0  0  0  0  0  0  0  0  0
   19.0829   28.4894   -2.9845 O   0  0  0  0  0  0  0  0  0  0  0  0
   18.4878   25.5613    3.7065 C   0  0  1  0  0  0  0  0  0  0  0  0
   18.6071   24.4865    4.6462 O   0  0  0  0  0  0  0  0  0  0  0  0
   19.7923   30.3338   -1.6009 C   0  0  0  0  0  0  0  0  0  0  0  0
   19.5797   31.3125   -2.6056 O   0  0  0  0  0  0  0  0  0  0  0  0
   19.3731   28.5306    6.8651 N   0  0  0  0  0  0  0  0  0  0  0  0
   21.6307   29.3563    0.6540 N   0  0  0  0  0  0  0  0  0  0  0  0
  1  2  1  0  0  0  0
  1 39  1  0  0  0  0
  3  4  1  0  0  0  0
  5  6  1  0  0  0  0
  5 40  1  0  0  0  0
  9 10  1  1  0  0  0
  9 14  1  0  0  0  0
  9 35  1  0  0  0  0
 10  1  1  0  0  0  0
 11 16  1  0  0  0  0
 11 28  1  0  0  0  0
 11 26  1  1  0  0  0
 12 17  1  0  0  0  0
 12 34  1  0  0  0  0
 12 13  1  1  0  0  0
 14 15  1  1  0  0  0
 14 19  1  0  0  0  0
 16 13  1  6  0  0  0
 16 21  1  0  0  0  0
 17 18  1  1  0  0  0
 17 23  1  0  0  0  0
 18  8  1  0  0  0  0
 19 20  1  6  0  0  0
 19 25  1  0  0  0  0
 20  5  1  0  0  0  0
 21  3  1  6  0  0  0
 21 22  1  0  0  0  0
 21 27  1  0  0  0  0
 23 24  1  6  0  0  0
 23 29  1  0  0  0  0
 25 26  1  6  0  0  0
 25 31  1  0  0  0  0
 27  7  1  6  0  0  0
 27 28  1  0  0  0  0
 29 30  1  1  0  0  0
 29 33  1  0  0  0  0
 31 32  1  6  0  0  0
 31 35  1  0  0  0  0
 33 34  1  0  0  0  0
 33 37  1  6  0  0  0
 35 36  1  1  0  0  0
 37 38  1  0  0  0  0
M  END
>  <CHROM.1>
-110.67322486,-97.65761841,121.28745220,176.37230536,165.91045109,73.92829610
91.26964805,-90.37555500,-72.95588484,-157.20709006,-51.89016214,18.83076645
27.12666027,0.11549800,-0.93933831,1.39086604,-2.25037248

>  <Name>
1ntb_lig

>  <RI>
0

>  <Rbt.Current_Directory>
/home/itssahil/PROJECTS/Mol_Feturizer/New_Systems/rnas/1ntb

>  <Rbt.Executable>
rbdock ($Id: //depot/dev/client3/rdock/2013.1/src/exe/rbdock.cxx#4 $)

>  <Rbt.Library>
libRbt.so (2013.1, Build901 2013/11/27)

>  <Rbt.Parameter_File>
/export/apps/rDock/src/rDock_2013.1_src/data/scripts/dock_solv.prm

>  <Rbt.Receptor>
prm/blind_docking_40.prm

>  <SCORE>
-16.0681

>  <SCORE.INTER>
-9.97112

>  <SCORE.INTER.CONST>
1

>  <SCORE.INTER.POLAR>
-0.708926

>  <SCORE.INTER.ROT>
11

>  <SCORE.INTER.SOLV>
10.1115

>  <SCORE.INTER.VDW>
-18.5882

>  <SCORE.INTER.norm>
-0.249278

>  <SCORE.INTRA>
-6.17016

>  <SCORE.INTRA.DIHEDRAL>
-1.19225

>  <SCORE.INTRA.DIHEDRAL.0>
15.4453

>  <SCORE.INTRA.POLAR>
0

>  <SCORE.INTRA.POLAR.0>
0

>  <SCORE.INTRA.REPUL>
-0.823958

>  <SCORE.INTRA.REPUL.0>
0.823958

>  <SCORE.INTRA.SOLV>
1.86617

>  <SCORE.INTRA.SOLV.lig_0>
-99.3069

>  <SCORE.INTRA.VDW>
-2.38734

>  <SCORE.INTRA.VDW.0>
0.946495

>  <SCORE.INTRA.norm>
-0.154254

>  <SCORE.RESTR>
0.0731985

>  <SCORE.RESTR.CAVITY>
0.0731985

>  <SCORE.RESTR.norm>
0.00182996

>  <SCORE.SYSTEM>
0

>  <SCORE.SYSTEM.CONST>
0

>  <SCORE.SYSTEM.DIHEDRAL>
0

>  <SCORE.SYSTEM.SOLV>
0

>  <SCORE.SYSTEM.norm>
0

>  <SCORE.heavy>
40

>  <SCORE.norm>
-0.401702

>  <RMSD>
18.362

$$$$
1ntb_lig
 OpenBabel11021811403D
libRbt.so/2013.1/901 2013/11/27
 40 42  0  0  0  0  0  0  0  0999 V2000
   12.4927   31.2055   -1.2822 C   0  0  0  0  0  0  0  0  0  0  0  0
   12.3963   32.1207   -0.3970 N   0  0  0  0  0  0  0  0  0  0  0  0
   21.6611   28.2006    1.1348 C   0  0  0  0  0  0  0  0  0  0  0  0
   21.9792   28.3945    2.5029 O   0  0  0  0  0  0  0  0  0  0  0  0
   15.6686   26.6058   -2.9505 C   0  0  0  0  0  0  0  0  0  0  0  0
   15.0312   26.9687   -4.0059 N   0  0  0  0  0  0  0  0  0  0  0  0
   19.0145   28.5958    2.9839 C   0  0  0  0  0  0  0  0  0  0  0  0
   23.1634   23.6835   -0.5216 C   0  0  0  0  0  0  0  0  0  0  0  0
   14.4756   30.8766   -2.5173 C   0  0  2  0  0  0  0  0  0  0  0  0
   13.1244   31.5465   -2.3889 N   0  0  0  0  0  0  0  0  0  0  0  0
   18.3298   28.0281   -0.4167 C   0  0  2  0  0  0  0  0  0  0  0  0
   20.8796   26.2306   -1.8846 C   0  0  1  0  0  0  0  0  0  0  0  0
   19.9022   26.3606   -0.8689 O   0  0  0  0  0  0  0  0  0  0  0  0
   14.3904   29.3992   -2.1501 C   0  0  1  0  0  0  0  0  0  0  0  0
   13.3689   28.8334   -3.0819 O   0  0  0  0  0  0  0  0  0  0  0  0
   19.7974   27.6416   -0.4410 C   0  0  2  0  0  0  0  0  0  0  0  0
   21.4204   24.8215   -1.8582 C   0  0  1  0  0  0  0  0  0  0  0  0
   22.0333   24.5646   -0.6029 N   0  0  0  0  0  0  0  0  0  0  0  0
   15.7377   28.6850   -2.2351 C   0  0  2  0  0  0  0  0  0  0  0  0
   15.7126   27.2761   -1.9003 N   0  0  0  0  0  0  0  0  0  0  0  0
   20.2137   27.7894    0.9984 C   0  0  1  0  0  0  0  0  0  0  0  0
   19.9826   26.5646    1.7025 O   0  0  0  0  0  0  0  0  0  0  0  0
   20.2548   23.8692   -2.0658 C   0  0  2  0  0  0  0  0  0  0  0  0
   20.7049   22.5323   -2.0397 O   0  0  0  0  0  0  0  0  0  0  0  0
   16.6937   29.3817   -1.3019 C   0  0  1  0  0  0  0  0  0  0  0  0
   17.9890   28.7794   -1.5770 O   0  0  0  0  0  0  0  0  0  0  0  0
   19.3203   28.8483    1.5303 C   0  0  1  0  0  0  0  0  0  0  0  0
   18.1157   28.8084    0.7617 O   0  0  0  0  0  0  0  0  0  0  0  0
   19.6463   24.2002   -3.4287 C   0  0  1  0  0  0  0  0  0  0  0  0
   18.5404   23.3518   -3.6947 O   0  0  0  0  0  0  0  0  0  0  0  0
   16.8294   30.8773   -1.6958 C   0  0  2  0  0  0  0  0  0  0  0  0
   17.7438   31.5107   -0.8145 O   0  0  0  0  0  0  0  0  0  0  0  0
   19.1963   25.6615   -3.4287 C   0  0  1  0  0  0  0  0  0  0  0  0
   20.3091   26.5129   -3.1602 O   0  0  0  0  0  0  0  0  0  0  0  0
   15.4538   31.5627   -1.5854 C   0  0  1  0  0  0  0  0  0  0  0  0
   15.5621   32.9449   -1.9458 O   0  0  0  0  0  0  0  0  0  0  0  0
   18.6172   26.0022   -4.8020 C   0  0  0  0  0  0  0  0  0  0  0  0
   18.0455   27.2997   -4.7575 O   0  0  0  0  0  0  0  0  0  0  0  0
   11.9864   30.0335   -1.1214 N   0  0  0  0  0  0  0  0  0  0  0  0
   16.2396   25.5011   -2.9317 N   0  0  0  0  0  0  0  0  0  0  0  0
  1  2  1  0  0  0  0
  1 39  1  0  0  0  0
  3  4  1  0  0  0  0
  5  6  1  0  0  0  0
  5 40  1  0  0  0  0
  9 10  1  1  0  0  0
  9 14  1  0  0  0  0
  9 35  1  0  0  0  0
 10  1  1  0  0  0  0
 11 16  1  0  0  0  0
 11 28  1  0  0  0  0
 11 26  1  6  0  0  0
 12 17  1  0  0  0  0
 12 34  1  0  0  0  0
 12 13  1  1  0  0  0
 14 15  1  6  0  0  0
 14 19  1  0  0  0  0
 16 13  1  1  0  0  0
 16 21  1  0  0  0  0
 17 18  1  1  0  0  0
 17 23  1  0  0  0  0
 18  8  1  0  0  0  0
 19 20  1  1  0  0  0
 19 25  1  0  0  0  0
 20  5  1  0  0  0  0
 21  3  1  1  0  0  0
 21 22  1  0  0  0  0
 21 27  1  0  0  0  0
 23 24  1  6  0  0  0
 23 29  1  0  0  0  0
 25 26  1  6  0  0  0
 25 31  1  0  0  0  0
 27  7  1  1  0  0  0
 27 28  1  0  0  0  0
 29 30  1  1  0  0  0
 29 33  1  0  0  0  0
 31 32  1  1  0  0  0
 31 35  1  0  0  0  0
 33 34  1  0  0  0  0
 33 37  1  6  0  0  0
 35 36  1  6  0  0  0
 37 38  1  0  0  0  0
M  END
>  <CHROM.1>
44.28013617,109.45026019,-165.80053963,153.30975043,131.58610092,-147.44254714
98.53650948,-35.37250219,176.88515558,-111.57496488,172.70019730,17.84179965
27.78436582,-1.44548963,2.70697078,-0.55668628,0.74200204

>  <Name>
1ntb_lig

>  <RI>
0

>  <Rbt.Current_Directory>
/home/itssahil/PROJECTS/Mol_Feturizer/New_Systems/rnas/1ntb

>  <Rbt.Executable>
rbdock ($Id: //depot/dev/client3/rdock/2013.1/src/exe/rbdock.cxx#4 $)

>  <Rbt.Library>
libRbt.so (2013.1, Build901 2013/11/27)

>  <Rbt.Parameter_File>
/export/apps/rDock/src/rDock_2013.1_src/data/scripts/dock_solv.prm

>  <Rbt.Receptor>
prm/blind_docking_80.prm

>  <SCORE>
-1.72329

>  <SCORE.INTER>
-1.97233

>  <SCORE.INTER.CONST>
1

>  <SCORE.INTER.POLAR>
-1.25205

>  <SCORE.INTER.ROT>
11

>  <SCORE.INTER.SOLV>
29.0456

>  <SCORE.INTER.VDW>
-17.7566

>  <SCORE.INTER.norm>
-0.0493082

>  <SCORE.INTRA>
-1.93167

>  <SCORE.INTRA.DIHEDRAL>
4.76109

>  <SCORE.INTRA.DIHEDRAL.0>
15.4453

>  <SCORE.INTRA.POLAR>
0

>  <SCORE.INTRA.POLAR.0>
0

>  <SCORE.INTRA.REPUL>
-0.823958

>  <SCORE.INTRA.REPUL.0>
0.823958

>  <SCORE.INTRA.SOLV>
5.91087

>  <SCORE.INTRA.SOLV.lig_0>
-99.3069

>  <SCORE.INTRA.VDW>
-3.14786

>  <SCORE.INTRA.VDW.0>
0.946495

>  <SCORE.INTRA.norm>
-0.0482918

>  <SCORE.RESTR>
2.18071

>  <SCORE.RESTR.CAVITY>
2.18071

>  <SCORE.RESTR.norm>
0.0545176

>  <SCORE.SYSTEM>
0

>  <SCORE.SYSTEM.CONST>
0

>  <SCORE.SYSTEM.DIHEDRAL>
0

>  <SCORE.SYSTEM.SOLV>
0

>  <SCORE.SYSTEM.norm>
0

>  <SCORE.heavy>
40

>  <SCORE.norm>
-0.0430823

>  <RMSD>
18.362

$$$$
1ntb_lig
 OpenBabel11021811403D
libRbt.so/2013.1/901 2013/11/27
 40 42  0  0  0  0  0  0  0  0999 V2000
   17.8040   20.8791    1.5305 C   0  0  0  0  0  0  0  0  0  0  0  0
   17.6022   19.7370    0.9966 N   0  0  0  0  0  0  0  0  0  0  0  0
   20.3528   30.1778    1.3575 C   0  0  0  0  0  0  0  0  0  0  0  0
   21.4499   30.0902    2.2514 O   0  0  0  0  0  0  0  0  0  0  0  0
   17.6002   25.1420   -3.4453 C   0  0  0  0  0  0  0  0  0  0  0  0
   16.7513   25.8697   -2.8113 N   0  0  0  0  0  0  0  0  0  0  0  0
   22.7605   28.1814    0.4645 C   0  0  0  0  0  0  0  0  0  0  0  0
   19.5123   33.7469   -1.8206 C   0  0  0  0  0  0  0  0  0  0  0  0
   18.4275   22.9294    0.5439 C   0  0  2  0  0  0  0  0  0  0  0  0
   18.8269   21.5603    1.0510 N   0  0  0  0  0  0  0  0  0  0  0  0
   19.7308   27.6418   -1.2341 C   0  0  2  0  0  0  0  0  0  0  0  0
   18.1320   30.8177   -1.1803 C   0  0  1  0  0  0  0  0  0  0  0  0
   19.0792   29.8545   -1.6036 O   0  0  0  0  0  0  0  0  0  0  0  0
   18.7137   23.0647   -0.9476 C   0  0  1  0  0  0  0  0  0  0  0  0
   17.9389   21.9583   -1.5860 O   0  0  0  0  0  0  0  0  0  0  0  0
   19.3758   28.9802   -0.6124 C   0  0  2  0  0  0  0  0  0  0  0  0
   17.9801   31.8562   -2.2651 C   0  0  1  0  0  0  0  0  0  0  0  0
   19.2228   32.5079   -2.4850 N   0  0  0  0  0  0  0  0  0  0  0  0
   18.3550   24.4423   -1.5009 C   0  0  2  0  0  0  0  0  0  0  0  0
   18.6030   24.6237   -2.9163 N   0  0  0  0  0  0  0  0  0  0  0  0
   20.6362   29.3634    0.1168 C   0  0  1  0  0  0  0  0  0  0  0  0
   21.5063   30.0884   -0.7585 O   0  0  0  0  0  0  0  0  0  0  0  0
   17.5403   31.1460   -3.5343 C   0  0  2  0  0  0  0  0  0  0  0  0
   17.3924   32.0733   -4.5873 O   0  0  0  0  0  0  0  0  0  0  0  0
   19.1503   25.4712   -0.7400 C   0  0  1  0  0  0  0  0  0  0  0  0
   18.6204   26.7525   -1.1802 O   0  0  0  0  0  0  0  0  0  0  0  0
   21.2583   28.0654    0.4782 C   0  0  1  0  0  0  0  0  0  0  0  0
   20.8315   27.1085   -0.4942 O   0  0  0  0  0  0  0  0  0  0  0  0
   16.2034   30.4712   -3.2267 C   0  0  1  0  0  0  0  0  0  0  0  0
   15.7265   29.7770   -4.3689 O   0  0  0  0  0  0  0  0  0  0  0  0
   18.8303   25.3786    0.7764 C   0  0  2  0  0  0  0  0  0  0  0  0
   19.5780   26.3642    1.4719 O   0  0  0  0  0  0  0  0  0  0  0  0
   16.3962   29.4962   -2.0648 C   0  0  1  0  0  0  0  0  0  0  0  0
   16.8764   30.1956   -0.9178 O   0  0  0  0  0  0  0  0  0  0  0  0
   19.2171   23.9808    1.2968 C   0  0  1  0  0  0  0  0  0  0  0  0
   18.9279   23.8791    2.6962 O   0  0  0  0  0  0  0  0  0  0  0  0
   15.0527   28.8449   -1.7357 C   0  0  0  0  0  0  0  0  0  0  0  0
   14.1026   29.8579   -1.4465 O   0  0  0  0  0  0  0  0  0  0  0  0
   17.0765   21.3304    2.4911 N   0  0  0  0  0  0  0  0  0  0  0  0
   17.4047   24.8812   -4.6454 N   0  0  0  0  0  0  0  0  0  0  0  0
  1  2  1  0  0  0  0
  1 39  1  0  0  0  0
  3  4  1  0  0  0  0
  5  6  1  0  0  0  0
  5 40  1  0  0  0  0
  9 10  1  1  0  0  0
  9 14  1  0  0  0  0
  9 35  1  0  0  0  0
 10  1  1  0  0  0  0
 11 16  1  0  0  0  0
 11 28  1  0  0  0  0
 11 26  1  1  0  0  0
 12 17  1  0  0  0  0
 12 34  1  0  0  0  0
 12 13  1  6  0  0  0
 14 15  1  6  0  0  0
 14 19  1  0  0  0  0
 16 13  1  6  0  0  0
 16 21  1  0  0  0  0
 17 18  1  6  0  0  0
 17 23  1  0  0  0  0
 18  8  1  0  0  0  0
 19 20  1  6  0  0  0
 19 25  1  0  0  0  0
 20  5  1  0  0  0  0
 21  3  1  1  0  0  0
 21 22  1  0  0  0  0
 21 27  1  0  0  0  0
 23 24  1  6  0  0  0
 23 29  1  0  0  0  0
 25 26  1  6  0  0  0
 25 31  1  0  0  0  0
 27  7  1  6  0  0  0
 27 28  1  0  0  0  0
 29 30  1  6  0  0  0
 29 33  1  0  0  0  0
 31 32  1  1  0  0  0
 31 35  1  0  0  0  0
 33 34  1  0  0  0  0
 33 37  1  1  0  0  0
 35 36  1  1  0  0  0
 37 38  1  0  0  0  0
M  END
>  <CHROM.1>
-118.34348088,123.63839939,-135.38807479,172.88698552,149.76270986,-95.01385855
132.52963451,25.51212331,158.27684492,-143.65564482,-56.64034188,18.51779590
27.27075947,-0.91319168,1.55010900,0.73067880,2.86282911

>  <Name>
1ntb_lig

>  <RI>
0

>  <Rbt.Current_Directory>
/home/itssahil/PROJECTS/Mol_Feturizer/New_Systems/rnas/1ntb

>  <Rbt.Executable>
rbdock ($Id: //depot/dev/client3/rdock/2013.1/src/exe/rbdock.cxx#4 $)

>  <Rbt.Library>
libRbt.so (2013.1, Build901 2013/11/27)

>  <Rbt.Parameter_File>
/export/apps/rDock/src/rDock_2013.1_src/data/scripts/dock_solv.prm

>  <Rbt.Receptor>
prm/blind_docking_80.prm

>  <SCORE>
-7.71909

>  <SCORE.INTER>
-9.50409

>  <SCORE.INTER.CONST>
1

>  <SCORE.INTER.POLAR>
0

>  <SCORE.INTER.ROT>
11

>  <SCORE.INTER.SOLV>
16.4442

>  <SCORE.INTER.VDW>
-22.7508

>  <SCORE.INTER.norm>
-0.237602

>  <SCORE.INTRA>
0.0680609

>  <SCORE.INTRA.DIHEDRAL>
4.52198

>  <SCORE.INTRA.DIHEDRAL.0>
15.4453

>  <SCORE.INTRA.POLAR>
0

>  <SCORE.INTRA.POLAR.0>
0

>  <SCORE.INTRA.REPUL>
-0.823958

>  <SCORE.INTRA.REPUL.0>
0.823958

>  <SCORE.INTRA.SOLV>
-1.00834

>  <SCORE.INTRA.SOLV.lig_0>
-99.3069

>  <SCORE.INTRA.VDW>
2.43103

>  <SCORE.INTRA.VDW.0>
0.946495

>  <SCORE.INTRA.norm>
0.00170152

>  <SCORE.RESTR>
1.71694

>  <SCORE.RESTR.CAVITY>
1.71694

>  <SCORE.RESTR.norm>
0.0429236

>  <SCORE.SYSTEM>
0

>  <SCORE.SYSTEM.CONST>
0

>  <SCORE.SYSTEM.DIHEDRAL>
0

>  <SCORE.SYSTEM.SOLV>
0

>  <SCORE.SYSTEM.norm>
0

>  <SCORE.heavy>
40

>  <SCORE.norm>
-0.192977

>  <RMSD>
18.362

$$$$
1ntb_lig
 OpenBabel11021811403D
libRbt.so/2013.1/901 2013/11/27
 40 42  0  0  0  0  0  0  0  0999 V2000
   13.1427   30.9493   -2.3627 C   0  0  0  0  0  0  0  0  0  0  0  0
   13.2019   31.4111   -1.1738 N   0  0  0  0  0  0  0  0  0  0  0  0
   21.3487   23.7968   -0.2565 C   0  0  0  0  0  0  0  0  0  0  0  0
   21.5835   23.9705    1.1310 O   0  0  0  0  0  0  0  0  0  0  0  0
   19.1275   29.5178   -1.8432 C   0  0  0  0  0  0  0  0  0  0  0  0
   19.6737   28.8181   -2.7728 N   0  0  0  0  0  0  0  0  0  0  0  0
   21.6135   25.0449   -3.2485 C   0  0  0  0  0  0  0  0  0  0  0  0
   18.9556   24.2472    4.0051 C   0  0  0  0  0  0  0  0  0  0  0  0
   14.9898   29.4983   -2.1420 C   0  0  2  0  0  0  0  0  0  0  0  0
   14.2982   30.6101   -2.9012 N   0  0  0  0  0  0  0  0  0  0  0  0
   19.1021   26.5233   -1.2830 C   0  0  2  0  0  0  0  0  0  0  0  0
   19.1611   27.0474    1.6154 C   0  0  1  0  0  0  0  0  0  0  0  0
   20.2219   26.6579    0.7627 O   0  0  0  0  0  0  0  0  0  0  0  0
   16.4472   29.8502   -1.8645 C   0  0  1  0  0  0  0  0  0  0  0  0
   16.3905   31.1312   -1.0980 O   0  0  0  0  0  0  0  0  0  0  0  0
   19.8078   25.7685   -0.1712 C   0  0  2  0  0  0  0  0  0  0  0  0
   19.3984   26.4565    2.9840 C   0  0  1  0  0  0  0  0  0  0  0  0
   19.4158   25.0387    2.8997 N   0  0  0  0  0  0  0  0  0  0  0  0
   17.1974   28.7440   -1.1253 C   0  0  2  0  0  0  0  0  0  0  0  0
   18.5868   29.0288   -0.8320 N   0  0  0  0  0  0  0  0  0  0  0  0
   20.9656   25.1182   -0.8809 C   0  0  1  0  0  0  0  0  0  0  0  0
   22.0919   26.0018   -0.8903 O   0  0  0  0  0  0  0  0  0  0  0  0
   20.7428   26.9583    3.4834 C   0  0  2  0  0  0  0  0  0  0  0  0
   21.0198   26.4259    4.7603 O   0  0  0  0  0  0  0  0  0  0  0  0
   17.1318   27.4952   -1.9657 C   0  0  1  0  0  0  0  0  0  0  0  0
   17.6894   26.4488   -1.1228 O   0  0  0  0  0  0  0  0  0  0  0  0
   20.4771   24.9156   -2.2675 C   0  0  1  0  0  0  0  0  0  0  0  0
   19.4948   25.9229   -2.5195 O   0  0  0  0  0  0  0  0  0  0  0  0
   20.6524   28.4831    3.5500 C   0  0  1  0  0  0  0  0  0  0  0  0
   21.8797   29.0309    4.0052 O   0  0  0  0  0  0  0  0  0  0  0  0
   15.6522   27.0959   -2.2139 C   0  0  2  0  0  0  0  0  0  0  0  0
   15.6133   25.9111   -2.9941 O   0  0  0  0  0  0  0  0  0  0  0  0
   20.3241   29.0212    2.1570 C   0  0  1  0  0  0  0  0  0  0  0  0
   19.0904   28.4687    1.7007 O   0  0  0  0  0  0  0  0  0  0  0  0
   14.9357   28.2309   -2.9707 C   0  0  1  0  0  0  0  0  0  0  0  0
   13.5678   27.8776   -3.2079 O   0  0  0  0  0  0  0  0  0  0  0  0
   20.2017   30.5435    2.2295 C   0  0  0  0  0  0  0  0  0  0  0  0
   19.8881   31.0473    0.9410 O   0  0  0  0  0  0  0  0  0  0  0  0
   12.0344   30.8432   -3.0077 N   0  0  0  0  0  0  0  0  0  0  0  0
   19.1738   30.7590   -1.9062 N   0  0  0  0  0  0  0  0  0  0  0  0
  1  2  1  0  0  0  0
  1 39  1  0  0  0  0
  3  4  1  0  0  0  0
  5  6  1  0  0  0  0
  5 40  1  0  0  0  0
  9 10  1  6  0  0  0
  9 14  1  0  0  0  0
  9 35  1  0  0  0  0
 10  1  1  0  0  0  0
 11 16  1  0  0  0  0
 11 28  1  0  0  0  0
 11 26  1  1  0  0  0
 12 17  1  0  0  0  0
 12 34  1  0  0  0  0
 12 13  1  6  0  0  0
 14 15  1  1  0  0  0
 14 19  1  0  0  0  0
 16 13  1  1  0  0  0
 16 21  1  0  0  0  0
 17 18  1  6  0  0  0
 17 23  1  0  0  0  0
 18  8  1  0  0  0  0
 19 20  1  6  0  0  0
 19 25  1  0  0  0  0
 20  5  1  0  0  0  0
 21  3  1  1  0  0  0
 21 22  1  0  0  0  0
 21 27  1  0  0  0  0
 23 24  1  1  0  0  0
 23 29  1  0  0  0  0
 25 26  1  1  0  0  0
 25 31  1  0  0  0  0
 27  7  1  6  0  0  0
 27 28  1  0  0  0  0
 29 30  1  6  0  0  0
 29 33  1  0  0  0  0
 31 32  1  6  0  0  0
 31 35  1  0  0  0  0
 33 34  1  0  0  0  0
 33 37  1  1  0  0  0
 35 36  1  1  0  0  0
 37 38  1  0  0  0  0
M  END
>  <CHROM.1>
-131.03811919,62.15628984,163.60870555,109.79957452,79.43078874,-148.45264524
-44.98467749,-87.86502539,-53.74922300,-84.13149013,-179.60921779,18.44286109
27.74663010,-0.29447056,3.05070443,0.73073641,-2.32957621

>  <Name>
1ntb_lig

>  <RI>
0

>  <Rbt.Current_Directory>
/home/itssahil/PROJECTS/Mol_Feturizer/New_Systems/rnas/1ntb

>  <Rbt.Executable>
rbdock ($Id: //depot/dev/client3/rdock/2013.1/src/exe/rbdock.cxx#4 $)

>  <Rbt.Library>
libRbt.so (2013.1, Build901 2013/11/27)

>  <Rbt.Parameter_File>
/export/apps/rDock/src/rDock_2013.1_src/data/scripts/dock_solv.prm

>  <Rbt.Receptor>
prm/blind_docking_40.prm

>  <SCORE>
-5.10246

>  <SCORE.INTER>
-1.62348

>  <SCORE.INTER.CONST>
1

>  <SCORE.INTER.POLAR>
-1.03448

>  <SCORE.INTER.ROT>
11

>  <SCORE.INTER.SOLV>
22.9618

>  <SCORE.INTER.VDW>
-16.2213

>  <SCORE.INTER.norm>
-0.0405869

>  <SCORE.INTRA>
-3.80427

>  <SCORE.INTRA.DIHEDRAL>
0.418046

>  <SCORE.INTRA.DIHEDRAL.0>
15.4453

>  <SCORE.INTRA.POLAR>
0

>  <SCORE.INTRA.POLAR.0>
0

>  <SCORE.INTRA.REPUL>
-0.819984

>  <SCORE.INTRA.REPUL.0>
0.823958

>  <SCORE.INTRA.SOLV>
6.26747

>  <SCORE.INTRA.SOLV.lig_0>
-99.3069

>  <SCORE.INTRA.VDW>
-3.0471

>  <SCORE.INTRA.VDW.0>
0.946495

>  <SCORE.INTRA.norm>
-0.0951066

>  <SCORE.RESTR>
0.325279

>  <SCORE.RESTR.CAVITY>
0.325279

>  <SCORE.RESTR.norm>
0.00813197

>  <SCORE.SYSTEM>
0

>  <SCORE.SYSTEM.CONST>
0

>  <SCORE.SYSTEM.DIHEDRAL>
0

>  <SCORE.SYSTEM.SOLV>
0

>  <SCORE.SYSTEM.norm>
0

>  <SCORE.heavy>
40

>  <SCORE.norm>
-0.127562

>  <RMSD>
18.366

$$$$
1ntb_lig
 OpenBabel11021811403D
libRbt.so/2013.1/901 2013/11/27
 40 42  0  0  0  0  0  0  0  0999 V2000
   19.8288   35.2878   -1.0748 C   0  0  0  0  0  0  0  0  0  0  0  0
   18.7155   35.8127   -1.4145 N   0  0  0  0  0  0  0  0  0  0  0  0
   16.0885   25.2751   -2.8872 C   0  0  0  0  0  0  0  0  0  0  0  0
   15.1128   26.0911   -2.2607 O   0  0  0  0  0  0  0  0  0  0  0  0
   20.8817   29.1016    0.6511 C   0  0  0  0  0  0  0  0  0  0  0  0
   19.7774   29.1630    1.3060 N   0  0  0  0  0  0  0  0  0  0  0  0
   16.9885   27.0736   -5.4437 C   0  0  0  0  0  0  0  0  0  0  0  0
   19.6696   22.3188   -2.1117 C   0  0  0  0  0  0  0  0  0  0  0  0
   19.5950   32.9663   -1.4236 C   0  0  2  0  0  0  0  0  0  0  0  0
   20.2353   34.2789   -1.8212 N   0  0  0  0  0  0  0  0  0  0  0  0
   18.5894   27.9352   -2.4353 C   0  0  2  0  0  0  0  0  0  0  0  0
   18.5370   24.7810   -0.7155 C   0  0  1  0  0  0  0  0  0  0  0  0
   19.0041   25.8024   -1.5772 O   0  0  0  0  0  0  0  0  0  0  0  0
   20.6524   31.8991   -1.1630 C   0  0  1  0  0  0  0  0  0  0  0  0
   21.5172   32.4742   -0.0891 O   0  0  0  0  0  0  0  0  0  0  0  0
   17.9967   26.6157   -1.9756 C   0  0  2  0  0  0  0  0  0  0  0  0
   19.7162   23.9568   -0.2584 C   0  0  1  0  0  0  0  0  0  0  0  0
   20.3447   23.3526   -1.3796 N   0  0  0  0  0  0  0  0  0  0  0  0
   20.0533   30.5454   -0.7872 C   0  0  2  0  0  0  0  0  0  0  0  0
   21.0154   29.4953   -0.5241 N   0  0  0  0  0  0  0  0  0  0  0  0
   17.3126   26.0985   -3.2132 C   0  0  1  0  0  0  0  0  0  0  0  0
   18.2312   25.3255   -3.9928 O   0  0  0  0  0  0  0  0  0  0  0  0
   20.6941   24.8867    0.4400 C   0  0  2  0  0  0  0  0  0  0  0  0
   21.8245   24.1662    0.8803 O   0  0  0  0  0  0  0  0  0  0  0  0
   19.1584   30.1029   -1.9157 C   0  0  1  0  0  0  0  0  0  0  0  0
   18.4805   28.9186   -1.4116 O   0  0  0  0  0  0  0  0  0  0  0  0
   16.9313   27.3237   -3.9589 C   0  0  1  0  0  0  0  0  0  0  0  0
   17.8643   28.3445   -3.5973 O   0  0  0  0  0  0  0  0  0  0  0  0
   19.9549   25.4981    1.6304 C   0  0  1  0  0  0  0  0  0  0  0  0
   20.8054   26.3892    2.3348 O   0  0  0  0  0  0  0  0  0  0  0  0
   18.0451   31.1573   -2.1590 C   0  0  2  0  0  0  0  0  0  0  0  0
   17.2063   30.7149   -3.2147 O   0  0  0  0  0  0  0  0  0  0  0  0
   18.7234   26.2456    1.1180 C   0  0  1  0  0  0  0  0  0  0  0  0
   17.8700   25.3484    0.4094 O   0  0  0  0  0  0  0  0  0  0  0  0
   18.6896   32.5022   -2.5465 C   0  0  1  0  0  0  0  0  0  0  0  0
   17.6745   33.4870   -2.7748 O   0  0  0  0  0  0  0  0  0  0  0  0
   17.9661   26.8299    2.3107 C   0  0  0  0  0  0  0  0  0  0  0  0
   17.9645   25.8855    3.3693 O   0  0  0  0  0  0  0  0  0  0  0  0
   20.5020   35.6954   -0.0568 N   0  0  0  0  0  0  0  0  0  0  0  0
   21.9045   28.6775    1.2174 N   0  0  0  0  0  0  0  0  0  0  0  0
  1  2  1  0  0  0  0
  1 39  1  0  0  0  0
  3  4  1  0  0  0  0
  5  6  1  0  0  0  0
  5 40  1  0  0  0  0
  9 10  1  6  0  0  0
  9 14  1  0  0  0  0
  9 35  1  0  0  0  0
 10  1  1  0  0  0  0
 11 16  1  0  0  0  0
 11 28  1  0  0  0  0
 11 26  1  1  0  0  0
 12 17  1  0  0  0  0
 12 34  1  0  0  0  0
 12 13  1  6  0  0  0
 14 15  1  1  0  0  0
 14 19  1  0  0  0  0
 16 13  1  6  0  0  0
 16 21  1  0  0  0  0
 17 18  1  6  0  0  0
 17 23  1  0  0  0  0
 18  8  1  0  0  0  0
 19 20  1  6  0  0  0
 19 25  1  0  0  0  0
 20  5  1  0  0  0  0
 21  3  1  1  0  0  0
 21 22  1  0  0  0  0
 21 27  1  0  0  0  0
 23 24  1  1  0  0  0
 23 29  1  0  0  0  0
 25 26  1  1  0  0  0
 25 31  1  0  0  0  0
 27  7  1  6  0  0  0
 27 28  1  0  0  0  0
 29 30  1  6  0  0  0
 29 33  1  0  0  0  0
 31 32  1  6  0  0  0
 31 35  1  0  0  0  0
 33 34  1  0  0  0  0
 33 37  1  1  0  0  0
 35 36  1  1  0  0  0
 37 38  1  0  0  0  0
M  END
>  <CHROM.1>
-126.65180955,-82.49550983,176.00830402,-177.26686306,159.03874814,-68.50035191
118.96012406,27.38728550,64.39494874,-132.28766656,-40.34336639,19.03304464
28.40081552,-1.06296020,-1.44872885,0.96378879,2.95870183

>  <Name>
1ntb_lig

>  <RI>
0

>  <Rbt.Current_Directory>
/home/itssahil/PROJECTS/Mol_Feturizer/New_Systems/rnas/1ntb

>  <Rbt.Executable>
rbdock ($Id: //depot/dev/client3/rdock/2013.1/src/exe/rbdock.cxx#4 $)

>  <Rbt.Library>
libRbt.so (2013.1, Build901 2013/11/27)

>  <Rbt.Parameter_File>
/export/apps/rDock/src/rDock_2013.1_src/data/scripts/dock_solv.prm

>  <Rbt.Receptor>
prm/blind_docking_100.prm

>  <SCORE>
23.7486

>  <SCORE.INTER>
31.6018

>  <SCORE.INTER.CONST>
1

>  <SCORE.INTER.POLAR>
0

>  <SCORE.INTER.ROT>
11

>  <SCORE.INTER.SOLV>
18.205

>  <SCORE.INTER.VDW>
4.06617

>  <SCORE.INTER.norm>
0.790044

>  <SCORE.INTRA>
-7.87114

>  <SCORE.INTRA.DIHEDRAL>
-1.73487

>  <SCORE.INTRA.DIHEDRAL.0>
15.4453

>  <SCORE.INTRA.POLAR>
0

>  <SCORE.INTRA.POLAR.0>
0

>  <SCORE.INTRA.REPUL>
-0.823958

>  <SCORE.INTRA.REPUL.0>
0.823958

>  <SCORE.INTRA.SOLV>
3.12047

>  <SCORE.INTRA.SOLV.lig_0>
-99.3069

>  <SCORE.INTRA.VDW>
-4.44415

>  <SCORE.INTRA.VDW.0>
0.946495

>  <SCORE.INTRA.norm>
-0.196779

>  <SCORE.RESTR>
0.0180088

>  <SCORE.RESTR.CAVITY>
0.0180088

>  <SCORE.RESTR.norm>
0.00045022

>  <SCORE.SYSTEM>
0

>  <SCORE.SYSTEM.CONST>
0

>  <SCORE.SYSTEM.DIHEDRAL>
0

>  <SCORE.SYSTEM.SOLV>
0

>  <SCORE.SYSTEM.norm>
0

>  <SCORE.heavy>
40

>  <SCORE.norm>
0.593716

>  <RMSD>
18.375

$$$$
1ntb_lig
 OpenBabel11021811403D
libRbt.so/2013.1/901 2013/11/27
 40 42  0  0  0  0  0  0  0  0999 V2000
   18.0703   35.1787   -2.1640 C   0  0  0  0  0  0  0  0  0  0  0  0
   18.1759   36.4063   -1.8292 N   0  0  0  0  0  0  0  0  0  0  0  0
   20.8695   27.6805    1.8297 C   0  0  0  0  0  0  0  0  0  0  0  0
   20.7542   27.4989    3.2312 O   0  0  0  0  0  0  0  0  0  0  0  0
   15.1706   29.6558   -2.1210 C   0  0  0  0  0  0  0  0  0  0  0  0
   15.3624   28.6243   -2.8633 N   0  0  0  0  0  0  0  0  0  0  0  0
   17.7443   27.6756    2.7316 C   0  0  0  0  0  0  0  0  0  0  0  0
   22.8911   23.4620   -2.2762 C   0  0  0  0  0  0  0  0  0  0  0  0
   18.3607   32.8761   -1.7403 C   0  0  2  0  0  0  0  0  0  0  0  0
   18.4172   34.3034   -1.2400 N   0  0  0  0  0  0  0  0  0  0  0  0
   18.2444   27.7338   -0.7472 C   0  0  2  0  0  0  0  0  0  0  0  0
   20.5777   26.4047   -2.2043 C   0  0  1  0  0  0  0  0  0  0  0  0
   20.0056   26.2094   -0.9242 O   0  0  0  0  0  0  0  0  0  0  0  0
   17.1348   32.1532   -1.1930 C   0  0  1  0  0  0  0  0  0  0  0  0
   15.9733   32.9759   -1.6467 O   0  0  0  0  0  0  0  0  0  0  0  0
   19.6666   27.3868   -0.3466 C   0  0  2  0  0  0  0  0  0  0  0  0
   21.0692   25.0748   -2.7225 C   0  0  1  0  0  0  0  0  0  0  0  0
   22.0670   24.5585   -1.8535 N   0  0  0  0  0  0  0  0  0  0  0  0
   17.0494   30.6972   -1.6463 C   0  0  2  0  0  0  0  0  0  0  0  0
   15.8997   29.9642   -1.1580 N   0  0  0  0  0  0  0  0  0  0  0  0
   19.5816   27.2737    1.1524 C   0  0  1  0  0  0  0  0  0  0  0  0
   19.2332   25.9356    1.5229 O   0  0  0  0  0  0  0  0  0  0  0  0
   19.8850   24.1240   -2.7682 C   0  0  2  0  0  0  0  0  0  0  0  0
   20.2925   22.8576   -3.2381 O   0  0  0  0  0  0  0  0  0  0  0  0
   18.2982   29.9918   -1.1847 C   0  0  1  0  0  0  0  0  0  0  0  0
   18.2388   28.6801   -1.8109 O   0  0  0  0  0  0  0  0  0  0  0  0
   18.4830   28.1986    1.5269 C   0  0  1  0  0  0  0  0  0  0  0  0
   17.5992   28.2784    0.4063 O   0  0  0  0  0  0  0  0  0  0  0  0
   18.8562   24.7389   -3.7174 C   0  0  1  0  0  0  0  0  0  0  0  0
   17.7102   23.9070   -3.8093 O   0  0  0  0  0  0  0  0  0  0  0  0
   19.5538   30.6874   -1.7763 C   0  0  2  0  0  0  0  0  0  0  0  0
   20.7165   29.9997   -1.3412 O   0  0  0  0  0  0  0  0  0  0  0  0
   18.4600   26.1190   -3.1919 C   0  0  1  0  0  0  0  0  0  0  0  0
   19.6134   26.9535   -3.0994 O   0  0  0  0  0  0  0  0  0  0  0  0
   19.6090   32.1472   -1.2862 C   0  0  1  0  0  0  0  0  0  0  0  0
   20.7633   32.8037   -1.8237 O   0  0  0  0  0  0  0  0  0  0  0  0
   17.4555   26.7478   -4.1579 C   0  0  0  0  0  0  0  0  0  0  0  0
   17.8030   26.3936   -5.4868 O   0  0  0  0  0  0  0  0  0  0  0  0
   17.6763   34.8135   -3.3332 N   0  0  0  0  0  0  0  0  0  0  0  0
   14.2412   30.4372   -2.3899 N   0  0  0  0  0  0  0  0  0  0  0  0
  1  2  1  0  0  0  0
  1 39  1  0  0  0  0
  3  4  1  0  0  0  0
  5  6  1  0  0  0  0
  5 40  1  0  0  0  0
  9 10  1  1  0  0  0
  9 14  1  0  0  0  0
  9 35  1  0  0  0  0
 10  1  1  0  0  0  0
 11 16  1  0  0  0  0
 11 28  1  0  0  0  0
 11 26  1  6  0  0  0
 12 17  1  0  0  0  0
 12 34  1  0  0  0  0
 12 13  1  1  0  0  0
 14 15  1  6  0  0  0
 14 19  1  0  0  0  0
 16 13  1  6  0  0  0
 16 21  1  0  0  0  0
 17 18  1  1  0  0  0
 17 23  1  0  0  0  0
 18  8  1  0  0  0  0
 19 20  1  1  0  0  0
 19 25  1  0  0  0  0
 20  5  1  0  0  0  0
 21  3  1  1  0  0  0
 21 22  1  0  0  0  0
 21 27  1  0  0  0  0
 23 24  1  6  0  0  0
 23 29  1  0  0  0  0
 25 26  1  6  0  0  0
 25 31  1  0  0  0  0
 27  7  1  1  0  0  0
 27 28  1  0  0  0  0
 29 30  1  1  0  0  0
 29 33  1  0  0  0  0
 31 32  1  1  0  0  0
 31 35  1  0  0  0  0
 33 34  1  0  0  0  0
 33 37  1  6  0  0  0
 35 36  1  6  0  0  0
 37 38  1  0  0  0  0
M  END
>  <CHROM.1>
-104.56974145,-175.89132915,-87.21143487,173.80123223,89.40466734,-166.35514587
114.73739785,83.37858617,-177.42251092,-120.56401500,-36.60744996,18.70860480
28.63529177,-1.51441606,2.08551358,-0.97917381,0.47425896

>  <Name>
1ntb_lig

>  <RI>
0

>  <Rbt.Current_Directory>
/home/itssahil/PROJECTS/Mol_Feturizer/New_Systems/rnas/1ntb

>  <Rbt.Executable>
rbdock ($Id: //depot/dev/client3/rdock/2013.1/src/exe/rbdock.cxx#4 $)

>  <Rbt.Library>
libRbt.so (2013.1, Build901 2013/11/27)

>  <Rbt.Parameter_File>
/export/apps/rDock/src/rDock_2013.1_src/data/scripts/dock_solv.prm

>  <Rbt.Receptor>
prm/blind_docking_60.prm

>  <SCORE>
-6.3547

>  <SCORE.INTER>
-4.56409

>  <SCORE.INTER.CONST>
1

>  <SCORE.INTER.POLAR>
0

>  <SCORE.INTER.ROT>
11

>  <SCORE.INTER.SOLV>
21.2367

>  <SCORE.INTER.VDW>
-21.055

>  <SCORE.INTER.norm>
-0.114102

>  <SCORE.INTRA>
-2.74963

>  <SCORE.INTRA.DIHEDRAL>
4.10649

>  <SCORE.INTRA.DIHEDRAL.0>
15.4453

>  <SCORE.INTRA.POLAR>
0

>  <SCORE.INTRA.POLAR.0>
0

>  <SCORE.INTRA.REPUL>
-0.815193

>  <SCORE.INTRA.REPUL.0>
0.823958

>  <SCORE.INTRA.SOLV>
0.181304

>  <SCORE.INTRA.SOLV.lig_0>
-99.3069

>  <SCORE.INTRA.VDW>
-0.817559

>  <SCORE.INTRA.VDW.0>
0.946495

>  <SCORE.INTRA.norm>
-0.0687407

>  <SCORE.RESTR>
0.959022

>  <SCORE.RESTR.CAVITY>
0.959022

>  <SCORE.RESTR.norm>
0.0239755

>  <SCORE.SYSTEM>
0

>  <SCORE.SYSTEM.CONST>
0

>  <SCORE.SYSTEM.DIHEDRAL>
0

>  <SCORE.SYSTEM.SOLV>
0

>  <SCORE.SYSTEM.norm>
0

>  <SCORE.heavy>
40

>  <SCORE.norm>
-0.158867

>  <RMSD>
18.378

$$$$
1ntb_lig
 OpenBabel11021811403D
libRbt.so/2013.1/901 2013/11/27
 40 42  0  0  0  0  0  0  0  0999 V2000
   17.9442   35.4754   -1.5297 C   0  0  0  0  0  0  0  0  0  0  0  0
   18.1733   35.0942   -0.3329 N   0  0  0  0  0  0  0  0  0  0  0  0
   17.8497   24.4592   -2.4142 C   0  0  0  0  0  0  0  0  0  0  0  0
   16.7832   24.6924   -1.5095 O   0  0  0  0  0  0  0  0  0  0  0  0
   21.0387   30.5126   -1.5903 C   0  0  0  0  0  0  0  0  0  0  0  0
   21.2625   29.8079   -0.5389 N   0  0  0  0  0  0  0  0  0  0  0  0
   17.3263   26.0641   -5.1946 C   0  0  0  0  0  0  0  0  0  0  0  0
   22.5194   24.0963   -1.7949 C   0  0  0  0  0  0  0  0  0  0  0  0
   17.5291   33.1662   -1.7765 C   0  0  2  0  0  0  0  0  0  0  0  0
   17.3991   34.5722   -2.3217 N   0  0  0  0  0  0  0  0  0  0  0  0
   18.3827   28.0975   -2.5290 C   0  0  2  0  0  0  0  0  0  0  0  0
   20.2943   25.8122   -0.5463 C   0  0  1  0  0  0  0  0  0  0  0  0
   20.0234   26.7187   -1.5993 O   0  0  0  0  0  0  0  0  0  0  0  0
   18.7595   32.4699   -2.3476 C   0  0  1  0  0  0  0  0  0  0  0  0
   19.9056   33.3500   -1.9683 O   0  0  0  0  0  0  0  0  0  0  0  0
   18.7021   26.7556   -1.8956 C   0  0  2  0  0  0  0  0  0  0  0  0
   21.7701   25.8621   -0.2327 C   0  0  1  0  0  0  0  0  0  0  0  0
   22.5183   25.4686   -1.3740 N   0  0  0  0  0  0  0  0  0  0  0  0
   18.9175   31.0348   -1.8496 C   0  0  2  0  0  0  0  0  0  0  0  0
   20.0745   30.3278   -2.3585 N   0  0  0  0  0  0  0  0  0  0  0  0
   18.3408   25.7724   -2.9773 C   0  0  1  0  0  0  0  0  0  0  0  0
   19.4673   25.5498   -3.8319 O   0  0  0  0  0  0  0  0  0  0  0  0
   22.1202   27.2919    0.1438 C   0  0  2  0  0  0  0  0  0  0  0  0
   23.4960   27.3971    0.4382 O   0  0  0  0  0  0  0  0  0  0  0  0
   17.6795   30.2685   -2.2374 C   0  0  1  0  0  0  0  0  0  0  0  0
   17.8128   28.9825   -1.5705 O   0  0  0  0  0  0  0  0  0  0  0  0
   17.2607   26.4476   -3.7389 C   0  0  1  0  0  0  0  0  0  0  0  0
   17.4595   27.8556   -3.5933 O   0  0  0  0  0  0  0  0  0  0  0  0
   21.2835   27.6465    1.3732 C   0  0  1  0  0  0  0  0  0  0  0  0
   21.5512   28.9778    1.7852 O   0  0  0  0  0  0  0  0  0  0  0  0
   16.4221   30.9379   -1.6199 C   0  0  2  0  0  0  0  0  0  0  0  0
   15.2705   30.1933   -1.9851 O   0  0  0  0  0  0  0  0  0  0  0  0
   19.8024   27.4944    1.0253 C   0  0  1  0  0  0  0  0  0  0  0  0
   19.5354   26.1557    0.6106 O   0  0  0  0  0  0  0  0  0  0  0  0
   16.2927   32.3767   -2.1560 C   0  0  1  0  0  0  0  0  0  0  0  0
   15.1359   33.0088   -1.5953 O   0  0  0  0  0  0  0  0  0  0  0  0
   18.9663   27.8177    2.2638 C   0  0  0  0  0  0  0  0  0  0  0  0
   19.2913   26.9017    3.2971 O   0  0  0  0  0  0  0  0  0  0  0  0
   18.2464   36.6539   -1.9487 N   0  0  0  0  0  0  0  0  0  0  0  0
   21.7829   31.4745   -1.8502 N   0  0  0  0  0  0  0  0  0  0  0  0
  1  2  1  0  0  0  0
  1 39  1  0  0  0  0
  3  4  1  0  0  0  0
  5  6  1  0  0  0  0
  5 40  1  0  0  0  0
  9 10  1  6  0  0  0
  9 14  1  0  0  0  0
  9 35  1  0  0  0  0
 10  1  1  0  0  0  0
 11 16  1  0  0  0  0
 11 28  1  0  0  0  0
 11 26  1  1  0  0  0
 12 17  1  0  0  0  0
 12 34  1  0  0  0  0
 12 13  1  6  0  0  0
 14 15  1  1  0  0  0
 14 19  1  0  0  0  0
 16 13  1  6  0  0  0
 16 21  1  0  0  0  0
 17 18  1  6  0  0  0
 17 23  1  0  0  0  0
 18  8  1  0  0  0  0
 19 20  1  6  0  0  0
 19 25  1  0  0  0  0
 20  5  1  0  0  0  0
 21  3  1  1  0  0  0
 21 22  1  0  0  0  0
 21 27  1  0  0  0  0
 23 24  1  1  0  0  0
 23 29  1  0  0  0  0
 25 26  1  1  0  0  0
 25 31  1  0  0  0  0
 27  7  1  6  0  0  0
 27 28  1  0  0  0  0
 29 30  1  6  0  0  0
 29 33  1  0  0  0  0
 31 32  1  6  0  0  0
 31 35  1  0  0  0  0
 33 34  1  0  0  0  0
 33 37  1  1  0  0  0
 35 36  1  1  0  0  0
 37 38  1  0  0  0  0
M  END
>  <CHROM.1>
-94.41594743,-16.86347071,174.10356111,-177.78128596,155.08463490,-71.26713077
90.08225902,85.31232636,53.87255697,-95.52361145,-61.24304052,19.10550691
29.02980786,-1.33254090,-1.96122540,0.64719850,-2.99898381

>  <Name>
1ntb_lig

>  <RI>
0

>  <Rbt.Current_Directory>
/home/itssahil/PROJECTS/Mol_Feturizer/New_Systems/rnas/1ntb

>  <Rbt.Executable>
rbdock ($Id: //depot/dev/client3/rdock/2013.1/src/exe/rbdock.cxx#4 $)

>  <Rbt.Library>
libRbt.so (2013.1, Build901 2013/11/27)

>  <Rbt.Parameter_File>
/export/apps/rDock/src/rDock_2013.1_src/data/scripts/dock_solv.prm

>  <Rbt.Receptor>
prm/blind_docking_60.prm

>  <SCORE>
-14.9995

>  <SCORE.INTER>
-7.6782

>  <SCORE.INTER.CONST>
1

>  <SCORE.INTER.POLAR>
-0.612703

>  <SCORE.INTER.ROT>
11

>  <SCORE.INTER.SOLV>
22.5842

>  <SCORE.INTER.VDW>
-21.5379

>  <SCORE.INTER.norm>
-0.191955

>  <SCORE.INTRA>
-7.32127

>  <SCORE.INTRA.DIHEDRAL>
-5.30615

>  <SCORE.INTRA.DIHEDRAL.0>
15.4453

>  <SCORE.INTRA.POLAR>
0

>  <SCORE.INTRA.POLAR.0>
0

>  <SCORE.INTRA.REPUL>
-0.823958

>  <SCORE.INTRA.REPUL.0>
0.823958

>  <SCORE.INTRA.SOLV>
4.42912

>  <SCORE.INTRA.SOLV.lig_0>
-99.3069

>  <SCORE.INTRA.VDW>
-2.76297

>  <SCORE.INTRA.VDW.0>
0.946495

>  <SCORE.INTRA.norm>
-0.183032

>  <SCORE.RESTR>
0

>  <SCORE.RESTR.CAVITY>
0

>  <SCORE.RESTR.norm>
0

>  <SCORE.SYSTEM>
0

>  <SCORE.SYSTEM.CONST>
0

>  <SCORE.SYSTEM.DIHEDRAL>
0

>  <SCORE.SYSTEM.SOLV>
0

>  <SCORE.SYSTEM.norm>
0

>  <SCORE.heavy>
40

>  <SCORE.norm>
-0.374987

>  <RMSD>
18.389

$$$$
1ntb_lig
 OpenBabel11021811403D
libRbt.so/2013.1/901 2013/11/27
 40 42  0  0  0  0  0  0  0  0999 V2000
   17.8705   32.3474   -0.7775 C   0  0  0  0  0  0  0  0  0  0  0  0
   16.7298   32.9161   -0.8519 N   0  0  0  0  0  0  0  0  0  0  0  0
   18.8359   22.9087    0.5482 C   0  0  0  0  0  0  0  0  0  0  0  0
   17.4936   22.7450    0.1220 O   0  0  0  0  0  0  0  0  0  0  0  0
   15.1075   27.4550   -2.7428 C   0  0  0  0  0  0  0  0  0  0  0  0
   15.2042   26.2360   -3.1386 N   0  0  0  0  0  0  0  0  0  0  0  0
   20.6426   22.6117   -2.1403 C   0  0  0  0  0  0  0  0  0  0  0  0
   18.7482   23.9347    4.1199 C   0  0  0  0  0  0  0  0  0  0  0  0
   18.3621   30.6691   -2.3611 C   0  0  2  0  0  0  0  0  0  0  0  0
   18.4690   32.1161   -1.9302 N   0  0  0  0  0  0  0  0  0  0  0  0
   19.1527   25.7703   -1.7421 C   0  0  2  0  0  0  0  0  0  0  0  0
   18.5544   26.5653    1.5029 C   0  0  1  0  0  0  0  0  0  0  0  0
   19.4828   26.0830    0.5492 O   0  0  0  0  0  0  0  0  0  0  0  0
   17.0741   30.0383   -1.8435 C   0  0  1  0  0  0  0  0  0  0  0  0
   15.9817   30.8933   -2.3979 O   0  0  0  0  0  0  0  0  0  0  0  0
   18.8933   25.2489   -0.3404 C   0  0  2  0  0  0  0  0  0  0  0  0
   18.9544   26.0579    2.8671 C   0  0  1  0  0  0  0  0  0  0  0  0
   18.9228   24.6379    2.8809 N   0  0  0  0  0  0  0  0  0  0  0  0
   16.9347   28.5667   -2.2275 C   0  0  2  0  0  0  0  0  0  0  0  0
   15.7249   27.9189   -1.7642 N   0  0  0  0  0  0  0  0  0  0  0  0
   19.5443   23.8912   -0.3550 C   0  0  1  0  0  0  0  0  0  0  0  0
   20.9197   24.0043    0.0252 O   0  0  0  0  0  0  0  0  0  0  0  0
   20.3657   26.5436    3.1516 C   0  0  2  0  0  0  0  0  0  0  0  0
   20.7945   26.0871    4.4159 O   0  0  0  0  0  0  0  0  0  0  0  0
   18.1199   27.8248   -1.6664 C   0  0  1  0  0  0  0  0  0  0  0  0
   18.0226   26.4866   -2.2287 O   0  0  0  0  0  0  0  0  0  0  0  0
   19.4508   23.4563   -1.7708 C   0  0  1  0  0  0  0  0  0  0  0  0
   19.4199   24.6386   -2.5735 O   0  0  0  0  0  0  0  0  0  0  0  0
   20.3254   28.0716    3.1223 C   0  0  1  0  0  0  0  0  0  0  0  0
   21.6161   28.6044    3.3749 O   0  0  0  0  0  0  0  0  0  0  0  0
   19.4384   28.4245   -2.2252 C   0  0  2  0  0  0  0  0  0  0  0  0
   20.5401   27.7031   -1.6960 O   0  0  0  0  0  0  0  0  0  0  0  0
   19.8306   28.5280    1.7494 C   0  0  1  0  0  0  0  0  0  0  0  0
   18.5334   27.9907    1.4968 O   0  0  0  0  0  0  0  0  0  0  0  0
   19.5461   29.9034   -1.8063 C   0  0  1  0  0  0  0  0  0  0  0  0
   20.7588   30.4720   -2.3145 O   0  0  0  0  0  0  0  0  0  0  0  0
   19.7593   30.0551    1.7303 C   0  0  0  0  0  0  0  0  0  0  0  0
   21.0596   30.5792    1.5137 O   0  0  0  0  0  0  0  0  0  0  0  0
   18.3956   31.9973    0.3438 N   0  0  0  0  0  0  0  0  0  0  0  0
   14.4042   28.2524   -3.3880 N   0  0  0  0  0  0  0  0  0  0  0  0
  1  2  1  0  0  0  0
  1 39  1  0  0  0  0
  3  4  1  0  0  0  0
  5  6  1  0  0  0  0
  5 40  1  0  0  0  0
  9 10  1  1  0  0  0
  9 14  1  0  0  0  0
  9 35  1  0  0  0  0
 10  1  1  0  0  0  0
 11 16  1  0  0  0  0
 11 28  1  0  0  0  0
 11 26  1  6  0  0  0
 12 17  1  0  0  0  0
 12 34  1  0  0  0  0
 12 13  1  6  0  0  0
 14 15  1  6  0  0  0
 14 19  1  0  0  0  0
 16 13  1  1  0  0  0
 16 21  1  0  0  0  0
 17 18  1  6  0  0  0
 17 23  1  0  0  0  0
 18  8  1  0  0  0  0
 19 20  1  1  0  0  0
 19 25  1  0  0  0  0
 20  5  1  0  0  0  0
 21  3  1  1  0  0  0
 21 22  1  0  0  0  0
 21 27  1  0  0  0  0
 23 24  1  1  0  0  0
 23 29  1  0  0  0  0
 25 26  1  6  0  0  0
 25 31  1  0  0  0  0
 27  7  1  6  0  0  0
 27 28  1  0  0  0  0
 29 30  1  6  0  0  0
 29 33  1  0  0  0  0
 31 32  1  1  0  0  0
 31 35  1  0  0  0  0
 33 34  1  0  0  0  0
 33 37  1  1  0  0  0
 35 36  1  6  0  0  0
 37 38  1  0  0  0  0
M  END
>  <CHROM.1>
30.16927966,-102.48581269,81.85088558,115.85745464,124.52768647,-155.82084383
122.65007710,95.82031165,60.37592007,178.52009133,79.96857979,18.73824471
27.45593175,-0.24704706,-2.11652615,1.01430008,-3.08715906

>  <Name>
1ntb_lig

>  <RI>
0

>  <Rbt.Current_Directory>
/home/itssahil/PROJECTS/Mol_Feturizer/New_Systems/rnas/1ntb

>  <Rbt.Executable>
rbdock ($Id: //depot/dev/client3/rdock/2013.1/src/exe/rbdock.cxx#4 $)

>  <Rbt.Library>
libRbt.so (2013.1, Build901 2013/11/27)

>  <Rbt.Parameter_File>
/export/apps/rDock/src/rDock_2013.1_src/data/scripts/dock_solv.prm

>  <Rbt.Receptor>
prm/blind_docking_80.prm

>  <SCORE>
-6.29903

>  <SCORE.INTER>
-9.70333

>  <SCORE.INTER.CONST>
1

>  <SCORE.INTER.POLAR>
-1.11355

>  <SCORE.INTER.ROT>
11

>  <SCORE.INTER.SOLV>
21.8877

>  <SCORE.INTER.VDW>
-20.9863

>  <SCORE.INTER.norm>
-0.242583

>  <SCORE.INTRA>
1.80284

>  <SCORE.INTRA.DIHEDRAL>
5.36743

>  <SCORE.INTRA.DIHEDRAL.0>
15.4453

>  <SCORE.INTRA.POLAR>
0

>  <SCORE.INTRA.POLAR.0>
0

>  <SCORE.INTRA.REPUL>
-0.821318

>  <SCORE.INTRA.REPUL.0>
0.823958

>  <SCORE.INTRA.SOLV>
4.04663

>  <SCORE.INTRA.SOLV.lig_0>
-99.3069

>  <SCORE.INTRA.VDW>
1.2024

>  <SCORE.INTRA.VDW.0>
0.946495

>  <SCORE.INTRA.norm>
0.045071

>  <SCORE.RESTR>
1.60146

>  <SCORE.RESTR.CAVITY>
1.60146

>  <SCORE.RESTR.norm>
0.0400366

>  <SCORE.SYSTEM>
0

>  <SCORE.SYSTEM.CONST>
0

>  <SCORE.SYSTEM.DIHEDRAL>
0

>  <SCORE.SYSTEM.SOLV>
0

>  <SCORE.SYSTEM.norm>
0

>  <SCORE.heavy>
40

>  <SCORE.norm>
-0.157476

>  <RMSD>
18.407

$$$$
1ntb_lig
 OpenBabel11021811403D
libRbt.so/2013.1/901 2013/11/27
 40 42  0  0  0  0  0  0  0  0999 V2000
   18.4600   27.3884    6.7485 C   0  0  0  0  0  0  0  0  0  0  0  0
   18.4106   28.6191    7.0847 N   0  0  0  0  0  0  0  0  0  0  0  0
   20.6678   24.9837   -3.8583 C   0  0  0  0  0  0  0  0  0  0  0  0
   22.0199   24.9464   -3.4332 O   0  0  0  0  0  0  0  0  0  0  0  0
   20.0356   29.5937    1.1663 C   0  0  0  0  0  0  0  0  0  0  0  0
   20.1050   30.6033    1.9587 N   0  0  0  0  0  0  0  0  0  0  0  0
   19.9906   22.3543   -2.0672 C   0  0  0  0  0  0  0  0  0  0  0  0
   15.9584   25.4541   -3.5207 C   0  0  0  0  0  0  0  0  0  0  0  0
   18.6666   26.8701    4.4563 C   0  0  2  0  0  0  0  0  0  0  0  0
   17.7786   27.0647    5.6664 N   0  0  0  0  0  0  0  0  0  0  0  0
   19.3246   25.4084   -0.4598 C   0  0  2  0  0  0  0  0  0  0  0  0
   18.5646   27.3448   -3.4199 C   0  0  1  0  0  0  0  0  0  0  0  0
   18.3754   26.5959   -2.2334 O   0  0  0  0  0  0  0  0  0  0  0  0
   18.4186   27.9568    3.4158 C   0  0  1  0  0  0  0  0  0  0  0  0
   18.6852   29.2395    4.1338 O   0  0  0  0  0  0  0  0  0  0  0  0
   19.5110   25.9573   -1.8626 C   0  0  2  0  0  0  0  0  0  0  0  0
   17.2345   27.4871   -4.1194 C   0  0  1  0  0  0  0  0  0  0  0  0
   16.7339   26.2042   -4.4674 N   0  0  0  0  0  0  0  0  0  0  0  0
   19.2715   27.7860    2.1604 C   0  0  2  0  0  0  0  0  0  0  0  0
   19.0784   28.7955    1.1400 N   0  0  0  0  0  0  0  0  0  0  0  0
   19.7539   24.7194   -2.6845 C   0  0  1  0  0  0  0  0  0  0  0  0
   18.5078   24.1845   -3.1429 O   0  0  0  0  0  0  0  0  0  0  0  0
   16.2735   28.1717   -3.1622 C   0  0  2  0  0  0  0  0  0  0  0  0
   15.0066   28.3213   -3.7649 O   0  0  0  0  0  0  0  0  0  0  0  0
   18.9588   26.4377    1.5650 C   0  0  1  0  0  0  0  0  0  0  0  0
   19.9346   26.2650    0.5000 O   0  0  0  0  0  0  0  0  0  0  0  0
   20.3875   23.7697   -1.7362 C   0  0  1  0  0  0  0  0  0  0  0  0
   19.9296   24.1137   -0.4266 O   0  0  0  0  0  0  0  0  0  0  0  0
   16.8717   29.5395   -2.8327 C   0  0  1  0  0  0  0  0  0  0  0  0
   16.0296   30.2428   -1.9327 O   0  0  0  0  0  0  0  0  0  0  0  0
   19.2553   25.3167    2.5974 C   0  0  2  0  0  0  0  0  0  0  0  0
   18.9681   24.0560    2.0124 O   0  0  0  0  0  0  0  0  0  0  0  0
   18.2529   29.3389   -2.2083 C   0  0  1  0  0  0  0  0  0  0  0  0
   19.0978   28.6311   -3.1141 O   0  0  0  0  0  0  0  0  0  0  0  0
   18.3679   25.5181    3.8409 C   0  0  1  0  0  0  0  0  0  0  0  0
   18.6295   24.4905    4.8041 O   0  0  0  0  0  0  0  0  0  0  0  0
   18.8651   30.7073   -1.9083 C   0  0  0  0  0  0  0  0  0  0  0  0
   18.8930   31.4764   -3.1000 O   0  0  0  0  0  0  0  0  0  0  0  0
   19.1093   26.5119    7.4310 N   0  0  0  0  0  0  0  0  0  0  0  0
   20.9386   29.4099    0.3311 N   0  0  0  0  0  0  0  0  0  0  0  0
  1  2  1  0  0  0  0
  1 39  1  0  0  0  0
  3  4  1  0  0  0  0
  5  6  1  0  0  0  0
  5 40  1  0  0  0  0
  9 10  1  1  0  0  0
  9 14  1  0  0  0  0
  9 35  1  0  0  0  0
 10  1  1  0  0  0  0
 11 16  1  0  0  0  0
 11 28  1  0  0  0  0
 11 26  1  1  0  0  0
 12 17  1  0  0  0  0
 12 34  1  0  0  0  0
 12 13  1  1  0  0  0
 14 15  1  1  0  0  0
 14 19  1  0  0  0  0
 16 13  1  6  0  0  0
 16 21  1  0  0  0  0
 17 18  1  1  0  0  0
 17 23  1  0  0  0  0
 18  8  1  0  0  0  0
 19 20  1  6  0  0  0
 19 25  1  0  0  0  0
 20  5  1  0  0  0  0
 21  3  1  6  0  0  0
 21 22  1  0  0  0  0
 21 27  1  0  0  0  0
 23 24  1  6  0  0  0
 23 29  1  0  0  0  0
 25 26  1  6  0  0  0
 25 31  1  0  0  0  0
 27  7  1  6  0  0  0
 27 28  1  0  0  0  0
 29 30  1  1  0  0  0
 29 33  1  0  0  0  0
 31 32  1  6  0  0  0
 31 35  1  0  0  0  0
 33 34  1  0  0  0  0
 33 37  1  6  0  0  0
 35 36  1  1  0  0  0
 37 38  1  0  0  0  0
M  END
>  <CHROM.1>
-112.59578487,103.25925425,133.44260527,154.05397044,168.87470349,86.57996740
103.50069928,-84.33167372,82.32285140,-152.34396105,-55.74616090,18.72752346
27.03475383,-0.00718563,1.31265685,-1.29005130,1.30134639

>  <Name>
1ntb_lig

>  <RI>
0

>  <Rbt.Current_Directory>
/home/itssahil/PROJECTS/Mol_Feturizer/New_Systems/rnas/1ntb

>  <Rbt.Executable>
rbdock ($Id: //depot/dev/client3/rdock/2013.1/src/exe/rbdock.cxx#4 $)

>  <Rbt.Library>
libRbt.so (2013.1, Build901 2013/11/27)

>  <Rbt.Parameter_File>
/export/apps/rDock/src/rDock_2013.1_src/data/scripts/dock_solv.prm

>  <Rbt.Receptor>
prm/blind_docking_40.prm

>  <SCORE>
-25.4129

>  <SCORE.INTER>
-21.6409

>  <SCORE.INTER.CONST>
1

>  <SCORE.INTER.POLAR>
-2.76099

>  <SCORE.INTER.ROT>
11

>  <SCORE.INTER.SOLV>
12.5082

>  <SCORE.INTER.VDW>
-20.3267

>  <SCORE.INTER.norm>
-0.541023

>  <SCORE.INTRA>
-4.27465

>  <SCORE.INTRA.DIHEDRAL>
3.27538

>  <SCORE.INTRA.DIHEDRAL.0>
15.4453

>  <SCORE.INTRA.POLAR>
0

>  <SCORE.INTRA.POLAR.0>
0

>  <SCORE.INTRA.REPUL>
-0.823958

>  <SCORE.INTRA.REPUL.0>
0.823958

>  <SCORE.INTRA.SOLV>
0.758255

>  <SCORE.INTRA.SOLV.lig_0>
-99.3069

>  <SCORE.INTRA.VDW>
-2.17168

>  <SCORE.INTRA.VDW.0>
0.946495

>  <SCORE.INTRA.norm>
-0.106866

>  <SCORE.RESTR>
0.502653

>  <SCORE.RESTR.CAVITY>
0.502653

>  <SCORE.RESTR.norm>
0.0125663

>  <SCORE.SYSTEM>
0

>  <SCORE.SYSTEM.CONST>
0

>  <SCORE.SYSTEM.DIHEDRAL>
0

>  <SCORE.SYSTEM.SOLV>
0

>  <SCORE.SYSTEM.norm>
0

>  <SCORE.heavy>
40

>  <SCORE.norm>
-0.635323

>  <RMSD>
18.409

$$$$
1ntb_lig
 OpenBabel11021811403D
libRbt.so/2013.1/901 2013/11/27
 40 42  0  0  0  0  0  0  0  0999 V2000
   17.4939   36.2042   -2.2427 C   0  0  0  0  0  0  0  0  0  0  0  0
   18.0538   37.3456   -2.1250 N   0  0  0  0  0  0  0  0  0  0  0  0
   22.7731   27.4772    0.1614 C   0  0  0  0  0  0  0  0  0  0  0  0
   22.8869   26.3141   -0.6414 O   0  0  0  0  0  0  0  0  0  0  0  0
   16.0897   29.9383   -1.6439 C   0  0  0  0  0  0  0  0  0  0  0  0
   16.1201   28.7080   -2.0147 N   0  0  0  0  0  0  0  0  0  0  0  0
   21.0787   28.9531    2.5133 C   0  0  0  0  0  0  0  0  0  0  0  0
   22.2159   23.8020   -2.3834 C   0  0  0  0  0  0  0  0  0  0  0  0
   18.0855   33.9805   -1.7220 C   0  0  2  0  0  0  0  0  0  0  0  0
   17.6967   35.3638   -1.2463 N   0  0  0  0  0  0  0  0  0  0  0  0
   19.5664   29.0841   -0.6571 C   0  0  2  0  0  0  0  0  0  0  0  0
   20.3752   26.5500   -2.7064 C   0  0  1  0  0  0  0  0  0  0  0  0
   19.9882   26.9073   -1.3923 O   0  0  0  0  0  0  0  0  0  0  0  0
   17.2582   32.9087   -1.0208 C   0  0  1  0  0  0  0  0  0  0  0  0
   15.8396   33.2557   -1.3358 O   0  0  0  0  0  0  0  0  0  0  0  0
   20.6148   28.0348   -0.9789 C   0  0  2  0  0  0  0  0  0  0  0  0
   20.1522   25.0685   -2.8905 C   0  0  1  0  0  0  0  0  0  0  0  0
   20.9528   24.3429   -1.9685 N   0  0  0  0  0  0  0  0  0  0  0  0
   17.6354   31.4911   -1.4459 C   0  0  2  0  0  0  0  0  0  0  0  0
   16.8759   30.4331   -0.8125 N   0  0  0  0  0  0  0  0  0  0  0  0
   21.3164   27.8373    0.3386 C   0  0  1  0  0  0  0  0  0  0  0  0
   20.6497   26.8256    1.1008 O   0  0  0  0  0  0  0  0  0  0  0  0
   18.6827   24.7811   -2.6328 C   0  0  2  0  0  0  0  0  0  0  0  0
   18.4203   23.4029   -2.7824 O   0  0  0  0  0  0  0  0  0  0  0  0
   19.0952   31.2847   -1.1349 C   0  0  1  0  0  0  0  0  0  0  0  0
   19.4268   30.0023   -1.7362 O   0  0  0  0  0  0  0  0  0  0  0  0
   21.1846   29.1476    1.0228 C   0  0  1  0  0  0  0  0  0  0  0  0
   19.9965   29.7659    0.5234 O   0  0  0  0  0  0  0  0  0  0  0  0
   17.8845   25.5896   -3.6558 C   0  0  1  0  0  0  0  0  0  0  0  0
   16.4930   25.3780   -3.4751 O   0  0  0  0  0  0  0  0  0  0  0  0
   19.9547   32.3388   -1.8834 C   0  0  2  0  0  0  0  0  0  0  0  0
   21.3252   32.1179   -1.5883 O   0  0  0  0  0  0  0  0  0  0  0  0
   18.2150   27.0723   -3.4823 C   0  0  1  0  0  0  0  0  0  0  0  0
   19.6143   27.2830   -3.6635 O   0  0  0  0  0  0  0  0  0  0  0  0
   19.5521   33.7515   -1.4181 C   0  0  1  0  0  0  0  0  0  0  0  0
   20.3371   34.7369   -2.1001 O   0  0  0  0  0  0  0  0  0  0  0  0
   17.4417   27.8783   -4.5263 C   0  0  0  0  0  0  0  0  0  0  0  0
   17.7806   29.2501   -4.4002 O   0  0  0  0  0  0  0  0  0  0  0  0
   16.7974   35.8800   -3.2750 N   0  0  0  0  0  0  0  0  0  0  0  0
   15.2717   30.7141   -2.1689 N   0  0  0  0  0  0  0  0  0  0  0  0
  1  2  1  0  0  0  0
  1 39  1  0  0  0  0
  3  4  1  0  0  0  0
  5  6  1  0  0  0  0
  5 40  1  0  0  0  0
  9 10  1  1  0  0  0
  9 14  1  0  0  0  0
  9 35  1  0  0  0  0
 10  1  1  0  0  0  0
 11 16  1  0  0  0  0
 11 28  1  0  0  0  0
 11 26  1  6  0  0  0
 12 17  1  0  0  0  0
 12 34  1  0  0  0  0
 12 13  1  1  0  0  0
 14 15  1  6  0  0  0
 14 19  1  0  0  0  0
 16 13  1  1  0  0  0
 16 21  1  0  0  0  0
 17 18  1  1  0  0  0
 17 23  1  0  0  0  0
 18  8  1  0  0  0  0
 19 20  1  1  0  0  0
 19 25  1  0  0  0  0
 20  5  1  0  0  0  0
 21  3  1  6  0  0  0
 21 22  1  0  0  0  0
 21 27  1  0  0  0  0
 23 24  1  6  0  0  0
 23 29  1  0  0  0  0
 25 26  1  6  0  0  0
 25 31  1  0  0  0  0
 27  7  1  1  0  0  0
 27 28  1  0  0  0  0
 29 30  1  1  0  0  0
 29 33  1  0  0  0  0
 31 32  1  1  0  0  0
 31 35  1  0  0  0  0
 33 34  1  0  0  0  0
 33 37  1  6  0  0  0
 35 36  1  6  0  0  0
 37 38  1  0  0  0  0
M  END
>  <CHROM.1>
-131.76096455,-132.94549975,-147.32377146,155.98783499,120.14309247,-97.43497830
107.57521998,118.76530083,-56.66201287,-106.81795697,-177.97693728,19.05134116
29.48420678,-1.68985342,1.86464685,-0.59501091,0.18423967

>  <Name>
1ntb_lig

>  <RI>
0

>  <Rbt.Current_Directory>
/home/itssahil/PROJECTS/Mol_Feturizer/New_Systems/rnas/1ntb

>  <Rbt.Executable>
rbdock ($Id: //depot/dev/client3/rdock/2013.1/src/exe/rbdock.cxx#4 $)

>  <Rbt.Library>
libRbt.so (2013.1, Build901 2013/11/27)

>  <Rbt.Parameter_File>
/export/apps/rDock/src/rDock_2013.1_src/data/scripts/dock_solv.prm

>  <Rbt.Receptor>
prm/blind_docking_100.prm

>  <SCORE>
-11.77

>  <SCORE.INTER>
-9.32553

>  <SCORE.INTER.CONST>
1

>  <SCORE.INTER.POLAR>
-0.973359

>  <SCORE.INTER.ROT>
11

>  <SCORE.INTER.SOLV>
24.459

>  <SCORE.INTER.VDW>
-22.0588

>  <SCORE.INTER.norm>
-0.233138

>  <SCORE.INTRA>
-2.44764

>  <SCORE.INTRA.DIHEDRAL>
8.51959

>  <SCORE.INTRA.DIHEDRAL.0>
15.4453

>  <SCORE.INTRA.POLAR>
0

>  <SCORE.INTRA.POLAR.0>
0

>  <SCORE.INTRA.REPUL>
-0.823958

>  <SCORE.INTRA.REPUL.0>
0.823958

>  <SCORE.INTRA.SOLV>
3.78823

>  <SCORE.INTRA.SOLV.lig_0>
-99.3069

>  <SCORE.INTRA.VDW>
-4.48176

>  <SCORE.INTRA.VDW.0>
0.946495

>  <SCORE.INTRA.norm>
-0.061191

>  <SCORE.RESTR>
0.00315937

>  <SCORE.RESTR.CAVITY>
0.00315937

>  <SCORE.RESTR.norm>
7.89844e-05

>  <SCORE.SYSTEM>
0

>  <SCORE.SYSTEM.CONST>
0

>  <SCORE.SYSTEM.DIHEDRAL>
0

>  <SCORE.SYSTEM.SOLV>
0

>  <SCORE.SYSTEM.norm>
0

>  <SCORE.heavy>
40

>  <SCORE.norm>
-0.29425

>  <RMSD>
18.423

$$$$
1ntb_lig
 OpenBabel11021811403D
libRbt.so/2013.1/901 2013/11/27
 40 42  0  0  0  0  0  0  0  0999 V2000
   17.8598   20.1563   -0.1160 C   0  0  0  0  0  0  0  0  0  0  0  0
   17.5907   19.2021   -0.9206 N   0  0  0  0  0  0  0  0  0  0  0  0
   20.4590   29.9719    1.3229 C   0  0  0  0  0  0  0  0  0  0  0  0
   19.9404   31.2410    0.9614 O   0  0  0  0  0  0  0  0  0  0  0  0
   18.0518   25.3124   -4.0836 C   0  0  0  0  0  0  0  0  0  0  0  0
   17.2875   24.4460   -4.6469 N   0  0  0  0  0  0  0  0  0  0  0  0
   22.8209   27.9423    0.3835 C   0  0  0  0  0  0  0  0  0  0  0  0
   19.2905   33.7000   -2.7668 C   0  0  0  0  0  0  0  0  0  0  0  0
   18.4477   22.3824   -0.6303 C   0  0  2  0  0  0  0  0  0  0  0  0
   18.8633   20.9357   -0.4706 N   0  0  0  0  0  0  0  0  0  0  0  0
   19.7421   27.4226   -1.2309 C   0  0  2  0  0  0  0  0  0  0  0  0
   18.1657   30.6052   -1.1662 C   0  0  1  0  0  0  0  0  0  0  0  0
   19.1047   29.6393   -1.6012 O   0  0  0  0  0  0  0  0  0  0  0  0
   18.9550   22.9544   -1.9495 C   0  0  1  0  0  0  0  0  0  0  0  0
   18.3759   22.0628   -2.9990 O   0  0  0  0  0  0  0  0  0  0  0  0
   19.4179   28.7696   -0.6110 C   0  0  2  0  0  0  0  0  0  0  0  0
   18.0097   31.6487   -2.2458 C   0  0  1  0  0  0  0  0  0  0  0  0
   19.2536   32.2954   -2.4736 N   0  0  0  0  0  0  0  0  0  0  0  0
   18.5862   24.4237   -2.1434 C   0  0  2  0  0  0  0  0  0  0  0  0
   19.0405   25.0165   -3.3843 N   0  0  0  0  0  0  0  0  0  0  0  0
   20.7009   29.1447    0.0819 C   0  0  1  0  0  0  0  0  0  0  0  0
   21.5556   29.8533   -0.8218 O   0  0  0  0  0  0  0  0  0  0  0  0
   17.5559   30.9455   -3.5139 C   0  0  2  0  0  0  0  0  0  0  0  0
   17.4036   31.8775   -4.5622 O   0  0  0  0  0  0  0  0  0  0  0  0
   19.1720   25.2060   -0.9966 C   0  0  1  0  0  0  0  0  0  0  0  0
   18.6240   26.5459   -1.1407 O   0  0  0  0  0  0  0  0  0  0  0  0
   21.3183   27.8428    0.4374 C   0  0  1  0  0  0  0  0  0  0  0  0
   20.8560   26.8831   -0.5157 O   0  0  0  0  0  0  0  0  0  0  0  0
   16.2184   30.2758   -3.1978 C   0  0  1  0  0  0  0  0  0  0  0  0
   15.7288   29.5883   -4.3386 O   0  0  0  0  0  0  0  0  0  0  0  0
   18.6243   24.6668    0.3523 C   0  0  2  0  0  0  0  0  0  0  0  0
   19.1767   25.4256    1.4168 O   0  0  0  0  0  0  0  0  0  0  0  0
   16.4163   29.2954   -2.0413 C   0  0  1  0  0  0  0  0  0  0  0  0
   16.9094   29.9881   -0.8957 O   0  0  0  0  0  0  0  0  0  0  0  0
   19.0274   23.1885    0.5143 C   0  0  1  0  0  0  0  0  0  0  0  0
   18.5292   22.6755    1.7556 O   0  0  0  0  0  0  0  0  0  0  0  0
   15.0725   28.6492   -1.7034 C   0  0  0  0  0  0  0  0  0  0  0  0
   14.1540   29.6592   -1.3178 O   0  0  0  0  0  0  0  0  0  0  0  0
   17.2146   20.3354    0.9827 N   0  0  0  0  0  0  0  0  0  0  0  0
   17.8457   26.5239   -4.2745 N   0  0  0  0  0  0  0  0  0  0  0  0
  1  2  1  0  0  0  0
  1 39  1  0  0  0  0
  3  4  1  0  0  0  0
  5  6  1  0  0  0  0
  5 40  1  0  0  0  0
  9 10  1  1  0  0  0
  9 14  1  0  0  0  0
  9 35  1  0  0  0  0
 10  1  1  0  0  0  0
 11 16  1  0  0  0  0
 11 28  1  0  0  0  0
 11 26  1  1  0  0  0
 12 17  1  0  0  0  0
 12 34  1  0  0  0  0
 12 13  1  6  0  0  0
 14 15  1  6  0  0  0
 14 19  1  0  0  0  0
 16 13  1  6  0  0  0
 16 21  1  0  0  0  0
 17 18  1  6  0  0  0
 17 23  1  0  0  0  0
 18  8  1  0  0  0  0
 19 20  1  6  0  0  0
 19 25  1  0  0  0  0
 20  5  1  0  0  0  0
 21  3  1  1  0  0  0
 21 22  1  0  0  0  0
 21 27  1  0  0  0  0
 23 24  1  6  0  0  0
 23 29  1  0  0  0  0
 25 26  1  6  0  0  0
 25 31  1  0  0  0  0
 27  7  1  6  0  0  0
 27 28  1  0  0  0  0
 29 30  1  6  0  0  0
 29 33  1  0  0  0  0
 31 32  1  1  0  0  0
 31 35  1  0  0  0  0
 33 34  1  0  0  0  0
 33 37  1  1  0  0  0
 35 36  1  1  0  0  0
 37 38  1  0  0  0  0
M  END
>  <CHROM.1>
-131.36153122,120.59722207,-147.65453793,172.13452758,148.97273071,-142.97908819
114.24383430,-69.83709344,-67.43512746,-122.99446077,-60.41424048,18.53012707
27.02648942,-1.35866618,1.56022192,0.75744468,2.99713061

>  <Name>
1ntb_lig

>  <RI>
0

>  <Rbt.Current_Directory>
/home/itssahil/PROJECTS/Mol_Feturizer/New_Systems/rnas/1ntb

>  <Rbt.Executable>
rbdock ($Id: //depot/dev/client3/rdock/2013.1/src/exe/rbdock.cxx#4 $)

>  <Rbt.Library>
libRbt.so (2013.1, Build901 2013/11/27)

>  <Rbt.Parameter_File>
/export/apps/rDock/src/rDock_2013.1_src/data/scripts/dock_solv.prm

>  <Rbt.Receptor>
prm/blind_docking_60.prm

>  <SCORE>
-18.225

>  <SCORE.INTER>
-11.6881

>  <SCORE.INTER.CONST>
1

>  <SCORE.INTER.POLAR>
0

>  <SCORE.INTER.ROT>
11

>  <SCORE.INTER.SOLV>
19.1232

>  <SCORE.INTER.VDW>
-25.0998

>  <SCORE.INTER.norm>
-0.292203

>  <SCORE.INTRA>
-6.60785

>  <SCORE.INTRA.DIHEDRAL>
4.15395

>  <SCORE.INTRA.DIHEDRAL.0>
15.4453

>  <SCORE.INTRA.POLAR>
0

>  <SCORE.INTRA.POLAR.0>
0

>  <SCORE.INTRA.REPUL>
-0.823958

>  <SCORE.INTRA.REPUL.0>
0.823958

>  <SCORE.INTRA.SOLV>
-0.307773

>  <SCORE.INTRA.SOLV.lig_0>
-99.3069

>  <SCORE.INTRA.VDW>
-4.41115

>  <SCORE.INTRA.VDW.0>
0.946495

>  <SCORE.INTRA.norm>
-0.165196

>  <SCORE.RESTR>
0.0709584

>  <SCORE.RESTR.CAVITY>
0.0709584

>  <SCORE.RESTR.norm>
0.00177396

>  <SCORE.SYSTEM>
0

>  <SCORE.SYSTEM.CONST>
0

>  <SCORE.SYSTEM.DIHEDRAL>
0

>  <SCORE.SYSTEM.SOLV>
0

>  <SCORE.SYSTEM.norm>
0

>  <SCORE.heavy>
40

>  <SCORE.norm>
-0.455626

>  <RMSD>
18.464

$$$$
1ntb_lig
 OpenBabel11021811403D
libRbt.so/2013.1/901 2013/11/27
 40 42  0  0  0  0  0  0  0  0999 V2000
   17.8844   20.1415   -0.5272 C   0  0  0  0  0  0  0  0  0  0  0  0
   17.1237   20.0669    0.4955 N   0  0  0  0  0  0  0  0  0  0  0  0
   20.1032   29.9664    1.3376 C   0  0  0  0  0  0  0  0  0  0  0  0
   21.2813   30.3864    2.0054 O   0  0  0  0  0  0  0  0  0  0  0  0
   17.9339   25.2238   -4.2079 C   0  0  0  0  0  0  0  0  0  0  0  0
   17.1626   24.3503   -4.7502 N   0  0  0  0  0  0  0  0  0  0  0  0
   22.5872   28.0212    0.5463 C   0  0  0  0  0  0  0  0  0  0  0  0
   19.6105   33.7251   -2.7630 C   0  0  0  0  0  0  0  0  0  0  0  0
   18.4505   22.4285   -0.6480 C   0  0  2  0  0  0  0  0  0  0  0  0
   18.8858   20.9950   -0.4324 N   0  0  0  0  0  0  0  0  0  0  0  0
   19.6663   27.4710   -1.3302 C   0  0  2  0  0  0  0  0  0  0  0  0
   18.1633   30.7297   -1.2503 C   0  0  1  0  0  0  0  0  0  0  0  0
   19.0031   29.6808   -1.6960 O   0  0  0  0  0  0  0  0  0  0  0  0
   18.9176   22.9434   -2.0051 C   0  0  1  0  0  0  0  0  0  0  0  0
   18.3215   21.9983   -2.9967 O   0  0  0  0  0  0  0  0  0  0  0  0
   19.2567   28.7923   -0.7056 C   0  0  2  0  0  0  0  0  0  0  0  0
   18.1220   31.8012   -2.3128 C   0  0  1  0  0  0  0  0  0  0  0  0
   19.4267   32.3221   -2.5221 N   0  0  0  0  0  0  0  0  0  0  0  0
   18.5279   24.3985   -2.2571 C   0  0  2  0  0  0  0  0  0  0  0  0
   18.9438   24.9372   -3.5356 N   0  0  0  0  0  0  0  0  0  0  0  0
   20.4682   29.1795    0.1005 C   0  0  1  0  0  0  0  0  0  0  0  0
   21.3751   29.9330   -0.7112 O   0  0  0  0  0  0  0  0  0  0  0  0
   17.6092   31.1684   -3.5955 C   0  0  2  0  0  0  0  0  0  0  0  0
   17.5600   32.1281   -4.6286 O   0  0  0  0  0  0  0  0  0  0  0  0
   19.1343   25.2390   -1.1634 C   0  0  1  0  0  0  0  0  0  0  0  0
   18.5682   26.5652   -1.3550 O   0  0  0  0  0  0  0  0  0  0  0  0
   21.0885   27.8838    0.4730 C   0  0  1  0  0  0  0  0  0  0  0  0
   20.7316   26.9395   -0.5390 O   0  0  0  0  0  0  0  0  0  0  0  0
   16.2084   30.6325   -3.2989 C   0  0  1  0  0  0  0  0  0  0  0  0
   15.6604   30.0169   -4.4541 O   0  0  0  0  0  0  0  0  0  0  0  0
   18.6273   24.7578    0.2228 C   0  0  2  0  0  0  0  0  0  0  0  0
   19.1985   25.5707    1.2363 O   0  0  0  0  0  0  0  0  0  0  0  0
   16.2972   29.6184   -2.1580 C   0  0  1  0  0  0  0  0  0  0  0  0
   16.8490   30.2387   -0.9979 O   0  0  0  0  0  0  0  0  0  0  0  0
   19.0505   23.2926    0.4425 C   0  0  1  0  0  0  0  0  0  0  0  0
   18.5899   22.8332    1.7188 O   0  0  0  0  0  0  0  0  0  0  0  0
   14.8923   29.1062   -1.8393 C   0  0  0  0  0  0  0  0  0  0  0  0
   14.8932   28.5172   -0.5488 O   0  0  0  0  0  0  0  0  0  0  0  0
   17.6780   19.4507   -1.5930 N   0  0  0  0  0  0  0  0  0  0  0  0
   17.7117   26.4333   -4.3933 N   0  0  0  0  0  0  0  0  0  0  0  0
  1  2  1  0  0  0  0
  1 39  1  0  0  0  0
  3  4  1  0  0  0  0
  5  6  1  0  0  0  0
  5 40  1  0  0  0  0
  9 10  1  1  0  0  0
  9 14  1  0  0  0  0
  9 35  1  0  0  0  0
 10  1  1  0  0  0  0
 11 16  1  0  0  0  0
 11 28  1  0  0  0  0
 11 26  1  1  0  0  0
 12 17  1  0  0  0  0
 12 34  1  0  0  0  0
 12 13  1  6  0  0  0
 14 15  1  6  0  0  0
 14 19  1  0  0  0  0
 16 13  1  6  0  0  0
 16 21  1  0  0  0  0
 17 18  1  6  0  0  0
 17 23  1  0  0  0  0
 18  8  1  0  0  0  0
 19 20  1  6  0  0  0
 19 25  1  0  0  0  0
 20  5  1  0  0  0  0
 21  3  1  1  0  0  0
 21 22  1  0  0  0  0
 21 27  1  0  0  0  0
 23 24  1  6  0  0  0
 23 29  1  0  0  0  0
 25 26  1  6  0  0  0
 25 31  1  0  0  0  0
 27  7  1  6  0  0  0
 27 28  1  0  0  0  0
 29 30  1  6  0  0  0
 29 33  1  0  0  0  0
 31 32  1  1  0  0  0
 31 35  1  0  0  0  0
 33 34  1  0  0  0  0
 33 37  1  1  0  0  0
 35 36  1  1  0  0  0
 37 38  1  0  0  0  0
M  END
>  <CHROM.1>
-106.81093813,-78.34766740,-146.14946954,169.99878033,158.00437652,-141.65751332
115.99508962,-72.48315580,-175.81454932,-130.80480010,-161.57745207,18.54290098
27.05109289,-1.40306906,1.58828890,0.82787788,3.00407717

>  <Name>
1ntb_lig

>  <RI>
0

>  <Rbt.Current_Directory>
/home/itssahil/PROJECTS/Mol_Feturizer/New_Systems/rnas/1ntb

>  <Rbt.Executable>
rbdock ($Id: //depot/dev/client3/rdock/2013.1/src/exe/rbdock.cxx#4 $)

>  <Rbt.Library>
libRbt.so (2013.1, Build901 2013/11/27)

>  <Rbt.Parameter_File>
/export/apps/rDock/src/rDock_2013.1_src/data/scripts/dock_solv.prm

>  <Rbt.Receptor>
prm/blind_docking_60.prm

>  <SCORE>
-14.6718

>  <SCORE.INTER>
-8.25369

>  <SCORE.INTER.CONST>
1

>  <SCORE.INTER.POLAR>
0

>  <SCORE.INTER.ROT>
11

>  <SCORE.INTER.SOLV>
21.7238

>  <SCORE.INTER.VDW>
-23.6771

>  <SCORE.INTER.norm>
-0.206342

>  <SCORE.INTRA>
-6.85009

>  <SCORE.INTRA.DIHEDRAL>
4.01806

>  <SCORE.INTRA.DIHEDRAL.0>
15.4453

>  <SCORE.INTRA.POLAR>
0

>  <SCORE.INTRA.POLAR.0>
0

>  <SCORE.INTRA.REPUL>
-0.823528

>  <SCORE.INTRA.REPUL.0>
0.823958

>  <SCORE.INTRA.SOLV>
-1.85848

>  <SCORE.INTRA.SOLV.lig_0>
-99.3069

>  <SCORE.INTRA.VDW>
-3.81224

>  <SCORE.INTRA.VDW.0>
0.946495

>  <SCORE.INTRA.norm>
-0.171252

>  <SCORE.RESTR>
0.432012

>  <SCORE.RESTR.CAVITY>
0.432012

>  <SCORE.RESTR.norm>
0.0108003

>  <SCORE.SYSTEM>
0

>  <SCORE.SYSTEM.CONST>
0

>  <SCORE.SYSTEM.DIHEDRAL>
0

>  <SCORE.SYSTEM.SOLV>
0

>  <SCORE.SYSTEM.norm>
0

>  <SCORE.heavy>
40

>  <SCORE.norm>
-0.366794

>  <RMSD>
18.471

$$$$
1ntb_lig
 OpenBabel11021811403D
libRbt.so/2013.1/901 2013/11/27
 40 42  0  0  0  0  0  0  0  0999 V2000
   16.9244   22.8780    4.5740 C   0  0  0  0  0  0  0  0  0  0  0  0
   16.2239   21.9047    4.1358 N   0  0  0  0  0  0  0  0  0  0  0  0
   19.8850   26.2932   -4.7450 C   0  0  0  0  0  0  0  0  0  0  0  0
   20.0159   25.4923   -5.9076 O   0  0  0  0  0  0  0  0  0  0  0  0
   20.2127   27.3751    2.0286 C   0  0  0  0  0  0  0  0  0  0  0  0
   20.7537   27.5624    3.1794 N   0  0  0  0  0  0  0  0  0  0  0  0
   18.6690   23.2874   -4.4865 C   0  0  0  0  0  0  0  0  0  0  0  0
   15.3208   27.0037   -2.6244 C   0  0  0  0  0  0  0  0  0  0  0  0
   18.9278   23.2447    3.3833 C   0  0  2  0  0  0  0  0  0  0  0  0
   18.2279   22.6769    4.5993 N   0  0  0  0  0  0  0  0  0  0  0  0
   18.7849   25.0650   -1.4563 C   0  0  2  0  0  0  0  0  0  0  0  0
   18.1408   28.1799   -3.1846 C   0  0  1  0  0  0  0  0  0  0  0  0
   18.0842   27.1665   -2.1977 O   0  0  0  0  0  0  0  0  0  0  0  0
   18.6738   24.7428    3.2563 C   0  0  1  0  0  0  0  0  0  0  0  0
   19.1721   25.3237    4.5393 O   0  0  0  0  0  0  0  0  0  0  0  0
   19.0503   26.2358   -2.3851 C   0  0  2  0  0  0  0  0  0  0  0  0
   16.8074   28.8860   -3.2301 C   0  0  1  0  0  0  0  0  0  0  0  0
   15.7864   27.9643   -3.5840 N   0  0  0  0  0  0  0  0  0  0  0  0
   19.3359   25.3575    2.0248 C   0  0  2  0  0  0  0  0  0  0  0  0
   19.1299   26.7813    1.8582 N   0  0  0  0  0  0  0  0  0  0  0  0
   18.9718   25.6115   -3.7530 C   0  0  1  0  0  0  0  0  0  0  0  0
   17.6216   25.6414   -4.2274 O   0  0  0  0  0  0  0  0  0  0  0  0
   16.5313   29.4535   -1.8479 C   0  0  2  0  0  0  0  0  0  0  0  0
   15.2870   30.1183   -1.8319 O   0  0  0  0  0  0  0  0  0  0  0  0
   18.8005   24.6506    0.8067 C   0  0  1  0  0  0  0  0  0  0  0  0
   19.6076   25.1467   -0.2973 O   0  0  0  0  0  0  0  0  0  0  0  0
   19.3954   24.2055   -3.5379 C   0  0  1  0  0  0  0  0  0  0  0  0
   19.0717   23.8701   -2.1866 O   0  0  0  0  0  0  0  0  0  0  0  0
   17.6627   30.4326   -1.5341 C   0  0  1  0  0  0  0  0  0  0  0  0
   17.4786   31.0040   -0.2483 O   0  0  0  0  0  0  0  0  0  0  0  0
   19.0973   23.1295    0.8987 C   0  0  2  0  0  0  0  0  0  0  0  0
   18.5981   22.4857   -0.2634 O   0  0  0  0  0  0  0  0  0  0  0  0
   18.9949   29.6841   -1.5880 C   0  0  1  0  0  0  0  0  0  0  0  0
   19.1779   29.1097   -2.8810 O   0  0  0  0  0  0  0  0  0  0  0  0
   18.4031   22.5469    2.1449 C   0  0  1  0  0  0  0  0  0  0  0  0
   18.6673   21.1424    2.2442 O   0  0  0  0  0  0  0  0  0  0  0  0
   20.1293   30.6697   -1.3060 C   0  0  0  0  0  0  0  0  0  0  0  0
   21.3613   29.9668   -1.2813 O   0  0  0  0  0  0  0  0  0  0  0  0
   16.3974   23.9760    4.9892 N   0  0  0  0  0  0  0  0  0  0  0  0
   20.7545   27.8498    1.0148 N   0  0  0  0  0  0  0  0  0  0  0  0
  1  2  1  0  0  0  0
  1 39  1  0  0  0  0
  3  4  1  0  0  0  0
  5  6  1  0  0  0  0
  5 40  1  0  0  0  0
  9 10  1  1  0  0  0
  9 14  1  0  0  0  0
  9 35  1  0  0  0  0
 10  1  1  0  0  0  0
 11 16  1  0  0  0  0
 11 28  1  0  0  0  0
 11 26  1  1  0  0  0
 12 17  1  0  0  0  0
 12 34  1  0  0  0  0
 12 13  1  1  0  0  0
 14 15  1  1  0  0  0
 14 19  1  0  0  0  0
 16 13  1  6  0  0  0
 16 21  1  0  0  0  0
 17 18  1  1  0  0  0
 17 23  1  0  0  0  0
 18  8  1  0  0  0  0
 19 20  1  6  0  0  0
 19 25  1  0  0  0  0
 20  5  1  0  0  0  0
 21  3  1  6  0  0  0
 21 22  1  0  0  0  0
 21 27  1  0  0  0  0
 23 24  1  6  0  0  0
 23 29  1  0  0  0  0
 25 26  1  6  0  0  0
 25 31  1  0  0  0  0
 27  7  1  6  0  0  0
 27 28  1  0  0  0  0
 29 30  1  1  0  0  0
 29 33  1  0  0  0  0
 31 32  1  6  0  0  0
 31 35  1  0  0  0  0
 33 34  1  0  0  0  0
 33 37  1  6  0  0  0
 35 36  1  1  0  0  0
 37 38  1  0  0  0  0
M  END
>  <CHROM.1>
58.23073926,96.74013451,143.91986881,160.31395426,-170.12409979,74.58570208
111.83073716,-74.99792117,166.29712376,-151.91704968,176.79160054,18.50432551
26.11541073,-0.41879381,0.89274677,-1.56441558,1.55254291

>  <Name>
1ntb_lig

>  <RI>
0

>  <Rbt.Current_Directory>
/home/itssahil/PROJECTS/Mol_Feturizer/New_Systems/rnas/1ntb

>  <Rbt.Executable>
rbdock ($Id: //depot/dev/client3/rdock/2013.1/src/exe/rbdock.cxx#4 $)

>  <Rbt.Library>
libRbt.so (2013.1, Build901 2013/11/27)

>  <Rbt.Parameter_File>
/export/apps/rDock/src/rDock_2013.1_src/data/scripts/dock_solv.prm

>  <Rbt.Receptor>
prm/blind_docking_60.prm

>  <SCORE>
-8.02091

>  <SCORE.INTER>
-6.95888

>  <SCORE.INTER.CONST>
1

>  <SCORE.INTER.POLAR>
-0.964397

>  <SCORE.INTER.ROT>
11

>  <SCORE.INTER.SOLV>
15.7347

>  <SCORE.INTER.VDW>
-17.6028

>  <SCORE.INTER.norm>
-0.173972

>  <SCORE.INTRA>
-3.39954

>  <SCORE.INTRA.DIHEDRAL>
-2.06138

>  <SCORE.INTRA.DIHEDRAL.0>
15.4453

>  <SCORE.INTRA.POLAR>
0

>  <SCORE.INTRA.POLAR.0>
0

>  <SCORE.INTRA.REPUL>
-0.823958

>  <SCORE.INTRA.REPUL.0>
0.823958

>  <SCORE.INTRA.SOLV>
1.94303

>  <SCORE.INTRA.SOLV.lig_0>
-99.3069

>  <SCORE.INTRA.VDW>
0.779423

>  <SCORE.INTRA.VDW.0>
0.946495

>  <SCORE.INTRA.norm>
-0.0849885

>  <SCORE.RESTR>
2.33751

>  <SCORE.RESTR.CAVITY>
2.33751

>  <SCORE.RESTR.norm>
0.0584378

>  <SCORE.SYSTEM>
0

>  <SCORE.SYSTEM.CONST>
0

>  <SCORE.SYSTEM.DIHEDRAL>
0

>  <SCORE.SYSTEM.SOLV>
0

>  <SCORE.SYSTEM.norm>
0

>  <SCORE.heavy>
40

>  <SCORE.norm>
-0.200523

>  <RMSD>
18.471

$$$$
1ntb_lig
 OpenBabel11021811403D
libRbt.so/2013.1/901 2013/11/27
 40 42  0  0  0  0  0  0  0  0999 V2000
   17.8719   20.2186    0.1391 C   0  0  0  0  0  0  0  0  0  0  0  0
   17.6316   19.1836   -0.5689 N   0  0  0  0  0  0  0  0  0  0  0  0
   20.5267   30.0536    1.3335 C   0  0  0  0  0  0  0  0  0  0  0  0
   19.6670   29.3823    2.2393 O   0  0  0  0  0  0  0  0  0  0  0  0
   17.9627   25.3628   -3.9061 C   0  0  0  0  0  0  0  0  0  0  0  0
   17.4465   26.5380   -3.8391 N   0  0  0  0  0  0  0  0  0  0  0  0
   22.8702   27.9858    0.4323 C   0  0  0  0  0  0  0  0  0  0  0  0
   19.4385   33.6978   -2.7839 C   0  0  0  0  0  0  0  0  0  0  0  0
   18.4580   22.4270   -0.4484 C   0  0  2  0  0  0  0  0  0  0  0  0
   18.8650   20.9789   -0.2805 N   0  0  0  0  0  0  0  0  0  0  0  0
   19.7792   27.4464   -1.1521 C   0  0  2  0  0  0  0  0  0  0  0  0
   18.2398   30.6526   -1.1527 C   0  0  1  0  0  0  0  0  0  0  0  0
   19.1542   29.6573   -1.5740 O   0  0  0  0  0  0  0  0  0  0  0  0
   18.9209   22.9723   -1.7951 C   0  0  1  0  0  0  0  0  0  0  0  0
   18.2939   22.0699   -2.8072 O   0  0  0  0  0  0  0  0  0  0  0  0
   19.4671   28.8105   -0.5642 C   0  0  2  0  0  0  0  0  0  0  0  0
   18.1073   31.6828   -2.2480 C   0  0  1  0  0  0  0  0  0  0  0  0
   19.3662   32.2952   -2.4877 N   0  0  0  0  0  0  0  0  0  0  0  0
   18.5595   24.4421   -1.9993 C   0  0  2  0  0  0  0  0  0  0  0  0
   18.9726   25.0099   -3.2660 N   0  0  0  0  0  0  0  0  0  0  0  0
   20.7564   29.1942    0.1122 C   0  0  1  0  0  0  0  0  0  0  0  0
   21.6106   29.8745   -0.8134 O   0  0  0  0  0  0  0  0  0  0  0  0
   17.6340   30.9713   -3.5044 C   0  0  2  0  0  0  0  0  0  0  0  0
   17.5025   31.8905   -4.5667 O   0  0  0  0  0  0  0  0  0  0  0  0
   19.1957   25.2366   -0.8884 C   0  0  1  0  0  0  0  0  0  0  0  0
   18.6559   26.5796   -1.0340 O   0  0  0  0  0  0  0  0  0  0  0  0
   21.3673   27.8976    0.4968 C   0  0  1  0  0  0  0  0  0  0  0  0
   20.8935   26.9175   -0.4296 O   0  0  0  0  0  0  0  0  0  0  0  0
   16.2812   30.3395   -3.1759 C   0  0  1  0  0  0  0  0  0  0  0  0
   15.7727   29.6466   -4.3051 O   0  0  0  0  0  0  0  0  0  0  0  0
   18.6939   24.7251    0.4888 C   0  0  2  0  0  0  0  0  0  0  0  0
   19.2935   25.4952    1.5191 O   0  0  0  0  0  0  0  0  0  0  0  0
   16.4573   29.3726   -2.0046 C   0  0  1  0  0  0  0  0  0  0  0  0
   16.9693   30.0707   -0.8707 O   0  0  0  0  0  0  0  0  0  0  0  0
   19.0883   23.2454    0.6601 C   0  0  1  0  0  0  0  0  0  0  0  0
   18.6321   22.7579    1.9275 O   0  0  0  0  0  0  0  0  0  0  0  0
   15.0988   28.7647   -1.6547 C   0  0  0  0  0  0  0  0  0  0  0  0
   14.1573   29.8083   -1.4628 O   0  0  0  0  0  0  0  0  0  0  0  0
   17.2090   20.4936    1.2071 N   0  0  0  0  0  0  0  0  0  0  0  0
   17.4109   24.4924   -4.6023 N   0  0  0  0  0  0  0  0  0  0  0  0
  1  2  1  0  0  0  0
  1 39  1  0  0  0  0
  3  4  1  0  0  0  0
  5  6  1  0  0  0  0
  5 40  1  0  0  0  0
  9 10  1  1  0  0  0
  9 14  1  0  0  0  0
  9 35  1  0  0  0  0
 10  1  1  0  0  0  0
 11 16  1  0  0  0  0
 11 28  1  0  0  0  0
 11 26  1  1  0  0  0
 12 17  1  0  0  0  0
 12 34  1  0  0  0  0
 12 13  1  6  0  0  0
 14 15  1  6  0  0  0
 14 19  1  0  0  0  0
 16 13  1  6  0  0  0
 16 21  1  0  0  0  0
 17 18  1  6  0  0  0
 17 23  1  0  0  0  0
 18  8  1  0  0  0  0
 19 20  1  6  0  0  0
 19 25  1  0  0  0  0
 20  5  1  0  0  0  0
 21  3  1  1  0  0  0
 21 22  1  0  0  0  0
 21 27  1  0  0  0  0
 23 24  1  6  0  0  0
 23 29  1  0  0  0  0
 25 26  1  6  0  0  0
 25 31  1  0  0  0  0
 27  7  1  6  0  0  0
 27 28  1  0  0  0  0
 29 30  1  6  0  0  0
 29 33  1  0  0  0  0
 31 32  1  1  0  0  0
 31 35  1  0  0  0  0
 33 34  1  0  0  0  0
 33 37  1  1  0  0  0
 35 36  1  1  0  0  0
 37 38  1  0  0  0  0
M  END
>  <CHROM.1>
-132.09344805,126.67850349,-148.84632638,170.98654991,149.89099509,-142.08310807
117.35020687,91.09430619,56.47443555,-124.19885591,-52.45661228,18.55273316
27.01923509,-1.23359231,1.54868200,0.77554034,2.96808154

>  <Name>
1ntb_lig

>  <RI>
0

>  <Rbt.Current_Directory>
/home/itssahil/PROJECTS/Mol_Feturizer/New_Systems/rnas/1ntb

>  <Rbt.Executable>
rbdock ($Id: //depot/dev/client3/rdock/2013.1/src/exe/rbdock.cxx#4 $)

>  <Rbt.Library>
libRbt.so (2013.1, Build901 2013/11/27)

>  <Rbt.Parameter_File>
/export/apps/rDock/src/rDock_2013.1_src/data/scripts/dock_solv.prm

>  <Rbt.Receptor>
prm/blind_docking_60.prm

>  <SCORE>
-18.0433

>  <SCORE.INTER>
-11.6563

>  <SCORE.INTER.CONST>
1

>  <SCORE.INTER.POLAR>
0

>  <SCORE.INTER.ROT>
11

>  <SCORE.INTER.SOLV>
17.9755

>  <SCORE.INTER.VDW>
-24.696

>  <SCORE.INTER.norm>
-0.291406

>  <SCORE.INTRA>
-6.43896

>  <SCORE.INTRA.DIHEDRAL>
3.79751

>  <SCORE.INTRA.DIHEDRAL.0>
15.4453

>  <SCORE.INTRA.POLAR>
0

>  <SCORE.INTRA.POLAR.0>
0

>  <SCORE.INTRA.REPUL>
-0.823958

>  <SCORE.INTRA.REPUL.0>
0.823958

>  <SCORE.INTRA.SOLV>
0.179692

>  <SCORE.INTRA.SOLV.lig_0>
-99.3069

>  <SCORE.INTRA.VDW>
-4.30777

>  <SCORE.INTRA.VDW.0>
0.946495

>  <SCORE.INTRA.norm>
-0.160974

>  <SCORE.RESTR>
0.0518693

>  <SCORE.RESTR.CAVITY>
0.0518693

>  <SCORE.RESTR.norm>
0.00129673

>  <SCORE.SYSTEM>
0

>  <SCORE.SYSTEM.CONST>
0

>  <SCORE.SYSTEM.DIHEDRAL>
0

>  <SCORE.SYSTEM.SOLV>
0

>  <SCORE.SYSTEM.norm>
0

>  <SCORE.heavy>
40

>  <SCORE.norm>
-0.451084

>  <RMSD>
18.490

$$$$
1ntb_lig
 OpenBabel11021811403D
libRbt.so/2013.1/901 2013/11/27
 40 42  0  0  0  0  0  0  0  0999 V2000
   21.5048   23.5966   -4.8141 C   0  0  0  0  0  0  0  0  0  0  0  0
   21.3442   24.1656   -5.9458 N   0  0  0  0  0  0  0  0  0  0  0  0
   19.4527   30.4509    2.6735 C   0  0  0  0  0  0  0  0  0  0  0  0
   20.2836   31.1094    3.6149 O   0  0  0  0  0  0  0  0  0  0  0  0
   17.6779   27.7054   -4.1231 C   0  0  0  0  0  0  0  0  0  0  0  0
   16.7095   26.8807   -3.9388 N   0  0  0  0  0  0  0  0  0  0  0  0
   22.1114   28.5780    2.7362 C   0  0  0  0  0  0  0  0  0  0  0  0
   20.3401   34.2145   -2.3760 C   0  0  0  0  0  0  0  0  0  0  0  0
   19.8016   24.0570   -3.2480 C   0  0  2  0  0  0  0  0  0  0  0  0
   20.4110   23.1104   -4.2597 N   0  0  0  0  0  0  0  0  0  0  0  0
   20.1880   28.2594   -0.1886 C   0  0  2  0  0  0  0  0  0  0  0  0
   18.6839   31.5185   -0.3613 C   0  0  1  0  0  0  0  0  0  0  0  0
   19.6489   30.5019   -0.5597 O   0  0  0  0  0  0  0  0  0  0  0  0
   19.5498   25.4284   -3.8650 C   0  0  1  0  0  0  0  0  0  0  0  0
   18.6519   25.1632   -5.0292 O   0  0  0  0  0  0  0  0  0  0  0  0
   19.5210   29.5102    0.3541 C   0  0  2  0  0  0  0  0  0  0  0  0
   18.7807   32.5061   -1.4988 C   0  0  1  0  0  0  0  0  0  0  0  0
   20.0705   33.1009   -1.5115 N   0  0  0  0  0  0  0  0  0  0  0  0
   18.9621   26.4298   -2.8728 C   0  0  2  0  0  0  0  0  0  0  0  0
   18.6988   27.7492   -3.4089 N   0  0  0  0  0  0  0  0  0  0  0  0
   20.3024   29.7974    1.6087 C   0  0  1  0  0  0  0  0  0  0  0  0
   21.4300   30.6248    1.3038 O   0  0  0  0  0  0  0  0  0  0  0  0
   18.5508   31.7494   -2.7962 C   0  0  2  0  0  0  0  0  0  0  0  0
   18.6407   32.6273   -3.8970 O   0  0  0  0  0  0  0  0  0  0  0  0
   19.9249   26.5643   -1.7216 C   0  0  1  0  0  0  0  0  0  0  0  0
   19.2200   27.3720   -0.7383 O   0  0  0  0  0  0  0  0  0  0  0  0
   20.7687   28.4634    2.0621 C   0  0  1  0  0  0  0  0  0  0  0  0
   20.8720   27.6362    0.9010 O   0  0  0  0  0  0  0  0  0  0  0  0
   17.1514   31.1392   -2.7140 C   0  0  1  0  0  0  0  0  0  0  0  0
   16.8624   30.4062   -3.8942 O   0  0  0  0  0  0  0  0  0  0  0  0
   20.1517   25.1825   -1.0512 C   0  0  2  0  0  0  0  0  0  0  0  0
   21.0491   25.3341    0.0377 O   0  0  0  0  0  0  0  0  0  0  0  0
   17.0834   30.2175   -1.4960 C   0  0  1  0  0  0  0  0  0  0  0  0
   17.3750   30.9559   -0.3106 O   0  0  0  0  0  0  0  0  0  0  0  0
   20.7552   24.2071   -2.0801 C   0  0  1  0  0  0  0  0  0  0  0  0
   20.9709   22.9260   -1.4764 O   0  0  0  0  0  0  0  0  0  0  0  0
   15.6746   29.6322   -1.3949 C   0  0  0  0  0  0  0  0  0  0  0  0
   15.4898   28.6818   -2.4317 O   0  0  0  0  0  0  0  0  0  0  0  0
   22.6517   23.5219   -4.2356 N   0  0  0  0  0  0  0  0  0  0  0  0
   17.6432   28.4804   -5.0952 N   0  0  0  0  0  0  0  0  0  0  0  0
  1  2  1  0  0  0  0
  1 39  1  0  0  0  0
  3  4  1  0  0  0  0
  5  6  1  0  0  0  0
  5 40  1  0  0  0  0
  9 10  1  6  0  0  0
  9 14  1  0  0  0  0
  9 35  1  0  0  0  0
 10  1  1  0  0  0  0
 11 16  1  0  0  0  0
 11 28  1  0  0  0  0
 11 26  1  1  0  0  0
 12 17  1  0  0  0  0
 12 34  1  0  0  0  0
 12 13  1  6  0  0  0
 14 15  1  6  0  0  0
 14 19  1  0  0  0  0
 16 13  1  6  0  0  0
 16 21  1  0  0  0  0
 17 18  1  6  0  0  0
 17 23  1  0  0  0  0
 18  8  1  0  0  0  0
 19 20  1  6  0  0  0
 19 25  1  0  0  0  0
 20  5  1  0  0  0  0
 21  3  1  1  0  0  0
 21 22  1  0  0  0  0
 21 27  1  0  0  0  0
 23 24  1  6  0  0  0
 23 29  1  0  0  0  0
 25 26  1  1  0  0  0
 25 31  1  0  0  0  0
 27  7  1  6  0  0  0
 27 28  1  0  0  0  0
 29 30  1  6  0  0  0
 29 33  1  0  0  0  0
 31 32  1  1  0  0  0
 31 35  1  0  0  0  0
 33 34  1  0  0  0  0
 33 37  1  1  0  0  0
 35 36  1  1  0  0  0
 37 38  1  0  0  0  0
M  END
>  <CHROM.1>
54.33968236,-96.68219405,154.92748097,-173.65901414,159.21103940,-170.76998088
75.03806147,29.25741384,-159.87267717,-140.25492919,71.80084634,19.37194318
28.26984263,-1.67234013,1.29747685,0.97088999,-2.47271689

>  <Name>
1ntb_lig

>  <RI>
0

>  <Rbt.Current_Directory>
/home/itssahil/PROJECTS/Mol_Feturizer/New_Systems/rnas/1ntb

>  <Rbt.Executable>
rbdock ($Id: //depot/dev/client3/rdock/2013.1/src/exe/rbdock.cxx#4 $)

>  <Rbt.Library>
libRbt.so (2013.1, Build901 2013/11/27)

>  <Rbt.Parameter_File>
/export/apps/rDock/src/rDock_2013.1_src/data/scripts/dock_solv.prm

>  <Rbt.Receptor>
prm/blind_docking_60.prm

>  <SCORE>
1.81639

>  <SCORE.INTER>
-5.18061

>  <SCORE.INTER.CONST>
1

>  <SCORE.INTER.POLAR>
-2.70152

>  <SCORE.INTER.ROT>
11

>  <SCORE.INTER.SOLV>
22.0524

>  <SCORE.INTER.VDW>
-12.7328

>  <SCORE.INTER.norm>
-0.129515

>  <SCORE.INTRA>
-1.58699

>  <SCORE.INTRA.DIHEDRAL>
-1.78945

>  <SCORE.INTRA.DIHEDRAL.0>
15.4453

>  <SCORE.INTRA.POLAR>
0

>  <SCORE.INTRA.POLAR.0>
0

>  <SCORE.INTRA.REPUL>
-0.823958

>  <SCORE.INTRA.REPUL.0>
0.823958

>  <SCORE.INTRA.SOLV>
7.16879

>  <SCORE.INTRA.SOLV.lig_0>
-99.3069

>  <SCORE.INTRA.VDW>
-0.156873

>  <SCORE.INTRA.VDW.0>
0.946495

>  <SCORE.INTRA.norm>
-0.0396748

>  <SCORE.RESTR>
8.58399

>  <SCORE.RESTR.CAVITY>
8.58399

>  <SCORE.RESTR.norm>
0.2146

>  <SCORE.SYSTEM>
0

>  <SCORE.SYSTEM.CONST>
0

>  <SCORE.SYSTEM.DIHEDRAL>
0

>  <SCORE.SYSTEM.SOLV>
0

>  <SCORE.SYSTEM.norm>
0

>  <SCORE.heavy>
40

>  <SCORE.norm>
0.0454096

>  <RMSD>
18.495

$$$$
1ntb_lig
 OpenBabel11021811403D
libRbt.so/2013.1/901 2013/11/27
 40 42  0  0  0  0  0  0  0  0999 V2000
   17.7770   20.3627    1.7675 C   0  0  0  0  0  0  0  0  0  0  0  0
   18.0504   19.1724    2.1400 N   0  0  0  0  0  0  0  0  0  0  0  0
   20.7680   30.2622    1.2019 C   0  0  0  0  0  0  0  0  0  0  0  0
   20.0340   29.7949    2.3214 O   0  0  0  0  0  0  0  0  0  0  0  0
   17.0432   25.3521   -2.2997 C   0  0  0  0  0  0  0  0  0  0  0  0
   15.8171   25.1282   -1.9857 N   0  0  0  0  0  0  0  0  0  0  0  0
   22.9316   27.9720    0.3931 C   0  0  0  0  0  0  0  0  0  0  0  0
   20.1314   33.3275   -2.2442 C   0  0  0  0  0  0  0  0  0  0  0  0
   18.4237   22.5560    1.1868 C   0  0  2  0  0  0  0  0  0  0  0  0
   18.8159   21.1246    1.4840 N   0  0  0  0  0  0  0  0  0  0  0  0
   19.6458   27.2896   -0.6525 C   0  0  2  0  0  0  0  0  0  0  0  0
   18.2680   30.5693   -1.0307 C   0  0  1  0  0  0  0  0  0  0  0  0
   19.0082   29.4150   -1.3826 O   0  0  0  0  0  0  0  0  0  0  0  0
   18.3881   22.8122   -0.3158 C   0  0  1  0  0  0  0  0  0  0  0  0
   17.4093   21.8174   -0.8488 O   0  0  0  0  0  0  0  0  0  0  0  0
   19.4400   28.7480   -0.2856 C   0  0  2  0  0  0  0  0  0  0  0  0
   18.3850   31.5782   -2.1474 C   0  0  1  0  0  0  0  0  0  0  0  0
   19.7453   31.9473   -2.3221 N   0  0  0  0  0  0  0  0  0  0  0  0
   18.0260   24.2540   -0.6664 C   0  0  2  0  0  0  0  0  0  0  0  0
   17.9735   24.5511   -2.0829 N   0  0  0  0  0  0  0  0  0  0  0  0
   20.8155   29.1915    0.1370 C   0  0  1  0  0  0  0  0  0  0  0  0
   21.5484   29.6612   -0.9994 O   0  0  0  0  0  0  0  0  0  0  0  0
   17.8602   30.9320   -3.4185 C   0  0  2  0  0  0  0  0  0  0  0  0
   17.9562   31.8324   -4.5004 O   0  0  0  0  0  0  0  0  0  0  0  0
   19.0454   25.1592   -0.0249 C   0  0  1  0  0  0  0  0  0  0  0  0
   18.5338   26.5048   -0.2348 O   0  0  0  0  0  0  0  0  0  0  0  0
   21.4500   27.9591    0.6671 C   0  0  1  0  0  0  0  0  0  0  0  0
   20.8382   26.8511    0.0028 O   0  0  0  0  0  0  0  0  0  0  0  0
   16.3992   30.5630   -3.1603 C   0  0  1  0  0  0  0  0  0  0  0  0
   15.8362   29.9446   -4.3068 O   0  0  0  0  0  0  0  0  0  0  0  0
   19.0568   24.9451    1.5128 C   0  0  2  0  0  0  0  0  0  0  0  0
   20.0122   25.8162    2.0979 O   0  0  0  0  0  0  0  0  0  0  0  0
   16.3323   29.6104   -1.9662 C   0  0  1  0  0  0  0  0  0  0  0  0
   16.8994   30.2333   -0.8149 O   0  0  0  0  0  0  0  0  0  0  0  0
   19.4375   23.4847    1.8235 C   0  0  1  0  0  0  0  0  0  0  0  0
   19.4527   23.2707    3.2399 O   0  0  0  0  0  0  0  0  0  0  0  0
   14.8689   29.2665   -1.6874 C   0  0  0  0  0  0  0  0  0  0  0  0
   14.7724   28.6330   -0.4218 O   0  0  0  0  0  0  0  0  0  0  0  0
   16.5703   20.8036    1.6959 N   0  0  0  0  0  0  0  0  0  0  0  0
   17.3373   26.3989   -2.9034 N   0  0  0  0  0  0  0  0  0  0  0  0
  1  2  1  0  0  0  0
  1 39  1  0  0  0  0
  3  4  1  0  0  0  0
  5  6  1  0  0  0  0
  5 40  1  0  0  0  0
  9 10  1  6  0  0  0
  9 14  1  0  0  0  0
  9 35  1  0  0  0  0
 10  1  1  0  0  0  0
 11 16  1  0  0  0  0
 11 28  1  0  0  0  0
 11 26  1  1  0  0  0
 12 17  1  0  0  0  0
 12 34  1  0  0  0  0
 12 13  1  6  0  0  0
 14 15  1  6  0  0  0
 14 19  1  0  0  0  0
 16 13  1  6  0  0  0
 16 21  1  0  0  0  0
 17 18  1  6  0  0  0
 17 23  1  0  0  0  0
 18  8  1  0  0  0  0
 19 20  1  6  0  0  0
 19 25  1  0  0  0  0
 20  5  1  0  0  0  0
 21  3  1  1  0  0  0
 21 22  1  0  0  0  0
 21 27  1  0  0  0  0
 23 24  1  6  0  0  0
 23 29  1  0  0  0  0
 25 26  1  1  0  0  0
 25 31  1  0  0  0  0
 27  7  1  6  0  0  0
 27 28  1  0  0  0  0
 29 30  1  6  0  0  0
 29 33  1  0  0  0  0
 31 32  1  1  0  0  0
 31 35  1  0  0  0  0
 33 34  1  0  0  0  0
 33 37  1  1  0  0  0
 35 36  1  1  0  0  0
 37 38  1  0  0  0  0
M  END
>  <CHROM.1>
-100.20495293,-174.20046615,-153.37199790,153.11671832,154.71611784,-123.85595681
143.10489702,-57.30556546,56.82687426,-135.60830749,-167.24713485,18.53282924
27.02781956,-0.52687393,1.59143313,0.59855938,2.77682502

>  <Name>
1ntb_lig

>  <RI>
0

>  <Rbt.Current_Directory>
/home/itssahil/PROJECTS/Mol_Feturizer/New_Systems/rnas/1ntb

>  <Rbt.Executable>
rbdock ($Id: //depot/dev/client3/rdock/2013.1/src/exe/rbdock.cxx#4 $)

>  <Rbt.Library>
libRbt.so (2013.1, Build901 2013/11/27)

>  <Rbt.Parameter_File>
/export/apps/rDock/src/rDock_2013.1_src/data/scripts/dock_solv.prm

>  <Rbt.Receptor>
prm/blind_docking_100.prm

>  <SCORE>
-16.5517

>  <SCORE.INTER>
-12.1935

>  <SCORE.INTER.CONST>
1

>  <SCORE.INTER.POLAR>
0

>  <SCORE.INTER.ROT>
11

>  <SCORE.INTER.SOLV>
22.5446

>  <SCORE.INTER.VDW>
-26.5772

>  <SCORE.INTER.norm>
-0.304837

>  <SCORE.INTRA>
-4.45497

>  <SCORE.INTRA.DIHEDRAL>
4.3964

>  <SCORE.INTRA.DIHEDRAL.0>
15.4453

>  <SCORE.INTRA.POLAR>
0

>  <SCORE.INTRA.POLAR.0>
0

>  <SCORE.INTRA.REPUL>
-0.811412

>  <SCORE.INTRA.REPUL.0>
0.823958

>  <SCORE.INTRA.SOLV>
0.971223

>  <SCORE.INTRA.SOLV.lig_0>
-99.3069

>  <SCORE.INTRA.VDW>
-3.08172

>  <SCORE.INTRA.VDW.0>
0.946495

>  <SCORE.INTRA.norm>
-0.111374

>  <SCORE.RESTR>
0.09679

>  <SCORE.RESTR.CAVITY>
0.09679

>  <SCORE.RESTR.norm>
0.00241975

>  <SCORE.SYSTEM>
0

>  <SCORE.SYSTEM.CONST>
0

>  <SCORE.SYSTEM.DIHEDRAL>
0

>  <SCORE.SYSTEM.SOLV>
0

>  <SCORE.SYSTEM.norm>
0

>  <SCORE.heavy>
40

>  <SCORE.norm>
-0.413792

>  <RMSD>
18.498

$$$$
1ntb_lig
 OpenBabel11021811403D
libRbt.so/2013.1/901 2013/11/27
 40 42  0  0  0  0  0  0  0  0999 V2000
   20.9642   26.2183    5.9061 C   0  0  0  0  0  0  0  0  0  0  0  0
   21.9220   27.0134    6.1900 N   0  0  0  0  0  0  0  0  0  0  0  0
   19.0778   31.7009   -2.4882 C   0  0  0  0  0  0  0  0  0  0  0  0
   18.1992   32.3639   -1.5944 O   0  0  0  0  0  0  0  0  0  0  0  0
   19.4820   25.5191    1.1930 C   0  0  0  0  0  0  0  0  0  0  0  0
   20.4401   26.0233    0.5002 N   0  0  0  0  0  0  0  0  0  0  0  0
   21.8997   31.4399   -0.8918 C   0  0  0  0  0  0  0  0  0  0  0  0
   14.5699   28.9583   -1.1361 C   0  0  0  0  0  0  0  0  0  0  0  0
   19.1193   27.3217    4.9340 C   0  0  2  0  0  0  0  0  0  0  0  0
   19.7512   26.6766    6.1487 N   0  0  0  0  0  0  0  0  0  0  0  0
   19.5043   29.0285    0.0040 C   0  0  2  0  0  0  0  0  0  0  0  0
   17.8567   27.4836   -1.5400 C   0  0  1  0  0  0  0  0  0  0  0  0
   18.6462   28.5130   -2.1066 O   0  0  0  0  0  0  0  0  0  0  0  0
   19.0632   26.3458    3.7638 C   0  0  1  0  0  0  0  0  0  0  0  0
   18.2820   25.1804    4.2770 O   0  0  0  0  0  0  0  0  0  0  0  0
   18.8116   29.5443   -1.2442 C   0  0  2  0  0  0  0  0  0  0  0  0
   16.4422   27.6233   -2.0482 C   0  0  1  0  0  0  0  0  0  0  0  0
   15.9085   28.8771   -1.6479 N   0  0  0  0  0  0  0  0  0  0  0  0
   18.4600   26.9611    2.5028 C   0  0  2  0  0  0  0  0  0  0  0  0
   18.3786   26.0744    1.3605 N   0  0  0  0  0  0  0  0  0  0  0  0
   19.7791   30.5698   -1.7729 C   0  0  1  0  0  0  0  0  0  0  0  0
   20.7234   29.9452   -2.6489 O   0  0  0  0  0  0  0  0  0  0  0  0
   16.4799   27.5411   -3.5649 C   0  0  2  0  0  0  0  0  0  0  0  0
   15.1792   27.6765   -4.0945 O   0  0  0  0  0  0  0  0  0  0  0  0
   19.2951   28.1562    2.1226 C   0  0  1  0  0  0  0  0  0  0  0  0
   18.5594   28.7971    1.0436 O   0  0  0  0  0  0  0  0  0  0  0  0
   20.4758   31.0728   -0.5630 C   0  0  1  0  0  0  0  0  0  0  0  0
   20.4515   30.0212    0.4049 O   0  0  0  0  0  0  0  0  0  0  0  0
   17.0613   26.1731   -3.9227 C   0  0  1  0  0  0  0  0  0  0  0  0
   17.1351   26.0213   -5.3317 O   0  0  0  0  0  0  0  0  0  0  0  0
   19.3196   29.1825    3.2871 C   0  0  2  0  0  0  0  0  0  0  0  0
   20.0986   30.3050    2.9033 O   0  0  0  0  0  0  0  0  0  0  0  0
   18.4568   26.0521   -3.3098 C   0  0  1  0  0  0  0  0  0  0  0  0
   18.3808   26.2058   -1.8935 O   0  0  0  0  0  0  0  0  0  0  0  0
   19.9449   28.5275    4.5338 C   0  0  1  0  0  0  0  0  0  0  0  0
   19.9750   29.4628    5.6186 O   0  0  0  0  0  0  0  0  0  0  0  0
   19.0256   24.6719   -3.6400 C   0  0  0  0  0  0  0  0  0  0  0  0
   18.3077   23.6867   -2.9144 O   0  0  0  0  0  0  0  0  0  0  0  0
   21.1638   25.0365    5.4377 N   0  0  0  0  0  0  0  0  0  0  0  0
   19.6192   24.3884    1.6924 N   0  0  0  0  0  0  0  0  0  0  0  0
  1  2  1  0  0  0  0
  1 39  1  0  0  0  0
  3  4  1  0  0  0  0
  5  6  1  0  0  0  0
  5 40  1  0  0  0  0
  9 10  1  1  0  0  0
  9 14  1  0  0  0  0
  9 35  1  0  0  0  0
 10  1  1  0  0  0  0
 11 16  1  0  0  0  0
 11 28  1  0  0  0  0
 11 26  1  1  0  0  0
 12 17  1  0  0  0  0
 12 34  1  0  0  0  0
 12 13  1  6  0  0  0
 14 15  1  1  0  0  0
 14 19  1  0  0  0  0
 16 13  1  6  0  0  0
 16 21  1  0  0  0  0
 17 18  1  6  0  0  0
 17 23  1  0  0  0  0
 18  8  1  0  0  0  0
 19 20  1  6  0  0  0
 19 25  1  0  0  0  0
 20  5  1  0  0  0  0
 21  3  1  6  0  0  0
 21 22  1  0  0  0  0
 21 27  1  0  0  0  0
 23 24  1  6  0  0  0
 23 29  1  0  0  0  0
 25 26  1  6  0  0  0
 25 31  1  0  0  0  0
 27  7  1  6  0  0  0
 27 28  1  0  0  0  0
 29 30  1  6  0  0  0
 29 33  1  0  0  0  0
 31 32  1  6  0  0  0
 31 35  1  0  0  0  0
 33 34  1  0  0  0  0
 33 37  1  1  0  0  0
 35 36  1  1  0  0  0
 37 38  1  0  0  0  0
M  END
>  <CHROM.1>
57.15811168,94.12855734,173.15632637,99.19338922,60.08594860,-136.35979419
-49.16051502,-87.05129369,60.47607224,-131.05246292,-69.81547269,18.89256446
27.82747648,0.34035501,0.63364821,1.18011842,2.54745394

>  <Name>
1ntb_lig

>  <RI>
0

>  <Rbt.Current_Directory>
/home/itssahil/PROJECTS/Mol_Feturizer/New_Systems/rnas/1ntb

>  <Rbt.Executable>
rbdock ($Id: //depot/dev/client3/rdock/2013.1/src/exe/rbdock.cxx#4 $)

>  <Rbt.Library>
libRbt.so (2013.1, Build901 2013/11/27)

>  <Rbt.Parameter_File>
/export/apps/rDock/src/rDock_2013.1_src/data/scripts/dock_solv.prm

>  <Rbt.Receptor>
prm/blind_docking_40.prm

>  <SCORE>
-13.9966

>  <SCORE.INTER>
-12.6817

>  <SCORE.INTER.CONST>
1

>  <SCORE.INTER.POLAR>
-1.32235

>  <SCORE.INTER.ROT>
11

>  <SCORE.INTER.SOLV>
12.8667

>  <SCORE.INTER.VDW>
-19.2689

>  <SCORE.INTER.norm>
-0.317044

>  <SCORE.INTRA>
-2.52181

>  <SCORE.INTRA.DIHEDRAL>
-0.557985

>  <SCORE.INTRA.DIHEDRAL.0>
15.4453

>  <SCORE.INTRA.POLAR>
0

>  <SCORE.INTRA.POLAR.0>
0

>  <SCORE.INTRA.REPUL>
-0.709174

>  <SCORE.INTRA.REPUL.0>
0.823958

>  <SCORE.INTRA.SOLV>
5.38665

>  <SCORE.INTRA.SOLV.lig_0>
-99.3069

>  <SCORE.INTRA.VDW>
-1.39027

>  <SCORE.INTRA.VDW.0>
0.946495

>  <SCORE.INTRA.norm>
-0.0630453

>  <SCORE.RESTR>
1.20697

>  <SCORE.RESTR.CAVITY>
1.20697

>  <SCORE.RESTR.norm>
0.0301743

>  <SCORE.SYSTEM>
0

>  <SCORE.SYSTEM.CONST>
0

>  <SCORE.SYSTEM.DIHEDRAL>
0

>  <SCORE.SYSTEM.SOLV>
0

>  <SCORE.SYSTEM.norm>
0

>  <SCORE.heavy>
40

>  <SCORE.norm>
-0.349915

>  <RMSD>
18.498

$$$$
1ntb_lig
 OpenBabel11021811403D
libRbt.so/2013.1/901 2013/11/27
 40 42  0  0  0  0  0  0  0  0999 V2000
   18.0186   20.2177    0.6656 C   0  0  0  0  0  0  0  0  0  0  0  0
   18.2789   20.1488    1.9136 N   0  0  0  0  0  0  0  0  0  0  0  0
   20.4075   30.0474    1.2551 C   0  0  0  0  0  0  0  0  0  0  0  0
   19.6177   29.3663    2.2158 O   0  0  0  0  0  0  0  0  0  0  0  0
   17.7750   25.1424   -3.7964 C   0  0  0  0  0  0  0  0  0  0  0  0
   17.2334   24.4037   -4.6980 N   0  0  0  0  0  0  0  0  0  0  0  0
   22.7737   27.9910    0.3877 C   0  0  0  0  0  0  0  0  0  0  0  0
   19.6181   33.6309   -2.3735 C   0  0  0  0  0  0  0  0  0  0  0  0
   18.4455   22.3457   -0.2591 C   0  0  2  0  0  0  0  0  0  0  0  0
   18.8772   20.9089   -0.0591 N   0  0  0  0  0  0  0  0  0  0  0  0
   19.6750   27.3583   -1.1463 C   0  0  2  0  0  0  0  0  0  0  0  0
   18.1288   30.5728   -1.2092 C   0  0  1  0  0  0  0  0  0  0  0  0
   19.0106   29.5462   -1.6244 O   0  0  0  0  0  0  0  0  0  0  0  0
   18.8475   22.8501   -1.6407 C   0  0  1  0  0  0  0  0  0  0  0  0
   18.1923   21.9067   -2.5960 O   0  0  0  0  0  0  0  0  0  0  0  0
   19.3477   28.7338   -0.5943 C   0  0  2  0  0  0  0  0  0  0  0  0
   18.1263   31.6611   -2.2553 C   0  0  1  0  0  0  0  0  0  0  0  0
   19.4308   32.2079   -2.3841 N   0  0  0  0  0  0  0  0  0  0  0  0
   18.4596   24.3078   -1.8794 C   0  0  2  0  0  0  0  0  0  0  0  0
   18.8147   24.8369   -3.1801 N   0  0  0  0  0  0  0  0  0  0  0  0
   20.6379   29.1568    0.0566 C   0  0  1  0  0  0  0  0  0  0  0  0
   21.4713   29.8233   -0.8976 O   0  0  0  0  0  0  0  0  0  0  0  0
   17.6961   31.0411   -3.5741 C   0  0  2  0  0  0  0  0  0  0  0  0
   17.6863   32.0170   -4.5930 O   0  0  0  0  0  0  0  0  0  0  0  0
   19.1292   25.1470   -0.8223 C   0  0  1  0  0  0  0  0  0  0  0  0
   18.5669   26.4780   -0.9910 O   0  0  0  0  0  0  0  0  0  0  0  0
   21.2733   27.8814    0.4713 C   0  0  1  0  0  0  0  0  0  0  0  0
   20.8052   26.8678   -0.4213 O   0  0  0  0  0  0  0  0  0  0  0  0
   16.2911   30.4763   -3.3636 C   0  0  1  0  0  0  0  0  0  0  0  0
   15.8186   29.8708   -4.5568 O   0  0  0  0  0  0  0  0  0  0  0  0
   18.6890   24.6768    0.5904 C   0  0  2  0  0  0  0  0  0  0  0  0
   19.3192   25.4883    1.5694 O   0  0  0  0  0  0  0  0  0  0  0  0
   16.3357   29.4448   -2.2358 C   0  0  1  0  0  0  0  0  0  0  0  0
   16.8117   30.0551   -1.0373 O   0  0  0  0  0  0  0  0  0  0  0  0
   19.1088   23.2085    0.7952 C   0  0  1  0  0  0  0  0  0  0  0  0
   18.7096   22.7591    2.0956 O   0  0  0  0  0  0  0  0  0  0  0  0
   14.9250   28.9032   -2.0030 C   0  0  0  0  0  0  0  0  0  0  0  0
   14.4731   28.2588   -3.1833 O   0  0  0  0  0  0  0  0  0  0  0  0
   16.9749   19.6722    0.1470 N   0  0  0  0  0  0  0  0  0  0  0  0
   17.2823   26.2556   -3.5423 N   0  0  0  0  0  0  0  0  0  0  0  0
  1  2  1  0  0  0  0
  1 39  1  0  0  0  0
  3  4  1  0  0  0  0
  5  6  1  0  0  0  0
  5 40  1  0  0  0  0
  9 10  1  1  0  0  0
  9 14  1  0  0  0  0
  9 35  1  0  0  0  0
 10  1  1  0  0  0  0
 11 16  1  0  0  0  0
 11 28  1  0  0  0  0
 11 26  1  1  0  0  0
 12 17  1  0  0  0  0
 12 34  1  0  0  0  0
 12 13  1  6  0  0  0
 14 15  1  6  0  0  0
 14 19  1  0  0  0  0
 16 13  1  6  0  0  0
 16 21  1  0  0  0  0
 17 18  1  6  0  0  0
 17 23  1  0  0  0  0
 18  8  1  0  0  0  0
 19 20  1  6  0  0  0
 19 25  1  0  0  0  0
 20  5  1  0  0  0  0
 21  3  1  1  0  0  0
 21 22  1  0  0  0  0
 21 27  1  0  0  0  0
 23 24  1  6  0  0  0
 23 29  1  0  0  0  0
 25 26  1  6  0  0  0
 25 31  1  0  0  0  0
 27  7  1  6  0  0  0
 27 28  1  0  0  0  0
 29 30  1  6  0  0  0
 29 33  1  0  0  0  0
 31 32  1  1  0  0  0
 31 35  1  0  0  0  0
 33 34  1  0  0  0  0
 33 37  1  1  0  0  0
 35 36  1  1  0  0  0
 37 38  1  0  0  0  0
M  END
>  <CHROM.1>
-144.88033336,-94.97926015,-149.23016661,162.90043467,152.35608252,-131.50476272
116.61439213,-99.79196732,59.07455720,-125.75630891,61.74099209,18.52471512
26.94123280,-1.21902173,1.54289345,0.80490115,2.91742653

>  <Name>
1ntb_lig

>  <RI>
0

>  <Rbt.Current_Directory>
/home/itssahil/PROJECTS/Mol_Feturizer/New_Systems/rnas/1ntb

>  <Rbt.Executable>
rbdock ($Id: //depot/dev/client3/rdock/2013.1/src/exe/rbdock.cxx#4 $)

>  <Rbt.Library>
libRbt.so (2013.1, Build901 2013/11/27)

>  <Rbt.Parameter_File>
/export/apps/rDock/src/rDock_2013.1_src/data/scripts/dock_solv.prm

>  <Rbt.Receptor>
prm/blind_docking_100.prm

>  <SCORE>
-20.859

>  <SCORE.INTER>
-14.9973

>  <SCORE.INTER.CONST>
1

>  <SCORE.INTER.POLAR>
-1.11355

>  <SCORE.INTER.ROT>
11

>  <SCORE.INTER.SOLV>
19.3315

>  <SCORE.INTER.VDW>
-23.6635

>  <SCORE.INTER.norm>
-0.374933

>  <SCORE.INTRA>
-5.86167

>  <SCORE.INTRA.DIHEDRAL>
3.94562

>  <SCORE.INTRA.DIHEDRAL.0>
15.4453

>  <SCORE.INTRA.POLAR>
0

>  <SCORE.INTRA.POLAR.0>
0

>  <SCORE.INTRA.REPUL>
-0.823958

>  <SCORE.INTRA.REPUL.0>
0.823958

>  <SCORE.INTRA.SOLV>
0.484491

>  <SCORE.INTRA.SOLV.lig_0>
-99.3069

>  <SCORE.INTRA.VDW>
-3.95693

>  <SCORE.INTRA.VDW.0>
0.946495

>  <SCORE.INTRA.norm>
-0.146542

>  <SCORE.RESTR>
0

>  <SCORE.RESTR.CAVITY>
0

>  <SCORE.RESTR.norm>
0

>  <SCORE.SYSTEM>
0

>  <SCORE.SYSTEM.CONST>
0

>  <SCORE.SYSTEM.DIHEDRAL>
0

>  <SCORE.SYSTEM.SOLV>
0

>  <SCORE.SYSTEM.norm>
0

>  <SCORE.heavy>
40

>  <SCORE.norm>
-0.521475

>  <RMSD>
18.501

$$$$
1ntb_lig
 OpenBabel11021811403D
libRbt.so/2013.1/901 2013/11/27
 40 42  0  0  0  0  0  0  0  0999 V2000
   18.2652   35.6817   -1.5465 C   0  0  0  0  0  0  0  0  0  0  0  0
   19.4902   36.0270   -1.4441 N   0  0  0  0  0  0  0  0  0  0  0  0
   20.5912   25.1574    0.7931 C   0  0  0  0  0  0  0  0  0  0  0  0
   20.3071   23.9609    0.0874 O   0  0  0  0  0  0  0  0  0  0  0  0
   16.6930   29.7822   -2.8159 C   0  0  0  0  0  0  0  0  0  0  0  0
   17.4764   29.8611   -3.8318 N   0  0  0  0  0  0  0  0  0  0  0  0
   18.6036   26.7028    2.8526 C   0  0  0  0  0  0  0  0  0  0  0  0
   22.4665   24.2347   -2.1326 C   0  0  0  0  0  0  0  0  0  0  0  0
   18.5076   33.3833   -1.0726 C   0  0  2  0  0  0  0  0  0  0  0  0
   17.8748   34.7166   -0.7364 N   0  0  0  0  0  0  0  0  0  0  0  0
   18.9480   28.2711   -0.2743 C   0  0  2  0  0  0  0  0  0  0  0  0
   19.5939   26.5147   -2.8937 C   0  0  1  0  0  0  0  0  0  0  0  0
   18.8919   26.3986   -1.6699 O   0  0  0  0  0  0  0  0  0  0  0  0
   17.4502   32.2915   -1.1936 C   0  0  1  0  0  0  0  0  0  0  0  0
   16.5193   32.7787   -2.2556 O   0  0  0  0  0  0  0  0  0  0  0  0
   19.5875   26.9452   -0.6441 C   0  0  2  0  0  0  0  0  0  0  0  0
   20.4365   25.2774   -3.0874 C   0  0  1  0  0  0  0  0  0  0  0  0
   21.3801   25.1673   -2.0316 N   0  0  0  0  0  0  0  0  0  0  0  0
   18.0435   30.9185   -1.5027 C   0  0  2  0  0  0  0  0  0  0  0  0
   17.0809   29.8442   -1.6328 N   0  0  0  0  0  0  0  0  0  0  0  0
   19.4542   26.1372    0.6194 C   0  0  1  0  0  0  0  0  0  0  0  0
   18.2023   25.4430    0.6261 O   0  0  0  0  0  0  0  0  0  0  0  0
   19.5094   24.0736   -3.0760 C   0  0  2  0  0  0  0  0  0  0  0  0
   20.2498   22.8845   -3.2441 O   0  0  0  0  0  0  0  0  0  0  0  0
   19.0059   30.5677   -0.3977 C   0  0  1  0  0  0  0  0  0  0  0  0
   19.6686   29.3548   -0.8515 O   0  0  0  0  0  0  0  0  0  0  0  0
   19.4706   27.1498    1.7042 C   0  0  1  0  0  0  0  0  0  0  0  0
   18.9637   28.3669    1.1519 O   0  0  0  0  0  0  0  0  0  0  0  0
   18.5263   24.2573   -4.2324 C   0  0  1  0  0  0  0  0  0  0  0  0
   17.6170   23.1691   -4.2849 O   0  0  0  0  0  0  0  0  0  0  0  0
   20.1182   31.6460   -0.2963 C   0  0  2  0  0  0  0  0  0  0  0  0
   21.0205   31.2894    0.7395 O   0  0  0  0  0  0  0  0  0  0  0  0
   17.7636   25.5671   -4.0310 C   0  0  1  0  0  0  0  0  0  0  0  0
   18.6793   26.6598   -3.9776 O   0  0  0  0  0  0  0  0  0  0  0  0
   19.4803   33.0107    0.0278 C   0  0  1  0  0  0  0  0  0  0  0  0
   20.4947   34.0176    0.1250 O   0  0  0  0  0  0  0  0  0  0  0  0
   16.8034   25.7673   -5.2038 C   0  0  0  0  0  0  0  0  0  0  0  0
   15.6722   26.4990   -4.7598 O   0  0  0  0  0  0  0  0  0  0  0  0
   17.4657   36.2186   -2.3999 N   0  0  0  0  0  0  0  0  0  0  0  0
   15.4659   29.6912   -2.9968 N   0  0  0  0  0  0  0  0  0  0  0  0
  1  2  1  0  0  0  0
  1 39  1  0  0  0  0
  3  4  1  0  0  0  0
  5  6  1  0  0  0  0
  5 40  1  0  0  0  0
  9 10  1  1  0  0  0
  9 14  1  0  0  0  0
  9 35  1  0  0  0  0
 10  1  1  0  0  0  0
 11 16  1  0  0  0  0
 11 28  1  0  0  0  0
 11 26  1  6  0  0  0
 12 17  1  0  0  0  0
 12 34  1  0  0  0  0
 12 13  1  1  0  0  0
 14 15  1  6  0  0  0
 14 19  1  0  0  0  0
 16 13  1  6  0  0  0
 16 21  1  0  0  0  0
 17 18  1  1  0  0  0
 17 23  1  0  0  0  0
 18  8  1  0  0  0  0
 19 20  1  1  0  0  0
 19 25  1  0  0  0  0
 20  5  1  0  0  0  0
 21  3  1  1  0  0  0
 21 22  1  0  0  0  0
 21 27  1  0  0  0  0
 23 24  1  6  0  0  0
 23 29  1  0  0  0  0
 25 26  1  6  0  0  0
 25 31  1  0  0  0  0
 27  7  1  1  0  0  0
 27 28  1  0  0  0  0
 29 30  1  1  0  0  0
 29 33  1  0  0  0  0
 31 32  1  1  0  0  0
 31 35  1  0  0  0  0
 33 34  1  0  0  0  0
 33 37  1  6  0  0  0
 35 36  1  6  0  0  0
 37 38  1  0  0  0  0
M  END
>  <CHROM.1>
-129.02124162,-68.03994798,-177.97785084,91.54224112,105.15121609,-167.30251051
88.35571514,44.10405043,-85.04041348,-94.94745890,150.08279934,18.80137468
28.58178919,-1.54365513,1.73475208,-0.97479236,0.27306107

>  <Name>
1ntb_lig

>  <RI>
0

>  <Rbt.Current_Directory>
/home/itssahil/PROJECTS/Mol_Feturizer/New_Systems/rnas/1ntb

>  <Rbt.Executable>
rbdock ($Id: //depot/dev/client3/rdock/2013.1/src/exe/rbdock.cxx#4 $)

>  <Rbt.Library>
libRbt.so (2013.1, Build901 2013/11/27)

>  <Rbt.Parameter_File>
/export/apps/rDock/src/rDock_2013.1_src/data/scripts/dock_solv.prm

>  <Rbt.Receptor>
prm/blind_docking_100.prm

>  <SCORE>
-8.91231

>  <SCORE.INTER>
-6.21944

>  <SCORE.INTER.CONST>
1

>  <SCORE.INTER.POLAR>
-0.916501

>  <SCORE.INTER.ROT>
11

>  <SCORE.INTER.SOLV>
18.8704

>  <SCORE.INTER.VDW>
-18.3148

>  <SCORE.INTER.norm>
-0.155486

>  <SCORE.INTRA>
-4.55177

>  <SCORE.INTRA.DIHEDRAL>
6.58448

>  <SCORE.INTRA.DIHEDRAL.0>
15.4453

>  <SCORE.INTRA.POLAR>
0

>  <SCORE.INTRA.POLAR.0>
0

>  <SCORE.INTRA.REPUL>
-0.823958

>  <SCORE.INTRA.REPUL.0>
0.823958

>  <SCORE.INTRA.SOLV>
1.53792

>  <SCORE.INTRA.SOLV.lig_0>
-99.3069

>  <SCORE.INTRA.VDW>
-4.49318

>  <SCORE.INTRA.VDW.0>
0.946495

>  <SCORE.INTRA.norm>
-0.113794

>  <SCORE.RESTR>
1.85889

>  <SCORE.RESTR.CAVITY>
1.85889

>  <SCORE.RESTR.norm>
0.0464723

>  <SCORE.SYSTEM>
0

>  <SCORE.SYSTEM.CONST>
0

>  <SCORE.SYSTEM.DIHEDRAL>
0

>  <SCORE.SYSTEM.SOLV>
0

>  <SCORE.SYSTEM.norm>
0

>  <SCORE.heavy>
40

>  <SCORE.norm>
-0.222808

>  <RMSD>
18.501

$$$$
1ntb_lig
 OpenBabel11021811403D
libRbt.so/2013.1/901 2013/11/27
 40 42  0  0  0  0  0  0  0  0999 V2000
   17.9376   20.8083    0.7808 C   0  0  0  0  0  0  0  0  0  0  0  0
   18.1706   20.7788    2.0358 N   0  0  0  0  0  0  0  0  0  0  0  0
   20.7554   29.3435    2.0018 C   0  0  0  0  0  0  0  0  0  0  0  0
   20.5327   30.7376    2.1326 O   0  0  0  0  0  0  0  0  0  0  0  0
   18.0131   25.0132   -4.1499 C   0  0  0  0  0  0  0  0  0  0  0  0
   17.4611   23.9165   -4.5301 N   0  0  0  0  0  0  0  0  0  0  0  0
   23.0563   27.8042    0.2940 C   0  0  0  0  0  0  0  0  0  0  0  0
   17.4985   33.5991    0.5690 C   0  0  0  0  0  0  0  0  0  0  0  0
   18.4777   22.8438   -0.2826 C   0  0  2  0  0  0  0  0  0  0  0  0
   18.8500   21.4138    0.0452 N   0  0  0  0  0  0  0  0  0  0  0  0
   19.8793   27.7774   -1.2098 C   0  0  2  0  0  0  0  0  0  0  0  0
   17.8133   30.1718   -0.6874 C   0  0  1  0  0  0  0  0  0  0  0  0
   19.2123   29.9737   -0.7760 O   0  0  0  0  0  0  0  0  0  0  0  0
   18.9261   23.2161   -1.6916 C   0  0  1  0  0  0  0  0  0  0  0  0
   18.2542   22.2209   -2.5805 O   0  0  0  0  0  0  0  0  0  0  0  0
   19.5926   28.8312   -0.1557 C   0  0  2  0  0  0  0  0  0  0  0  0
   17.5150   31.6315   -0.9303 C   0  0  1  0  0  0  0  0  0  0  0  0
   18.1494   32.4242    0.0630 N   0  0  0  0  0  0  0  0  0  0  0  0
   18.5992   24.6621   -2.0588 C   0  0  2  0  0  0  0  0  0  0  0  0
   19.0000   25.0675   -3.3902 N   0  0  0  0  0  0  0  0  0  0  0  0
   20.9175   28.9850    0.5431 C   0  0  1  0  0  0  0  0  0  0  0  0
   21.7085   29.9759   -0.1213 O   0  0  0  0  0  0  0  0  0  0  0  0
   18.0552   31.9973   -2.3025 C   0  0  2  0  0  0  0  0  0  0  0  0
   17.8108   33.3594   -2.5771 O   0  0  0  0  0  0  0  0  0  0  0  0
   19.2795   25.5614   -1.0595 C   0  0  1  0  0  0  0  0  0  0  0  0
   18.7722   26.8934   -1.3504 O   0  0  0  0  0  0  0  0  0  0  0  0
   21.5609   27.6550    0.4032 C   0  0  1  0  0  0  0  0  0  0  0  0
   21.0395   27.0578   -0.7862 O   0  0  0  0  0  0  0  0  0  0  0  0
   17.3319   31.1111   -3.3168 C   0  0  1  0  0  0  0  0  0  0  0  0
   17.7890   31.3904   -4.6309 O   0  0  0  0  0  0  0  0  0  0  0  0
   18.7938   25.2272    0.3767 C   0  0  2  0  0  0  0  0  0  0  0  0
   19.4351   26.0939    1.2996 O   0  0  0  0  0  0  0  0  0  0  0  0
   17.5964   29.6452   -2.9716 C   0  0  1  0  0  0  0  0  0  0  0  0
   17.1371   29.3665   -1.6500 O   0  0  0  0  0  0  0  0  0  0  0  0
   19.1527   23.7666    0.7117 C   0  0  1  0  0  0  0  0  0  0  0  0
   18.7109   23.4422    2.0352 O   0  0  0  0  0  0  0  0  0  0  0  0
   16.8471   28.7584   -3.9663 C   0  0  0  0  0  0  0  0  0  0  0  0
   15.4546   29.0039   -3.8518 O   0  0  0  0  0  0  0  0  0  0  0  0
   16.8720   20.3047    0.2645 N   0  0  0  0  0  0  0  0  0  0  0  0
   17.5900   26.0954   -4.5933 N   0  0  0  0  0  0  0  0  0  0  0  0
  1  2  1  0  0  0  0
  1 39  1  0  0  0  0
  3  4  1  0  0  0  0
  5  6  1  0  0  0  0
  5 40  1  0  0  0  0
  9 10  1  1  0  0  0
  9 14  1  0  0  0  0
  9 35  1  0  0  0  0
 10  1  1  0  0  0  0
 11 16  1  0  0  0  0
 11 28  1  0  0  0  0
 11 26  1  1  0  0  0
 12 17  1  0  0  0  0
 12 34  1  0  0  0  0
 12 13  1  6  0  0  0
 14 15  1  6  0  0  0
 14 19  1  0  0  0  0
 16 13  1  6  0  0  0
 16 21  1  0  0  0  0
 17 18  1  1  0  0  0
 17 23  1  0  0  0  0
 18  8  1  0  0  0  0
 19 20  1  6  0  0  0
 19 25  1  0  0  0  0
 20  5  1  0  0  0  0
 21  3  1  1  0  0  0
 21 22  1  0  0  0  0
 21 27  1  0  0  0  0
 23 24  1  6  0  0  0
 23 29  1  0  0  0  0
 25 26  1  6  0  0  0
 25 31  1  0  0  0  0
 27  7  1  6  0  0  0
 27 28  1  0  0  0  0
 29 30  1  6  0  0  0
 29 33  1  0  0  0  0
 31 32  1  1  0  0  0
 31 35  1  0  0  0  0
 33 34  1  0  0  0  0
 33 37  1  6  0  0  0
 35 36  1  1  0  0  0
 37 38  1  0  0  0  0
M  END
>  <CHROM.1>
-143.52030973,-97.82907588,-121.12981417,159.83817907,103.75881843,-143.51570880
99.04827165,-69.92146518,-81.87338354,-140.45747306,-61.67170853,18.74237480
27.25985180,-1.04968238,-1.55723222,-1.00295855,-0.10492044

>  <Name>
1ntb_lig

>  <RI>
0

>  <Rbt.Current_Directory>
/home/itssahil/PROJECTS/Mol_Feturizer/New_Systems/rnas/1ntb

>  <Rbt.Executable>
rbdock ($Id: //depot/dev/client3/rdock/2013.1/src/exe/rbdock.cxx#4 $)

>  <Rbt.Library>
libRbt.so (2013.1, Build901 2013/11/27)

>  <Rbt.Parameter_File>
/export/apps/rDock/src/rDock_2013.1_src/data/scripts/dock_solv.prm

>  <Rbt.Receptor>
prm/blind_docking_100.prm

>  <SCORE>
-13.1613

>  <SCORE.INTER>
-13.6019

>  <SCORE.INTER.CONST>
1

>  <SCORE.INTER.POLAR>
-1.0423

>  <SCORE.INTER.ROT>
11

>  <SCORE.INTER.SOLV>
19.2085

>  <SCORE.INTER.VDW>
-22.9298

>  <SCORE.INTER.norm>
-0.340048

>  <SCORE.INTRA>
-0.0888787

>  <SCORE.INTRA.DIHEDRAL>
9.73959

>  <SCORE.INTRA.DIHEDRAL.0>
15.4453

>  <SCORE.INTRA.POLAR>
0

>  <SCORE.INTRA.POLAR.0>
0

>  <SCORE.INTRA.REPUL>
-0.791676

>  <SCORE.INTRA.REPUL.0>
0.823958

>  <SCORE.INTRA.SOLV>
0.648198

>  <SCORE.INTRA.SOLV.lig_0>
-99.3069

>  <SCORE.INTRA.VDW>
-1.32439

>  <SCORE.INTRA.VDW.0>
0.946495

>  <SCORE.INTRA.norm>
-0.00222197

>  <SCORE.RESTR>
0.529466

>  <SCORE.RESTR.CAVITY>
0.529466

>  <SCORE.RESTR.norm>
0.0132367

>  <SCORE.SYSTEM>
0

>  <SCORE.SYSTEM.CONST>
0

>  <SCORE.SYSTEM.DIHEDRAL>
0

>  <SCORE.SYSTEM.SOLV>
0

>  <SCORE.SYSTEM.norm>
0

>  <SCORE.heavy>
40

>  <SCORE.norm>
-0.329033

>  <RMSD>
18.502

$$$$
1ntb_lig
 OpenBabel11021811403D
libRbt.so/2013.1/901 2013/11/27
 40 42  0  0  0  0  0  0  0  0999 V2000
   19.7040   35.2639   -0.4509 C   0  0  0  0  0  0  0  0  0  0  0  0
   18.5398   35.0632    0.0334 N   0  0  0  0  0  0  0  0  0  0  0  0
   16.0735   25.0498   -1.7044 C   0  0  0  0  0  0  0  0  0  0  0  0
   14.7250   24.7668   -2.0390 O   0  0  0  0  0  0  0  0  0  0  0  0
   20.9169   28.8096    0.9347 C   0  0  0  0  0  0  0  0  0  0  0  0
   21.0768   29.3785    2.0761 N   0  0  0  0  0  0  0  0  0  0  0  0
   14.4603   27.6084   -2.9008 C   0  0  0  0  0  0  0  0  0  0  0  0
   18.9187   24.8785   -5.7597 C   0  0  0  0  0  0  0  0  0  0  0  0
   19.6162   32.9212   -0.7147 C   0  0  2  0  0  0  0  0  0  0  0  0
   20.2334   34.2473   -1.1039 N   0  0  0  0  0  0  0  0  0  0  0  0
   17.7603   28.3124   -1.9159 C   0  0  2  0  0  0  0  0  0  0  0  0
   18.8908   24.9915   -2.8296 C   0  0  1  0  0  0  0  0  0  0  0  0
   18.8354   26.4021   -2.7232 O   0  0  0  0  0  0  0  0  0  0  0  0
   20.6774   31.8301   -0.6236 C   0  0  1  0  0  0  0  0  0  0  0  0
   21.6571   32.3350    0.3850 O   0  0  0  0  0  0  0  0  0  0  0  0
   17.8577   26.7983   -1.8735 C   0  0  2  0  0  0  0  0  0  0  0  0
   20.1231   24.6136   -3.6152 C   0  0  1  0  0  0  0  0  0  0  0  0
   20.0486   25.1647   -4.9221 N   0  0  0  0  0  0  0  0  0  0  0  0
   20.0983   30.4638   -0.2625 C   0  0  2  0  0  0  0  0  0  0  0  0
   21.0653   29.3906   -0.1582 N   0  0  0  0  0  0  0  0  0  0  0  0
   16.4956   26.3550   -2.3377 C   0  0  1  0  0  0  0  0  0  0  0  0
   16.4797   26.2367   -3.7641 O   0  0  0  0  0  0  0  0  0  0  0  0
   21.3324   25.1767   -2.8878 C   0  0  2  0  0  0  0  0  0  0  0  0
   22.5156   24.8595   -3.5879 O   0  0  0  0  0  0  0  0  0  0  0  0
   19.0853   30.0946   -1.3150 C   0  0  1  0  0  0  0  0  0  0  0  0
   18.4437   28.8910   -0.8091 O   0  0  0  0  0  0  0  0  0  0  0  0
   15.5908   27.4535   -1.9167 C   0  0  1  0  0  0  0  0  0  0  0  0
   16.3718   28.6499   -1.8748 O   0  0  0  0  0  0  0  0  0  0  0  0
   21.3504   24.5432   -1.4965 C   0  0  1  0  0  0  0  0  0  0  0  0
   22.4549   25.0267   -0.7482 O   0  0  0  0  0  0  0  0  0  0  0  0
   17.9701   31.1725   -1.3837 C   0  0  2  0  0  0  0  0  0  0  0  0
   17.0202   30.7987   -2.3697 O   0  0  0  0  0  0  0  0  0  0  0  0
   20.0435   24.8844   -0.7799 C   0  0  1  0  0  0  0  0  0  0  0  0
   18.9343   24.3983   -1.5340 O   0  0  0  0  0  0  0  0  0  0  0  0
   18.5929   32.5303   -1.7616 C   0  0  1  0  0  0  0  0  0  0  0  0
   17.5757   33.5368   -1.8294 O   0  0  0  0  0  0  0  0  0  0  0  0
   20.0471   24.2243    0.5992 C   0  0  0  0  0  0  0  0  0  0  0  0
   18.9390   24.7004    1.3461 O   0  0  0  0  0  0  0  0  0  0  0  0
   20.3351   36.3742   -0.2936 N   0  0  0  0  0  0  0  0  0  0  0  0
   20.6497   27.5958    0.8896 N   0  0  0  0  0  0  0  0  0  0  0  0
  1  2  1  0  0  0  0
  1 39  1  0  0  0  0
  3  4  1  0  0  0  0
  5  6  1  0  0  0  0
  5 40  1  0  0  0  0
  9 10  1  6  0  0  0
  9 14  1  0  0  0  0
  9 35  1  0  0  0  0
 10  1  1  0  0  0  0
 11 16  1  0  0  0  0
 11 28  1  0  0  0  0
 11 26  1  1  0  0  0
 12 17  1  0  0  0  0
 12 34  1  0  0  0  0
 12 13  1  1  0  0  0
 14 15  1  1  0  0  0
 14 19  1  0  0  0  0
 16 13  1  6  0  0  0
 16 21  1  0  0  0  0
 17 18  1  6  0  0  0
 17 23  1  0  0  0  0
 18  8  1  0  0  0  0
 19 20  1  6  0  0  0
 19 25  1  0  0  0  0
 20  5  1  0  0  0  0
 21  3  1  1  0  0  0
 21 22  1  0  0  0  0
 21 27  1  0  0  0  0
 23 24  1  6  0  0  0
 23 29  1  0  0  0  0
 25 26  1  1  0  0  0
 25 31  1  0  0  0  0
 27  7  1  6  0  0  0
 27 28  1  0  0  0  0
 29 30  1  1  0  0  0
 29 33  1  0  0  0  0
 31 32  1  6  0  0  0
 31 35  1  0  0  0  0
 33 34  1  0  0  0  0
 33 37  1  1  0  0  0
 35 36  1  1  0  0  0
 37 38  1  0  0  0  0
M  END
>  <CHROM.1>
-140.32948437,-21.72487435,142.04880238,-171.42325684,-174.26297321,-55.70327664
128.26996496,-62.30842343,172.56129379,-164.35561299,171.12292879,19.01354581
28.34874715,-1.46586281,-1.49675836,0.39928310,-2.96169510

>  <Name>
1ntb_lig

>  <RI>
0

>  <Rbt.Current_Directory>
/home/itssahil/PROJECTS/Mol_Feturizer/New_Systems/rnas/1ntb

>  <Rbt.Executable>
rbdock ($Id: //depot/dev/client3/rdock/2013.1/src/exe/rbdock.cxx#4 $)

>  <Rbt.Library>
libRbt.so (2013.1, Build901 2013/11/27)

>  <Rbt.Parameter_File>
/export/apps/rDock/src/rDock_2013.1_src/data/scripts/dock_solv.prm

>  <Rbt.Receptor>
prm/blind_docking_60.prm

>  <SCORE>
-6.36322

>  <SCORE.INTER>
-3.91756

>  <SCORE.INTER.CONST>
1

>  <SCORE.INTER.POLAR>
-1.0327

>  <SCORE.INTER.ROT>
11

>  <SCORE.INTER.SOLV>
14.5519

>  <SCORE.INTER.VDW>
-14.9533

>  <SCORE.INTER.norm>
-0.097939

>  <SCORE.INTRA>
-4.15277

>  <SCORE.INTRA.DIHEDRAL>
-4.81725

>  <SCORE.INTRA.DIHEDRAL.0>
15.4453

>  <SCORE.INTRA.POLAR>
0

>  <SCORE.INTRA.POLAR.0>
0

>  <SCORE.INTRA.REPUL>
-0.823958

>  <SCORE.INTRA.REPUL.0>
0.823958

>  <SCORE.INTRA.SOLV>
0.717244

>  <SCORE.INTRA.SOLV.lig_0>
-99.3069

>  <SCORE.INTRA.VDW>
2.01703

>  <SCORE.INTRA.VDW.0>
0.946495

>  <SCORE.INTRA.norm>
-0.103819

>  <SCORE.RESTR>
1.70711

>  <SCORE.RESTR.CAVITY>
1.70711

>  <SCORE.RESTR.norm>
0.0426777

>  <SCORE.SYSTEM>
0

>  <SCORE.SYSTEM.CONST>
0

>  <SCORE.SYSTEM.DIHEDRAL>
0

>  <SCORE.SYSTEM.SOLV>
0

>  <SCORE.SYSTEM.norm>
0

>  <SCORE.heavy>
40

>  <SCORE.norm>
-0.15908

>  <RMSD>
18.508

$$$$
1ntb_lig
 OpenBabel11021811403D
libRbt.so/2013.1/901 2013/11/27
 40 42  0  0  0  0  0  0  0  0999 V2000
   19.0581   35.1563   -1.4099 C   0  0  0  0  0  0  0  0  0  0  0  0
   20.2064   35.7140   -1.3836 N   0  0  0  0  0  0  0  0  0  0  0  0
   15.5369   24.9446   -1.7358 C   0  0  0  0  0  0  0  0  0  0  0  0
   14.4013   24.7117   -2.5522 O   0  0  0  0  0  0  0  0  0  0  0  0
   21.2653   29.2438   -0.6386 C   0  0  0  0  0  0  0  0  0  0  0  0
   21.0111   28.1576   -0.0001 N   0  0  0  0  0  0  0  0  0  0  0  0
   15.4254   26.6876   -4.4798 C   0  0  0  0  0  0  0  0  0  0  0  0
   18.6271   21.9509   -3.4545 C   0  0  0  0  0  0  0  0  0  0  0  0
   18.6844   32.8438   -1.6902 C   0  0  2  0  0  0  0  0  0  0  0  0
   18.9059   34.2059   -2.3120 N   0  0  0  0  0  0  0  0  0  0  0  0
   17.9335   27.6916   -2.2309 C   0  0  2  0  0  0  0  0  0  0  0  0
   18.4495   24.3518   -0.9119 C   0  0  1  0  0  0  0  0  0  0  0  0
   18.7026   25.6004   -1.5291 O   0  0  0  0  0  0  0  0  0  0  0  0
   19.8373   31.9005   -2.0156 C   0  0  1  0  0  0  0  0  0  0  0  0
   21.0537   32.5901   -1.4896 O   0  0  0  0  0  0  0  0  0  0  0  0
   17.5886   26.3700   -1.5688 C   0  0  2  0  0  0  0  0  0  0  0  0
   19.3597   23.3155   -1.5255 C   0  0  1  0  0  0  0  0  0  0  0  0
   19.0883   23.1984   -2.9147 N   0  0  0  0  0  0  0  0  0  0  0  0
   19.6450   30.5013   -1.4342 C   0  0  2  0  0  0  0  0  0  0  0  0
   20.7150   29.5649   -1.7101 N   0  0  0  0  0  0  0  0  0  0  0  0
   16.5394   25.7937   -2.4820 C   0  0  1  0  0  0  0  0  0  0  0  0
   17.1609   25.0244   -3.5169 O   0  0  0  0  0  0  0  0  0  0  0  0
   20.7942   23.7715   -1.3185 C   0  0  2  0  0  0  0  0  0  0  0  0
   21.6900   22.8398   -1.8843 O   0  0  0  0  0  0  0  0  0  0  0  0
   18.3619   29.9390   -1.9889 C   0  0  1  0  0  0  0  0  0  0  0  0
   18.1471   28.7031   -1.2521 O   0  0  0  0  0  0  0  0  0  0  0  0
   15.8758   26.9826   -3.0725 C   0  0  1  0  0  0  0  0  0  0  0  0
   16.8356   28.0419   -3.0767 O   0  0  0  0  0  0  0  0  0  0  0  0
   21.0155   23.8748    0.1907 C   0  0  1  0  0  0  0  0  0  0  0  0
   22.3395   24.3040    0.4672 O   0  0  0  0  0  0  0  0  0  0  0  0
   17.1707   30.8642   -1.6213 C   0  0  2  0  0  0  0  0  0  0  0  0
   15.9719   30.3096   -2.1403 O   0  0  0  0  0  0  0  0  0  0  0  0
   20.0108   24.8701    0.7719 C   0  0  1  0  0  0  0  0  0  0  0  0
   18.6805   24.4374    0.4922 O   0  0  0  0  0  0  0  0  0  0  0  0
   17.3973   32.2591   -2.2354 C   0  0  1  0  0  0  0  0  0  0  0  0
   16.3055   33.1258   -1.9052 O   0  0  0  0  0  0  0  0  0  0  0  0
   20.2103   24.9495    2.2856 C   0  0  0  0  0  0  0  0  0  0  0  0
   19.8314   23.7139    2.8707 O   0  0  0  0  0  0  0  0  0  0  0  0
   18.1002   35.5113   -0.6275 N   0  0  0  0  0  0  0  0  0  0  0  0
   22.0645   30.0641   -0.1539 N   0  0  0  0  0  0  0  0  0  0  0  0
  1  2  1  0  0  0  0
  1 39  1  0  0  0  0
  3  4  1  0  0  0  0
  5  6  1  0  0  0  0
  5 40  1  0  0  0  0
  9 10  1  6  0  0  0
  9 14  1  0  0  0  0
  9 35  1  0  0  0  0
 10  1  1  0  0  0  0
 11 16  1  0  0  0  0
 11 28  1  0  0  0  0
 11 26  1  1  0  0  0
 12 17  1  0  0  0  0
 12 34  1  0  0  0  0
 12 13  1  6  0  0  0
 14 15  1  1  0  0  0
 14 19  1  0  0  0  0
 16 13  1  6  0  0  0
 16 21  1  0  0  0  0
 17 18  1  6  0  0  0
 17 23  1  0  0  0  0
 18  8  1  0  0  0  0
 19 20  1  6  0  0  0
 19 25  1  0  0  0  0
 20  5  1  0  0  0  0
 21  3  1  1  0  0  0
 21 22  1  0  0  0  0
 21 27  1  0  0  0  0
 23 24  1  1  0  0  0
 23 29  1  0  0  0  0
 25 26  1  1  0  0  0
 25 31  1  0  0  0  0
 27  7  1  6  0  0  0
 27 28  1  0  0  0  0
 29 30  1  6  0  0  0
 29 33  1  0  0  0  0
 31 32  1  6  0  0  0
 31 35  1  0  0  0  0
 33 34  1  0  0  0  0
 33 37  1  1  0  0  0
 35 36  1  1  0  0  0
 37 38  1  0  0  0  0
M  END
>  <CHROM.1>
-115.17634256,114.85989248,-175.55255429,149.13271601,179.58289587,-118.29480797
115.46426113,98.96895653,165.19493653,-128.25179481,-67.55437124,18.73356842
27.89244588,-1.42952845,-1.61009593,0.53642779,3.10558007

>  <Name>
1ntb_lig

>  <RI>
0

>  <Rbt.Current_Directory>
/home/itssahil/PROJECTS/Mol_Feturizer/New_Systems/rnas/1ntb

>  <Rbt.Executable>
rbdock ($Id: //depot/dev/client3/rdock/2013.1/src/exe/rbdock.cxx#4 $)

>  <Rbt.Library>
libRbt.so (2013.1, Build901 2013/11/27)

>  <Rbt.Parameter_File>
/export/apps/rDock/src/rDock_2013.1_src/data/scripts/dock_solv.prm

>  <Rbt.Receptor>
prm/blind_docking_60.prm

>  <SCORE>
-3.66461

>  <SCORE.INTER>
4.67003

>  <SCORE.INTER.CONST>
1

>  <SCORE.INTER.POLAR>
0

>  <SCORE.INTER.ROT>
11

>  <SCORE.INTER.SOLV>
20.8408

>  <SCORE.INTER.VDW>
-14.7669

>  <SCORE.INTER.norm>
0.116751

>  <SCORE.INTRA>
-9.12987

>  <SCORE.INTRA.DIHEDRAL>
0.614107

>  <SCORE.INTRA.DIHEDRAL.0>
15.4453

>  <SCORE.INTRA.POLAR>
0

>  <SCORE.INTRA.POLAR.0>
0

>  <SCORE.INTRA.REPUL>
-0.821208

>  <SCORE.INTRA.REPUL.0>
0.823958

>  <SCORE.INTRA.SOLV>
0.293987

>  <SCORE.INTRA.SOLV.lig_0>
-99.3069

>  <SCORE.INTRA.VDW>
-5.47788

>  <SCORE.INTRA.VDW.0>
0.946495

>  <SCORE.INTRA.norm>
-0.228247

>  <SCORE.RESTR>
0.79523

>  <SCORE.RESTR.CAVITY>
0.79523

>  <SCORE.RESTR.norm>
0.0198807

>  <SCORE.SYSTEM>
0

>  <SCORE.SYSTEM.CONST>
0

>  <SCORE.SYSTEM.DIHEDRAL>
0

>  <SCORE.SYSTEM.SOLV>
0

>  <SCORE.SYSTEM.norm>
0

>  <SCORE.heavy>
40

>  <SCORE.norm>
-0.0916152

>  <RMSD>
18.515

$$$$
1ntb_lig
 OpenBabel11021811403D
libRbt.so/2013.1/901 2013/11/27
 40 42  0  0  0  0  0  0  0  0999 V2000
   12.9822   30.4462   -1.6092 C   0  0  0  0  0  0  0  0  0  0  0  0
   12.4778   31.5909   -1.8650 N   0  0  0  0  0  0  0  0  0  0  0  0
   22.0281   28.4920    1.1320 C   0  0  0  0  0  0  0  0  0  0  0  0
   22.1873   28.5227    2.5406 O   0  0  0  0  0  0  0  0  0  0  0  0
   18.2399   32.5020   -2.2512 C   0  0  0  0  0  0  0  0  0  0  0  0
   18.4879   32.6420   -0.9978 N   0  0  0  0  0  0  0  0  0  0  0  0
   19.9909   30.9861    1.5892 C   0  0  0  0  0  0  0  0  0  0  0  0
   19.2224   25.3349    3.3658 C   0  0  0  0  0  0  0  0  0  0  0  0
   15.1024   29.6064   -2.2138 C   0  0  2  0  0  0  0  0  0  0  0  0
   13.6646   29.8908   -2.5920 N   0  0  0  0  0  0  0  0  0  0  0  0
   19.1116   28.8722   -1.0779 C   0  0  2  0  0  0  0  0  0  0  0  0
   20.4840   25.9041    0.4929 C   0  0  1  0  0  0  0  0  0  0  0  0
   19.5630   26.7953   -0.1084 O   0  0  0  0  0  0  0  0  0  0  0  0
   16.0316   30.6948   -2.7400 C   0  0  1  0  0  0  0  0  0  0  0  0
   15.5116   31.9613   -2.1422 O   0  0  0  0  0  0  0  0  0  0  0  0
   20.1520   27.9688   -0.4414 C   0  0  2  0  0  0  0  0  0  0  0  0
   19.7265   24.7119    1.0254 C   0  0  1  0  0  0  0  0  0  0  0  0
   18.7945   25.1345    2.0104 N   0  0  0  0  0  0  0  0  0  0  0  0
   17.5000   30.4363   -2.4092 C   0  0  2  0  0  0  0  0  0  0  0  0
   18.4268   31.4435   -2.8826 N   0  0  0  0  0  0  0  0  0  0  0  0
   20.5825   28.7465    0.7739 C   0  0  1  0  0  0  0  0  0  0  0  0
   19.7377   28.4260    1.8841 O   0  0  0  0  0  0  0  0  0  0  0  0
   18.9895   24.0687   -0.1373 C   0  0  2  0  0  0  0  0  0  0  0  0
   18.2540   22.9503    0.3085 O   0  0  0  0  0  0  0  0  0  0  0  0
   17.8863   29.1099   -3.0105 C   0  0  1  0  0  0  0  0  0  0  0  0
   19.2208   28.8421   -2.4971 O   0  0  0  0  0  0  0  0  0  0  0  0
   20.3849   30.1659    0.3882 C   0  0  1  0  0  0  0  0  0  0  0  0
   19.3423   30.1956   -0.5892 O   0  0  0  0  0  0  0  0  0  0  0  0
   20.0483   23.6397   -1.1533 C   0  0  1  0  0  0  0  0  0  0  0  0
   19.4345   23.0316   -2.2791 O   0  0  0  0  0  0  0  0  0  0  0  0
   16.9804   27.9832   -2.4447 C   0  0  2  0  0  0  0  0  0  0  0  0
   17.3699   26.7422   -3.0124 O   0  0  0  0  0  0  0  0  0  0  0  0
   20.8420   24.8708   -1.5917 C   0  0  1  0  0  0  0  0  0  0  0  0
   21.4576   25.4812   -0.4587 O   0  0  0  0  0  0  0  0  0  0  0  0
   15.5121   28.2749   -2.8097 C   0  0  1  0  0  0  0  0  0  0  0  0
   14.6623   27.2431   -2.2944 O   0  0  0  0  0  0  0  0  0  0  0  0
   21.9220   24.4375   -2.5833 C   0  0  0  0  0  0  0  0  0  0  0  0
   22.9966   23.8448   -1.8717 O   0  0  0  0  0  0  0  0  0  0  0  0
   12.8176   29.8566   -0.4774 N   0  0  0  0  0  0  0  0  0  0  0  0
   17.7341   33.4466   -2.8826 N   0  0  0  0  0  0  0  0  0  0  0  0
  1  2  1  0  0  0  0
  1 39  1  0  0  0  0
  3  4  1  0  0  0  0
  5  6  1  0  0  0  0
  5 40  1  0  0  0  0
  9 10  1  6  0  0  0
  9 14  1  0  0  0  0
  9 35  1  0  0  0  0
 10  1  1  0  0  0  0
 11 16  1  0  0  0  0
 11 28  1  0  0  0  0
 11 26  1  6  0  0  0
 12 17  1  0  0  0  0
 12 34  1  0  0  0  0
 12 13  1  6  0  0  0
 14 15  1  1  0  0  0
 14 19  1  0  0  0  0
 16 13  1  1  0  0  0
 16 21  1  0  0  0  0
 17 18  1  1  0  0  0
 17 23  1  0  0  0  0
 18  8  1  0  0  0  0
 19 20  1  6  0  0  0
 19 25  1  0  0  0  0
 20  5  1  0  0  0  0
 21  3  1  1  0  0  0
 21 22  1  0  0  0  0
 21 27  1  0  0  0  0
 23 24  1  1  0  0  0
 23 29  1  0  0  0  0
 25 26  1  1  0  0  0
 25 31  1  0  0  0  0
 27  7  1  1  0  0  0
 27 28  1  0  0  0  0
 29 30  1  6  0  0  0
 29 33  1  0  0  0  0
 31 32  1  6  0  0  0
 31 35  1  0  0  0  0
 33 34  1  0  0  0  0
 33 37  1  6  0  0  0
 35 36  1  1  0  0  0
 37 38  1  0  0  0  0
M  END
>  <CHROM.1>
-98.95154519,120.90970512,151.29766427,171.50455811,-179.98834857,-83.18760944
68.09800729,67.27143912,-145.40024075,56.88909532,-77.49613794,18.43254554
28.08416810,-0.92662348,2.34196763,-0.42767987,0.05316876

>  <Name>
1ntb_lig

>  <RI>
0

>  <Rbt.Current_Directory>
/home/itssahil/PROJECTS/Mol_Feturizer/New_Systems/rnas/1ntb

>  <Rbt.Executable>
rbdock ($Id: //depot/dev/client3/rdock/2013.1/src/exe/rbdock.cxx#4 $)

>  <Rbt.Library>
libRbt.so (2013.1, Build901 2013/11/27)

>  <Rbt.Parameter_File>
/export/apps/rDock/src/rDock_2013.1_src/data/scripts/dock_solv.prm

>  <Rbt.Receptor>
prm/blind_docking_80.prm

>  <SCORE>
-15.7863

>  <SCORE.INTER>
-12.4237

>  <SCORE.INTER.CONST>
1

>  <SCORE.INTER.POLAR>
-0.87178

>  <SCORE.INTER.ROT>
11

>  <SCORE.INTER.SOLV>
21.598

>  <SCORE.INTER.VDW>
-23.5092

>  <SCORE.INTER.norm>
-0.310591

>  <SCORE.INTRA>
-4.03111

>  <SCORE.INTRA.DIHEDRAL>
-4.55901

>  <SCORE.INTRA.DIHEDRAL.0>
15.4453

>  <SCORE.INTRA.POLAR>
0

>  <SCORE.INTRA.POLAR.0>
0

>  <SCORE.INTRA.REPUL>
-0.823958

>  <SCORE.INTRA.REPUL.0>
0.823958

>  <SCORE.INTRA.SOLV>
1.73292

>  <SCORE.INTRA.SOLV.lig_0>
-99.3069

>  <SCORE.INTRA.VDW>
1.50173

>  <SCORE.INTRA.VDW.0>
0.946495

>  <SCORE.INTRA.norm>
-0.100778

>  <SCORE.RESTR>
0.668469

>  <SCORE.RESTR.CAVITY>
0.668469

>  <SCORE.RESTR.norm>
0.0167117

>  <SCORE.SYSTEM>
0

>  <SCORE.SYSTEM.CONST>
0

>  <SCORE.SYSTEM.DIHEDRAL>
0

>  <SCORE.SYSTEM.SOLV>
0

>  <SCORE.SYSTEM.norm>
0

>  <SCORE.heavy>
40

>  <SCORE.norm>
-0.394657

>  <RMSD>
18.520

$$$$
1ntb_lig
 OpenBabel11021811403D
libRbt.so/2013.1/901 2013/11/27
 40 42  0  0  0  0  0  0  0  0999 V2000
   18.5496   21.8795    4.1364 C   0  0  0  0  0  0  0  0  0  0  0  0
   18.1348   21.6946    5.3297 N   0  0  0  0  0  0  0  0  0  0  0  0
   18.5527   30.7893   -2.3702 C   0  0  0  0  0  0  0  0  0  0  0  0
   17.6026   31.2479   -1.4230 O   0  0  0  0  0  0  0  0  0  0  0  0
   20.6855   25.1610   -0.3480 C   0  0  0  0  0  0  0  0  0  0  0  0
   21.2846   24.0291   -0.4565 N   0  0  0  0  0  0  0  0  0  0  0  0
   21.3884   30.6940   -0.7797 C   0  0  0  0  0  0  0  0  0  0  0  0
   18.5811   25.2278   -5.8386 C   0  0  0  0  0  0  0  0  0  0  0  0
   18.7753   24.0058    3.1396 C   0  0  2  0  0  0  0  0  0  0  0  0
   19.3772   22.8932    3.9707 N   0  0  0  0  0  0  0  0  0  0  0  0
   19.2920   27.9409   -0.1622 C   0  0  2  0  0  0  0  0  0  0  0  0
   17.7799   27.9993   -3.4591 C   0  0  1  0  0  0  0  0  0  0  0  0
   18.4965   27.5506   -2.3237 O   0  0  0  0  0  0  0  0  0  0  0  0
   19.4241   24.0708    1.7613 C   0  0  1  0  0  0  0  0  0  0  0  0
   19.2011   22.7167    1.1710 O   0  0  0  0  0  0  0  0  0  0  0  0
   18.5419   28.4992   -1.3579 C   0  0  2  0  0  0  0  0  0  0  0  0
   17.4351   26.8057   -4.3164 C   0  0  1  0  0  0  0  0  0  0  0  0
   18.6260   26.1674   -4.7544 N   0  0  0  0  0  0  0  0  0  0  0  0
   18.8702   25.1995    0.8942 C   0  0  2  0  0  0  0  0  0  0  0  0
   19.4497   25.3037   -0.4291 N   0  0  0  0  0  0  0  0  0  0  0  0
   19.3823   29.6794   -1.7680 C   0  0  1  0  0  0  0  0  0  0  0  0
   20.3916   29.2628   -2.6937 O   0  0  0  0  0  0  0  0  0  0  0  0
   16.6170   25.8437   -3.4716 C   0  0  2  0  0  0  0  0  0  0  0  0
   16.2749   24.7007   -4.2247 O   0  0  0  0  0  0  0  0  0  0  0  0
   19.0988   26.4997    1.6205 C   0  0  1  0  0  0  0  0  0  0  0  0
   18.3823   27.4950    0.8380 O   0  0  0  0  0  0  0  0  0  0  0  0
   20.0176   30.1319   -0.5054 C   0  0  1  0  0  0  0  0  0  0  0  0
   20.1177   28.9901    0.3486 O   0  0  0  0  0  0  0  0  0  0  0  0
   15.3568   26.5927   -3.0377 C   0  0  1  0  0  0  0  0  0  0  0  0
   14.5380   25.7574   -2.2342 O   0  0  0  0  0  0  0  0  0  0  0  0
   18.3999   26.4668    3.0065 C   0  0  2  0  0  0  0  0  0  0  0  0
   18.6153   27.7043    3.6670 O   0  0  0  0  0  0  0  0  0  0  0  0
   15.7667   27.8374   -2.2499 C   0  0  1  0  0  0  0  0  0  0  0  0
   16.5904   28.6754   -3.0589 O   0  0  0  0  0  0  0  0  0  0  0  0
   18.9945   25.3246    3.8527 C   0  0  1  0  0  0  0  0  0  0  0  0
   18.3597   25.2808    5.1362 O   0  0  0  0  0  0  0  0  0  0  0  0
   14.5079   28.6040   -1.8435 C   0  0  0  0  0  0  0  0  0  0  0  0
   14.8656   29.9284   -1.4823 O   0  0  0  0  0  0  0  0  0  0  0  0
   18.1688   21.1442    3.1515 N   0  0  0  0  0  0  0  0  0  0  0  0
   21.3497   26.1815   -0.0949 N   0  0  0  0  0  0  0  0  0  0  0  0
  1  2  1  0  0  0  0
  1 39  1  0  0  0  0
  3  4  1  0  0  0  0
  5  6  1  0  0  0  0
  5 40  1  0  0  0  0
  9 10  1  1  0  0  0
  9 14  1  0  0  0  0
  9 35  1  0  0  0  0
 10  1  1  0  0  0  0
 11 16  1  0  0  0  0
 11 28  1  0  0  0  0
 11 26  1  1  0  0  0
 12 17  1  0  0  0  0
 12 34  1  0  0  0  0
 12 13  1  1  0  0  0
 14 15  1  6  0  0  0
 14 19  1  0  0  0  0
 16 13  1  6  0  0  0
 16 21  1  0  0  0  0
 17 18  1  1  0  0  0
 17 23  1  0  0  0  0
 18  8  1  0  0  0  0
 19 20  1  6  0  0  0
 19 25  1  0  0  0  0
 20  5  1  0  0  0  0
 21  3  1  6  0  0  0
 21 22  1  0  0  0  0
 21 27  1  0  0  0  0
 23 24  1  6  0  0  0
 23 29  1  0  0  0  0
 25 26  1  6  0  0  0
 25 31  1  0  0  0  0
 27  7  1  6  0  0  0
 27 28  1  0  0  0  0
 29 30  1  1  0  0  0
 29 33  1  0  0  0  0
 31 32  1  1  0  0  0
 31 35  1  0  0  0  0
 33 34  1  0  0  0  0
 33 37  1  6  0  0  0
 35 36  1  1  0  0  0
 37 38  1  0  0  0  0
M  END
>  <CHROM.1>
-108.64611444,-112.92522476,155.94201459,-164.41868188,178.62185279,-164.31442325
-43.31145900,91.23539336,60.36995559,-87.36980356,-162.52242056,18.37387538
26.58920548,-0.33897873,1.19023211,1.10221683,2.56899563

>  <Name>
1ntb_lig

>  <RI>
0

>  <Rbt.Current_Directory>
/home/itssahil/PROJECTS/Mol_Feturizer/New_Systems/rnas/1ntb

>  <Rbt.Executable>
rbdock ($Id: //depot/dev/client3/rdock/2013.1/src/exe/rbdock.cxx#4 $)

>  <Rbt.Library>
libRbt.so (2013.1, Build901 2013/11/27)

>  <Rbt.Parameter_File>
/export/apps/rDock/src/rDock_2013.1_src/data/scripts/dock_solv.prm

>  <Rbt.Receptor>
prm/blind_docking_40.prm

>  <SCORE>
-15.0587

>  <SCORE.INTER>
-15.3637

>  <SCORE.INTER.CONST>
1

>  <SCORE.INTER.POLAR>
-0.729436

>  <SCORE.INTER.ROT>
11

>  <SCORE.INTER.SOLV>
13.8235

>  <SCORE.INTER.VDW>
-23.3522

>  <SCORE.INTER.norm>
-0.384093

>  <SCORE.INTRA>
-0.792368

>  <SCORE.INTRA.DIHEDRAL>
-4.9707

>  <SCORE.INTRA.DIHEDRAL.0>
15.4453

>  <SCORE.INTRA.POLAR>
0

>  <SCORE.INTRA.POLAR.0>
0

>  <SCORE.INTRA.REPUL>
-0.11783

>  <SCORE.INTRA.REPUL.0>
0.823958

>  <SCORE.INTRA.SOLV>
3.23794

>  <SCORE.INTRA.SOLV.lig_0>
-99.3069

>  <SCORE.INTRA.VDW>
0.663164

>  <SCORE.INTRA.VDW.0>
0.946495

>  <SCORE.INTRA.norm>
-0.0198092

>  <SCORE.RESTR>
1.0974

>  <SCORE.RESTR.CAVITY>
1.0974

>  <SCORE.RESTR.norm>
0.027435

>  <SCORE.SYSTEM>
0

>  <SCORE.SYSTEM.CONST>
0

>  <SCORE.SYSTEM.DIHEDRAL>
0

>  <SCORE.SYSTEM.SOLV>
0

>  <SCORE.SYSTEM.norm>
0

>  <SCORE.heavy>
40

>  <SCORE.norm>
-0.376467

>  <RMSD>
18.523

$$$$
1ntb_lig
 OpenBabel11021811403D
libRbt.so/2013.1/901 2013/11/27
 40 42  0  0  0  0  0  0  0  0999 V2000
   17.8482   20.2750    0.9927 C   0  0  0  0  0  0  0  0  0  0  0  0
   17.7370   19.6610   -0.1212 N   0  0  0  0  0  0  0  0  0  0  0  0
   21.0489   30.2022    1.5647 C   0  0  0  0  0  0  0  0  0  0  0  0
   20.4697   29.5994    2.7099 O   0  0  0  0  0  0  0  0  0  0  0  0
   17.3236   25.1174   -2.6592 C   0  0  0  0  0  0  0  0  0  0  0  0
   16.4025   25.7607   -2.0348 N   0  0  0  0  0  0  0  0  0  0  0  0
   23.1140   27.9730    0.4046 C   0  0  0  0  0  0  0  0  0  0  0  0
   18.0096   33.4029    0.5994 C   0  0  0  0  0  0  0  0  0  0  0  0
   18.4796   22.5458    0.8897 C   0  0  2  0  0  0  0  0  0  0  0  0
   18.8742   21.0985    1.0904 N   0  0  0  0  0  0  0  0  0  0  0  0
   19.7566   27.4352   -0.4867 C   0  0  2  0  0  0  0  0  0  0  0  0
   17.7617   29.9795   -0.7416 C   0  0  1  0  0  0  0  0  0  0  0  0
   19.1142   29.6287   -0.9695 O   0  0  0  0  0  0  0  0  0  0  0  0
   18.6589   22.9646   -0.5655 C   0  0  1  0  0  0  0  0  0  0  0  0
   17.8066   22.0153   -1.3428 O   0  0  0  0  0  0  0  0  0  0  0  0
   19.6017   28.8543    0.0292 C   0  0  2  0  0  0  0  0  0  0  0  0
   17.6165   31.4738   -0.8985 C   0  0  1  0  0  0  0  0  0  0  0  0
   18.4258   32.1394    0.0603 N   0  0  0  0  0  0  0  0  0  0  0  0
   18.3017   24.4287   -0.8129 C   0  0  2  0  0  0  0  0  0  0  0  0
   18.4500   24.8783   -2.1817 N   0  0  0  0  0  0  0  0  0  0  0  0
   21.0091   29.2379    0.4022 C   0  0  1  0  0  0  0  0  0  0  0  0
   21.6776   29.8050   -0.7294 O   0  0  0  0  0  0  0  0  0  0  0  0
   18.0712   31.8433   -2.3004 C   0  0  2  0  0  0  0  0  0  0  0  0
   17.9650   33.2363   -2.4977 O   0  0  0  0  0  0  0  0  0  0  0  0
   19.1812   25.2779    0.0678 C   0  0  1  0  0  0  0  0  0  0  0  0
   18.6588   26.6281   -0.0743 O   0  0  0  0  0  0  0  0  0  0  0  0
   21.6526   27.9525    0.7711 C   0  0  1  0  0  0  0  0  0  0  0  0
   20.9796   26.9210    0.0457 O   0  0  0  0  0  0  0  0  0  0  0  0
   17.1611   31.0961   -3.2754 C   0  0  1  0  0  0  0  0  0  0  0  0
   17.5286   31.3864   -4.6150 O   0  0  0  0  0  0  0  0  0  0  0  0
   18.9712   24.8967    1.5581 C   0  0  2  0  0  0  0  0  0  0  0  0
   19.7971   25.7169    2.3701 O   0  0  0  0  0  0  0  0  0  0  0  0
   17.2813   29.5944   -3.0137 C   0  0  1  0  0  0  0  0  0  0  0  0
   16.9123   29.3046   -1.6665 O   0  0  0  0  0  0  0  0  0  0  0  0
   19.3534   23.4188    1.7673 C   0  0  1  0  0  0  0  0  0  0  0  0
   19.1653   23.0510    3.1390 O   0  0  0  0  0  0  0  0  0  0  0  0
   16.3471   28.8485   -3.9668 C   0  0  0  0  0  0  0  0  0  0  0  0
   15.0044   29.1988   -3.6717 O   0  0  0  0  0  0  0  0  0  0  0  0
   17.0309   20.0878    1.9688 N   0  0  0  0  0  0  0  0  0  0  0  0
   17.0846   24.6498   -3.7866 N   0  0  0  0  0  0  0  0  0  0  0  0
  1  2  1  0  0  0  0
  1 39  1  0  0  0  0
  3  4  1  0  0  0  0
  5  6  1  0  0  0  0
  5 40  1  0  0  0  0
  9 10  1  6  0  0  0
  9 14  1  0  0  0  0
  9 35  1  0  0  0  0
 10  1  1  0  0  0  0
 11 16  1  0  0  0  0
 11 28  1  0  0  0  0
 11 26  1  1  0  0  0
 12 17  1  0  0  0  0
 12 34  1  0  0  0  0
 12 13  1  6  0  0  0
 14 15  1  6  0  0  0
 14 19  1  0  0  0  0
 16 13  1  6  0  0  0
 16 21  1  0  0  0  0
 17 18  1  1  0  0  0
 17 23  1  0  0  0  0
 18  8  1  0  0  0  0
 19 20  1  6  0  0  0
 19 25  1  0  0  0  0
 20  5  1  0  0  0  0
 21  3  1  1  0  0  0
 21 22  1  0  0  0  0
 21 27  1  0  0  0  0
 23 24  1  6  0  0  0
 23 29  1  0  0  0  0
 25 26  1  1  0  0  0
 25 31  1  0  0  0  0
 27  7  1  6  0  0  0
 27 28  1  0  0  0  0
 29 30  1  6  0  0  0
 29 33  1  0  0  0  0
 31 32  1  1  0  0  0
 31 35  1  0  0  0  0
 33 34  1  0  0  0  0
 33 37  1  6  0  0  0
 35 36  1  1  0  0  0
 37 38  1  0  0  0  0
M  END
>  <CHROM.1>
-93.62280602,100.75035980,-149.34168659,129.42249327,107.59143413,-147.99134149
111.77886724,44.36310667,61.29785958,-124.74110704,-64.28007628,18.64647721
27.09694004,-0.55179168,1.56032605,0.84077699,2.91281687

>  <Name>
1ntb_lig

>  <RI>
0

>  <Rbt.Current_Directory>
/home/itssahil/PROJECTS/Mol_Feturizer/New_Systems/rnas/1ntb

>  <Rbt.Executable>
rbdock ($Id: //depot/dev/client3/rdock/2013.1/src/exe/rbdock.cxx#4 $)

>  <Rbt.Library>
libRbt.so (2013.1, Build901 2013/11/27)

>  <Rbt.Parameter_File>
/export/apps/rDock/src/rDock_2013.1_src/data/scripts/dock_solv.prm

>  <Rbt.Receptor>
prm/blind_docking_100.prm

>  <SCORE>
-13.179

>  <SCORE.INTER>
-11.5783

>  <SCORE.INTER.CONST>
1

>  <SCORE.INTER.POLAR>
-0.751489

>  <SCORE.INTER.ROT>
11

>  <SCORE.INTER.SOLV>
19.2675

>  <SCORE.INTER.VDW>
-22.5697

>  <SCORE.INTER.norm>
-0.289458

>  <SCORE.INTRA>
-1.79647

>  <SCORE.INTRA.DIHEDRAL>
12.3132

>  <SCORE.INTRA.DIHEDRAL.0>
15.4453

>  <SCORE.INTRA.POLAR>
0

>  <SCORE.INTRA.POLAR.0>
0

>  <SCORE.INTRA.REPUL>
-0.823958

>  <SCORE.INTRA.REPUL.0>
0.823958

>  <SCORE.INTRA.SOLV>
-0.0917849

>  <SCORE.INTRA.SOLV.lig_0>
-99.3069

>  <SCORE.INTRA.VDW>
-3.78741

>  <SCORE.INTRA.VDW.0>
0.946495

>  <SCORE.INTRA.norm>
-0.0449118

>  <SCORE.RESTR>
0.195815

>  <SCORE.RESTR.CAVITY>
0.195815

>  <SCORE.RESTR.norm>
0.00489538

>  <SCORE.SYSTEM>
0

>  <SCORE.SYSTEM.CONST>
0

>  <SCORE.SYSTEM.DIHEDRAL>
0

>  <SCORE.SYSTEM.SOLV>
0

>  <SCORE.SYSTEM.norm>
0

>  <SCORE.heavy>
40

>  <SCORE.norm>
-0.329474

>  <RMSD>
18.527

$$$$
1ntb_lig
 OpenBabel11021811403D
libRbt.so/2013.1/901 2013/11/27
 40 42  0  0  0  0  0  0  0  0999 V2000
   17.1221   24.5471   -5.2980 C   0  0  0  0  0  0  0  0  0  0  0  0
   17.3094   25.0732   -6.4462 N   0  0  0  0  0  0  0  0  0  0  0  0
   21.9810   28.0788    0.9463 C   0  0  0  0  0  0  0  0  0  0  0  0
   21.7698   27.0190    0.0284 O   0  0  0  0  0  0  0  0  0  0  0  0
   15.5544   29.4129   -2.3305 C   0  0  0  0  0  0  0  0  0  0  0  0
   14.9263   29.2729   -1.2178 N   0  0  0  0  0  0  0  0  0  0  0  0
   21.3087   30.8041   -0.6971 C   0  0  0  0  0  0  0  0  0  0  0  0
   22.6256   29.0374    4.0533 C   0  0  0  0  0  0  0  0  0  0  0  0
   17.6337   25.4659   -3.1861 C   0  0  2  0  0  0  0  0  0  0  0  0
   18.0936   24.7253   -4.4235 N   0  0  0  0  0  0  0  0  0  0  0  0
   18.4750   29.0949    0.4880 C   0  0  2  0  0  0  0  0  0  0  0  0
   19.9341   27.5445    3.4021 C   0  0  1  0  0  0  0  0  0  0  0  0
   19.2331   28.4875    2.6125 O   0  0  0  0  0  0  0  0  0  0  0  0
   17.4215   26.9464   -3.4824 C   0  0  1  0  0  0  0  0  0  0  0  0
   16.4143   26.9736   -4.5855 O   0  0  0  0  0  0  0  0  0  0  0  0
   19.5156   28.3410    1.2958 C   0  0  2  0  0  0  0  0  0  0  0  0
   20.3772   28.2168    4.6789 C   0  0  1  0  0  0  0  0  0  0  0  0
   21.2511   29.2950    4.3771 N   0  0  0  0  0  0  0  0  0  0  0  0
   16.9853   27.7436   -2.2549 C   0  0  2  0  0  0  0  0  0  0  0  0
   16.7650   29.1570   -2.4820 N   0  0  0  0  0  0  0  0  0  0  0  0
   20.8029   29.0243    0.9176 C   0  0  1  0  0  0  0  0  0  0  0  0
   21.0422   30.1338    1.7899 O   0  0  0  0  0  0  0  0  0  0  0  0
   19.1386   28.7412    5.3857 C   0  0  2  0  0  0  0  0  0  0  0  0
   19.4983   29.3904    6.5856 O   0  0  0  0  0  0  0  0  0  0  0  0
   18.0474   27.5886   -1.1975 C   0  0  1  0  0  0  0  0  0  0  0  0
   17.4811   28.2039   -0.0071 O   0  0  0  0  0  0  0  0  0  0  0  0
   20.5642   29.5153   -0.4624 C   0  0  1  0  0  0  0  0  0  0  0  0
   19.1573   29.7305   -0.5954 O   0  0  0  0  0  0  0  0  0  0  0  0
   18.2483   27.5336    5.6793 C   0  0  1  0  0  0  0  0  0  0  0  0
   17.0603   27.9446    6.3377 O   0  0  0  0  0  0  0  0  0  0  0  0
   18.2384   26.0878   -0.8489 C   0  0  2  0  0  0  0  0  0  0  0  0
   19.2315   25.9655    0.1576 O   0  0  0  0  0  0  0  0  0  0  0  0
   17.9027   26.8406    4.3609 C   0  0  1  0  0  0  0  0  0  0  0  0
   19.0981   26.4289    3.7001 O   0  0  0  0  0  0  0  0  0  0  0  0
   18.6891   25.3230   -2.1083 C   0  0  1  0  0  0  0  0  0  0  0  0
   18.8702   23.9351   -1.8030 O   0  0  0  0  0  0  0  0  0  0  0  0
   17.0389   25.6142    4.6568 C   0  0  0  0  0  0  0  0  0  0  0  0
   15.8378   26.0314    5.2857 O   0  0  0  0  0  0  0  0  0  0  0  0
   16.0684   23.8651   -5.0147 N   0  0  0  0  0  0  0  0  0  0  0  0
   14.9291   29.7731   -3.3434 N   0  0  0  0  0  0  0  0  0  0  0  0
  1  2  1  0  0  0  0
  1 39  1  0  0  0  0
  3  4  1  0  0  0  0
  5  6  1  0  0  0  0
  5 40  1  0  0  0  0
  9 10  1  6  0  0  0
  9 14  1  0  0  0  0
  9 35  1  0  0  0  0
 10  1  1  0  0  0  0
 11 16  1  0  0  0  0
 11 28  1  0  0  0  0
 11 26  1  6  0  0  0
 12 17  1  0  0  0  0
 12 34  1  0  0  0  0
 12 13  1  6  0  0  0
 14 15  1  6  0  0  0
 14 19  1  0  0  0  0
 16 13  1  1  0  0  0
 16 21  1  0  0  0  0
 17 18  1  6  0  0  0
 17 23  1  0  0  0  0
 18  8  1  0  0  0  0
 19 20  1  6  0  0  0
 19 25  1  0  0  0  0
 20  5  1  0  0  0  0
 21  3  1  1  0  0  0
 21 22  1  0  0  0  0
 21 27  1  0  0  0  0
 23 24  1  1  0  0  0
 23 29  1  0  0  0  0
 25 26  1  1  0  0  0
 25 31  1  0  0  0  0
 27  7  1  1  0  0  0
 27 28  1  0  0  0  0
 29 30  1  6  0  0  0
 29 33  1  0  0  0  0
 31 32  1  1  0  0  0
 31 35  1  0  0  0  0
 33 34  1  0  0  0  0
 33 37  1  1  0  0  0
 35 36  1  1  0  0  0
 37 38  1  0  0  0  0
M  END
>  <CHROM.1>
-73.97385133,119.66240042,-81.07891340,141.69644346,164.61231676,-78.71360506
113.59448254,63.39776847,60.24839893,-130.30215458,61.18591966,18.55816531
27.57769046,0.43273607,1.90383480,-0.63885479,-1.59627816

>  <Name>
1ntb_lig

>  <RI>
0

>  <Rbt.Current_Directory>
/home/itssahil/PROJECTS/Mol_Feturizer/New_Systems/rnas/1ntb

>  <Rbt.Executable>
rbdock ($Id: //depot/dev/client3/rdock/2013.1/src/exe/rbdock.cxx#4 $)

>  <Rbt.Library>
libRbt.so (2013.1, Build901 2013/11/27)

>  <Rbt.Parameter_File>
/export/apps/rDock/src/rDock_2013.1_src/data/scripts/dock_solv.prm

>  <Rbt.Receptor>
prm/blind_docking_40.prm

>  <SCORE>
-7.02106

>  <SCORE.INTER>
-2.39166

>  <SCORE.INTER.CONST>
1

>  <SCORE.INTER.POLAR>
0

>  <SCORE.INTER.ROT>
11

>  <SCORE.INTER.SOLV>
21.9302

>  <SCORE.INTER.VDW>
-19.8378

>  <SCORE.INTER.norm>
-0.0597915

>  <SCORE.INTRA>
-4.78157

>  <SCORE.INTRA.DIHEDRAL>
2.33109

>  <SCORE.INTRA.DIHEDRAL.0>
15.4453

>  <SCORE.INTRA.POLAR>
0

>  <SCORE.INTRA.POLAR.0>
0

>  <SCORE.INTRA.REPUL>
-0.823958

>  <SCORE.INTRA.REPUL.0>
0.823958

>  <SCORE.INTRA.SOLV>
0.476972

>  <SCORE.INTRA.SOLV.lig_0>
-99.3069

>  <SCORE.INTRA.VDW>
-2.06581

>  <SCORE.INTRA.VDW.0>
0.946495

>  <SCORE.INTRA.norm>
-0.119539

>  <SCORE.RESTR>
0.152168

>  <SCORE.RESTR.CAVITY>
0.152168

>  <SCORE.RESTR.norm>
0.00380421

>  <SCORE.SYSTEM>
0

>  <SCORE.SYSTEM.CONST>
0

>  <SCORE.SYSTEM.DIHEDRAL>
0

>  <SCORE.SYSTEM.SOLV>
0

>  <SCORE.SYSTEM.norm>
0

>  <SCORE.heavy>
40

>  <SCORE.norm>
-0.175526

>  <RMSD>
18.535

$$$$
1ntb_lig
 OpenBabel11021811403D
libRbt.so/2013.1/901 2013/11/27
 40 42  0  0  0  0  0  0  0  0999 V2000
   18.2165   34.6447   -1.0229 C   0  0  0  0  0  0  0  0  0  0  0  0
   18.9862   35.6579   -0.9165 N   0  0  0  0  0  0  0  0  0  0  0  0
   20.4690   25.3614    1.4652 C   0  0  0  0  0  0  0  0  0  0  0  0
   20.3915   24.0436    0.9478 O   0  0  0  0  0  0  0  0  0  0  0  0
   16.1969   29.1648   -2.0786 C   0  0  0  0  0  0  0  0  0  0  0  0
   15.0106   29.5990   -1.8416 N   0  0  0  0  0  0  0  0  0  0  0  0
   18.2286   27.3861    2.6742 C   0  0  0  0  0  0  0  0  0  0  0  0
   22.3354   23.5953   -1.8087 C   0  0  0  0  0  0  0  0  0  0  0  0
   18.5657   32.7517   -2.3869 C   0  0  2  0  0  0  0  0  0  0  0  0
   18.0615   34.1717   -2.2446 N   0  0  0  0  0  0  0  0  0  0  0  0
   19.0529   27.9853   -0.6899 C   0  0  2  0  0  0  0  0  0  0  0  0
   19.9762   25.6794   -2.6296 C   0  0  1  0  0  0  0  0  0  0  0  0
   19.1692   25.7869   -1.4715 O   0  0  0  0  0  0  0  0  0  0  0  0
   17.5827   31.7588   -1.7765 C   0  0  1  0  0  0  0  0  0  0  0  0
   16.2997   31.9969   -2.5040 O   0  0  0  0  0  0  0  0  0  0  0  0
   19.7168   26.6265   -0.5604 C   0  0  2  0  0  0  0  0  0  0  0  0
   20.2142   24.2172   -2.9194 C   0  0  1  0  0  0  0  0  0  0  0  0
   20.9004   23.6162   -1.8307 N   0  0  0  0  0  0  0  0  0  0  0  0
   18.0624   30.3117   -1.8686 C   0  0  2  0  0  0  0  0  0  0  0  0
   17.1627   29.3254   -1.3070 N   0  0  0  0  0  0  0  0  0  0  0  0
   19.3866   26.2178    0.8507 C   0  0  1  0  0  0  0  0  0  0  0  0
   18.1354   25.5229    0.8783 O   0  0  0  0  0  0  0  0  0  0  0  0
   18.8614   23.5510   -3.1054 C   0  0  2  0  0  0  0  0  0  0  0  0
   19.0262   22.1750   -3.3700 O   0  0  0  0  0  0  0  0  0  0  0  0
   19.3858   30.2136   -1.1552 C   0  0  1  0  0  0  0  0  0  0  0  0
   19.8686   28.8728   -1.4475 O   0  0  0  0  0  0  0  0  0  0  0  0
   19.2616   27.5024    1.5834 C   0  0  1  0  0  0  0  0  0  0  0  0
   18.8617   28.4923    0.6329 O   0  0  0  0  0  0  0  0  0  0  0  0
   18.1825   24.2434   -4.2873 C   0  0  1  0  0  0  0  0  0  0  0  0
   16.9024   23.6777   -4.5220 O   0  0  0  0  0  0  0  0  0  0  0  0
   20.4126   31.1836   -1.7994 C   0  0  2  0  0  0  0  0  0  0  0  0
   21.6545   31.0651   -1.1227 O   0  0  0  0  0  0  0  0  0  0  0  0
   18.0465   25.7343   -3.9767 C   0  0  1  0  0  0  0  0  0  0  0  0
   19.3342   26.3011   -3.7402 O   0  0  0  0  0  0  0  0  0  0  0  0
   19.8978   32.6306   -1.6751 C   0  0  1  0  0  0  0  0  0  0  0  0
   20.8352   33.5391   -2.2653 O   0  0  0  0  0  0  0  0  0  0  0  0
   17.3970   26.4327   -5.1717 C   0  0  0  0  0  0  0  0  0  0  0  0
   16.0298   26.0605   -5.2417 O   0  0  0  0  0  0  0  0  0  0  0  0
   17.6089   34.1302   -0.0120 N   0  0  0  0  0  0  0  0  0  0  0  0
   16.4085   28.4968   -3.1061 N   0  0  0  0  0  0  0  0  0  0  0  0
  1  2  1  0  0  0  0
  1 39  1  0  0  0  0
  3  4  1  0  0  0  0
  5  6  1  0  0  0  0
  5 40  1  0  0  0  0
  9 10  1  1  0  0  0
  9 14  1  0  0  0  0
  9 35  1  0  0  0  0
 10  1  1  0  0  0  0
 11 16  1  0  0  0  0
 11 28  1  0  0  0  0
 11 26  1  6  0  0  0
 12 17  1  0  0  0  0
 12 34  1  0  0  0  0
 12 13  1  1  0  0  0
 14 15  1  6  0  0  0
 14 19  1  0  0  0  0
 16 13  1  6  0  0  0
 16 21  1  0  0  0  0
 17 18  1  1  0  0  0
 17 23  1  0  0  0  0
 18  8  1  0  0  0  0
 19 20  1  1  0  0  0
 19 25  1  0  0  0  0
 20  5  1  0  0  0  0
 21  3  1  1  0  0  0
 21 22  1  0  0  0  0
 21 27  1  0  0  0  0
 23 24  1  6  0  0  0
 23 29  1  0  0  0  0
 25 26  1  6  0  0  0
 25 31  1  0  0  0  0
 27  7  1  1  0  0  0
 27 28  1  0  0  0  0
 29 30  1  1  0  0  0
 29 33  1  0  0  0  0
 31 32  1  1  0  0  0
 31 35  1  0  0  0  0
 33 34  1  0  0  0  0
 33 37  1  6  0  0  0
 35 36  1  6  0  0  0
 37 38  1  0  0  0  0
M  END
>  <CHROM.1>
76.63653842,117.56437749,-162.05112448,128.46774603,98.47850422,-89.93006502
74.77063960,-107.16456921,-76.32330608,-72.32842859,71.29350066,18.75814389
28.18920212,-1.67669234,-1.70820641,0.96868621,-2.93131058

>  <Name>
1ntb_lig

>  <RI>
0

>  <Rbt.Current_Directory>
/home/itssahil/PROJECTS/Mol_Feturizer/New_Systems/rnas/1ntb

>  <Rbt.Executable>
rbdock ($Id: //depot/dev/client3/rdock/2013.1/src/exe/rbdock.cxx#4 $)

>  <Rbt.Library>
libRbt.so (2013.1, Build901 2013/11/27)

>  <Rbt.Parameter_File>
/export/apps/rDock/src/rDock_2013.1_src/data/scripts/dock_solv.prm

>  <Rbt.Receptor>
prm/blind_docking_100.prm

>  <SCORE>
3.19673

>  <SCORE.INTER>
1.22108

>  <SCORE.INTER.CONST>
1

>  <SCORE.INTER.POLAR>
0

>  <SCORE.INTER.ROT>
11

>  <SCORE.INTER.SOLV>
13.6799

>  <SCORE.INTER.VDW>
-14.6793

>  <SCORE.INTER.norm>
0.030527

>  <SCORE.INTRA>
0.868825

>  <SCORE.INTRA.DIHEDRAL>
1.66074

>  <SCORE.INTRA.DIHEDRAL.0>
15.4453

>  <SCORE.INTRA.POLAR>
0

>  <SCORE.INTRA.POLAR.0>
0

>  <SCORE.INTRA.REPUL>
-0.823958

>  <SCORE.INTRA.REPUL.0>
0.823958

>  <SCORE.INTRA.SOLV>
4.6133

>  <SCORE.INTRA.SOLV.lig_0>
-99.3069

>  <SCORE.INTRA.VDW>
1.85159

>  <SCORE.INTRA.VDW.0>
0.946495

>  <SCORE.INTRA.norm>
0.0217206

>  <SCORE.RESTR>
1.10682

>  <SCORE.RESTR.CAVITY>
1.10682

>  <SCORE.RESTR.norm>
0.0276706

>  <SCORE.SYSTEM>
0

>  <SCORE.SYSTEM.CONST>
0

>  <SCORE.SYSTEM.DIHEDRAL>
0

>  <SCORE.SYSTEM.SOLV>
0

>  <SCORE.SYSTEM.norm>
0

>  <SCORE.heavy>
40

>  <SCORE.norm>
0.0799182

>  <RMSD>
18.537

$$$$
1ntb_lig
 OpenBabel11021811403D
libRbt.so/2013.1/901 2013/11/27
 40 42  0  0  0  0  0  0  0  0999 V2000
   18.0847   20.4495    1.1264 C   0  0  0  0  0  0  0  0  0  0  0  0
   16.8706   20.1784    0.8393 N   0  0  0  0  0  0  0  0  0  0  0  0
   20.5201   29.7408    1.2386 C   0  0  0  0  0  0  0  0  0  0  0  0
   20.9980   31.0654    1.0737 O   0  0  0  0  0  0  0  0  0  0  0  0
   17.8371   24.8950   -3.9733 C   0  0  0  0  0  0  0  0  0  0  0  0
   16.7020   25.1446   -3.4243 N   0  0  0  0  0  0  0  0  0  0  0  0
   22.8546   27.7247    0.2061 C   0  0  0  0  0  0  0  0  0  0  0  0
   19.4422   33.6040   -2.7401 C   0  0  0  0  0  0  0  0  0  0  0  0
   18.4075   22.3753   -0.1975 C   0  0  2  0  0  0  0  0  0  0  0  0
   18.8044   20.9550    0.1432 N   0  0  0  0  0  0  0  0  0  0  0  0
   19.7546   27.2850   -1.3916 C   0  0  2  0  0  0  0  0  0  0  0  0
   18.2333   30.4968   -1.1926 C   0  0  1  0  0  0  0  0  0  0  0  0
   19.1325   29.5181   -1.6802 O   0  0  0  0  0  0  0  0  0  0  0  0
   18.8328   22.7363   -1.6165 C   0  0  1  0  0  0  0  0  0  0  0  0
   18.1644   21.7206   -2.4845 O   0  0  0  0  0  0  0  0  0  0  0  0
   19.4485   28.6130   -0.7233 C   0  0  2  0  0  0  0  0  0  0  0  0
   18.1013   31.5899   -2.2253 C   0  0  1  0  0  0  0  0  0  0  0  0
   19.3645   32.2021   -2.4424 N   0  0  0  0  0  0  0  0  0  0  0  0
   18.4805   24.1728   -1.9974 C   0  0  2  0  0  0  0  0  0  0  0  0
   18.8588   24.5672   -3.3386 N   0  0  0  0  0  0  0  0  0  0  0  0
   20.7420   28.9539   -0.0320 C   0  0  1  0  0  0  0  0  0  0  0  0
   21.5931   29.6856   -0.9205 O   0  0  0  0  0  0  0  0  0  0  0  0
   17.6080   30.9572   -3.5156 C   0  0  2  0  0  0  0  0  0  0  0  0
   17.4762   31.9376   -4.5217 O   0  0  0  0  0  0  0  0  0  0  0  0
   19.1601   25.0942   -1.0179 C   0  0  1  0  0  0  0  0  0  0  0  0
   18.6300   26.4150   -1.3189 O   0  0  0  0  0  0  0  0  0  0  0  0
   21.3519   27.6358    0.2728 C   0  0  1  0  0  0  0  0  0  0  0  0
   20.8713   26.7126   -0.7070 O   0  0  0  0  0  0  0  0  0  0  0  0
   16.2516   30.3215   -3.2100 C   0  0  1  0  0  0  0  0  0  0  0  0
   15.7245   29.7004   -4.3720 O   0  0  0  0  0  0  0  0  0  0  0  0
   18.6972   24.7711    0.4283 C   0  0  2  0  0  0  0  0  0  0  0  0
   19.3374   25.6584    1.3322 O   0  0  0  0  0  0  0  0  0  0  0  0
   16.4286   29.2868   -2.0983 C   0  0  1  0  0  0  0  0  0  0  0  0
   16.9593   29.9128   -0.9314 O   0  0  0  0  0  0  0  0  0  0  0  0
   19.0814   23.3201    0.7767 C   0  0  1  0  0  0  0  0  0  0  0  0
   18.6608   23.0060    2.1097 O   0  0  0  0  0  0  0  0  0  0  0  0
   15.0669   28.6739   -1.7700 C   0  0  0  0  0  0  0  0  0  0  0  0
   14.1939   29.6955   -1.3154 O   0  0  0  0  0  0  0  0  0  0  0  0
   18.5862   20.2229    2.2896 N   0  0  0  0  0  0  0  0  0  0  0  0
   17.9353   24.9239   -5.2127 N   0  0  0  0  0  0  0  0  0  0  0  0
  1  2  1  0  0  0  0
  1 39  1  0  0  0  0
  3  4  1  0  0  0  0
  5  6  1  0  0  0  0
  5 40  1  0  0  0  0
  9 10  1  1  0  0  0
  9 14  1  0  0  0  0
  9 35  1  0  0  0  0
 10  1  1  0  0  0  0
 11 16  1  0  0  0  0
 11 28  1  0  0  0  0
 11 26  1  1  0  0  0
 12 17  1  0  0  0  0
 12 34  1  0  0  0  0
 12 13  1  6  0  0  0
 14 15  1  6  0  0  0
 14 19  1  0  0  0  0
 16 13  1  6  0  0  0
 16 21  1  0  0  0  0
 17 18  1  6  0  0  0
 17 23  1  0  0  0  0
 18  8  1  0  0  0  0
 19 20  1  6  0  0  0
 19 25  1  0  0  0  0
 20  5  1  0  0  0  0
 21  3  1  1  0  0  0
 21 22  1  0  0  0  0
 21 27  1  0  0  0  0
 23 24  1  6  0  0  0
 23 29  1  0  0  0  0
 25 26  1  6  0  0  0
 25 31  1  0  0  0  0
 27  7  1  6  0  0  0
 27 28  1  0  0  0  0
 29 30  1  6  0  0  0
 29 33  1  0  0  0  0
 31 32  1  1  0  0  0
 31 35  1  0  0  0  0
 33 34  1  0  0  0  0
 33 37  1  1  0  0  0
 35 36  1  1  0  0  0
 37 38  1  0  0  0  0
M  END
>  <CHROM.1>
-157.94825545,71.29428954,-139.03952552,170.83811934,150.50582117,-145.95289717
119.68344881,15.17339442,-111.52183474,-132.35715054,-61.08262661,18.58119946
26.95857765,-1.21275919,-1.54573075,-0.73088017,-0.22675759

>  <Name>
1ntb_lig

>  <RI>
0

>  <Rbt.Current_Directory>
/home/itssahil/PROJECTS/Mol_Feturizer/New_Systems/rnas/1ntb

>  <Rbt.Executable>
rbdock ($Id: //depot/dev/client3/rdock/2013.1/src/exe/rbdock.cxx#4 $)

>  <Rbt.Library>
libRbt.so (2013.1, Build901 2013/11/27)

>  <Rbt.Parameter_File>
/export/apps/rDock/src/rDock_2013.1_src/data/scripts/dock_solv.prm

>  <Rbt.Receptor>
prm/blind_docking_40.prm

>  <SCORE>
-10.8559

>  <SCORE.INTER>
-10.7908

>  <SCORE.INTER.CONST>
1

>  <SCORE.INTER.POLAR>
0

>  <SCORE.INTER.ROT>
11

>  <SCORE.INTER.SOLV>
19.2323

>  <SCORE.INTER.VDW>
-24.5379

>  <SCORE.INTER.norm>
-0.269769

>  <SCORE.INTRA>
-0.232724

>  <SCORE.INTRA.DIHEDRAL>
8.61656

>  <SCORE.INTRA.DIHEDRAL.0>
15.4453

>  <SCORE.INTRA.POLAR>
0

>  <SCORE.INTRA.POLAR.0>
0

>  <SCORE.INTRA.REPUL>
-0.823958

>  <SCORE.INTRA.REPUL.0>
0.823958

>  <SCORE.INTRA.SOLV>
-1.37016

>  <SCORE.INTRA.SOLV.lig_0>
-99.3069

>  <SCORE.INTRA.VDW>
0.263862

>  <SCORE.INTRA.VDW.0>
0.946495

>  <SCORE.INTRA.norm>
-0.00581809

>  <SCORE.RESTR>
0.167569

>  <SCORE.RESTR.CAVITY>
0.167569

>  <SCORE.RESTR.norm>
0.00418922

>  <SCORE.SYSTEM>
0

>  <SCORE.SYSTEM.CONST>
0

>  <SCORE.SYSTEM.DIHEDRAL>
0

>  <SCORE.SYSTEM.SOLV>
0

>  <SCORE.SYSTEM.norm>
0

>  <SCORE.heavy>
40

>  <SCORE.norm>
-0.271398

>  <RMSD>
18.539

$$$$
1ntb_lig
 OpenBabel11021811403D
libRbt.so/2013.1/901 2013/11/27
 40 42  0  0  0  0  0  0  0  0999 V2000
   17.6996   20.1124    1.8094 C   0  0  0  0  0  0  0  0  0  0  0  0
   17.8988   18.8761    1.5601 N   0  0  0  0  0  0  0  0  0  0  0  0
   20.7897   30.3602    1.0870 C   0  0  0  0  0  0  0  0  0  0  0  0
   19.8684   30.1689    2.1476 O   0  0  0  0  0  0  0  0  0  0  0  0
   17.0962   25.3178   -1.8596 C   0  0  0  0  0  0  0  0  0  0  0  0
   17.1796   26.5407   -2.2467 N   0  0  0  0  0  0  0  0  0  0  0  0
   22.9507   28.0294    0.3960 C   0  0  0  0  0  0  0  0  0  0  0  0
   20.3235   32.4454   -1.7037 C   0  0  0  0  0  0  0  0  0  0  0  0
   18.3808   22.3480    1.4876 C   0  0  2  0  0  0  0  0  0  0  0  0
   18.7545   20.8955    1.6911 N   0  0  0  0  0  0  0  0  0  0  0  0
   19.6106   27.1380   -0.2402 C   0  0  2  0  0  0  0  0  0  0  0  0
   18.1632   30.3489   -0.9402 C   0  0  1  0  0  0  0  0  0  0  0  0
   18.8380   29.1291   -1.1867 O   0  0  0  0  0  0  0  0  0  0  0  0
   18.4132   22.7189    0.0090 C   0  0  1  0  0  0  0  0  0  0  0  0
   17.4558   21.7745   -0.6416 O   0  0  0  0  0  0  0  0  0  0  0  0
   19.3880   28.6280   -0.0548 C   0  0  2  0  0  0  0  0  0  0  0  0
   18.2385   31.2031   -2.1825 C   0  0  1  0  0  0  0  0  0  0  0  0
   19.5957   31.4891   -2.4885 N   0  0  0  0  0  0  0  0  0  0  0  0
   18.0720   24.1857   -0.2454 C   0  0  2  0  0  0  0  0  0  0  0  0
   18.0839   24.5909   -1.6358 N   0  0  0  0  0  0  0  0  0  0  0  0
   20.7794   29.1554    0.1755 C   0  0  1  0  0  0  0  0  0  0  0  0
   21.3922   29.4814   -1.0765 O   0  0  0  0  0  0  0  0  0  0  0  0
   17.6069   30.4248   -3.3243 C   0  0  2  0  0  0  0  0  0  0  0  0
   17.6600   31.1767   -4.5170 O   0  0  0  0  0  0  0  0  0  0  0  0
   19.0648   25.0322    0.5083 C   0  0  1  0  0  0  0  0  0  0  0  0
   18.5677   26.3933    0.3800 O   0  0  0  0  0  0  0  0  0  0  0  0
   21.5005   28.0213    0.8051 C   0  0  1  0  0  0  0  0  0  0  0  0
   20.8707   26.8197    0.3548 O   0  0  0  0  0  0  0  0  0  0  0  0
   16.1551   30.1537   -2.9294 C   0  0  1  0  0  0  0  0  0  0  0  0
   15.4948   29.4203   -3.9491 O   0  0  0  0  0  0  0  0  0  0  0  0
   19.0068   24.7008    2.0239 C   0  0  2  0  0  0  0  0  0  0  0  0
   19.9381   25.5180    2.7161 O   0  0  0  0  0  0  0  0  0  0  0  0
   16.1369   29.3629   -1.6209 C   0  0  1  0  0  0  0  0  0  0  0  0
   16.8018   30.1014   -0.5973 O   0  0  0  0  0  0  0  0  0  0  0  0
   19.3683   23.2184    2.2381 C   0  0  1  0  0  0  0  0  0  0  0  0
   19.3195   22.8963    3.6332 O   0  0  0  0  0  0  0  0  0  0  0  0
   14.6849   29.1195   -1.2087 C   0  0  0  0  0  0  0  0  0  0  0  0
   14.6576   28.5776    0.1020 O   0  0  0  0  0  0  0  0  0  0  0  0
   16.5531   20.5664    2.1772 N   0  0  0  0  0  0  0  0  0  0  0  0
   15.9771   24.8229   -1.6372 N   0  0  0  0  0  0  0  0  0  0  0  0
  1  2  1  0  0  0  0
  1 39  1  0  0  0  0
  3  4  1  0  0  0  0
  5  6  1  0  0  0  0
  5 40  1  0  0  0  0
  9 10  1  6  0  0  0
  9 14  1  0  0  0  0
  9 35  1  0  0  0  0
 10  1  1  0  0  0  0
 11 16  1  0  0  0  0
 11 28  1  0  0  0  0
 11 26  1  1  0  0  0
 12 17  1  0  0  0  0
 12 34  1  0  0  0  0
 12 13  1  6  0  0  0
 14 15  1  6  0  0  0
 14 19  1  0  0  0  0
 16 13  1  6  0  0  0
 16 21  1  0  0  0  0
 17 18  1  6  0  0  0
 17 23  1  0  0  0  0
 18  8  1  0  0  0  0
 19 20  1  6  0  0  0
 19 25  1  0  0  0  0
 20  5  1  0  0  0  0
 21  3  1  1  0  0  0
 21 22  1  0  0  0  0
 21 27  1  0  0  0  0
 23 24  1  6  0  0  0
 23 29  1  0  0  0  0
 25 26  1  1  0  0  0
 25 31  1  0  0  0  0
 27  7  1  6  0  0  0
 27 28  1  0  0  0  0
 29 30  1  6  0  0  0
 29 33  1  0  0  0  0
 31 32  1  1  0  0  0
 31 35  1  0  0  0  0
 33 34  1  0  0  0  0
 33 37  1  1  0  0  0
 35 36  1  1  0  0  0
 37 38  1  0  0  0  0
M  END
>  <CHROM.1>
-97.37540801,158.65224652,-163.04494818,149.49082736,158.41295695,-74.51249667
137.19330133,118.35968790,40.57428781,-121.66532052,-170.80791760,18.46198016
26.83100816,-0.27501021,1.58801419,0.56467866,2.77272202

>  <Name>
1ntb_lig

>  <RI>
0

>  <Rbt.Current_Directory>
/home/itssahil/PROJECTS/Mol_Feturizer/New_Systems/rnas/1ntb

>  <Rbt.Executable>
rbdock ($Id: //depot/dev/client3/rdock/2013.1/src/exe/rbdock.cxx#4 $)

>  <Rbt.Library>
libRbt.so (2013.1, Build901 2013/11/27)

>  <Rbt.Parameter_File>
/export/apps/rDock/src/rDock_2013.1_src/data/scripts/dock_solv.prm

>  <Rbt.Receptor>
prm/blind_docking_40.prm

>  <SCORE>
-17.1265

>  <SCORE.INTER>
-12.2872

>  <SCORE.INTER.CONST>
1

>  <SCORE.INTER.POLAR>
-1.06157

>  <SCORE.INTER.ROT>
11

>  <SCORE.INTER.SOLV>
23.5877

>  <SCORE.INTER.VDW>
-23.4489

>  <SCORE.INTER.norm>
-0.307181

>  <SCORE.INTRA>
-4.88893

>  <SCORE.INTRA.DIHEDRAL>
3.164

>  <SCORE.INTRA.DIHEDRAL.0>
15.4453

>  <SCORE.INTRA.POLAR>
0

>  <SCORE.INTRA.POLAR.0>
0

>  <SCORE.INTRA.REPUL>
-0.702924

>  <SCORE.INTRA.REPUL.0>
0.823958

>  <SCORE.INTRA.SOLV>
2.9535

>  <SCORE.INTRA.SOLV.lig_0>
-99.3069

>  <SCORE.INTRA.VDW>
-4.43306

>  <SCORE.INTRA.VDW.0>
0.946495

>  <SCORE.INTRA.norm>
-0.122223

>  <SCORE.RESTR>
0.049665

>  <SCORE.RESTR.CAVITY>
0.049665

>  <SCORE.RESTR.norm>
0.00124162

>  <SCORE.SYSTEM>
0

>  <SCORE.SYSTEM.CONST>
0

>  <SCORE.SYSTEM.DIHEDRAL>
0

>  <SCORE.SYSTEM.SOLV>
0

>  <SCORE.SYSTEM.norm>
0

>  <SCORE.heavy>
40

>  <SCORE.norm>
-0.428163

>  <RMSD>
18.539

$$$$
1ntb_lig
 OpenBabel11021811403D
libRbt.so/2013.1/901 2013/11/27
 40 42  0  0  0  0  0  0  0  0999 V2000
   17.8609   20.4679   -0.5863 C   0  0  0  0  0  0  0  0  0  0  0  0
   17.6734   19.4139   -1.2822 N   0  0  0  0  0  0  0  0  0  0  0  0
   20.7309   30.1393    1.4460 C   0  0  0  0  0  0  0  0  0  0  0  0
   19.8582   29.4181    2.2996 O   0  0  0  0  0  0  0  0  0  0  0  0
   18.1636   25.6407   -4.3373 C   0  0  0  0  0  0  0  0  0  0  0  0
   17.9779   24.9095   -5.3778 N   0  0  0  0  0  0  0  0  0  0  0  0
   23.0438   28.0612    0.4909 C   0  0  0  0  0  0  0  0  0  0  0  0
   19.7632   34.0478   -2.5910 C   0  0  0  0  0  0  0  0  0  0  0  0
   18.5107   22.6980   -0.9986 C   0  0  2  0  0  0  0  0  0  0  0  0
   18.8708   21.2283   -0.9631 N   0  0  0  0  0  0  0  0  0  0  0  0
   19.9940   27.7163   -1.2224 C   0  0  2  0  0  0  0  0  0  0  0  0
   18.5281   30.9477   -1.0772 C   0  0  1  0  0  0  0  0  0  0  0  0
   19.4468   29.9673   -1.5231 O   0  0  0  0  0  0  0  0  0  0  0  0
   19.0025   23.3503   -2.2860 C   0  0  1  0  0  0  0  0  0  0  0  0
   18.3568   22.5658   -3.3812 O   0  0  0  0  0  0  0  0  0  0  0  0
   19.7012   29.0499   -0.5595 C   0  0  2  0  0  0  0  0  0  0  0  0
   18.4185   32.0229   -2.1310 C   0  0  1  0  0  0  0  0  0  0  0  0
   19.6833   32.6400   -2.3225 N   0  0  0  0  0  0  0  0  0  0  0  0
   18.6890   24.8435   -2.3553 C   0  0  2  0  0  0  0  0  0  0  0  0
   19.1310   25.5125   -3.5615 N   0  0  0  0  0  0  0  0  0  0  0  0
   20.9773   29.3512    0.1807 C   0  0  1  0  0  0  0  0  0  0  0  0
   21.8813   30.0615   -0.6721 O   0  0  0  0  0  0  0  0  0  0  0  0
   17.9657   31.3661   -3.4241 C   0  0  2  0  0  0  0  0  0  0  0  0
   17.8562   32.3290   -4.4495 O   0  0  0  0  0  0  0  0  0  0  0  0
   19.3396   25.5113   -1.1717 C   0  0  1  0  0  0  0  0  0  0  0  0
   18.8433   26.8785   -1.1956 O   0  0  0  0  0  0  0  0  0  0  0  0
   21.5378   28.0150    0.5016 C   0  0  1  0  0  0  0  0  0  0  0  0
   21.0678   27.1096   -0.4997 O   0  0  0  0  0  0  0  0  0  0  0  0
   16.6052   30.7263   -3.1463 C   0  0  1  0  0  0  0  0  0  0  0  0
   16.1150   30.0828   -4.3122 O   0  0  0  0  0  0  0  0  0  0  0  0
   18.8097   24.8909    0.1491 C   0  0  2  0  0  0  0  0  0  0  0  0
   19.4237   25.5429    1.2500 O   0  0  0  0  0  0  0  0  0  0  0  0
   16.7572   29.7110   -2.0132 C   0  0  1  0  0  0  0  0  0  0  0  0
   17.2509   30.3595   -0.8423 O   0  0  0  0  0  0  0  0  0  0  0  0
   19.1562   23.3899    0.1848 C   0  0  1  0  0  0  0  0  0  0  0  0
   18.6736   22.8020    1.3989 O   0  0  0  0  0  0  0  0  0  0  0  0
   15.3908   29.0943   -1.7132 C   0  0  0  0  0  0  0  0  0  0  0  0
   14.4323   30.1310   -1.5753 O   0  0  0  0  0  0  0  0  0  0  0  0
   17.1317   20.7611    0.4325 N   0  0  0  0  0  0  0  0  0  0  0  0
   17.3751   26.5719   -4.0969 N   0  0  0  0  0  0  0  0  0  0  0  0
  1  2  1  0  0  0  0
  1 39  1  0  0  0  0
  3  4  1  0  0  0  0
  5  6  1  0  0  0  0
  5 40  1  0  0  0  0
  9 10  1  6  0  0  0
  9 14  1  0  0  0  0
  9 35  1  0  0  0  0
 10  1  1  0  0  0  0
 11 16  1  0  0  0  0
 11 28  1  0  0  0  0
 11 26  1  1  0  0  0
 12 17  1  0  0  0  0
 12 34  1  0  0  0  0
 12 13  1  6  0  0  0
 14 15  1  6  0  0  0
 14 19  1  0  0  0  0
 16 13  1  6  0  0  0
 16 21  1  0  0  0  0
 17 18  1  6  0  0  0
 17 23  1  0  0  0  0
 18  8  1  0  0  0  0
 19 20  1  6  0  0  0
 19 25  1  0  0  0  0
 20  5  1  0  0  0  0
 21  3  1  1  0  0  0
 21 22  1  0  0  0  0
 21 27  1  0  0  0  0
 23 24  1  6  0  0  0
 23 29  1  0  0  0  0
 25 26  1  1  0  0  0
 25 31  1  0  0  0  0
 27  7  1  6  0  0  0
 27 28  1  0  0  0  0
 29 30  1  6  0  0  0
 29 33  1  0  0  0  0
 31 32  1  1  0  0  0
 31 35  1  0  0  0  0
 33 34  1  0  0  0  0
 33 37  1  1  0  0  0
 35 36  1  1  0  0  0
 37 38  1  0  0  0  0
M  END
>  <CHROM.1>
-133.83959756,134.90163963,-151.04273634,173.24072603,148.79380924,-143.59222499
99.95985410,-103.56743444,58.45425753,-124.34308136,-48.94288143,18.74698360
27.28571222,-1.42189813,1.59743231,0.82279703,3.01581267

>  <Name>
1ntb_lig

>  <RI>
0

>  <Rbt.Current_Directory>
/home/itssahil/PROJECTS/Mol_Feturizer/New_Systems/rnas/1ntb

>  <Rbt.Executable>
rbdock ($Id: //depot/dev/client3/rdock/2013.1/src/exe/rbdock.cxx#4 $)

>  <Rbt.Library>
libRbt.so (2013.1, Build901 2013/11/27)

>  <Rbt.Parameter_File>
/export/apps/rDock/src/rDock_2013.1_src/data/scripts/dock_solv.prm

>  <Rbt.Receptor>
prm/blind_docking_100.prm

>  <SCORE>
-18.3688

>  <SCORE.INTER>
-12.1068

>  <SCORE.INTER.CONST>
1

>  <SCORE.INTER.POLAR>
-0.049628

>  <SCORE.INTER.ROT>
11

>  <SCORE.INTER.SOLV>
20.4046

>  <SCORE.INTER.VDW>
-25.6407

>  <SCORE.INTER.norm>
-0.30267

>  <SCORE.INTRA>
-6.82401

>  <SCORE.INTRA.DIHEDRAL>
3.18603

>  <SCORE.INTRA.DIHEDRAL.0>
15.4453

>  <SCORE.INTRA.POLAR>
0

>  <SCORE.INTRA.POLAR.0>
0

>  <SCORE.INTRA.REPUL>
-0.823958

>  <SCORE.INTRA.REPUL.0>
0.823958

>  <SCORE.INTRA.SOLV>
-0.948227

>  <SCORE.INTRA.SOLV.lig_0>
-99.3069

>  <SCORE.INTRA.VDW>
-3.82312

>  <SCORE.INTRA.VDW.0>
0.946495

>  <SCORE.INTRA.norm>
-0.1706

>  <SCORE.RESTR>
0.562046

>  <SCORE.RESTR.CAVITY>
0.562046

>  <SCORE.RESTR.norm>
0.0140511

>  <SCORE.SYSTEM>
0

>  <SCORE.SYSTEM.CONST>
0

>  <SCORE.SYSTEM.DIHEDRAL>
0

>  <SCORE.SYSTEM.SOLV>
0

>  <SCORE.SYSTEM.norm>
0

>  <SCORE.heavy>
40

>  <SCORE.norm>
-0.459219

>  <RMSD>
18.548

$$$$
1ntb_lig
 OpenBabel11021811403D
libRbt.so/2013.1/901 2013/11/27
 40 42  0  0  0  0  0  0  0  0999 V2000
   17.9090   20.0619    0.1904 C   0  0  0  0  0  0  0  0  0  0  0  0
   17.6324   19.1453   -0.6543 N   0  0  0  0  0  0  0  0  0  0  0  0
   20.7222   29.8386    1.6420 C   0  0  0  0  0  0  0  0  0  0  0  0
   19.9367   29.1353    2.5900 O   0  0  0  0  0  0  0  0  0  0  0  0
   17.7792   25.3345   -3.5755 C   0  0  0  0  0  0  0  0  0  0  0  0
   16.9924   26.2791   -3.2002 N   0  0  0  0  0  0  0  0  0  0  0  0
   22.9338   27.8496    0.3256 C   0  0  0  0  0  0  0  0  0  0  0  0
   20.2573   32.0835   -1.7288 C   0  0  0  0  0  0  0  0  0  0  0  0
   18.4604   22.3150   -0.2397 C   0  0  2  0  0  0  0  0  0  0  0  0
   18.8968   20.8687   -0.1462 N   0  0  0  0  0  0  0  0  0  0  0  0
   19.6651   27.3734   -0.8759 C   0  0  2  0  0  0  0  0  0  0  0  0
   17.8906   30.3444   -0.5841 C   0  0  1  0  0  0  0  0  0  0  0  0
   18.9861   29.5990   -1.0825 O   0  0  0  0  0  0  0  0  0  0  0  0
   18.8604   22.9211   -1.5805 C   0  0  1  0  0  0  0  0  0  0  0  0
   18.2081   22.0485   -2.6027 O   0  0  0  0  0  0  0  0  0  0  0  0
   19.4288   28.6979   -0.1732 C   0  0  2  0  0  0  0  0  0  0  0  0
   17.8573   31.6818   -1.2833 C   0  0  1  0  0  0  0  0  0  0  0  0
   19.0540   32.3970   -1.0118 N   0  0  0  0  0  0  0  0  0  0  0  0
   18.4677   24.3912   -1.7112 C   0  0  2  0  0  0  0  0  0  0  0  0
   18.8208   25.0158   -2.9693 N   0  0  0  0  0  0  0  0  0  0  0  0
   20.7939   29.0540    0.3527 C   0  0  1  0  0  0  0  0  0  0  0  0
   21.5198   29.7953   -0.6335 O   0  0  0  0  0  0  0  0  0  0  0  0
   17.7386   31.4261   -2.7764 C   0  0  2  0  0  0  0  0  0  0  0  0
   17.7132   32.6481   -3.4813 O   0  0  0  0  0  0  0  0  0  0  0  0
   19.1350   25.1523   -0.5951 C   0  0  1  0  0  0  0  0  0  0  0  0
   18.5683   26.4903   -0.6654 O   0  0  0  0  0  0  0  0  0  0  0  0
   21.4522   27.7432    0.5781 C   0  0  1  0  0  0  0  0  0  0  0  0
   20.8646   26.8142   -0.3357 O   0  0  0  0  0  0  0  0  0  0  0  0
   16.4350   30.6578   -2.9946 C   0  0  1  0  0  0  0  0  0  0  0  0
   16.2541   30.3741   -4.3732 O   0  0  0  0  0  0  0  0  0  0  0  0
   18.6967   24.5780    0.7791 C   0  0  2  0  0  0  0  0  0  0  0  0
   19.3245   25.3173    1.8152 O   0  0  0  0  0  0  0  0  0  0  0  0
   16.4876   29.3556   -2.1951 C   0  0  1  0  0  0  0  0  0  0  0  0
   16.6704   29.6427   -0.8096 O   0  0  0  0  0  0  0  0  0  0  0  0
   19.1212   23.0999    0.8752 C   0  0  1  0  0  0  0  0  0  0  0  0
   18.7238   22.5547    2.1389 O   0  0  0  0  0  0  0  0  0  0  0  0
   15.1712   28.6021   -2.3872 C   0  0  0  0  0  0  0  0  0  0  0  0
   15.0155   28.2795   -3.7598 O   0  0  0  0  0  0  0  0  0  0  0  0
   17.2855   20.1800    1.3098 N   0  0  0  0  0  0  0  0  0  0  0  0
   17.4793   24.6486   -4.5686 N   0  0  0  0  0  0  0  0  0  0  0  0
  1  2  1  0  0  0  0
  1 39  1  0  0  0  0
  3  4  1  0  0  0  0
  5  6  1  0  0  0  0
  5 40  1  0  0  0  0
  9 10  1  6  0  0  0
  9 14  1  0  0  0  0
  9 35  1  0  0  0  0
 10  1  1  0  0  0  0
 11 16  1  0  0  0  0
 11 28  1  0  0  0  0
 11 26  1  1  0  0  0
 12 17  1  0  0  0  0
 12 34  1  0  0  0  0
 12 13  1  6  0  0  0
 14 15  1  6  0  0  0
 14 19  1  0  0  0  0
 16 13  1  6  0  0  0
 16 21  1  0  0  0  0
 17 18  1  6  0  0  0
 17 23  1  0  0  0  0
 18  8  1  0  0  0  0
 19 20  1  6  0  0  0
 19 25  1  0  0  0  0
 20  5  1  0  0  0  0
 21  3  1  1  0  0  0
 21 22  1  0  0  0  0
 21 27  1  0  0  0  0
 23 24  1  6  0  0  0
 23 29  1  0  0  0  0
 25 26  1  1  0  0  0
 25 31  1  0  0  0  0
 27  7  1  6  0  0  0
 27 28  1  0  0  0  0
 29 30  1  6  0  0  0
 29 33  1  0  0  0  0
 31 32  1  1  0  0  0
 31 35  1  0  0  0  0
 33 34  1  0  0  0  0
 33 37  1  1  0  0  0
 35 36  1  1  0  0  0
 37 38  1  0  0  0  0
M  END
>  <CHROM.1>
-127.62531055,120.01389650,-145.73657700,153.69949739,135.20499949,79.36018303
115.09234736,69.91004672,53.80733484,-120.67618536,61.77873013,18.58249437
26.89322163,-1.01034148,1.56801003,0.80929408,2.98057442

>  <Name>
1ntb_lig

>  <RI>
0

>  <Rbt.Current_Directory>
/home/itssahil/PROJECTS/Mol_Feturizer/New_Systems/rnas/1ntb

>  <Rbt.Executable>
rbdock ($Id: //depot/dev/client3/rdock/2013.1/src/exe/rbdock.cxx#4 $)

>  <Rbt.Library>
libRbt.so (2013.1, Build901 2013/11/27)

>  <Rbt.Parameter_File>
/export/apps/rDock/src/rDock_2013.1_src/data/scripts/dock_solv.prm

>  <Rbt.Receptor>
prm/blind_docking_100.prm

>  <SCORE>
-12.1425

>  <SCORE.INTER>
-13.232

>  <SCORE.INTER.CONST>
1

>  <SCORE.INTER.POLAR>
-1.3546

>  <SCORE.INTER.ROT>
11

>  <SCORE.INTER.SOLV>
16.1403

>  <SCORE.INTER.VDW>
-20.6194

>  <SCORE.INTER.norm>
-0.3308

>  <SCORE.INTRA>
1.08681

>  <SCORE.INTRA.DIHEDRAL>
8.88715

>  <SCORE.INTRA.DIHEDRAL.0>
15.4453

>  <SCORE.INTRA.POLAR>
0

>  <SCORE.INTRA.POLAR.0>
0

>  <SCORE.INTRA.REPUL>
-0.823958

>  <SCORE.INTRA.REPUL.0>
0.823958

>  <SCORE.INTRA.SOLV>
1.23462

>  <SCORE.INTRA.SOLV.lig_0>
-99.3069

>  <SCORE.INTRA.VDW>
0.145713

>  <SCORE.INTRA.VDW.0>
0.946495

>  <SCORE.INTRA.norm>
0.0271703

>  <SCORE.RESTR>
0.00269098

>  <SCORE.RESTR.CAVITY>
0.00269098

>  <SCORE.RESTR.norm>
6.72744e-05

>  <SCORE.SYSTEM>
0

>  <SCORE.SYSTEM.CONST>
0

>  <SCORE.SYSTEM.DIHEDRAL>
0

>  <SCORE.SYSTEM.SOLV>
0

>  <SCORE.SYSTEM.norm>
0

>  <SCORE.heavy>
40

>  <SCORE.norm>
-0.303562

>  <RMSD>
18.550

$$$$
1ntb_lig
 OpenBabel11021811403D
libRbt.so/2013.1/901 2013/11/27
 40 42  0  0  0  0  0  0  0  0999 V2000
   17.5967   33.9950   -2.5686 C   0  0  0  0  0  0  0  0  0  0  0  0
   17.8973   35.1066   -2.0173 N   0  0  0  0  0  0  0  0  0  0  0  0
   20.0284   25.1610    1.4548 C   0  0  0  0  0  0  0  0  0  0  0  0
   19.8565   24.7686    2.8064 O   0  0  0  0  0  0  0  0  0  0  0  0
   21.8308   31.8170   -0.7481 C   0  0  0  0  0  0  0  0  0  0  0  0
   21.4051   32.4219   -1.7992 N   0  0  0  0  0  0  0  0  0  0  0  0
   19.5452   27.7549    3.3568 C   0  0  0  0  0  0  0  0  0  0  0  0
   15.8409   26.9691   -2.4057 C   0  0  0  0  0  0  0  0  0  0  0  0
   17.6021   31.9505   -1.3914 C   0  0  2  0  0  0  0  0  0  0  0  0
   16.8498   33.1829   -1.8455 N   0  0  0  0  0  0  0  0  0  0  0  0
   19.6383   28.4811   -0.0811 C   0  0  2  0  0  0  0  0  0  0  0  0
   18.3386   25.2955   -1.2140 C   0  0  1  0  0  0  0  0  0  0  0  0
   18.4065   26.6755   -0.9054 O   0  0  0  0  0  0  0  0  0  0  0  0
   18.9698   32.3214   -0.8285 C   0  0  1  0  0  0  0  0  0  0  0  0
   18.6777   33.2699    0.2881 O   0  0  0  0  0  0  0  0  0  0  0  0
   19.5233   26.9722   -0.1986 C   0  0  2  0  0  0  0  0  0  0  0  0
   17.4795   25.1162   -2.4422 C   0  0  1  0  0  0  0  0  0  0  0  0
   16.1653   25.5887   -2.1836 N   0  0  0  0  0  0  0  0  0  0  0  0
   19.7810   31.1061   -0.3839 C   0  0  2  0  0  0  0  0  0  0  0  0
   21.0886   31.4026    0.1638 N   0  0  0  0  0  0  0  0  0  0  0  0
   19.4167   26.5249    1.2352 C   0  0  1  0  0  0  0  0  0  0  0  0
   18.0452   26.5199    1.6451 O   0  0  0  0  0  0  0  0  0  0  0  0
   18.1026   25.9210   -3.5704 C   0  0  2  0  0  0  0  0  0  0  0  0
   17.3304   25.7960   -4.7446 O   0  0  0  0  0  0  0  0  0  0  0  0
   19.9552   30.2011   -1.5758 C   0  0  1  0  0  0  0  0  0  0  0  0
   20.5590   28.9909   -1.0400 O   0  0  0  0  0  0  0  0  0  0  0  0
   20.1626   27.5576    1.9966 C   0  0  1  0  0  0  0  0  0  0  0  0
   20.0892   28.7707    1.2441 O   0  0  0  0  0  0  0  0  0  0  0  0
   19.5074   25.3610   -3.7942 C   0  0  1  0  0  0  0  0  0  0  0  0
   20.1611   26.0693   -4.8357 O   0  0  0  0  0  0  0  0  0  0  0  0
   18.5689   29.7742   -2.1289 C   0  0  2  0  0  0  0  0  0  0  0  0
   18.7556   28.9120   -3.2407 O   0  0  0  0  0  0  0  0  0  0  0  0
   20.3040   25.4876   -2.4953 C   0  0  1  0  0  0  0  0  0  0  0  0
   19.6450   24.7757   -1.4493 O   0  0  0  0  0  0  0  0  0  0  0  0
   17.7889   31.0253   -2.5767 C   0  0  1  0  0  0  0  0  0  0  0  0
   16.5059   30.6480   -3.0904 O   0  0  0  0  0  0  0  0  0  0  0  0
   21.6984   24.8982   -2.7092 C   0  0  0  0  0  0  0  0  0  0  0  0
   22.4174   24.9478   -1.4873 O   0  0  0  0  0  0  0  0  0  0  0  0
   18.0133   33.6716   -3.7424 N   0  0  0  0  0  0  0  0  0  0  0  0
   23.0447   31.5715   -0.6346 N   0  0  0  0  0  0  0  0  0  0  0  0
  1  2  1  0  0  0  0
  1 39  1  0  0  0  0
  3  4  1  0  0  0  0
  5  6  1  0  0  0  0
  5 40  1  0  0  0  0
  9 10  1  6  0  0  0
  9 14  1  0  0  0  0
  9 35  1  0  0  0  0
 10  1  1  0  0  0  0
 11 16  1  0  0  0  0
 11 28  1  0  0  0  0
 11 26  1  6  0  0  0
 12 17  1  0  0  0  0
 12 34  1  0  0  0  0
 12 13  1  6  0  0  0
 14 15  1  1  0  0  0
 14 19  1  0  0  0  0
 16 13  1  6  0  0  0
 16 21  1  0  0  0  0
 17 18  1  1  0  0  0
 17 23  1  0  0  0  0
 18  8  1  0  0  0  0
 19 20  1  6  0  0  0
 19 25  1  0  0  0  0
 20  5  1  0  0  0  0
 21  3  1  1  0  0  0
 21 22  1  0  0  0  0
 21 27  1  0  0  0  0
 23 24  1  6  0  0  0
 23 29  1  0  0  0  0
 25 26  1  1  0  0  0
 25 31  1  0  0  0  0
 27  7  1  1  0  0  0
 27 28  1  0  0  0  0
 29 30  1  6  0  0  0
 29 33  1  0  0  0  0
 31 32  1  6  0  0  0
 31 35  1  0  0  0  0
 33 34  1  0  0  0  0
 33 37  1  6  0  0  0
 35 36  1  1  0  0  0
 37 38  1  0  0  0  0
M  END
>  <CHROM.1>
46.52504589,-110.84235846,138.10798393,-155.55490111,171.68825024,87.92288486
-69.32051101,27.52301341,-177.83198839,60.04547962,-176.89453774,19.16297928
28.61699582,-1.24328930,1.72326591,-1.04584100,0.06461242

>  <Name>
1ntb_lig

>  <RI>
0

>  <Rbt.Current_Directory>
/home/itssahil/PROJECTS/Mol_Feturizer/New_Systems/rnas/1ntb

>  <Rbt.Executable>
rbdock ($Id: //depot/dev/client3/rdock/2013.1/src/exe/rbdock.cxx#4 $)

>  <Rbt.Library>
libRbt.so (2013.1, Build901 2013/11/27)

>  <Rbt.Parameter_File>
/export/apps/rDock/src/rDock_2013.1_src/data/scripts/dock_solv.prm

>  <Rbt.Receptor>
prm/blind_docking_100.prm

>  <SCORE>
2.59844

>  <SCORE.INTER>
-6.40571

>  <SCORE.INTER.CONST>
1

>  <SCORE.INTER.POLAR>
-0.330658

>  <SCORE.INTER.ROT>
11

>  <SCORE.INTER.SOLV>
25.7874

>  <SCORE.INTER.VDW>
-22.6974

>  <SCORE.INTER.norm>
-0.160143

>  <SCORE.INTRA>
8.71474

>  <SCORE.INTRA.DIHEDRAL>
-4.80822

>  <SCORE.INTRA.DIHEDRAL.0>
15.4453

>  <SCORE.INTRA.POLAR>
0

>  <SCORE.INTRA.POLAR.0>
0

>  <SCORE.INTRA.REPUL>
-0.823958

>  <SCORE.INTRA.REPUL.0>
0.823958

>  <SCORE.INTRA.SOLV>
3.82723

>  <SCORE.INTRA.SOLV.lig_0>
-99.3069

>  <SCORE.INTRA.VDW>
13.325

>  <SCORE.INTRA.VDW.0>
0.946495

>  <SCORE.INTRA.norm>
0.217869

>  <SCORE.RESTR>
0.289409

>  <SCORE.RESTR.CAVITY>
0.289409

>  <SCORE.RESTR.norm>
0.00723522

>  <SCORE.SYSTEM>
0

>  <SCORE.SYSTEM.CONST>
0

>  <SCORE.SYSTEM.DIHEDRAL>
0

>  <SCORE.SYSTEM.SOLV>
0

>  <SCORE.SYSTEM.norm>
0

>  <SCORE.heavy>
40

>  <SCORE.norm>
0.064961

>  <RMSD>
18.550

$$$$
1ntb_lig
 OpenBabel11021811403D
libRbt.so/2013.1/901 2013/11/27
 40 42  0  0  0  0  0  0  0  0999 V2000
   18.8989   29.6424    5.7948 C   0  0  0  0  0  0  0  0  0  0  0  0
   18.7777   30.6654    5.0404 N   0  0  0  0  0  0  0  0  0  0  0  0
   18.8476   22.8187   -1.9156 C   0  0  0  0  0  0  0  0  0  0  0  0
   18.3738   23.5052   -3.0621 O   0  0  0  0  0  0  0  0  0  0  0  0
   20.0614   29.4750    0.8530 C   0  0  0  0  0  0  0  0  0  0  0  0
   18.7987   29.2548    0.9480 N   0  0  0  0  0  0  0  0  0  0  0  0
   18.0167   21.7933    1.0574 C   0  0  0  0  0  0  0  0  0  0  0  0
   20.2813   25.6638   -4.5732 C   0  0  0  0  0  0  0  0  0  0  0  0
   20.4158   28.1643    4.7557 C   0  0  2  0  0  0  0  0  0  0  0  0
   20.1137   29.1349    5.8771 N   0  0  0  0  0  0  0  0  0  0  0  0
   18.9607   25.1759    0.9068 C   0  0  2  0  0  0  0  0  0  0  0  0
   18.5016   26.9722   -1.5936 C   0  0  1  0  0  0  0  0  0  0  0  0
   17.8979   25.8004   -1.0775 O   0  0  0  0  0  0  0  0  0  0  0  0
   20.5321   28.8909    3.4203 C   0  0  1  0  0  0  0  0  0  0  0  0
   21.6165   29.8974    3.6275 O   0  0  0  0  0  0  0  0  0  0  0  0
   18.8220   24.9404   -0.5862 C   0  0  2  0  0  0  0  0  0  0  0  0
   18.6730   26.8116   -3.0847 C   0  0  1  0  0  0  0  0  0  0  0  0
   19.5230   25.7063   -3.3553 N   0  0  0  0  0  0  0  0  0  0  0  0
   20.8069   27.9483    2.2505 C   0  0  2  0  0  0  0  0  0  0  0  0
   20.9313   28.5881    0.9571 N   0  0  0  0  0  0  0  0  0  0  0  0
   18.3572   23.5104   -0.6650 C   0  0  1  0  0  0  0  0  0  0  0  0
   16.9281   23.4565   -0.6022 O   0  0  0  0  0  0  0  0  0  0  0  0
   17.3011   26.5654   -3.6895 C   0  0  2  0  0  0  0  0  0  0  0  0
   17.4053   26.3976   -5.0865 O   0  0  0  0  0  0  0  0  0  0  0  0
   19.6816   26.9486    2.1838 C   0  0  1  0  0  0  0  0  0  0  0  0
   20.1031   25.9788    1.1847 O   0  0  0  0  0  0  0  0  0  0  0  0
   18.9355   22.8712    0.5431 C   0  0  1  0  0  0  0  0  0  0  0  0
   19.0899   23.8951    1.5284 O   0  0  0  0  0  0  0  0  0  0  0  0
   16.4438   27.7882   -3.3621 C   0  0  1  0  0  0  0  0  0  0  0  0
   15.1366   27.6307   -3.8914 O   0  0  0  0  0  0  0  0  0  0  0  0
   19.5839   26.1650    3.5204 C   0  0  2  0  0  0  0  0  0  0  0  0
   18.5286   25.2203    3.4312 O   0  0  0  0  0  0  0  0  0  0  0  0
   16.3767   27.9541   -1.8436 C   0  0  1  0  0  0  0  0  0  0  0  0
   17.6917   28.1114   -1.3131 O   0  0  0  0  0  0  0  0  0  0  0  0
   19.2946   27.1486    4.6706 C   0  0  1  0  0  0  0  0  0  0  0  0
   19.2011   26.4404    5.9124 O   0  0  0  0  0  0  0  0  0  0  0  0
   15.5464   29.1955   -1.5165 C   0  0  0  0  0  0  0  0  0  0  0  0
   14.1693   28.8848   -1.6571 O   0  0  0  0  0  0  0  0  0  0  0  0
   17.9002   29.1209    6.4164 N   0  0  0  0  0  0  0  0  0  0  0  0
   20.4629   30.6223    0.5899 N   0  0  0  0  0  0  0  0  0  0  0  0
  1  2  1  0  0  0  0
  1 39  1  0  0  0  0
  3  4  1  0  0  0  0
  5  6  1  0  0  0  0
  5 40  1  0  0  0  0
  9 10  1  1  0  0  0
  9 14  1  0  0  0  0
  9 35  1  0  0  0  0
 10  1  1  0  0  0  0
 11 16  1  0  0  0  0
 11 28  1  0  0  0  0
 11 26  1  6  0  0  0
 12 17  1  0  0  0  0
 12 34  1  0  0  0  0
 12 13  1  6  0  0  0
 14 15  1  1  0  0  0
 14 19  1  0  0  0  0
 16 13  1  1  0  0  0
 16 21  1  0  0  0  0
 17 18  1  1  0  0  0
 17 23  1  0  0  0  0
 18  8  1  0  0  0  0
 19 20  1  6  0  0  0
 19 25  1  0  0  0  0
 20  5  1  0  0  0  0
 21  3  1  6  0  0  0
 21 22  1  0  0  0  0
 21 27  1  0  0  0  0
 23 24  1  6  0  0  0
 23 29  1  0  0  0  0
 25 26  1  6  0  0  0
 25 31  1  0  0  0  0
 27  7  1  1  0  0  0
 27 28  1  0  0  0  0
 29 30  1  1  0  0  0
 29 33  1  0  0  0  0
 31 32  1  6  0  0  0
 31 35  1  0  0  0  0
 33 34  1  0  0  0  0
 33 37  1  6  0  0  0
 35 36  1  1  0  0  0
 37 38  1  0  0  0  0
M  END
>  <CHROM.1>
69.23335035,-85.08859476,136.73094775,96.23066989,94.79142190,-153.95218477
-41.34655258,-58.52255683,-59.45939735,-168.81377105,77.98142935,18.64173571
26.83779654,0.52341464,0.68999397,-1.23107253,0.36398152

>  <Name>
1ntb_lig

>  <RI>
0

>  <Rbt.Current_Directory>
/home/itssahil/PROJECTS/Mol_Feturizer/New_Systems/rnas/1ntb

>  <Rbt.Executable>
rbdock ($Id: //depot/dev/client3/rdock/2013.1/src/exe/rbdock.cxx#4 $)

>  <Rbt.Library>
libRbt.so (2013.1, Build901 2013/11/27)

>  <Rbt.Parameter_File>
/export/apps/rDock/src/rDock_2013.1_src/data/scripts/dock_solv.prm

>  <Rbt.Receptor>
prm/blind_docking_40.prm

>  <SCORE>
-10.2372

>  <SCORE.INTER>
-13.0496

>  <SCORE.INTER.CONST>
1

>  <SCORE.INTER.POLAR>
-1.09554

>  <SCORE.INTER.ROT>
11

>  <SCORE.INTER.SOLV>
11.539

>  <SCORE.INTER.VDW>
-19.8276

>  <SCORE.INTER.norm>
-0.32624

>  <SCORE.INTRA>
2.35382

>  <SCORE.INTRA.DIHEDRAL>
3.67938

>  <SCORE.INTRA.DIHEDRAL.0>
15.4453

>  <SCORE.INTRA.POLAR>
0

>  <SCORE.INTRA.POLAR.0>
0

>  <SCORE.INTRA.REPUL>
-0.823958

>  <SCORE.INTRA.REPUL.0>
0.823958

>  <SCORE.INTRA.SOLV>
6.04033

>  <SCORE.INTRA.SOLV.lig_0>
-99.3069

>  <SCORE.INTRA.VDW>
1.61375

>  <SCORE.INTRA.VDW.0>
0.946495

>  <SCORE.INTRA.norm>
0.0588454

>  <SCORE.RESTR>
0.458579

>  <SCORE.RESTR.CAVITY>
0.458579

>  <SCORE.RESTR.norm>
0.0114645

>  <SCORE.SYSTEM>
0

>  <SCORE.SYSTEM.CONST>
0

>  <SCORE.SYSTEM.DIHEDRAL>
0

>  <SCORE.SYSTEM.SOLV>
0

>  <SCORE.SYSTEM.norm>
0

>  <SCORE.heavy>
40

>  <SCORE.norm>
-0.25593

>  <RMSD>
18.554

$$$$
1ntb_lig
 OpenBabel11021811403D
libRbt.so/2013.1/901 2013/11/27
 40 42  0  0  0  0  0  0  0  0999 V2000
   17.9915   20.6251   -1.1466 C   0  0  0  0  0  0  0  0  0  0  0  0
   17.2370   20.4394   -0.1335 N   0  0  0  0  0  0  0  0  0  0  0  0
   20.8374   29.5827    2.0531 C   0  0  0  0  0  0  0  0  0  0  0  0
   19.9792   28.6667    2.7125 O   0  0  0  0  0  0  0  0  0  0  0  0
   18.1854   25.4357   -4.4798 C   0  0  0  0  0  0  0  0  0  0  0  0
   16.9180   25.4125   -4.2668 N   0  0  0  0  0  0  0  0  0  0  0  0
   23.1153   27.9633    0.3891 C   0  0  0  0  0  0  0  0  0  0  0  0
   17.8365   33.8708    0.5919 C   0  0  0  0  0  0  0  0  0  0  0  0
   18.6119   22.8957   -0.9878 C   0  0  2  0  0  0  0  0  0  0  0  0
   19.0137   21.4368   -0.9556 N   0  0  0  0  0  0  0  0  0  0  0  0
   19.9405   27.9504   -1.1196 C   0  0  2  0  0  0  0  0  0  0  0  0
   17.9352   30.4564   -0.5594 C   0  0  1  0  0  0  0  0  0  0  0  0
   19.3089   30.1676   -0.7426 O   0  0  0  0  0  0  0  0  0  0  0  0
   19.0242   23.5473   -2.3033 C   0  0  1  0  0  0  0  0  0  0  0  0
   18.3494   22.7338   -3.3591 O   0  0  0  0  0  0  0  0  0  0  0  0
   19.6696   29.0351   -0.0930 C   0  0  2  0  0  0  0  0  0  0  0  0
   17.6953   31.9062   -0.9048 C   0  0  1  0  0  0  0  0  0  0  0  0
   18.4535   32.7390   -0.0394 N   0  0  0  0  0  0  0  0  0  0  0  0
   18.6666   25.0305   -2.3718 C   0  0  2  0  0  0  0  0  0  0  0  0
   19.0325   25.6983   -3.6038 N   0  0  0  0  0  0  0  0  0  0  0  0
   20.9957   29.1848    0.6042 C   0  0  1  0  0  0  0  0  0  0  0  0
   21.8039   30.1456   -0.0835 O   0  0  0  0  0  0  0  0  0  0  0  0
   18.1349   32.1233   -2.3429 C   0  0  2  0  0  0  0  0  0  0  0  0
   17.9408   33.4702   -2.7155 O   0  0  0  0  0  0  0  0  0  0  0  0
   19.3537   25.7284   -1.2268 C   0  0  1  0  0  0  0  0  0  0  0  0
   18.8192   27.0814   -1.2400 O   0  0  0  0  0  0  0  0  0  0  0  0
   21.6175   27.8413    0.4992 C   0  0  1  0  0  0  0  0  0  0  0  0
   21.0882   27.2229   -0.6758 O   0  0  0  0  0  0  0  0  0  0  0  0
   17.2815   31.2011   -3.2138 C   0  0  1  0  0  0  0  0  0  0  0  0
   17.6388   31.3421   -4.5799 O   0  0  0  0  0  0  0  0  0  0  0  0
   18.9040   25.1081    0.1235 C   0  0  2  0  0  0  0  0  0  0  0  0
   19.5511   25.7884    1.1878 O   0  0  0  0  0  0  0  0  0  0  0  0
   17.4961   29.7558   -2.7635 C   0  0  1  0  0  0  0  0  0  0  0  0
   17.1373   29.6161   -1.3898 O   0  0  0  0  0  0  0  0  0  0  0  0
   19.2932   23.6176    0.1570 C   0  0  1  0  0  0  0  0  0  0  0  0
   18.8849   23.0299    1.3981 O   0  0  0  0  0  0  0  0  0  0  0  0
   16.6184   28.8361   -3.6127 C   0  0  0  0  0  0  0  0  0  0  0  0
   16.4024   27.6215   -2.9123 O   0  0  0  0  0  0  0  0  0  0  0  0
   17.7606   20.0793   -2.2887 N   0  0  0  0  0  0  0  0  0  0  0  0
   18.6212   25.1307   -5.6040 N   0  0  0  0  0  0  0  0  0  0  0  0
  1  2  1  0  0  0  0
  1 39  1  0  0  0  0
  3  4  1  0  0  0  0
  5  6  1  0  0  0  0
  5 40  1  0  0  0  0
  9 10  1  6  0  0  0
  9 14  1  0  0  0  0
  9 35  1  0  0  0  0
 10  1  1  0  0  0  0
 11 16  1  0  0  0  0
 11 28  1  0  0  0  0
 11 26  1  1  0  0  0
 12 17  1  0  0  0  0
 12 34  1  0  0  0  0
 12 13  1  6  0  0  0
 14 15  1  6  0  0  0
 14 19  1  0  0  0  0
 16 13  1  6  0  0  0
 16 21  1  0  0  0  0
 17 18  1  1  0  0  0
 17 23  1  0  0  0  0
 18  8  1  0  0  0  0
 19 20  1  6  0  0  0
 19 25  1  0  0  0  0
 20  5  1  0  0  0  0
 21  3  1  1  0  0  0
 21 22  1  0  0  0  0
 21 27  1  0  0  0  0
 23 24  1  6  0  0  0
 23 29  1  0  0  0  0
 25 26  1  1  0  0  0
 25 31  1  0  0  0  0
 27  7  1  6  0  0  0
 27 28  1  0  0  0  0
 29 30  1  6  0  0  0
 29 33  1  0  0  0  0
 31 32  1  1  0  0  0
 31 35  1  0  0  0  0
 33 34  1  0  0  0  0
 33 37  1  6  0  0  0
 35 36  1  1  0  0  0
 37 38  1  0  0  0  0
M  END
>  <CHROM.1>
-104.08321876,-78.49909451,-134.14911415,161.87403316,109.13840041,-132.98612504
79.58636160,42.09464941,54.13860061,-133.14204269,-157.73366435,18.83286070
27.28589725,-1.28559722,1.60397064,1.00262881,-3.12462083

>  <Name>
1ntb_lig

>  <RI>
0

>  <Rbt.Current_Directory>
/home/itssahil/PROJECTS/Mol_Feturizer/New_Systems/rnas/1ntb

>  <Rbt.Executable>
rbdock ($Id: //depot/dev/client3/rdock/2013.1/src/exe/rbdock.cxx#4 $)

>  <Rbt.Library>
libRbt.so (2013.1, Build901 2013/11/27)

>  <Rbt.Parameter_File>
/export/apps/rDock/src/rDock_2013.1_src/data/scripts/dock_solv.prm

>  <Rbt.Receptor>
prm/blind_docking_100.prm

>  <SCORE>
-13.7506

>  <SCORE.INTER>
-13.7256

>  <SCORE.INTER.CONST>
1

>  <SCORE.INTER.POLAR>
-0.997061

>  <SCORE.INTER.ROT>
11

>  <SCORE.INTER.SOLV>
19.7782

>  <SCORE.INTER.VDW>
-23.3529

>  <SCORE.INTER.norm>
-0.34314

>  <SCORE.INTRA>
-0.512447

>  <SCORE.INTRA.DIHEDRAL>
10.6065

>  <SCORE.INTRA.DIHEDRAL.0>
15.4453

>  <SCORE.INTRA.POLAR>
0

>  <SCORE.INTRA.POLAR.0>
0

>  <SCORE.INTRA.REPUL>
-0.823958

>  <SCORE.INTRA.REPUL.0>
0.823958

>  <SCORE.INTRA.SOLV>
1.11397

>  <SCORE.INTRA.SOLV.lig_0>
-99.3069

>  <SCORE.INTRA.VDW>
-2.2529

>  <SCORE.INTRA.VDW.0>
0.946495

>  <SCORE.INTRA.norm>
-0.0128112

>  <SCORE.RESTR>
0.487477

>  <SCORE.RESTR.CAVITY>
0.487477

>  <SCORE.RESTR.norm>
0.0121869

>  <SCORE.SYSTEM>
0

>  <SCORE.SYSTEM.CONST>
0

>  <SCORE.SYSTEM.DIHEDRAL>
0

>  <SCORE.SYSTEM.SOLV>
0

>  <SCORE.SYSTEM.norm>
0

>  <SCORE.heavy>
40

>  <SCORE.norm>
-0.343764

>  <RMSD>
18.563

$$$$
1ntb_lig
 OpenBabel11021811403D
libRbt.so/2013.1/901 2013/11/27
 40 42  0  0  0  0  0  0  0  0999 V2000
   17.8211   20.3181    0.0157 C   0  0  0  0  0  0  0  0  0  0  0  0
   17.6099   19.2597   -0.6665 N   0  0  0  0  0  0  0  0  0  0  0  0
   20.6409   30.0963    1.3888 C   0  0  0  0  0  0  0  0  0  0  0  0
   20.2840   31.4134    1.0037 O   0  0  0  0  0  0  0  0  0  0  0  0
   18.0342   25.4283   -3.9859 C   0  0  0  0  0  0  0  0  0  0  0  0
   17.0453   26.1334   -3.5652 N   0  0  0  0  0  0  0  0  0  0  0  0
   22.9547   27.9959    0.4861 C   0  0  0  0  0  0  0  0  0  0  0  0
   20.0647   33.7791   -2.6036 C   0  0  0  0  0  0  0  0  0  0  0  0
   18.4503   22.5249   -0.5320 C   0  0  2  0  0  0  0  0  0  0  0  0
   18.8291   21.0664   -0.3894 N   0  0  0  0  0  0  0  0  0  0  0  0
   19.8695   27.5309   -1.1328 C   0  0  2  0  0  0  0  0  0  0  0  0
   18.4822   30.8291   -1.0828 C   0  0  1  0  0  0  0  0  0  0  0  0
   19.2889   29.7575   -1.5356 O   0  0  0  0  0  0  0  0  0  0  0  0
   18.9335   23.0873   -1.8643 C   0  0  1  0  0  0  0  0  0  0  0  0
   18.2977   22.2166   -2.8984 O   0  0  0  0  0  0  0  0  0  0  0  0
   19.5769   28.8939   -0.5325 C   0  0  2  0  0  0  0  0  0  0  0  0
   18.5019   31.9226   -2.1232 C   0  0  1  0  0  0  0  0  0  0  0  0
   19.8293   32.3965   -2.2985 N   0  0  0  0  0  0  0  0  0  0  0  0
   18.6010   24.5673   -2.0424 C   0  0  2  0  0  0  0  0  0  0  0  0
   19.0342   25.1517   -3.2948 N   0  0  0  0  0  0  0  0  0  0  0  0
   20.8665   29.2464    0.1601 C   0  0  1  0  0  0  0  0  0  0  0  0
   21.7416   29.9211   -0.7499 O   0  0  0  0  0  0  0  0  0  0  0  0
   17.9887   31.3365   -3.4277 C   0  0  2  0  0  0  0  0  0  0  0  0
   17.9957   32.3181   -4.4411 O   0  0  0  0  0  0  0  0  0  0  0  0
   19.2433   25.3282   -0.9116 C   0  0  1  0  0  0  0  0  0  0  0  0
   18.7296   26.6836   -1.0349 O   0  0  0  0  0  0  0  0  0  0  0  0
   21.4500   27.9346    0.5356 C   0  0  1  0  0  0  0  0  0  0  0  0
   20.9672   26.9737   -0.4061 O   0  0  0  0  0  0  0  0  0  0  0  0
   16.5630   30.8497   -3.1670 C   0  0  1  0  0  0  0  0  0  0  0  0
   16.0131   30.2796   -4.3444 O   0  0  0  0  0  0  0  0  0  0  0  0
   18.7216   24.7995    0.4516 C   0  0  2  0  0  0  0  0  0  0  0  0
   19.3274   25.5381    1.5012 O   0  0  0  0  0  0  0  0  0  0  0  0
   16.5916   29.8100   -2.0464 C   0  0  1  0  0  0  0  0  0  0  0  0
   17.1455   30.3847   -0.8639 O   0  0  0  0  0  0  0  0  0  0  0  0
   19.0872   23.3097    0.5968 C   0  0  1  0  0  0  0  0  0  0  0  0
   18.6124   22.8062    1.8512 O   0  0  0  0  0  0  0  0  0  0  0  0
   15.1624   29.3466   -1.7632 C   0  0  0  0  0  0  0  0  0  0  0  0
   15.1367   28.6414   -0.5326 O   0  0  0  0  0  0  0  0  0  0  0  0
   17.1162   20.6267    1.0470 N   0  0  0  0  0  0  0  0  0  0  0  0
   17.9919   24.9373   -5.1277 N   0  0  0  0  0  0  0  0  0  0  0  0
  1  2  1  0  0  0  0
  1 39  1  0  0  0  0
  3  4  1  0  0  0  0
  5  6  1  0  0  0  0
  5 40  1  0  0  0  0
  9 10  1  1  0  0  0
  9 14  1  0  0  0  0
  9 35  1  0  0  0  0
 10  1  1  0  0  0  0
 11 16  1  0  0  0  0
 11 28  1  0  0  0  0
 11 26  1  1  0  0  0
 12 17  1  0  0  0  0
 12 34  1  0  0  0  0
 12 13  1  6  0  0  0
 14 15  1  6  0  0  0
 14 19  1  0  0  0  0
 16 13  1  6  0  0  0
 16 21  1  0  0  0  0
 17 18  1  6  0  0  0
 17 23  1  0  0  0  0
 18  8  1  0  0  0  0
 19 20  1  6  0  0  0
 19 25  1  0  0  0  0
 20  5  1  0  0  0  0
 21  3  1  1  0  0  0
 21 22  1  0  0  0  0
 21 27  1  0  0  0  0
 23 24  1  6  0  0  0
 23 29  1  0  0  0  0
 25 26  1  6  0  0  0
 25 31  1  0  0  0  0
 27  7  1  6  0  0  0
 27 28  1  0  0  0  0
 29 30  1  6  0  0  0
 29 33  1  0  0  0  0
 31 32  1  1  0  0  0
 31 35  1  0  0  0  0
 33 34  1  0  0  0  0
 33 37  1  1  0  0  0
 35 36  1  1  0  0  0
 37 38  1  0  0  0  0
M  END
>  <CHROM.1>
-132.47227924,130.52137503,-149.34843373,165.17675623,154.98249193,-146.20926000
111.56083890,52.69930762,-73.23593573,-123.98987246,-166.02111179,18.71652532
27.19188592,-1.25112522,1.63310836,0.78942859,2.94497548

>  <Name>
1ntb_lig

>  <RI>
0

>  <Rbt.Current_Directory>
/home/itssahil/PROJECTS/Mol_Feturizer/New_Systems/rnas/1ntb

>  <Rbt.Executable>
rbdock ($Id: //depot/dev/client3/rdock/2013.1/src/exe/rbdock.cxx#4 $)

>  <Rbt.Library>
libRbt.so (2013.1, Build901 2013/11/27)

>  <Rbt.Parameter_File>
/export/apps/rDock/src/rDock_2013.1_src/data/scripts/dock_solv.prm

>  <Rbt.Receptor>
prm/blind_docking_60.prm

>  <SCORE>
-17.4753

>  <SCORE.INTER>
-11.1367

>  <SCORE.INTER.CONST>
1

>  <SCORE.INTER.POLAR>
-0.0311742

>  <SCORE.INTER.ROT>
11

>  <SCORE.INTER.SOLV>
19.2665

>  <SCORE.INTER.VDW>
-24.6761

>  <SCORE.INTER.norm>
-0.278418

>  <SCORE.INTRA>
-6.50257

>  <SCORE.INTRA.DIHEDRAL>
4.33347

>  <SCORE.INTRA.DIHEDRAL.0>
15.4453

>  <SCORE.INTRA.POLAR>
0

>  <SCORE.INTRA.POLAR.0>
0

>  <SCORE.INTRA.REPUL>
-0.823958

>  <SCORE.INTRA.REPUL.0>
0.823958

>  <SCORE.INTRA.SOLV>
-1.29724

>  <SCORE.INTRA.SOLV.lig_0>
-99.3069

>  <SCORE.INTRA.VDW>
-3.9009

>  <SCORE.INTRA.VDW.0>
0.946495

>  <SCORE.INTRA.norm>
-0.162564

>  <SCORE.RESTR>
0.163967

>  <SCORE.RESTR.CAVITY>
0.163967

>  <SCORE.RESTR.norm>
0.00409918

>  <SCORE.SYSTEM>
0

>  <SCORE.SYSTEM.CONST>
0

>  <SCORE.SYSTEM.DIHEDRAL>
0

>  <SCORE.SYSTEM.SOLV>
0

>  <SCORE.SYSTEM.norm>
0

>  <SCORE.heavy>
40

>  <SCORE.norm>
-0.436883

>  <RMSD>
18.571

$$$$
1ntb_lig
 OpenBabel11021811403D
libRbt.so/2013.1/901 2013/11/27
 40 42  0  0  0  0  0  0  0  0999 V2000
   19.9821   27.2375    7.3508 C   0  0  0  0  0  0  0  0  0  0  0  0
   20.2689   28.3220    7.9605 N   0  0  0  0  0  0  0  0  0  0  0  0
   18.5927   31.0533   -2.7024 C   0  0  0  0  0  0  0  0  0  0  0  0
   18.0986   30.3933   -3.8560 O   0  0  0  0  0  0  0  0  0  0  0  0
   19.5269   25.0437    1.1959 C   0  0  0  0  0  0  0  0  0  0  0  0
   19.9900   23.8983    1.5504 N   0  0  0  0  0  0  0  0  0  0  0  0
   21.5124   31.4202   -1.3165 C   0  0  0  0  0  0  0  0  0  0  0  0
   14.7484   29.1286   -1.2487 C   0  0  0  0  0  0  0  0  0  0  0  0
   19.8494   27.2856    4.9958 C   0  0  2  0  0  0  0  0  0  0  0  0
   20.6610   27.0090    6.2431 N   0  0  0  0  0  0  0  0  0  0  0  0
   19.6163   28.7641   -0.0105 C   0  0  2  0  0  0  0  0  0  0  0  0
   17.7261   27.0079   -1.5272 C   0  0  1  0  0  0  0  0  0  0  0  0
   18.7270   27.8963   -1.9887 O   0  0  0  0  0  0  0  0  0  0  0  0
   20.4186   26.5365    3.7960 C   0  0  1  0  0  0  0  0  0  0  0  0
   20.3953   25.0981    4.1990 O   0  0  0  0  0  0  0  0  0  0  0  0
   18.7704   29.0264   -1.2432 C   0  0  2  0  0  0  0  0  0  0  0  0
   16.3900   27.4653   -2.0603 C   0  0  1  0  0  0  0  0  0  0  0  0
   16.0988   28.7682   -1.5756 N   0  0  0  0  0  0  0  0  0  0  0  0
   19.6501   26.8079    2.5043 C   0  0  2  0  0  0  0  0  0  0  0  0
   20.1469   26.1165    1.3326 N   0  0  0  0  0  0  0  0  0  0  0  0
   19.5171   30.1320   -1.9412 C   0  0  1  0  0  0  0  0  0  0  0  0
   20.4963   29.5779   -2.8262 O   0  0  0  0  0  0  0  0  0  0  0  0
   16.4745   27.4879   -3.5772 C   0  0  2  0  0  0  0  0  0  0  0  0
   15.2499   27.9199   -4.1288 O   0  0  0  0  0  0  0  0  0  0  0  0
   19.6936   28.2905    2.2395 C   0  0  1  0  0  0  0  0  0  0  0  0
   18.7905   28.4956    1.1176 O   0  0  0  0  0  0  0  0  0  0  0  0
   20.1936   30.8661   -0.8430 C   0  0  1  0  0  0  0  0  0  0  0  0
   20.4067   29.9330    0.2187 O   0  0  0  0  0  0  0  0  0  0  0  0
   16.7878   26.0608   -4.0273 C   0  0  1  0  0  0  0  0  0  0  0  0
   16.8893   26.0003   -5.4414 O   0  0  0  0  0  0  0  0  0  0  0  0
   19.0702   29.0643    3.4324 C   0  0  2  0  0  0  0  0  0  0  0  0
   19.1081   30.4559    3.1566 O   0  0  0  0  0  0  0  0  0  0  0  0
   18.1047   25.6178   -3.3889 C   0  0  1  0  0  0  0  0  0  0  0  0
   18.0010   25.6801   -1.9674 O   0  0  0  0  0  0  0  0  0  0  0  0
   19.8801   28.7734    4.7106 C   0  0  1  0  0  0  0  0  0  0  0  0
   19.3172   29.4810    5.8218 O   0  0  0  0  0  0  0  0  0  0  0  0
   18.4021   24.1793   -3.8129 C   0  0  0  0  0  0  0  0  0  0  0  0
   19.5221   23.7015   -3.0850 O   0  0  0  0  0  0  0  0  0  0  0  0
   19.0733   26.4291    7.7707 N   0  0  0  0  0  0  0  0  0  0  0  0
   18.4196   25.1069    0.6331 N   0  0  0  0  0  0  0  0  0  0  0  0
  1  2  1  0  0  0  0
  1 39  1  0  0  0  0
  3  4  1  0  0  0  0
  5  6  1  0  0  0  0
  5 40  1  0  0  0  0
  9 10  1  1  0  0  0
  9 14  1  0  0  0  0
  9 35  1  0  0  0  0
 10  1  1  0  0  0  0
 11 16  1  0  0  0  0
 11 28  1  0  0  0  0
 11 26  1  1  0  0  0
 12 17  1  0  0  0  0
 12 34  1  0  0  0  0
 12 13  1  6  0  0  0
 14 15  1  1  0  0  0
 14 19  1  0  0  0  0
 16 13  1  6  0  0  0
 16 21  1  0  0  0  0
 17 18  1  1  0  0  0
 17 23  1  0  0  0  0
 18  8  1  0  0  0  0
 19 20  1  6  0  0  0
 19 25  1  0  0  0  0
 20  5  1  0  0  0  0
 21  3  1  6  0  0  0
 21 22  1  0  0  0  0
 21 27  1  0  0  0  0
 23 24  1  6  0  0  0
 23 29  1  0  0  0  0
 25 26  1  6  0  0  0
 25 31  1  0  0  0  0
 27  7  1  6  0  0  0
 27 28  1  0  0  0  0
 29 30  1  6  0  0  0
 29 33  1  0  0  0  0
 31 32  1  6  0  0  0
 31 35  1  0  0  0  0
 33 34  1  0  0  0  0
 33 37  1  1  0  0  0
 35 36  1  1  0  0  0
 37 38  1  0  0  0  0
M  END
>  <CHROM.1>
-158.20720213,-103.37213543,-178.74846224,80.35109352,83.69304511,-143.98009888
93.33463225,-100.47043472,-72.23955095,-106.93218509,-172.21643126,18.85388877
27.70029994,0.38277165,0.31417000,1.30036232,2.80995095

>  <Name>
1ntb_lig

>  <RI>
0

>  <Rbt.Current_Directory>
/home/itssahil/PROJECTS/Mol_Feturizer/New_Systems/rnas/1ntb

>  <Rbt.Executable>
rbdock ($Id: //depot/dev/client3/rdock/2013.1/src/exe/rbdock.cxx#4 $)

>  <Rbt.Library>
libRbt.so (2013.1, Build901 2013/11/27)

>  <Rbt.Parameter_File>
/export/apps/rDock/src/rDock_2013.1_src/data/scripts/dock_solv.prm

>  <Rbt.Receptor>
prm/blind_docking_40.prm

>  <SCORE>
-21.5819

>  <SCORE.INTER>
-15.1501

>  <SCORE.INTER.CONST>
1

>  <SCORE.INTER.POLAR>
-2.60279

>  <SCORE.INTER.ROT>
11

>  <SCORE.INTER.SOLV>
13.867

>  <SCORE.INTER.VDW>
-16.9798

>  <SCORE.INTER.norm>
-0.378753

>  <SCORE.INTRA>
-8.24793

>  <SCORE.INTRA.DIHEDRAL>
-1.36705

>  <SCORE.INTRA.DIHEDRAL.0>
15.4453

>  <SCORE.INTRA.POLAR>
0

>  <SCORE.INTRA.POLAR.0>
0

>  <SCORE.INTRA.REPUL>
-0.647357

>  <SCORE.INTRA.REPUL.0>
0.823958

>  <SCORE.INTRA.SOLV>
2.57294

>  <SCORE.INTRA.SOLV.lig_0>
-99.3069

>  <SCORE.INTRA.VDW>
-5.61409

>  <SCORE.INTRA.VDW.0>
0.946495

>  <SCORE.INTRA.norm>
-0.206198

>  <SCORE.RESTR>
1.81612

>  <SCORE.RESTR.CAVITY>
1.81612

>  <SCORE.RESTR.norm>
0.0454031

>  <SCORE.SYSTEM>
0

>  <SCORE.SYSTEM.CONST>
0

>  <SCORE.SYSTEM.DIHEDRAL>
0

>  <SCORE.SYSTEM.SOLV>
0

>  <SCORE.SYSTEM.norm>
0

>  <SCORE.heavy>
40

>  <SCORE.norm>
-0.539549

>  <RMSD>
18.587

$$$$
1ntb_lig
 OpenBabel11021811403D
libRbt.so/2013.1/901 2013/11/27
 40 42  0  0  0  0  0  0  0  0999 V2000
   17.8705   20.1989    0.2041 C   0  0  0  0  0  0  0  0  0  0  0  0
   17.5884   19.1977   -0.5363 N   0  0  0  0  0  0  0  0  0  0  0  0
   20.5713   30.0762    1.3071 C   0  0  0  0  0  0  0  0  0  0  0  0
   19.6852   29.4440    2.2157 O   0  0  0  0  0  0  0  0  0  0  0  0
   17.9646   25.1256   -3.9305 C   0  0  0  0  0  0  0  0  0  0  0  0
   17.3915   24.1594   -4.5550 N   0  0  0  0  0  0  0  0  0  0  0  0
   22.9018   27.9812    0.4354 C   0  0  0  0  0  0  0  0  0  0  0  0
   20.0793   33.6283   -2.4363 C   0  0  0  0  0  0  0  0  0  0  0  0
   18.4631   22.4061   -0.3815 C   0  0  2  0  0  0  0  0  0  0  0  0
   18.8655   20.9565   -0.2155 N   0  0  0  0  0  0  0  0  0  0  0  0
   19.7982   27.4177   -1.1156 C   0  0  2  0  0  0  0  0  0  0  0  0
   18.4070   30.7241   -1.1414 C   0  0  1  0  0  0  0  0  0  0  0  0
   19.1774   29.6210   -1.5816 O   0  0  0  0  0  0  0  0  0  0  0  0
   18.9187   22.9488   -1.7317 C   0  0  1  0  0  0  0  0  0  0  0  0
   18.2811   22.0482   -2.7389 O   0  0  0  0  0  0  0  0  0  0  0  0
   19.4946   28.7954   -0.5556 C   0  0  2  0  0  0  0  0  0  0  0  0
   18.4375   31.7919   -2.2079 C   0  0  1  0  0  0  0  0  0  0  0  0
   19.7737   32.2259   -2.4165 N   0  0  0  0  0  0  0  0  0  0  0  0
   18.5616   24.4198   -1.9342 C   0  0  2  0  0  0  0  0  0  0  0  0
   18.9680   24.9853   -3.2042 N   0  0  0  0  0  0  0  0  0  0  0  0
   20.7898   29.1895    0.1034 C   0  0  1  0  0  0  0  0  0  0  0  0
   21.6398   29.8464   -0.8427 O   0  0  0  0  0  0  0  0  0  0  0  0
   17.8868   31.1891   -3.4893 C   0  0  2  0  0  0  0  0  0  0  0  0
   17.9021   32.1460   -4.5259 O   0  0  0  0  0  0  0  0  0  0  0  0
   19.2086   25.2126   -0.8283 C   0  0  1  0  0  0  0  0  0  0  0  0
   18.6730   26.5575   -0.9709 O   0  0  0  0  0  0  0  0  0  0  0  0
   21.3992   27.8995    0.5120 C   0  0  1  0  0  0  0  0  0  0  0  0
   20.9158   26.9010   -0.3894 O   0  0  0  0  0  0  0  0  0  0  0  0
   16.4535   30.7468   -3.1935 C   0  0  1  0  0  0  0  0  0  0  0  0
   15.8687   30.1638   -4.3475 O   0  0  0  0  0  0  0  0  0  0  0  0
   18.7144   24.7037    0.5527 C   0  0  2  0  0  0  0  0  0  0  0  0
   19.3241   25.4721    1.5784 O   0  0  0  0  0  0  0  0  0  0  0  0
   16.4740   29.7333   -2.0488 C   0  0  1  0  0  0  0  0  0  0  0  0
   17.0630   30.3208   -0.8898 O   0  0  0  0  0  0  0  0  0  0  0  0
   19.1042   23.2227    0.7221 C   0  0  1  0  0  0  0  0  0  0  0  0
   18.6550   22.7376    1.9930 O   0  0  0  0  0  0  0  0  0  0  0  0
   15.0382   29.3150   -1.7310 C   0  0  0  0  0  0  0  0  0  0  0  0
   15.0161   28.6343   -0.4865 O   0  0  0  0  0  0  0  0  0  0  0  0
   17.2455   20.4435    1.3019 N   0  0  0  0  0  0  0  0  0  0  0  0
   17.5452   26.2862   -4.0848 N   0  0  0  0  0  0  0  0  0  0  0  0
  1  2  1  0  0  0  0
  1 39  1  0  0  0  0
  3  4  1  0  0  0  0
  5  6  1  0  0  0  0
  5 40  1  0  0  0  0
  9 10  1  1  0  0  0
  9 14  1  0  0  0  0
  9 35  1  0  0  0  0
 10  1  1  0  0  0  0
 11 16  1  0  0  0  0
 11 28  1  0  0  0  0
 11 26  1  1  0  0  0
 12 17  1  0  0  0  0
 12 34  1  0  0  0  0
 12 13  1  6  0  0  0
 14 15  1  6  0  0  0
 14 19  1  0  0  0  0
 16 13  1  6  0  0  0
 16 21  1  0  0  0  0
 17 18  1  6  0  0  0
 17 23  1  0  0  0  0
 18  8  1  0  0  0  0
 19 20  1  6  0  0  0
 19 25  1  0  0  0  0
 20  5  1  0  0  0  0
 21  3  1  1  0  0  0
 21 22  1  0  0  0  0
 21 27  1  0  0  0  0
 23 24  1  6  0  0  0
 23 29  1  0  0  0  0
 25 26  1  6  0  0  0
 25 31  1  0  0  0  0
 27  7  1  6  0  0  0
 27 28  1  0  0  0  0
 29 30  1  6  0  0  0
 29 33  1  0  0  0  0
 31 32  1  1  0  0  0
 31 35  1  0  0  0  0
 33 34  1  0  0  0  0
 33 37  1  1  0  0  0
 35 36  1  1  0  0  0
 37 38  1  0  0  0  0
M  END
>  <CHROM.1>
-131.73190496,123.74936403,-150.03066559,163.28587219,157.34796407,-131.10943194
105.86320391,-77.02867803,54.80460542,-123.42518677,-166.30083717,18.65211193
27.02267565,-1.17922084,1.60235801,0.81888299,2.93743234

>  <Name>
1ntb_lig

>  <RI>
0

>  <Rbt.Current_Directory>
/home/itssahil/PROJECTS/Mol_Feturizer/New_Systems/rnas/1ntb

>  <Rbt.Executable>
rbdock ($Id: //depot/dev/client3/rdock/2013.1/src/exe/rbdock.cxx#4 $)

>  <Rbt.Library>
libRbt.so (2013.1, Build901 2013/11/27)

>  <Rbt.Parameter_File>
/export/apps/rDock/src/rDock_2013.1_src/data/scripts/dock_solv.prm

>  <Rbt.Receptor>
prm/blind_docking_60.prm

>  <SCORE>
-17.4167

>  <SCORE.INTER>
-9.73478

>  <SCORE.INTER.CONST>
1

>  <SCORE.INTER.POLAR>
0

>  <SCORE.INTER.ROT>
11

>  <SCORE.INTER.SOLV>
19.6798

>  <SCORE.INTER.VDW>
-23.9831

>  <SCORE.INTER.norm>
-0.243369

>  <SCORE.INTRA>
-7.69942

>  <SCORE.INTRA.DIHEDRAL>
3.89798

>  <SCORE.INTRA.DIHEDRAL.0>
15.4453

>  <SCORE.INTRA.POLAR>
0

>  <SCORE.INTRA.POLAR.0>
0

>  <SCORE.INTRA.REPUL>
-0.823958

>  <SCORE.INTRA.REPUL.0>
0.823958

>  <SCORE.INTRA.SOLV>
-1.95018

>  <SCORE.INTRA.SOLV.lig_0>
-99.3069

>  <SCORE.INTRA.VDW>
-4.55353

>  <SCORE.INTRA.VDW.0>
0.946495

>  <SCORE.INTRA.norm>
-0.192485

>  <SCORE.RESTR>
0.0175177

>  <SCORE.RESTR.CAVITY>
0.0175177

>  <SCORE.RESTR.norm>
0.000437943

>  <SCORE.SYSTEM>
0

>  <SCORE.SYSTEM.CONST>
0

>  <SCORE.SYSTEM.DIHEDRAL>
0

>  <SCORE.SYSTEM.SOLV>
0

>  <SCORE.SYSTEM.norm>
0

>  <SCORE.heavy>
40

>  <SCORE.norm>
-0.435417

>  <RMSD>
18.588

$$$$
1ntb_lig
 OpenBabel11021811403D
libRbt.so/2013.1/901 2013/11/27
 40 42  0  0  0  0  0  0  0  0999 V2000
   18.0513   20.7540   -1.5347 C   0  0  0  0  0  0  0  0  0  0  0  0
   17.8145   19.6711   -2.1682 N   0  0  0  0  0  0  0  0  0  0  0  0
   20.8363   29.7867    1.8114 C   0  0  0  0  0  0  0  0  0  0  0  0
   20.1858   31.0464    1.8028 O   0  0  0  0  0  0  0  0  0  0  0  0
   19.1825   25.6386   -4.8833 C   0  0  0  0  0  0  0  0  0  0  0  0
   18.6161   25.1034   -5.9054 N   0  0  0  0  0  0  0  0  0  0  0  0
   23.0919   27.9646    0.3376 C   0  0  0  0  0  0  0  0  0  0  0  0
   20.4171   32.7600   -1.9580 C   0  0  0  0  0  0  0  0  0  0  0  0
   18.5164   23.0454   -1.8496 C   0  0  2  0  0  0  0  0  0  0  0  0
   18.8650   21.6005   -2.1359 N   0  0  0  0  0  0  0  0  0  0  0  0
   19.9854   28.0279   -1.3058 C   0  0  2  0  0  0  0  0  0  0  0  0
   18.2992   30.9515   -0.5973 C   0  0  1  0  0  0  0  0  0  0  0  0
   19.4566   30.2916   -1.0758 O   0  0  0  0  0  0  0  0  0  0  0  0
   18.7122   23.9109   -3.0895 C   0  0  1  0  0  0  0  0  0  0  0  0
   17.8322   23.2941   -4.1273 O   0  0  0  0  0  0  0  0  0  0  0  0
   19.7302   29.1802   -0.3514 C   0  0  2  0  0  0  0  0  0  0  0  0
   18.0686   32.1890   -1.4304 C   0  0  1  0  0  0  0  0  0  0  0  0
   19.1771   33.0680   -1.3039 N   0  0  0  0  0  0  0  0  0  0  0  0
   18.4016   25.3857   -2.8422 C   0  0  2  0  0  0  0  0  0  0  0  0
   18.5670   26.2531   -3.9902 N   0  0  0  0  0  0  0  0  0  0  0  0
   21.0327   29.3014    0.3942 C   0  0  1  0  0  0  0  0  0  0  0  0
   21.9179   30.1805   -0.3078 O   0  0  0  0  0  0  0  0  0  0  0  0
   17.9183   31.7563   -2.8791 C   0  0  2  0  0  0  0  0  0  0  0  0
   17.7097   32.8802   -3.7061 O   0  0  0  0  0  0  0  0  0  0  0  0
   19.3053   25.8733   -1.7396 C   0  0  1  0  0  0  0  0  0  0  0  0
   18.8258   27.2111   -1.4286 O   0  0  0  0  0  0  0  0  0  0  0  0
   21.5865   27.9245    0.3884 C   0  0  1  0  0  0  0  0  0  0  0  0
   21.0740   27.2692   -0.7740 O   0  0  0  0  0  0  0  0  0  0  0  0
   16.7128   30.8180   -2.9410 C   0  0  1  0  0  0  0  0  0  0  0  0
   16.5092   30.3629   -4.2696 O   0  0  0  0  0  0  0  0  0  0  0  0
   19.0801   25.0327   -0.4539 C   0  0  2  0  0  0  0  0  0  0  0  0
   19.9295   25.5170    0.5747 O   0  0  0  0  0  0  0  0  0  0  0  0
   16.9624   29.6287   -2.0131 C   0  0  1  0  0  0  0  0  0  0  0  0
   17.1676   30.0882   -0.6782 O   0  0  0  0  0  0  0  0  0  0  0  0
   19.4153   23.5566   -0.7421 C   0  0  1  0  0  0  0  0  0  0  0  0
   19.2126   22.7668    0.4358 O   0  0  0  0  0  0  0  0  0  0  0  0
   15.7435   28.7065   -2.0500 C   0  0  0  0  0  0  0  0  0  0  0  0
   14.5840   29.4539   -1.7189 O   0  0  0  0  0  0  0  0  0  0  0  0
   17.5521   20.9980   -0.3741 N   0  0  0  0  0  0  0  0  0  0  0  0
   20.4088   25.5048   -4.7251 N   0  0  0  0  0  0  0  0  0  0  0  0
  1  2  1  0  0  0  0
  1 39  1  0  0  0  0
  3  4  1  0  0  0  0
  5  6  1  0  0  0  0
  5 40  1  0  0  0  0
  9 10  1  6  0  0  0
  9 14  1  0  0  0  0
  9 35  1  0  0  0  0
 10  1  1  0  0  0  0
 11 16  1  0  0  0  0
 11 28  1  0  0  0  0
 11 26  1  1  0  0  0
 12 17  1  0  0  0  0
 12 34  1  0  0  0  0
 12 13  1  6  0  0  0
 14 15  1  6  0  0  0
 14 19  1  0  0  0  0
 16 13  1  6  0  0  0
 16 21  1  0  0  0  0
 17 18  1  6  0  0  0
 17 23  1  0  0  0  0
 18  8  1  0  0  0  0
 19 20  1  6  0  0  0
 19 25  1  0  0  0  0
 20  5  1  0  0  0  0
 21  3  1  1  0  0  0
 21 22  1  0  0  0  0
 21 27  1  0  0  0  0
 23 24  1  6  0  0  0
 23 29  1  0  0  0  0
 25 26  1  1  0  0  0
 25 31  1  0  0  0  0
 27  7  1  6  0  0  0
 27 28  1  0  0  0  0
 29 30  1  6  0  0  0
 29 33  1  0  0  0  0
 31 32  1  1  0  0  0
 31 35  1  0  0  0  0
 33 34  1  0  0  0  0
 33 37  1  1  0  0  0
 35 36  1  1  0  0  0
 37 38  1  0  0  0  0
M  END
>  <CHROM.1>
-141.69374679,146.55610269,-151.50883917,178.98099955,131.70748793,73.87728744
-12.79535479,100.82551693,-58.38054249,-135.84037496,-55.34992169,18.90990407
27.42219494,-1.62519394,-1.61023372,-0.82493708,0.05256232

>  <Name>
1ntb_lig

>  <RI>
0

>  <Rbt.Current_Directory>
/home/itssahil/PROJECTS/Mol_Feturizer/New_Systems/rnas/1ntb

>  <Rbt.Executable>
rbdock ($Id: //depot/dev/client3/rdock/2013.1/src/exe/rbdock.cxx#4 $)

>  <Rbt.Library>
libRbt.so (2013.1, Build901 2013/11/27)

>  <Rbt.Parameter_File>
/export/apps/rDock/src/rDock_2013.1_src/data/scripts/dock_solv.prm

>  <Rbt.Receptor>
prm/blind_docking_100.prm

>  <SCORE>
-2.4028

>  <SCORE.INTER>
-8.10571

>  <SCORE.INTER.CONST>
1

>  <SCORE.INTER.POLAR>
-0.40791

>  <SCORE.INTER.ROT>
11

>  <SCORE.INTER.SOLV>
21.7184

>  <SCORE.INTER.VDW>
-22.2169

>  <SCORE.INTER.norm>
-0.202643

>  <SCORE.INTRA>
4.75909

>  <SCORE.INTRA.DIHEDRAL>
3.57938

>  <SCORE.INTRA.DIHEDRAL.0>
15.4453

>  <SCORE.INTRA.POLAR>
0

>  <SCORE.INTRA.POLAR.0>
0

>  <SCORE.INTRA.REPUL>
-0.823958

>  <SCORE.INTRA.REPUL.0>
0.823958

>  <SCORE.INTRA.SOLV>
0.829658

>  <SCORE.INTRA.SOLV.lig_0>
-99.3069

>  <SCORE.INTRA.VDW>
6.67436

>  <SCORE.INTRA.VDW.0>
0.946495

>  <SCORE.INTRA.norm>
0.118977

>  <SCORE.RESTR>
0.943814

>  <SCORE.RESTR.CAVITY>
0.943814

>  <SCORE.RESTR.norm>
0.0235953

>  <SCORE.SYSTEM>
0

>  <SCORE.SYSTEM.CONST>
0

>  <SCORE.SYSTEM.DIHEDRAL>
0

>  <SCORE.SYSTEM.SOLV>
0

>  <SCORE.SYSTEM.norm>
0

>  <SCORE.heavy>
40

>  <SCORE.norm>
-0.0600701

>  <RMSD>
18.589

$$$$
1ntb_lig
 OpenBabel11021811403D
libRbt.so/2013.1/901 2013/11/27
 40 42  0  0  0  0  0  0  0  0999 V2000
   19.0380   34.6142   -2.3941 C   0  0  0  0  0  0  0  0  0  0  0  0
   18.1947   34.6853   -3.3501 N   0  0  0  0  0  0  0  0  0  0  0  0
   16.7205   24.9039   -3.5777 C   0  0  0  0  0  0  0  0  0  0  0  0
   16.6590   24.3987   -4.9011 O   0  0  0  0  0  0  0  0  0  0  0  0
   20.7854   29.5243    0.1120 C   0  0  0  0  0  0  0  0  0  0  0  0
   20.5643   28.4710    0.8146 N   0  0  0  0  0  0  0  0  0  0  0  0
   18.0135   27.0020   -5.7004 C   0  0  0  0  0  0  0  0  0  0  0  0
   18.8467   22.1726   -3.3876 C   0  0  0  0  0  0  0  0  0  0  0  0
   18.1963   32.9805   -0.9148 C   0  0  2  0  0  0  0  0  0  0  0  0
   18.5246   34.4317   -1.1927 N   0  0  0  0  0  0  0  0  0  0  0  0
   18.3421   27.9635   -2.3354 C   0  0  2  0  0  0  0  0  0  0  0  0
   18.3917   24.7274   -0.7589 C   0  0  1  0  0  0  0  0  0  0  0  0
   18.8819   25.9011   -1.3805 O   0  0  0  0  0  0  0  0  0  0  0  0
   19.4266   32.0978   -1.0938 C   0  0  1  0  0  0  0  0  0  0  0  0
   20.4381   32.6577   -0.1476 O   0  0  0  0  0  0  0  0  0  0  0  0
   17.9146   26.5276   -2.0922 C   0  0  2  0  0  0  0  0  0  0  0  0
   19.1124   23.5351   -1.3400 C   0  0  1  0  0  0  0  0  0  0  0  0
   18.8569   23.4508   -2.7346 N   0  0  0  0  0  0  0  0  0  0  0  0
   19.1384   30.6173   -0.8534 C   0  0  2  0  0  0  0  0  0  0  0  0
   20.2755   29.7334   -1.0061 N   0  0  0  0  0  0  0  0  0  0  0  0
   17.7891   25.9679   -3.4844 C   0  0  1  0  0  0  0  0  0  0  0  0
   19.0479   25.4387   -3.9139 O   0  0  0  0  0  0  0  0  0  0  0  0
   20.6007   23.7259   -1.1006 C   0  0  2  0  0  0  0  0  0  0  0  0
   21.3252   22.6397   -1.6352 O   0  0  0  0  0  0  0  0  0  0  0  0
   18.0657   30.1888   -1.8208 C   0  0  1  0  0  0  0  0  0  0  0  0
   17.7093   28.8399   -1.4089 O   0  0  0  0  0  0  0  0  0  0  0  0
   17.4286   27.1410   -4.3188 C   0  0  1  0  0  0  0  0  0  0  0  0
   17.9653   28.2979   -3.6732 O   0  0  0  0  0  0  0  0  0  0  0  0
   20.8017   23.8073    0.4128 C   0  0  1  0  0  0  0  0  0  0  0  0
   22.1749   23.9928    0.7191 O   0  0  0  0  0  0  0  0  0  0  0  0
   16.7880   31.0463   -1.6152 C   0  0  2  0  0  0  0  0  0  0  0  0
   15.7869   30.6174   -2.5252 O   0  0  0  0  0  0  0  0  0  0  0  0
   19.9813   24.9761    0.9594 C   0  0  1  0  0  0  0  0  0  0  0  0
   18.6014   24.7883    0.6498 O   0  0  0  0  0  0  0  0  0  0  0  0
   17.1181   32.5282   -1.8785 C   0  0  1  0  0  0  0  0  0  0  0  0
   15.9481   33.3337   -1.6930 O   0  0  0  0  0  0  0  0  0  0  0  0
   20.1565   25.0380    2.4770 C   0  0  0  0  0  0  0  0  0  0  0  0
   19.8094   23.7819    3.0374 O   0  0  0  0  0  0  0  0  0  0  0  0
   20.3052   34.7374   -2.5808 N   0  0  0  0  0  0  0  0  0  0  0  0
   21.5050   30.4269    0.5749 N   0  0  0  0  0  0  0  0  0  0  0  0
  1  2  1  0  0  0  0
  1 39  1  0  0  0  0
  3  4  1  0  0  0  0
  5  6  1  0  0  0  0
  5 40  1  0  0  0  0
  9 10  1  6  0  0  0
  9 14  1  0  0  0  0
  9 35  1  0  0  0  0
 10  1  1  0  0  0  0
 11 16  1  0  0  0  0
 11 28  1  0  0  0  0
 11 26  1  1  0  0  0
 12 17  1  0  0  0  0
 12 34  1  0  0  0  0
 12 13  1  6  0  0  0
 14 15  1  1  0  0  0
 14 19  1  0  0  0  0
 16 13  1  1  0  0  0
 16 21  1  0  0  0  0
 17 18  1  6  0  0  0
 17 23  1  0  0  0  0
 18  8  1  0  0  0  0
 19 20  1  6  0  0  0
 19 25  1  0  0  0  0
 20  5  1  0  0  0  0
 21  3  1  6  0  0  0
 21 22  1  0  0  0  0
 21 27  1  0  0  0  0
 23 24  1  1  0  0  0
 23 29  1  0  0  0  0
 25 26  1  1  0  0  0
 25 31  1  0  0  0  0
 27  7  1  6  0  0  0
 27 28  1  0  0  0  0
 29 30  1  6  0  0  0
 29 33  1  0  0  0  0
 31 32  1  6  0  0  0
 31 35  1  0  0  0  0
 33 34  1  0  0  0  0
 33 37  1  1  0  0  0
 35 36  1  1  0  0  0
 37 38  1  0  0  0  0
M  END
>  <CHROM.1>
56.26449101,81.80899372,-173.80035137,116.00899596,161.28724888,-150.02102929
95.79370308,99.10142222,-179.12291559,-102.77621859,-55.13297671,18.87678957
27.98314743,-1.53111446,-1.77634217,0.97854397,-3.03766182

>  <Name>
1ntb_lig

>  <RI>
0

>  <Rbt.Current_Directory>
/home/itssahil/PROJECTS/Mol_Feturizer/New_Systems/rnas/1ntb

>  <Rbt.Executable>
rbdock ($Id: //depot/dev/client3/rdock/2013.1/src/exe/rbdock.cxx#4 $)

>  <Rbt.Library>
libRbt.so (2013.1, Build901 2013/11/27)

>  <Rbt.Parameter_File>
/export/apps/rDock/src/rDock_2013.1_src/data/scripts/dock_solv.prm

>  <Rbt.Receptor>
prm/blind_docking_100.prm

>  <SCORE>
21.5157

>  <SCORE.INTER>
22.9675

>  <SCORE.INTER.CONST>
1

>  <SCORE.INTER.POLAR>
0

>  <SCORE.INTER.ROT>
11

>  <SCORE.INTER.SOLV>
19.74

>  <SCORE.INTER.VDW>
-2.20167

>  <SCORE.INTER.norm>
0.574187

>  <SCORE.INTRA>
-2.19053

>  <SCORE.INTRA.DIHEDRAL>
2.065

>  <SCORE.INTRA.DIHEDRAL.0>
15.4453

>  <SCORE.INTRA.POLAR>
0

>  <SCORE.INTRA.POLAR.0>
0

>  <SCORE.INTRA.REPUL>
-0.823958

>  <SCORE.INTRA.REPUL.0>
0.823958

>  <SCORE.INTRA.SOLV>
3.94446

>  <SCORE.INTRA.SOLV.lig_0>
-99.3069

>  <SCORE.INTRA.VDW>
-1.07548

>  <SCORE.INTRA.VDW.0>
0.946495

>  <SCORE.INTRA.norm>
-0.0547633

>  <SCORE.RESTR>
0.738725

>  <SCORE.RESTR.CAVITY>
0.738725

>  <SCORE.RESTR.norm>
0.0184681

>  <SCORE.SYSTEM>
0

>  <SCORE.SYSTEM.CONST>
0

>  <SCORE.SYSTEM.DIHEDRAL>
0

>  <SCORE.SYSTEM.SOLV>
0

>  <SCORE.SYSTEM.norm>
0

>  <SCORE.heavy>
40

>  <SCORE.norm>
0.537892

>  <RMSD>
18.590

$$$$
1ntb_lig
 OpenBabel11021811403D
libRbt.so/2013.1/901 2013/11/27
 40 42  0  0  0  0  0  0  0  0999 V2000
   18.1414   34.7045   -2.5507 C   0  0  0  0  0  0  0  0  0  0  0  0
   18.2854   35.9625   -2.3867 N   0  0  0  0  0  0  0  0  0  0  0  0
   21.1022   27.8486    2.5437 C   0  0  0  0  0  0  0  0  0  0  0  0
   21.3638   29.1758    2.1191 O   0  0  0  0  0  0  0  0  0  0  0  0
   15.2999   28.9870   -1.5789 C   0  0  0  0  0  0  0  0  0  0  0  0
   15.7041   28.0065   -2.3050 N   0  0  0  0  0  0  0  0  0  0  0  0
   17.9954   28.0462    3.4864 C   0  0  0  0  0  0  0  0  0  0  0  0
   23.4387   23.8785   -0.2525 C   0  0  0  0  0  0  0  0  0  0  0  0
   18.2036   32.4948   -1.7266 C   0  0  2  0  0  0  0  0  0  0  0  0
   18.1447   33.9813   -1.4475 N   0  0  0  0  0  0  0  0  0  0  0  0
   18.4295   27.5660    0.0315 C   0  0  2  0  0  0  0  0  0  0  0  0
   21.0451   26.0010   -1.0443 C   0  0  1  0  0  0  0  0  0  0  0  0
   20.1588   25.9957    0.0596 O   0  0  0  0  0  0  0  0  0  0  0  0
   17.0400   31.7673   -1.0620 C   0  0  1  0  0  0  0  0  0  0  0  0
   15.8159   32.4167   -1.6203 O   0  0  0  0  0  0  0  0  0  0  0  0
   19.8526   27.2539    0.4571 C   0  0  2  0  0  0  0  0  0  0  0  0
   21.3673   24.5731   -1.4129 C   0  0  1  0  0  0  0  0  0  0  0  0
   22.0058   23.9265   -0.3213 N   0  0  0  0  0  0  0  0  0  0  0  0
   17.0725   30.2574   -1.2899 C   0  0  2  0  0  0  0  0  0  0  0  0
   15.9856   29.5172   -0.6830 N   0  0  0  0  0  0  0  0  0  0  0  0
   19.7943   27.3711    1.9571 C   0  0  1  0  0  0  0  0  0  0  0  0
   19.4286   26.1122    2.5321 O   0  0  0  0  0  0  0  0  0  0  0  0
   20.0612   23.8672   -1.7360 C   0  0  2  0  0  0  0  0  0  0  0  0
   20.3049   22.5205   -2.0789 O   0  0  0  0  0  0  0  0  0  0  0  0
   18.3741   29.7318   -0.7424 C   0  0  1  0  0  0  0  0  0  0  0  0
   18.4208   28.3401   -1.1633 O   0  0  0  0  0  0  0  0  0  0  0  0
   18.7203   28.3649    2.2045 C   0  0  1  0  0  0  0  0  0  0  0  0
   17.8167   28.2925    1.0992 O   0  0  0  0  0  0  0  0  0  0  0  0
   19.4320   24.6116   -2.9139 C   0  0  1  0  0  0  0  0  0  0  0  0
   18.1971   24.0122   -3.2738 O   0  0  0  0  0  0  0  0  0  0  0  0
   19.5695   30.4281   -1.4470 C   0  0  2  0  0  0  0  0  0  0  0  0
   20.7839   29.9090   -0.9275 O   0  0  0  0  0  0  0  0  0  0  0  0
   19.2088   26.0708   -2.5156 C   0  0  1  0  0  0  0  0  0  0  0  0
   20.4511   26.6715   -2.1533 O   0  0  0  0  0  0  0  0  0  0  0  0
   19.5066   31.9448   -1.1830 C   0  0  1  0  0  0  0  0  0  0  0  0
   20.6043   32.6026   -1.8270 O   0  0  0  0  0  0  0  0  0  0  0  0
   18.6094   26.8232   -3.7039 C   0  0  0  0  0  0  0  0  0  0  0  0
   18.9373   28.1993   -3.5971 O   0  0  0  0  0  0  0  0  0  0  0  0
   18.0259   34.1688   -3.7149 N   0  0  0  0  0  0  0  0  0  0  0  0
   14.1833   29.4891   -1.7979 N   0  0  0  0  0  0  0  0  0  0  0  0
  1  2  1  0  0  0  0
  1 39  1  0  0  0  0
  3  4  1  0  0  0  0
  5  6  1  0  0  0  0
  5 40  1  0  0  0  0
  9 10  1  1  0  0  0
  9 14  1  0  0  0  0
  9 35  1  0  0  0  0
 10  1  1  0  0  0  0
 11 16  1  0  0  0  0
 11 28  1  0  0  0  0
 11 26  1  6  0  0  0
 12 17  1  0  0  0  0
 12 34  1  0  0  0  0
 12 13  1  1  0  0  0
 14 15  1  6  0  0  0
 14 19  1  0  0  0  0
 16 13  1  1  0  0  0
 16 21  1  0  0  0  0
 17 18  1  1  0  0  0
 17 23  1  0  0  0  0
 18  8  1  0  0  0  0
 19 20  1  1  0  0  0
 19 25  1  0  0  0  0
 20  5  1  0  0  0  0
 21  3  1  1  0  0  0
 21 22  1  0  0  0  0
 21 27  1  0  0  0  0
 23 24  1  6  0  0  0
 23 29  1  0  0  0  0
 25 26  1  6  0  0  0
 25 31  1  0  0  0  0
 27  7  1  1  0  0  0
 27 28  1  0  0  0  0
 29 30  1  1  0  0  0
 29 33  1  0  0  0  0
 31 32  1  1  0  0  0
 31 35  1  0  0  0  0
 33 34  1  0  0  0  0
 33 37  1  6  0  0  0
 35 36  1  6  0  0  0
 37 38  1  0  0  0  0
M  END
>  <CHROM.1>
-124.36332833,-170.39018029,-93.04543929,178.71424521,106.48083631,-94.45923026
116.09090645,70.15122054,65.52487554,-117.49890986,-154.30061435,18.94634097
28.50957557,-0.94233588,2.17182772,-0.95288953,0.37731096

>  <Name>
1ntb_lig

>  <RI>
0

>  <Rbt.Current_Directory>
/home/itssahil/PROJECTS/Mol_Feturizer/New_Systems/rnas/1ntb

>  <Rbt.Executable>
rbdock ($Id: //depot/dev/client3/rdock/2013.1/src/exe/rbdock.cxx#4 $)

>  <Rbt.Library>
libRbt.so (2013.1, Build901 2013/11/27)

>  <Rbt.Parameter_File>
/export/apps/rDock/src/rDock_2013.1_src/data/scripts/dock_solv.prm

>  <Rbt.Receptor>
prm/blind_docking_80.prm

>  <SCORE>
-4.84267

>  <SCORE.INTER>
-3.77053

>  <SCORE.INTER.CONST>
1

>  <SCORE.INTER.POLAR>
-0.16115

>  <SCORE.INTER.ROT>
11

>  <SCORE.INTER.SOLV>
21.1669

>  <SCORE.INTER.VDW>
-19.9655

>  <SCORE.INTER.norm>
-0.0942633

>  <SCORE.INTRA>
-2.03345

>  <SCORE.INTRA.DIHEDRAL>
9.00602

>  <SCORE.INTRA.DIHEDRAL.0>
15.4453

>  <SCORE.INTRA.POLAR>
0

>  <SCORE.INTRA.POLAR.0>
0

>  <SCORE.INTRA.REPUL>
-0.823958

>  <SCORE.INTRA.REPUL.0>
0.823958

>  <SCORE.INTRA.SOLV>
0.878129

>  <SCORE.INTRA.SOLV.lig_0>
-99.3069

>  <SCORE.INTRA.VDW>
-2.85574

>  <SCORE.INTRA.VDW.0>
0.946495

>  <SCORE.INTRA.norm>
-0.0508363

>  <SCORE.RESTR>
0.961314

>  <SCORE.RESTR.CAVITY>
0.961314

>  <SCORE.RESTR.norm>
0.0240328

>  <SCORE.SYSTEM>
0

>  <SCORE.SYSTEM.CONST>
0

>  <SCORE.SYSTEM.DIHEDRAL>
0

>  <SCORE.SYSTEM.SOLV>
0

>  <SCORE.SYSTEM.norm>
0

>  <SCORE.heavy>
40

>  <SCORE.norm>
-0.121067

>  <RMSD>
18.617

$$$$
1ntb_lig
 OpenBabel11021811403D
libRbt.so/2013.1/901 2013/11/27
 40 42  0  0  0  0  0  0  0  0999 V2000
   17.8313   20.2979    2.0813 C   0  0  0  0  0  0  0  0  0  0  0  0
   16.6967   20.3686    1.5002 N   0  0  0  0  0  0  0  0  0  0  0  0
   20.6012   30.4003    1.1271 C   0  0  0  0  0  0  0  0  0  0  0  0
   21.6668   31.2954    0.8559 O   0  0  0  0  0  0  0  0  0  0  0  0
   18.8800   24.3419   -2.3984 C   0  0  0  0  0  0  0  0  0  0  0  0
   19.2817   23.1460   -2.6440 N   0  0  0  0  0  0  0  0  0  0  0  0
   22.7996   28.1253    0.3714 C   0  0  0  0  0  0  0  0  0  0  0  0
   19.6948   33.2789   -2.3256 C   0  0  0  0  0  0  0  0  0  0  0  0
   18.3860   22.4644    1.3299 C   0  0  2  0  0  0  0  0  0  0  0  0
   18.7938   21.0226    1.5439 N   0  0  0  0  0  0  0  0  0  0  0  0
   19.4901   27.2626   -0.4397 C   0  0  2  0  0  0  0  0  0  0  0  0
   17.9187   30.4161   -0.9763 C   0  0  1  0  0  0  0  0  0  0  0  0
   18.7399   29.3059   -1.2879 O   0  0  0  0  0  0  0  0  0  0  0  0
   18.2936   22.7915   -0.1565 C   0  0  1  0  0  0  0  0  0  0  0  0
   17.2989   21.8181   -0.6996 O   0  0  0  0  0  0  0  0  0  0  0  0
   19.2520   28.7373   -0.1702 C   0  0  2  0  0  0  0  0  0  0  0  0
   18.0561   31.4428   -2.0743 C   0  0  1  0  0  0  0  0  0  0  0  0
   19.4038   31.8837   -2.1553 N   0  0  0  0  0  0  0  0  0  0  0  0
   17.9139   24.2464   -0.4243 C   0  0  2  0  0  0  0  0  0  0  0  0
   17.8076   24.6102   -1.8222 N   0  0  0  0  0  0  0  0  0  0  0  0
   20.6309   29.2546    0.1427 C   0  0  1  0  0  0  0  0  0  0  0  0
   21.2863   29.6603   -1.0635 O   0  0  0  0  0  0  0  0  0  0  0  0
   17.6506   30.7854   -3.3828 C   0  0  2  0  0  0  0  0  0  0  0  0
   17.7705   31.7022   -4.4485 O   0  0  0  0  0  0  0  0  0  0  0  0
   18.9535   25.1253    0.2213 C   0  0  1  0  0  0  0  0  0  0  0  0
   18.4301   26.4767    0.0948 O   0  0  0  0  0  0  0  0  0  0  0  0
   21.3358   28.0862    0.7263 C   0  0  1  0  0  0  0  0  0  0  0  0
   20.7299   26.9126    0.1797 O   0  0  0  0  0  0  0  0  0  0  0  0
   16.1971   30.3384   -3.2252 C   0  0  1  0  0  0  0  0  0  0  0  0
   15.7439   29.7053   -4.4116 O   0  0  0  0  0  0  0  0  0  0  0  0
   19.0230   24.8386    1.7455 C   0  0  2  0  0  0  0  0  0  0  0  0
   19.9967   25.6858    2.3357 O   0  0  0  0  0  0  0  0  0  0  0  0
   16.1017   29.3696   -2.0462 C   0  0  1  0  0  0  0  0  0  0  0  0
   16.5584   30.0075   -0.8546 O   0  0  0  0  0  0  0  0  0  0  0  0
   19.4198   23.3670    1.9721 C   0  0  1  0  0  0  0  0  0  0  0  0
   19.4885   23.0861    3.3752 O   0  0  0  0  0  0  0  0  0  0  0  0
   14.6431   28.9474   -1.8679 C   0  0  0  0  0  0  0  0  0  0  0  0
   14.2161   28.2477   -3.0257 O   0  0  0  0  0  0  0  0  0  0  0  0
   18.0353   19.5508    3.1089 N   0  0  0  0  0  0  0  0  0  0  0  0
   19.6097   25.3042   -2.6958 N   0  0  0  0  0  0  0  0  0  0  0  0
  1  2  1  0  0  0  0
  1 39  1  0  0  0  0
  3  4  1  0  0  0  0
  5  6  1  0  0  0  0
  5 40  1  0  0  0  0
  9 10  1  6  0  0  0
  9 14  1  0  0  0  0
  9 35  1  0  0  0  0
 10  1  1  0  0  0  0
 11 16  1  0  0  0  0
 11 28  1  0  0  0  0
 11 26  1  1  0  0  0
 12 17  1  0  0  0  0
 12 34  1  0  0  0  0
 12 13  1  6  0  0  0
 14 15  1  1  0  0  0
 14 19  1  0  0  0  0
 16 13  1  6  0  0  0
 16 21  1  0  0  0  0
 17 18  1  6  0  0  0
 17 23  1  0  0  0  0
 18  8  1  0  0  0  0
 19 20  1  6  0  0  0
 19 25  1  0  0  0  0
 20  5  1  0  0  0  0
 21  3  1  1  0  0  0
 21 22  1  0  0  0  0
 21 27  1  0  0  0  0
 23 24  1  6  0  0  0
 23 29  1  0  0  0  0
 25 26  1  1  0  0  0
 25 31  1  0  0  0  0
 27  7  1  6  0  0  0
 27 28  1  0  0  0  0
 29 30  1  6  0  0  0
 29 33  1  0  0  0  0
 31 32  1  1  0  0  0
 31 35  1  0  0  0  0
 33 34  1  0  0  0  0
 33 37  1  1  0  0  0
 35 36  1  1  0  0  0
 37 38  1  0  0  0  0
M  END
>  <CHROM.1>
-112.72993095,51.09851469,-160.16338321,146.37768867,151.50017912,-137.05744141
-55.95136770,70.97178070,-147.83679925,-130.55055067,63.08252236,18.61840042
26.89940396,-0.56210472,1.55773175,0.62724420,2.78553462

>  <Name>
1ntb_lig

>  <RI>
0

>  <Rbt.Current_Directory>
/home/itssahil/PROJECTS/Mol_Feturizer/New_Systems/rnas/1ntb

>  <Rbt.Executable>
rbdock ($Id: //depot/dev/client3/rdock/2013.1/src/exe/rbdock.cxx#4 $)

>  <Rbt.Library>
libRbt.so (2013.1, Build901 2013/11/27)

>  <Rbt.Parameter_File>
/export/apps/rDock/src/rDock_2013.1_src/data/scripts/dock_solv.prm

>  <Rbt.Receptor>
prm/blind_docking_60.prm

>  <SCORE>
-16.5737

>  <SCORE.INTER>
-16.3272

>  <SCORE.INTER.CONST>
1

>  <SCORE.INTER.POLAR>
-1.11355

>  <SCORE.INTER.ROT>
11

>  <SCORE.INTER.SOLV>
17.1855

>  <SCORE.INTER.VDW>
-23.8348

>  <SCORE.INTER.norm>
-0.40818

>  <SCORE.INTRA>
-0.282904

>  <SCORE.INTRA.DIHEDRAL>
7.39312

>  <SCORE.INTRA.DIHEDRAL.0>
15.4453

>  <SCORE.INTRA.POLAR>
0

>  <SCORE.INTRA.POLAR.0>
0

>  <SCORE.INTRA.REPUL>
-0.821693

>  <SCORE.INTRA.REPUL.0>
0.823958

>  <SCORE.INTRA.SOLV>
1.75515

>  <SCORE.INTRA.SOLV.lig_0>
-99.3069

>  <SCORE.INTRA.VDW>
-0.74858

>  <SCORE.INTRA.VDW.0>
0.946495

>  <SCORE.INTRA.norm>
-0.0070726

>  <SCORE.RESTR>
0.036361

>  <SCORE.RESTR.CAVITY>
0.036361

>  <SCORE.RESTR.norm>
0.000909025

>  <SCORE.SYSTEM>
0

>  <SCORE.SYSTEM.CONST>
0

>  <SCORE.SYSTEM.DIHEDRAL>
0

>  <SCORE.SYSTEM.SOLV>
0

>  <SCORE.SYSTEM.norm>
0

>  <SCORE.heavy>
40

>  <SCORE.norm>
-0.414344

>  <RMSD>
18.637

$$$$
1ntb_lig
 OpenBabel11021811403D
libRbt.so/2013.1/901 2013/11/27
 40 42  0  0  0  0  0  0  0  0999 V2000
   13.2268   29.9115   -2.6526 C   0  0  0  0  0  0  0  0  0  0  0  0
   12.6934   30.9707   -3.1257 N   0  0  0  0  0  0  0  0  0  0  0  0
   22.5544   27.8502    0.3604 C   0  0  0  0  0  0  0  0  0  0  0  0
   22.8312   27.0641   -0.7867 O   0  0  0  0  0  0  0  0  0  0  0  0
   18.3875   32.3905   -2.1853 C   0  0  0  0  0  0  0  0  0  0  0  0
   18.8635   32.5174   -0.9982 N   0  0  0  0  0  0  0  0  0  0  0  0
   21.0666   30.6156    1.2086 C   0  0  0  0  0  0  0  0  0  0  0  0
   19.6548   25.0707    3.2988 C   0  0  0  0  0  0  0  0  0  0  0  0
   15.2030   29.6631   -1.3882 C   0  0  2  0  0  0  0  0  0  0  0  0
   13.7331   30.0206   -1.4394 N   0  0  0  0  0  0  0  0  0  0  0  0
   19.3175   28.7031   -1.1660 C   0  0  2  0  0  0  0  0  0  0  0  0
   20.5358   25.5691    0.1932 C   0  0  1  0  0  0  0  0  0  0  0  0
   19.6507   26.5661   -0.2832 O   0  0  0  0  0  0  0  0  0  0  0  0
   16.0431   30.6973   -2.1295 C   0  0  1  0  0  0  0  0  0  0  0  0
   15.7350   31.9935   -1.4537 O   0  0  0  0  0  0  0  0  0  0  0  0
   20.3232   27.6425   -0.7566 C   0  0  2  0  0  0  0  0  0  0  0  0
   19.7302   24.5013    0.8926 C   0  0  1  0  0  0  0  0  0  0  0  0
   19.0429   25.0649    2.0005 N   0  0  0  0  0  0  0  0  0  0  0  0
   17.5336   30.3638   -2.1318 C   0  0  2  0  0  0  0  0  0  0  0  0
   18.3792   31.3174   -2.8196 N   0  0  0  0  0  0  0  0  0  0  0  0
   21.1209   28.3261    0.3220 C   0  0  1  0  0  0  0  0  0  0  0  0
   20.5003   28.1185    1.5951 O   0  0  0  0  0  0  0  0  0  0  0  0
   18.7284   23.9429   -0.1040 C   0  0  2  0  0  0  0  0  0  0  0  0
   17.9393   22.9435    0.5035 O   0  0  0  0  0  0  0  0  0  0  0  0
   17.7078   29.0148   -2.7799 C   0  0  1  0  0  0  0  0  0  0  0  0
   19.1086   28.6804   -2.5741 O   0  0  0  0  0  0  0  0  0  0  0  0
   21.0605   29.7652   -0.0353 C   0  0  1  0  0  0  0  0  0  0  0  0
   19.8465   29.9682   -0.7621 O   0  0  0  0  0  0  0  0  0  0  0  0
   19.5335   23.3550   -1.2632 C   0  0  1  0  0  0  0  0  0  0  0  0
   18.6629   22.8154   -2.2453 O   0  0  0  0  0  0  0  0  0  0  0  0
   16.8974   27.9414   -2.0045 C   0  0  2  0  0  0  0  0  0  0  0  0
   17.0866   26.6777   -2.6221 O   0  0  0  0  0  0  0  0  0  0  0  0
   20.3955   24.4583   -1.8776 C   0  0  1  0  0  0  0  0  0  0  0  0
   21.2694   25.0001   -0.8886 O   0  0  0  0  0  0  0  0  0  0  0  0
   15.4011   28.3079   -2.0361 C   0  0  1  0  0  0  0  0  0  0  0  0
   14.6386   27.3259   -1.3242 O   0  0  0  0  0  0  0  0  0  0  0  0
   21.2249   23.8637   -3.0160 C   0  0  0  0  0  0  0  0  0  0  0  0
   22.1167   22.8961   -2.4861 O   0  0  0  0  0  0  0  0  0  0  0  0
   13.2918   28.8136   -3.3206 N   0  0  0  0  0  0  0  0  0  0  0  0
   17.8504   33.3681   -2.7354 N   0  0  0  0  0  0  0  0  0  0  0  0
  1  2  1  0  0  0  0
  1 39  1  0  0  0  0
  3  4  1  0  0  0  0
  5  6  1  0  0  0  0
  5 40  1  0  0  0  0
  9 10  1  6  0  0  0
  9 14  1  0  0  0  0
  9 35  1  0  0  0  0
 10  1  1  0  0  0  0
 11 16  1  0  0  0  0
 11 28  1  0  0  0  0
 11 26  1  6  0  0  0
 12 17  1  0  0  0  0
 12 34  1  0  0  0  0
 12 13  1  6  0  0  0
 14 15  1  1  0  0  0
 14 19  1  0  0  0  0
 16 13  1  1  0  0  0
 16 21  1  0  0  0  0
 17 18  1  1  0  0  0
 17 23  1  0  0  0  0
 18  8  1  0  0  0  0
 19 20  1  6  0  0  0
 19 25  1  0  0  0  0
 20  5  1  0  0  0  0
 21  3  1  1  0  0  0
 21 22  1  0  0  0  0
 21 27  1  0  0  0  0
 23 24  1  1  0  0  0
 23 29  1  0  0  0  0
 25 26  1  1  0  0  0
 25 31  1  0  0  0  0
 27  7  1  1  0  0  0
 27 28  1  0  0  0  0
 29 30  1  6  0  0  0
 29 33  1  0  0  0  0
 31 32  1  6  0  0  0
 31 35  1  0  0  0  0
 33 34  1  0  0  0  0
 33 37  1  6  0  0  0
 35 36  1  1  0  0  0
 37 38  1  0  0  0  0
M  END
>  <CHROM.1>
68.39736203,-122.55046189,145.27611818,171.46320094,-176.40967469,-91.34035615
67.79843243,64.23602111,10.61365448,57.86850311,-63.80883530,18.50660856
27.79934807,-1.11173943,2.26496469,-0.32538615,-0.03027456

>  <Name>
1ntb_lig

>  <RI>
0

>  <Rbt.Current_Directory>
/home/itssahil/PROJECTS/Mol_Feturizer/New_Systems/rnas/1ntb

>  <Rbt.Executable>
rbdock ($Id: //depot/dev/client3/rdock/2013.1/src/exe/rbdock.cxx#4 $)

>  <Rbt.Library>
libRbt.so (2013.1, Build901 2013/11/27)

>  <Rbt.Parameter_File>
/export/apps/rDock/src/rDock_2013.1_src/data/scripts/dock_solv.prm

>  <Rbt.Receptor>
prm/blind_docking_100.prm

>  <SCORE>
-9.35447

>  <SCORE.INTER>
-11.2037

>  <SCORE.INTER.CONST>
1

>  <SCORE.INTER.POLAR>
-1.7238

>  <SCORE.INTER.ROT>
11

>  <SCORE.INTER.SOLV>
22.4059

>  <SCORE.INTER.VDW>
-20.1251

>  <SCORE.INTER.norm>
-0.280093

>  <SCORE.INTRA>
1.67149

>  <SCORE.INTRA.DIHEDRAL>
-3.86451

>  <SCORE.INTRA.DIHEDRAL.0>
15.4453

>  <SCORE.INTRA.POLAR>
0

>  <SCORE.INTRA.POLAR.0>
0

>  <SCORE.INTRA.REPUL>
-0.823958

>  <SCORE.INTRA.REPUL.0>
0.823958

>  <SCORE.INTRA.SOLV>
4.22803

>  <SCORE.INTRA.SOLV.lig_0>
-99.3069

>  <SCORE.INTRA.VDW>
5.60952

>  <SCORE.INTRA.VDW.0>
0.946495

>  <SCORE.INTRA.norm>
0.0417873

>  <SCORE.RESTR>
0.177748

>  <SCORE.RESTR.CAVITY>
0.177748

>  <SCORE.RESTR.norm>
0.0044437

>  <SCORE.SYSTEM>
0

>  <SCORE.SYSTEM.CONST>
0

>  <SCORE.SYSTEM.DIHEDRAL>
0

>  <SCORE.SYSTEM.SOLV>
0

>  <SCORE.SYSTEM.norm>
0

>  <SCORE.heavy>
40

>  <SCORE.norm>
-0.233862

>  <RMSD>
18.660

$$$$
1ntb_lig
 OpenBabel11021811403D
libRbt.so/2013.1/901 2013/11/27
 40 42  0  0  0  0  0  0  0  0999 V2000
   17.9361   20.3768   -1.4721 C   0  0  0  0  0  0  0  0  0  0  0  0
   17.6473   19.4374   -2.2872 N   0  0  0  0  0  0  0  0  0  0  0  0
   20.6080   30.1284    1.3810 C   0  0  0  0  0  0  0  0  0  0  0  0
   20.1317   31.4234    1.0548 O   0  0  0  0  0  0  0  0  0  0  0  0
   19.9809   25.4864   -4.2806 C   0  0  0  0  0  0  0  0  0  0  0  0
   21.0191   25.2490   -3.5609 N   0  0  0  0  0  0  0  0  0  0  0  0
   22.9612   28.0963    0.4255 C   0  0  0  0  0  0  0  0  0  0  0  0
   19.7925   33.6923   -1.8388 C   0  0  0  0  0  0  0  0  0  0  0  0
   18.5054   22.6588   -1.6566 C   0  0  2  0  0  0  0  0  0  0  0  0
   18.8798   21.2079   -1.8705 N   0  0  0  0  0  0  0  0  0  0  0  0
   19.9177   27.6894   -1.2853 C   0  0  2  0  0  0  0  0  0  0  0  0
   18.3964   30.8978   -1.1371 C   0  0  1  0  0  0  0  0  0  0  0  0
   19.3253   29.9288   -1.5870 O   0  0  0  0  0  0  0  0  0  0  0  0
   18.8784   23.5041   -2.8695 C   0  0  1  0  0  0  0  0  0  0  0  0
   18.1471   22.8761   -4.0108 O   0  0  0  0  0  0  0  0  0  0  0  0
   19.5987   29.0174   -0.6230 C   0  0  2  0  0  0  0  0  0  0  0  0
   18.1518   31.8872   -2.2506 C   0  0  1  0  0  0  0  0  0  0  0  0
   19.3657   32.5438   -2.5865 N   0  0  0  0  0  0  0  0  0  0  0  0
   18.5473   24.9842   -2.6893 C   0  0  2  0  0  0  0  0  0  0  0  0
   18.8775   25.8330   -3.8155 N   0  0  0  0  0  0  0  0  0  0  0  0
   20.8691   29.3445    0.1161 C   0  0  1  0  0  0  0  0  0  0  0  0
   21.7581   30.0722   -0.7379 O   0  0  0  0  0  0  0  0  0  0  0  0
   17.6332   31.1182   -3.4541 C   0  0  2  0  0  0  0  0  0  0  0  0
   17.3965   31.9978   -4.5315 O   0  0  0  0  0  0  0  0  0  0  0  0
   19.2921   25.4839   -1.4787 C   0  0  1  0  0  0  0  0  0  0  0  0
   18.7838   26.8288   -1.2570 O   0  0  0  0  0  0  0  0  0  0  0  0
   21.4564   28.0200    0.4374 C   0  0  1  0  0  0  0  0  0  0  0  0
   21.0039   27.1048   -0.5630 O   0  0  0  0  0  0  0  0  0  0  0  0
   16.3319   30.4411   -3.0232 C   0  0  1  0  0  0  0  0  0  0  0  0
   15.7852   29.6931   -4.0981 O   0  0  0  0  0  0  0  0  0  0  0  0
   18.8838   24.6644   -0.2249 C   0  0  2  0  0  0  0  0  0  0  0  0
   19.5851   25.1600    0.9050 O   0  0  0  0  0  0  0  0  0  0  0  0
   16.6219   29.5190   -1.8385 C   0  0  1  0  0  0  0  0  0  0  0  0
   17.1722   30.2725   -0.7592 O   0  0  0  0  0  0  0  0  0  0  0  0
   19.2449   23.1823   -0.4421 C   0  0  1  0  0  0  0  0  0  0  0  0
   18.8743   22.4117    0.7073 O   0  0  0  0  0  0  0  0  0  0  0  0
   15.3153   28.8663   -1.3866 C   0  0  0  0  0  0  0  0  0  0  0  0
   14.9470   27.8653   -2.3219 O   0  0  0  0  0  0  0  0  0  0  0  0
   17.3653   20.4951   -0.3249 N   0  0  0  0  0  0  0  0  0  0  0  0
   20.0700   25.4252   -5.5195 N   0  0  0  0  0  0  0  0  0  0  0  0
  1  2  1  0  0  0  0
  1 39  1  0  0  0  0
  3  4  1  0  0  0  0
  5  6  1  0  0  0  0
  5 40  1  0  0  0  0
  9 10  1  6  0  0  0
  9 14  1  0  0  0  0
  9 35  1  0  0  0  0
 10  1  1  0  0  0  0
 11 16  1  0  0  0  0
 11 28  1  0  0  0  0
 11 26  1  1  0  0  0
 12 17  1  0  0  0  0
 12 34  1  0  0  0  0
 12 13  1  6  0  0  0
 14 15  1  6  0  0  0
 14 19  1  0  0  0  0
 16 13  1  6  0  0  0
 16 21  1  0  0  0  0
 17 18  1  6  0  0  0
 17 23  1  0  0  0  0
 18  8  1  0  0  0  0
 19 20  1  6  0  0  0
 19 25  1  0  0  0  0
 20  5  1  0  0  0  0
 21  3  1  1  0  0  0
 21 22  1  0  0  0  0
 21 27  1  0  0  0  0
 23 24  1  6  0  0  0
 23 29  1  0  0  0  0
 25 26  1  1  0  0  0
 25 31  1  0  0  0  0
 27  7  1  6  0  0  0
 27 28  1  0  0  0  0
 29 30  1  6  0  0  0
 29 33  1  0  0  0  0
 31 32  1  1  0  0  0
 31 35  1  0  0  0  0
 33 34  1  0  0  0  0
 33 37  1  1  0  0  0
 35 36  1  1  0  0  0
 37 38  1  0  0  0  0
M  END
>  <CHROM.1>
-136.65508588,133.53278617,-161.17365061,179.29852216,149.30670103,-84.52394895
-40.88277995,-46.17630817,-68.01430602,-123.09557171,74.34867279,18.87038036
27.17250096,-1.65888499,1.59688290,0.73628362,3.12742604

>  <Name>
1ntb_lig

>  <RI>
0

>  <Rbt.Current_Directory>
/home/itssahil/PROJECTS/Mol_Feturizer/New_Systems/rnas/1ntb

>  <Rbt.Executable>
rbdock ($Id: //depot/dev/client3/rdock/2013.1/src/exe/rbdock.cxx#4 $)

>  <Rbt.Library>
libRbt.so (2013.1, Build901 2013/11/27)

>  <Rbt.Parameter_File>
/export/apps/rDock/src/rDock_2013.1_src/data/scripts/dock_solv.prm

>  <Rbt.Receptor>
prm/blind_docking_60.prm

>  <SCORE>
-11.0572

>  <SCORE.INTER>
-8.3717

>  <SCORE.INTER.CONST>
1

>  <SCORE.INTER.POLAR>
-0.146409

>  <SCORE.INTER.ROT>
11

>  <SCORE.INTER.SOLV>
23.8267

>  <SCORE.INTER.VDW>
-23.9687

>  <SCORE.INTER.norm>
-0.209293

>  <SCORE.INTRA>
-3.71855

>  <SCORE.INTRA.DIHEDRAL>
0.731523

>  <SCORE.INTRA.DIHEDRAL.0>
15.4453

>  <SCORE.INTRA.POLAR>
0

>  <SCORE.INTRA.POLAR.0>
0

>  <SCORE.INTRA.REPUL>
-0.823958

>  <SCORE.INTRA.REPUL.0>
0.823958

>  <SCORE.INTRA.SOLV>
0.995918

>  <SCORE.INTRA.SOLV.lig_0>
-99.3069

>  <SCORE.INTRA.VDW>
-0.462482

>  <SCORE.INTRA.VDW.0>
0.946495

>  <SCORE.INTRA.norm>
-0.0929637

>  <SCORE.RESTR>
1.03304

>  <SCORE.RESTR.CAVITY>
1.03304

>  <SCORE.RESTR.norm>
0.0258261

>  <SCORE.SYSTEM>
0

>  <SCORE.SYSTEM.CONST>
0

>  <SCORE.SYSTEM.DIHEDRAL>
0

>  <SCORE.SYSTEM.SOLV>
0

>  <SCORE.SYSTEM.norm>
0

>  <SCORE.heavy>
40

>  <SCORE.norm>
-0.27643

>  <RMSD>
18.669

$$$$
1ntb_lig
 OpenBabel11021811403D
libRbt.so/2013.1/901 2013/11/27
 40 42  0  0  0  0  0  0  0  0999 V2000
   19.1074   34.8212   -1.2178 C   0  0  0  0  0  0  0  0  0  0  0  0
   20.0597   35.0093   -0.3883 N   0  0  0  0  0  0  0  0  0  0  0  0
   22.0575   28.2756    1.5435 C   0  0  0  0  0  0  0  0  0  0  0  0
   22.7625   27.5789    0.5297 O   0  0  0  0  0  0  0  0  0  0  0  0
   15.8171   29.6679   -2.1511 C   0  0  0  0  0  0  0  0  0  0  0  0
   15.5799   29.8689   -3.3982 N   0  0  0  0  0  0  0  0  0  0  0  0
   19.4457   29.1423    3.2778 C   0  0  0  0  0  0  0  0  0  0  0  0
   22.8252   23.9428   -0.6474 C   0  0  0  0  0  0  0  0  0  0  0  0
   19.2333   32.8073   -2.4401 C   0  0  2  0  0  0  0  0  0  0  0  0
   19.4568   34.3030   -2.3795 N   0  0  0  0  0  0  0  0  0  0  0  0
   18.7362   28.2148   -0.0376 C   0  0  2  0  0  0  0  0  0  0  0  0
   20.7688   26.0758   -1.4867 C   0  0  1  0  0  0  0  0  0  0  0  0
   20.1492   26.3664   -0.2475 O   0  0  0  0  0  0  0  0  0  0  0  0
   17.8610   32.4368   -1.8882 C   0  0  1  0  0  0  0  0  0  0  0  0
   16.8929   33.2049   -2.7277 O   0  0  0  0  0  0  0  0  0  0  0  0
   20.1614   27.6953    0.0147 C   0  0  2  0  0  0  0  0  0  0  0  0
   20.6950   24.5875   -1.7274 C   0  0  1  0  0  0  0  0  0  0  0  0
   21.3914   23.8984   -0.6991 N   0  0  0  0  0  0  0  0  0  0  0  0
   17.6000   30.9320   -1.9001 C   0  0  2  0  0  0  0  0  0  0  0  0
   16.3070   30.5250   -1.3899 N   0  0  0  0  0  0  0  0  0  0  0  0
   20.5790   27.9849    1.4320 C   0  0  1  0  0  0  0  0  0  0  0  0
   20.2294   26.8853    2.2792 O   0  0  0  0  0  0  0  0  0  0  0  0
   19.2301   24.1840   -1.7159 C   0  0  2  0  0  0  0  0  0  0  0  0
   19.1039   22.7947   -1.9273 O   0  0  0  0  0  0  0  0  0  0  0  0
   18.6711   30.2671   -1.0751 C   0  0  1  0  0  0  0  0  0  0  0  0
   18.4755   28.8416   -1.2890 O   0  0  0  0  0  0  0  0  0  0  0  0
   19.7845   29.1801    1.8101 C   0  0  1  0  0  0  0  0  0  0  0  0
   18.5872   29.1540    1.0297 O   0  0  0  0  0  0  0  0  0  0  0  0
   18.5457   24.9587   -2.8422 C   0  0  1  0  0  0  0  0  0  0  0  0
   17.1641   24.6387   -2.8928 O   0  0  0  0  0  0  0  0  0  0  0  0
   20.0729   30.5946   -1.6564 C   0  0  2  0  0  0  0  0  0  0  0  0
   21.0649   29.9479   -0.8742 O   0  0  0  0  0  0  0  0  0  0  0  0
   18.7270   26.4566   -2.5945 C   0  0  1  0  0  0  0  0  0  0  0  0
   20.1164   26.7763   -2.5431 O   0  0  0  0  0  0  0  0  0  0  0  0
   20.3011   32.1179   -1.6153 C   0  0  1  0  0  0  0  0  0  0  0  0
   21.5919   32.4369   -2.1487 O   0  0  0  0  0  0  0  0  0  0  0  0
   18.0706   27.2313   -3.7376 C   0  0  0  0  0  0  0  0  0  0  0  0
   18.4767   26.6687   -4.9749 O   0  0  0  0  0  0  0  0  0  0  0  0
   17.8887   35.1380   -0.9531 N   0  0  0  0  0  0  0  0  0  0  0  0
   15.4999   28.5808   -1.6369 N   0  0  0  0  0  0  0  0  0  0  0  0
  1  2  1  0  0  0  0
  1 39  1  0  0  0  0
  3  4  1  0  0  0  0
  5  6  1  0  0  0  0
  5 40  1  0  0  0  0
  9 10  1  1  0  0  0
  9 14  1  0  0  0  0
  9 35  1  0  0  0  0
 10  1  1  0  0  0  0
 11 16  1  0  0  0  0
 11 28  1  0  0  0  0
 11 26  1  6  0  0  0
 12 17  1  0  0  0  0
 12 34  1  0  0  0  0
 12 13  1  1  0  0  0
 14 15  1  6  0  0  0
 14 19  1  0  0  0  0
 16 13  1  1  0  0  0
 16 21  1  0  0  0  0
 17 18  1  1  0  0  0
 17 23  1  0  0  0  0
 18  8  1  0  0  0  0
 19 20  1  1  0  0  0
 19 25  1  0  0  0  0
 20  5  1  0  0  0  0
 21  3  1  1  0  0  0
 21 22  1  0  0  0  0
 21 27  1  0  0  0  0
 23 24  1  6  0  0  0
 23 29  1  0  0  0  0
 25 26  1  6  0  0  0
 25 31  1  0  0  0  0
 27  7  1  1  0  0  0
 27 28  1  0  0  0  0
 29 30  1  1  0  0  0
 29 33  1  0  0  0  0
 31 32  1  1  0  0  0
 31 35  1  0  0  0  0
 33 34  1  0  0  0  0
 33 37  1  6  0  0  0
 35 36  1  6  0  0  0
 37 38  1  0  0  0  0
M  END
>  <CHROM.1>
45.93064694,97.97759918,-96.78030657,-178.86121359,112.23914174,-71.75676722
135.48194750,-58.94653625,-29.51882988,-142.28880254,-47.61795785,19.24709470
28.80521623,-1.18165384,-1.81175976,0.75710278,-3.00690305

>  <Name>
1ntb_lig

>  <RI>
0

>  <Rbt.Current_Directory>
/home/itssahil/PROJECTS/Mol_Feturizer/New_Systems/rnas/1ntb

>  <Rbt.Executable>
rbdock ($Id: //depot/dev/client3/rdock/2013.1/src/exe/rbdock.cxx#4 $)

>  <Rbt.Library>
libRbt.so (2013.1, Build901 2013/11/27)

>  <Rbt.Parameter_File>
/export/apps/rDock/src/rDock_2013.1_src/data/scripts/dock_solv.prm

>  <Rbt.Receptor>
prm/blind_docking_80.prm

>  <SCORE>
0.703841

>  <SCORE.INTER>
-2.52284

>  <SCORE.INTER.CONST>
1

>  <SCORE.INTER.POLAR>
0

>  <SCORE.INTER.ROT>
11

>  <SCORE.INTER.SOLV>
17.3585

>  <SCORE.INTER.VDW>
-18.4014

>  <SCORE.INTER.norm>
-0.063071

>  <SCORE.INTRA>
2.00108

>  <SCORE.INTRA.DIHEDRAL>
7.19527

>  <SCORE.INTRA.DIHEDRAL.0>
15.4453

>  <SCORE.INTRA.POLAR>
0

>  <SCORE.INTRA.POLAR.0>
0

>  <SCORE.INTRA.REPUL>
-0.823958

>  <SCORE.INTRA.REPUL.0>
0.823958

>  <SCORE.INTRA.SOLV>
3.28625

>  <SCORE.INTRA.SOLV.lig_0>
-99.3069

>  <SCORE.INTRA.VDW>
0.880105

>  <SCORE.INTRA.VDW.0>
0.946495

>  <SCORE.INTRA.norm>
0.050027

>  <SCORE.RESTR>
1.2256

>  <SCORE.RESTR.CAVITY>
1.2256

>  <SCORE.RESTR.norm>
0.03064

>  <SCORE.SYSTEM>
0

>  <SCORE.SYSTEM.CONST>
0

>  <SCORE.SYSTEM.DIHEDRAL>
0

>  <SCORE.SYSTEM.SOLV>
0

>  <SCORE.SYSTEM.norm>
0

>  <SCORE.heavy>
40

>  <SCORE.norm>
0.017596

>  <RMSD>
18.684

$$$$
1ntb_lig
 OpenBabel11021811403D
libRbt.so/2013.1/901 2013/11/27
 40 42  0  0  0  0  0  0  0  0999 V2000
   18.8615   34.6024   -2.3222 C   0  0  0  0  0  0  0  0  0  0  0  0
   19.9745   35.2005   -2.1386 N   0  0  0  0  0  0  0  0  0  0  0  0
   21.1848   27.9140    2.6065 C   0  0  0  0  0  0  0  0  0  0  0  0
   21.3835   29.2371    2.1372 O   0  0  0  0  0  0  0  0  0  0  0  0
   15.3536   29.0641   -1.9030 C   0  0  0  0  0  0  0  0  0  0  0  0
   15.5046   27.8359   -2.2507 N   0  0  0  0  0  0  0  0  0  0  0  0
   18.1223   28.0023    3.6988 C   0  0  0  0  0  0  0  0  0  0  0  0
   23.4198   23.9100   -0.2730 C   0  0  0  0  0  0  0  0  0  0  0  0
   18.4331   32.4102   -1.5628 C   0  0  2  0  0  0  0  0  0  0  0  0
   18.4152   33.9004   -1.2984 N   0  0  0  0  0  0  0  0  0  0  0  0
   18.4059   27.4973    0.2318 C   0  0  2  0  0  0  0  0  0  0  0  0
   21.0362   26.0225   -0.9475 C   0  0  1  0  0  0  0  0  0  0  0  0
   20.1950   25.9958    0.1908 O   0  0  0  0  0  0  0  0  0  0  0  0
   17.1336   31.7580   -1.1036 C   0  0  1  0  0  0  0  0  0  0  0  0
   16.0612   32.4711   -1.8607 O   0  0  0  0  0  0  0  0  0  0  0  0
   19.8593   27.2459    0.5901 C   0  0  2  0  0  0  0  0  0  0  0  0
   21.3162   24.6023   -1.3756 C   0  0  1  0  0  0  0  0  0  0  0  0
   21.9857   23.9083   -0.3327 N   0  0  0  0  0  0  0  0  0  0  0  0
   17.1155   30.2465   -1.3221 C   0  0  2  0  0  0  0  0  0  0  0  0
   15.9004   29.5765   -0.9068 N   0  0  0  0  0  0  0  0  0  0  0  0
   19.8696   27.3790    2.0898 C   0  0  1  0  0  0  0  0  0  0  0  0
   19.5823   26.1139    2.6949 O   0  0  0  0  0  0  0  0  0  0  0  0
   19.9850   23.9309   -1.6681 C   0  0  2  0  0  0  0  0  0  0  0  0
   20.1891   22.5923   -2.0647 O   0  0  0  0  0  0  0  0  0  0  0  0
   18.2732   29.6523   -0.5627 C   0  0  1  0  0  0  0  0  0  0  0  0
   18.3085   28.2560   -0.9690 O   0  0  0  0  0  0  0  0  0  0  0  0
   18.7706   28.3333    2.3796 C   0  0  1  0  0  0  0  0  0  0  0  0
   17.8178   28.2124    1.3209 O   0  0  0  0  0  0  0  0  0  0  0  0
   19.3233   24.7253   -2.7943 C   0  0  1  0  0  0  0  0  0  0  0  0
   18.0637   24.1602   -3.1230 O   0  0  0  0  0  0  0  0  0  0  0  0
   19.6089   30.2712   -1.0559 C   0  0  2  0  0  0  0  0  0  0  0  0
   20.6860   29.6883   -0.3387 O   0  0  0  0  0  0  0  0  0  0  0  0
   19.1439   26.1741   -2.3396 C   0  0  1  0  0  0  0  0  0  0  0  0
   20.4110   26.7402   -2.0088 O   0  0  0  0  0  0  0  0  0  0  0  0
   19.5915   31.7917   -0.8070 C   0  0  1  0  0  0  0  0  0  0  0  0
   20.8185   32.3783   -1.2570 O   0  0  0  0  0  0  0  0  0  0  0  0
   18.5117   26.9763   -3.4772 C   0  0  0  0  0  0  0  0  0  0  0  0
   19.3814   26.9599   -4.5978 O   0  0  0  0  0  0  0  0  0  0  0  0
   18.2249   34.6562   -3.4392 N   0  0  0  0  0  0  0  0  0  0  0  0
   14.6691   29.8202   -2.6146 N   0  0  0  0  0  0  0  0  0  0  0  0
  1  2  1  0  0  0  0
  1 39  1  0  0  0  0
  3  4  1  0  0  0  0
  5  6  1  0  0  0  0
  5 40  1  0  0  0  0
  9 10  1  1  0  0  0
  9 14  1  0  0  0  0
  9 35  1  0  0  0  0
 10  1  1  0  0  0  0
 11 16  1  0  0  0  0
 11 28  1  0  0  0  0
 11 26  1  6  0  0  0
 12 17  1  0  0  0  0
 12 34  1  0  0  0  0
 12 13  1  1  0  0  0
 14 15  1  6  0  0  0
 14 19  1  0  0  0  0
 16 13  1  1  0  0  0
 16 21  1  0  0  0  0
 17 18  1  1  0  0  0
 17 23  1  0  0  0  0
 18  8  1  0  0  0  0
 19 20  1  1  0  0  0
 19 25  1  0  0  0  0
 20  5  1  0  0  0  0
 21  3  1  1  0  0  0
 21 22  1  0  0  0  0
 21 27  1  0  0  0  0
 23 24  1  6  0  0  0
 23 29  1  0  0  0  0
 25 26  1  6  0  0  0
 25 31  1  0  0  0  0
 27  7  1  1  0  0  0
 27 28  1  0  0  0  0
 29 30  1  1  0  0  0
 29 33  1  0  0  0  0
 31 32  1  1  0  0  0
 31 35  1  0  0  0  0
 33 34  1  0  0  0  0
 33 37  1  6  0  0  0
 35 36  1  6  0  0  0
 37 38  1  0  0  0  0
M  END
>  <CHROM.1>
-135.23538498,-111.85388857,-91.16876420,-177.34313150,107.05687183,-90.18875794
116.86436329,96.04391076,64.53459098,-131.61251928,-61.65153736,19.04566761
28.46363664,-0.86383292,-2.08331674,0.94669247,-2.83345686

>  <Name>
1ntb_lig

>  <RI>
0

>  <Rbt.Current_Directory>
/home/itssahil/PROJECTS/Mol_Feturizer/New_Systems/rnas/1ntb

>  <Rbt.Executable>
rbdock ($Id: //depot/dev/client3/rdock/2013.1/src/exe/rbdock.cxx#4 $)

>  <Rbt.Library>
libRbt.so (2013.1, Build901 2013/11/27)

>  <Rbt.Parameter_File>
/export/apps/rDock/src/rDock_2013.1_src/data/scripts/dock_solv.prm

>  <Rbt.Receptor>
prm/blind_docking_80.prm

>  <SCORE>
-6.58003

>  <SCORE.INTER>
-3.58655

>  <SCORE.INTER.CONST>
1

>  <SCORE.INTER.POLAR>
0

>  <SCORE.INTER.ROT>
11

>  <SCORE.INTER.SOLV>
21.5908

>  <SCORE.INTER.VDW>
-20.5213

>  <SCORE.INTER.norm>
-0.0896637

>  <SCORE.INTRA>
-3.83073

>  <SCORE.INTRA.DIHEDRAL>
5.17419

>  <SCORE.INTRA.DIHEDRAL.0>
15.4453

>  <SCORE.INTRA.POLAR>
0

>  <SCORE.INTRA.POLAR.0>
0

>  <SCORE.INTRA.REPUL>
-0.823958

>  <SCORE.INTRA.REPUL.0>
0.823958

>  <SCORE.INTRA.SOLV>
0.600939

>  <SCORE.INTRA.SOLV.lig_0>
-99.3069

>  <SCORE.INTRA.VDW>
-2.59851

>  <SCORE.INTRA.VDW.0>
0.946495

>  <SCORE.INTRA.norm>
-0.0957684

>  <SCORE.RESTR>
0.83725

>  <SCORE.RESTR.CAVITY>
0.83725

>  <SCORE.RESTR.norm>
0.0209313

>  <SCORE.SYSTEM>
0

>  <SCORE.SYSTEM.CONST>
0

>  <SCORE.SYSTEM.DIHEDRAL>
0

>  <SCORE.SYSTEM.SOLV>
0

>  <SCORE.SYSTEM.norm>
0

>  <SCORE.heavy>
40

>  <SCORE.norm>
-0.164501

>  <RMSD>
18.691

$$$$
1ntb_lig
 OpenBabel11021811403D
libRbt.so/2013.1/901 2013/11/27
 40 42  0  0  0  0  0  0  0  0999 V2000
   18.1711   35.2417   -0.4914 C   0  0  0  0  0  0  0  0  0  0  0  0
   19.1455   36.0660   -0.4565 N   0  0  0  0  0  0  0  0  0  0  0  0
   22.4924   26.6540   -0.4107 C   0  0  0  0  0  0  0  0  0  0  0  0
   22.6496   26.1617   -1.7310 O   0  0  0  0  0  0  0  0  0  0  0  0
   16.0853   29.6114   -2.2994 C   0  0  0  0  0  0  0  0  0  0  0  0
   16.3584   28.6979   -3.1614 N   0  0  0  0  0  0  0  0  0  0  0  0
   20.9781   28.2518    1.9839 C   0  0  0  0  0  0  0  0  0  0  0  0
   22.0794   23.2440   -1.8488 C   0  0  0  0  0  0  0  0  0  0  0  0
   18.1244   33.5985   -2.1836 C   0  0  2  0  0  0  0  0  0  0  0  0
   17.6999   34.9658   -1.6923 N   0  0  0  0  0  0  0  0  0  0  0  0
   19.5123   28.6678   -1.1837 C   0  0  2  0  0  0  0  0  0  0  0  0
   20.2666   25.8426   -3.1009 C   0  0  1  0  0  0  0  0  0  0  0  0
   19.6679   26.4800   -1.9876 O   0  0  0  0  0  0  0  0  0  0  0  0
   17.2671   32.5029   -1.5594 C   0  0  1  0  0  0  0  0  0  0  0  0
   15.8658   32.8506   -1.9431 O   0  0  0  0  0  0  0  0  0  0  0  0
   20.4258   27.5083   -1.5369 C   0  0  2  0  0  0  0  0  0  0  0  0
   20.1453   24.3482   -2.9257 C   0  0  1  0  0  0  0  0  0  0  0  0
   20.8305   23.9443   -1.7490 N   0  0  0  0  0  0  0  0  0  0  0  0
   17.6775   31.0999   -2.0019 C   0  0  2  0  0  0  0  0  0  0  0  0
   16.8916   30.0203   -1.4411 N   0  0  0  0  0  0  0  0  0  0  0  0
   21.0900   27.1845   -0.2250 C   0  0  1  0  0  0  0  0  0  0  0  0
   20.2995   26.2389    0.5030 O   0  0  0  0  0  0  0  0  0  0  0  0
   18.6691   24.0099   -2.8030 C   0  0  2  0  0  0  0  0  0  0  0  0
   18.4989   22.6205   -2.6267 O   0  0  0  0  0  0  0  0  0  0  0  0
   19.1192   30.8931   -1.6159 C   0  0  1  0  0  0  0  0  0  0  0  0
   19.4929   29.6298   -2.2331 O   0  0  0  0  0  0  0  0  0  0  0  0
   21.1159   28.4788    0.5007 C   0  0  1  0  0  0  0  0  0  0  0  0
   20.0157   29.2539    0.0190 O   0  0  0  0  0  0  0  0  0  0  0  0
   17.9977   24.4691   -4.0974 C   0  0  1  0  0  0  0  0  0  0  0  0
   16.6066   24.1915   -4.0574 O   0  0  0  0  0  0  0  0  0  0  0  0
   20.0113   31.9725   -2.2861 C   0  0  2  0  0  0  0  0  0  0  0  0
   21.3649   31.7511   -1.9215 O   0  0  0  0  0  0  0  0  0  0  0  0
   18.2266   25.9711   -4.2686 C   0  0  1  0  0  0  0  0  0  0  0  0
   19.6255   26.2484   -4.3078 O   0  0  0  0  0  0  0  0  0  0  0  0
   19.5735   33.3694   -1.8050 C   0  0  1  0  0  0  0  0  0  0  0  0
   20.3881   34.3778   -2.4149 O   0  0  0  0  0  0  0  0  0  0  0  0
   17.5830   26.4247   -5.5791 C   0  0  0  0  0  0  0  0  0  0  0  0
   17.8814   25.4811   -6.5955 O   0  0  0  0  0  0  0  0  0  0  0  0
   17.6612   34.7301    0.5735 N   0  0  0  0  0  0  0  0  0  0  0  0
   14.9764   30.1733   -2.3358 N   0  0  0  0  0  0  0  0  0  0  0  0
  1  2  1  0  0  0  0
  1 39  1  0  0  0  0
  3  4  1  0  0  0  0
  5  6  1  0  0  0  0
  5 40  1  0  0  0  0
  9 10  1  1  0  0  0
  9 14  1  0  0  0  0
  9 35  1  0  0  0  0
 10  1  1  0  0  0  0
 11 16  1  0  0  0  0
 11 28  1  0  0  0  0
 11 26  1  6  0  0  0
 12 17  1  0  0  0  0
 12 34  1  0  0  0  0
 12 13  1  1  0  0  0
 14 15  1  6  0  0  0
 14 19  1  0  0  0  0
 16 13  1  1  0  0  0
 16 21  1  0  0  0  0
 17 18  1  1  0  0  0
 17 23  1  0  0  0  0
 18  8  1  0  0  0  0
 19 20  1  1  0  0  0
 19 25  1  0  0  0  0
 20  5  1  0  0  0  0
 21  3  1  6  0  0  0
 21 22  1  0  0  0  0
 21 27  1  0  0  0  0
 23 24  1  6  0  0  0
 23 29  1  0  0  0  0
 25 26  1  6  0  0  0
 25 31  1  0  0  0  0
 27  7  1  1  0  0  0
 27 28  1  0  0  0  0
 29 30  1  1  0  0  0
 29 33  1  0  0  0  0
 31 32  1  1  0  0  0
 31 35  1  0  0  0  0
 33 34  1  0  0  0  0
 33 37  1  6  0  0  0
 35 36  1  6  0  0  0
 37 38  1  0  0  0  0
M  END
>  <CHROM.1>
79.34441511,104.73999455,-155.62034132,136.60247609,138.88435178,-106.79518308
102.62192067,87.90869601,-20.45807714,-103.92261288,-43.49160212,19.08233384
28.77675901,-1.99718832,-1.73984084,0.63392640,-2.86395993

>  <Name>
1ntb_lig

>  <RI>
0

>  <Rbt.Current_Directory>
/home/itssahil/PROJECTS/Mol_Feturizer/New_Systems/rnas/1ntb

>  <Rbt.Executable>
rbdock ($Id: //depot/dev/client3/rdock/2013.1/src/exe/rbdock.cxx#4 $)

>  <Rbt.Library>
libRbt.so (2013.1, Build901 2013/11/27)

>  <Rbt.Parameter_File>
/export/apps/rDock/src/rDock_2013.1_src/data/scripts/dock_solv.prm

>  <Rbt.Receptor>
prm/blind_docking_100.prm

>  <SCORE>
-0.380178

>  <SCORE.INTER>
-2.73043

>  <SCORE.INTER.CONST>
1

>  <SCORE.INTER.POLAR>
-0.647883

>  <SCORE.INTER.ROT>
11

>  <SCORE.INTER.SOLV>
16.4649

>  <SCORE.INTER.VDW>
-16.0823

>  <SCORE.INTER.norm>
-0.0682607

>  <SCORE.INTRA>
2.34742

>  <SCORE.INTRA.DIHEDRAL>
12.8006

>  <SCORE.INTRA.DIHEDRAL.0>
15.4453

>  <SCORE.INTRA.POLAR>
0

>  <SCORE.INTRA.POLAR.0>
0

>  <SCORE.INTRA.REPUL>
-0.823958

>  <SCORE.INTRA.REPUL.0>
0.823958

>  <SCORE.INTRA.SOLV>
3.19031

>  <SCORE.INTRA.SOLV.lig_0>
-99.3069

>  <SCORE.INTRA.VDW>
-1.52823

>  <SCORE.INTRA.VDW.0>
0.946495

>  <SCORE.INTRA.norm>
0.0586856

>  <SCORE.RESTR>
0.00282437

>  <SCORE.RESTR.CAVITY>
0.00282437

>  <SCORE.RESTR.norm>
7.06093e-05

>  <SCORE.SYSTEM>
0

>  <SCORE.SYSTEM.CONST>
0

>  <SCORE.SYSTEM.DIHEDRAL>
0

>  <SCORE.SYSTEM.SOLV>
0

>  <SCORE.SYSTEM.norm>
0

>  <SCORE.heavy>
40

>  <SCORE.norm>
-0.00950446

>  <RMSD>
18.694

$$$$
1ntb_lig
 OpenBabel11021811403D
libRbt.so/2013.1/901 2013/11/27
 40 42  0  0  0  0  0  0  0  0999 V2000
   17.6041   20.1039    1.6143 C   0  0  0  0  0  0  0  0  0  0  0  0
   17.5827   19.2304    0.6834 N   0  0  0  0  0  0  0  0  0  0  0  0
   21.1130   30.4813    1.0109 C   0  0  0  0  0  0  0  0  0  0  0  0
   21.7017   31.4750    0.1885 O   0  0  0  0  0  0  0  0  0  0  0  0
   17.8913   24.7341   -2.0242 C   0  0  0  0  0  0  0  0  0  0  0  0
   16.6788   25.0984   -1.8023 N   0  0  0  0  0  0  0  0  0  0  0  0
   23.1848   28.0858    0.2697 C   0  0  0  0  0  0  0  0  0  0  0  0
   18.6042   32.9750   -0.0161 C   0  0  0  0  0  0  0  0  0  0  0  0
   18.3889   22.3283    1.5734 C   0  0  2  0  0  0  0  0  0  0  0  0
   18.6914   20.8486    1.6731 N   0  0  0  0  0  0  0  0  0  0  0  0
   19.8002   27.1389    0.2111 C   0  0  2  0  0  0  0  0  0  0  0  0
   17.6969   29.7134   -0.4552 C   0  0  1  0  0  0  0  0  0  0  0  0
   18.8759   29.0200   -0.8205 O   0  0  0  0  0  0  0  0  0  0  0  0
   18.7606   22.8707    0.1976 C   0  0  1  0  0  0  0  0  0  0  0  0
   17.9663   22.0478   -0.7635 O   0  0  0  0  0  0  0  0  0  0  0  0
   19.5867   28.6406    0.2683 C   0  0  2  0  0  0  0  0  0  0  0  0
   17.6547   31.0236   -1.2036 C   0  0  1  0  0  0  0  0  0  0  0  0
   18.7770   31.8178   -0.8475 N   0  0  0  0  0  0  0  0  0  0  0  0
   18.5015   24.3694    0.0577 C   0  0  2  0  0  0  0  0  0  0  0  0
   18.8334   24.9361   -1.2332 N   0  0  0  0  0  0  0  0  0  0  0  0
   20.9897   29.1865    0.2421 C   0  0  1  0  0  0  0  0  0  0  0  0
   21.4152   29.3767   -1.1114 O   0  0  0  0  0  0  0  0  0  0  0  0
   17.6946   30.7143   -2.6907 C   0  0  2  0  0  0  0  0  0  0  0  0
   17.6674   31.9097   -3.4397 O   0  0  0  0  0  0  0  0  0  0  0  0
   19.3058   25.0815    1.1141 C   0  0  1  0  0  0  0  0  0  0  0  0
   18.8652   26.4663    1.0479 O   0  0  0  0  0  0  0  0  0  0  0  0
   21.8072   28.1242    0.8789 C   0  0  1  0  0  0  0  0  0  0  0  0
   21.1358   26.8829    0.6515 O   0  0  0  0  0  0  0  0  0  0  0  0
   16.4639   29.8623   -3.0019 C   0  0  1  0  0  0  0  0  0  0  0  0
   16.4327   29.5249   -4.3799 O   0  0  0  0  0  0  0  0  0  0  0  0
   18.9013   24.5750    2.5248 C   0  0  2  0  0  0  0  0  0  0  0  0
   19.6593   25.2678    3.5044 O   0  0  0  0  0  0  0  0  0  0  0  0
   16.5137   28.5915   -2.1531 C   0  0  1  0  0  0  0  0  0  0  0  0
   16.5459   28.9326   -0.7683 O   0  0  0  0  0  0  0  0  0  0  0  0
   19.1890   23.0648    2.6285 C   0  0  1  0  0  0  0  0  0  0  0  0
   18.8210   22.5814    3.9259 O   0  0  0  0  0  0  0  0  0  0  0  0
   15.2670   27.7543   -2.4401 C   0  0  0  0  0  0  0  0  0  0  0  0
   14.1117   28.5361   -2.1821 O   0  0  0  0  0  0  0  0  0  0  0  0
   16.6423   20.2365    2.4587 N   0  0  0  0  0  0  0  0  0  0  0  0
   18.1573   24.0946   -3.0572 N   0  0  0  0  0  0  0  0  0  0  0  0
  1  2  1  0  0  0  0
  1 39  1  0  0  0  0
  3  4  1  0  0  0  0
  5  6  1  0  0  0  0
  5 40  1  0  0  0  0
  9 10  1  6  0  0  0
  9 14  1  0  0  0  0
  9 35  1  0  0  0  0
 10  1  1  0  0  0  0
 11 16  1  0  0  0  0
 11 28  1  0  0  0  0
 11 26  1  1  0  0  0
 12 17  1  0  0  0  0
 12 34  1  0  0  0  0
 12 13  1  6  0  0  0
 14 15  1  6  0  0  0
 14 19  1  0  0  0  0
 16 13  1  6  0  0  0
 16 21  1  0  0  0  0
 17 18  1  1  0  0  0
 17 23  1  0  0  0  0
 18  8  1  0  0  0  0
 19 20  1  6  0  0  0
 19 25  1  0  0  0  0
 20  5  1  0  0  0  0
 21  3  1  1  0  0  0
 21 22  1  0  0  0  0
 21 27  1  0  0  0  0
 23 24  1  6  0  0  0
 23 29  1  0  0  0  0
 25 26  1  1  0  0  0
 25 31  1  0  0  0  0
 27  7  1  6  0  0  0
 27 28  1  0  0  0  0
 29 30  1  6  0  0  0
 29 33  1  0  0  0  0
 31 32  1  1  0  0  0
 31 35  1  0  0  0  0
 33 34  1  0  0  0  0
 33 37  1  1  0  0  0
 35 36  1  1  0  0  0
 37 38  1  0  0  0  0
M  END
>  <CHROM.1>
-105.04738628,122.82406510,-169.81183512,127.68945574,124.08339749,-107.59905318
82.39114198,55.63667995,-126.89908227,-95.59802357,-56.73877033,18.59026117
26.74960292,-0.20305430,1.60640157,0.65507350,2.80334297

>  <Name>
1ntb_lig

>  <RI>
0

>  <Rbt.Current_Directory>
/home/itssahil/PROJECTS/Mol_Feturizer/New_Systems/rnas/1ntb

>  <Rbt.Executable>
rbdock ($Id: //depot/dev/client3/rdock/2013.1/src/exe/rbdock.cxx#4 $)

>  <Rbt.Library>
libRbt.so (2013.1, Build901 2013/11/27)

>  <Rbt.Parameter_File>
/export/apps/rDock/src/rDock_2013.1_src/data/scripts/dock_solv.prm

>  <Rbt.Receptor>
prm/blind_docking_40.prm

>  <SCORE>
-9.67822

>  <SCORE.INTER>
-6.59193

>  <SCORE.INTER.CONST>
1

>  <SCORE.INTER.POLAR>
-0.195118

>  <SCORE.INTER.ROT>
11

>  <SCORE.INTER.SOLV>
17.7622

>  <SCORE.INTER.VDW>
-20.5983

>  <SCORE.INTER.norm>
-0.164798

>  <SCORE.INTRA>
-3.16955

>  <SCORE.INTRA.DIHEDRAL>
12.2305

>  <SCORE.INTRA.DIHEDRAL.0>
15.4453

>  <SCORE.INTRA.POLAR>
0

>  <SCORE.INTRA.POLAR.0>
0

>  <SCORE.INTRA.REPUL>
-0.823958

>  <SCORE.INTRA.REPUL.0>
0.823958

>  <SCORE.INTRA.SOLV>
0.769622

>  <SCORE.INTRA.SOLV.lig_0>
-99.3069

>  <SCORE.INTRA.VDW>
-5.54983

>  <SCORE.INTRA.VDW.0>
0.946495

>  <SCORE.INTRA.norm>
-0.0792387

>  <SCORE.RESTR>
0.0832558

>  <SCORE.RESTR.CAVITY>
0.0832558

>  <SCORE.RESTR.norm>
0.0020814

>  <SCORE.SYSTEM>
0

>  <SCORE.SYSTEM.CONST>
0

>  <SCORE.SYSTEM.DIHEDRAL>
0

>  <SCORE.SYSTEM.SOLV>
0

>  <SCORE.SYSTEM.norm>
0

>  <SCORE.heavy>
40

>  <SCORE.norm>
-0.241956

>  <RMSD>
18.695

$$$$
1ntb_lig
 OpenBabel11021811403D
libRbt.so/2013.1/901 2013/11/27
 40 42  0  0  0  0  0  0  0  0999 V2000
   19.3097   34.9637   -1.4442 C   0  0  0  0  0  0  0  0  0  0  0  0
   19.9499   35.3437   -0.4070 N   0  0  0  0  0  0  0  0  0  0  0  0
   15.5941   24.9146   -1.7097 C   0  0  0  0  0  0  0  0  0  0  0  0
   14.4373   24.6986   -2.5006 O   0  0  0  0  0  0  0  0  0  0  0  0
   21.2608   28.6088   -0.1946 C   0  0  0  0  0  0  0  0  0  0  0  0
   21.4419   29.2743    0.8900 N   0  0  0  0  0  0  0  0  0  0  0  0
   15.3894   26.8073   -4.3470 C   0  0  0  0  0  0  0  0  0  0  0  0
   18.6396   21.8312   -3.4512 C   0  0  0  0  0  0  0  0  0  0  0  0
   19.3875   32.6068   -1.5146 C   0  0  2  0  0  0  0  0  0  0  0  0
   19.8272   33.9361   -2.0896 N   0  0  0  0  0  0  0  0  0  0  0  0
   18.0619   27.5977   -2.2050 C   0  0  2  0  0  0  0  0  0  0  0  0
   18.5548   24.2081   -1.0148 C   0  0  1  0  0  0  0  0  0  0  0  0
   18.7894   25.4455   -1.6613 O   0  0  0  0  0  0  0  0  0  0  0  0
   20.4684   31.5473   -1.6985 C   0  0  1  0  0  0  0  0  0  0  0  0
   21.6721   32.1084   -1.0142 O   0  0  0  0  0  0  0  0  0  0  0  0
   17.7056   26.2551   -1.5931 C   0  0  2  0  0  0  0  0  0  0  0  0
   19.5120   23.1822   -1.5715 C   0  0  1  0  0  0  0  0  0  0  0  0
   19.2846   23.0172   -2.9638 N   0  0  0  0  0  0  0  0  0  0  0  0
   20.0588   30.1779   -1.1603 C   0  0  2  0  0  0  0  0  0  0  0  0
   21.0524   29.1342   -1.3057 N   0  0  0  0  0  0  0  0  0  0  0  0
   16.5831   25.7670   -2.4699 C   0  0  1  0  0  0  0  0  0  0  0  0
   17.1127   25.0336   -3.5793 O   0  0  0  0  0  0  0  0  0  0  0  0
   20.9261   23.6866   -1.3377 C   0  0  2  0  0  0  0  0  0  0  0  0
   21.8646   22.7661   -1.8502 O   0  0  0  0  0  0  0  0  0  0  0  0
   18.8064   29.7502   -1.8805 C   0  0  1  0  0  0  0  0  0  0  0  0
   18.3715   28.5463   -1.1894 O   0  0  0  0  0  0  0  0  0  0  0  0
   15.9326   27.0091   -2.9562 C   0  0  1  0  0  0  0  0  0  0  0  0
   16.9307   28.0323   -2.9632 O   0  0  0  0  0  0  0  0  0  0  0  0
   21.1004   23.8397    0.1734 C   0  0  1  0  0  0  0  0  0  0  0  0
   22.4028   24.3161    0.4743 O   0  0  0  0  0  0  0  0  0  0  0  0
   17.6803   30.7959   -1.6598 C   0  0  2  0  0  0  0  0  0  0  0  0
   16.5071   30.3673   -2.3337 O   0  0  0  0  0  0  0  0  0  0  0  0
   20.0508   24.8209    0.6963 C   0  0  1  0  0  0  0  0  0  0  0  0
   18.7423   24.3409    0.3921 O   0  0  0  0  0  0  0  0  0  0  0  0
   18.1275   32.1573   -2.2262 C   0  0  1  0  0  0  0  0  0  0  0  0
   17.0982   33.1342   -2.0304 O   0  0  0  0  0  0  0  0  0  0  0  0
   20.2039   24.9497    2.2121 C   0  0  0  0  0  0  0  0  0  0  0  0
   19.8900   23.7066    2.8190 O   0  0  0  0  0  0  0  0  0  0  0  0
   18.2431   35.5564   -1.8527 N   0  0  0  0  0  0  0  0  0  0  0  0
   21.3458   27.3683   -0.1710 N   0  0  0  0  0  0  0  0  0  0  0  0
  1  2  1  0  0  0  0
  1 39  1  0  0  0  0
  3  4  1  0  0  0  0
  5  6  1  0  0  0  0
  5 40  1  0  0  0  0
  9 10  1  6  0  0  0
  9 14  1  0  0  0  0
  9 35  1  0  0  0  0
 10  1  1  0  0  0  0
 11 16  1  0  0  0  0
 11 28  1  0  0  0  0
 11 26  1  1  0  0  0
 12 17  1  0  0  0  0
 12 34  1  0  0  0  0
 12 13  1  6  0  0  0
 14 15  1  1  0  0  0
 14 19  1  0  0  0  0
 16 13  1  6  0  0  0
 16 21  1  0  0  0  0
 17 18  1  6  0  0  0
 17 23  1  0  0  0  0
 18  8  1  0  0  0  0
 19 20  1  6  0  0  0
 19 25  1  0  0  0  0
 20  5  1  0  0  0  0
 21  3  1  1  0  0  0
 21 22  1  0  0  0  0
 21 27  1  0  0  0  0
 23 24  1  1  0  0  0
 23 29  1  0  0  0  0
 25 26  1  1  0  0  0
 25 31  1  0  0  0  0
 27  7  1  6  0  0  0
 27 28  1  0  0  0  0
 29 30  1  6  0  0  0
 29 33  1  0  0  0  0
 31 32  1  6  0  0  0
 31 35  1  0  0  0  0
 33 34  1  0  0  0  0
 33 37  1  1  0  0  0
 35 36  1  1  0  0  0
 37 38  1  0  0  0  0
M  END
>  <CHROM.1>
-149.24375880,85.32900226,175.22191137,157.57669470,175.54933305,-106.55589785
126.39490423,-46.00443273,168.76621645,-133.54216148,-65.49532773,18.93999642
27.73450968,-1.36952053,-1.57775046,0.56484753,3.10053213

>  <Name>
1ntb_lig

>  <RI>
0

>  <Rbt.Current_Directory>
/home/itssahil/PROJECTS/Mol_Feturizer/New_Systems/rnas/1ntb

>  <Rbt.Executable>
rbdock ($Id: //depot/dev/client3/rdock/2013.1/src/exe/rbdock.cxx#4 $)

>  <Rbt.Library>
libRbt.so (2013.1, Build901 2013/11/27)

>  <Rbt.Parameter_File>
/export/apps/rDock/src/rDock_2013.1_src/data/scripts/dock_solv.prm

>  <Rbt.Receptor>
prm/blind_docking_60.prm

>  <SCORE>
-4.35893

>  <SCORE.INTER>
3.65148

>  <SCORE.INTER.CONST>
1

>  <SCORE.INTER.POLAR>
0

>  <SCORE.INTER.ROT>
11

>  <SCORE.INTER.SOLV>
17.7104

>  <SCORE.INTER.VDW>
-14.4025

>  <SCORE.INTER.norm>
0.0912871

>  <SCORE.INTRA>
-8.86902

>  <SCORE.INTRA.DIHEDRAL>
-1.94701

>  <SCORE.INTRA.DIHEDRAL.0>
15.4453

>  <SCORE.INTRA.POLAR>
0

>  <SCORE.INTRA.POLAR.0>
0

>  <SCORE.INTRA.REPUL>
-0.823958

>  <SCORE.INTRA.REPUL.0>
0.823958

>  <SCORE.INTRA.SOLV>
2.51056

>  <SCORE.INTRA.SOLV.lig_0>
-99.3069

>  <SCORE.INTRA.VDW>
-5.03101

>  <SCORE.INTRA.VDW.0>
0.946495

>  <SCORE.INTRA.norm>
-0.221726

>  <SCORE.RESTR>
0.858611

>  <SCORE.RESTR.CAVITY>
0.858611

>  <SCORE.RESTR.norm>
0.0214653

>  <SCORE.SYSTEM>
0

>  <SCORE.SYSTEM.CONST>
0

>  <SCORE.SYSTEM.DIHEDRAL>
0

>  <SCORE.SYSTEM.SOLV>
0

>  <SCORE.SYSTEM.norm>
0

>  <SCORE.heavy>
40

>  <SCORE.norm>
-0.108973

>  <RMSD>
18.708

$$$$
1ntb_lig
 OpenBabel11021811403D
libRbt.so/2013.1/901 2013/11/27
 40 42  0  0  0  0  0  0  0  0999 V2000
   18.3147   35.2818   -1.9012 C   0  0  0  0  0  0  0  0  0  0  0  0
   19.4815   35.3055   -1.3835 N   0  0  0  0  0  0  0  0  0  0  0  0
   20.7091   24.8139    0.7942 C   0  0  0  0  0  0  0  0  0  0  0  0
   20.4804   24.0018    1.9337 O   0  0  0  0  0  0  0  0  0  0  0  0
   17.1289   29.4464   -3.2123 C   0  0  0  0  0  0  0  0  0  0  0  0
   16.4488   30.0566   -4.1162 N   0  0  0  0  0  0  0  0  0  0  0  0
   18.6329   26.2795    2.8243 C   0  0  0  0  0  0  0  0  0  0  0  0
   22.4549   23.6142   -2.0152 C   0  0  0  0  0  0  0  0  0  0  0  0
   18.4857   32.9553   -1.5489 C   0  0  2  0  0  0  0  0  0  0  0  0
   17.6144   34.1860   -1.6798 N   0  0  0  0  0  0  0  0  0  0  0  0
   19.0211   27.9054   -0.2678 C   0  0  2  0  0  0  0  0  0  0  0  0
   19.8690   25.9922   -2.8428 C   0  0  1  0  0  0  0  0  0  0  0  0
   19.0454   26.0548   -1.6931 O   0  0  0  0  0  0  0  0  0  0  0  0
   17.9794   31.8294   -2.4439 C   0  0  1  0  0  0  0  0  0  0  0  0
   17.9882   32.4054   -3.8223 O   0  0  0  0  0  0  0  0  0  0  0  0
   19.7011   26.6008   -0.6412 C   0  0  2  0  0  0  0  0  0  0  0  0
   20.3962   24.5848   -2.9843 C   0  0  1  0  0  0  0  0  0  0  0  0
   21.1774   24.2468   -1.8474 N   0  0  0  0  0  0  0  0  0  0  0  0
   18.8098   30.5532   -2.3240 C   0  0  2  0  0  0  0  0  0  0  0  0
   18.3743   29.4518   -3.1576 N   0  0  0  0  0  0  0  0  0  0  0  0
   19.5543   25.7697    0.6058 C   0  0  1  0  0  0  0  0  0  0  0  0
   18.3193   25.0467    0.5688 O   0  0  0  0  0  0  0  0  0  0  0  0
   19.2049   23.6473   -3.0868 C   0  0  2  0  0  0  0  0  0  0  0  0
   19.6429   22.3119   -3.2113 O   0  0  0  0  0  0  0  0  0  0  0  0
   18.7739   30.1079   -0.8851 C   0  0  1  0  0  0  0  0  0  0  0  0
   19.7307   29.0147   -0.8091 O   0  0  0  0  0  0  0  0  0  0  0  0
   19.5186   26.7649    1.7061 C   0  0  1  0  0  0  0  0  0  0  0  0
   18.9976   27.9787    1.1596 O   0  0  0  0  0  0  0  0  0  0  0  0
   18.4135   24.0662   -4.3259 C   0  0  1  0  0  0  0  0  0  0  0  0
   17.2740   23.2361   -4.4879 O   0  0  0  0  0  0  0  0  0  0  0  0
   19.3345   31.2265    0.0340 C   0  0  2  0  0  0  0  0  0  0  0  0
   19.3050   30.7816    1.3814 O   0  0  0  0  0  0  0  0  0  0  0  0
   17.9804   25.5241   -4.1677 C   0  0  1  0  0  0  0  0  0  0  0  0
   19.1271   26.3569   -4.0042 O   0  0  0  0  0  0  0  0  0  0  0  0
   18.4635   32.4896   -0.1072 C   0  0  1  0  0  0  0  0  0  0  0  0
   18.9680   33.5324    0.7357 O   0  0  0  0  0  0  0  0  0  0  0  0
   17.2167   25.9533   -5.4207 C   0  0  0  0  0  0  0  0  0  0  0  0
   17.9862   25.6316   -6.5682 O   0  0  0  0  0  0  0  0  0  0  0  0
   17.8562   36.2496   -2.6146 N   0  0  0  0  0  0  0  0  0  0  0  0
   16.5327   28.8520   -2.2969 N   0  0  0  0  0  0  0  0  0  0  0  0
  1  2  1  0  0  0  0
  1 39  1  0  0  0  0
  3  4  1  0  0  0  0
  5  6  1  0  0  0  0
  5 40  1  0  0  0  0
  9 10  1  1  0  0  0
  9 14  1  0  0  0  0
  9 35  1  0  0  0  0
 10  1  1  0  0  0  0
 11 16  1  0  0  0  0
 11 28  1  0  0  0  0
 11 26  1  6  0  0  0
 12 17  1  0  0  0  0
 12 34  1  0  0  0  0
 12 13  1  1  0  0  0
 14 15  1  6  0  0  0
 14 19  1  0  0  0  0
 16 13  1  6  0  0  0
 16 21  1  0  0  0  0
 17 18  1  1  0  0  0
 17 23  1  0  0  0  0
 18  8  1  0  0  0  0
 19 20  1  6  0  0  0
 19 25  1  0  0  0  0
 20  5  1  0  0  0  0
 21  3  1  1  0  0  0
 21 22  1  0  0  0  0
 21 27  1  0  0  0  0
 23 24  1  6  0  0  0
 23 29  1  0  0  0  0
 25 26  1  6  0  0  0
 25 31  1  0  0  0  0
 27  7  1  1  0  0  0
 27 28  1  0  0  0  0
 29 30  1  1  0  0  0
 29 33  1  0  0  0  0
 31 32  1  1  0  0  0
 31 35  1  0  0  0  0
 33 34  1  0  0  0  0
 33 37  1  6  0  0  0
 35 36  1  1  0  0  0
 37 38  1  0  0  0  0
M  END
>  <CHROM.1>
-129.94218060,-31.15826866,157.38264061,100.59342639,115.60484730,-133.72798192
-36.85085623,91.41978562,-176.42928770,-125.11081899,-51.18398505,18.86406989
28.19274119,-1.69489308,1.95119870,-1.24051722,0.44519468

>  <Name>
1ntb_lig

>  <RI>
0

>  <Rbt.Current_Directory>
/home/itssahil/PROJECTS/Mol_Feturizer/New_Systems/rnas/1ntb

>  <Rbt.Executable>
rbdock ($Id: //depot/dev/client3/rdock/2013.1/src/exe/rbdock.cxx#4 $)

>  <Rbt.Library>
libRbt.so (2013.1, Build901 2013/11/27)

>  <Rbt.Parameter_File>
/export/apps/rDock/src/rDock_2013.1_src/data/scripts/dock_solv.prm

>  <Rbt.Receptor>
prm/blind_docking_100.prm

>  <SCORE>
-4.40748

>  <SCORE.INTER>
-7.01602

>  <SCORE.INTER.CONST>
1

>  <SCORE.INTER.POLAR>
-0.6588

>  <SCORE.INTER.ROT>
11

>  <SCORE.INTER.SOLV>
19.5393

>  <SCORE.INTER.VDW>
-19.9278

>  <SCORE.INTER.norm>
-0.175401

>  <SCORE.INTRA>
0.726887

>  <SCORE.INTRA.DIHEDRAL>
10.4491

>  <SCORE.INTRA.DIHEDRAL.0>
15.4453

>  <SCORE.INTRA.POLAR>
0

>  <SCORE.INTRA.POLAR.0>
0

>  <SCORE.INTRA.REPUL>
-0.823958

>  <SCORE.INTRA.REPUL.0>
0.823958

>  <SCORE.INTRA.SOLV>
3.26589

>  <SCORE.INTRA.SOLV.lig_0>
-99.3069

>  <SCORE.INTRA.VDW>
-2.0108

>  <SCORE.INTRA.VDW.0>
0.946495

>  <SCORE.INTRA.norm>
0.0181722

>  <SCORE.RESTR>
1.88166

>  <SCORE.RESTR.CAVITY>
1.88166

>  <SCORE.RESTR.norm>
0.0470415

>  <SCORE.SYSTEM>
0

>  <SCORE.SYSTEM.CONST>
0

>  <SCORE.SYSTEM.DIHEDRAL>
0

>  <SCORE.SYSTEM.SOLV>
0

>  <SCORE.SYSTEM.norm>
0

>  <SCORE.heavy>
40

>  <SCORE.norm>
-0.110187

>  <RMSD>
18.717

$$$$
1ntb_lig
 OpenBabel11021811403D
libRbt.so/2013.1/901 2013/11/27
 40 42  0  0  0  0  0  0  0  0999 V2000
   17.2357   24.2886    6.0235 C   0  0  0  0  0  0  0  0  0  0  0  0
   16.2260   25.0520    5.8566 N   0  0  0  0  0  0  0  0  0  0  0  0
   21.2192   30.1768    1.4684 C   0  0  0  0  0  0  0  0  0  0  0  0
   20.3234   31.2352    1.1724 O   0  0  0  0  0  0  0  0  0  0  0  0
   19.4462   23.4943   -0.1811 C   0  0  0  0  0  0  0  0  0  0  0  0
   19.5127   23.9354   -1.3866 N   0  0  0  0  0  0  0  0  0  0  0  0
   23.3381   27.9724    0.3591 C   0  0  0  0  0  0  0  0  0  0  0  0
   17.3127   32.6175   -0.6744 C   0  0  0  0  0  0  0  0  0  0  0  0
   18.1753   25.0369    3.9929 C   0  0  2  0  0  0  0  0  0  0  0  0
   18.3560   24.6919    5.4555 N   0  0  0  0  0  0  0  0  0  0  0  0
   19.9797   27.2526   -0.3881 C   0  0  2  0  0  0  0  0  0  0  0  0
   17.8253   29.4872   -0.8280 C   0  0  1  0  0  0  0  0  0  0  0  0
   19.2309   29.3889   -0.9647 O   0  0  0  0  0  0  0  0  0  0  0  0
   19.2114   24.3238    3.1310 C   0  0  1  0  0  0  0  0  0  0  0  0
   19.0094   22.8713    3.4161 O   0  0  0  0  0  0  0  0  0  0  0  0
   19.7818   28.6902    0.0566 C   0  0  2  0  0  0  0  0  0  0  0  0
   17.3043   30.4502   -1.8671 C   0  0  1  0  0  0  0  0  0  0  0  0
   17.8715   31.7357   -1.6595 N   0  0  0  0  0  0  0  0  0  0  0  0
   19.0889   24.6644    1.6472 C   0  0  2  0  0  0  0  0  0  0  0  0
   20.0477   24.0095    0.7815 N   0  0  0  0  0  0  0  0  0  0  0  0
   21.1830   29.1498    0.3609 C   0  0  1  0  0  0  0  0  0  0  0  0
   21.7910   29.6807   -0.8213 O   0  0  0  0  0  0  0  0  0  0  0  0
   17.7070   29.9253   -3.2350 C   0  0  2  0  0  0  0  0  0  0  0  0
   17.2517   30.7969   -4.2467 O   0  0  0  0  0  0  0  0  0  0  0  0
   19.2484   26.1551    1.4970 C   0  0  1  0  0  0  0  0  0  0  0  0
   18.9302   26.4257    0.1035 O   0  0  0  0  0  0  0  0  0  0  0  0
   21.8912   27.9133    0.7755 C   0  0  1  0  0  0  0  0  0  0  0  0
   21.2393   26.8176    0.1292 O   0  0  0  0  0  0  0  0  0  0  0  0
   17.0644   28.5468   -3.3901 C   0  0  1  0  0  0  0  0  0  0  0  0
   17.4009   27.9841   -4.6486 O   0  0  0  0  0  0  0  0  0  0  0  0
   18.1667   26.8943    2.3301 C   0  0  2  0  0  0  0  0  0  0  0  0
   18.3258   28.2946    2.1634 O   0  0  0  0  0  0  0  0  0  0  0  0
   17.5587   27.6400   -2.2626 C   0  0  1  0  0  0  0  0  0  0  0  0
   17.2203   28.2077   -0.9983 O   0  0  0  0  0  0  0  0  0  0  0  0
   18.3323   26.5338    3.8190 C   0  0  1  0  0  0  0  0  0  0  0  0
   17.3406   27.2088    4.6021 O   0  0  0  0  0  0  0  0  0  0  0  0
   16.8915   26.2711   -2.3985 C   0  0  0  0  0  0  0  0  0  0  0  0
   15.4839   26.4294   -2.3208 O   0  0  0  0  0  0  0  0  0  0  0  0
   17.1652   23.1842    6.6800 N   0  0  0  0  0  0  0  0  0  0  0  0
   18.7038   22.5302    0.0761 N   0  0  0  0  0  0  0  0  0  0  0  0
  1  2  1  0  0  0  0
  1 39  1  0  0  0  0
  3  4  1  0  0  0  0
  5  6  1  0  0  0  0
  5 40  1  0  0  0  0
  9 10  1  1  0  0  0
  9 14  1  0  0  0  0
  9 35  1  0  0  0  0
 10  1  1  0  0  0  0
 11 16  1  0  0  0  0
 11 28  1  0  0  0  0
 11 26  1  1  0  0  0
 12 17  1  0  0  0  0
 12 34  1  0  0  0  0
 12 13  1  6  0  0  0
 14 15  1  6  0  0  0
 14 19  1  0  0  0  0
 16 13  1  6  0  0  0
 16 21  1  0  0  0  0
 17 18  1  1  0  0  0
 17 23  1  0  0  0  0
 18  8  1  0  0  0  0
 19 20  1  6  0  0  0
 19 25  1  0  0  0  0
 20  5  1  0  0  0  0
 21  3  1  1  0  0  0
 21 22  1  0  0  0  0
 21 27  1  0  0  0  0
 23 24  1  6  0  0  0
 23 29  1  0  0  0  0
 25 26  1  6  0  0  0
 25 31  1  0  0  0  0
 27  7  1  6  0  0  0
 27 28  1  0  0  0  0
 29 30  1  6  0  0  0
 29 33  1  0  0  0  0
 31 32  1  1  0  0  0
 31 35  1  0  0  0  0
 33 34  1  0  0  0  0
 33 37  1  6  0  0  0
 35 36  1  1  0  0  0
 37 38  1  0  0  0  0
M  END
>  <CHROM.1>
-128.77180942,-51.05278289,-78.84235564,171.23260536,96.90148409,-81.81491181
130.65037457,109.08024142,-52.47330835,-131.55126629,-59.53495735,18.73055446
27.24166333,0.55246481,-1.58403237,-1.16612870,-0.87317846

>  <Name>
1ntb_lig

>  <RI>
0

>  <Rbt.Current_Directory>
/home/itssahil/PROJECTS/Mol_Feturizer/New_Systems/rnas/1ntb

>  <Rbt.Executable>
rbdock ($Id: //depot/dev/client3/rdock/2013.1/src/exe/rbdock.cxx#4 $)

>  <Rbt.Library>
libRbt.so (2013.1, Build901 2013/11/27)

>  <Rbt.Parameter_File>
/export/apps/rDock/src/rDock_2013.1_src/data/scripts/dock_solv.prm

>  <Rbt.Receptor>
prm/blind_docking_80.prm

>  <SCORE>
-13.8063

>  <SCORE.INTER>
-9.70956

>  <SCORE.INTER.CONST>
1

>  <SCORE.INTER.POLAR>
-0.915793

>  <SCORE.INTER.ROT>
11

>  <SCORE.INTER.SOLV>
17.2196

>  <SCORE.INTER.VDW>
-20.0936

>  <SCORE.INTER.norm>
-0.242739

>  <SCORE.INTRA>
-6.49367

>  <SCORE.INTRA.DIHEDRAL>
2.042

>  <SCORE.INTRA.DIHEDRAL.0>
15.4453

>  <SCORE.INTRA.POLAR>
0

>  <SCORE.INTRA.POLAR.0>
0

>  <SCORE.INTRA.REPUL>
-0.823958

>  <SCORE.INTRA.REPUL.0>
0.823958

>  <SCORE.INTRA.SOLV>
0.968151

>  <SCORE.INTRA.SOLV.lig_0>
-99.3069

>  <SCORE.INTRA.VDW>
-3.87896

>  <SCORE.INTRA.VDW.0>
0.946495

>  <SCORE.INTRA.norm>
-0.162342

>  <SCORE.RESTR>
2.39692

>  <SCORE.RESTR.CAVITY>
2.39692

>  <SCORE.RESTR.norm>
0.059923

>  <SCORE.SYSTEM>
0

>  <SCORE.SYSTEM.CONST>
0

>  <SCORE.SYSTEM.DIHEDRAL>
0

>  <SCORE.SYSTEM.SOLV>
0

>  <SCORE.SYSTEM.norm>
0

>  <SCORE.heavy>
40

>  <SCORE.norm>
-0.345158

>  <RMSD>
18.728

$$$$
1ntb_lig
 OpenBabel11021811403D
libRbt.so/2013.1/901 2013/11/27
 40 42  0  0  0  0  0  0  0  0999 V2000
   19.0551   34.2252    0.0980 C   0  0  0  0  0  0  0  0  0  0  0  0
   18.1013   34.8373   -0.4900 N   0  0  0  0  0  0  0  0  0  0  0  0
   20.7550   24.5209    1.1390 C   0  0  0  0  0  0  0  0  0  0  0  0
   20.4243   23.9309    2.3852 O   0  0  0  0  0  0  0  0  0  0  0  0
   17.5361   30.6475   -3.0827 C   0  0  0  0  0  0  0  0  0  0  0  0
   16.4287   31.1474   -2.6635 N   0  0  0  0  0  0  0  0  0  0  0  0
   18.8366   26.5199    2.8430 C   0  0  0  0  0  0  0  0  0  0  0  0
   21.8068   23.6182   -2.9550 C   0  0  0  0  0  0  0  0  0  0  0  0
   20.4388   32.6586   -0.9959 C   0  0  2  0  0  0  0  0  0  0  0  0
   20.1659   34.0941   -0.6014 N   0  0  0  0  0  0  0  0  0  0  0  0
   19.4173   27.5479   -0.4678 C   0  0  2  0  0  0  0  0  0  0  0  0
   19.7602   25.7675   -2.8525 C   0  0  1  0  0  0  0  0  0  0  0  0
   19.2505   25.4903   -1.5612 O   0  0  0  0  0  0  0  0  0  0  0  0
   19.1767   31.9885   -1.5279 C   0  0  1  0  0  0  0  0  0  0  0  0
   18.7511   32.8384   -2.6804 O   0  0  0  0  0  0  0  0  0  0  0  0
   19.9548   26.1346   -0.6001 C   0  0  2  0  0  0  0  0  0  0  0  0
   19.6297   24.5258   -3.7009 C   0  0  1  0  0  0  0  0  0  0  0  0
   20.3898   23.4706   -3.1299 N   0  0  0  0  0  0  0  0  0  0  0  0
   19.3945   30.5264   -1.9117 C   0  0  2  0  0  0  0  0  0  0  0  0
   18.2270   29.8424   -2.4281 N   0  0  0  0  0  0  0  0  0  0  0  0
   19.7113   25.5472    0.7647 C   0  0  1  0  0  0  0  0  0  0  0  0
   18.4058   24.9625    0.8195 O   0  0  0  0  0  0  0  0  0  0  0  0
   18.1610   24.1386   -3.7406 C   0  0  2  0  0  0  0  0  0  0  0  0
   17.9833   22.9732   -4.5158 O   0  0  0  0  0  0  0  0  0  0  0  0
   19.8782   29.7910   -0.6888 C   0  0  1  0  0  0  0  0  0  0  0  0
   20.2458   28.4683   -1.1701 O   0  0  0  0  0  0  0  0  0  0  0  0
   19.7764   26.7126    1.6811 C   0  0  1  0  0  0  0  0  0  0  0  0
   19.3929   27.8642    0.9260 O   0  0  0  0  0  0  0  0  0  0  0  0
   17.4071   25.3135   -4.3640 C   0  0  1  0  0  0  0  0  0  0  0  0
   16.0184   25.0294   -4.4307 O   0  0  0  0  0  0  0  0  0  0  0  0
   21.1919   30.4319   -0.1655 C   0  0  2  0  0  0  0  0  0  0  0  0
   21.6373   29.7164    0.9764 O   0  0  0  0  0  0  0  0  0  0  0  0
   17.6454   26.5620   -3.5142 C   0  0  1  0  0  0  0  0  0  0  0  0
   19.0420   26.8456   -3.4476 O   0  0  0  0  0  0  0  0  0  0  0  0
   20.9268   31.8996    0.2213 C   0  0  1  0  0  0  0  0  0  0  0  0
   22.1305   32.5059    0.7070 O   0  0  0  0  0  0  0  0  0  0  0  0
   16.9181   27.7444   -4.1550 C   0  0  0  0  0  0  0  0  0  0  0  0
   17.7912   28.3880   -5.0692 O   0  0  0  0  0  0  0  0  0  0  0  0
   18.9380   33.7433    1.2853 N   0  0  0  0  0  0  0  0  0  0  0  0
   17.9376   30.9263   -4.2263 N   0  0  0  0  0  0  0  0  0  0  0  0
  1  2  1  0  0  0  0
  1 39  1  0  0  0  0
  3  4  1  0  0  0  0
  5  6  1  0  0  0  0
  5 40  1  0  0  0  0
  9 10  1  1  0  0  0
  9 14  1  0  0  0  0
  9 35  1  0  0  0  0
 10  1  1  0  0  0  0
 11 16  1  0  0  0  0
 11 28  1  0  0  0  0
 11 26  1  6  0  0  0
 12 17  1  0  0  0  0
 12 34  1  0  0  0  0
 12 13  1  1  0  0  0
 14 15  1  6  0  0  0
 14 19  1  0  0  0  0
 16 13  1  6  0  0  0
 16 21  1  0  0  0  0
 17 18  1  1  0  0  0
 17 23  1  0  0  0  0
 18  8  1  0  0  0  0
 19 20  1  1  0  0  0
 19 25  1  0  0  0  0
 20  5  1  0  0  0  0
 21  3  1  1  0  0  0
 21 22  1  0  0  0  0
 21 27  1  0  0  0  0
 23 24  1  6  0  0  0
 23 29  1  0  0  0  0
 25 26  1  6  0  0  0
 25 31  1  0  0  0  0
 27  7  1  1  0  0  0
 27 28  1  0  0  0  0
 29 30  1  1  0  0  0
 29 33  1  0  0  0  0
 31 32  1  1  0  0  0
 31 35  1  0  0  0  0
 33 34  1  0  0  0  0
 33 37  1  6  0  0  0
 35 36  1  6  0  0  0
 37 38  1  0  0  0  0
M  END
>  <CHROM.1>
45.31115972,-111.35435350,-164.68321021,144.50254384,83.94503105,-59.91301038
34.27311478,-105.62589358,-175.72979679,-119.54568246,-90.11346950,19.21660948
28.29688089,-1.42986267,-1.44048441,1.09576813,-3.04931728

>  <Name>
1ntb_lig

>  <RI>
0

>  <Rbt.Current_Directory>
/home/itssahil/PROJECTS/Mol_Feturizer/New_Systems/rnas/1ntb

>  <Rbt.Executable>
rbdock ($Id: //depot/dev/client3/rdock/2013.1/src/exe/rbdock.cxx#4 $)

>  <Rbt.Library>
libRbt.so (2013.1, Build901 2013/11/27)

>  <Rbt.Parameter_File>
/export/apps/rDock/src/rDock_2013.1_src/data/scripts/dock_solv.prm

>  <Rbt.Receptor>
prm/blind_docking_60.prm

>  <SCORE>
-1.87784

>  <SCORE.INTER>
-8.00637

>  <SCORE.INTER.CONST>
1

>  <SCORE.INTER.POLAR>
-1.30646

>  <SCORE.INTER.ROT>
11

>  <SCORE.INTER.SOLV>
17.3063

>  <SCORE.INTER.VDW>
-17.6848

>  <SCORE.INTER.norm>
-0.200159

>  <SCORE.INTRA>
3.11525

>  <SCORE.INTRA.DIHEDRAL>
4.28858

>  <SCORE.INTRA.DIHEDRAL.0>
15.4453

>  <SCORE.INTRA.POLAR>
0

>  <SCORE.INTRA.POLAR.0>
0

>  <SCORE.INTRA.REPUL>
-0.721541

>  <SCORE.INTRA.REPUL.0>
0.823958

>  <SCORE.INTRA.SOLV>
5.0033

>  <SCORE.INTRA.SOLV.lig_0>
-99.3069

>  <SCORE.INTRA.VDW>
2.07702

>  <SCORE.INTRA.VDW.0>
0.946495

>  <SCORE.INTRA.norm>
0.0778813

>  <SCORE.RESTR>
3.01327

>  <SCORE.RESTR.CAVITY>
3.01327

>  <SCORE.RESTR.norm>
0.0753318

>  <SCORE.SYSTEM>
0

>  <SCORE.SYSTEM.CONST>
0

>  <SCORE.SYSTEM.DIHEDRAL>
0

>  <SCORE.SYSTEM.SOLV>
0

>  <SCORE.SYSTEM.norm>
0

>  <SCORE.heavy>
40

>  <SCORE.norm>
-0.0469461

>  <RMSD>
18.736

$$$$
1ntb_lig
 OpenBabel11021811403D
libRbt.so/2013.1/901 2013/11/27
 40 42  0  0  0  0  0  0  0  0999 V2000
   16.7344   25.2976    5.5400 C   0  0  0  0  0  0  0  0  0  0  0  0
   16.1683   24.1576    5.4397 N   0  0  0  0  0  0  0  0  0  0  0  0
   20.7702   24.4822   -3.9957 C   0  0  0  0  0  0  0  0  0  0  0  0
   22.0325   24.7947   -3.4308 O   0  0  0  0  0  0  0  0  0  0  0  0
   19.5455   28.6114    1.3838 C   0  0  0  0  0  0  0  0  0  0  0  0
   20.4721   28.6452    0.4937 N   0  0  0  0  0  0  0  0  0  0  0  0
   19.8657   21.7698   -2.4451 C   0  0  0  0  0  0  0  0  0  0  0  0
   17.4651   25.2316   -5.9768 C   0  0  0  0  0  0  0  0  0  0  0  0
   18.8370   25.3785    4.4731 C   0  0  2  0  0  0  0  0  0  0  0  0
   18.0360   25.2716    5.7529 N   0  0  0  0  0  0  0  0  0  0  0  0
   19.2500   24.7315   -0.6549 C   0  0  2  0  0  0  0  0  0  0  0  0
   18.7466   26.8806   -3.5250 C   0  0  1  0  0  0  0  0  0  0  0  0
   18.4641   26.0895   -2.3855 O   0  0  0  0  0  0  0  0  0  0  0  0
   18.3333   26.5281    3.6074 C   0  0  1  0  0  0  0  0  0  0  0  0
   18.4554   27.7391    4.4737 O   0  0  0  0  0  0  0  0  0  0  0  0
   19.5445   25.3688   -2.0006 C   0  0  2  0  0  0  0  0  0  0  0  0
   17.4733   27.0638   -4.3147 C   0  0  1  0  0  0  0  0  0  0  0  0
   16.9896   25.8006   -4.7479 N   0  0  0  0  0  0  0  0  0  0  0  0
   19.0920   26.6579    2.2882 C   0  0  2  0  0  0  0  0  0  0  0  0
   18.6563   27.7388    1.4283 N   0  0  0  0  0  0  0  0  0  0  0  0
   19.7772   24.1819   -2.8973 C   0  0  1  0  0  0  0  0  0  0  0  0
   18.5366   23.7455   -3.4626 O   0  0  0  0  0  0  0  0  0  0  0  0
   16.4495   27.7222   -3.4053 C   0  0  2  0  0  0  0  0  0  0  0  0
   15.2320   27.9082   -4.0935 O   0  0  0  0  0  0  0  0  0  0  0  0
   18.9455   25.3600    1.5372 C   0  0  1  0  0  0  0  0  0  0  0  0
   19.8417   25.4850    0.3981 O   0  0  0  0  0  0  0  0  0  0  0  0
   20.3083   23.1358   -1.9885 C   0  0  1  0  0  0  0  0  0  0  0  0
   19.7905   23.4085   -0.6843 O   0  0  0  0  0  0  0  0  0  0  0  0
   17.0327   29.0699   -2.9800 C   0  0  1  0  0  0  0  0  0  0  0  0
   16.1319   29.7477   -2.1181 O   0  0  0  0  0  0  0  0  0  0  0  0
   19.5015   24.1858    2.3871 C   0  0  2  0  0  0  0  0  0  0  0  0
   19.3671   22.9766    1.6565 O   0  0  0  0  0  0  0  0  0  0  0  0
   18.3621   28.8307   -2.2636 C   0  0  1  0  0  0  0  0  0  0  0  0
   19.2661   28.1485   -3.1313 O   0  0  0  0  0  0  0  0  0  0  0  0
   18.7030   24.0817    3.7008 C   0  0  1  0  0  0  0  0  0  0  0  0
   19.2042   23.0016    4.4973 O   0  0  0  0  0  0  0  0  0  0  0  0
   18.9614   30.1801   -1.8667 C   0  0  0  0  0  0  0  0  0  0  0  0
   18.1836   30.7464   -0.8243 O   0  0  0  0  0  0  0  0  0  0  0  0
   16.0794   26.4026    5.4647 N   0  0  0  0  0  0  0  0  0  0  0  0
   19.5440   29.4568    2.2959 N   0  0  0  0  0  0  0  0  0  0  0  0
  1  2  1  0  0  0  0
  1 39  1  0  0  0  0
  3  4  1  0  0  0  0
  5  6  1  0  0  0  0
  5 40  1  0  0  0  0
  9 10  1  1  0  0  0
  9 14  1  0  0  0  0
  9 35  1  0  0  0  0
 10  1  1  0  0  0  0
 11 16  1  0  0  0  0
 11 28  1  0  0  0  0
 11 26  1  1  0  0  0
 12 17  1  0  0  0  0
 12 34  1  0  0  0  0
 12 13  1  1  0  0  0
 14 15  1  1  0  0  0
 14 19  1  0  0  0  0
 16 13  1  6  0  0  0
 16 21  1  0  0  0  0
 17 18  1  1  0  0  0
 17 23  1  0  0  0  0
 18  8  1  0  0  0  0
 19 20  1  6  0  0  0
 19 25  1  0  0  0  0
 20  5  1  0  0  0  0
 21  3  1  6  0  0  0
 21 22  1  0  0  0  0
 21 27  1  0  0  0  0
 23 24  1  6  0  0  0
 23 29  1  0  0  0  0
 25 26  1  6  0  0  0
 25 31  1  0  0  0  0
 27  7  1  6  0  0  0
 27 28  1  0  0  0  0
 29 30  1  1  0  0  0
 29 33  1  0  0  0  0
 31 32  1  6  0  0  0
 31 35  1  0  0  0  0
 33 34  1  0  0  0  0
 33 37  1  6  0  0  0
 35 36  1  1  0  0  0
 37 38  1  0  0  0  0
M  END
>  <CHROM.1>
48.57641900,94.47975704,146.76348122,150.70042855,170.61498085,-86.51984436
110.87409543,92.22415550,62.53618830,-148.75373909,70.28680625,18.60575428
26.14686108,-0.20080878,1.61497786,-1.24524725,1.75347448

>  <Name>
1ntb_lig

>  <RI>
0

>  <Rbt.Current_Directory>
/home/itssahil/PROJECTS/Mol_Feturizer/New_Systems/rnas/1ntb

>  <Rbt.Executable>
rbdock ($Id: //depot/dev/client3/rdock/2013.1/src/exe/rbdock.cxx#4 $)

>  <Rbt.Library>
libRbt.so (2013.1, Build901 2013/11/27)

>  <Rbt.Parameter_File>
/export/apps/rDock/src/rDock_2013.1_src/data/scripts/dock_solv.prm

>  <Rbt.Receptor>
prm/blind_docking_100.prm

>  <SCORE>
-27.9473

>  <SCORE.INTER>
-23.2551

>  <SCORE.INTER.CONST>
1

>  <SCORE.INTER.POLAR>
-2.8263

>  <SCORE.INTER.ROT>
11

>  <SCORE.INTER.SOLV>
16.7363

>  <SCORE.INTER.VDW>
-22.5945

>  <SCORE.INTER.norm>
-0.581379

>  <SCORE.INTRA>
-6.78698

>  <SCORE.INTRA.DIHEDRAL>
-0.0594329

>  <SCORE.INTRA.DIHEDRAL.0>
15.4453

>  <SCORE.INTRA.POLAR>
0

>  <SCORE.INTRA.POLAR.0>
0

>  <SCORE.INTRA.REPUL>
-0.823958

>  <SCORE.INTRA.REPUL.0>
0.823958

>  <SCORE.INTRA.SOLV>
4.29586

>  <SCORE.INTRA.SOLV.lig_0>
-99.3069

>  <SCORE.INTRA.VDW>
-4.78541

>  <SCORE.INTRA.VDW.0>
0.946495

>  <SCORE.INTRA.norm>
-0.169674

>  <SCORE.RESTR>
2.09487

>  <SCORE.RESTR.CAVITY>
2.09487

>  <SCORE.RESTR.norm>
0.0523718

>  <SCORE.SYSTEM>
0

>  <SCORE.SYSTEM.CONST>
0

>  <SCORE.SYSTEM.DIHEDRAL>
0

>  <SCORE.SYSTEM.SOLV>
0

>  <SCORE.SYSTEM.norm>
0

>  <SCORE.heavy>
40

>  <SCORE.norm>
-0.698681

>  <RMSD>
18.737

$$$$
1ntb_lig
 OpenBabel11021811403D
libRbt.so/2013.1/901 2013/11/27
 40 42  0  0  0  0  0  0  0  0999 V2000
   18.2513   20.9752    3.7442 C   0  0  0  0  0  0  0  0  0  0  0  0
   18.9325   19.9047    3.6023 N   0  0  0  0  0  0  0  0  0  0  0  0
   21.2265   30.6927    0.6245 C   0  0  0  0  0  0  0  0  0  0  0  0
   20.7186   30.8450    1.9395 O   0  0  0  0  0  0  0  0  0  0  0  0
   18.8345   24.6407   -0.9125 C   0  0  0  0  0  0  0  0  0  0  0  0
   18.4327   25.4922   -1.7874 N   0  0  0  0  0  0  0  0  0  0  0  0
   23.0033   27.9829    0.3407 C   0  0  0  0  0  0  0  0  0  0  0  0
   19.5259   32.0061   -1.6836 C   0  0  0  0  0  0  0  0  0  0  0  0
   18.4944   23.2895    3.3554 C   0  0  2  0  0  0  0  0  0  0  0  0
   18.9374   22.0457    4.0956 N   0  0  0  0  0  0  0  0  0  0  0  0
   19.5362   27.4273    0.5022 C   0  0  2  0  0  0  0  0  0  0  0  0
   17.5010   29.6849   -0.5813 C   0  0  1  0  0  0  0  0  0  0  0  0
   18.7876   29.1672   -0.8652 O   0  0  0  0  0  0  0  0  0  0  0  0
   19.2727   23.4581    2.0552 C   0  0  1  0  0  0  0  0  0  0  0  0
   19.0130   22.2015    1.2901 O   0  0  0  0  0  0  0  0  0  0  0  0
   19.4878   28.9264    0.2691 C   0  0  2  0  0  0  0  0  0  0  0  0
   17.3073   30.9582   -1.3685 C   0  0  1  0  0  0  0  0  0  0  0  0
   18.2789   31.9179   -0.9784 N   0  0  0  0  0  0  0  0  0  0  0  0
   18.8819   24.7181    1.2855 C   0  0  2  0  0  0  0  0  0  0  0  0
   19.5888   24.9248    0.0384 N   0  0  0  0  0  0  0  0  0  0  0  0
   20.9399   29.2966    0.1229 C   0  0  1  0  0  0  0  0  0  0  0  0
   21.3400   29.1749   -1.2461 O   0  0  0  0  0  0  0  0  0  0  0  0
   17.4744   30.6271   -2.8420 C   0  0  2  0  0  0  0  0  0  0  0  0
   17.3125   31.7891   -3.6257 O   0  0  0  0  0  0  0  0  0  0  0  0
   19.1306   25.9054    2.1791 C   0  0  1  0  0  0  0  0  0  0  0  0
   18.5612   27.0366    1.4633 O   0  0  0  0  0  0  0  0  0  0  0  0
   21.6579   28.2913    0.9452 C   0  0  1  0  0  0  0  0  0  0  0  0
   20.8497   27.1126    0.9701 O   0  0  0  0  0  0  0  0  0  0  0  0
   16.4019   29.5950   -3.1912 C   0  0  1  0  0  0  0  0  0  0  0  0
   16.4968   29.2278   -4.5586 O   0  0  0  0  0  0  0  0  0  0  0  0
   18.3042   25.7717    3.4866 C   0  0  2  0  0  0  0  0  0  0  0  0
   18.5416   26.9056    4.3065 O   0  0  0  0  0  0  0  0  0  0  0  0
   16.5916   28.3639   -2.3045 C   0  0  1  0  0  0  0  0  0  0  0  0
   16.4968   28.7351   -0.9303 O   0  0  0  0  0  0  0  0  0  0  0  0
   18.7364   24.4975    4.2374 C   0  0  1  0  0  0  0  0  0  0  0  0
   17.9825   24.3596    5.4478 O   0  0  0  0  0  0  0  0  0  0  0  0
   15.4997   27.3447   -2.6308 C   0  0  0  0  0  0  0  0  0  0  0  0
   15.8519   26.0898   -2.0708 O   0  0  0  0  0  0  0  0  0  0  0  0
   16.9753   21.0083    3.5814 N   0  0  0  0  0  0  0  0  0  0  0  0
   18.4191   23.4696   -0.9647 N   0  0  0  0  0  0  0  0  0  0  0  0
  1  2  1  0  0  0  0
  1 39  1  0  0  0  0
  3  4  1  0  0  0  0
  5  6  1  0  0  0  0
  5 40  1  0  0  0  0
  9 10  1  1  0  0  0
  9 14  1  0  0  0  0
  9 35  1  0  0  0  0
 10  1  1  0  0  0  0
 11 16  1  0  0  0  0
 11 28  1  0  0  0  0
 11 26  1  1  0  0  0
 12 17  1  0  0  0  0
 12 34  1  0  0  0  0
 12 13  1  6  0  0  0
 14 15  1  6  0  0  0
 14 19  1  0  0  0  0
 16 13  1  6  0  0  0
 16 21  1  0  0  0  0
 17 18  1  1  0  0  0
 17 23  1  0  0  0  0
 18  8  1  0  0  0  0
 19 20  1  6  0  0  0
 19 25  1  0  0  0  0
 20  5  1  0  0  0  0
 21  3  1  1  0  0  0
 21 22  1  0  0  0  0
 21 27  1  0  0  0  0
 23 24  1  6  0  0  0
 23 29  1  0  0  0  0
 25 26  1  6  0  0  0
 25 31  1  0  0  0  0
 27  7  1  6  0  0  0
 27 28  1  0  0  0  0
 29 30  1  6  0  0  0
 29 33  1  0  0  0  0
 31 32  1  1  0  0  0
 31 35  1  0  0  0  0
 33 34  1  0  0  0  0
 33 37  1  6  0  0  0
 35 36  1  1  0  0  0
 37 38  1  0  0  0  0
M  END
>  <CHROM.1>
-89.35456705,138.62044590,-147.49343840,127.41605258,105.92297800,91.88836396
104.29155192,116.07756874,51.90509029,-81.18685026,165.62247576,18.68816698
26.93970079,0.41290920,1.51677188,0.80488359,2.58872894

>  <Name>
1ntb_lig

>  <RI>
0

>  <Rbt.Current_Directory>
/home/itssahil/PROJECTS/Mol_Feturizer/New_Systems/rnas/1ntb

>  <Rbt.Executable>
rbdock ($Id: //depot/dev/client3/rdock/2013.1/src/exe/rbdock.cxx#4 $)

>  <Rbt.Library>
libRbt.so (2013.1, Build901 2013/11/27)

>  <Rbt.Parameter_File>
/export/apps/rDock/src/rDock_2013.1_src/data/scripts/dock_solv.prm

>  <Rbt.Receptor>
prm/blind_docking_40.prm

>  <SCORE>
1.59634

>  <SCORE.INTER>
-4.61406

>  <SCORE.INTER.CONST>
1

>  <SCORE.INTER.POLAR>
-0.0933958

>  <SCORE.INTER.ROT>
11

>  <SCORE.INTER.SOLV>
14.4677

>  <SCORE.INTER.VDW>
-18.5206

>  <SCORE.INTER.norm>
-0.115351

>  <SCORE.INTRA>
5.78496

>  <SCORE.INTRA.DIHEDRAL>
7.70811

>  <SCORE.INTRA.DIHEDRAL.0>
15.4453

>  <SCORE.INTRA.POLAR>
0

>  <SCORE.INTRA.POLAR.0>
0

>  <SCORE.INTRA.REPUL>
-0.823958

>  <SCORE.INTRA.REPUL.0>
0.823958

>  <SCORE.INTRA.SOLV>
3.45449

>  <SCORE.INTRA.SOLV.lig_0>
-99.3069

>  <SCORE.INTRA.VDW>
4.32345

>  <SCORE.INTRA.VDW.0>
0.946495

>  <SCORE.INTRA.norm>
0.144624

>  <SCORE.RESTR>
0.425434

>  <SCORE.RESTR.CAVITY>
0.425434

>  <SCORE.RESTR.norm>
0.0106359

>  <SCORE.SYSTEM>
0

>  <SCORE.SYSTEM.CONST>
0

>  <SCORE.SYSTEM.DIHEDRAL>
0

>  <SCORE.SYSTEM.SOLV>
0

>  <SCORE.SYSTEM.norm>
0

>  <SCORE.heavy>
40

>  <SCORE.norm>
0.0399084

>  <RMSD>
18.744

$$$$
1ntb_lig
 OpenBabel11021811403D
libRbt.so/2013.1/901 2013/11/27
 40 42  0  0  0  0  0  0  0  0999 V2000
   18.4621   34.4593   -2.7530 C   0  0  0  0  0  0  0  0  0  0  0  0
   17.5268   34.9819   -3.4474 N   0  0  0  0  0  0  0  0  0  0  0  0
   16.6403   24.9130   -2.0992 C   0  0  0  0  0  0  0  0  0  0  0  0
   15.4275   25.6312   -1.9452 O   0  0  0  0  0  0  0  0  0  0  0  0
   21.5421   30.3855    0.1619 C   0  0  0  0  0  0  0  0  0  0  0  0
   21.3703   29.9635    1.3638 N   0  0  0  0  0  0  0  0  0  0  0  0
   17.6547   26.7231   -4.6042 C   0  0  0  0  0  0  0  0  0  0  0  0
   21.4581   23.3578   -2.9647 C   0  0  0  0  0  0  0  0  0  0  0  0
   18.2305   33.0710   -0.8596 C   0  0  2  0  0  0  0  0  0  0  0  0
   18.2747   34.4652   -1.4472 N   0  0  0  0  0  0  0  0  0  0  0  0
   18.7016   27.8922   -1.4589 C   0  0  2  0  0  0  0  0  0  0  0  0
   19.0896   24.4605   -0.5281 C   0  0  1  0  0  0  0  0  0  0  0  0
   19.2564   25.8637   -0.4420 O   0  0  0  0  0  0  0  0  0  0  0  0
   19.5382   32.3291   -1.1135 C   0  0  1  0  0  0  0  0  0  0  0  0
   20.5906   33.1893   -0.4937 O   0  0  0  0  0  0  0  0  0  0  0  0
   18.2205   26.5233   -1.0134 C   0  0  2  0  0  0  0  0  0  0  0  0
   20.4395   23.8260   -0.7595 C   0  0  1  0  0  0  0  0  0  0  0  0
   20.9879   24.2938   -1.9833 N   0  0  0  0  0  0  0  0  0  0  0  0
   19.5313   30.9038   -0.5647 C   0  0  2  0  0  0  0  0  0  0  0  0
   20.7529   30.1546   -0.7750 N   0  0  0  0  0  0  0  0  0  0  0  0
   17.7852   25.8779   -2.3022 C   0  0  1  0  0  0  0  0  0  0  0  0
   18.8926   25.2050   -2.9105 O   0  0  0  0  0  0  0  0  0  0  0  0
   21.3459   24.2209    0.3943 C   0  0  2  0  0  0  0  0  0  0  0  0
   22.6291   23.6602    0.2222 O   0  0  0  0  0  0  0  0  0  0  0  0
   18.3950   30.1594   -1.2164 C   0  0  1  0  0  0  0  0  0  0  0  0
   18.3294   28.8882   -0.5121 O   0  0  0  0  0  0  0  0  0  0  0  0
   17.3609   27.0155   -3.1555 C   0  0  1  0  0  0  0  0  0  0  0  0
   18.0996   28.1618   -2.7271 O   0  0  0  0  0  0  0  0  0  0  0  0
   20.6983   23.6875    1.6724 C   0  0  1  0  0  0  0  0  0  0  0  0
   21.4874   24.0234    2.8030 O   0  0  0  0  0  0  0  0  0  0  0  0
   17.0495   30.8763   -0.9234 C   0  0  2  0  0  0  0  0  0  0  0  0
   15.9925   30.1520   -1.5334 O   0  0  0  0  0  0  0  0  0  0  0  0
   19.3015   24.2940    1.8105 C   0  0  1  0  0  0  0  0  0  0  0  0
   18.5100   23.9560    0.6727 O   0  0  0  0  0  0  0  0  0  0  0  0
   17.0931   32.3036   -1.5025 C   0  0  1  0  0  0  0  0  0  0  0  0
   15.8574   32.9792   -1.2404 O   0  0  0  0  0  0  0  0  0  0  0  0
   18.6410   23.7360    3.0714 C   0  0  0  0  0  0  0  0  0  0  0  0
   18.9171   24.5993    4.1626 O   0  0  0  0  0  0  0  0  0  0  0  0
   19.5313   33.9798   -3.2846 N   0  0  0  0  0  0  0  0  0  0  0  0
   22.5173   31.1127   -0.0962 N   0  0  0  0  0  0  0  0  0  0  0  0
  1  2  1  0  0  0  0
  1 39  1  0  0  0  0
  3  4  1  0  0  0  0
  5  6  1  0  0  0  0
  5 40  1  0  0  0  0
  9 10  1  6  0  0  0
  9 14  1  0  0  0  0
  9 35  1  0  0  0  0
 10  1  1  0  0  0  0
 11 16  1  0  0  0  0
 11 28  1  0  0  0  0
 11 26  1  1  0  0  0
 12 17  1  0  0  0  0
 12 34  1  0  0  0  0
 12 13  1  1  0  0  0
 14 15  1  1  0  0  0
 14 19  1  0  0  0  0
 16 13  1  6  0  0  0
 16 21  1  0  0  0  0
 17 18  1  6  0  0  0
 17 23  1  0  0  0  0
 18  8  1  0  0  0  0
 19 20  1  6  0  0  0
 19 25  1  0  0  0  0
 20  5  1  0  0  0  0
 21  3  1  1  0  0  0
 21 22  1  0  0  0  0
 21 27  1  0  0  0  0
 23 24  1  6  0  0  0
 23 29  1  0  0  0  0
 25 26  1  1  0  0  0
 25 31  1  0  0  0  0
 27  7  1  6  0  0  0
 27 28  1  0  0  0  0
 29 30  1  1  0  0  0
 29 33  1  0  0  0  0
 31 32  1  6  0  0  0
 31 35  1  0  0  0  0
 33 34  1  0  0  0  0
 33 37  1  1  0  0  0
 35 36  1  1  0  0  0
 37 38  1  0  0  0  0
M  END
>  <CHROM.1>
60.33414383,118.76641887,-160.34817629,143.28859487,-154.56991771,-128.06691563
86.91356067,70.47321592,77.32899891,-113.14196575,91.70395429,19.04286417
28.10254562,-0.84453521,-1.79101789,0.76611479,3.06862085

>  <Name>
1ntb_lig

>  <RI>
0

>  <Rbt.Current_Directory>
/home/itssahil/PROJECTS/Mol_Feturizer/New_Systems/rnas/1ntb

>  <Rbt.Executable>
rbdock ($Id: //depot/dev/client3/rdock/2013.1/src/exe/rbdock.cxx#4 $)

>  <Rbt.Library>
libRbt.so (2013.1, Build901 2013/11/27)

>  <Rbt.Parameter_File>
/export/apps/rDock/src/rDock_2013.1_src/data/scripts/dock_solv.prm

>  <Rbt.Receptor>
prm/blind_docking_40.prm

>  <SCORE>
11.8773

>  <SCORE.INTER>
8.20193

>  <SCORE.INTER.CONST>
1

>  <SCORE.INTER.POLAR>
0

>  <SCORE.INTER.ROT>
11

>  <SCORE.INTER.SOLV>
26.3139

>  <SCORE.INTER.VDW>
-14.2367

>  <SCORE.INTER.norm>
0.205048

>  <SCORE.INTRA>
3.08698

>  <SCORE.INTRA.DIHEDRAL>
7.76956

>  <SCORE.INTRA.DIHEDRAL.0>
15.4453

>  <SCORE.INTRA.POLAR>
0

>  <SCORE.INTRA.POLAR.0>
0

>  <SCORE.INTRA.REPUL>
-0.823958

>  <SCORE.INTRA.REPUL.0>
0.823958

>  <SCORE.INTRA.SOLV>
0.702179

>  <SCORE.INTRA.SOLV.lig_0>
-99.3069

>  <SCORE.INTRA.VDW>
2.9709

>  <SCORE.INTRA.VDW.0>
0.946495

>  <SCORE.INTRA.norm>
0.0771745

>  <SCORE.RESTR>
0.58843

>  <SCORE.RESTR.CAVITY>
0.58843

>  <SCORE.RESTR.norm>
0.0147107

>  <SCORE.SYSTEM>
0

>  <SCORE.SYSTEM.CONST>
0

>  <SCORE.SYSTEM.DIHEDRAL>
0

>  <SCORE.SYSTEM.SOLV>
0

>  <SCORE.SYSTEM.norm>
0

>  <SCORE.heavy>
40

>  <SCORE.norm>
0.296933

>  <RMSD>
18.763

$$$$
1ntb_lig
 OpenBabel11021811403D
libRbt.so/2013.1/901 2013/11/27
 40 42  0  0  0  0  0  0  0  0999 V2000
   17.0333   25.3382    5.8582 C   0  0  0  0  0  0  0  0  0  0  0  0
   16.2589   24.3325    5.7195 N   0  0  0  0  0  0  0  0  0  0  0  0
   20.5997   25.3051   -3.8686 C   0  0  0  0  0  0  0  0  0  0  0  0
   20.0639   26.3896   -4.6082 O   0  0  0  0  0  0  0  0  0  0  0  0
   20.3410   28.7671    2.6252 C   0  0  0  0  0  0  0  0  0  0  0  0
   20.0038   29.7074    3.4340 N   0  0  0  0  0  0  0  0  0  0  0  0
   19.5154   22.4788   -2.6784 C   0  0  0  0  0  0  0  0  0  0  0  0
   15.6067   28.9787   -3.9693 C   0  0  0  0  0  0  0  0  0  0  0  0
   19.1027   25.1618    4.7390 C   0  0  2  0  0  0  0  0  0  0  0  0
   18.3110   25.0556    6.0247 N   0  0  0  0  0  0  0  0  0  0  0  0
   19.3353   25.1635   -0.4166 C   0  0  2  0  0  0  0  0  0  0  0  0
   18.9412   27.8802   -2.7534 C   0  0  1  0  0  0  0  0  0  0  0  0
   18.5870   26.8473   -1.8525 O   0  0  0  0  0  0  0  0  0  0  0  0
   18.9165   26.5308    4.0939 C   0  0  1  0  0  0  0  0  0  0  0  0
   19.3620   27.5059    5.1344 O   0  0  0  0  0  0  0  0  0  0  0  0
   19.6075   25.9756   -1.6697 C   0  0  2  0  0  0  0  0  0  0  0  0
   17.8007   28.8660   -2.8320 C   0  0  1  0  0  0  0  0  0  0  0  0
   16.6361   28.2167   -3.3212 N   0  0  0  0  0  0  0  0  0  0  0  0
   19.6732   26.6763    2.7752 C   0  0  2  0  0  0  0  0  0  0  0  0
   19.5342   27.9612    2.1215 N   0  0  0  0  0  0  0  0  0  0  0  0
   19.6541   24.9296   -2.7516 C   0  0  1  0  0  0  0  0  0  0  0  0
   18.3400   24.7079   -3.2743 O   0  0  0  0  0  0  0  0  0  0  0  0
   17.5437   29.3965   -1.4316 C   0  0  2  0  0  0  0  0  0  0  0  0
   16.4760   30.3186   -1.4463 O   0  0  0  0  0  0  0  0  0  0  0  0
   19.1818   25.6057    1.8359 C   0  0  1  0  0  0  0  0  0  0  0  0
   20.0710   25.6808    0.6870 O   0  0  0  0  0  0  0  0  0  0  0  0
   20.1292   23.7069   -2.0576 C   0  0  1  0  0  0  0  0  0  0  0  0
   19.7294   23.8168   -0.6896 O   0  0  0  0  0  0  0  0  0  0  0  0
   18.8315   30.0797   -0.9707 C   0  0  1  0  0  0  0  0  0  0  0  0
   18.6726   30.5994    0.3401 O   0  0  0  0  0  0  0  0  0  0  0  0
   19.4118   24.2024    2.4589 C   0  0  2  0  0  0  0  0  0  0  0  0
   18.9558   23.2095    1.5531 O   0  0  0  0  0  0  0  0  0  0  0  0
   19.9696   29.0589   -0.9943 C   0  0  1  0  0  0  0  0  0  0  0  0
   20.1273   28.5369   -2.3126 O   0  0  0  0  0  0  0  0  0  0  0  0
   18.6235   24.0925    3.7783 C   0  0  1  0  0  0  0  0  0  0  0  0
   18.8253   22.8019    4.3663 O   0  0  0  0  0  0  0  0  0  0  0  0
   21.2642   29.7495   -0.5644 C   0  0  0  0  0  0  0  0  0  0  0  0
   21.5197   30.8419   -1.4327 O   0  0  0  0  0  0  0  0  0  0  0  0
   16.5983   26.5491    5.8616 N   0  0  0  0  0  0  0  0  0  0  0  0
   21.5277   28.6662    2.2670 N   0  0  0  0  0  0  0  0  0  0  0  0
  1  2  1  0  0  0  0
  1 39  1  0  0  0  0
  3  4  1  0  0  0  0
  5  6  1  0  0  0  0
  5 40  1  0  0  0  0
  9 10  1  1  0  0  0
  9 14  1  0  0  0  0
  9 35  1  0  0  0  0
 10  1  1  0  0  0  0
 11 16  1  0  0  0  0
 11 28  1  0  0  0  0
 11 26  1  1  0  0  0
 12 17  1  0  0  0  0
 12 34  1  0  0  0  0
 12 13  1  1  0  0  0
 14 15  1  1  0  0  0
 14 19  1  0  0  0  0
 16 13  1  6  0  0  0
 16 21  1  0  0  0  0
 17 18  1  1  0  0  0
 17 23  1  0  0  0  0
 18  8  1  0  0  0  0
 19 20  1  6  0  0  0
 19 25  1  0  0  0  0
 20  5  1  0  0  0  0
 21  3  1  6  0  0  0
 21 22  1  0  0  0  0
 21 27  1  0  0  0  0
 23 24  1  6  0  0  0
 23 29  1  0  0  0  0
 25 26  1  6  0  0  0
 25 31  1  0  0  0  0
 27  7  1  6  0  0  0
 27 28  1  0  0  0  0
 29 30  1  1  0  0  0
 29 33  1  0  0  0  0
 31 32  1  6  0  0  0
 31 35  1  0  0  0  0
 33 34  1  0  0  0  0
 33 37  1  6  0  0  0
 35 36  1  1  0  0  0
 37 38  1  0  0  0  0
M  END
>  <CHROM.1>
54.39674646,97.87186271,140.26559901,-175.89222652,163.08828930,-155.71914068
82.79856796,-105.29282336,-70.10097852,-154.60469825,-57.73594099,19.01825218
26.74858762,0.44626474,2.74171020,-1.50810023,3.05254849

>  <Name>
1ntb_lig

>  <RI>
0

>  <Rbt.Current_Directory>
/home/itssahil/PROJECTS/Mol_Feturizer/New_Systems/rnas/1ntb

>  <Rbt.Executable>
rbdock ($Id: //depot/dev/client3/rdock/2013.1/src/exe/rbdock.cxx#4 $)

>  <Rbt.Library>
libRbt.so (2013.1, Build901 2013/11/27)

>  <Rbt.Parameter_File>
/export/apps/rDock/src/rDock_2013.1_src/data/scripts/dock_solv.prm

>  <Rbt.Receptor>
prm/blind_docking_40.prm

>  <SCORE>
-16.5111

>  <SCORE.INTER>
-10.4073

>  <SCORE.INTER.CONST>
1

>  <SCORE.INTER.POLAR>
-0.861896

>  <SCORE.INTER.ROT>
11

>  <SCORE.INTER.SOLV>
14.7456

>  <SCORE.INTER.VDW>
-19.9138

>  <SCORE.INTER.norm>
-0.260183

>  <SCORE.INTRA>
-7.09832

>  <SCORE.INTRA.DIHEDRAL>
-3.79784

>  <SCORE.INTRA.DIHEDRAL.0>
15.4453

>  <SCORE.INTRA.POLAR>
0

>  <SCORE.INTRA.POLAR.0>
0

>  <SCORE.INTRA.REPUL>
-0.823958

>  <SCORE.INTRA.REPUL.0>
0.823958

>  <SCORE.INTRA.SOLV>
4.25057

>  <SCORE.INTRA.SOLV.lig_0>
-99.3069

>  <SCORE.INTRA.VDW>
-3.20489

>  <SCORE.INTRA.VDW.0>
0.946495

>  <SCORE.INTRA.norm>
-0.177458

>  <SCORE.RESTR>
0.994549

>  <SCORE.RESTR.CAVITY>
0.994549

>  <SCORE.RESTR.norm>
0.0248637

>  <SCORE.SYSTEM>
0

>  <SCORE.SYSTEM.CONST>
0

>  <SCORE.SYSTEM.DIHEDRAL>
0

>  <SCORE.SYSTEM.SOLV>
0

>  <SCORE.SYSTEM.norm>
0

>  <SCORE.heavy>
40

>  <SCORE.norm>
-0.412778

>  <RMSD>
18.771

$$$$
1ntb_lig
 OpenBabel11021811403D
libRbt.so/2013.1/901 2013/11/27
 40 42  0  0  0  0  0  0  0  0999 V2000
   17.5851   20.0250    1.4055 C   0  0  0  0  0  0  0  0  0  0  0  0
   17.3393   19.6160    2.5898 N   0  0  0  0  0  0  0  0  0  0  0  0
   21.1069   30.3959    1.0150 C   0  0  0  0  0  0  0  0  0  0  0  0
   20.5335   30.1713    2.2922 O   0  0  0  0  0  0  0  0  0  0  0  0
   17.7761   24.8556   -2.2783 C   0  0  0  0  0  0  0  0  0  0  0  0
   16.6269   25.3250   -1.9451 N   0  0  0  0  0  0  0  0  0  0  0  0
   23.2201   28.0314    0.2913 C   0  0  0  0  0  0  0  0  0  0  0  0
   20.2160   32.6505   -1.6338 C   0  0  0  0  0  0  0  0  0  0  0  0
   18.3789   22.2378    1.2075 C   0  0  2  0  0  0  0  0  0  0  0  0
   18.6755   20.7548    1.2687 N   0  0  0  0  0  0  0  0  0  0  0  0
   19.8453   27.0898    0.0091 C   0  0  2  0  0  0  0  0  0  0  0  0
   18.2361   30.1927   -0.7432 C   0  0  1  0  0  0  0  0  0  0  0  0
   18.9757   29.0119   -0.9941 O   0  0  0  0  0  0  0  0  0  0  0  0
   18.7280   22.8090   -0.1625 C   0  0  1  0  0  0  0  0  0  0  0  0
   17.9120   22.0115   -1.1268 O   0  0  0  0  0  0  0  0  0  0  0  0
   19.6266   28.5880    0.1156 C   0  0  2  0  0  0  0  0  0  0  0  0
   18.3263   31.0869   -1.9560 C   0  0  1  0  0  0  0  0  0  0  0  0
   19.6811   31.4416   -2.1930 N   0  0  0  0  0  0  0  0  0  0  0  0
   18.4743   24.3116   -0.2643 C   0  0  2  0  0  0  0  0  0  0  0  0
   18.7853   24.9053   -1.5482 N   0  0  0  0  0  0  0  0  0  0  0  0
   21.0280   29.1337    0.1885 C   0  0  1  0  0  0  0  0  0  0  0  0
   21.5265   29.3785   -1.1309 O   0  0  0  0  0  0  0  0  0  0  0  0
   17.7807   30.3166   -3.1467 C   0  0  2  0  0  0  0  0  0  0  0  0
   17.8511   31.1062   -4.3138 O   0  0  0  0  0  0  0  0  0  0  0  0
   19.3015   24.9961    0.7926 C   0  0  1  0  0  0  0  0  0  0  0  0
   18.8670   26.3842    0.7654 O   0  0  0  0  0  0  0  0  0  0  0  0
   21.8111   28.0457    0.8252 C   0  0  1  0  0  0  0  0  0  0  0  0
   21.1552   26.8151    0.5111 O   0  0  0  0  0  0  0  0  0  0  0  0
   16.3269   29.9699   -2.8248 C   0  0  1  0  0  0  0  0  0  0  0  0
   15.7453   29.2395   -3.8934 O   0  0  0  0  0  0  0  0  0  0  0  0
   18.9204   24.4602    2.1990 C   0  0  2  0  0  0  0  0  0  0  0  0
   19.6999   25.1273    3.1794 O   0  0  0  0  0  0  0  0  0  0  0  0
   16.2880   29.1395   -1.5415 C   0  0  1  0  0  0  0  0  0  0  0  0
   16.8738   29.8750   -0.4685 O   0  0  0  0  0  0  0  0  0  0  0  0
   19.2021   22.9467    2.2637 C   0  0  1  0  0  0  0  0  0  0  0  0
   18.8555   22.4363    3.5566 O   0  0  0  0  0  0  0  0  0  0  0  0
   14.8321   28.8199   -1.2015 C   0  0  0  0  0  0  0  0  0  0  0  0
   14.3248   27.8947   -2.1497 O   0  0  0  0  0  0  0  0  0  0  0  0
   16.8101   19.7670    0.4113 N   0  0  0  0  0  0  0  0  0  0  0  0
   17.9025   24.2657   -3.3658 N   0  0  0  0  0  0  0  0  0  0  0  0
  1  2  1  0  0  0  0
  1 39  1  0  0  0  0
  3  4  1  0  0  0  0
  5  6  1  0  0  0  0
  5 40  1  0  0  0  0
  9 10  1  6  0  0  0
  9 14  1  0  0  0  0
  9 35  1  0  0  0  0
 10  1  1  0  0  0  0
 11 16  1  0  0  0  0
 11 28  1  0  0  0  0
 11 26  1  1  0  0  0
 12 17  1  0  0  0  0
 12 34  1  0  0  0  0
 12 13  1  6  0  0  0
 14 15  1  6  0  0  0
 14 19  1  0  0  0  0
 16 13  1  6  0  0  0
 16 21  1  0  0  0  0
 17 18  1  6  0  0  0
 17 23  1  0  0  0  0
 18  8  1  0  0  0  0
 19 20  1  6  0  0  0
 19 25  1  0  0  0  0
 20  5  1  0  0  0  0
 21  3  1  1  0  0  0
 21 22  1  0  0  0  0
 21 27  1  0  0  0  0
 23 24  1  6  0  0  0
 23 29  1  0  0  0  0
 25 26  1  1  0  0  0
 25 31  1  0  0  0  0
 27  7  1  6  0  0  0
 27 28  1  0  0  0  0
 29 30  1  6  0  0  0
 29 33  1  0  0  0  0
 31 32  1  1  0  0  0
 31 35  1  0  0  0  0
 33 34  1  0  0  0  0
 33 37  1  1  0  0  0
 35 36  1  1  0  0  0
 37 38  1  0  0  0  0
M  END
>  <CHROM.1>
-114.09606977,-100.20464532,-170.12954527,142.31028021,154.21029343,-92.70463112
89.59230920,54.48094736,53.46428250,-99.83691552,70.09533689,18.62972005
26.68879142,-0.35400375,1.63085268,0.65224321,2.78239371

>  <Name>
1ntb_lig

>  <RI>
0

>  <Rbt.Current_Directory>
/home/itssahil/PROJECTS/Mol_Feturizer/New_Systems/rnas/1ntb

>  <Rbt.Executable>
rbdock ($Id: //depot/dev/client3/rdock/2013.1/src/exe/rbdock.cxx#4 $)

>  <Rbt.Library>
libRbt.so (2013.1, Build901 2013/11/27)

>  <Rbt.Parameter_File>
/export/apps/rDock/src/rDock_2013.1_src/data/scripts/dock_solv.prm

>  <Rbt.Receptor>
prm/blind_docking_60.prm

>  <SCORE>
-18.5139

>  <SCORE.INTER>
-9.96887

>  <SCORE.INTER.CONST>
1

>  <SCORE.INTER.POLAR>
-1.09545

>  <SCORE.INTER.ROT>
11

>  <SCORE.INTER.SOLV>
19.0196

>  <SCORE.INTER.VDW>
-20.2676

>  <SCORE.INTER.norm>
-0.249222

>  <SCORE.INTRA>
-8.90466

>  <SCORE.INTRA.DIHEDRAL>
2.39861

>  <SCORE.INTRA.DIHEDRAL.0>
15.4453

>  <SCORE.INTRA.POLAR>
0

>  <SCORE.INTRA.POLAR.0>
0

>  <SCORE.INTRA.REPUL>
-0.823958

>  <SCORE.INTRA.REPUL.0>
0.823958

>  <SCORE.INTRA.SOLV>
-0.115745

>  <SCORE.INTRA.SOLV.lig_0>
-99.3069

>  <SCORE.INTRA.VDW>
-5.9263

>  <SCORE.INTRA.VDW.0>
0.946495

>  <SCORE.INTRA.norm>
-0.222616

>  <SCORE.RESTR>
0.359669

>  <SCORE.RESTR.CAVITY>
0.359669

>  <SCORE.RESTR.norm>
0.00899173

>  <SCORE.SYSTEM>
0

>  <SCORE.SYSTEM.CONST>
0

>  <SCORE.SYSTEM.DIHEDRAL>
0

>  <SCORE.SYSTEM.SOLV>
0

>  <SCORE.SYSTEM.norm>
0

>  <SCORE.heavy>
40

>  <SCORE.norm>
-0.462846

>  <RMSD>
18.774

$$$$
1ntb_lig
 OpenBabel11021811403D
libRbt.so/2013.1/901 2013/11/27
 40 42  0  0  0  0  0  0  0  0999 V2000
   20.2136   29.8045    6.4114 C   0  0  0  0  0  0  0  0  0  0  0  0
   20.0017   29.3306    7.5779 N   0  0  0  0  0  0  0  0  0  0  0  0
   21.3589   27.1361   -1.4464 C   0  0  0  0  0  0  0  0  0  0  0  0
   22.7184   26.7359   -1.4026 O   0  0  0  0  0  0  0  0  0  0  0  0
   18.6542   23.8345    3.9160 C   0  0  0  0  0  0  0  0  0  0  0  0
   17.6571   24.2775    4.5954 N   0  0  0  0  0  0  0  0  0  0  0  0
   21.9179   24.0600   -0.5490 C   0  0  0  0  0  0  0  0  0  0  0  0
   17.5268   25.6477   -5.4797 C   0  0  0  0  0  0  0  0  0  0  0  0
   19.8210   28.2133    4.7144 C   0  0  2  0  0  0  0  0  0  0  0  0
   20.8070   28.9873    5.5627 N   0  0  0  0  0  0  0  0  0  0  0  0
   18.7982   25.3186    0.4702 C   0  0  2  0  0  0  0  0  0  0  0  0
   18.5708   27.3163   -2.5379 C   0  0  1  0  0  0  0  0  0  0  0  0
   18.1860   26.4830   -1.4601 O   0  0  0  0  0  0  0  0  0  0  0  0
   20.2340   26.7505    4.5937 C   0  0  1  0  0  0  0  0  0  0  0  0
   20.3039   26.2570    6.0020 O   0  0  0  0  0  0  0  0  0  0  0  0
   19.1491   26.4235   -0.5095 C   0  0  2  0  0  0  0  0  0  0  0  0
   17.5010   27.2571   -3.6012 C   0  0  1  0  0  0  0  0  0  0  0  0
   17.3715   25.9263   -4.0802 N   0  0  0  0  0  0  0  0  0  0  0  0
   19.2846   25.9330    3.7202 C   0  0  2  0  0  0  0  0  0  0  0  0
   19.6285   24.5336    3.5754 N   0  0  0  0  0  0  0  0  0  0  0  0
   20.4698   25.9725   -1.0746 C   0  0  1  0  0  0  0  0  0  0  0  0
   20.2533   25.1357   -2.2156 O   0  0  0  0  0  0  0  0  0  0  0  0
   16.1925   27.7074   -2.9737 C   0  0  2  0  0  0  0  0  0  0  0  0
   15.1523   27.6614   -3.9258 O   0  0  0  0  0  0  0  0  0  0  0  0
   19.2530   26.5623    2.3515 C   0  0  1  0  0  0  0  0  0  0  0  0
   18.1960   25.8585    1.6419 O   0  0  0  0  0  0  0  0  0  0  0  0
   21.0832   25.1785    0.0190 C   0  0  1  0  0  0  0  0  0  0  0  0
   20.0137   24.6434    0.8019 O   0  0  0  0  0  0  0  0  0  0  0  0
   16.4032   29.1400   -2.4834 C   0  0  1  0  0  0  0  0  0  0  0  0
   15.2195   29.6328   -1.8752 O   0  0  0  0  0  0  0  0  0  0  0  0
   18.7848   28.0389    2.4536 C   0  0  2  0  0  0  0  0  0  0  0  0
   18.7485   28.6077    1.1539 O   0  0  0  0  0  0  0  0  0  0  0  0
   17.5538   29.1550   -1.4766 C   0  0  1  0  0  0  0  0  0  0  0  0
   18.7426   28.6586   -2.0894 O   0  0  0  0  0  0  0  0  0  0  0  0
   19.7738   28.8301    3.3313 C   0  0  1  0  0  0  0  0  0  0  0  0
   19.3555   30.1963    3.4354 O   0  0  0  0  0  0  0  0  0  0  0  0
   17.7862   30.5924   -1.0102 C   0  0  0  0  0  0  0  0  0  0  0  0
   19.0004   30.6542   -0.2794 O   0  0  0  0  0  0  0  0  0  0  0  0
   19.8946   31.0080    6.0868 N   0  0  0  0  0  0  0  0  0  0  0  0
   18.6992   22.6291    3.6132 N   0  0  0  0  0  0  0  0  0  0  0  0
  1  2  1  0  0  0  0
  1 39  1  0  0  0  0
  3  4  1  0  0  0  0
  5  6  1  0  0  0  0
  5 40  1  0  0  0  0
  9 10  1  1  0  0  0
  9 14  1  0  0  0  0
  9 35  1  0  0  0  0
 10  1  1  0  0  0  0
 11 16  1  0  0  0  0
 11 28  1  0  0  0  0
 11 26  1  1  0  0  0
 12 17  1  0  0  0  0
 12 34  1  0  0  0  0
 12 13  1  1  0  0  0
 14 15  1  1  0  0  0
 14 19  1  0  0  0  0
 16 13  1  6  0  0  0
 16 21  1  0  0  0  0
 17 18  1  1  0  0  0
 17 23  1  0  0  0  0
 18  8  1  0  0  0  0
 19 20  1  6  0  0  0
 19 25  1  0  0  0  0
 20  5  1  0  0  0  0
 21  3  1  6  0  0  0
 21 22  1  0  0  0  0
 21 27  1  0  0  0  0
 23 24  1  6  0  0  0
 23 29  1  0  0  0  0
 25 26  1  6  0  0  0
 25 31  1  0  0  0  0
 27  7  1  6  0  0  0
 27 28  1  0  0  0  0
 29 30  1  1  0  0  0
 29 33  1  0  0  0  0
 31 32  1  6  0  0  0
 31 35  1  0  0  0  0
 33 34  1  0  0  0  0
 33 37  1  6  0  0  0
 35 36  1  1  0  0  0
 37 38  1  0  0  0  0
M  END
>  <CHROM.1>
-136.90417782,93.30229194,-70.28921067,175.90994242,-169.05396522,-123.37576221
124.95747584,-16.04201334,154.45559381,-123.24724691,-169.08064191,19.00173804
27.16285568,0.83615722,0.87340408,-1.17416421,0.86883149

>  <Name>
1ntb_lig

>  <RI>
0

>  <Rbt.Current_Directory>
/home/itssahil/PROJECTS/Mol_Feturizer/New_Systems/rnas/1ntb

>  <Rbt.Executable>
rbdock ($Id: //depot/dev/client3/rdock/2013.1/src/exe/rbdock.cxx#4 $)

>  <Rbt.Library>
libRbt.so (2013.1, Build901 2013/11/27)

>  <Rbt.Parameter_File>
/export/apps/rDock/src/rDock_2013.1_src/data/scripts/dock_solv.prm

>  <Rbt.Receptor>
prm/blind_docking_40.prm

>  <SCORE>
-12.9988

>  <SCORE.INTER>
-9.05108

>  <SCORE.INTER.CONST>
1

>  <SCORE.INTER.POLAR>
-1.09347

>  <SCORE.INTER.ROT>
11

>  <SCORE.INTER.SOLV>
9.87295

>  <SCORE.INTER.VDW>
-16.6135

>  <SCORE.INTER.norm>
-0.226277

>  <SCORE.INTRA>
-5.11894

>  <SCORE.INTRA.DIHEDRAL>
-0.585955

>  <SCORE.INTRA.DIHEDRAL.0>
15.4453

>  <SCORE.INTRA.POLAR>
0

>  <SCORE.INTRA.POLAR.0>
0

>  <SCORE.INTRA.REPUL>
-0.823958

>  <SCORE.INTRA.REPUL.0>
0.823958

>  <SCORE.INTRA.SOLV>
-0.0186515

>  <SCORE.INTRA.SOLV.lig_0>
-99.3069

>  <SCORE.INTRA.VDW>
-0.696844

>  <SCORE.INTRA.VDW.0>
0.946495

>  <SCORE.INTRA.norm>
-0.127973

>  <SCORE.RESTR>
1.17118

>  <SCORE.RESTR.CAVITY>
1.17118

>  <SCORE.RESTR.norm>
0.0292795

>  <SCORE.SYSTEM>
0

>  <SCORE.SYSTEM.CONST>
0

>  <SCORE.SYSTEM.DIHEDRAL>
0

>  <SCORE.SYSTEM.SOLV>
0

>  <SCORE.SYSTEM.norm>
0

>  <SCORE.heavy>
40

>  <SCORE.norm>
-0.324971

>  <RMSD>
18.777

$$$$
1ntb_lig
 OpenBabel11021811403D
libRbt.so/2013.1/901 2013/11/27
 40 42  0  0  0  0  0  0  0  0999 V2000
   17.7178   20.2459    1.9785 C   0  0  0  0  0  0  0  0  0  0  0  0
   17.1803   19.4513    1.1360 N   0  0  0  0  0  0  0  0  0  0  0  0
   21.1332   30.3622    1.3191 C   0  0  0  0  0  0  0  0  0  0  0  0
   21.7610   31.4633    0.6837 O   0  0  0  0  0  0  0  0  0  0  0  0
   19.2167   24.4082   -2.1413 C   0  0  0  0  0  0  0  0  0  0  0  0
   20.4104   24.8513   -1.9659 N   0  0  0  0  0  0  0  0  0  0  0  0
   23.1323   27.9924    0.3356 C   0  0  0  0  0  0  0  0  0  0  0  0
   19.3215   33.4572    0.0670 C   0  0  0  0  0  0  0  0  0  0  0  0
   18.3911   22.4333    1.4059 C   0  0  2  0  0  0  0  0  0  0  0  0
   18.7276   20.9623    1.5232 N   0  0  0  0  0  0  0  0  0  0  0  0
   19.7183   27.2733   -0.0921 C   0  0  2  0  0  0  0  0  0  0  0  0
   17.8635   30.1338   -0.4545 C   0  0  1  0  0  0  0  0  0  0  0  0
   18.9661   29.3459   -0.8638 O   0  0  0  0  0  0  0  0  0  0  0  0
   18.4633   22.8966   -0.0450 C   0  0  1  0  0  0  0  0  0  0  0  0
   17.4989   22.0185   -0.7736 O   0  0  0  0  0  0  0  0  0  0  0  0
   19.5759   28.7574    0.1929 C   0  0  2  0  0  0  0  0  0  0  0  0
   18.0852   31.5536   -0.9166 C   0  0  1  0  0  0  0  0  0  0  0  0
   19.2631   32.0760   -0.3190 N   0  0  0  0  0  0  0  0  0  0  0  0
   18.1606   24.3843   -0.2116 C   0  0  2  0  0  0  0  0  0  0  0  0
   18.2111   24.8767   -1.5727 N   0  0  0  0  0  0  0  0  0  0  0  0
   21.0024   29.2146    0.3451 C   0  0  1  0  0  0  0  0  0  0  0  0
   21.5344   29.5895   -0.9298 O   0  0  0  0  0  0  0  0  0  0  0  0
   18.2404   31.5347   -2.4280 C   0  0  2  0  0  0  0  0  0  0  0  0
   18.4609   32.8410   -2.9133 O   0  0  0  0  0  0  0  0  0  0  0  0
   19.1560   25.1572    0.6142 C   0  0  1  0  0  0  0  0  0  0  0  0
   18.6925   26.5352    0.5635 O   0  0  0  0  0  0  0  0  0  0  0  0
   21.7175   28.0177    0.8533 C   0  0  1  0  0  0  0  0  0  0  0  0
   21.0039   26.8707    0.3861 O   0  0  0  0  0  0  0  0  0  0  0  0
   16.9431   30.9648   -3.0020 C   0  0  1  0  0  0  0  0  0  0  0  0
   17.0126   30.9089   -4.4183 O   0  0  0  0  0  0  0  0  0  0  0  0
   19.0584   24.7317    2.1040 C   0  0  2  0  0  0  0  0  0  0  0  0
   19.9930   25.4808    2.8653 O   0  0  0  0  0  0  0  0  0  0  0  0
   16.7235   29.5626   -2.4333 C   0  0  1  0  0  0  0  0  0  0  0  0
   16.6548   29.6207   -1.0095 O   0  0  0  0  0  0  0  0  0  0  0  0
   19.3818   23.2304    2.2299 C   0  0  1  0  0  0  0  0  0  0  0  0
   19.2962   22.8215    3.6002 O   0  0  0  0  0  0  0  0  0  0  0  0
   15.4098   29.0050   -2.9819 C   0  0  0  0  0  0  0  0  0  0  0  0
   14.3367   29.8195   -2.5376 O   0  0  0  0  0  0  0  0  0  0  0  0
   17.3215   20.3283    3.1999 N   0  0  0  0  0  0  0  0  0  0  0  0
   19.0192   23.4937   -2.9607 N   0  0  0  0  0  0  0  0  0  0  0  0
  1  2  1  0  0  0  0
  1 39  1  0  0  0  0
  3  4  1  0  0  0  0
  5  6  1  0  0  0  0
  5 40  1  0  0  0  0
  9 10  1  6  0  0  0
  9 14  1  0  0  0  0
  9 35  1  0  0  0  0
 10  1  1  0  0  0  0
 11 16  1  0  0  0  0
 11 28  1  0  0  0  0
 11 26  1  1  0  0  0
 12 17  1  0  0  0  0
 12 34  1  0  0  0  0
 12 13  1  6  0  0  0
 14 15  1  6  0  0  0
 14 19  1  0  0  0  0
 16 13  1  6  0  0  0
 16 21  1  0  0  0  0
 17 18  1  1  0  0  0
 17 23  1  0  0  0  0
 18  8  1  0  0  0  0
 19 20  1  6  0  0  0
 19 25  1  0  0  0  0
 20  5  1  0  0  0  0
 21  3  1  1  0  0  0
 21 22  1  0  0  0  0
 21 27  1  0  0  0  0
 23 24  1  6  0  0  0
 23 29  1  0  0  0  0
 25 26  1  1  0  0  0
 25 31  1  0  0  0  0
 27  7  1  6  0  0  0
 27 28  1  0  0  0  0
 29 30  1  6  0  0  0
 29 33  1  0  0  0  0
 31 32  1  1  0  0  0
 31 35  1  0  0  0  0
 33 34  1  0  0  0  0
 33 37  1  6  0  0  0
 35 36  1  1  0  0  0
 37 38  1  0  0  0  0
M  END
>  <CHROM.1>
-117.04512994,110.67459698,-161.32202033,121.75588450,128.94665772,-144.02510689
-43.78821090,-78.06909163,-123.59048426,-116.78244620,-62.84138746,18.84707095
27.03151713,-0.25093039,1.58593871,0.65824778,2.83985216

>  <Name>
1ntb_lig

>  <RI>
0

>  <Rbt.Current_Directory>
/home/itssahil/PROJECTS/Mol_Feturizer/New_Systems/rnas/1ntb

>  <Rbt.Executable>
rbdock ($Id: //depot/dev/client3/rdock/2013.1/src/exe/rbdock.cxx#4 $)

>  <Rbt.Library>
libRbt.so (2013.1, Build901 2013/11/27)

>  <Rbt.Parameter_File>
/export/apps/rDock/src/rDock_2013.1_src/data/scripts/dock_solv.prm

>  <Rbt.Receptor>
prm/blind_docking_60.prm

>  <SCORE>
-8.66627

>  <SCORE.INTER>
-10.7162

>  <SCORE.INTER.CONST>
1

>  <SCORE.INTER.POLAR>
-0.707069

>  <SCORE.INTER.ROT>
11

>  <SCORE.INTER.SOLV>
13.3427

>  <SCORE.INTER.VDW>
-20.1681

>  <SCORE.INTER.norm>
-0.267905

>  <SCORE.INTRA>
1.98008

>  <SCORE.INTRA.DIHEDRAL>
15.4899

>  <SCORE.INTRA.DIHEDRAL.0>
15.4453

>  <SCORE.INTRA.POLAR>
0

>  <SCORE.INTRA.POLAR.0>
0

>  <SCORE.INTRA.REPUL>
-0.823958

>  <SCORE.INTRA.REPUL.0>
0.823958

>  <SCORE.INTRA.SOLV>
2.07648

>  <SCORE.INTRA.SOLV.lig_0>
-99.3069

>  <SCORE.INTRA.VDW>
-2.6833

>  <SCORE.INTRA.VDW.0>
0.946495

>  <SCORE.INTRA.norm>
0.0495019

>  <SCORE.RESTR>
0.0698675

>  <SCORE.RESTR.CAVITY>
0.0698675

>  <SCORE.RESTR.norm>
0.00174669

>  <SCORE.SYSTEM>
0

>  <SCORE.SYSTEM.CONST>
0

>  <SCORE.SYSTEM.DIHEDRAL>
0

>  <SCORE.SYSTEM.SOLV>
0

>  <SCORE.SYSTEM.norm>
0

>  <SCORE.heavy>
40

>  <SCORE.norm>
-0.216657

>  <RMSD>
18.777

$$$$
1ntb_lig
 OpenBabel11021811403D
libRbt.so/2013.1/901 2013/11/27
 40 42  0  0  0  0  0  0  0  0999 V2000
   17.8211   22.5858    5.2167 C   0  0  0  0  0  0  0  0  0  0  0  0
   17.7590   21.3352    4.9668 N   0  0  0  0  0  0  0  0  0  0  0  0
   20.5822   29.9573    1.3163 C   0  0  0  0  0  0  0  0  0  0  0  0
   21.4804   31.0389    1.1326 O   0  0  0  0  0  0  0  0  0  0  0  0
   18.6426   22.8127   -1.0091 C   0  0  0  0  0  0  0  0  0  0  0  0
   17.7348   22.0030   -0.5939 N   0  0  0  0  0  0  0  0  0  0  0  0
   23.0439   27.9984    0.4900 C   0  0  0  0  0  0  0  0  0  0  0  0
   20.2739   32.4447   -1.7424 C   0  0  0  0  0  0  0  0  0  0  0  0
   18.5097   23.9138    3.3924 C   0  0  2  0  0  0  0  0  0  0  0  0
   18.8521   23.2215    4.6941 N   0  0  0  0  0  0  0  0  0  0  0  0
   19.8936   26.9100   -0.6265 C   0  0  2  0  0  0  0  0  0  0  0  0
   18.2782   30.1206   -0.9564 C   0  0  1  0  0  0  0  0  0  0  0  0
   18.9868   28.9492   -1.3167 O   0  0  0  0  0  0  0  0  0  0  0  0
   19.1941   23.2307    2.2135 C   0  0  1  0  0  0  0  0  0  0  0  0
   18.7171   21.8159    2.2637 O   0  0  0  0  0  0  0  0  0  0  0  0
   19.4893   28.3179   -0.2287 C   0  0  2  0  0  0  0  0  0  0  0  0
   18.2628   31.0595   -2.1382 C   0  0  1  0  0  0  0  0  0  0  0  0
   19.5922   31.4214   -2.4830 N   0  0  0  0  0  0  0  0  0  0  0  0
   18.9030   23.9127    0.8782 C   0  0  2  0  0  0  0  0  0  0  0  0
   19.5259   23.3006   -0.2772 N   0  0  0  0  0  0  0  0  0  0  0  0
   20.7871   28.9303    0.2273 C   0  0  1  0  0  0  0  0  0  0  0  0
   21.4657   29.5227   -0.8852 O   0  0  0  0  0  0  0  0  0  0  0  0
   17.6086   30.3351   -3.3026 C   0  0  2  0  0  0  0  0  0  0  0  0
   17.5772   31.1678   -4.4412 O   0  0  0  0  0  0  0  0  0  0  0  0
   19.3708   25.3417    0.9735 C   0  0  1  0  0  0  0  0  0  0  0  0
   18.8913   25.9732   -0.2462 O   0  0  0  0  0  0  0  0  0  0  0  0
   21.5739   27.7805    0.7386 C   0  0  1  0  0  0  0  0  0  0  0  0
   21.1251   26.6181    0.0381 O   0  0  0  0  0  0  0  0  0  0  0  0
   16.1882   29.9782   -2.8640 C   0  0  1  0  0  0  0  0  0  0  0  0
   15.5094   29.2890   -3.9023 O   0  0  0  0  0  0  0  0  0  0  0  0
   18.6438   26.0648    2.1392 C   0  0  2  0  0  0  0  0  0  0  0  0
   19.0879   27.4113    2.2022 O   0  0  0  0  0  0  0  0  0  0  0  0
   16.2614   29.1003   -1.6143 C   0  0  1  0  0  0  0  0  0  0  0  0
   16.9448   29.7944   -0.5719 O   0  0  0  0  0  0  0  0  0  0  0  0
   18.9726   25.3547    3.4666 C   0  0  1  0  0  0  0  0  0  0  0  0
   18.3088   26.0106    4.5534 O   0  0  0  0  0  0  0  0  0  0  0  0
   14.8406   28.7697   -1.1565 C   0  0  0  0  0  0  0  0  0  0  0  0
   14.4509   27.5235   -1.7109 O   0  0  0  0  0  0  0  0  0  0  0  0
   16.9520   23.1871    5.9507 N   0  0  0  0  0  0  0  0  0  0  0  0
   18.6970   23.1012   -2.2176 N   0  0  0  0  0  0  0  0  0  0  0  0
  1  2  1  0  0  0  0
  1 39  1  0  0  0  0
  3  4  1  0  0  0  0
  5  6  1  0  0  0  0
  5 40  1  0  0  0  0
  9 10  1  1  0  0  0
  9 14  1  0  0  0  0
  9 35  1  0  0  0  0
 10  1  1  0  0  0  0
 11 16  1  0  0  0  0
 11 28  1  0  0  0  0
 11 26  1  1  0  0  0
 12 17  1  0  0  0  0
 12 34  1  0  0  0  0
 12 13  1  6  0  0  0
 14 15  1  6  0  0  0
 14 19  1  0  0  0  0
 16 13  1  6  0  0  0
 16 21  1  0  0  0  0
 17 18  1  6  0  0  0
 17 23  1  0  0  0  0
 18  8  1  0  0  0  0
 19 20  1  6  0  0  0
 19 25  1  0  0  0  0
 20  5  1  0  0  0  0
 21  3  1  1  0  0  0
 21 22  1  0  0  0  0
 21 27  1  0  0  0  0
 23 24  1  6  0  0  0
 23 29  1  0  0  0  0
 25 26  1  6  0  0  0
 25 31  1  0  0  0  0
 27  7  1  6  0  0  0
 27 28  1  0  0  0  0
 29 30  1  6  0  0  0
 29 33  1  0  0  0  0
 31 32  1  1  0  0  0
 31 35  1  0  0  0  0
 33 34  1  0  0  0  0
 33 37  1  1  0  0  0
 35 36  1  1  0  0  0
 37 38  1  0  0  0  0
M  END
>  <CHROM.1>
-110.61413182,97.06895399,-101.07936070,155.99781620,164.69539844,-80.44411422
112.96496463,-52.37708255,-142.26523253,-144.36369681,94.19141964,18.71925907
26.99397020,0.28560433,-1.55585222,-0.65762951,-0.61568487

>  <Name>
1ntb_lig

>  <RI>
0

>  <Rbt.Current_Directory>
/home/itssahil/PROJECTS/Mol_Feturizer/New_Systems/rnas/1ntb

>  <Rbt.Executable>
rbdock ($Id: //depot/dev/client3/rdock/2013.1/src/exe/rbdock.cxx#4 $)

>  <Rbt.Library>
libRbt.so (2013.1, Build901 2013/11/27)

>  <Rbt.Parameter_File>
/export/apps/rDock/src/rDock_2013.1_src/data/scripts/dock_solv.prm

>  <Rbt.Receptor>
prm/blind_docking_60.prm

>  <SCORE>
-10.1406

>  <SCORE.INTER>
-9.65866

>  <SCORE.INTER.CONST>
1

>  <SCORE.INTER.POLAR>
-0.913755

>  <SCORE.INTER.ROT>
11

>  <SCORE.INTER.SOLV>
16.8872

>  <SCORE.INTER.VDW>
-19.9557

>  <SCORE.INTER.norm>
-0.241466

>  <SCORE.INTRA>
-1.52473

>  <SCORE.INTRA.DIHEDRAL>
9.34922

>  <SCORE.INTRA.DIHEDRAL.0>
15.4453

>  <SCORE.INTRA.POLAR>
0

>  <SCORE.INTRA.POLAR.0>
0

>  <SCORE.INTRA.REPUL>
-0.823958

>  <SCORE.INTRA.REPUL.0>
0.823958

>  <SCORE.INTRA.SOLV>
-1.36084

>  <SCORE.INTRA.SOLV.lig_0>
-99.3069

>  <SCORE.INTRA.VDW>
-1.39913

>  <SCORE.INTRA.VDW.0>
0.946495

>  <SCORE.INTRA.norm>
-0.0381182

>  <SCORE.RESTR>
1.04277

>  <SCORE.RESTR.CAVITY>
1.04277

>  <SCORE.RESTR.norm>
0.0260691

>  <SCORE.SYSTEM>
0

>  <SCORE.SYSTEM.CONST>
0

>  <SCORE.SYSTEM.DIHEDRAL>
0

>  <SCORE.SYSTEM.SOLV>
0

>  <SCORE.SYSTEM.norm>
0

>  <SCORE.heavy>
40

>  <SCORE.norm>
-0.253516

>  <RMSD>
18.780

$$$$
1ntb_lig
 OpenBabel11021811403D
libRbt.so/2013.1/901 2013/11/27
 40 42  0  0  0  0  0  0  0  0999 V2000
   20.2115   23.8333    5.0378 C   0  0  0  0  0  0  0  0  0  0  0  0
   21.0518   22.8736    5.0936 N   0  0  0  0  0  0  0  0  0  0  0  0
   16.7277   30.7161   -2.9031 C   0  0  0  0  0  0  0  0  0  0  0  0
   15.6021   30.4977   -2.0690 O   0  0  0  0  0  0  0  0  0  0  0  0
   20.2910   25.0452   -0.5280 C   0  0  0  0  0  0  0  0  0  0  0  0
   21.0912   26.0461   -0.6277 N   0  0  0  0  0  0  0  0  0  0  0  0
   19.1514   31.9659   -1.1299 C   0  0  0  0  0  0  0  0  0  0  0  0
   14.7332   25.6782   -2.2011 C   0  0  0  0  0  0  0  0  0  0  0  0
   19.6596   25.5531    3.5200 C   0  0  2  0  0  0  0  0  0  0  0  0
   20.6538   24.9476    4.4874 N   0  0  0  0  0  0  0  0  0  0  0  0
   18.6603   28.5149   -0.6772 C   0  0  2  0  0  0  0  0  0  0  0  0
   18.2725   26.5136   -2.4889 C   0  0  1  0  0  0  0  0  0  0  0  0
   18.2772   27.8712   -2.8899 O   0  0  0  0  0  0  0  0  0  0  0  0
   19.8770   25.0203    2.1080 C   0  0  1  0  0  0  0  0  0  0  0  0
   19.7381   23.5382    2.2345 O   0  0  0  0  0  0  0  0  0  0  0  0
   17.7967   28.6791   -1.9146 C   0  0  2  0  0  0  0  0  0  0  0  0
   17.0467   25.8442   -3.0614 C   0  0  1  0  0  0  0  0  0  0  0  0
   15.8761   26.4705   -2.5567 N   0  0  0  0  0  0  0  0  0  0  0  0
   18.9154   25.6258    1.0876 C   0  0  2  0  0  0  0  0  0  0  0  0
   19.0757   25.1501   -0.2710 N   0  0  0  0  0  0  0  0  0  0  0  0
   17.9643   30.1356   -2.2575 C   0  0  1  0  0  0  0  0  0  0  0  0
   19.0948   30.3083   -3.1185 O   0  0  0  0  0  0  0  0  0  0  0  0
   17.0969   25.9902   -4.5730 C   0  0  2  0  0  0  0  0  0  0  0  0
   15.9643   25.3879   -5.1604 O   0  0  0  0  0  0  0  0  0  0  0  0
   19.1068   27.1203    1.0972 C   0  0  1  0  0  0  0  0  0  0  0  0
   18.0385   27.6385    0.2567 O   0  0  0  0  0  0  0  0  0  0  0  0
   18.2251   30.7908   -0.9518 C   0  0  1  0  0  0  0  0  0  0  0  0
   18.8312   29.8130   -0.1034 O   0  0  0  0  0  0  0  0  0  0  0  0
   18.3748   25.2965   -5.0454 C   0  0  1  0  0  0  0  0  0  0  0  0
   18.4977   25.3954   -6.4557 O   0  0  0  0  0  0  0  0  0  0  0  0
   18.8388   27.6836    2.5189 C   0  0  2  0  0  0  0  0  0  0  0  0
   19.0104   29.0923    2.5024 O   0  0  0  0  0  0  0  0  0  0  0  0
   19.5763   25.9563   -4.3681 C   0  0  1  0  0  0  0  0  0  0  0  0
   19.4505   25.8567   -2.9505 O   0  0  0  0  0  0  0  0  0  0  0  0
   19.8354   27.0580    3.5137 C   0  0  1  0  0  0  0  0  0  0  0  0
   19.6012   27.5682    4.8317 O   0  0  0  0  0  0  0  0  0  0  0  0
   20.8519   25.2420   -4.8153 C   0  0  0  0  0  0  0  0  0  0  0  0
   21.1508   24.2037   -3.8960 O   0  0  0  0  0  0  0  0  0  0  0  0
   19.0182   23.7344    5.5089 N   0  0  0  0  0  0  0  0  0  0  0  0
   20.7179   23.8981   -0.7481 N   0  0  0  0  0  0  0  0  0  0  0  0
  1  2  1  0  0  0  0
  1 39  1  0  0  0  0
  3  4  1  0  0  0  0
  5  6  1  0  0  0  0
  5 40  1  0  0  0  0
  9 10  1  1  0  0  0
  9 14  1  0  0  0  0
  9 35  1  0  0  0  0
 10  1  1  0  0  0  0
 11 16  1  0  0  0  0
 11 28  1  0  0  0  0
 11 26  1  1  0  0  0
 12 17  1  0  0  0  0
 12 34  1  0  0  0  0
 12 13  1  6  0  0  0
 14 15  1  1  0  0  0
 14 19  1  0  0  0  0
 16 13  1  6  0  0  0
 16 21  1  0  0  0  0
 17 18  1  1  0  0  0
 17 23  1  0  0  0  0
 18  8  1  0  0  0  0
 19 20  1  6  0  0  0
 19 25  1  0  0  0  0
 20  5  1  0  0  0  0
 21  3  1  6  0  0  0
 21 22  1  0  0  0  0
 21 27  1  0  0  0  0
 23 24  1  6  0  0  0
 23 29  1  0  0  0  0
 25 26  1  6  0  0  0
 25 31  1  0  0  0  0
 27  7  1  6  0  0  0
 27 28  1  0  0  0  0
 29 30  1  6  0  0  0
 29 33  1  0  0  0  0
 31 32  1  6  0  0  0
 31 35  1  0  0  0  0
 33 34  1  0  0  0  0
 33 37  1  6  0  0  0
 35 36  1  1  0  0  0
 37 38  1  0  0  0  0
M  END
>  <CHROM.1>
-90.08043654,135.59566304,157.32472810,98.61084522,59.25790852,-140.42561780
-40.45856313,-67.70281939,54.99964621,-129.50442690,-91.94545958,18.78517199
26.73775511,-0.63956072,-0.70364251,1.22900868,-2.12840573

>  <Name>
1ntb_lig

>  <RI>
0

>  <Rbt.Current_Directory>
/home/itssahil/PROJECTS/Mol_Feturizer/New_Systems/rnas/1ntb

>  <Rbt.Executable>
rbdock ($Id: //depot/dev/client3/rdock/2013.1/src/exe/rbdock.cxx#4 $)

>  <Rbt.Library>
libRbt.so (2013.1, Build901 2013/11/27)

>  <Rbt.Parameter_File>
/export/apps/rDock/src/rDock_2013.1_src/data/scripts/dock_solv.prm

>  <Rbt.Receptor>
prm/blind_docking_100.prm

>  <SCORE>
-4.48321

>  <SCORE.INTER>
-8.97573

>  <SCORE.INTER.CONST>
1

>  <SCORE.INTER.POLAR>
-0.160752

>  <SCORE.INTER.ROT>
11

>  <SCORE.INTER.SOLV>
12.8528

>  <SCORE.INTER.VDW>
-20.6656

>  <SCORE.INTER.norm>
-0.224393

>  <SCORE.INTRA>
0.074777

>  <SCORE.INTRA.DIHEDRAL>
4.82169

>  <SCORE.INTRA.DIHEDRAL.0>
15.4453

>  <SCORE.INTRA.POLAR>
0

>  <SCORE.INTRA.POLAR.0>
0

>  <SCORE.INTRA.REPUL>
-0.812435

>  <SCORE.INTRA.REPUL.0>
0.823958

>  <SCORE.INTRA.SOLV>
6.45478

>  <SCORE.INTRA.SOLV.lig_0>
-99.3069

>  <SCORE.INTRA.VDW>
-1.50128

>  <SCORE.INTRA.VDW.0>
0.946495

>  <SCORE.INTRA.norm>
0.00186942

>  <SCORE.RESTR>
4.41774

>  <SCORE.RESTR.CAVITY>
4.41774

>  <SCORE.RESTR.norm>
0.110443

>  <SCORE.SYSTEM>
0

>  <SCORE.SYSTEM.CONST>
0

>  <SCORE.SYSTEM.DIHEDRAL>
0

>  <SCORE.SYSTEM.SOLV>
0

>  <SCORE.SYSTEM.norm>
0

>  <SCORE.heavy>
40

>  <SCORE.norm>
-0.11208

>  <RMSD>
18.782

$$$$
1ntb_lig
 OpenBabel11021811403D
libRbt.so/2013.1/901 2013/11/27
 40 42  0  0  0  0  0  0  0  0999 V2000
   19.4529   35.1172   -1.1184 C   0  0  0  0  0  0  0  0  0  0  0  0
   20.3318   34.6756   -1.9325 N   0  0  0  0  0  0  0  0  0  0  0  0
   16.4087   25.4506   -2.1884 C   0  0  0  0  0  0  0  0  0  0  0  0
   17.0051   24.9561   -1.0009 O   0  0  0  0  0  0  0  0  0  0  0  0
   21.3504   29.0800    0.4074 C   0  0  0  0  0  0  0  0  0  0  0  0
   21.1242   29.2252    1.6643 N   0  0  0  0  0  0  0  0  0  0  0  0
   15.6218   28.0152   -4.0279 C   0  0  0  0  0  0  0  0  0  0  0  0
   19.6013   24.8595   -5.4427 C   0  0  0  0  0  0  0  0  0  0  0  0
   19.2438   33.2219    0.2708 C   0  0  2  0  0  0  0  0  0  0  0  0
   19.5642   34.6941    0.1261 N   0  0  0  0  0  0  0  0  0  0  0  0
   18.3616   28.5544   -1.8929 C   0  0  2  0  0  0  0  0  0  0  0  0
   19.3672   25.1143   -2.3377 C   0  0  1  0  0  0  0  0  0  0  0  0
   19.4689   26.5122   -2.1387 O   0  0  0  0  0  0  0  0  0  0  0  0
   20.4306   32.3606   -0.1470 C   0  0  1  0  0  0  0  0  0  0  0  0
   21.5516   32.8024    0.7363 O   0  0  0  0  0  0  0  0  0  0  0  0
   18.2874   27.0455   -1.7458 C   0  0  2  0  0  0  0  0  0  0  0  0
   20.5441   24.6564   -3.1646 C   0  0  1  0  0  0  0  0  0  0  0  0
   20.5209   25.2979   -4.4316 N   0  0  0  0  0  0  0  0  0  0  0  0
   20.1453   30.8635   -0.0472 C   0  0  2  0  0  0  0  0  0  0  0  0
   21.2425   29.9984   -0.4286 N   0  0  0  0  0  0  0  0  0  0  0  0
   17.1633   26.6665   -2.6730 C   0  0  1  0  0  0  0  0  0  0  0  0
   17.6731   26.4353   -3.9905 O   0  0  0  0  0  0  0  0  0  0  0  0
   21.8138   25.0337   -2.4203 C   0  0  2  0  0  0  0  0  0  0  0  0
   22.9492   24.6357   -3.1573 O   0  0  0  0  0  0  0  0  0  0  0  0
   18.9635   30.5550   -0.9294 C   0  0  1  0  0  0  0  0  0  0  0  0
   18.6320   29.1689   -0.6375 O   0  0  0  0  0  0  0  0  0  0  0  0
   16.2787   27.8581   -2.6810 C   0  0  1  0  0  0  0  0  0  0  0  0
   17.0996   28.9941   -2.4003 O   0  0  0  0  0  0  0  0  0  0  0  0
   21.7724   24.3111   -1.0737 C   0  0  1  0  0  0  0  0  0  0  0  0
   22.9294   24.6196   -0.3121 O   0  0  0  0  0  0  0  0  0  0  0  0
   17.7321   31.3884   -0.4829 C   0  0  2  0  0  0  0  0  0  0  0  0
   16.6279   31.0725   -1.3165 O   0  0  0  0  0  0  0  0  0  0  0  0
   20.5168   24.7453   -0.3168 C   0  0  1  0  0  0  0  0  0  0  0  0
   19.3549   24.4352   -1.0843 O   0  0  0  0  0  0  0  0  0  0  0  0
   18.0565   32.8894   -0.6098 C   0  0  1  0  0  0  0  0  0  0  0  0
   16.9290   33.6730   -0.2012 O   0  0  0  0  0  0  0  0  0  0  0  0
   20.4581   23.9987    1.0161 C   0  0  0  0  0  0  0  0  0  0  0  0
   19.2842   24.3830    1.7137 O   0  0  0  0  0  0  0  0  0  0  0  0
   18.5034   35.9033   -1.4873 N   0  0  0  0  0  0  0  0  0  0  0  0
   21.7523   27.9826   -0.0178 N   0  0  0  0  0  0  0  0  0  0  0  0
  1  2  1  0  0  0  0
  1 39  1  0  0  0  0
  3  4  1  0  0  0  0
  5  6  1  0  0  0  0
  5 40  1  0  0  0  0
  9 10  1  6  0  0  0
  9 14  1  0  0  0  0
  9 35  1  0  0  0  0
 10  1  1  0  0  0  0
 11 16  1  0  0  0  0
 11 28  1  0  0  0  0
 11 26  1  1  0  0  0
 12 17  1  0  0  0  0
 12 34  1  0  0  0  0
 12 13  1  1  0  0  0
 14 15  1  1  0  0  0
 14 19  1  0  0  0  0
 16 13  1  6  0  0  0
 16 21  1  0  0  0  0
 17 18  1  6  0  0  0
 17 23  1  0  0  0  0
 18  8  1  0  0  0  0
 19 20  1  6  0  0  0
 19 25  1  0  0  0  0
 20  5  1  0  0  0  0
 21  3  1  1  0  0  0
 21 22  1  0  0  0  0
 21 27  1  0  0  0  0
 23 24  1  6  0  0  0
 23 29  1  0  0  0  0
 25 26  1  1  0  0  0
 25 31  1  0  0  0  0
 27  7  1  6  0  0  0
 27 28  1  0  0  0  0
 29 30  1  1  0  0  0
 29 33  1  0  0  0  0
 31 32  1  6  0  0  0
 31 35  1  0  0  0  0
 33 34  1  0  0  0  0
 33 37  1  1  0  0  0
 35 36  1  1  0  0  0
 37 38  1  0  0  0  0
M  END
>  <CHROM.1>
80.01374488,-69.17083124,168.16794739,162.59044949,-165.70906010,-76.45933431
135.52369061,-35.07476256,-2.32365810,-137.30608614,-179.13236800,19.33997900
28.48157077,-1.30315484,-1.69643594,0.53389022,-2.92012964

>  <Name>
1ntb_lig

>  <RI>
0

>  <Rbt.Current_Directory>
/home/itssahil/PROJECTS/Mol_Feturizer/New_Systems/rnas/1ntb

>  <Rbt.Executable>
rbdock ($Id: //depot/dev/client3/rdock/2013.1/src/exe/rbdock.cxx#4 $)

>  <Rbt.Library>
libRbt.so (2013.1, Build901 2013/11/27)

>  <Rbt.Parameter_File>
/export/apps/rDock/src/rDock_2013.1_src/data/scripts/dock_solv.prm

>  <Rbt.Receptor>
prm/blind_docking_100.prm

>  <SCORE>
-5.19161

>  <SCORE.INTER>
-8.32855

>  <SCORE.INTER.CONST>
1

>  <SCORE.INTER.POLAR>
-0.758815

>  <SCORE.INTER.ROT>
11

>  <SCORE.INTER.SOLV>
17.979

>  <SCORE.INTER.VDW>
-19.9493

>  <SCORE.INTER.norm>
-0.208214

>  <SCORE.INTRA>
1.72289

>  <SCORE.INTRA.DIHEDRAL>
1.47351

>  <SCORE.INTRA.DIHEDRAL.0>
15.4453

>  <SCORE.INTRA.POLAR>
0

>  <SCORE.INTRA.POLAR.0>
0

>  <SCORE.INTRA.REPUL>
-0.823958

>  <SCORE.INTRA.REPUL.0>
0.823958

>  <SCORE.INTRA.SOLV>
4.28912

>  <SCORE.INTRA.SOLV.lig_0>
-99.3069

>  <SCORE.INTRA.VDW>
2.96137

>  <SCORE.INTRA.VDW.0>
0.946495

>  <SCORE.INTRA.norm>
0.0430724

>  <SCORE.RESTR>
1.41405

>  <SCORE.RESTR.CAVITY>
1.41405

>  <SCORE.RESTR.norm>
0.0353511

>  <SCORE.SYSTEM>
0

>  <SCORE.SYSTEM.CONST>
0

>  <SCORE.SYSTEM.DIHEDRAL>
0

>  <SCORE.SYSTEM.SOLV>
0

>  <SCORE.SYSTEM.norm>
0

>  <SCORE.heavy>
40

>  <SCORE.norm>
-0.12979

>  <RMSD>
18.820

$$$$
1ntb_lig
 OpenBabel11021811403D
libRbt.so/2013.1/901 2013/11/27
 40 42  0  0  0  0  0  0  0  0999 V2000
   19.9766   34.5040   -1.7939 C   0  0  0  0  0  0  0  0  0  0  0  0
   19.0784   35.3852   -2.0106 N   0  0  0  0  0  0  0  0  0  0  0  0
   15.8170   25.2927   -1.8904 C   0  0  0  0  0  0  0  0  0  0  0  0
   14.7816   25.0202   -2.8199 O   0  0  0  0  0  0  0  0  0  0  0  0
   21.6157   28.6047    0.2003 C   0  0  0  0  0  0  0  0  0  0  0  0
   20.7711   28.2593    1.1055 N   0  0  0  0  0  0  0  0  0  0  0  0
   15.5631   27.6858   -4.0786 C   0  0  0  0  0  0  0  0  0  0  0  0
   18.4902   23.1413   -4.1705 C   0  0  0  0  0  0  0  0  0  0  0  0
   19.7143   32.7600   -0.2269 C   0  0  2  0  0  0  0  0  0  0  0  0
   20.1595   34.1746   -0.5297 N   0  0  0  0  0  0  0  0  0  0  0  0
   18.2956   28.0113   -1.8916 C   0  0  2  0  0  0  0  0  0  0  0  0
   18.7868   24.4475   -1.4357 C   0  0  1  0  0  0  0  0  0  0  0  0
   19.0172   25.7907   -1.8190 O   0  0  0  0  0  0  0  0  0  0  0  0
   20.7711   31.7498   -0.6600 C   0  0  1  0  0  0  0  0  0  0  0  0
   22.0038   32.1448    0.0859 O   0  0  0  0  0  0  0  0  0  0  0  0
   17.9428   26.5732   -1.5581 C   0  0  2  0  0  0  0  0  0  0  0  0
   19.8054   23.5678   -2.1192 C   0  0  1  0  0  0  0  0  0  0  0  0
   19.6605   23.6689   -3.5285 N   0  0  0  0  0  0  0  0  0  0  0  0
   20.3543   30.3033   -0.4023 C   0  0  2  0  0  0  0  0  0  0  0  0
   21.3251   29.3016   -0.7916 N   0  0  0  0  0  0  0  0  0  0  0  0
   16.7942   26.2790   -2.4862 C   0  0  1  0  0  0  0  0  0  0  0  0
   17.2891   25.7862   -3.7357 O   0  0  0  0  0  0  0  0  0  0  0  0
   21.1877   24.0470   -1.7088 C   0  0  2  0  0  0  0  0  0  0  0  0
   22.1818   23.2618   -2.3300 O   0  0  0  0  0  0  0  0  0  0  0  0
   19.0740   30.0468   -1.1542 C   0  0  1  0  0  0  0  0  0  0  0  0
   18.6392   28.7308   -0.7122 O   0  0  0  0  0  0  0  0  0  0  0  0
   16.1429   27.5967   -2.6907 C   0  0  1  0  0  0  0  0  0  0  0  0
   17.1497   28.5961   -2.5148 O   0  0  0  0  0  0  0  0  0  0  0  0
   21.2735   23.9103   -0.1885 C   0  0  1  0  0  0  0  0  0  0  0  0
   22.5415   24.3467    0.2756 O   0  0  0  0  0  0  0  0  0  0  0  0
   17.9729   31.0363   -0.6865 C   0  0  2  0  0  0  0  0  0  0  0  0
   16.7732   30.7684   -1.3959 O   0  0  0  0  0  0  0  0  0  0  0  0
   20.1659   24.7508    0.4478 C   0  0  1  0  0  0  0  0  0  0  0  0
   18.8921   24.3112   -0.0206 O   0  0  0  0  0  0  0  0  0  0  0  0
   18.4264   32.4804   -0.9746 C   0  0  1  0  0  0  0  0  0  0  0  0
   17.4201   33.4068   -0.5485 O   0  0  0  0  0  0  0  0  0  0  0  0
   20.2310   24.5889    1.9667 C   0  0  0  0  0  0  0  0  0  0  0  0
   19.7523   23.3007    2.3186 O   0  0  0  0  0  0  0  0  0  0  0  0
   20.6782   33.9863   -2.7401 N   0  0  0  0  0  0  0  0  0  0  0  0
   22.8103   28.2821    0.3251 N   0  0  0  0  0  0  0  0  0  0  0  0
  1  2  1  0  0  0  0
  1 39  1  0  0  0  0
  3  4  1  0  0  0  0
  5  6  1  0  0  0  0
  5 40  1  0  0  0  0
  9 10  1  6  0  0  0
  9 14  1  0  0  0  0
  9 35  1  0  0  0  0
 10  1  1  0  0  0  0
 11 16  1  0  0  0  0
 11 28  1  0  0  0  0
 11 26  1  1  0  0  0
 12 17  1  0  0  0  0
 12 34  1  0  0  0  0
 12 13  1  1  0  0  0
 14 15  1  1  0  0  0
 14 19  1  0  0  0  0
 16 13  1  6  0  0  0
 16 21  1  0  0  0  0
 17 18  1  6  0  0  0
 17 23  1  0  0  0  0
 18  8  1  0  0  0  0
 19 20  1  6  0  0  0
 19 25  1  0  0  0  0
 20  5  1  0  0  0  0
 21  3  1  1  0  0  0
 21 22  1  0  0  0  0
 21 27  1  0  0  0  0
 23 24  1  6  0  0  0
 23 29  1  0  0  0  0
 25 26  1  1  0  0  0
 25 31  1  0  0  0  0
 27  7  1  6  0  0  0
 27 28  1  0  0  0  0
 29 30  1  1  0  0  0
 29 33  1  0  0  0  0
 31 32  1  6  0  0  0
 31 35  1  0  0  0  0
 33 34  1  0  0  0  0
 33 37  1  1  0  0  0
 35 36  1  1  0  0  0
 37 38  1  0  0  0  0
M  END
>  <CHROM.1>
80.08336384,111.55655873,174.93311693,162.74999161,175.66707454,-68.13548709
122.55996753,36.86047382,-178.16484720,-133.00610866,-73.22114074,19.21182086
27.94597830,-1.22780391,-1.55029748,0.53918260,-3.11693465

>  <Name>
1ntb_lig

>  <RI>
0

>  <Rbt.Current_Directory>
/home/itssahil/PROJECTS/Mol_Feturizer/New_Systems/rnas/1ntb

>  <Rbt.Executable>
rbdock ($Id: //depot/dev/client3/rdock/2013.1/src/exe/rbdock.cxx#4 $)

>  <Rbt.Library>
libRbt.so (2013.1, Build901 2013/11/27)

>  <Rbt.Parameter_File>
/export/apps/rDock/src/rDock_2013.1_src/data/scripts/dock_solv.prm

>  <Rbt.Receptor>
prm/blind_docking_80.prm

>  <SCORE>
-4.09728

>  <SCORE.INTER>
-1.10607

>  <SCORE.INTER.CONST>
1

>  <SCORE.INTER.POLAR>
0

>  <SCORE.INTER.ROT>
11

>  <SCORE.INTER.SOLV>
22.8348

>  <SCORE.INTER.VDW>
-19.2823

>  <SCORE.INTER.norm>
-0.0276519

>  <SCORE.INTRA>
-6.98473

>  <SCORE.INTRA.DIHEDRAL>
-4.0218

>  <SCORE.INTRA.DIHEDRAL.0>
15.4453

>  <SCORE.INTRA.POLAR>
0

>  <SCORE.INTRA.POLAR.0>
0

>  <SCORE.INTRA.REPUL>
-0.823958

>  <SCORE.INTRA.REPUL.0>
0.823958

>  <SCORE.INTRA.SOLV>
1.62461

>  <SCORE.INTRA.SOLV.lig_0>
-99.3069

>  <SCORE.INTRA.VDW>
-1.66634

>  <SCORE.INTRA.VDW.0>
0.946495

>  <SCORE.INTRA.norm>
-0.174618

>  <SCORE.RESTR>
3.99353

>  <SCORE.RESTR.CAVITY>
3.99353

>  <SCORE.RESTR.norm>
0.0998381

>  <SCORE.SYSTEM>
0

>  <SCORE.SYSTEM.CONST>
0

>  <SCORE.SYSTEM.DIHEDRAL>
0

>  <SCORE.SYSTEM.SOLV>
0

>  <SCORE.SYSTEM.norm>
0

>  <SCORE.heavy>
40

>  <SCORE.norm>
-0.102432

>  <RMSD>
18.830

$$$$
1ntb_lig
 OpenBabel11021811403D
libRbt.so/2013.1/901 2013/11/27
 40 42  0  0  0  0  0  0  0  0999 V2000
   19.9154   34.5745   -1.2035 C   0  0  0  0  0  0  0  0  0  0  0  0
   20.4713   33.9843   -2.1898 N   0  0  0  0  0  0  0  0  0  0  0  0
   15.9296   25.3062   -2.0567 C   0  0  0  0  0  0  0  0  0  0  0  0
   14.8495   25.0846   -2.9481 O   0  0  0  0  0  0  0  0  0  0  0  0
   21.4995   28.3227    0.0418 C   0  0  0  0  0  0  0  0  0  0  0  0
   21.0663   27.1421   -0.2239 N   0  0  0  0  0  0  0  0  0  0  0  0
   15.4382   27.9321   -3.9122 C   0  0  0  0  0  0  0  0  0  0  0  0
   20.5284   25.5278   -4.4653 C   0  0  0  0  0  0  0  0  0  0  0  0
   19.7875   32.6550    0.1621 C   0  0  2  0  0  0  0  0  0  0  0  0
   20.2142   34.0969   -0.0107 N   0  0  0  0  0  0  0  0  0  0  0  0
   18.3284   28.0921   -1.9180 C   0  0  2  0  0  0  0  0  0  0  0  0
   18.8677   24.5120   -2.1212 C   0  0  1  0  0  0  0  0  0  0  0  0
   19.1111   25.9057   -2.1711 O   0  0  0  0  0  0  0  0  0  0  0  0
   20.8486   31.7025   -0.3780 C   0  0  1  0  0  0  0  0  0  0  0  0
   22.0872   32.0390    0.3865 O   0  0  0  0  0  0  0  0  0  0  0  0
   18.0411   26.6129   -1.7354 C   0  0  2  0  0  0  0  0  0  0  0  0
   20.0254   23.7951   -2.7727 C   0  0  1  0  0  0  0  0  0  0  0  0
   20.1314   24.1890   -4.1332 N   0  0  0  0  0  0  0  0  0  0  0  0
   20.4499   30.2334   -0.2536 C   0  0  2  0  0  0  0  0  0  0  0  0
   21.4255   29.2841   -0.7483 N   0  0  0  0  0  0  0  0  0  0  0  0
   16.8297   26.3905   -2.6015 C   0  0  1  0  0  0  0  0  0  0  0  0
   17.2352   26.0678   -3.9359 O   0  0  0  0  0  0  0  0  0  0  0  0
   21.2923   24.1780   -2.0264 C   0  0  2  0  0  0  0  0  0  0  0  0
   22.4112   23.5405   -2.6031 O   0  0  0  0  0  0  0  0  0  0  0  0
   19.1622   30.0347   -1.0103 C   0  0  1  0  0  0  0  0  0  0  0  0
   18.7468   28.6779   -0.6897 O   0  0  0  0  0  0  0  0  0  0  0  0
   16.1299   27.6992   -2.5940 C   0  0  1  0  0  0  0  0  0  0  0  0
   17.1212   28.7057   -2.3758 O   0  0  0  0  0  0  0  0  0  0  0  0
   21.1097   23.7260   -0.5774 C   0  0  1  0  0  0  0  0  0  0  0  0
   22.2563   24.0558    0.1909 O   0  0  0  0  0  0  0  0  0  0  0  0
   18.0576   30.9629   -0.4371 C   0  0  2  0  0  0  0  0  0  0  0  0
   16.8512   30.7498   -1.1536 O   0  0  0  0  0  0  0  0  0  0  0  0
   19.8746   24.4144    0.0044 C   0  0  1  0  0  0  0  0  0  0  0  0
   18.7231   24.0824   -0.7697 O   0  0  0  0  0  0  0  0  0  0  0  0
   18.4925   32.4329   -0.5926 C   0  0  1  0  0  0  0  0  0  0  0  0
   17.4828   33.3032   -0.0680 O   0  0  0  0  0  0  0  0  0  0  0  0
   19.6728   23.9381    1.4431 C   0  0  0  0  0  0  0  0  0  0  0  0
   20.7934   24.3238    2.2227 O   0  0  0  0  0  0  0  0  0  0  0  0
   19.0967   35.5551   -1.3581 N   0  0  0  0  0  0  0  0  0  0  0  0
   21.9771   28.5592    1.1654 N   0  0  0  0  0  0  0  0  0  0  0  0
  1  2  1  0  0  0  0
  1 39  1  0  0  0  0
  3  4  1  0  0  0  0
  5  6  1  0  0  0  0
  5 40  1  0  0  0  0
  9 10  1  6  0  0  0
  9 14  1  0  0  0  0
  9 35  1  0  0  0  0
 10  1  1  0  0  0  0
 11 16  1  0  0  0  0
 11 28  1  0  0  0  0
 11 26  1  1  0  0  0
 12 17  1  0  0  0  0
 12 34  1  0  0  0  0
 12 13  1  1  0  0  0
 14 15  1  1  0  0  0
 14 19  1  0  0  0  0
 16 13  1  6  0  0  0
 16 21  1  0  0  0  0
 17 18  1  6  0  0  0
 17 23  1  0  0  0  0
 18  8  1  0  0  0  0
 19 20  1  6  0  0  0
 19 25  1  0  0  0  0
 20  5  1  0  0  0  0
 21  3  1  1  0  0  0
 21 22  1  0  0  0  0
 21 27  1  0  0  0  0
 23 24  1  6  0  0  0
 23 29  1  0  0  0  0
 25 26  1  1  0  0  0
 25 31  1  0  0  0  0
 27  7  1  6  0  0  0
 27 28  1  0  0  0  0
 29 30  1  1  0  0  0
 29 33  1  0  0  0  0
 31 32  1  6  0  0  0
 31 35  1  0  0  0  0
 33 34  1  0  0  0  0
 33 37  1  1  0  0  0
 35 36  1  1  0  0  0
 37 38  1  0  0  0  0
M  END
>  <CHROM.1>
85.05593180,-61.61690743,172.65324254,173.19629642,-175.59217163,68.32108156
138.29490767,109.54114876,-176.60893686,-135.96611734,62.46341073,19.29285771
28.01619067,-1.26680077,-1.58333212,0.51412917,-3.01902068

>  <Name>
1ntb_lig

>  <RI>
0

>  <Rbt.Current_Directory>
/home/itssahil/PROJECTS/Mol_Feturizer/New_Systems/rnas/1ntb

>  <Rbt.Executable>
rbdock ($Id: //depot/dev/client3/rdock/2013.1/src/exe/rbdock.cxx#4 $)

>  <Rbt.Library>
libRbt.so (2013.1, Build901 2013/11/27)

>  <Rbt.Parameter_File>
/export/apps/rDock/src/rDock_2013.1_src/data/scripts/dock_solv.prm

>  <Rbt.Receptor>
prm/blind_docking_60.prm

>  <SCORE>
-3.20422

>  <SCORE.INTER>
-3.7428

>  <SCORE.INTER.CONST>
1

>  <SCORE.INTER.POLAR>
0

>  <SCORE.INTER.ROT>
11

>  <SCORE.INTER.SOLV>
18.335

>  <SCORE.INTER.VDW>
-19.5402

>  <SCORE.INTER.norm>
-0.0935699

>  <SCORE.INTRA>
-0.662882

>  <SCORE.INTRA.DIHEDRAL>
-5.89939

>  <SCORE.INTRA.DIHEDRAL.0>
15.4453

>  <SCORE.INTRA.POLAR>
0

>  <SCORE.INTRA.POLAR.0>
0

>  <SCORE.INTRA.REPUL>
-0.794278

>  <SCORE.INTRA.REPUL.0>
0.823958

>  <SCORE.INTRA.SOLV>
6.59938

>  <SCORE.INTRA.SOLV.lig_0>
-99.3069

>  <SCORE.INTRA.VDW>
2.95852

>  <SCORE.INTRA.VDW.0>
0.946495

>  <SCORE.INTRA.norm>
-0.016572

>  <SCORE.RESTR>
1.20146

>  <SCORE.RESTR.CAVITY>
1.20146

>  <SCORE.RESTR.norm>
0.0300364

>  <SCORE.SYSTEM>
0

>  <SCORE.SYSTEM.CONST>
0

>  <SCORE.SYSTEM.DIHEDRAL>
0

>  <SCORE.SYSTEM.SOLV>
0

>  <SCORE.SYSTEM.norm>
0

>  <SCORE.heavy>
40

>  <SCORE.norm>
-0.0801055

>  <RMSD>
18.881

$$$$
1ntb_lig
 OpenBabel11021811403D
libRbt.so/2013.1/901 2013/11/27
 40 42  0  0  0  0  0  0  0  0999 V2000
   18.3682   21.5100    0.4704 C   0  0  0  0  0  0  0  0  0  0  0  0
   18.5049   20.8477   -0.6126 N   0  0  0  0  0  0  0  0  0  0  0  0
   19.4537   31.2693    0.2369 C   0  0  0  0  0  0  0  0  0  0  0  0
   19.4850   30.9560    1.6194 O   0  0  0  0  0  0  0  0  0  0  0  0
   20.7105   26.5915    3.6188 C   0  0  0  0  0  0  0  0  0  0  0  0
   20.7186   25.5198    4.3282 N   0  0  0  0  0  0  0  0  0  0  0  0
   22.5575   31.6091   -0.6746 C   0  0  0  0  0  0  0  0  0  0  0  0
   17.0611   31.9668   -1.9455 C   0  0  0  0  0  0  0  0  0  0  0  0
   19.2201   23.7100    0.4588 C   0  0  2  0  0  0  0  0  0  0  0  0
   18.0349   22.7781    0.3254 N   0  0  0  0  0  0  0  0  0  0  0  0
   21.4831   28.2720   -0.4205 C   0  0  2  0  0  0  0  0  0  0  0  0
   17.9785   28.5253   -1.0711 C   0  0  1  0  0  0  0  0  0  0  0  0
   19.3596   28.4611   -1.3754 O   0  0  0  0  0  0  0  0  0  0  0  0
   18.9618   24.7745    1.5195 C   0  0  1  0  0  0  0  0  0  0  0  0
   18.6813   24.0063    2.7697 O   0  0  0  0  0  0  0  0  0  0  0  0
   20.1159   28.9279   -0.3532 C   0  0  2  0  0  0  0  0  0  0  0  0
   17.3213   29.5076   -2.0101 C   0  0  1  0  0  0  0  0  0  0  0  0
   17.8863   30.7981   -1.8295 N   0  0  0  0  0  0  0  0  0  0  0  0
   20.1194   25.7594    1.6700 C   0  0  2  0  0  0  0  0  0  0  0  0
   19.9278   26.7903    2.6691 N   0  0  0  0  0  0  0  0  0  0  0  0
   20.4310   30.3918   -0.5098 C   0  0  1  0  0  0  0  0  0  0  0  0
   20.4456   30.7432   -1.8974 O   0  0  0  0  0  0  0  0  0  0  0  0
   17.5685   29.0324   -3.4320 C   0  0  2  0  0  0  0  0  0  0  0  0
   16.9813   29.9239   -4.3546 O   0  0  0  0  0  0  0  0  0  0  0  0
   20.3436   26.4219    0.3355 C   0  0  1  0  0  0  0  0  0  0  0  0
   21.5674   27.1906    0.5016 O   0  0  0  0  0  0  0  0  0  0  0  0
   21.7953   30.5346    0.0567 C   0  0  1  0  0  0  0  0  0  0  0  0
   22.4510   29.2743   -0.1013 O   0  0  0  0  0  0  0  0  0  0  0  0
   16.9365   27.6457   -3.5547 C   0  0  1  0  0  0  0  0  0  0  0  0
   17.1316   27.1281   -4.8615 O   0  0  0  0  0  0  0  0  0  0  0  0
   20.6581   25.3525   -0.7452 C   0  0  2  0  0  0  0  0  0  0  0  0
   20.8797   25.9979   -1.9895 O   0  0  0  0  0  0  0  0  0  0  0  0
   17.5767   26.7164   -2.5230 C   0  0  1  0  0  0  0  0  0  0  0  0
   17.3803   27.2388   -1.2100 O   0  0  0  0  0  0  0  0  0  0  0  0
   19.4632   24.3882   -0.8742 C   0  0  1  0  0  0  0  0  0  0  0  0
   19.7379   23.3943   -1.8687 O   0  0  0  0  0  0  0  0  0  0  0  0
   16.9224   25.3383   -2.6233 C   0  0  0  0  0  0  0  0  0  0  0  0
   15.6071   25.4078   -2.0963 O   0  0  0  0  0  0  0  0  0  0  0  0
   18.5663   20.9869    1.6292 N   0  0  0  0  0  0  0  0  0  0  0  0
   21.4832   27.5217    3.9091 N   0  0  0  0  0  0  0  0  0  0  0  0
  1  2  1  0  0  0  0
  1 39  1  0  0  0  0
  3  4  1  0  0  0  0
  5  6  1  0  0  0  0
  5 40  1  0  0  0  0
  9 10  1  6  0  0  0
  9 14  1  0  0  0  0
  9 35  1  0  0  0  0
 10  1  1  0  0  0  0
 11 16  1  0  0  0  0
 11 28  1  0  0  0  0
 11 26  1  1  0  0  0
 12 17  1  0  0  0  0
 12 34  1  0  0  0  0
 12 13  1  6  0  0  0
 14 15  1  1  0  0  0
 14 19  1  0  0  0  0
 16 13  1  6  0  0  0
 16 21  1  0  0  0  0
 17 18  1  6  0  0  0
 17 23  1  0  0  0  0
 18  8  1  0  0  0  0
 19 20  1  1  0  0  0
 19 25  1  0  0  0  0
 20  5  1  0  0  0  0
 21  3  1  1  0  0  0
 21 22  1  0  0  0  0
 21 27  1  0  0  0  0
 23 24  1  6  0  0  0
 23 29  1  0  0  0  0
 25 26  1  1  0  0  0
 25 31  1  0  0  0  0
 27  7  1  6  0  0  0
 27 28  1  0  0  0  0
 29 30  1  6  0  0  0
 29 33  1  0  0  0  0
 31 32  1  6  0  0  0
 31 35  1  0  0  0  0
 33 34  1  0  0  0  0
 33 37  1  1  0  0  0
 35 36  1  6  0  0  0
 37 38  1  0  0  0  0
M  END
>  <CHROM.1>
-125.43531608,-99.96703681,46.18785772,114.88253400,153.73984067,-144.22353405
111.12041110,-59.57803012,59.66867826,-153.04446683,-72.15650529,19.23912761
27.11217660,-0.45755640,1.62735954,0.90681393,2.78433713

>  <Name>
1ntb_lig

>  <RI>
0

>  <Rbt.Current_Directory>
/home/itssahil/PROJECTS/Mol_Feturizer/New_Systems/rnas/1ntb

>  <Rbt.Executable>
rbdock ($Id: //depot/dev/client3/rdock/2013.1/src/exe/rbdock.cxx#4 $)

>  <Rbt.Library>
libRbt.so (2013.1, Build901 2013/11/27)

>  <Rbt.Parameter_File>
/export/apps/rDock/src/rDock_2013.1_src/data/scripts/dock_solv.prm

>  <Rbt.Receptor>
prm/blind_docking_80.prm

>  <SCORE>
-6.76522

>  <SCORE.INTER>
-1.55577

>  <SCORE.INTER.CONST>
1

>  <SCORE.INTER.POLAR>
-0.506021

>  <SCORE.INTER.ROT>
11

>  <SCORE.INTER.SOLV>
23.3039

>  <SCORE.INTER.VDW>
-18.0518

>  <SCORE.INTER.norm>
-0.0388943

>  <SCORE.INTRA>
-5.85133

>  <SCORE.INTRA.DIHEDRAL>
3.42091

>  <SCORE.INTRA.DIHEDRAL.0>
15.4453

>  <SCORE.INTRA.POLAR>
0

>  <SCORE.INTRA.POLAR.0>
0

>  <SCORE.INTRA.REPUL>
-0.823958

>  <SCORE.INTRA.REPUL.0>
0.823958

>  <SCORE.INTRA.SOLV>
0.372032

>  <SCORE.INTRA.SOLV.lig_0>
-99.3069

>  <SCORE.INTRA.VDW>
-3.62802

>  <SCORE.INTRA.VDW.0>
0.946495

>  <SCORE.INTRA.norm>
-0.146283

>  <SCORE.RESTR>
0.641887

>  <SCORE.RESTR.CAVITY>
0.641887

>  <SCORE.RESTR.norm>
0.0160472

>  <SCORE.SYSTEM>
0

>  <SCORE.SYSTEM.CONST>
0

>  <SCORE.SYSTEM.DIHEDRAL>
0

>  <SCORE.SYSTEM.SOLV>
0

>  <SCORE.SYSTEM.norm>
0

>  <SCORE.heavy>
40

>  <SCORE.norm>
-0.16913

>  <RMSD>
18.889

$$$$
1ntb_lig
 OpenBabel11021811403D
libRbt.so/2013.1/901 2013/11/27
 40 42  0  0  0  0  0  0  0  0999 V2000
   19.1506   35.5701   -1.7573 C   0  0  0  0  0  0  0  0  0  0  0  0
   18.3925   36.5514   -1.4529 N   0  0  0  0  0  0  0  0  0  0  0  0
   20.3956   25.9783    2.8803 C   0  0  0  0  0  0  0  0  0  0  0  0
   20.5043   24.6372    2.4331 O   0  0  0  0  0  0  0  0  0  0  0  0
   17.7329   29.5724   -2.8754 C   0  0  0  0  0  0  0  0  0  0  0  0
   17.1668   30.1834   -3.8543 N   0  0  0  0  0  0  0  0  0  0  0  0
   17.7840   27.7925    3.5645 C   0  0  0  0  0  0  0  0  0  0  0  0
   22.9576   23.8936   -0.2163 C   0  0  0  0  0  0  0  0  0  0  0  0
   19.2676   33.2142   -1.7121 C   0  0  2  0  0  0  0  0  0  0  0  0
   18.5326   34.4678   -2.1357 N   0  0  0  0  0  0  0  0  0  0  0  0
   19.1967   28.4253    0.4086 C   0  0  2  0  0  0  0  0  0  0  0  0
   20.6815   26.2116   -1.2523 C   0  0  1  0  0  0  0  0  0  0  0  0
   19.6669   26.2386   -0.2654 O   0  0  0  0  0  0  0  0  0  0  0  0
   18.7387   31.9928   -2.4560 C   0  0  1  0  0  0  0  0  0  0  0  0
   18.9259   32.3171   -3.9022 O   0  0  0  0  0  0  0  0  0  0  0  0
   19.9443   27.1388    0.7080 C   0  0  2  0  0  0  0  0  0  0  0  0
   21.0524   24.7741   -1.5256 C   0  0  1  0  0  0  0  0  0  0  0  0
   21.5553   24.1731   -0.3411 N   0  0  0  0  0  0  0  0  0  0  0  0
   19.4298   30.6959   -2.0399 C   0  0  2  0  0  0  0  0  0  0  0  0
   18.9679   29.5036   -2.7201 N   0  0  0  0  0  0  0  0  0  0  0  0
   19.3814   26.7183    2.0397 C   0  0  1  0  0  0  0  0  0  0  0  0
   18.2188   25.9062    1.8446 O   0  0  0  0  0  0  0  0  0  0  0  0
   19.7985   24.0457   -1.9794 C   0  0  2  0  0  0  0  0  0  0  0  0
   20.0880   22.6896   -2.2399 O   0  0  0  0  0  0  0  0  0  0  0  0
   19.2228   30.5125   -0.5587 C   0  0  1  0  0  0  0  0  0  0  0  0
   20.0604   29.3777   -0.2028 O   0  0  0  0  0  0  0  0  0  0  0  0
   18.9966   27.9940    2.6930 C   0  0  1  0  0  0  0  0  0  0  0  0
   18.7025   28.9284    1.6521 O   0  0  0  0  0  0  0  0  0  0  0  0
   19.3150   24.7414   -3.2520 C   0  0  1  0  0  0  0  0  0  0  0  0
   18.1359   24.1187   -3.7375 O   0  0  0  0  0  0  0  0  0  0  0  0
   19.8026   31.7268    0.2156 C   0  0  2  0  0  0  0  0  0  0  0  0
   19.6102   31.5274    1.6075 O   0  0  0  0  0  0  0  0  0  0  0  0
   19.0386   26.2121   -2.9383 C   0  0  1  0  0  0  0  0  0  0  0  0
   20.2248   26.8362   -2.4496 O   0  0  0  0  0  0  0  0  0  0  0  0
   19.0720   33.0103   -0.2235 C   0  0  1  0  0  0  0  0  0  0  0  0
   19.5959   34.1412    0.4829 O   0  0  0  0  0  0  0  0  0  0  0  0
   18.5860   26.9156   -4.2180 C   0  0  0  0  0  0  0  0  0  0  0  0
   17.2743   26.4865   -4.5462 O   0  0  0  0  0  0  0  0  0  0  0  0
   20.4331   35.6379   -1.6775 N   0  0  0  0  0  0  0  0  0  0  0  0
   17.0294   29.0562   -1.9892 N   0  0  0  0  0  0  0  0  0  0  0  0
  1  2  1  0  0  0  0
  1 39  1  0  0  0  0
  3  4  1  0  0  0  0
  5  6  1  0  0  0  0
  5 40  1  0  0  0  0
  9 10  1  6  0  0  0
  9 14  1  0  0  0  0
  9 35  1  0  0  0  0
 10  1  1  0  0  0  0
 11 16  1  0  0  0  0
 11 28  1  0  0  0  0
 11 26  1  1  0  0  0
 12 17  1  0  0  0  0
 12 34  1  0  0  0  0
 12 13  1  1  0  0  0
 14 15  1  6  0  0  0
 14 19  1  0  0  0  0
 16 13  1  6  0  0  0
 16 21  1  0  0  0  0
 17 18  1  1  0  0  0
 17 23  1  0  0  0  0
 18  8  1  0  0  0  0
 19 20  1  6  0  0  0
 19 25  1  0  0  0  0
 20  5  1  0  0  0  0
 21  3  1  1  0  0  0
 21 22  1  0  0  0  0
 21 27  1  0  0  0  0
 23 24  1  6  0  0  0
 23 29  1  0  0  0  0
 25 26  1  1  0  0  0
 25 31  1  0  0  0  0
 27  7  1  1  0  0  0
 27 28  1  0  0  0  0
 29 30  1  1  0  0  0
 29 33  1  0  0  0  0
 31 32  1  1  0  0  0
 31 35  1  0  0  0  0
 33 34  1  0  0  0  0
 33 37  1  6  0  0  0
 35 36  1  1  0  0  0
 37 38  1  0  0  0  0
M  END
>  <CHROM.1>
-165.40941680,-146.21924594,174.78526134,132.47205310,97.43991684,-107.14430330
-38.38294972,84.39737213,-78.63319993,-123.74337016,71.88822919,19.31421216
28.69285915,-0.93762628,2.10862719,-1.36422514,0.46096501

>  <Name>
1ntb_lig

>  <RI>
0

>  <Rbt.Current_Directory>
/home/itssahil/PROJECTS/Mol_Feturizer/New_Systems/rnas/1ntb

>  <Rbt.Executable>
rbdock ($Id: //depot/dev/client3/rdock/2013.1/src/exe/rbdock.cxx#4 $)

>  <Rbt.Library>
libRbt.so (2013.1, Build901 2013/11/27)

>  <Rbt.Parameter_File>
/export/apps/rDock/src/rDock_2013.1_src/data/scripts/dock_solv.prm

>  <Rbt.Receptor>
prm/blind_docking_100.prm

>  <SCORE>
-5.66548

>  <SCORE.INTER>
-6.71554

>  <SCORE.INTER.CONST>
1

>  <SCORE.INTER.POLAR>
-1.46258

>  <SCORE.INTER.ROT>
11

>  <SCORE.INTER.SOLV>
18.8652

>  <SCORE.INTER.VDW>
-16.8235

>  <SCORE.INTER.norm>
-0.167888

>  <SCORE.INTRA>
0.139018

>  <SCORE.INTRA.DIHEDRAL>
7.317

>  <SCORE.INTRA.DIHEDRAL.0>
15.4453

>  <SCORE.INTRA.POLAR>
0

>  <SCORE.INTRA.POLAR.0>
0

>  <SCORE.INTRA.REPUL>
-0.719813

>  <SCORE.INTRA.REPUL.0>
0.823958

>  <SCORE.INTRA.SOLV>
6.12403

>  <SCORE.INTRA.SOLV.lig_0>
-99.3069

>  <SCORE.INTRA.VDW>
-2.98243

>  <SCORE.INTRA.VDW.0>
0.946495

>  <SCORE.INTRA.norm>
0.00347546

>  <SCORE.RESTR>
0.911037

>  <SCORE.RESTR.CAVITY>
0.911037

>  <SCORE.RESTR.norm>
0.0227759

>  <SCORE.SYSTEM>
0

>  <SCORE.SYSTEM.CONST>
0

>  <SCORE.SYSTEM.DIHEDRAL>
0

>  <SCORE.SYSTEM.SOLV>
0

>  <SCORE.SYSTEM.norm>
0

>  <SCORE.heavy>
40

>  <SCORE.norm>
-0.141637

>  <RMSD>
18.892

$$$$
1ntb_lig
 OpenBabel11021811403D
libRbt.so/2013.1/901 2013/11/27
 40 42  0  0  0  0  0  0  0  0999 V2000
   18.4766   33.9049   -2.5108 C   0  0  0  0  0  0  0  0  0  0  0  0
   18.9908   33.8833   -3.6792 N   0  0  0  0  0  0  0  0  0  0  0  0
   20.4414   25.8721    3.7046 C   0  0  0  0  0  0  0  0  0  0  0  0
   20.2168   25.7362    5.0980 O   0  0  0  0  0  0  0  0  0  0  0  0
   16.8161   27.5195   -2.8942 C   0  0  0  0  0  0  0  0  0  0  0  0
   16.6977   28.1613   -4.0015 N   0  0  0  0  0  0  0  0  0  0  0  0
   18.1047   28.0017    4.4695 C   0  0  0  0  0  0  0  0  0  0  0  0
   18.1439   21.0020    2.0993 C   0  0  0  0  0  0  0  0  0  0  0  0
   18.1807   31.6304   -1.9584 C   0  0  2  0  0  0  0  0  0  0  0  0
   17.5682   32.9790   -2.2700 N   0  0  0  0  0  0  0  0  0  0  0  0
   18.3811   27.3331    1.0297 C   0  0  2  0  0  0  0  0  0  0  0  0
   19.7052   24.0149    0.9778 C   0  0  1  0  0  0  0  0  0  0  0  0
   18.7179   25.0225    1.0966 O   0  0  0  0  0  0  0  0  0  0  0  0
   17.1354   30.5234   -2.0401 C   0  0  1  0  0  0  0  0  0  0  0  0
   16.5958   30.6108   -3.4305 O   0  0  0  0  0  0  0  0  0  0  0  0
   19.2502   26.1918    1.5257 C   0  0  2  0  0  0  0  0  0  0  0  0
   19.0349   22.7267    0.5659 C   0  0  1  0  0  0  0  0  0  0  0  0
   18.1002   22.3313    1.5596 N   0  0  0  0  0  0  0  0  0  0  0  0
   17.6995   29.1446   -1.7034 C   0  0  2  0  0  0  0  0  0  0  0  0
   16.7484   28.0544   -1.7703 N   0  0  0  0  0  0  0  0  0  0  0  0
   19.1727   26.3289    3.0231 C   0  0  1  0  0  0  0  0  0  0  0  0
   18.0529   25.5914    3.5244 O   0  0  0  0  0  0  0  0  0  0  0  0
   18.3141   22.9740   -0.7486 C   0  0  2  0  0  0  0  0  0  0  0  0
   17.6593   21.7996   -1.1758 O   0  0  0  0  0  0  0  0  0  0  0  0
   18.2655   29.2011   -0.3082 C   0  0  1  0  0  0  0  0  0  0  0  0
   18.9495   27.9295   -0.1314 O   0  0  0  0  0  0  0  0  0  0  0  0
   18.9564   27.7801    3.2464 C   0  0  1  0  0  0  0  0  0  0  0  0
   18.2928   28.2903    2.0878 O   0  0  0  0  0  0  0  0  0  0  0  0
   19.3751   23.3929   -1.7666 C   0  0  1  0  0  0  0  0  0  0  0  0
   18.7759   23.6493   -3.0270 O   0  0  0  0  0  0  0  0  0  0  0  0
   19.3681   30.2908   -0.2232 C   0  0  2  0  0  0  0  0  0  0  0  0
   19.8970   30.3176    1.0934 O   0  0  0  0  0  0  0  0  0  0  0  0
   20.0812   24.6499   -1.2576 C   0  0  1  0  0  0  0  0  0  0  0  0
   20.6823   24.3905    0.0100 O   0  0  0  0  0  0  0  0  0  0  0  0
   18.7565   31.6651   -0.5573 C   0  0  1  0  0  0  0  0  0  0  0  0
   19.7621   32.6827   -0.4830 O   0  0  0  0  0  0  0  0  0  0  0  0
   21.1642   25.0506   -2.2596 C   0  0  0  0  0  0  0  0  0  0  0  0
   20.5746   25.8076   -3.3045 O   0  0  0  0  0  0  0  0  0  0  0  0
   18.8005   34.7853   -1.6301 N   0  0  0  0  0  0  0  0  0  0  0  0
   16.9545   26.2837   -2.9167 N   0  0  0  0  0  0  0  0  0  0  0  0
  1  2  1  0  0  0  0
  1 39  1  0  0  0  0
  3  4  1  0  0  0  0
  5  6  1  0  0  0  0
  5 40  1  0  0  0  0
  9 10  1  1  0  0  0
  9 14  1  0  0  0  0
  9 35  1  0  0  0  0
 10  1  1  0  0  0  0
 11 16  1  0  0  0  0
 11 28  1  0  0  0  0
 11 26  1  6  0  0  0
 12 17  1  0  0  0  0
 12 34  1  0  0  0  0
 12 13  1  6  0  0  0
 14 15  1  6  0  0  0
 14 19  1  0  0  0  0
 16 13  1  1  0  0  0
 16 21  1  0  0  0  0
 17 18  1  1  0  0  0
 17 23  1  0  0  0  0
 18  8  1  0  0  0  0
 19 20  1  1  0  0  0
 19 25  1  0  0  0  0
 20  5  1  0  0  0  0
 21  3  1  1  0  0  0
 21 22  1  0  0  0  0
 21 27  1  0  0  0  0
 23 24  1  6  0  0  0
 23 29  1  0  0  0  0
 25 26  1  6  0  0  0
 25 31  1  0  0  0  0
 27  7  1  1  0  0  0
 27 28  1  0  0  0  0
 29 30  1  6  0  0  0
 29 33  1  0  0  0  0
 31 32  1  1  0  0  0
 31 35  1  0  0  0  0
 33 34  1  0  0  0  0
 33 37  1  6  0  0  0
 35 36  1  6  0  0  0
 37 38  1  0  0  0  0
M  END
>  <CHROM.1>
-165.41189612,79.21020877,-165.00144753,177.13624592,153.62745183,-128.27879431
94.58804035,-54.16378755,-166.97579097,-123.93457072,83.25996178,18.68401484
27.39788877,-0.24839314,-2.03512076,1.40001087,-3.01158162

>  <Name>
1ntb_lig

>  <RI>
0

>  <Rbt.Current_Directory>
/home/itssahil/PROJECTS/Mol_Feturizer/New_Systems/rnas/1ntb

>  <Rbt.Executable>
rbdock ($Id: //depot/dev/client3/rdock/2013.1/src/exe/rbdock.cxx#4 $)

>  <Rbt.Library>
libRbt.so (2013.1, Build901 2013/11/27)

>  <Rbt.Parameter_File>
/export/apps/rDock/src/rDock_2013.1_src/data/scripts/dock_solv.prm

>  <Rbt.Receptor>
prm/blind_docking_80.prm

>  <SCORE>
-12.1337

>  <SCORE.INTER>
-6.12204

>  <SCORE.INTER.CONST>
1

>  <SCORE.INTER.POLAR>
0

>  <SCORE.INTER.ROT>
11

>  <SCORE.INTER.SOLV>
15.4851

>  <SCORE.INTER.VDW>
-20.1764

>  <SCORE.INTER.norm>
-0.153051

>  <SCORE.INTRA>
-6.82021

>  <SCORE.INTRA.DIHEDRAL>
1.73639

>  <SCORE.INTRA.DIHEDRAL.0>
15.4453

>  <SCORE.INTRA.POLAR>
0

>  <SCORE.INTRA.POLAR.0>
0

>  <SCORE.INTRA.REPUL>
-0.823958

>  <SCORE.INTRA.REPUL.0>
0.823958

>  <SCORE.INTRA.SOLV>
0.488937

>  <SCORE.INTRA.SOLV.lig_0>
-99.3069

>  <SCORE.INTRA.VDW>
-3.81308

>  <SCORE.INTRA.VDW.0>
0.946495

>  <SCORE.INTRA.norm>
-0.170505

>  <SCORE.RESTR>
0.808539

>  <SCORE.RESTR.CAVITY>
0.808539

>  <SCORE.RESTR.norm>
0.0202135

>  <SCORE.SYSTEM>
0

>  <SCORE.SYSTEM.CONST>
0

>  <SCORE.SYSTEM.DIHEDRAL>
0

>  <SCORE.SYSTEM.SOLV>
0

>  <SCORE.SYSTEM.norm>
0

>  <SCORE.heavy>
40

>  <SCORE.norm>
-0.303343

>  <RMSD>
18.893

$$$$
1ntb_lig
 OpenBabel11021811403D
libRbt.so/2013.1/901 2013/11/27
 40 42  0  0  0  0  0  0  0  0999 V2000
   19.9251   28.5342    7.3649 C   0  0  0  0  0  0  0  0  0  0  0  0
   19.5068   27.6416    8.1764 N   0  0  0  0  0  0  0  0  0  0  0  0
   22.3119   27.3562   -0.4408 C   0  0  0  0  0  0  0  0  0  0  0  0
   22.3134   27.8577    0.8854 O   0  0  0  0  0  0  0  0  0  0  0  0
   18.5988   23.6255    3.8720 C   0  0  0  0  0  0  0  0  0  0  0  0
   17.4993   23.9490    4.4538 N   0  0  0  0  0  0  0  0  0  0  0  0
   21.7722   24.1630   -0.7448 C   0  0  0  0  0  0  0  0  0  0  0  0
   19.5244   31.7627    0.4173 C   0  0  0  0  0  0  0  0  0  0  0  0
   19.6505   27.6628    5.1898 C   0  0  2  0  0  0  0  0  0  0  0  0
   20.5771   28.0854    6.3096 N   0  0  0  0  0  0  0  0  0  0  0  0
   18.9603   26.0140    0.2665 C   0  0  2  0  0  0  0  0  0  0  0  0
   18.1083   28.6281   -0.5953 C   0  0  1  0  0  0  0  0  0  0  0  0
   19.1882   27.8790   -1.1215 O   0  0  0  0  0  0  0  0  0  0  0  0
   19.9326   26.2276    4.7592 C   0  0  1  0  0  0  0  0  0  0  0  0
   19.7544   25.4155    6.0004 O   0  0  0  0  0  0  0  0  0  0  0  0
   19.8307   27.1850   -0.1518 C   0  0  2  0  0  0  0  0  0  0  0  0
   18.3160   30.0833   -0.9388 C   0  0  1  0  0  0  0  0  0  0  0  0
   19.5214   30.5496   -0.3499 N   0  0  0  0  0  0  0  0  0  0  0  0
   19.0415   25.7643    3.6086 C   0  0  2  0  0  0  0  0  0  0  0  0
   19.2649   24.4046    3.1626 N   0  0  0  0  0  0  0  0  0  0  0  0
   21.0766   26.5170   -0.6700 C   0  0  1  0  0  0  0  0  0  0  0  0
   20.9319   26.2266   -2.0642 O   0  0  0  0  0  0  0  0  0  0  0  0
   18.4045   30.1988   -2.4513 C   0  0  2  0  0  0  0  0  0  0  0  0
   18.6094   31.5430   -2.8279 O   0  0  0  0  0  0  0  0  0  0  0  0
   19.2650   26.6931    2.4434 C   0  0  1  0  0  0  0  0  0  0  0  0
   18.2556   26.3152    1.4664 O   0  0  0  0  0  0  0  0  0  0  0  0
   21.1588   25.2503    0.0989 C   0  0  1  0  0  0  0  0  0  0  0  0
   19.8243   24.8926    0.4654 O   0  0  0  0  0  0  0  0  0  0  0  0
   17.0805   29.6832   -3.0157 C   0  0  1  0  0  0  0  0  0  0  0  0
   17.0873   29.7535   -4.4330 O   0  0  0  0  0  0  0  0  0  0  0  0
   18.9325   28.1531    2.8533 C   0  0  2  0  0  0  0  0  0  0  0  0
   19.1357   29.0082    1.7390 O   0  0  0  0  0  0  0  0  0  0  0  0
   16.8797   28.2361   -2.5647 C   0  0  1  0  0  0  0  0  0  0  0  0
   16.8740   28.1673   -1.1397 O   0  0  0  0  0  0  0  0  0  0  0  0
   19.8595   28.5850    4.0059 C   0  0  1  0  0  0  0  0  0  0  0  0
   19.5652   29.9317    4.3961 O   0  0  0  0  0  0  0  0  0  0  0  0
   15.5406   27.7305   -3.1020 C   0  0  0  0  0  0  0  0  0  0  0  0
   15.3190   26.4103   -2.6323 O   0  0  0  0  0  0  0  0  0  0  0  0
   19.7477   29.7919    7.5707 N   0  0  0  0  0  0  0  0  0  0  0  0
   19.0749   22.4911    4.0539 N   0  0  0  0  0  0  0  0  0  0  0  0
  1  2  1  0  0  0  0
  1 39  1  0  0  0  0
  3  4  1  0  0  0  0
  5  6  1  0  0  0  0
  5 40  1  0  0  0  0
  9 10  1  1  0  0  0
  9 14  1  0  0  0  0
  9 35  1  0  0  0  0
 10  1  1  0  0  0  0
 11 16  1  0  0  0  0
 11 28  1  0  0  0  0
 11 26  1  1  0  0  0
 12 17  1  0  0  0  0
 12 34  1  0  0  0  0
 12 13  1  6  0  0  0
 14 15  1  1  0  0  0
 14 19  1  0  0  0  0
 16 13  1  6  0  0  0
 16 21  1  0  0  0  0
 17 18  1  1  0  0  0
 17 23  1  0  0  0  0
 18  8  1  0  0  0  0
 19 20  1  6  0  0  0
 19 25  1  0  0  0  0
 20  5  1  0  0  0  0
 21  3  1  1  0  0  0
 21 22  1  0  0  0  0
 21 27  1  0  0  0  0
 23 24  1  1  0  0  0
 23 29  1  0  0  0  0
 25 26  1  6  0  0  0
 25 31  1  0  0  0  0
 27  7  1  6  0  0  0
 27 28  1  0  0  0  0
 29 30  1  6  0  0  0
 29 33  1  0  0  0  0
 31 32  1  6  0  0  0
 31 35  1  0  0  0  0
 33 34  1  0  0  0  0
 33 37  1  1  0  0  0
 35 36  1  1  0  0  0
 37 38  1  0  0  0  0
M  END
>  <CHROM.1>
-125.44981024,83.67091443,-55.35077422,122.53663524,73.57157346,-130.01833269
85.44749081,28.18255629,45.89350551,-124.31870578,-177.18556647,19.14802866
27.47591446,1.29949768,0.07925169,-1.37294608,0.34354542

>  <Name>
1ntb_lig

>  <RI>
0

>  <Rbt.Current_Directory>
/home/itssahil/PROJECTS/Mol_Feturizer/New_Systems/rnas/1ntb

>  <Rbt.Executable>
rbdock ($Id: //depot/dev/client3/rdock/2013.1/src/exe/rbdock.cxx#4 $)

>  <Rbt.Library>
libRbt.so (2013.1, Build901 2013/11/27)

>  <Rbt.Parameter_File>
/export/apps/rDock/src/rDock_2013.1_src/data/scripts/dock_solv.prm

>  <Rbt.Receptor>
prm/blind_docking_40.prm

>  <SCORE>
-9.85868

>  <SCORE.INTER>
-7.67318

>  <SCORE.INTER.CONST>
1

>  <SCORE.INTER.POLAR>
-0.565472

>  <SCORE.INTER.ROT>
11

>  <SCORE.INTER.SOLV>
11.7715

>  <SCORE.INTER.VDW>
-18.0877

>  <SCORE.INTER.norm>
-0.191829

>  <SCORE.INTRA>
-3.65997

>  <SCORE.INTRA.DIHEDRAL>
4.38579

>  <SCORE.INTRA.DIHEDRAL.0>
15.4453

>  <SCORE.INTRA.POLAR>
0

>  <SCORE.INTRA.POLAR.0>
0

>  <SCORE.INTRA.REPUL>
-0.761724

>  <SCORE.INTRA.REPUL.0>
0.823958

>  <SCORE.INTRA.SOLV>
-0.138888

>  <SCORE.INTRA.SOLV.lig_0>
-99.3069

>  <SCORE.INTRA.VDW>
-1.97481

>  <SCORE.INTRA.VDW.0>
0.946495

>  <SCORE.INTRA.norm>
-0.0914994

>  <SCORE.RESTR>
1.47448

>  <SCORE.RESTR.CAVITY>
1.47448

>  <SCORE.RESTR.norm>
0.0368619

>  <SCORE.SYSTEM>
0

>  <SCORE.SYSTEM.CONST>
0

>  <SCORE.SYSTEM.DIHEDRAL>
0

>  <SCORE.SYSTEM.SOLV>
0

>  <SCORE.SYSTEM.norm>
0

>  <SCORE.heavy>
40

>  <SCORE.norm>
-0.246467

>  <RMSD>
18.895

$$$$
1ntb_lig
 OpenBabel11021811403D
libRbt.so/2013.1/901 2013/11/27
 40 42  0  0  0  0  0  0  0  0999 V2000
   17.7521   33.7740   -2.2167 C   0  0  0  0  0  0  0  0  0  0  0  0
   16.6443   33.1482   -2.1101 N   0  0  0  0  0  0  0  0  0  0  0  0
   20.3350   26.0979    3.3894 C   0  0  0  0  0  0  0  0  0  0  0  0
   19.9051   25.9323    4.7304 O   0  0  0  0  0  0  0  0  0  0  0  0
   16.4273   28.8113   -2.0325 C   0  0  0  0  0  0  0  0  0  0  0  0
   16.1732   28.9859   -0.7847 N   0  0  0  0  0  0  0  0  0  0  0  0
   18.0960   28.4088    3.8652 C   0  0  0  0  0  0  0  0  0  0  0  0
   18.0830   21.6896    1.5044 C   0  0  0  0  0  0  0  0  0  0  0  0
   19.1284   31.9049   -2.6387 C   0  0  2  0  0  0  0  0  0  0  0  0
   18.6167   33.2620   -3.0714 N   0  0  0  0  0  0  0  0  0  0  0  0
   18.7607   27.7149    0.4841 C   0  0  2  0  0  0  0  0  0  0  0  0
   19.8180   24.3063    0.5565 C   0  0  1  0  0  0  0  0  0  0  0  0
   18.9010   25.3848    0.5735 O   0  0  0  0  0  0  0  0  0  0  0  0
   18.0488   30.8391   -2.7925 C   0  0  1  0  0  0  0  0  0  0  0  0
   17.6708   30.8856   -4.2371 O   0  0  0  0  0  0  0  0  0  0  0  0
   19.4647   26.5085    1.0779 C   0  0  2  0  0  0  0  0  0  0  0  0
   19.1837   23.1434   -0.1673 C   0  0  1  0  0  0  0  0  0  0  0  0
   18.0107   22.7310    0.5193 N   0  0  0  0  0  0  0  0  0  0  0  0
   18.5085   29.4550   -2.3391 C   0  0  2  0  0  0  0  0  0  0  0  0
   17.5215   28.4029   -2.4682 N   0  0  0  0  0  0  0  0  0  0  0  0
   19.2055   26.6537    2.5540 C   0  0  1  0  0  0  0  0  0  0  0  0
   17.9752   26.0089    2.9001 O   0  0  0  0  0  0  0  0  0  0  0  0
   18.8234   23.6053   -1.5692 C   0  0  2  0  0  0  0  0  0  0  0  0
   18.2155   22.5550   -2.2890 O   0  0  0  0  0  0  0  0  0  0  0  0
   18.9189   29.5514   -0.8926 C   0  0  1  0  0  0  0  0  0  0  0  0
   19.5201   28.2620   -0.5888 O   0  0  0  0  0  0  0  0  0  0  0  0
   19.0783   28.1178    2.7603 C   0  0  1  0  0  0  0  0  0  0  0  0
   18.6127   28.6777    1.5303 O   0  0  0  0  0  0  0  0  0  0  0  0
   20.1261   24.0313   -2.2466 C   0  0  1  0  0  0  0  0  0  0  0  0
   19.8707   24.4845   -3.5669 O   0  0  0  0  0  0  0  0  0  0  0  0
   20.0542   30.5976   -0.7284 C   0  0  2  0  0  0  0  0  0  0  0  0
   20.4351   30.6622    0.6372 O   0  0  0  0  0  0  0  0  0  0  0  0
   20.7691   25.1491   -1.4251 C   0  0  1  0  0  0  0  0  0  0  0  0
   21.0243   24.6921   -0.0980 O   0  0  0  0  0  0  0  0  0  0  0  0
   19.5469   31.9793   -1.1843 C   0  0  1  0  0  0  0  0  0  0  0  0
   20.5838   32.9570   -1.0388 O   0  0  0  0  0  0  0  0  0  0  0  0
   22.0880   25.5534   -2.0844 C   0  0  0  0  0  0  0  0  0  0  0  0
   22.5549   24.4812   -2.8875 O   0  0  0  0  0  0  0  0  0  0  0  0
   18.0232   34.8212   -1.5199 N   0  0  0  0  0  0  0  0  0  0  0  0
   15.5293   29.0036   -2.8711 N   0  0  0  0  0  0  0  0  0  0  0  0
  1  2  1  0  0  0  0
  1 39  1  0  0  0  0
  3  4  1  0  0  0  0
  5  6  1  0  0  0  0
  5 40  1  0  0  0  0
  9 10  1  1  0  0  0
  9 14  1  0  0  0  0
  9 35  1  0  0  0  0
 10  1  1  0  0  0  0
 11 16  1  0  0  0  0
 11 28  1  0  0  0  0
 11 26  1  6  0  0  0
 12 17  1  0  0  0  0
 12 34  1  0  0  0  0
 12 13  1  6  0  0  0
 14 15  1  6  0  0  0
 14 19  1  0  0  0  0
 16 13  1  6  0  0  0
 16 21  1  0  0  0  0
 17 18  1  1  0  0  0
 17 23  1  0  0  0  0
 18  8  1  0  0  0  0
 19 20  1  1  0  0  0
 19 25  1  0  0  0  0
 20  5  1  0  0  0  0
 21  3  1  1  0  0  0
 21 22  1  0  0  0  0
 21 27  1  0  0  0  0
 23 24  1  6  0  0  0
 23 29  1  0  0  0  0
 25 26  1  6  0  0  0
 25 31  1  0  0  0  0
 27  7  1  1  0  0  0
 27 28  1  0  0  0  0
 29 30  1  6  0  0  0
 29 33  1  0  0  0  0
 31 32  1  1  0  0  0
 31 35  1  0  0  0  0
 33 34  1  0  0  0  0
 33 37  1  6  0  0  0
 35 36  1  6  0  0  0
 37 38  1  0  0  0  0
M  END
>  <CHROM.1>
72.07625545,-66.17532390,-168.21111038,-173.16186930,152.78592386,-92.74500076
-45.58445037,-72.64150171,-164.65317461,-121.30085746,-22.62651452,18.97175902
27.78590404,-0.54865660,-3.01493266,-1.42887742,1.43074560

>  <Name>
1ntb_lig

>  <RI>
0

>  <Rbt.Current_Directory>
/home/itssahil/PROJECTS/Mol_Feturizer/New_Systems/rnas/1ntb

>  <Rbt.Executable>
rbdock ($Id: //depot/dev/client3/rdock/2013.1/src/exe/rbdock.cxx#4 $)

>  <Rbt.Library>
libRbt.so (2013.1, Build901 2013/11/27)

>  <Rbt.Parameter_File>
/export/apps/rDock/src/rDock_2013.1_src/data/scripts/dock_solv.prm

>  <Rbt.Receptor>
prm/blind_docking_60.prm

>  <SCORE>
-13.6947

>  <SCORE.INTER>
-15.3507

>  <SCORE.INTER.CONST>
1

>  <SCORE.INTER.POLAR>
-2.13468

>  <SCORE.INTER.ROT>
11

>  <SCORE.INTER.SOLV>
16.8498

>  <SCORE.INTER.VDW>
-19.6681

>  <SCORE.INTER.norm>
-0.383767

>  <SCORE.INTRA>
0.0773202

>  <SCORE.INTRA.DIHEDRAL>
2.853

>  <SCORE.INTRA.DIHEDRAL.0>
15.4453

>  <SCORE.INTRA.POLAR>
0

>  <SCORE.INTRA.POLAR.0>
0

>  <SCORE.INTRA.REPUL>
-0.823958

>  <SCORE.INTRA.REPUL.0>
0.823958

>  <SCORE.INTRA.SOLV>
2.89873

>  <SCORE.INTRA.SOLV.lig_0>
-99.3069

>  <SCORE.INTRA.VDW>
1.32124

>  <SCORE.INTRA.VDW.0>
0.946495

>  <SCORE.INTRA.norm>
0.001933

>  <SCORE.RESTR>
1.57869

>  <SCORE.RESTR.CAVITY>
1.57869

>  <SCORE.RESTR.norm>
0.0394673

>  <SCORE.SYSTEM>
0

>  <SCORE.SYSTEM.CONST>
0

>  <SCORE.SYSTEM.DIHEDRAL>
0

>  <SCORE.SYSTEM.SOLV>
0

>  <SCORE.SYSTEM.norm>
0

>  <SCORE.heavy>
40

>  <SCORE.norm>
-0.342366

>  <RMSD>
18.928

$$$$
1ntb_lig
 OpenBabel11021811403D
libRbt.so/2013.1/901 2013/11/27
 40 42  0  0  0  0  0  0  0  0999 V2000
   19.0631   34.6310   -2.6681 C   0  0  0  0  0  0  0  0  0  0  0  0
   19.9870   35.3028   -2.0976 N   0  0  0  0  0  0  0  0  0  0  0  0
   18.2811   24.1743   -2.1192 C   0  0  0  0  0  0  0  0  0  0  0  0
   17.9068   23.5429   -0.9061 O   0  0  0  0  0  0  0  0  0  0  0  0
   20.5002   30.1742    1.4523 C   0  0  0  0  0  0  0  0  0  0  0  0
   21.1467   30.4470    2.5291 N   0  0  0  0  0  0  0  0  0  0  0  0
   20.5947   25.4626   -4.0080 C   0  0  0  0  0  0  0  0  0  0  0  0
   18.5107   21.8752    1.3344 C   0  0  0  0  0  0  0  0  0  0  0  0
   19.0882   32.2877   -2.3962 C   0  0  2  0  0  0  0  0  0  0  0  0
   19.4439   33.4999   -3.2299 N   0  0  0  0  0  0  0  0  0  0  0  0
   19.9293   27.2962   -1.0839 C   0  0  2  0  0  0  0  0  0  0  0  0
   18.6995   25.2042    1.3784 C   0  0  1  0  0  0  0  0  0  0  0  0
   19.7087   25.5445    0.4458 O   0  0  0  0  0  0  0  0  0  0  0  0
   20.2285   31.9189   -1.4535 C   0  0  1  0  0  0  0  0  0  0  0  0
   20.4546   33.1454   -0.6311 O   0  0  0  0  0  0  0  0  0  0  0  0
   19.1804   26.0324   -0.7022 C   0  0  2  0  0  0  0  0  0  0  0  0
   19.2002   24.0712    2.2411 C   0  0  1  0  0  0  0  0  0  0  0  0
   19.4733   22.9353    1.4332 N   0  0  0  0  0  0  0  0  0  0  0  0
   19.9286   30.6809   -0.6107 C   0  0  2  0  0  0  0  0  0  0  0  0
   20.9783   30.2887    0.3067 N   0  0  0  0  0  0  0  0  0  0  0  0
   19.4346   25.1181   -1.8712 C   0  0  1  0  0  0  0  0  0  0  0  0
   20.6397   24.3756   -1.6582 O   0  0  0  0  0  0  0  0  0  0  0  0
   20.4751   24.5332    2.9264 C   0  0  2  0  0  0  0  0  0  0  0  0
   20.9929   23.5042    3.7411 O   0  0  0  0  0  0  0  0  0  0  0  0
   19.6591   29.5331   -1.5489 C   0  0  1  0  0  0  0  0  0  0  0  0
   19.1963   28.4522   -0.6923 O   0  0  0  0  0  0  0  0  0  0  0  0
   19.6104   26.0376   -3.0227 C   0  0  1  0  0  0  0  0  0  0  0  0
   20.1031   27.2746   -2.5026 O   0  0  0  0  0  0  0  0  0  0  0  0
   20.1086   25.7511    3.7748 C   0  0  1  0  0  0  0  0  0  0  0  0
   21.2557   26.2481    4.4464 O   0  0  0  0  0  0  0  0  0  0  0  0
   18.4663   29.8750   -2.4818 C   0  0  2  0  0  0  0  0  0  0  0  0
   18.2205   28.7767   -3.3463 O   0  0  0  0  0  0  0  0  0  0  0  0
   19.5263   26.8323    2.8640 C   0  0  1  0  0  0  0  0  0  0  0  0
   18.3738   26.3307    2.1891 O   0  0  0  0  0  0  0  0  0  0  0  0
   18.8133   31.1196   -3.3214 C   0  0  1  0  0  0  0  0  0  0  0  0
   17.7216   31.4485   -4.1887 O   0  0  0  0  0  0  0  0  0  0  0  0
   19.1298   28.0381    3.7163 C   0  0  0  0  0  0  0  0  0  0  0  0
   18.0408   27.6798    4.5518 O   0  0  0  0  0  0  0  0  0  0  0  0
   17.8434   35.0381   -2.7172 N   0  0  0  0  0  0  0  0  0  0  0  0
   19.3462   29.7175    1.5322 N   0  0  0  0  0  0  0  0  0  0  0  0
  1  2  1  0  0  0  0
  1 39  1  0  0  0  0
  3  4  1  0  0  0  0
  5  6  1  0  0  0  0
  5 40  1  0  0  0  0
  9 10  1  6  0  0  0
  9 14  1  0  0  0  0
  9 35  1  0  0  0  0
 10  1  1  0  0  0  0
 11 16  1  0  0  0  0
 11 28  1  0  0  0  0
 11 26  1  6  0  0  0
 12 17  1  0  0  0  0
 12 34  1  0  0  0  0
 12 13  1  6  0  0  0
 14 15  1  1  0  0  0
 14 19  1  0  0  0  0
 16 13  1  1  0  0  0
 16 21  1  0  0  0  0
 17 18  1  6  0  0  0
 17 23  1  0  0  0  0
 18  8  1  0  0  0  0
 19 20  1  1  0  0  0
 19 25  1  0  0  0  0
 20  5  1  0  0  0  0
 21  3  1  6  0  0  0
 21 22  1  0  0  0  0
 21 27  1  0  0  0  0
 23 24  1  1  0  0  0
 23 29  1  0  0  0  0
 25 26  1  1  0  0  0
 25 31  1  0  0  0  0
 27  7  1  6  0  0  0
 27 28  1  0  0  0  0
 29 30  1  6  0  0  0
 29 33  1  0  0  0  0
 31 32  1  6  0  0  0
 31 35  1  0  0  0  0
 33 34  1  0  0  0  0
 33 37  1  1  0  0  0
 35 36  1  6  0  0  0
 37 38  1  0  0  0  0
M  END
>  <CHROM.1>
-91.47852441,102.42498853,-156.73372517,150.42917331,132.91533793,-98.67776735
127.20903713,-146.58557076,-49.41178119,-132.43693281,-67.38383915,19.47647551
28.04999852,-0.19188469,-1.78062913,1.42329021,2.89965390

>  <Name>
1ntb_lig

>  <RI>
0

>  <Rbt.Current_Directory>
/home/itssahil/PROJECTS/Mol_Feturizer/New_Systems/rnas/1ntb

>  <Rbt.Executable>
rbdock ($Id: //depot/dev/client3/rdock/2013.1/src/exe/rbdock.cxx#4 $)

>  <Rbt.Library>
libRbt.so (2013.1, Build901 2013/11/27)

>  <Rbt.Parameter_File>
/export/apps/rDock/src/rDock_2013.1_src/data/scripts/dock_solv.prm

>  <Rbt.Receptor>
prm/blind_docking_80.prm

>  <SCORE>
-4.62984

>  <SCORE.INTER>
-6.25153

>  <SCORE.INTER.CONST>
1

>  <SCORE.INTER.POLAR>
-1.07341

>  <SCORE.INTER.ROT>
11

>  <SCORE.INTER.SOLV>
20.5716

>  <SCORE.INTER.VDW>
-18.3802

>  <SCORE.INTER.norm>
-0.156288

>  <SCORE.INTRA>
0.650394

>  <SCORE.INTRA.DIHEDRAL>
7.62206

>  <SCORE.INTRA.DIHEDRAL.0>
15.4453

>  <SCORE.INTRA.POLAR>
0

>  <SCORE.INTRA.POLAR.0>
0

>  <SCORE.INTRA.REPUL>
-0.823958

>  <SCORE.INTRA.REPUL.0>
0.823958

>  <SCORE.INTRA.SOLV>
3.28732

>  <SCORE.INTRA.SOLV.lig_0>
-99.3069

>  <SCORE.INTRA.VDW>
-0.684507

>  <SCORE.INTRA.VDW.0>
0.946495

>  <SCORE.INTRA.norm>
0.0162599

>  <SCORE.RESTR>
0.971297

>  <SCORE.RESTR.CAVITY>
0.971297

>  <SCORE.RESTR.norm>
0.0242824

>  <SCORE.SYSTEM>
0

>  <SCORE.SYSTEM.CONST>
0

>  <SCORE.SYSTEM.DIHEDRAL>
0

>  <SCORE.SYSTEM.SOLV>
0

>  <SCORE.SYSTEM.norm>
0

>  <SCORE.heavy>
40

>  <SCORE.norm>
-0.115746

>  <RMSD>
18.930

$$$$
1ntb_lig
 OpenBabel11021811403D
libRbt.so/2013.1/901 2013/11/27
 40 42  0  0  0  0  0  0  0  0999 V2000
   20.2672   29.0130    6.3459 C   0  0  0  0  0  0  0  0  0  0  0  0
   20.0547   28.3852    7.4372 N   0  0  0  0  0  0  0  0  0  0  0  0
   21.4132   27.0675   -1.7906 C   0  0  0  0  0  0  0  0  0  0  0  0
   21.6175   27.8258   -0.6101 O   0  0  0  0  0  0  0  0  0  0  0  0
   19.1671   23.2780    2.9366 C   0  0  0  0  0  0  0  0  0  0  0  0
   18.5383   22.7040    1.9738 N   0  0  0  0  0  0  0  0  0  0  0  0
   22.0553   23.9637   -1.0595 C   0  0  0  0  0  0  0  0  0  0  0  0
   17.6567   25.5073   -5.6977 C   0  0  0  0  0  0  0  0  0  0  0  0
   19.9148   27.5692    4.5137 C   0  0  2  0  0  0  0  0  0  0  0  0
   20.8798   28.3249    5.4018 N   0  0  0  0  0  0  0  0  0  0  0  0
   18.9024   25.0804    0.0211 C   0  0  2  0  0  0  0  0  0  0  0  0
   18.6747   27.1267   -2.9388 C   0  0  1  0  0  0  0  0  0  0  0  0
   18.2591   26.3303   -1.8446 O   0  0  0  0  0  0  0  0  0  0  0  0
   20.4901   26.2167    4.1079 C   0  0  1  0  0  0  0  0  0  0  0  0
   20.7642   25.5165    5.3988 O   0  0  0  0  0  0  0  0  0  0  0  0
   19.2234   26.2457   -0.8970 C   0  0  2  0  0  0  0  0  0  0  0  0
   17.5355   27.2275   -3.9240 C   0  0  1  0  0  0  0  0  0  0  0  0
   17.1998   25.9342   -4.4057 N   0  0  0  0  0  0  0  0  0  0  0  0
   19.5640   25.4276    3.1847 C   0  0  2  0  0  0  0  0  0  0  0  0
   20.0609   24.1313    2.7718 N   0  0  0  0  0  0  0  0  0  0  0  0
   20.5559   25.8618   -1.4835 C   0  0  1  0  0  0  0  0  0  0  0  0
   20.3624   25.0822   -2.6683 O   0  0  0  0  0  0  0  0  0  0  0  0
   16.3438   27.8322   -3.2010 C   0  0  2  0  0  0  0  0  0  0  0  0
   15.2434   27.9401   -4.0773 O   0  0  0  0  0  0  0  0  0  0  0  0
   19.3152   26.2593    1.9532 C   0  0  1  0  0  0  0  0  0  0  0  0
   18.2856   25.5399    1.2192 O   0  0  0  0  0  0  0  0  0  0  0  0
   21.1905   25.0269   -0.4334 C   0  0  1  0  0  0  0  0  0  0  0  0
   20.1358   24.4215    0.3179 O   0  0  0  0  0  0  0  0  0  0  0  0
   16.7740   29.2157   -2.7128 C   0  0  1  0  0  0  0  0  0  0  0  0
   15.7100   29.8467   -2.0174 O   0  0  0  0  0  0  0  0  0  0  0  0
   18.6817   27.6207    2.3476 C   0  0  2  0  0  0  0  0  0  0  0  0
   18.4427   28.3815    1.1737 O   0  0  0  0  0  0  0  0  0  0  0  0
   17.9833   29.0617   -1.7900 C   0  0  1  0  0  0  0  0  0  0  0  0
   19.0516   28.4265   -2.4905 O   0  0  0  0  0  0  0  0  0  0  0  0
   19.6505   28.3889    3.2671 C   0  0  1  0  0  0  0  0  0  0  0  0
   19.0802   29.6490    3.6403 O   0  0  0  0  0  0  0  0  0  0  0  0
   18.4338   30.4475   -1.3273 C   0  0  0  0  0  0  0  0  0  0  0  0
   19.6149   30.3184   -0.5522 O   0  0  0  0  0  0  0  0  0  0  0  0
   19.9311   30.2441    6.1810 N   0  0  0  0  0  0  0  0  0  0  0  0
   18.8481   23.0239    4.1115 N   0  0  0  0  0  0  0  0  0  0  0  0
  1  2  1  0  0  0  0
  1 39  1  0  0  0  0
  3  4  1  0  0  0  0
  5  6  1  0  0  0  0
  5 40  1  0  0  0  0
  9 10  1  1  0  0  0
  9 14  1  0  0  0  0
  9 35  1  0  0  0  0
 10  1  1  0  0  0  0
 11 16  1  0  0  0  0
 11 28  1  0  0  0  0
 11 26  1  1  0  0  0
 12 17  1  0  0  0  0
 12 34  1  0  0  0  0
 12 13  1  1  0  0  0
 14 15  1  1  0  0  0
 14 19  1  0  0  0  0
 16 13  1  6  0  0  0
 16 21  1  0  0  0  0
 17 18  1  1  0  0  0
 17 23  1  0  0  0  0
 18  8  1  0  0  0  0
 19 20  1  6  0  0  0
 19 25  1  0  0  0  0
 20  5  1  0  0  0  0
 21  3  1  6  0  0  0
 21 22  1  0  0  0  0
 21 27  1  0  0  0  0
 23 24  1  6  0  0  0
 23 29  1  0  0  0  0
 25 26  1  6  0  0  0
 25 31  1  0  0  0  0
 27  7  1  6  0  0  0
 27 28  1  0  0  0  0
 29 30  1  1  0  0  0
 29 33  1  0  0  0  0
 31 32  1  6  0  0  0
 31 35  1  0  0  0  0
 33 34  1  0  0  0  0
 33 37  1  6  0  0  0
 35 36  1  1  0  0  0
 37 38  1  0  0  0  0
M  END
>  <CHROM.1>
-143.25884306,88.87075046,-69.01135407,-177.55049814,-163.26973363,-101.16634902
131.69092895,109.53061305,58.01239801,-113.27353661,-175.67796783,19.13794279
26.90513098,0.51336627,0.77256595,-1.19891352,0.83537621

>  <Name>
1ntb_lig

>  <RI>
0

>  <Rbt.Current_Directory>
/home/itssahil/PROJECTS/Mol_Feturizer/New_Systems/rnas/1ntb

>  <Rbt.Executable>
rbdock ($Id: //depot/dev/client3/rdock/2013.1/src/exe/rbdock.cxx#4 $)

>  <Rbt.Library>
libRbt.so (2013.1, Build901 2013/11/27)

>  <Rbt.Parameter_File>
/export/apps/rDock/src/rDock_2013.1_src/data/scripts/dock_solv.prm

>  <Rbt.Receptor>
prm/blind_docking_40.prm

>  <SCORE>
-16.3002

>  <SCORE.INTER>
-10.1661

>  <SCORE.INTER.CONST>
1

>  <SCORE.INTER.POLAR>
-1.44068

>  <SCORE.INTER.ROT>
11

>  <SCORE.INTER.SOLV>
11.2697

>  <SCORE.INTER.VDW>
-16.6651

>  <SCORE.INTER.norm>
-0.254153

>  <SCORE.INTRA>
-6.67648

>  <SCORE.INTRA.DIHEDRAL>
-2.73331

>  <SCORE.INTRA.DIHEDRAL.0>
15.4453

>  <SCORE.INTRA.POLAR>
0

>  <SCORE.INTRA.POLAR.0>
0

>  <SCORE.INTRA.REPUL>
-0.823958

>  <SCORE.INTRA.REPUL.0>
0.823958

>  <SCORE.INTRA.SOLV>
2.44412

>  <SCORE.INTRA.SOLV.lig_0>
-99.3069

>  <SCORE.INTRA.VDW>
-2.4121

>  <SCORE.INTRA.VDW.0>
0.946495

>  <SCORE.INTRA.norm>
-0.166912

>  <SCORE.RESTR>
0.542354

>  <SCORE.RESTR.CAVITY>
0.542354

>  <SCORE.RESTR.norm>
0.0135589

>  <SCORE.SYSTEM>
0

>  <SCORE.SYSTEM.CONST>
0

>  <SCORE.SYSTEM.DIHEDRAL>
0

>  <SCORE.SYSTEM.SOLV>
0

>  <SCORE.SYSTEM.norm>
0

>  <SCORE.heavy>
40

>  <SCORE.norm>
-0.407506

>  <RMSD>
18.955

$$$$
1ntb_lig
 OpenBabel11021811403D
libRbt.so/2013.1/901 2013/11/27
 40 42  0  0  0  0  0  0  0  0999 V2000
   16.9888   25.2547    5.8621 C   0  0  0  0  0  0  0  0  0  0  0  0
   16.2142   24.2912    5.5428 N   0  0  0  0  0  0  0  0  0  0  0  0
   20.6897   25.1619   -3.8169 C   0  0  0  0  0  0  0  0  0  0  0  0
   22.0213   24.9753   -3.3672 O   0  0  0  0  0  0  0  0  0  0  0  0
   20.2963   28.6631    2.7632 C   0  0  0  0  0  0  0  0  0  0  0  0
   19.8440   29.6300    3.4791 N   0  0  0  0  0  0  0  0  0  0  0  0
   19.5467   22.3553   -2.6352 C   0  0  0  0  0  0  0  0  0  0  0  0
   15.6169   28.7417   -3.9406 C   0  0  0  0  0  0  0  0  0  0  0  0
   19.0655   25.0346    4.7647 C   0  0  2  0  0  0  0  0  0  0  0  0
   18.2559   24.9334    6.0395 N   0  0  0  0  0  0  0  0  0  0  0  0
   19.3686   25.0499   -0.3852 C   0  0  2  0  0  0  0  0  0  0  0  0
   19.0280   27.7277   -2.7851 C   0  0  1  0  0  0  0  0  0  0  0  0
   18.6670   26.7392   -1.8382 O   0  0  0  0  0  0  0  0  0  0  0  0
   18.9079   26.4096    4.1247 C   0  0  1  0  0  0  0  0  0  0  0  0
   19.3541   27.3725    5.1762 O   0  0  0  0  0  0  0  0  0  0  0  0
   19.6722   25.8539   -1.6363 C   0  0  2  0  0  0  0  0  0  0  0  0
   17.8781   28.6936   -2.9384 C   0  0  1  0  0  0  0  0  0  0  0  0
   16.7313   28.0049   -3.4159 N   0  0  0  0  0  0  0  0  0  0  0  0
   19.6837   26.5509    2.8167 C   0  0  2  0  0  0  0  0  0  0  0  0
   19.5721   27.8411    2.1683 N   0  0  0  0  0  0  0  0  0  0  0  0
   19.7212   24.8036   -2.7141 C   0  0  1  0  0  0  0  0  0  0  0  0
   18.4126   24.5986   -3.2569 O   0  0  0  0  0  0  0  0  0  0  0  0
   17.5861   29.2937   -1.5734 C   0  0  2  0  0  0  0  0  0  0  0  0
   16.5084   30.2003   -1.6582 O   0  0  0  0  0  0  0  0  0  0  0  0
   19.1889   25.4926    1.8653 C   0  0  1  0  0  0  0  0  0  0  0  0
   20.0939   25.5606    0.7284 O   0  0  0  0  0  0  0  0  0  0  0  0
   20.1679   23.5767   -2.0086 C   0  0  1  0  0  0  0  0  0  0  0  0
   19.7479   23.6969   -0.6475 O   0  0  0  0  0  0  0  0  0  0  0  0
   18.8561   30.0162   -1.1235 C   0  0  1  0  0  0  0  0  0  0  0  0
   18.6642   30.6021    0.1547 O   0  0  0  0  0  0  0  0  0  0  0  0
   19.3901   24.0828    2.4835 C   0  0  2  0  0  0  0  0  0  0  0  0
   18.9313   23.1015    1.5666 O   0  0  0  0  0  0  0  0  0  0  0  0
   20.0062   29.0100   -1.0703 C   0  0  1  0  0  0  0  0  0  0  0  0
   20.1970   28.4215   -2.3558 O   0  0  0  0  0  0  0  0  0  0  0  0
   18.5833   23.9776    3.7920 C   0  0  1  0  0  0  0  0  0  0  0  0
   18.7583   22.6811    4.3756 O   0  0  0  0  0  0  0  0  0  0  0  0
   21.2835   29.7385   -0.6516 C   0  0  0  0  0  0  0  0  0  0  0  0
   22.2240   28.7909   -0.1720 O   0  0  0  0  0  0  0  0  0  0  0  0
   16.5626   26.4576    6.0267 N   0  0  0  0  0  0  0  0  0  0  0  0
   21.5234   28.5500    2.5952 N   0  0  0  0  0  0  0  0  0  0  0  0
  1  2  1  0  0  0  0
  1 39  1  0  0  0  0
  3  4  1  0  0  0  0
  5  6  1  0  0  0  0
  5 40  1  0  0  0  0
  9 10  1  1  0  0  0
  9 14  1  0  0  0  0
  9 35  1  0  0  0  0
 10  1  1  0  0  0  0
 11 16  1  0  0  0  0
 11 28  1  0  0  0  0
 11 26  1  1  0  0  0
 12 17  1  0  0  0  0
 12 34  1  0  0  0  0
 12 13  1  1  0  0  0
 14 15  1  1  0  0  0
 14 19  1  0  0  0  0
 16 13  1  6  0  0  0
 16 21  1  0  0  0  0
 17 18  1  1  0  0  0
 17 23  1  0  0  0  0
 18  8  1  0  0  0  0
 19 20  1  6  0  0  0
 19 25  1  0  0  0  0
 20  5  1  0  0  0  0
 21  3  1  6  0  0  0
 21 22  1  0  0  0  0
 21 27  1  0  0  0  0
 23 24  1  6  0  0  0
 23 29  1  0  0  0  0
 25 26  1  6  0  0  0
 25 31  1  0  0  0  0
 27  7  1  6  0  0  0
 27 28  1  0  0  0  0
 29 30  1  1  0  0  0
 29 33  1  0  0  0  0
 31 32  1  6  0  0  0
 31 35  1  0  0  0  0
 33 34  1  0  0  0  0
 33 37  1  6  0  0  0
 35 36  1  1  0  0  0
 37 38  1  0  0  0  0
M  END
>  <CHROM.1>
53.45989169,89.86698280,140.68123519,-178.79415437,165.89105192,-165.20543378
76.93680228,-109.71730487,74.49600947,-155.06439554,160.73408195,19.10473367
26.54470350,0.51724877,2.22505590,-1.44297990,2.48616662

>  <Name>
1ntb_lig

>  <RI>
0

>  <Rbt.Current_Directory>
/home/itssahil/PROJECTS/Mol_Feturizer/New_Systems/rnas/1ntb

>  <Rbt.Executable>
rbdock ($Id: //depot/dev/client3/rdock/2013.1/src/exe/rbdock.cxx#4 $)

>  <Rbt.Library>
libRbt.so (2013.1, Build901 2013/11/27)

>  <Rbt.Parameter_File>
/export/apps/rDock/src/rDock_2013.1_src/data/scripts/dock_solv.prm

>  <Rbt.Receptor>
prm/blind_docking_40.prm

>  <SCORE>
-19.5527

>  <SCORE.INTER>
-14.4863

>  <SCORE.INTER.CONST>
1

>  <SCORE.INTER.POLAR>
-1.73474

>  <SCORE.INTER.ROT>
11

>  <SCORE.INTER.SOLV>
14.9014

>  <SCORE.INTER.VDW>
-19.7755

>  <SCORE.INTER.norm>
-0.362158

>  <SCORE.INTRA>
-6.48326

>  <SCORE.INTRA.DIHEDRAL>
-2.81846

>  <SCORE.INTRA.DIHEDRAL.0>
15.4453

>  <SCORE.INTRA.POLAR>
0

>  <SCORE.INTRA.POLAR.0>
0

>  <SCORE.INTRA.REPUL>
-0.823958

>  <SCORE.INTRA.REPUL.0>
0.823958

>  <SCORE.INTRA.SOLV>
3.57491

>  <SCORE.INTRA.SOLV.lig_0>
-99.3069

>  <SCORE.INTRA.VDW>
-2.7417

>  <SCORE.INTRA.VDW.0>
0.946495

>  <SCORE.INTRA.norm>
-0.162082

>  <SCORE.RESTR>
1.41688

>  <SCORE.RESTR.CAVITY>
1.41688

>  <SCORE.RESTR.norm>
0.0354221

>  <SCORE.SYSTEM>
0

>  <SCORE.SYSTEM.CONST>
0

>  <SCORE.SYSTEM.DIHEDRAL>
0

>  <SCORE.SYSTEM.SOLV>
0

>  <SCORE.SYSTEM.norm>
0

>  <SCORE.heavy>
40

>  <SCORE.norm>
-0.488817

>  <RMSD>
18.965

$$$$
1ntb_lig
 OpenBabel11021811403D
libRbt.so/2013.1/901 2013/11/27
 40 42  0  0  0  0  0  0  0  0999 V2000
   18.5256   33.5313   -3.4187 C   0  0  0  0  0  0  0  0  0  0  0  0
   18.9946   34.6073   -2.9163 N   0  0  0  0  0  0  0  0  0  0  0  0
   20.1909   25.7148    4.0338 C   0  0  0  0  0  0  0  0  0  0  0  0
   21.3065   26.5899    4.0280 O   0  0  0  0  0  0  0  0  0  0  0  0
   16.6103   28.0255   -2.1859 C   0  0  0  0  0  0  0  0  0  0  0  0
   16.0311   27.8086   -3.3126 N   0  0  0  0  0  0  0  0  0  0  0  0
   17.9025   27.9310    4.6909 C   0  0  0  0  0  0  0  0  0  0  0  0
   17.7639   21.2509    1.2248 C   0  0  0  0  0  0  0  0  0  0  0  0
   18.5021   31.6313   -2.0204 C   0  0  2  0  0  0  0  0  0  0  0  0
   17.7651   32.8112   -2.6167 N   0  0  0  0  0  0  0  0  0  0  0  0
   18.6124   27.5578    1.2686 C   0  0  2  0  0  0  0  0  0  0  0  0
   19.7049   24.1457    1.1284 C   0  0  1  0  0  0  0  0  0  0  0  0
   18.7977   25.2322    1.1493 O   0  0  0  0  0  0  0  0  0  0  0  0
   17.7788   30.3242   -2.3254 C   0  0  1  0  0  0  0  0  0  0  0  0
   17.7023   30.2701   -3.8164 O   0  0  0  0  0  0  0  0  0  0  0  0
   19.3344   26.3161    1.7591 C   0  0  2  0  0  0  0  0  0  0  0  0
   19.1388   23.0596    0.2460 C   0  0  1  0  0  0  0  0  0  0  0  0
   17.9005   22.6068    0.7742 N   0  0  0  0  0  0  0  0  0  0  0  0
   18.4692   29.1049   -1.7176 C   0  0  2  0  0  0  0  0  0  0  0  0
   17.8251   27.8347   -1.9810 N   0  0  0  0  0  0  0  0  0  0  0  0
   19.0585   26.3226    3.2393 C   0  0  1  0  0  0  0  0  0  0  0  0
   17.8380   25.6263    3.5122 O   0  0  0  0  0  0  0  0  0  0  0  0
   18.9232   23.6468   -1.1386 C   0  0  2  0  0  0  0  0  0  0  0  0
   18.3836   22.6723   -2.0045 O   0  0  0  0  0  0  0  0  0  0  0  0
   18.5401   29.3054   -0.2260 C   0  0  1  0  0  0  0  0  0  0  0  0
   19.3709   28.2137    0.2580 O   0  0  0  0  0  0  0  0  0  0  0  0
   18.9006   27.7595    3.5753 C   0  0  1  0  0  0  0  0  0  0  0  0
   18.4357   28.4193    2.3956 O   0  0  0  0  0  0  0  0  0  0  0  0
   20.2897   24.1104   -1.6437 C   0  0  1  0  0  0  0  0  0  0  0  0
   20.1703   24.6803   -2.9378 O   0  0  0  0  0  0  0  0  0  0  0  0
   19.3189   30.6080    0.1011 C   0  0  2  0  0  0  0  0  0  0  0  0
   19.3862   30.7701    1.5094 O   0  0  0  0  0  0  0  0  0  0  0  0
   20.8545   25.1429   -0.6676 C   0  0  1  0  0  0  0  0  0  0  0  0
   20.9730   24.5686    0.6329 O   0  0  0  0  0  0  0  0  0  0  0  0
   18.5846   31.8127   -0.5184 C   0  0  1  0  0  0  0  0  0  0  0  0
   19.2912   33.0239   -0.2251 O   0  0  0  0  0  0  0  0  0  0  0  0
   22.2352   25.5830   -1.1551 C   0  0  0  0  0  0  0  0  0  0  0  0
   22.6918   26.6587   -0.3509 O   0  0  0  0  0  0  0  0  0  0  0  0
   18.7946   33.1558   -4.6197 N   0  0  0  0  0  0  0  0  0  0  0  0
   15.9538   28.5034   -1.2440 N   0  0  0  0  0  0  0  0  0  0  0  0
  1  2  1  0  0  0  0
  1 39  1  0  0  0  0
  3  4  1  0  0  0  0
  5  6  1  0  0  0  0
  5 40  1  0  0  0  0
  9 10  1  6  0  0  0
  9 14  1  0  0  0  0
  9 35  1  0  0  0  0
 10  1  1  0  0  0  0
 11 16  1  0  0  0  0
 11 28  1  0  0  0  0
 11 26  1  6  0  0  0
 12 17  1  0  0  0  0
 12 34  1  0  0  0  0
 12 13  1  6  0  0  0
 14 15  1  6  0  0  0
 14 19  1  0  0  0  0
 16 13  1  6  0  0  0
 16 21  1  0  0  0  0
 17 18  1  1  0  0  0
 17 23  1  0  0  0  0
 18  8  1  0  0  0  0
 19 20  1  1  0  0  0
 19 25  1  0  0  0  0
 20  5  1  0  0  0  0
 21  3  1  1  0  0  0
 21 22  1  0  0  0  0
 21 27  1  0  0  0  0
 23 24  1  6  0  0  0
 23 29  1  0  0  0  0
 25 26  1  1  0  0  0
 25 31  1  0  0  0  0
 27  7  1  1  0  0  0
 27 28  1  0  0  0  0
 29 30  1  6  0  0  0
 29 33  1  0  0  0  0
 31 32  1  1  0  0  0
 31 35  1  0  0  0  0
 33 34  1  0  0  0  0
 33 37  1  6  0  0  0
 35 36  1  6  0  0  0
 37 38  1  0  0  0  0
M  END
>  <CHROM.1>
-124.01362316,-100.86104999,174.76964634,-170.82378469,156.87465415,-116.40492406
-25.86653194,114.44713139,71.67768126,-125.95644795,172.75604022,18.94371335
27.64236967,-0.15766834,2.39395723,-1.41325988,0.40794533

>  <Name>
1ntb_lig

>  <RI>
0

>  <Rbt.Current_Directory>
/home/itssahil/PROJECTS/Mol_Feturizer/New_Systems/rnas/1ntb

>  <Rbt.Executable>
rbdock ($Id: //depot/dev/client3/rdock/2013.1/src/exe/rbdock.cxx#4 $)

>  <Rbt.Library>
libRbt.so (2013.1, Build901 2013/11/27)

>  <Rbt.Parameter_File>
/export/apps/rDock/src/rDock_2013.1_src/data/scripts/dock_solv.prm

>  <Rbt.Receptor>
prm/blind_docking_100.prm

>  <SCORE>
-18.7119

>  <SCORE.INTER>
-13.7733

>  <SCORE.INTER.CONST>
1

>  <SCORE.INTER.POLAR>
-1.09545

>  <SCORE.INTER.ROT>
11

>  <SCORE.INTER.SOLV>
21.1473

>  <SCORE.INTER.VDW>
-23.5132

>  <SCORE.INTER.norm>
-0.344333

>  <SCORE.INTRA>
-5.27476

>  <SCORE.INTRA.DIHEDRAL>
-0.6733

>  <SCORE.INTRA.DIHEDRAL.0>
15.4453

>  <SCORE.INTRA.POLAR>
0

>  <SCORE.INTRA.POLAR.0>
0

>  <SCORE.INTRA.REPUL>
-0.823958

>  <SCORE.INTRA.REPUL.0>
0.823958

>  <SCORE.INTRA.SOLV>
0.102957

>  <SCORE.INTRA.SOLV.lig_0>
-99.3069

>  <SCORE.INTRA.VDW>
-0.869799

>  <SCORE.INTRA.VDW.0>
0.946495

>  <SCORE.INTRA.norm>
-0.131869

>  <SCORE.RESTR>
0.336206

>  <SCORE.RESTR.CAVITY>
0.336206

>  <SCORE.RESTR.norm>
0.00840514

>  <SCORE.SYSTEM>
0

>  <SCORE.SYSTEM.CONST>
0

>  <SCORE.SYSTEM.DIHEDRAL>
0

>  <SCORE.SYSTEM.SOLV>
0

>  <SCORE.SYSTEM.norm>
0

>  <SCORE.heavy>
40

>  <SCORE.norm>
-0.467797

>  <RMSD>
18.978

$$$$
1ntb_lig
 OpenBabel11021811403D
libRbt.so/2013.1/901 2013/11/27
 40 42  0  0  0  0  0  0  0  0999 V2000
   19.1627   33.7306   -3.6667 C   0  0  0  0  0  0  0  0  0  0  0  0
   18.9390   33.6184   -4.9187 N   0  0  0  0  0  0  0  0  0  0  0  0
   20.2952   25.8784    3.4087 C   0  0  0  0  0  0  0  0  0  0  0  0
   19.9106   25.5755    4.7393 O   0  0  0  0  0  0  0  0  0  0  0  0
   16.2037   28.5692   -2.2394 C   0  0  0  0  0  0  0  0  0  0  0  0
   15.8090   28.8374   -1.0460 N   0  0  0  0  0  0  0  0  0  0  0  0
   18.1417   28.2376    4.0224 C   0  0  0  0  0  0  0  0  0  0  0  0
   17.0353   21.2778    0.7713 C   0  0  0  0  0  0  0  0  0  0  0  0
   18.8541   31.7260   -2.4616 C   0  0  2  0  0  0  0  0  0  0  0  0
   18.3275   33.0827   -2.8775 N   0  0  0  0  0  0  0  0  0  0  0  0
   18.5434   27.4998    0.6092 C   0  0  2  0  0  0  0  0  0  0  0  0
   19.4043   24.0055    0.9884 C   0  0  1  0  0  0  0  0  0  0  0  0
   18.6453   25.1683    0.7127 O   0  0  0  0  0  0  0  0  0  0  0  0
   17.8209   30.6353   -2.7220 C   0  0  1  0  0  0  0  0  0  0  0  0
   17.5331   30.7248   -4.1852 O   0  0  0  0  0  0  0  0  0  0  0  0
   19.2659   26.2851    1.1627 C   0  0  2  0  0  0  0  0  0  0  0  0
   18.8438   22.8594    0.1817 C   0  0  1  0  0  0  0  0  0  0  0  0
   17.4950   22.6206    0.5573 N   0  0  0  0  0  0  0  0  0  0  0  0
   18.2952   29.2494   -2.2897 C   0  0  2  0  0  0  0  0  0  0  0  0
   17.3525   28.1741   -2.5191 N   0  0  0  0  0  0  0  0  0  0  0  0
   19.1183   26.4489    2.6522 C   0  0  1  0  0  0  0  0  0  0  0  0
   17.9046   25.8319    3.0941 O   0  0  0  0  0  0  0  0  0  0  0  0
   18.9080   23.2453   -1.2865 C   0  0  2  0  0  0  0  0  0  0  0  0
   18.3850   22.2087   -2.0880 O   0  0  0  0  0  0  0  0  0  0  0  0
   18.6107   29.3034   -0.8174 C   0  0  1  0  0  0  0  0  0  0  0  0
   19.2325   28.0219   -0.5219 O   0  0  0  0  0  0  0  0  0  0  0  0
   19.0347   27.9171    2.8518 C   0  0  1  0  0  0  0  0  0  0  0  0
   18.4910   28.4749    1.6532 O   0  0  0  0  0  0  0  0  0  0  0  0
   20.3806   23.4854   -1.6200 C   0  0  1  0  0  0  0  0  0  0  0  0
   20.5239   23.8585   -2.9817 O   0  0  0  0  0  0  0  0  0  0  0  0
   19.6993   30.3759   -0.5438 C   0  0  2  0  0  0  0  0  0  0  0  0
   19.9915   30.4004    0.8448 O   0  0  0  0  0  0  0  0  0  0  0  0
   20.9194   24.5934   -0.7146 C   0  0  1  0  0  0  0  0  0  0  0  0
   20.7738   24.2170    0.6538 O   0  0  0  0  0  0  0  0  0  0  0  0
   19.1778   31.7581   -0.9817 C   0  0  1  0  0  0  0  0  0  0  0  0
   20.1718   32.7600   -0.7354 O   0  0  0  0  0  0  0  0  0  0  0  0
   22.4004   24.8117   -1.0254 C   0  0  0  0  0  0  0  0  0  0  0  0
   22.8657   25.9419   -0.3054 O   0  0  0  0  0  0  0  0  0  0  0  0
   20.1229   34.4479   -3.1986 N   0  0  0  0  0  0  0  0  0  0  0  0
   15.3964   28.6500   -3.1820 N   0  0  0  0  0  0  0  0  0  0  0  0
  1  2  1  0  0  0  0
  1 39  1  0  0  0  0
  3  4  1  0  0  0  0
  5  6  1  0  0  0  0
  5 40  1  0  0  0  0
  9 10  1  1  0  0  0
  9 14  1  0  0  0  0
  9 35  1  0  0  0  0
 10  1  1  0  0  0  0
 11 16  1  0  0  0  0
 11 28  1  0  0  0  0
 11 26  1  6  0  0  0
 12 17  1  0  0  0  0
 12 34  1  0  0  0  0
 12 13  1  6  0  0  0
 14 15  1  6  0  0  0
 14 19  1  0  0  0  0
 16 13  1  6  0  0  0
 16 21  1  0  0  0  0
 17 18  1  1  0  0  0
 17 23  1  0  0  0  0
 18  8  1  0  0  0  0
 19 20  1  1  0  0  0
 19 25  1  0  0  0  0
 20  5  1  0  0  0  0
 21  3  1  1  0  0  0
 21 22  1  0  0  0  0
 21 27  1  0  0  0  0
 23 24  1  6  0  0  0
 23 29  1  0  0  0  0
 25 26  1  6  0  0  0
 25 31  1  0  0  0  0
 27  7  1  1  0  0  0
 27 28  1  0  0  0  0
 29 30  1  6  0  0  0
 29 33  1  0  0  0  0
 31 32  1  1  0  0  0
 31 35  1  0  0  0  0
 33 34  1  0  0  0  0
 33 37  1  6  0  0  0
 35 36  1  6  0  0  0
 37 38  1  0  0  0  0
M  END
>  <CHROM.1>
-128.83347934,95.88990583,-169.75592794,-166.28665303,169.32237146,-135.40116136
-40.36668346,-68.64331030,-157.30800207,-129.50812265,173.10544677,18.96909413
27.57170520,-0.46731789,1.96831583,-1.39748362,-0.00035632

>  <Name>
1ntb_lig

>  <RI>
0

>  <Rbt.Current_Directory>
/home/itssahil/PROJECTS/Mol_Feturizer/New_Systems/rnas/1ntb

>  <Rbt.Executable>
rbdock ($Id: //depot/dev/client3/rdock/2013.1/src/exe/rbdock.cxx#4 $)

>  <Rbt.Library>
libRbt.so (2013.1, Build901 2013/11/27)

>  <Rbt.Parameter_File>
/export/apps/rDock/src/rDock_2013.1_src/data/scripts/dock_solv.prm

>  <Rbt.Receptor>
prm/blind_docking_60.prm

>  <SCORE>
-18.7414

>  <SCORE.INTER>
-14.2839

>  <SCORE.INTER.CONST>
1

>  <SCORE.INTER.POLAR>
-1.09545

>  <SCORE.INTER.ROT>
11

>  <SCORE.INTER.SOLV>
26.9577

>  <SCORE.INTER.VDW>
-25.7903

>  <SCORE.INTER.norm>
-0.357097

>  <SCORE.INTRA>
-6.11267

>  <SCORE.INTRA.DIHEDRAL>
-0.844684

>  <SCORE.INTRA.DIHEDRAL.0>
15.4453

>  <SCORE.INTRA.POLAR>
0

>  <SCORE.INTRA.POLAR.0>
0

>  <SCORE.INTRA.REPUL>
-0.823958

>  <SCORE.INTRA.REPUL.0>
0.823958

>  <SCORE.INTRA.SOLV>
-0.315464

>  <SCORE.INTRA.SOLV.lig_0>
-99.3069

>  <SCORE.INTRA.VDW>
-1.4128

>  <SCORE.INTRA.VDW.0>
0.946495

>  <SCORE.INTRA.norm>
-0.152817

>  <SCORE.RESTR>
1.6552

>  <SCORE.RESTR.CAVITY>
1.6552

>  <SCORE.RESTR.norm>
0.04138

>  <SCORE.SYSTEM>
0

>  <SCORE.SYSTEM.CONST>
0

>  <SCORE.SYSTEM.DIHEDRAL>
0

>  <SCORE.SYSTEM.SOLV>
0

>  <SCORE.SYSTEM.norm>
0

>  <SCORE.heavy>
40

>  <SCORE.norm>
-0.468534

>  <RMSD>
19.005

$$$$
1ntb_lig
 OpenBabel11021811403D
libRbt.so/2013.1/901 2013/11/27
 40 42  0  0  0  0  0  0  0  0999 V2000
   18.3657   33.0522   -1.7021 C   0  0  0  0  0  0  0  0  0  0  0  0
   17.3824   33.5600   -2.3389 N   0  0  0  0  0  0  0  0  0  0  0  0
   19.9410   25.6220    4.6351 C   0  0  0  0  0  0  0  0  0  0  0  0
   21.1970   26.2719    4.5325 O   0  0  0  0  0  0  0  0  0  0  0  0
   16.9034   27.8788   -2.0092 C   0  0  0  0  0  0  0  0  0  0  0  0
   15.7038   28.3075   -2.1808 N   0  0  0  0  0  0  0  0  0  0  0  0
   17.7912   28.0621    4.6995 C   0  0  0  0  0  0  0  0  0  0  0  0
   17.3565   21.5214    1.5439 C   0  0  0  0  0  0  0  0  0  0  0  0
   19.6346   31.0761   -1.9267 C   0  0  2  0  0  0  0  0  0  0  0  0
   19.2774   32.4531   -2.4436 N   0  0  0  0  0  0  0  0  0  0  0  0
   18.9047   27.2018    1.4784 C   0  0  2  0  0  0  0  0  0  0  0  0
   19.8787   24.0664    1.0352 C   0  0  1  0  0  0  0  0  0  0  0  0
   18.8979   24.8730    1.6610 O   0  0  0  0  0  0  0  0  0  0  0  0
   18.3835   30.2315   -1.7115 C   0  0  1  0  0  0  0  0  0  0  0  0
   17.7132   30.1968   -3.0461 O   0  0  0  0  0  0  0  0  0  0  0  0
   19.4443   25.9852    2.2080 C   0  0  2  0  0  0  0  0  0  0  0  0
   19.2209   22.8010    0.5407 C   0  0  1  0  0  0  0  0  0  0  0  0
   18.6745   22.0823    1.6371 N   0  0  0  0  0  0  0  0  0  0  0  0
   18.6906   28.8406   -1.1605 C   0  0  2  0  0  0  0  0  0  0  0  0
   17.5362   27.9938   -0.9414 N   0  0  0  0  0  0  0  0  0  0  0  0
   18.9798   26.2018    3.6238 C   0  0  1  0  0  0  0  0  0  0  0  0
   17.6774   25.6354    3.8032 O   0  0  0  0  0  0  0  0  0  0  0  0
   18.1116   23.1950   -0.4199 C   0  0  2  0  0  0  0  0  0  0  0  0
   17.4546   22.0451   -0.9064 O   0  0  0  0  0  0  0  0  0  0  0  0
   19.4166   29.0084    0.1491 C   0  0  1  0  0  0  0  0  0  0  0  0
   19.8431   27.6663    0.5137 O   0  0  0  0  0  0  0  0  0  0  0  0
   18.9070   27.6776    3.7627 C   0  0  1  0  0  0  0  0  0  0  0  0
   18.6596   28.2116    2.4601 O   0  0  0  0  0  0  0  0  0  0  0  0
   18.7683   23.9599   -1.5693 C   0  0  1  0  0  0  0  0  0  0  0  0
   17.7901   24.3701   -2.5119 O   0  0  0  0  0  0  0  0  0  0  0  0
   20.7202   29.8242   -0.0640 C   0  0  2  0  0  0  0  0  0  0  0  0
   21.3948   29.9582    1.1773 O   0  0  0  0  0  0  0  0  0  0  0  0
   19.4925   25.1812   -1.0019 C   0  0  1  0  0  0  0  0  0  0  0  0
   20.4749   24.7669   -0.0539 O   0  0  0  0  0  0  0  0  0  0  0  0
   20.3664   31.2218   -0.6079 C   0  0  1  0  0  0  0  0  0  0  0  0
   21.5598   31.9881   -0.8101 O   0  0  0  0  0  0  0  0  0  0  0  0
   20.1765   25.9285   -2.1469 C   0  0  0  0  0  0  0  0  0  0  0  0
   21.2729   25.1600   -2.6154 O   0  0  0  0  0  0  0  0  0  0  0  0
   18.4541   33.0966   -0.4191 N   0  0  0  0  0  0  0  0  0  0  0  0
   17.4692   27.2631   -2.9297 N   0  0  0  0  0  0  0  0  0  0  0  0
  1  2  1  0  0  0  0
  1 39  1  0  0  0  0
  3  4  1  0  0  0  0
  5  6  1  0  0  0  0
  5 40  1  0  0  0  0
  9 10  1  1  0  0  0
  9 14  1  0  0  0  0
  9 35  1  0  0  0  0
 10  1  1  0  0  0  0
 11 16  1  0  0  0  0
 11 28  1  0  0  0  0
 11 26  1  6  0  0  0
 12 17  1  0  0  0  0
 12 34  1  0  0  0  0
 12 13  1  6  0  0  0
 14 15  1  6  0  0  0
 14 19  1  0  0  0  0
 16 13  1  6  0  0  0
 16 21  1  0  0  0  0
 17 18  1  1  0  0  0
 17 23  1  0  0  0  0
 18  8  1  0  0  0  0
 19 20  1  1  0  0  0
 19 25  1  0  0  0  0
 20  5  1  0  0  0  0
 21  3  1  1  0  0  0
 21 22  1  0  0  0  0
 21 27  1  0  0  0  0
 23 24  1  6  0  0  0
 23 29  1  0  0  0  0
 25 26  1  6  0  0  0
 25 31  1  0  0  0  0
 27  7  1  1  0  0  0
 27 28  1  0  0  0  0
 29 30  1  6  0  0  0
 29 33  1  0  0  0  0
 31 32  1  1  0  0  0
 31 35  1  0  0  0  0
 33 34  1  0  0  0  0
 33 37  1  6  0  0  0
 35 36  1  6  0  0  0
 37 38  1  0  0  0  0
M  END
>  <CHROM.1>
51.82659827,-131.14123008,-164.52571806,175.80301134,115.03324750,135.34199733
56.80811487,-116.12746155,62.39829365,-100.15873220,-70.67548145,18.96162518
27.32444357,0.11577460,-1.48421009,1.33048163,2.72020895

>  <Name>
1ntb_lig

>  <RI>
0

>  <Rbt.Current_Directory>
/home/itssahil/PROJECTS/Mol_Feturizer/New_Systems/rnas/1ntb

>  <Rbt.Executable>
rbdock ($Id: //depot/dev/client3/rdock/2013.1/src/exe/rbdock.cxx#4 $)

>  <Rbt.Library>
libRbt.so (2013.1, Build901 2013/11/27)

>  <Rbt.Parameter_File>
/export/apps/rDock/src/rDock_2013.1_src/data/scripts/dock_solv.prm

>  <Rbt.Receptor>
prm/blind_docking_80.prm

>  <SCORE>
2.68869

>  <SCORE.INTER>
-4.1023

>  <SCORE.INTER.CONST>
1

>  <SCORE.INTER.POLAR>
0

>  <SCORE.INTER.ROT>
11

>  <SCORE.INTER.SOLV>
12.6783

>  <SCORE.INTER.VDW>
-17.8943

>  <SCORE.INTER.norm>
-0.102557

>  <SCORE.INTRA>
6.48527

>  <SCORE.INTRA.DIHEDRAL>
0.516246

>  <SCORE.INTRA.DIHEDRAL.0>
15.4453

>  <SCORE.INTRA.POLAR>
0

>  <SCORE.INTRA.POLAR.0>
0

>  <SCORE.INTRA.REPUL>
-0.823958

>  <SCORE.INTRA.REPUL.0>
0.823958

>  <SCORE.INTRA.SOLV>
4.37142

>  <SCORE.INTRA.SOLV.lig_0>
-99.3069

>  <SCORE.INTRA.VDW>
8.16122

>  <SCORE.INTRA.VDW.0>
0.946495

>  <SCORE.INTRA.norm>
0.162132

>  <SCORE.RESTR>
0.30571

>  <SCORE.RESTR.CAVITY>
0.30571

>  <SCORE.RESTR.norm>
0.00764275

>  <SCORE.SYSTEM>
0

>  <SCORE.SYSTEM.CONST>
0

>  <SCORE.SYSTEM.DIHEDRAL>
0

>  <SCORE.SYSTEM.SOLV>
0

>  <SCORE.SYSTEM.norm>
0

>  <SCORE.heavy>
40

>  <SCORE.norm>
0.0672172

>  <RMSD>
19.021

$$$$
1ntb_lig
 OpenBabel11021811403D
libRbt.so/2013.1/901 2013/11/27
 40 42  0  0  0  0  0  0  0  0999 V2000
   15.9274   23.7957   -5.0510 C   0  0  0  0  0  0  0  0  0  0  0  0
   15.0323   23.1393   -5.6820 N   0  0  0  0  0  0  0  0  0  0  0  0
   21.0566   31.3545   -0.1367 C   0  0  0  0  0  0  0  0  0  0  0  0
   22.1228   31.2356   -1.0637 O   0  0  0  0  0  0  0  0  0  0  0  0
   20.9477   25.0808   -1.4150 C   0  0  0  0  0  0  0  0  0  0  0  0
   21.3566   23.8623   -1.4284 N   0  0  0  0  0  0  0  0  0  0  0  0
   18.5746   32.2803   -2.0243 C   0  0  0  0  0  0  0  0  0  0  0  0
   20.9719   31.0140    2.9516 C   0  0  0  0  0  0  0  0  0  0  0  0
   18.1398   24.6061   -4.9312 C   0  0  2  0  0  0  0  0  0  0  0  0
   17.1741   23.5374   -5.3962 N   0  0  0  0  0  0  0  0  0  0  0  0
   19.1605   28.8145   -2.0043 C   0  0  2  0  0  0  0  0  0  0  0  0
   20.6391   28.2367    1.1853 C   0  0  1  0  0  0  0  0  0  0  0  0
   19.5910   28.4941    0.2693 O   0  0  0  0  0  0  0  0  0  0  0  0
   18.4603   24.4459   -3.4492 C   0  0  1  0  0  0  0  0  0  0  0  0
   19.0169   23.0649   -3.3270 O   0  0  0  0  0  0  0  0  0  0  0  0
   20.0349   29.1719   -0.8162 C   0  0  2  0  0  0  0  0  0  0  0  0
   20.2064   28.6950    2.5570 C   0  0  1  0  0  0  0  0  0  0  0  0
   19.9518   30.0922    2.5396 N   0  0  0  0  0  0  0  0  0  0  0  0
   19.4093   25.5214   -2.9247 C   0  0  2  0  0  0  0  0  0  0  0  0
   19.7510   25.4133   -1.5214 N   0  0  0  0  0  0  0  0  0  0  0  0
   19.8293   30.6567   -0.6749 C   0  0  1  0  0  0  0  0  0  0  0  0
   18.7054   30.9162    0.1729 O   0  0  0  0  0  0  0  0  0  0  0  0
   18.9361   27.9453    2.9214 C   0  0  2  0  0  0  0  0  0  0  0  0
   18.4810   28.3449    4.1957 O   0  0  0  0  0  0  0  0  0  0  0  0
   18.7666   26.8639   -3.1588 C   0  0  1  0  0  0  0  0  0  0  0  0
   19.7955   27.8344   -2.8186 O   0  0  0  0  0  0  0  0  0  0  0  0
   19.5324   31.1174   -2.0541 C   0  0  1  0  0  0  0  0  0  0  0  0
   18.9442   30.0154   -2.7489 O   0  0  0  0  0  0  0  0  0  0  0  0
   19.2821   26.4561    2.9219 C   0  0  1  0  0  0  0  0  0  0  0  0
   18.1378   25.6835    3.2496 O   0  0  0  0  0  0  0  0  0  0  0  0
   18.4806   27.0621   -4.6718 C   0  0  2  0  0  0  0  0  0  0  0  0
   17.8893   28.3366   -4.8717 O   0  0  0  0  0  0  0  0  0  0  0  0
   19.7969   26.0666    1.5359 C   0  0  1  0  0  0  0  0  0  0  0  0
   20.9467   26.8449    1.2079 O   0  0  0  0  0  0  0  0  0  0  0  0
   17.5122   25.9665   -5.1577 C   0  0  1  0  0  0  0  0  0  0  0  0
   17.2377   26.1357   -6.5535 O   0  0  0  0  0  0  0  0  0  0  0  0
   20.1735   24.5849    1.5450 C   0  0  0  0  0  0  0  0  0  0  0  0
   18.9895   23.8036    1.5530 O   0  0  0  0  0  0  0  0  0  0  0  0
   15.6395   24.6366   -4.1205 N   0  0  0  0  0  0  0  0  0  0  0  0
   21.7678   25.9980   -1.2340 N   0  0  0  0  0  0  0  0  0  0  0  0
  1  2  1  0  0  0  0
  1 39  1  0  0  0  0
  3  4  1  0  0  0  0
  5  6  1  0  0  0  0
  5 40  1  0  0  0  0
  9 10  1  1  0  0  0
  9 14  1  0  0  0  0
  9 35  1  0  0  0  0
 10  1  1  0  0  0  0
 11 16  1  0  0  0  0
 11 28  1  0  0  0  0
 11 26  1  6  0  0  0
 12 17  1  0  0  0  0
 12 34  1  0  0  0  0
 12 13  1  6  0  0  0
 14 15  1  6  0  0  0
 14 19  1  0  0  0  0
 16 13  1  1  0  0  0
 16 21  1  0  0  0  0
 17 18  1  6  0  0  0
 17 23  1  0  0  0  0
 18  8  1  0  0  0  0
 19 20  1  1  0  0  0
 19 25  1  0  0  0  0
 20  5  1  0  0  0  0
 21  3  1  1  0  0  0
 21 22  1  0  0  0  0
 21 27  1  0  0  0  0
 23 24  1  1  0  0  0
 23 29  1  0  0  0  0
 25 26  1  6  0  0  0
 25 31  1  0  0  0  0
 27  7  1  1  0  0  0
 27 28  1  0  0  0  0
 29 30  1  6  0  0  0
 29 33  1  0  0  0  0
 31 32  1  1  0  0  0
 31 35  1  0  0  0  0
 33 34  1  0  0  0  0
 33 37  1  1  0  0  0
 35 36  1  6  0  0  0
 37 38  1  0  0  0  0
M  END
>  <CHROM.1>
78.42526782,162.96856061,136.28116490,128.84068866,151.25764822,-95.80084814
110.38973119,-86.51041833,64.49632566,-133.87295210,73.60008920,19.16129933
27.20685838,-1.23347925,-3.06256215,-1.25226034,-0.54778624

>  <Name>
1ntb_lig

>  <RI>
0

>  <Rbt.Current_Directory>
/home/itssahil/PROJECTS/Mol_Feturizer/New_Systems/rnas/1ntb

>  <Rbt.Executable>
rbdock ($Id: //depot/dev/client3/rdock/2013.1/src/exe/rbdock.cxx#4 $)

>  <Rbt.Library>
libRbt.so (2013.1, Build901 2013/11/27)

>  <Rbt.Parameter_File>
/export/apps/rDock/src/rDock_2013.1_src/data/scripts/dock_solv.prm

>  <Rbt.Receptor>
prm/blind_docking_80.prm

>  <SCORE>
0.0712868

>  <SCORE.INTER>
-6.60173

>  <SCORE.INTER.CONST>
1

>  <SCORE.INTER.POLAR>
-1.12825

>  <SCORE.INTER.ROT>
11

>  <SCORE.INTER.SOLV>
24.6745

>  <SCORE.INTER.VDW>
-19.7985

>  <SCORE.INTER.norm>
-0.165043

>  <SCORE.INTRA>
2.97184

>  <SCORE.INTRA.DIHEDRAL>
11.3032

>  <SCORE.INTRA.DIHEDRAL.0>
15.4453

>  <SCORE.INTRA.POLAR>
0

>  <SCORE.INTRA.POLAR.0>
0

>  <SCORE.INTRA.REPUL>
-0.823958

>  <SCORE.INTRA.REPUL.0>
0.823958

>  <SCORE.INTRA.SOLV>
8.35615

>  <SCORE.INTRA.SOLV.lig_0>
-99.3069

>  <SCORE.INTRA.VDW>
-2.73803

>  <SCORE.INTRA.VDW.0>
0.946495

>  <SCORE.INTRA.norm>
0.074296

>  <SCORE.RESTR>
3.70118

>  <SCORE.RESTR.CAVITY>
3.70118

>  <SCORE.RESTR.norm>
0.0925295

>  <SCORE.SYSTEM>
0

>  <SCORE.SYSTEM.CONST>
0

>  <SCORE.SYSTEM.DIHEDRAL>
0

>  <SCORE.SYSTEM.SOLV>
0

>  <SCORE.SYSTEM.norm>
0

>  <SCORE.heavy>
40

>  <SCORE.norm>
0.00178217

>  <RMSD>
19.082

$$$$
1ntb_lig
 OpenBabel11021811403D
libRbt.so/2013.1/901 2013/11/27
 40 42  0  0  0  0  0  0  0  0999 V2000
   18.0087   33.5624   -2.8451 C   0  0  0  0  0  0  0  0  0  0  0  0
   18.1872   34.7111   -2.3170 N   0  0  0  0  0  0  0  0  0  0  0  0
   20.2583   25.5188    4.0862 C   0  0  0  0  0  0  0  0  0  0  0  0
   21.2816   26.4978    4.1543 O   0  0  0  0  0  0  0  0  0  0  0  0
   17.2636   27.2609   -2.5650 C   0  0  0  0  0  0  0  0  0  0  0  0
   18.3387   26.6726   -2.9524 N   0  0  0  0  0  0  0  0  0  0  0  0
   17.8864   27.5948    4.8888 C   0  0  0  0  0  0  0  0  0  0  0  0
   17.5310   21.1666    1.8384 C   0  0  0  0  0  0  0  0  0  0  0  0
   18.0298   31.4975   -1.7041 C   0  0  2  0  0  0  0  0  0  0  0  0
   17.2638   32.7244   -2.1501 N   0  0  0  0  0  0  0  0  0  0  0  0
   18.4620   27.3249    1.4317 C   0  0  2  0  0  0  0  0  0  0  0  0
   19.6109   23.8928    1.4272 C   0  0  1  0  0  0  0  0  0  0  0  0
   18.7657   25.0154    1.2554 O   0  0  0  0  0  0  0  0  0  0  0  0
   17.1674   30.2448   -1.8137 C   0  0  1  0  0  0  0  0  0  0  0  0
   16.7603   30.1872   -3.2500 O   0  0  0  0  0  0  0  0  0  0  0  0
   19.2705   26.1152    1.8641 C   0  0  2  0  0  0  0  0  0  0  0  0
   19.0361   22.7315    0.6529 C   0  0  1  0  0  0  0  0  0  0  0  0
   17.7467   22.4097    1.1541 N   0  0  0  0  0  0  0  0  0  0  0  0
   17.8879   28.9822   -1.3455 C   0  0  2  0  0  0  0  0  0  0  0  0
   17.1144   27.7608   -1.4328 N   0  0  0  0  0  0  0  0  0  0  0  0
   19.0608   26.0789    3.3547 C   0  0  1  0  0  0  0  0  0  0  0  0
   17.8926   25.3124    3.6656 O   0  0  0  0  0  0  0  0  0  0  0  0
   18.9321   23.1469   -0.8049 C   0  0  2  0  0  0  0  0  0  0  0  0
   18.3890   22.0969   -1.5751 O   0  0  0  0  0  0  0  0  0  0  0  0
   18.2999   29.1862    0.0894 C   0  0  1  0  0  0  0  0  0  0  0  0
   19.1386   28.0398    0.4031 O   0  0  0  0  0  0  0  0  0  0  0  0
   18.8416   27.4986    3.7275 C   0  0  1  0  0  0  0  0  0  0  0  0
   18.2900   28.1542    2.5833 O   0  0  0  0  0  0  0  0  0  0  0  0
   20.3487   23.4762   -1.2765 C   0  0  1  0  0  0  0  0  0  0  0  0
   20.3345   23.8814   -2.6364 O   0  0  0  0  0  0  0  0  0  0  0  0
   19.2208   30.4304    0.2085 C   0  0  2  0  0  0  0  0  0  0  0  0
   19.6083   30.5959    1.5637 O   0  0  0  0  0  0  0  0  0  0  0  0
   20.9139   24.5965   -0.4028 C   0  0  1  0  0  0  0  0  0  0  0  0
   20.9265   24.1877    0.9640 O   0  0  0  0  0  0  0  0  0  0  0  0
   18.4541   31.6817   -0.2612 C   0  0  1  0  0  0  0  0  0  0  0  0
   19.2910   32.8398   -0.1572 O   0  0  0  0  0  0  0  0  0  0  0  0
   22.3422   24.9040   -0.8531 C   0  0  0  0  0  0  0  0  0  0  0  0
   22.3011   25.6017   -2.0876 O   0  0  0  0  0  0  0  0  0  0  0  0
   18.5392   33.2293   -3.9691 N   0  0  0  0  0  0  0  0  0  0  0  0
   16.3213   27.3993   -3.3648 N   0  0  0  0  0  0  0  0  0  0  0  0
  1  2  1  0  0  0  0
  1 39  1  0  0  0  0
  3  4  1  0  0  0  0
  5  6  1  0  0  0  0
  5 40  1  0  0  0  0
  9 10  1  1  0  0  0
  9 14  1  0  0  0  0
  9 35  1  0  0  0  0
 10  1  1  0  0  0  0
 11 16  1  0  0  0  0
 11 28  1  0  0  0  0
 11 26  1  6  0  0  0
 12 17  1  0  0  0  0
 12 34  1  0  0  0  0
 12 13  1  6  0  0  0
 14 15  1  6  0  0  0
 14 19  1  0  0  0  0
 16 13  1  6  0  0  0
 16 21  1  0  0  0  0
 17 18  1  1  0  0  0
 17 23  1  0  0  0  0
 18  8  1  0  0  0  0
 19 20  1  1  0  0  0
 19 25  1  0  0  0  0
 20  5  1  0  0  0  0
 21  3  1  1  0  0  0
 21 22  1  0  0  0  0
 21 27  1  0  0  0  0
 23 24  1  6  0  0  0
 23 29  1  0  0  0  0
 25 26  1  6  0  0  0
 25 31  1  0  0  0  0
 27  7  1  1  0  0  0
 27 28  1  0  0  0  0
 29 30  1  6  0  0  0
 29 33  1  0  0  0  0
 31 32  1  1  0  0  0
 31 35  1  0  0  0  0
 33 34  1  0  0  0  0
 33 37  1  6  0  0  0
 35 36  1  6  0  0  0
 37 38  1  0  0  0  0
M  END
>  <CHROM.1>
-140.56147248,-116.42549360,-178.65855167,-176.39668537,169.68802373,-112.31876907
87.92833238,73.25000738,76.87661642,-116.81519624,73.47729081,18.85547037
27.32142753,0.01277502,2.81119712,-1.41231562,0.89307642

>  <Name>
1ntb_lig

>  <RI>
0

>  <Rbt.Current_Directory>
/home/itssahil/PROJECTS/Mol_Feturizer/New_Systems/rnas/1ntb

>  <Rbt.Executable>
rbdock ($Id: //depot/dev/client3/rdock/2013.1/src/exe/rbdock.cxx#4 $)

>  <Rbt.Library>
libRbt.so (2013.1, Build901 2013/11/27)

>  <Rbt.Parameter_File>
/export/apps/rDock/src/rDock_2013.1_src/data/scripts/dock_solv.prm

>  <Rbt.Receptor>
prm/blind_docking_100.prm

>  <SCORE>
-19.4272

>  <SCORE.INTER>
-8.6004

>  <SCORE.INTER.CONST>
1

>  <SCORE.INTER.POLAR>
0

>  <SCORE.INTER.ROT>
11

>  <SCORE.INTER.SOLV>
16.811

>  <SCORE.INTER.VDW>
-22.2706

>  <SCORE.INTER.norm>
-0.21501

>  <SCORE.INTRA>
-10.8838

>  <SCORE.INTRA.DIHEDRAL>
-2.08638

>  <SCORE.INTRA.DIHEDRAL.0>
15.4453

>  <SCORE.INTRA.POLAR>
0

>  <SCORE.INTRA.POLAR.0>
0

>  <SCORE.INTRA.REPUL>
-0.823958

>  <SCORE.INTRA.REPUL.0>
0.823958

>  <SCORE.INTRA.SOLV>
-0.991343

>  <SCORE.INTRA.SOLV.lig_0>
-99.3069

>  <SCORE.INTRA.VDW>
-5.22512

>  <SCORE.INTRA.VDW.0>
0.946495

>  <SCORE.INTRA.norm>
-0.272094

>  <SCORE.RESTR>
0.0569403

>  <SCORE.RESTR.CAVITY>
0.0569403

>  <SCORE.RESTR.norm>
0.00142351

>  <SCORE.SYSTEM>
0

>  <SCORE.SYSTEM.CONST>
0

>  <SCORE.SYSTEM.DIHEDRAL>
0

>  <SCORE.SYSTEM.SOLV>
0

>  <SCORE.SYSTEM.norm>
0

>  <SCORE.heavy>
40

>  <SCORE.norm>
-0.485681

>  <RMSD>
19.112

$$$$
1ntb_lig
 OpenBabel11021811403D
libRbt.so/2013.1/901 2013/11/27
 40 42  0  0  0  0  0  0  0  0999 V2000
   17.6062   34.2669   -2.5456 C   0  0  0  0  0  0  0  0  0  0  0  0
   17.7602   35.5208   -2.3605 N   0  0  0  0  0  0  0  0  0  0  0  0
   20.3514   25.1432    1.5753 C   0  0  0  0  0  0  0  0  0  0  0  0
   19.7324   24.3864    2.6021 O   0  0  0  0  0  0  0  0  0  0  0  0
   18.0425   28.2768   -3.1619 C   0  0  0  0  0  0  0  0  0  0  0  0
   19.0577   27.6336   -3.6178 N   0  0  0  0  0  0  0  0  0  0  0  0
   17.9718   26.9183    2.9045 C   0  0  0  0  0  0  0  0  0  0  0  0
   16.6008   24.9808   -1.8124 C   0  0  0  0  0  0  0  0  0  0  0  0
   19.1395   32.5087   -2.8971 C   0  0  2  0  0  0  0  0  0  0  0  0
   18.4088   33.7190   -3.4377 N   0  0  0  0  0  0  0  0  0  0  0  0
   19.2964   28.2654   -0.0597 C   0  0  2  0  0  0  0  0  0  0  0  0
   19.3774   24.9110   -1.1917 C   0  0  1  0  0  0  0  0  0  0  0  0
   19.5105   26.3140   -1.3258 O   0  0  0  0  0  0  0  0  0  0  0  0
   18.2027   31.3113   -2.7812 C   0  0  1  0  0  0  0  0  0  0  0  0
   17.6762   31.1043   -4.1639 O   0  0  0  0  0  0  0  0  0  0  0  0
   19.9221   26.8870   -0.1695 C   0  0  2  0  0  0  0  0  0  0  0  0
   18.8894   24.3438   -2.5026 C   0  0  1  0  0  0  0  0  0  0  0  0
   17.6183   24.8919   -2.8209 N   0  0  0  0  0  0  0  0  0  0  0  0
   18.8878   30.0713   -2.2106 C   0  0  2  0  0  0  0  0  0  0  0  0
   18.0429   28.9018   -2.0833 N   0  0  0  0  0  0  0  0  0  0  0  0
   19.3806   26.1686    1.0379 C   0  0  1  0  0  0  0  0  0  0  0  0
   18.1338   25.5432    0.7163 O   0  0  0  0  0  0  0  0  0  0  0  0
   19.8950   24.7191   -3.5780 C   0  0  2  0  0  0  0  0  0  0  0  0
   19.4805   24.2200   -4.8308 O   0  0  0  0  0  0  0  0  0  0  0  0
   19.4272   30.4227   -0.8484 C   0  0  1  0  0  0  0  0  0  0  0  0
   20.2238   29.2710   -0.4542 O   0  0  0  0  0  0  0  0  0  0  0  0
   19.1577   27.2455    2.0344 C   0  0  1  0  0  0  0  0  0  0  0  0
   18.9131   28.4503    1.3050 O   0  0  0  0  0  0  0  0  0  0  0  0
   21.2325   24.0988   -3.1733 C   0  0  1  0  0  0  0  0  0  0  0  0
   22.2317   24.4117   -4.1311 O   0  0  0  0  0  0  0  0  0  0  0  0
   20.4226   31.6090   -0.9582 C   0  0  2  0  0  0  0  0  0  0  0  0
   20.9289   31.9141    0.3320 O   0  0  0  0  0  0  0  0  0  0  0  0
   21.6350   24.6408   -1.8013 C   0  0  1  0  0  0  0  0  0  0  0  0
   20.6290   24.3261   -0.8400 O   0  0  0  0  0  0  0  0  0  0  0  0
   19.6906   32.8407   -1.5253 C   0  0  1  0  0  0  0  0  0  0  0  0
   20.5964   33.9454   -1.6328 O   0  0  0  0  0  0  0  0  0  0  0  0
   22.9564   23.9963   -1.3817 C   0  0  0  0  0  0  0  0  0  0  0  0
   23.2042   24.2890   -0.0160 O   0  0  0  0  0  0  0  0  0  0  0  0
   16.7113   33.5821   -1.9244 N   0  0  0  0  0  0  0  0  0  0  0  0
   17.0033   28.3387   -3.8423 N   0  0  0  0  0  0  0  0  0  0  0  0
  1  2  1  0  0  0  0
  1 39  1  0  0  0  0
  3  4  1  0  0  0  0
  5  6  1  0  0  0  0
  5 40  1  0  0  0  0
  9 10  1  1  0  0  0
  9 14  1  0  0  0  0
  9 35  1  0  0  0  0
 10  1  1  0  0  0  0
 11 16  1  0  0  0  0
 11 28  1  0  0  0  0
 11 26  1  1  0  0  0
 12 17  1  0  0  0  0
 12 34  1  0  0  0  0
 12 13  1  6  0  0  0
 14 15  1  6  0  0  0
 14 19  1  0  0  0  0
 16 13  1  6  0  0  0
 16 21  1  0  0  0  0
 17 18  1  6  0  0  0
 17 23  1  0  0  0  0
 18  8  1  0  0  0  0
 19 20  1  1  0  0  0
 19 25  1  0  0  0  0
 20  5  1  0  0  0  0
 21  3  1  1  0  0  0
 21 22  1  0  0  0  0
 21 27  1  0  0  0  0
 23 24  1  6  0  0  0
 23 29  1  0  0  0  0
 25 26  1  6  0  0  0
 25 31  1  0  0  0  0
 27  7  1  6  0  0  0
 27 28  1  0  0  0  0
 29 30  1  6  0  0  0
 29 33  1  0  0  0  0
 31 32  1  1  0  0  0
 31 35  1  0  0  0  0
 33 34  1  0  0  0  0
 33 37  1  1  0  0  0
 35 36  1  6  0  0  0
 37 38  1  0  0  0  0
M  END
>  <CHROM.1>
74.04847086,127.70276924,156.95817250,178.79622976,-146.73933542,-45.17202064
86.18692553,69.75994377,-172.87300748,-76.38846099,-168.79730709,19.37095692
28.06485487,-1.41623939,2.61406145,-1.33938767,0.90401277

>  <Name>
1ntb_lig

>  <RI>
0

>  <Rbt.Current_Directory>
/home/itssahil/PROJECTS/Mol_Feturizer/New_Systems/rnas/1ntb

>  <Rbt.Executable>
rbdock ($Id: //depot/dev/client3/rdock/2013.1/src/exe/rbdock.cxx#4 $)

>  <Rbt.Library>
libRbt.so (2013.1, Build901 2013/11/27)

>  <Rbt.Parameter_File>
/export/apps/rDock/src/rDock_2013.1_src/data/scripts/dock_solv.prm

>  <Rbt.Receptor>
prm/blind_docking_100.prm

>  <SCORE>
-1.22108

>  <SCORE.INTER>
-11.1946

>  <SCORE.INTER.CONST>
1

>  <SCORE.INTER.POLAR>
-2.3099

>  <SCORE.INTER.ROT>
11

>  <SCORE.INTER.SOLV>
20.6317

>  <SCORE.INTER.VDW>
-17.5739

>  <SCORE.INTER.norm>
-0.279864

>  <SCORE.INTRA>
8.65774

>  <SCORE.INTRA.DIHEDRAL>
-4.90877

>  <SCORE.INTRA.DIHEDRAL.0>
15.4453

>  <SCORE.INTRA.POLAR>
0

>  <SCORE.INTRA.POLAR.0>
0

>  <SCORE.INTRA.REPUL>
-0.823958

>  <SCORE.INTRA.REPUL.0>
0.823958

>  <SCORE.INTRA.SOLV>
8.61981

>  <SCORE.INTRA.SOLV.lig_0>
-99.3069

>  <SCORE.INTRA.VDW>
10.922

>  <SCORE.INTRA.VDW.0>
0.946495

>  <SCORE.INTRA.norm>
0.216444

>  <SCORE.RESTR>
1.31573

>  <SCORE.RESTR.CAVITY>
1.31573

>  <SCORE.RESTR.norm>
0.0328933

>  <SCORE.SYSTEM>
0

>  <SCORE.SYSTEM.CONST>
0

>  <SCORE.SYSTEM.DIHEDRAL>
0

>  <SCORE.SYSTEM.SOLV>
0

>  <SCORE.SYSTEM.norm>
0

>  <SCORE.heavy>
40

>  <SCORE.norm>
-0.0305271

>  <RMSD>
19.163

$$$$
1ntb_lig
 OpenBabel11021811403D
libRbt.so/2013.1/901 2013/11/27
 40 42  0  0  0  0  0  0  0  0999 V2000
   18.3880   33.4864   -3.3080 C   0  0  0  0  0  0  0  0  0  0  0  0
   18.5765   34.6067   -2.7251 N   0  0  0  0  0  0  0  0  0  0  0  0
   20.4631   25.8184    3.8980 C   0  0  0  0  0  0  0  0  0  0  0  0
   20.4579   24.4005    3.9051 O   0  0  0  0  0  0  0  0  0  0  0  0
   17.7743   27.0854   -3.0223 C   0  0  0  0  0  0  0  0  0  0  0  0
   17.1201   27.0568   -4.1283 N   0  0  0  0  0  0  0  0  0  0  0  0
   18.1858   28.0408    4.5724 C   0  0  0  0  0  0  0  0  0  0  0  0
   17.9077   21.3461    2.2612 C   0  0  0  0  0  0  0  0  0  0  0  0
   18.3111   31.4191   -2.1740 C   0  0  2  0  0  0  0  0  0  0  0  0
   17.5857   32.6460   -2.6833 N   0  0  0  0  0  0  0  0  0  0  0  0
   18.5882   27.3785    1.1439 C   0  0  2  0  0  0  0  0  0  0  0  0
   19.7267   23.9672    1.2851 C   0  0  1  0  0  0  0  0  0  0  0  0
   18.8244   25.0554    1.2097 O   0  0  0  0  0  0  0  0  0  0  0  0
   17.4649   30.1651   -2.3652 C   0  0  1  0  0  0  0  0  0  0  0  0
   17.1892   30.1117   -3.8325 O   0  0  0  0  0  0  0  0  0  0  0  0
   19.3854   26.1990    1.6702 C   0  0  2  0  0  0  0  0  0  0  0  0
   19.0949   22.7678    0.6213 C   0  0  1  0  0  0  0  0  0  0  0  0
   17.8997   22.4144    1.3026 N   0  0  0  0  0  0  0  0  0  0  0  0
   18.1428   28.9022   -1.8379 C   0  0  2  0  0  0  0  0  0  0  0  0
   17.3831   27.6797   -1.9987 N   0  0  0  0  0  0  0  0  0  0  0  0
   19.2466   26.3318    3.1636 C   0  0  1  0  0  0  0  0  0  0  0  0
   18.0755   25.6396    3.6092 O   0  0  0  0  0  0  0  0  0  0  0  0
   18.7756   23.1429   -0.8161 C   0  0  2  0  0  0  0  0  0  0  0  0
   18.1714   22.0559   -1.4825 O   0  0  0  0  0  0  0  0  0  0  0  0
   18.4232   29.1021   -0.3710 C   0  0  1  0  0  0  0  0  0  0  0  0
   19.2327   27.9561    0.0134 O   0  0  0  0  0  0  0  0  0  0  0  0
   19.0815   27.7896    3.3871 C   0  0  1  0  0  0  0  0  0  0  0  0
   18.4926   28.3332    2.2035 O   0  0  0  0  0  0  0  0  0  0  0  0
   20.1003   23.5089   -1.4858 C   0  0  1  0  0  0  0  0  0  0  0  0
   19.8838   23.8793   -2.8385 O   0  0  0  0  0  0  0  0  0  0  0  0
   19.3269   30.3476   -0.1652 C   0  0  2  0  0  0  0  0  0  0  0  0
   19.5901   30.5091    1.2200 O   0  0  0  0  0  0  0  0  0  0  0  0
   20.7379   24.6694   -0.7213 C   0  0  1  0  0  0  0  0  0  0  0  0
   20.9540   24.2956    0.6384 O   0  0  0  0  0  0  0  0  0  0  0  0
   18.6030   31.5991   -0.6981 C   0  0  1  0  0  0  0  0  0  0  0  0
   19.4245   32.7584   -0.5152 O   0  0  0  0  0  0  0  0  0  0  0  0
   22.0781   25.0146   -1.3712 C   0  0  0  0  0  0  0  0  0  0  0  0
   22.6087   26.1770   -0.7549 O   0  0  0  0  0  0  0  0  0  0  0  0
   18.9606   33.1815   -4.4193 N   0  0  0  0  0  0  0  0  0  0  0  0
   18.8372   26.4471   -2.9250 N   0  0  0  0  0  0  0  0  0  0  0  0
  1  2  1  0  0  0  0
  1 39  1  0  0  0  0
  3  4  1  0  0  0  0
  5  6  1  0  0  0  0
  5 40  1  0  0  0  0
  9 10  1  1  0  0  0
  9 14  1  0  0  0  0
  9 35  1  0  0  0  0
 10  1  1  0  0  0  0
 11 16  1  0  0  0  0
 11 28  1  0  0  0  0
 11 26  1  6  0  0  0
 12 17  1  0  0  0  0
 12 34  1  0  0  0  0
 12 13  1  6  0  0  0
 14 15  1  6  0  0  0
 14 19  1  0  0  0  0
 16 13  1  6  0  0  0
 16 21  1  0  0  0  0
 17 18  1  1  0  0  0
 17 23  1  0  0  0  0
 18  8  1  0  0  0  0
 19 20  1  1  0  0  0
 19 25  1  0  0  0  0
 20  5  1  0  0  0  0
 21  3  1  1  0  0  0
 21 22  1  0  0  0  0
 21 27  1  0  0  0  0
 23 24  1  6  0  0  0
 23 29  1  0  0  0  0
 25 26  1  6  0  0  0
 25 31  1  0  0  0  0
 27  7  1  1  0  0  0
 27 28  1  0  0  0  0
 29 30  1  6  0  0  0
 29 33  1  0  0  0  0
 31 32  1  1  0  0  0
 31 35  1  0  0  0  0
 33 34  1  0  0  0  0
 33 37  1  6  0  0  0
 35 36  1  6  0  0  0
 37 38  1  0  0  0  0
M  END
>  <CHROM.1>
-140.42306979,-112.66107847,-177.58543098,-173.88916493,160.96485345,-98.87529074
97.38055889,-104.62507204,-75.97444551,-127.38233366,174.00689729,18.99381970
27.29476314,-0.23099507,2.67409229,-1.44641924,0.68459496

>  <Name>
1ntb_lig

>  <RI>
0

>  <Rbt.Current_Directory>
/home/itssahil/PROJECTS/Mol_Feturizer/New_Systems/rnas/1ntb

>  <Rbt.Executable>
rbdock ($Id: //depot/dev/client3/rdock/2013.1/src/exe/rbdock.cxx#4 $)

>  <Rbt.Library>
libRbt.so (2013.1, Build901 2013/11/27)

>  <Rbt.Parameter_File>
/export/apps/rDock/src/rDock_2013.1_src/data/scripts/dock_solv.prm

>  <Rbt.Receptor>
prm/blind_docking_40.prm

>  <SCORE>
-25.0905

>  <SCORE.INTER>
-13.7445

>  <SCORE.INTER.CONST>
1

>  <SCORE.INTER.POLAR>
-0.82389

>  <SCORE.INTER.ROT>
11

>  <SCORE.INTER.SOLV>
18.4856

>  <SCORE.INTER.VDW>
-23.5119

>  <SCORE.INTER.norm>
-0.343612

>  <SCORE.INTRA>
-11.346

>  <SCORE.INTRA.DIHEDRAL>
-2.38666

>  <SCORE.INTRA.DIHEDRAL.0>
15.4453

>  <SCORE.INTRA.POLAR>
0

>  <SCORE.INTRA.POLAR.0>
0

>  <SCORE.INTRA.REPUL>
-0.823958

>  <SCORE.INTRA.REPUL.0>
0.823958

>  <SCORE.INTRA.SOLV>
0.794545

>  <SCORE.INTRA.SOLV.lig_0>
-99.3069

>  <SCORE.INTRA.VDW>
-6.43019

>  <SCORE.INTRA.VDW.0>
0.946495

>  <SCORE.INTRA.norm>
-0.283651

>  <SCORE.RESTR>
0

>  <SCORE.RESTR.CAVITY>
0

>  <SCORE.RESTR.norm>
0

>  <SCORE.SYSTEM>
0

>  <SCORE.SYSTEM.CONST>
0

>  <SCORE.SYSTEM.DIHEDRAL>
0

>  <SCORE.SYSTEM.SOLV>
0

>  <SCORE.SYSTEM.norm>
0

>  <SCORE.heavy>
40

>  <SCORE.norm>
-0.627262

>  <RMSD>
19.187

$$$$
1ntb_lig
 OpenBabel11021811403D
libRbt.so/2013.1/901 2013/11/27
 40 42  0  0  0  0  0  0  0  0999 V2000
   18.3383   33.4095   -3.3731 C   0  0  0  0  0  0  0  0  0  0  0  0
   18.8191   33.0279   -4.4927 N   0  0  0  0  0  0  0  0  0  0  0  0
   20.4557   25.8149    3.9326 C   0  0  0  0  0  0  0  0  0  0  0  0
   20.2702   25.9740    5.3292 O   0  0  0  0  0  0  0  0  0  0  0  0
   17.7836   27.0207   -3.0294 C   0  0  0  0  0  0  0  0  0  0  0  0
   18.9613   26.5394   -3.2118 N   0  0  0  0  0  0  0  0  0  0  0  0
   18.1835   28.0466    4.5935 C   0  0  0  0  0  0  0  0  0  0  0  0
   17.8599   21.3157    2.2532 C   0  0  0  0  0  0  0  0  0  0  0  0
   18.2827   31.3465   -2.2301 C   0  0  2  0  0  0  0  0  0  0  0  0
   17.5397   32.5487   -2.7719 N   0  0  0  0  0  0  0  0  0  0  0  0
   18.5965   27.3753    1.1680 C   0  0  2  0  0  0  0  0  0  0  0  0
   19.7192   23.9583    1.3306 C   0  0  1  0  0  0  0  0  0  0  0  0
   18.8244   25.0515    1.2399 O   0  0  0  0  0  0  0  0  0  0  0  0
   17.4615   30.0733   -2.4022 C   0  0  1  0  0  0  0  0  0  0  0  0
   17.2007   29.9838   -3.8705 O   0  0  0  0  0  0  0  0  0  0  0  0
   19.3877   26.1943    1.6999 C   0  0  2  0  0  0  0  0  0  0  0  0
   19.0882   22.7600    0.6640 C   0  0  1  0  0  0  0  0  0  0  0  0
   17.8829   22.4165    1.3324 N   0  0  0  0  0  0  0  0  0  0  0  0
   18.1576   28.8346   -1.8421 C   0  0  2  0  0  0  0  0  0  0  0  0
   17.4220   27.5951   -1.9837 N   0  0  0  0  0  0  0  0  0  0  0  0
   19.2437   26.3308    3.1925 C   0  0  1  0  0  0  0  0  0  0  0  0
   18.0686   25.6437    3.6353 O   0  0  0  0  0  0  0  0  0  0  0  0
   18.7884   23.1310   -0.7786 C   0  0  2  0  0  0  0  0  0  0  0  0
   18.1858   22.0449   -1.4478 O   0  0  0  0  0  0  0  0  0  0  0  0
   18.4204   29.0705   -0.3774 C   0  0  1  0  0  0  0  0  0  0  0  0
   19.2472   27.9482    0.0387 O   0  0  0  0  0  0  0  0  0  0  0  0
   19.0828   27.7897    3.4122 C   0  0  1  0  0  0  0  0  0  0  0  0
   18.5002   28.3327    2.2252 O   0  0  0  0  0  0  0  0  0  0  0  0
   20.1233   23.4864   -1.4338 C   0  0  1  0  0  0  0  0  0  0  0  0
   19.9253   23.8525   -2.7905 O   0  0  0  0  0  0  0  0  0  0  0  0
   19.2990   30.3367   -0.1899 C   0  0  2  0  0  0  0  0  0  0  0  0
   19.5462   30.5323    1.1938 O   0  0  0  0  0  0  0  0  0  0  0  0
   20.7586   24.6462   -0.6664 C   0  0  1  0  0  0  0  0  0  0  0  0
   20.9561   24.2767    0.6973 O   0  0  0  0  0  0  0  0  0  0  0  0
   18.5572   31.5630   -0.7558 C   0  0  1  0  0  0  0  0  0  0  0  0
   19.3555   32.7409   -0.5902 O   0  0  0  0  0  0  0  0  0  0  0  0
   22.1085   24.9808   -1.3015 C   0  0  0  0  0  0  0  0  0  0  0  0
   22.6237   26.1607   -0.7059 O   0  0  0  0  0  0  0  0  0  0  0  0
   18.5920   34.5670   -2.8714 N   0  0  0  0  0  0  0  0  0  0  0  0
   16.9535   26.9702   -3.9541 N   0  0  0  0  0  0  0  0  0  0  0  0
  1  2  1  0  0  0  0
  1 39  1  0  0  0  0
  3  4  1  0  0  0  0
  5  6  1  0  0  0  0
  5 40  1  0  0  0  0
  9 10  1  1  0  0  0
  9 14  1  0  0  0  0
  9 35  1  0  0  0  0
 10  1  1  0  0  0  0
 11 16  1  0  0  0  0
 11 28  1  0  0  0  0
 11 26  1  6  0  0  0
 12 17  1  0  0  0  0
 12 34  1  0  0  0  0
 12 13  1  6  0  0  0
 14 15  1  6  0  0  0
 14 19  1  0  0  0  0
 16 13  1  6  0  0  0
 16 21  1  0  0  0  0
 17 18  1  1  0  0  0
 17 23  1  0  0  0  0
 18  8  1  0  0  0  0
 19 20  1  1  0  0  0
 19 25  1  0  0  0  0
 20  5  1  0  0  0  0
 21  3  1  1  0  0  0
 21 22  1  0  0  0  0
 21 27  1  0  0  0  0
 23 24  1  6  0  0  0
 23 29  1  0  0  0  0
 25 26  1  6  0  0  0
 25 31  1  0  0  0  0
 27  7  1  1  0  0  0
 27 28  1  0  0  0  0
 29 30  1  6  0  0  0
 29 33  1  0  0  0  0
 31 32  1  1  0  0  0
 31 35  1  0  0  0  0
 33 34  1  0  0  0  0
 33 37  1  6  0  0  0
 35 36  1  6  0  0  0
 37 38  1  0  0  0  0
M  END
>  <CHROM.1>
-142.27810740,70.73539372,-179.34583276,-173.76430903,161.41376791,-101.51218188
93.88461155,66.35925195,179.67661181,-126.87401177,172.62030776,18.98078723
27.31044811,-0.19108469,2.66663049,-1.44352910,0.64447623

>  <Name>
1ntb_lig

>  <RI>
0

>  <Rbt.Current_Directory>
/home/itssahil/PROJECTS/Mol_Feturizer/New_Systems/rnas/1ntb

>  <Rbt.Executable>
rbdock ($Id: //depot/dev/client3/rdock/2013.1/src/exe/rbdock.cxx#4 $)

>  <Rbt.Library>
libRbt.so (2013.1, Build901 2013/11/27)

>  <Rbt.Parameter_File>
/export/apps/rDock/src/rDock_2013.1_src/data/scripts/dock_solv.prm

>  <Rbt.Receptor>
prm/blind_docking_40.prm

>  <SCORE>
-25.0017

>  <SCORE.INTER>
-13.4317

>  <SCORE.INTER.CONST>
1

>  <SCORE.INTER.POLAR>
-0.8099

>  <SCORE.INTER.ROT>
11

>  <SCORE.INTER.SOLV>
18.6087

>  <SCORE.INTER.VDW>
-23.3911

>  <SCORE.INTER.norm>
-0.335793

>  <SCORE.INTRA>
-11.6009

>  <SCORE.INTRA.DIHEDRAL>
-2.38769

>  <SCORE.INTRA.DIHEDRAL.0>
15.4453

>  <SCORE.INTRA.POLAR>
0

>  <SCORE.INTRA.POLAR.0>
0

>  <SCORE.INTRA.REPUL>
-0.823958

>  <SCORE.INTRA.REPUL.0>
0.823958

>  <SCORE.INTRA.SOLV>
-0.141836

>  <SCORE.INTRA.SOLV.lig_0>
-99.3069

>  <SCORE.INTRA.VDW>
-6.21634

>  <SCORE.INTRA.VDW.0>
0.946495

>  <SCORE.INTRA.norm>
-0.290022

>  <SCORE.RESTR>
0.0309637

>  <SCORE.RESTR.CAVITY>
0.0309637

>  <SCORE.RESTR.norm>
0.000774093

>  <SCORE.SYSTEM>
0

>  <SCORE.SYSTEM.CONST>
0

>  <SCORE.SYSTEM.DIHEDRAL>
0

>  <SCORE.SYSTEM.SOLV>
0

>  <SCORE.SYSTEM.norm>
0

>  <SCORE.heavy>
40

>  <SCORE.norm>
-0.625041

>  <RMSD>
19.187

$$$$
1ntb_lig
 OpenBabel11021811403D
libRbt.so/2013.1/901 2013/11/27
 40 42  0  0  0  0  0  0  0  0999 V2000
   18.3369   29.7945    5.8086 C   0  0  0  0  0  0  0  0  0  0  0  0
   18.4412   30.8412    5.0848 N   0  0  0  0  0  0  0  0  0  0  0  0
   19.4011   22.5269   -1.4846 C   0  0  0  0  0  0  0  0  0  0  0  0
   18.8001   21.2532   -1.6482 O   0  0  0  0  0  0  0  0  0  0  0  0
   19.6935   29.1584    1.0817 C   0  0  0  0  0  0  0  0  0  0  0  0
   18.5148   28.7025    0.8472 N   0  0  0  0  0  0  0  0  0  0  0  0
   17.8599   21.6893    1.2546 C   0  0  0  0  0  0  0  0  0  0  0  0
   22.1117   25.7800   -0.9459 C   0  0  0  0  0  0  0  0  0  0  0  0
   19.9434   28.2115    5.1164 C   0  0  2  0  0  0  0  0  0  0  0  0
   19.4746   29.2179    6.1452 N   0  0  0  0  0  0  0  0  0  0  0  0
   18.9948   25.0155    1.1942 C   0  0  2  0  0  0  0  0  0  0  0  0
   19.1865   26.7496   -1.3257 C   0  0  1  0  0  0  0  0  0  0  0  0
   18.4479   25.5855   -1.0042 O   0  0  0  0  0  0  0  0  0  0  0  0
   20.0832   28.8587    3.7429 C   0  0  1  0  0  0  0  0  0  0  0  0
   21.0515   29.9781    3.9460 O   0  0  0  0  0  0  0  0  0  0  0  0
   19.1877   24.7117   -0.2803 C   0  0  2  0  0  0  0  0  0  0  0  0
   20.2004   26.4012   -2.3884 C   0  0  1  0  0  0  0  0  0  0  0  0
   21.0971   25.4169   -1.8940 N   0  0  0  0  0  0  0  0  0  0  0  0
   20.5257   27.8743    2.6622 C   0  0  2  0  0  0  0  0  0  0  0  0
   20.6788   28.4387    1.3372 N   0  0  0  0  0  0  0  0  0  0  0  0
   18.6766   23.3012   -0.4084 C   0  0  1  0  0  0  0  0  0  0  0  0
   17.2701   23.3131   -0.6743 O   0  0  0  0  0  0  0  0  0  0  0  0
   19.4489   25.8548   -3.5906 C   0  0  2  0  0  0  0  0  0  0  0  0
   20.3537   25.5026   -4.6142 O   0  0  0  0  0  0  0  0  0  0  0  0
   19.5066   26.7666    2.5959 C   0  0  1  0  0  0  0  0  0  0  0  0
   20.0854   25.7807    1.6963 O   0  0  0  0  0  0  0  0  0  0  0  0
   18.9286   22.6988    0.9243 C   0  0  1  0  0  0  0  0  0  0  0  0
   18.9094   23.7632    1.8782 O   0  0  0  0  0  0  0  0  0  0  0  0
   18.5080   26.9611   -4.0684 C   0  0  1  0  0  0  0  0  0  0  0  0
   17.7613   26.5227   -5.1927 O   0  0  0  0  0  0  0  0  0  0  0  0
   19.3904   26.0648    3.9759 C   0  0  2  0  0  0  0  0  0  0  0  0
   18.4371   25.0171    3.8876 O   0  0  0  0  0  0  0  0  0  0  0  0
   17.5628   27.3352   -2.9263 C   0  0  1  0  0  0  0  0  0  0  0  0
   18.3151   27.7748   -1.7967 O   0  0  0  0  0  0  0  0  0  0  0  0
   18.9311   27.0872    5.0332 C   0  0  1  0  0  0  0  0  0  0  0  0
   18.8187   26.4546    6.3136 O   0  0  0  0  0  0  0  0  0  0  0  0
   16.6431   28.4638   -3.3932 C   0  0  0  0  0  0  0  0  0  0  0  0
   17.4132   29.4392   -4.0771 O   0  0  0  0  0  0  0  0  0  0  0  0
   17.1985   29.3143    6.1678 N   0  0  0  0  0  0  0  0  0  0  0  0
   19.9014   30.3820    1.0035 N   0  0  0  0  0  0  0  0  0  0  0  0
  1  2  1  0  0  0  0
  1 39  1  0  0  0  0
  3  4  1  0  0  0  0
  5  6  1  0  0  0  0
  5 40  1  0  0  0  0
  9 10  1  1  0  0  0
  9 14  1  0  0  0  0
  9 35  1  0  0  0  0
 10  1  1  0  0  0  0
 11 16  1  0  0  0  0
 11 28  1  0  0  0  0
 11 26  1  1  0  0  0
 12 17  1  0  0  0  0
 12 34  1  0  0  0  0
 12 13  1  6  0  0  0
 14 15  1  1  0  0  0
 14 19  1  0  0  0  0
 16 13  1  6  0  0  0
 16 21  1  0  0  0  0
 17 18  1  1  0  0  0
 17 23  1  0  0  0  0
 18  8  1  0  0  0  0
 19 20  1  6  0  0  0
 19 25  1  0  0  0  0
 20  5  1  0  0  0  0
 21  3  1  6  0  0  0
 21 22  1  0  0  0  0
 21 27  1  0  0  0  0
 23 24  1  6  0  0  0
 23 29  1  0  0  0  0
 25 26  1  6  0  0  0
 25 31  1  0  0  0  0
 27  7  1  1  0  0  0
 27 28  1  0  0  0  0
 29 30  1  6  0  0  0
 29 33  1  0  0  0  0
 31 32  1  6  0  0  0
 31 35  1  0  0  0  0
 33 34  1  0  0  0  0
 33 37  1  6  0  0  0
 35 36  1  1  0  0  0
 37 38  1  0  0  0  0
M  END
>  <CHROM.1>
56.62598696,-87.81249886,140.04094081,73.03910424,90.30397613,-74.44271373
-45.70073029,-71.27998251,-174.57211248,-157.45700976,-44.80165776,19.08953563
26.56346663,0.70558493,0.06204085,-1.52186410,-0.32796675

>  <Name>
1ntb_lig

>  <RI>
0

>  <Rbt.Current_Directory>
/home/itssahil/PROJECTS/Mol_Feturizer/New_Systems/rnas/1ntb

>  <Rbt.Executable>
rbdock ($Id: //depot/dev/client3/rdock/2013.1/src/exe/rbdock.cxx#4 $)

>  <Rbt.Library>
libRbt.so (2013.1, Build901 2013/11/27)

>  <Rbt.Parameter_File>
/export/apps/rDock/src/rDock_2013.1_src/data/scripts/dock_solv.prm

>  <Rbt.Receptor>
prm/blind_docking_40.prm

>  <SCORE>
-9.91423

>  <SCORE.INTER>
-9.36531

>  <SCORE.INTER.CONST>
1

>  <SCORE.INTER.POLAR>
-0.476779

>  <SCORE.INTER.ROT>
11

>  <SCORE.INTER.SOLV>
14.1893

>  <SCORE.INTER.VDW>
-20.3174

>  <SCORE.INTER.norm>
-0.234133

>  <SCORE.INTRA>
-0.563115

>  <SCORE.INTRA.DIHEDRAL>
-0.620436

>  <SCORE.INTRA.DIHEDRAL.0>
15.4453

>  <SCORE.INTRA.POLAR>
0

>  <SCORE.INTRA.POLAR.0>
0

>  <SCORE.INTRA.REPUL>
-0.823958

>  <SCORE.INTRA.REPUL.0>
0.823958

>  <SCORE.INTRA.SOLV>
6.28128

>  <SCORE.INTRA.SOLV.lig_0>
-99.3069

>  <SCORE.INTRA.VDW>
0.726253

>  <SCORE.INTRA.VDW.0>
0.946495

>  <SCORE.INTRA.norm>
-0.0140779

>  <SCORE.RESTR>
0.0141904

>  <SCORE.RESTR.CAVITY>
0.0141904

>  <SCORE.RESTR.norm>
0.00035476

>  <SCORE.SYSTEM>
0

>  <SCORE.SYSTEM.CONST>
0

>  <SCORE.SYSTEM.DIHEDRAL>
0

>  <SCORE.SYSTEM.SOLV>
0

>  <SCORE.SYSTEM.norm>
0

>  <SCORE.heavy>
40

>  <SCORE.norm>
-0.247856

>  <RMSD>
19.194

$$$$
1ntb_lig
 OpenBabel11021811403D
libRbt.so/2013.1/901 2013/11/27
 40 42  0  0  0  0  0  0  0  0999 V2000
   15.8108   29.4028   -3.5682 C   0  0  0  0  0  0  0  0  0  0  0  0
   14.7054   28.7652   -3.5282 N   0  0  0  0  0  0  0  0  0  0  0  0
   19.3267   24.5161   -0.7303 C   0  0  0  0  0  0  0  0  0  0  0  0
   19.7461   23.3923   -1.4862 O   0  0  0  0  0  0  0  0  0  0  0  0
   21.5708   31.0704   -1.5238 C   0  0  0  0  0  0  0  0  0  0  0  0
   22.3831   30.7929   -0.5671 N   0  0  0  0  0  0  0  0  0  0  0  0
   22.0220   25.3343   -2.3570 C   0  0  0  0  0  0  0  0  0  0  0  0
   18.5465   22.7436    3.3637 C   0  0  0  0  0  0  0  0  0  0  0  0
   17.0277   30.3116   -1.7629 C   0  0  2  0  0  0  0  0  0  0  0  0
   15.8987   30.4435   -2.7623 N   0  0  0  0  0  0  0  0  0  0  0  0
   21.0912   27.6242    0.1421 C   0  0  2  0  0  0  0  0  0  0  0  0
   19.3131   26.1714    2.6567 C   0  0  1  0  0  0  0  0  0  0  0  0
   20.4637   26.1390    1.8325 O   0  0  0  0  0  0  0  0  0  0  0  0
   18.3828   30.3490   -2.4610 C   0  0  1  0  0  0  0  0  0  0  0  0
   18.3997   31.6528   -3.1902 O   0  0  0  0  0  0  0  0  0  0  0  0
   20.1716   26.4903    0.5573 C   0  0  2  0  0  0  0  0  0  0  0  0
   19.4034   25.0455    3.6581 C   0  0  1  0  0  0  0  0  0  0  0  0
   19.4402   23.7987    2.9787 N   0  0  0  0  0  0  0  0  0  0  0  0
   19.5554   30.1888   -1.4957 C   0  0  2  0  0  0  0  0  0  0  0  0
   20.8681   30.2217   -2.1068 N   0  0  0  0  0  0  0  0  0  0  0  0
   20.5143   25.3971   -0.4196 C   0  0  1  0  0  0  0  0  0  0  0  0
   21.5926   24.6058    0.0905 O   0  0  0  0  0  0  0  0  0  0  0  0
   20.6814   25.2328    4.4584 C   0  0  2  0  0  0  0  0  0  0  0  0
   20.8208   24.1972    5.4065 O   0  0  0  0  0  0  0  0  0  0  0  0
   19.3932   28.8725   -0.7805 C   0  0  1  0  0  0  0  0  0  0  0  0
   20.4231   28.8770    0.2469 O   0  0  0  0  0  0  0  0  0  0  0  0
   20.9571   26.1207   -1.6373 C   0  0  1  0  0  0  0  0  0  0  0  0
   21.4815   27.3804   -1.2113 O   0  0  0  0  0  0  0  0  0  0  0  0
   20.5732   26.5867    5.1601 C   0  0  1  0  0  0  0  0  0  0  0  0
   21.7394   26.8391    5.9283 O   0  0  0  0  0  0  0  0  0  0  0  0
   18.0386   28.8402   -0.0228 C   0  0  2  0  0  0  0  0  0  0  0  0
   17.9125   27.5994    0.6545 O   0  0  0  0  0  0  0  0  0  0  0  0
   20.3955   27.6789    4.1049 C   0  0  1  0  0  0  0  0  0  0  0  0
   19.2233   27.4231    3.3331 O   0  0  0  0  0  0  0  0  0  0  0  0
   16.8839   28.9924   -1.0316 C   0  0  1  0  0  0  0  0  0  0  0  0
   15.6255   28.9643   -0.3475 O   0  0  0  0  0  0  0  0  0  0  0  0
   20.2549   29.0294    4.8077 C   0  0  0  0  0  0  0  0  0  0  0  0
   19.9816   30.0311    3.8411 O   0  0  0  0  0  0  0  0  0  0  0  0
   16.7703   29.0721   -4.3592 N   0  0  0  0  0  0  0  0  0  0  0  0
   21.4193   32.2547   -1.8718 N   0  0  0  0  0  0  0  0  0  0  0  0
  1  2  1  0  0  0  0
  1 39  1  0  0  0  0
  3  4  1  0  0  0  0
  5  6  1  0  0  0  0
  5 40  1  0  0  0  0
  9 10  1  6  0  0  0
  9 14  1  0  0  0  0
  9 35  1  0  0  0  0
 10  1  1  0  0  0  0
 11 16  1  0  0  0  0
 11 28  1  0  0  0  0
 11 26  1  6  0  0  0
 12 17  1  0  0  0  0
 12 34  1  0  0  0  0
 12 13  1  6  0  0  0
 14 15  1  1  0  0  0
 14 19  1  0  0  0  0
 16 13  1  1  0  0  0
 16 21  1  0  0  0  0
 17 18  1  6  0  0  0
 17 23  1  0  0  0  0
 18  8  1  0  0  0  0
 19 20  1  6  0  0  0
 19 25  1  0  0  0  0
 20  5  1  0  0  0  0
 21  3  1  6  0  0  0
 21 22  1  0  0  0  0
 21 27  1  0  0  0  0
 23 24  1  1  0  0  0
 23 29  1  0  0  0  0
 25 26  1  1  0  0  0
 25 31  1  0  0  0  0
 27  7  1  1  0  0  0
 27 28  1  0  0  0  0
 29 30  1  6  0  0  0
 29 33  1  0  0  0  0
 31 32  1  6  0  0  0
 31 35  1  0  0  0  0
 33 34  1  0  0  0  0
 33 37  1  1  0  0  0
 35 36  1  1  0  0  0
 37 38  1  0  0  0  0
M  END
>  <CHROM.1>
66.84221170,119.93911927,-68.05476677,144.04142385,125.92669837,-129.61491439
127.22160171,95.15712684,-171.14667221,-131.23644967,-175.31570377,19.48668547
27.67722266,0.39008371,2.32227106,-1.12250629,-0.24718799

>  <Name>
1ntb_lig

>  <RI>
0

>  <Rbt.Current_Directory>
/home/itssahil/PROJECTS/Mol_Feturizer/New_Systems/rnas/1ntb

>  <Rbt.Executable>
rbdock ($Id: //depot/dev/client3/rdock/2013.1/src/exe/rbdock.cxx#4 $)

>  <Rbt.Library>
libRbt.so (2013.1, Build901 2013/11/27)

>  <Rbt.Parameter_File>
/export/apps/rDock/src/rDock_2013.1_src/data/scripts/dock_solv.prm

>  <Rbt.Receptor>
prm/blind_docking_40.prm

>  <SCORE>
-11.6767

>  <SCORE.INTER>
-10.0515

>  <SCORE.INTER.CONST>
1

>  <SCORE.INTER.POLAR>
-1.49264

>  <SCORE.INTER.ROT>
11

>  <SCORE.INTER.SOLV>
27.805

>  <SCORE.INTER.VDW>
-21.9272

>  <SCORE.INTER.norm>
-0.251288

>  <SCORE.INTRA>
-2.59256

>  <SCORE.INTRA.DIHEDRAL>
6.80071

>  <SCORE.INTRA.DIHEDRAL.0>
15.4453

>  <SCORE.INTRA.POLAR>
0

>  <SCORE.INTRA.POLAR.0>
0

>  <SCORE.INTRA.REPUL>
-0.823958

>  <SCORE.INTRA.REPUL.0>
0.823958

>  <SCORE.INTRA.SOLV>
1.9287

>  <SCORE.INTRA.SOLV.lig_0>
-99.3069

>  <SCORE.INTRA.VDW>
-2.83748

>  <SCORE.INTRA.VDW.0>
0.946495

>  <SCORE.INTRA.norm>
-0.0648141

>  <SCORE.RESTR>
0.967366

>  <SCORE.RESTR.CAVITY>
0.967366

>  <SCORE.RESTR.norm>
0.0241842

>  <SCORE.SYSTEM>
0

>  <SCORE.SYSTEM.CONST>
0

>  <SCORE.SYSTEM.DIHEDRAL>
0

>  <SCORE.SYSTEM.SOLV>
0

>  <SCORE.SYSTEM.norm>
0

>  <SCORE.heavy>
40

>  <SCORE.norm>
-0.291918

>  <RMSD>
19.212

$$$$
1ntb_lig
 OpenBabel11021811403D
libRbt.so/2013.1/901 2013/11/27
 40 42  0  0  0  0  0  0  0  0999 V2000
   17.8926   19.9628   -1.0801 C   0  0  0  0  0  0  0  0  0  0  0  0
   17.9521   19.3684    0.0483 N   0  0  0  0  0  0  0  0  0  0  0  0
   18.7382   29.5208    0.0679 C   0  0  0  0  0  0  0  0  0  0  0  0
   18.9317   30.9250    0.0370 O   0  0  0  0  0  0  0  0  0  0  0  0
   19.5967   24.6227    2.9365 C   0  0  0  0  0  0  0  0  0  0  0  0
   20.5864   25.1747    3.5431 N   0  0  0  0  0  0  0  0  0  0  0  0
   21.9106   30.1490   -0.2812 C   0  0  0  0  0  0  0  0  0  0  0  0
   15.9156   29.8382   -1.7207 C   0  0  0  0  0  0  0  0  0  0  0  0
   18.7193   22.1334   -0.6670 C   0  0  2  0  0  0  0  0  0  0  0  0
   17.5565   21.2377   -1.0364 N   0  0  0  0  0  0  0  0  0  0  0  0
   21.0443   26.7759   -0.7583 C   0  0  2  0  0  0  0  0  0  0  0  0
   17.7206   26.6527   -1.8328 C   0  0  1  0  0  0  0  0  0  0  0  0
   19.0742   27.0382   -1.9859 O   0  0  0  0  0  0  0  0  0  0  0  0
   18.3233   23.1205    0.4256 C   0  0  1  0  0  0  0  0  0  0  0  0
   17.8620   22.2666    1.5614 O   0  0  0  0  0  0  0  0  0  0  0  0
   19.6397   27.3502   -0.7953 C   0  0  2  0  0  0  0  0  0  0  0  0
   16.8452   27.6835   -2.5034 C   0  0  1  0  0  0  0  0  0  0  0  0
   17.0298   28.9482   -1.8840 N   0  0  0  0  0  0  0  0  0  0  0  0
   19.4568   24.0683    0.8122 C   0  0  2  0  0  0  0  0  0  0  0  0
   19.1352   25.0252    1.8508 N   0  0  0  0  0  0  0  0  0  0  0  0
   19.8722   28.8311   -0.6541 C   0  0  1  0  0  0  0  0  0  0  0  0
   20.0640   29.4211   -1.9442 O   0  0  0  0  0  0  0  0  0  0  0  0
   17.2518   27.7627   -3.9653 C   0  0  2  0  0  0  0  0  0  0  0  0
   16.4682   28.7228   -4.6395 O   0  0  0  0  0  0  0  0  0  0  0  0
   19.8733   24.8242   -0.4228 C   0  0  1  0  0  0  0  0  0  0  0  0
   21.0683   25.5540   -0.0281 O   0  0  0  0  0  0  0  0  0  0  0  0
   21.1264   28.9308    0.1330 C   0  0  1  0  0  0  0  0  0  0  0  0
   21.8837   27.7474   -0.1298 O   0  0  0  0  0  0  0  0  0  0  0  0
   17.0276   26.3748   -4.5660 C   0  0  1  0  0  0  0  0  0  0  0  0
   17.3926   26.3655   -5.9373 O   0  0  0  0  0  0  0  0  0  0  0  0
   20.3278   23.8326   -1.5275 C   0  0  2  0  0  0  0  0  0  0  0  0
   20.7289   24.5647   -2.6753 O   0  0  0  0  0  0  0  0  0  0  0  0
   17.8696   25.3587   -3.7937 C   0  0  1  0  0  0  0  0  0  0  0  0
   17.5019   25.3701   -2.4153 O   0  0  0  0  0  0  0  0  0  0  0  0
   19.1545   22.9044   -1.8966 C   0  0  1  0  0  0  0  0  0  0  0  0
   19.5580   21.9824   -2.9161 O   0  0  0  0  0  0  0  0  0  0  0  0
   17.6211   23.9659   -4.3732 C   0  0  0  0  0  0  0  0  0  0  0  0
   16.2683   23.8693   -4.7890 O   0  0  0  0  0  0  0  0  0  0  0  0
   18.1194   19.3568   -2.1924 N   0  0  0  0  0  0  0  0  0  0  0  0
   19.0855   23.5940    3.4132 N   0  0  0  0  0  0  0  0  0  0  0  0
  1  2  1  0  0  0  0
  1 39  1  0  0  0  0
  3  4  1  0  0  0  0
  5  6  1  0  0  0  0
  5 40  1  0  0  0  0
  9 10  1  6  0  0  0
  9 14  1  0  0  0  0
  9 35  1  0  0  0  0
 10  1  1  0  0  0  0
 11 16  1  0  0  0  0
 11 28  1  0  0  0  0
 11 26  1  1  0  0  0
 12 17  1  0  0  0  0
 12 34  1  0  0  0  0
 12 13  1  6  0  0  0
 14 15  1  1  0  0  0
 14 19  1  0  0  0  0
 16 13  1  6  0  0  0
 16 21  1  0  0  0  0
 17 18  1  1  0  0  0
 17 23  1  0  0  0  0
 18  8  1  0  0  0  0
 19 20  1  1  0  0  0
 19 25  1  0  0  0  0
 20  5  1  0  0  0  0
 21  3  1  1  0  0  0
 21 22  1  0  0  0  0
 21 27  1  0  0  0  0
 23 24  1  6  0  0  0
 23 29  1  0  0  0  0
 25 26  1  1  0  0  0
 25 31  1  0  0  0  0
 27  7  1  6  0  0  0
 27 28  1  0  0  0  0
 29 30  1  6  0  0  0
 29 33  1  0  0  0  0
 31 32  1  6  0  0  0
 31 35  1  0  0  0  0
 33 34  1  0  0  0  0
 33 37  1  6  0  0  0
 35 36  1  6  0  0  0
 37 38  1  0  0  0  0
M  END
>  <CHROM.1>
-132.09764436,80.15832962,41.34793063,113.95173575,138.64687028,-143.34842272
100.41987537,109.97131592,-173.26983097,-146.59087290,-34.71797641,18.80372950
25.57134282,-1.25526865,1.69515749,1.07158873,2.91167549

>  <Name>
1ntb_lig

>  <RI>
0

>  <Rbt.Current_Directory>
/home/itssahil/PROJECTS/Mol_Feturizer/New_Systems/rnas/1ntb

>  <Rbt.Executable>
rbdock ($Id: //depot/dev/client3/rdock/2013.1/src/exe/rbdock.cxx#4 $)

>  <Rbt.Library>
libRbt.so (2013.1, Build901 2013/11/27)

>  <Rbt.Parameter_File>
/export/apps/rDock/src/rDock_2013.1_src/data/scripts/dock_solv.prm

>  <Rbt.Receptor>
prm/blind_docking_40.prm

>  <SCORE>
-2.35612

>  <SCORE.INTER>
-1.69553

>  <SCORE.INTER.CONST>
1

>  <SCORE.INTER.POLAR>
-0.282967

>  <SCORE.INTER.ROT>
11

>  <SCORE.INTER.SOLV>
21.5129

>  <SCORE.INTER.VDW>
-18.2914

>  <SCORE.INTER.norm>
-0.0423881

>  <SCORE.INTRA>
-1.03594

>  <SCORE.INTRA.DIHEDRAL>
9.13409

>  <SCORE.INTRA.DIHEDRAL.0>
15.4453

>  <SCORE.INTRA.POLAR>
0

>  <SCORE.INTRA.POLAR.0>
0

>  <SCORE.INTRA.REPUL>
-0.823958

>  <SCORE.INTRA.REPUL.0>
0.823958

>  <SCORE.INTRA.SOLV>
0.947348

>  <SCORE.INTRA.SOLV.lig_0>
-99.3069

>  <SCORE.INTRA.VDW>
-1.95687

>  <SCORE.INTRA.VDW.0>
0.946495

>  <SCORE.INTRA.norm>
-0.0258985

>  <SCORE.RESTR>
0.375351

>  <SCORE.RESTR.CAVITY>
0.375351

>  <SCORE.RESTR.norm>
0.00938377

>  <SCORE.SYSTEM>
0

>  <SCORE.SYSTEM.CONST>
0

>  <SCORE.SYSTEM.DIHEDRAL>
0

>  <SCORE.SYSTEM.SOLV>
0

>  <SCORE.SYSTEM.norm>
0

>  <SCORE.heavy>
40

>  <SCORE.norm>
-0.0589029

>  <RMSD>
19.214

$$$$
1ntb_lig
 OpenBabel11021811403D
libRbt.so/2013.1/901 2013/11/27
 40 42  0  0  0  0  0  0  0  0999 V2000
   19.5424   33.4408   -3.0548 C   0  0  0  0  0  0  0  0  0  0  0  0
   19.0524   33.4356   -4.2338 N   0  0  0  0  0  0  0  0  0  0  0  0
   19.9820   25.5804    4.3787 C   0  0  0  0  0  0  0  0  0  0  0  0
   21.1879   26.3250    4.3381 O   0  0  0  0  0  0  0  0  0  0  0  0
   17.0596   27.7020   -2.0348 C   0  0  0  0  0  0  0  0  0  0  0  0
   16.2161   28.1112   -2.9140 N   0  0  0  0  0  0  0  0  0  0  0  0
   17.7978   27.9582    4.7727 C   0  0  0  0  0  0  0  0  0  0  0  0
   17.6815   21.0762    1.6422 C   0  0  0  0  0  0  0  0  0  0  0  0
   19.2036   31.5332   -1.7087 C   0  0  2  0  0  0  0  0  0  0  0  0
   18.7730   32.9263   -2.1148 N   0  0  0  0  0  0  0  0  0  0  0  0
   18.7347   27.3956    1.4319 C   0  0  2  0  0  0  0  0  0  0  0  0
   19.6715   23.9618    1.3801 C   0  0  1  0  0  0  0  0  0  0  0  0
   18.7790   25.0600    1.4162 O   0  0  0  0  0  0  0  0  0  0  0  0
   17.9983   30.6126   -1.5516 C   0  0  1  0  0  0  0  0  0  0  0  0
   17.3166   30.6474   -2.8805 O   0  0  0  0  0  0  0  0  0  0  0  0
   19.3372   26.1344    2.0236 C   0  0  2  0  0  0  0  0  0  0  0  0
   19.0387   22.8501    0.5787 C   0  0  1  0  0  0  0  0  0  0  0  0
   17.8321   22.4341    1.2019 N   0  0  0  0  0  0  0  0  0  0  0  0
   18.3799   29.2005   -1.1122 C   0  0  2  0  0  0  0  0  0  0  0  0
   17.2713   28.2823   -0.9520 N   0  0  0  0  0  0  0  0  0  0  0  0
   18.9531   26.2213    3.4769 C   0  0  1  0  0  0  0  0  0  0  0  0
   17.6735   25.6131    3.6816 O   0  0  0  0  0  0  0  0  0  0  0  0
   18.7410   23.3866   -0.8113 C   0  0  2  0  0  0  0  0  0  0  0  0
   18.1368   22.3867   -1.6024 O   0  0  0  0  0  0  0  0  0  0  0  0
   19.1102   29.3030    0.2016 C   0  0  1  0  0  0  0  0  0  0  0  0
   19.6067   27.9599    0.4582 O   0  0  0  0  0  0  0  0  0  0  0  0
   18.8631   27.6783    3.7445 C   0  0  1  0  0  0  0  0  0  0  0  0
   18.5303   28.3139    2.5082 O   0  0  0  0  0  0  0  0  0  0  0  0
   20.0771   23.8128   -1.4201 C   0  0  1  0  0  0  0  0  0  0  0  0
   19.8810   24.3341   -2.7252 O   0  0  0  0  0  0  0  0  0  0  0  0
   20.3694   30.1975    0.0440 C   0  0  2  0  0  0  0  0  0  0  0  0
   21.0494   30.2690    1.2876 O   0  0  0  0  0  0  0  0  0  0  0  0
   20.7141   24.8745   -0.5229 C   0  0  1  0  0  0  0  0  0  0  0  0
   20.9096   24.3489    0.7889 O   0  0  0  0  0  0  0  0  0  0  0  0
   19.9409   31.6133   -0.3874 C   0  0  1  0  0  0  0  0  0  0  0  0
   21.0926   32.4520   -0.5372 O   0  0  0  0  0  0  0  0  0  0  0  0
   22.0652   25.2776   -1.1141 C   0  0  0  0  0  0  0  0  0  0  0  0
   22.8971   24.1316   -1.1984 O   0  0  0  0  0  0  0  0  0  0  0  0
   20.6997   33.9374   -2.7904 N   0  0  0  0  0  0  0  0  0  0  0  0
   17.6754   26.6389   -2.2279 N   0  0  0  0  0  0  0  0  0  0  0  0
  1  2  1  0  0  0  0
  1 39  1  0  0  0  0
  3  4  1  0  0  0  0
  5  6  1  0  0  0  0
  5 40  1  0  0  0  0
  9 10  1  1  0  0  0
  9 14  1  0  0  0  0
  9 35  1  0  0  0  0
 10  1  1  0  0  0  0
 11 16  1  0  0  0  0
 11 28  1  0  0  0  0
 11 26  1  6  0  0  0
 12 17  1  0  0  0  0
 12 34  1  0  0  0  0
 12 13  1  6  0  0  0
 14 15  1  6  0  0  0
 14 19  1  0  0  0  0
 16 13  1  6  0  0  0
 16 21  1  0  0  0  0
 17 18  1  1  0  0  0
 17 23  1  0  0  0  0
 18  8  1  0  0  0  0
 19 20  1  1  0  0  0
 19 25  1  0  0  0  0
 20  5  1  0  0  0  0
 21  3  1  1  0  0  0
 21 22  1  0  0  0  0
 21 27  1  0  0  0  0
 23 24  1  6  0  0  0
 23 29  1  0  0  0  0
 25 26  1  6  0  0  0
 25 31  1  0  0  0  0
 27  7  1  1  0  0  0
 27 28  1  0  0  0  0
 29 30  1  6  0  0  0
 29 33  1  0  0  0  0
 31 32  1  1  0  0  0
 31 35  1  0  0  0  0
 33 34  1  0  0  0  0
 33 37  1  6  0  0  0
 35 36  1  6  0  0  0
 37 38  1  0  0  0  0
M  END
>  <CHROM.1>
-137.18410916,102.97628116,-166.33072799,-174.66512525,150.55408072,-120.07235260
89.84576086,-93.02952777,66.84196516,-102.52498098,-59.16589905,19.21589692
27.39491464,0.06047165,1.53009190,-1.47819252,-0.41050737

>  <Name>
1ntb_lig

>  <RI>
0

>  <Rbt.Current_Directory>
/home/itssahil/PROJECTS/Mol_Feturizer/New_Systems/rnas/1ntb

>  <Rbt.Executable>
rbdock ($Id: //depot/dev/client3/rdock/2013.1/src/exe/rbdock.cxx#4 $)

>  <Rbt.Library>
libRbt.so (2013.1, Build901 2013/11/27)

>  <Rbt.Parameter_File>
/export/apps/rDock/src/rDock_2013.1_src/data/scripts/dock_solv.prm

>  <Rbt.Receptor>
prm/blind_docking_80.prm

>  <SCORE>
-16.8302

>  <SCORE.INTER>
-7.43201

>  <SCORE.INTER.CONST>
1

>  <SCORE.INTER.POLAR>
0

>  <SCORE.INTER.ROT>
11

>  <SCORE.INTER.SOLV>
20.1421

>  <SCORE.INTER.VDW>
-22.602

>  <SCORE.INTER.norm>
-0.1858

>  <SCORE.INTRA>
-10.0207

>  <SCORE.INTRA.DIHEDRAL>
-1.03914

>  <SCORE.INTRA.DIHEDRAL.0>
15.4453

>  <SCORE.INTRA.POLAR>
0

>  <SCORE.INTRA.POLAR.0>
0

>  <SCORE.INTRA.REPUL>
-0.823958

>  <SCORE.INTRA.REPUL.0>
0.823958

>  <SCORE.INTRA.SOLV>
-0.0566157

>  <SCORE.INTRA.SOLV.lig_0>
-99.3069

>  <SCORE.INTRA.VDW>
-5.35302

>  <SCORE.INTRA.VDW.0>
0.946495

>  <SCORE.INTRA.norm>
-0.250517

>  <SCORE.RESTR>
0.622493

>  <SCORE.RESTR.CAVITY>
0.622493

>  <SCORE.RESTR.norm>
0.0155623

>  <SCORE.SYSTEM>
0

>  <SCORE.SYSTEM.CONST>
0

>  <SCORE.SYSTEM.DIHEDRAL>
0

>  <SCORE.SYSTEM.SOLV>
0

>  <SCORE.SYSTEM.norm>
0

>  <SCORE.heavy>
40

>  <SCORE.norm>
-0.420755

>  <RMSD>
19.261

$$$$
1ntb_lig
 OpenBabel11021811403D
libRbt.so/2013.1/901 2013/11/27
 40 42  0  0  0  0  0  0  0  0999 V2000
   17.8321   33.1954   -2.0930 C   0  0  0  0  0  0  0  0  0  0  0  0
   16.6767   32.6579   -2.0128 N   0  0  0  0  0  0  0  0  0  0  0  0
   20.4442   25.9337    4.0513 C   0  0  0  0  0  0  0  0  0  0  0  0
   20.4198   24.5163    4.0725 O   0  0  0  0  0  0  0  0  0  0  0  0
   17.6748   27.0618   -2.7607 C   0  0  0  0  0  0  0  0  0  0  0  0
   18.3297   27.3551   -3.8271 N   0  0  0  0  0  0  0  0  0  0  0  0
   18.2719   28.3283    4.4085 C   0  0  0  0  0  0  0  0  0  0  0  0
   17.6591   21.0847    2.0827 C   0  0  0  0  0  0  0  0  0  0  0  0
   19.1722   31.2776   -2.3962 C   0  0  2  0  0  0  0  0  0  0  0  0
   18.6778   32.6094   -2.9185 N   0  0  0  0  0  0  0  0  0  0  0  0
   18.8289   27.3679    1.0733 C   0  0  2  0  0  0  0  0  0  0  0  0
   19.8104   23.9495    1.3739 C   0  0  1  0  0  0  0  0  0  0  0  0
   18.9187   25.0482    1.3342 O   0  0  0  0  0  0  0  0  0  0  0  0
   18.0534   30.2416   -2.3950 C   0  0  1  0  0  0  0  0  0  0  0  0
   17.5935   30.1760   -3.8149 O   0  0  0  0  0  0  0  0  0  0  0  0
   19.5212   26.1921    1.7382 C   0  0  2  0  0  0  0  0  0  0  0  0
   19.0833   22.7184    0.8900 C   0  0  1  0  0  0  0  0  0  0  0  0
   17.9835   22.4415    1.7451 N   0  0  0  0  0  0  0  0  0  0  0  0
   18.4962   28.8866   -1.8469 C   0  0  2  0  0  0  0  0  0  0  0  0
   17.4718   27.8630   -1.8275 N   0  0  0  0  0  0  0  0  0  0  0  0
   19.3054   26.4534    3.2053 C   0  0  1  0  0  0  0  0  0  0  0  0
   18.0706   25.8668    3.6300 O   0  0  0  0  0  0  0  0  0  0  0  0
   18.5831   22.9938   -0.5181 C   0  0  2  0  0  0  0  0  0  0  0  0
   17.8844   21.8741   -1.0166 O   0  0  0  0  0  0  0  0  0  0  0  0
   18.9930   29.0934   -0.4396 C   0  0  1  0  0  0  0  0  0  0  0  0
   19.5711   27.8146   -0.0565 O   0  0  0  0  0  0  0  0  0  0  0  0
   19.2171   27.9316    3.3041 C   0  0  1  0  0  0  0  0  0  0  0  0
   18.7312   28.4094    2.0476 O   0  0  0  0  0  0  0  0  0  0  0  0
   19.8129   23.2814   -1.3795 C   0  0  1  0  0  0  0  0  0  0  0  0
   19.4257   23.5562   -2.7168 O   0  0  0  0  0  0  0  0  0  0  0  0
   20.1673   30.1088   -0.4318 C   0  0  2  0  0  0  0  0  0  0  0  0
   20.6289   30.2780    0.8995 O   0  0  0  0  0  0  0  0  0  0  0  0
   20.5586   24.4810   -0.7939 C   0  0  1  0  0  0  0  0  0  0  0  0
   20.9463   24.2033    0.5507 O   0  0  0  0  0  0  0  0  0  0  0  0
   19.6768   31.4629   -0.9796 C   0  0  1  0  0  0  0  0  0  0  0  0
   20.7498   32.4121   -0.9788 O   0  0  0  0  0  0  0  0  0  0  0  0
   21.8061   24.7489   -1.6361 C   0  0  0  0  0  0  0  0  0  0  0  0
   22.4399   25.9283   -1.1674 O   0  0  0  0  0  0  0  0  0  0  0  0
   18.1638   34.2258   -1.3974 N   0  0  0  0  0  0  0  0  0  0  0  0
   17.1581   25.9358   -2.6519 N   0  0  0  0  0  0  0  0  0  0  0  0
  1  2  1  0  0  0  0
  1 39  1  0  0  0  0
  3  4  1  0  0  0  0
  5  6  1  0  0  0  0
  5 40  1  0  0  0  0
  9 10  1  1  0  0  0
  9 14  1  0  0  0  0
  9 35  1  0  0  0  0
 10  1  1  0  0  0  0
 11 16  1  0  0  0  0
 11 28  1  0  0  0  0
 11 26  1  6  0  0  0
 12 17  1  0  0  0  0
 12 34  1  0  0  0  0
 12 13  1  6  0  0  0
 14 15  1  6  0  0  0
 14 19  1  0  0  0  0
 16 13  1  6  0  0  0
 16 21  1  0  0  0  0
 17 18  1  1  0  0  0
 17 23  1  0  0  0  0
 18  8  1  0  0  0  0
 19 20  1  1  0  0  0
 19 25  1  0  0  0  0
 20  5  1  0  0  0  0
 21  3  1  1  0  0  0
 21 22  1  0  0  0  0
 21 27  1  0  0  0  0
 23 24  1  6  0  0  0
 23 29  1  0  0  0  0
 25 26  1  6  0  0  0
 25 31  1  0  0  0  0
 27  7  1  1  0  0  0
 27 28  1  0  0  0  0
 29 30  1  6  0  0  0
 29 33  1  0  0  0  0
 31 32  1  1  0  0  0
 31 35  1  0  0  0  0
 33 34  1  0  0  0  0
 33 37  1  6  0  0  0
 35 36  1  6  0  0  0
 37 38  1  0  0  0  0
M  END
>  <CHROM.1>
69.13813798,-71.60042140,-168.11076057,-179.01141136,152.73220989,-141.20618484
104.12219089,-24.01217641,-70.92383594,-119.35061758,175.06931553,19.08785165
27.21097371,-0.11556715,-2.10406027,1.43006424,-2.96036141

>  <Name>
1ntb_lig

>  <RI>
0

>  <Rbt.Current_Directory>
/home/itssahil/PROJECTS/Mol_Feturizer/New_Systems/rnas/1ntb

>  <Rbt.Executable>
rbdock ($Id: //depot/dev/client3/rdock/2013.1/src/exe/rbdock.cxx#4 $)

>  <Rbt.Library>
libRbt.so (2013.1, Build901 2013/11/27)

>  <Rbt.Parameter_File>
/export/apps/rDock/src/rDock_2013.1_src/data/scripts/dock_solv.prm

>  <Rbt.Receptor>
prm/blind_docking_40.prm

>  <SCORE>
-21.4

>  <SCORE.INTER>
-14.9271

>  <SCORE.INTER.CONST>
1

>  <SCORE.INTER.POLAR>
-1.06875

>  <SCORE.INTER.ROT>
11

>  <SCORE.INTER.SOLV>
14.7432

>  <SCORE.INTER.VDW>
-22.2366

>  <SCORE.INTER.norm>
-0.373176

>  <SCORE.INTRA>
-6.47554

>  <SCORE.INTRA.DIHEDRAL>
-0.904263

>  <SCORE.INTRA.DIHEDRAL.0>
15.4453

>  <SCORE.INTRA.POLAR>
0

>  <SCORE.INTRA.POLAR.0>
0

>  <SCORE.INTRA.REPUL>
-0.823958

>  <SCORE.INTRA.REPUL.0>
0.823958

>  <SCORE.INTRA.SOLV>
1.82989

>  <SCORE.INTRA.SOLV.lig_0>
-99.3069

>  <SCORE.INTRA.VDW>
-2.81857

>  <SCORE.INTRA.VDW.0>
0.946495

>  <SCORE.INTRA.norm>
-0.161889

>  <SCORE.RESTR>
0.00255316

>  <SCORE.RESTR.CAVITY>
0.00255316

>  <SCORE.RESTR.norm>
6.38289e-05

>  <SCORE.SYSTEM>
0

>  <SCORE.SYSTEM.CONST>
0

>  <SCORE.SYSTEM.DIHEDRAL>
0

>  <SCORE.SYSTEM.SOLV>
0

>  <SCORE.SYSTEM.norm>
0

>  <SCORE.heavy>
40

>  <SCORE.norm>
-0.535001

>  <RMSD>
19.268

$$$$
1ntb_lig
 OpenBabel11021811403D
libRbt.so/2013.1/901 2013/11/27
 40 42  0  0  0  0  0  0  0  0999 V2000
   18.5326   32.8577   -3.8834 C   0  0  0  0  0  0  0  0  0  0  0  0
   18.3329   32.0889   -4.8830 N   0  0  0  0  0  0  0  0  0  0  0  0
   20.2787   25.6100    4.0856 C   0  0  0  0  0  0  0  0  0  0  0  0
   20.2686   24.1944    4.0047 O   0  0  0  0  0  0  0  0  0  0  0  0
   17.9656   26.9780   -3.0229 C   0  0  0  0  0  0  0  0  0  0  0  0
   17.1659   26.7993   -4.0132 N   0  0  0  0  0  0  0  0  0  0  0  0
   18.0583   27.9221    4.6366 C   0  0  0  0  0  0  0  0  0  0  0  0
   17.6966   21.1734    1.9910 C   0  0  0  0  0  0  0  0  0  0  0  0
   18.6549   31.2416   -2.1690 C   0  0  2  0  0  0  0  0  0  0  0  0
   17.9858   32.4700   -2.7472 N   0  0  0  0  0  0  0  0  0  0  0  0
   18.6427   27.2613    1.2340 C   0  0  2  0  0  0  0  0  0  0  0  0
   19.6483   23.8158    1.3704 C   0  0  1  0  0  0  0  0  0  0  0  0
   18.7780   24.9300    1.2963 O   0  0  0  0  0  0  0  0  0  0  0  0
   17.7927   30.0011   -2.3758 C   0  0  1  0  0  0  0  0  0  0  0  0
   17.5963   29.9159   -3.8543 O   0  0  0  0  0  0  0  0  0  0  0  0
   19.3566   26.0468    1.7991 C   0  0  2  0  0  0  0  0  0  0  0  0
   19.0512   22.6816    0.5732 C   0  0  1  0  0  0  0  0  0  0  0  0
   17.7952   22.3140    1.1253 N   0  0  0  0  0  0  0  0  0  0  0  0
   18.4127   28.7382   -1.7814 C   0  0  2  0  0  0  0  0  0  0  0  0
   17.6359   27.5281   -1.9540 N   0  0  0  0  0  0  0  0  0  0  0  0
   19.1319   26.1775    3.2821 C   0  0  1  0  0  0  0  0  0  0  0  0
   17.9080   25.5327    3.6500 O   0  0  0  0  0  0  0  0  0  0  0  0
   18.8637   23.1624   -0.8559 C   0  0  2  0  0  0  0  0  0  0  0  0
   18.2967   22.1397   -1.6455 O   0  0  0  0  0  0  0  0  0  0  0  0
   18.6171   28.9696   -0.3067 C   0  0  1  0  0  0  0  0  0  0  0  0
   19.3788   27.8173    0.1496 O   0  0  0  0  0  0  0  0  0  0  0  0
   19.0140   27.6398    3.5064 C   0  0  1  0  0  0  0  0  0  0  0  0
   18.5218   28.2136    2.2932 O   0  0  0  0  0  0  0  0  0  0  0  0
   20.2480   23.5384   -1.3847 C   0  0  1  0  0  0  0  0  0  0  0  0
   20.1556   24.0060   -2.7214 O   0  0  0  0  0  0  0  0  0  0  0  0
   19.5356   30.2009   -0.0818 C   0  0  2  0  0  0  0  0  0  0  0  0
   19.7265   30.3922    1.3114 O   0  0  0  0  0  0  0  0  0  0  0  0
   20.8414   24.6268   -0.4897 C   0  0  1  0  0  0  0  0  0  0  0  0
   20.9328   24.1553    0.8537 O   0  0  0  0  0  0  0  0  0  0  0  0
   18.8698   31.4531   -0.6841 C   0  0  1  0  0  0  0  0  0  0  0  0
   19.7057   32.5994   -0.4846 O   0  0  0  0  0  0  0  0  0  0  0  0
   22.2390   24.9803   -0.9990 C   0  0  0  0  0  0  0  0  0  0  0  0
   22.6611   26.1932   -0.3964 O   0  0  0  0  0  0  0  0  0  0  0  0
   19.2009   33.9532   -3.9777 N   0  0  0  0  0  0  0  0  0  0  0  0
   19.1272   26.5389   -3.0894 N   0  0  0  0  0  0  0  0  0  0  0  0
  1  2  1  0  0  0  0
  1 39  1  0  0  0  0
  3  4  1  0  0  0  0
  5  6  1  0  0  0  0
  5 40  1  0  0  0  0
  9 10  1  1  0  0  0
  9 14  1  0  0  0  0
  9 35  1  0  0  0  0
 10  1  1  0  0  0  0
 11 16  1  0  0  0  0
 11 28  1  0  0  0  0
 11 26  1  6  0  0  0
 12 17  1  0  0  0  0
 12 34  1  0  0  0  0
 12 13  1  6  0  0  0
 14 15  1  6  0  0  0
 14 19  1  0  0  0  0
 16 13  1  6  0  0  0
 16 21  1  0  0  0  0
 17 18  1  1  0  0  0
 17 23  1  0  0  0  0
 18  8  1  0  0  0  0
 19 20  1  1  0  0  0
 19 25  1  0  0  0  0
 20  5  1  0  0  0  0
 21  3  1  1  0  0  0
 21 22  1  0  0  0  0
 21 27  1  0  0  0  0
 23 24  1  6  0  0  0
 23 29  1  0  0  0  0
 25 26  1  6  0  0  0
 25 31  1  0  0  0  0
 27  7  1  1  0  0  0
 27 28  1  0  0  0  0
 29 30  1  6  0  0  0
 29 33  1  0  0  0  0
 31 32  1  1  0  0  0
 31 35  1  0  0  0  0
 33 34  1  0  0  0  0
 33 37  1  6  0  0  0
 35 36  1  6  0  0  0
 37 38  1  0  0  0  0
M  END
>  <CHROM.1>
-104.71358429,69.85277910,-179.62249707,-169.67285689,158.65128708,-99.61537909
89.87300835,-117.19655974,-71.93758844,-125.88233331,165.81760671,19.08101728
27.13664630,-0.23106652,2.74391221,-1.48256453,0.68076444

>  <Name>
1ntb_lig

>  <RI>
0

>  <Rbt.Current_Directory>
/home/itssahil/PROJECTS/Mol_Feturizer/New_Systems/rnas/1ntb

>  <Rbt.Executable>
rbdock ($Id: //depot/dev/client3/rdock/2013.1/src/exe/rbdock.cxx#4 $)

>  <Rbt.Library>
libRbt.so (2013.1, Build901 2013/11/27)

>  <Rbt.Parameter_File>
/export/apps/rDock/src/rDock_2013.1_src/data/scripts/dock_solv.prm

>  <Rbt.Receptor>
prm/blind_docking_80.prm

>  <SCORE>
-26.4502

>  <SCORE.INTER>
-17.5229

>  <SCORE.INTER.CONST>
1

>  <SCORE.INTER.POLAR>
-1.79237

>  <SCORE.INTER.ROT>
11

>  <SCORE.INTER.SOLV>
22.9806

>  <SCORE.INTER.VDW>
-24.3009

>  <SCORE.INTER.norm>
-0.438071

>  <SCORE.INTRA>
-9.74525

>  <SCORE.INTRA.DIHEDRAL>
-1.14158

>  <SCORE.INTRA.DIHEDRAL.0>
15.4453

>  <SCORE.INTRA.POLAR>
0

>  <SCORE.INTRA.POLAR.0>
0

>  <SCORE.INTRA.REPUL>
-0.823958

>  <SCORE.INTRA.REPUL.0>
0.823958

>  <SCORE.INTRA.SOLV>
0.33828

>  <SCORE.INTRA.SOLV.lig_0>
-99.3069

>  <SCORE.INTRA.VDW>
-5.22381

>  <SCORE.INTRA.VDW.0>
0.946495

>  <SCORE.INTRA.norm>
-0.243631

>  <SCORE.RESTR>
0.817912

>  <SCORE.RESTR.CAVITY>
0.817912

>  <SCORE.RESTR.norm>
0.0204478

>  <SCORE.SYSTEM>
0

>  <SCORE.SYSTEM.CONST>
0

>  <SCORE.SYSTEM.DIHEDRAL>
0

>  <SCORE.SYSTEM.SOLV>
0

>  <SCORE.SYSTEM.norm>
0

>  <SCORE.heavy>
40

>  <SCORE.norm>
-0.661255

>  <RMSD>
19.291

$$$$
1ntb_lig
 OpenBabel11021811403D
libRbt.so/2013.1/901 2013/11/27
 40 42  0  0  0  0  0  0  0  0999 V2000
   17.6012   33.0548   -2.2773 C   0  0  0  0  0  0  0  0  0  0  0  0
   17.7981   34.2448   -1.8586 N   0  0  0  0  0  0  0  0  0  0  0  0
   20.2988   25.9670    4.2087 C   0  0  0  0  0  0  0  0  0  0  0  0
   21.3903   26.8719    4.2103 O   0  0  0  0  0  0  0  0  0  0  0  0
   17.7878   27.0716   -2.7982 C   0  0  0  0  0  0  0  0  0  0  0  0
   18.7391   26.2212   -2.9532 N   0  0  0  0  0  0  0  0  0  0  0  0
   18.0655   28.3155    4.4861 C   0  0  0  0  0  0  0  0  0  0  0  0
   17.8184   21.1692    2.3488 C   0  0  0  0  0  0  0  0  0  0  0  0
   19.1299   31.2621   -2.4002 C   0  0  2  0  0  0  0  0  0  0  0  0
   18.5749   32.5359   -3.0004 N   0  0  0  0  0  0  0  0  0  0  0  0
   18.8393   27.4415    1.1706 C   0  0  2  0  0  0  0  0  0  0  0  0
   19.8681   24.0374    1.4415 C   0  0  1  0  0  0  0  0  0  0  0  0
   18.9557   25.1183    1.3855 O   0  0  0  0  0  0  0  0  0  0  0  0
   18.0840   30.1525   -2.4096 C   0  0  1  0  0  0  0  0  0  0  0  0
   17.7019   30.0014   -3.8459 O   0  0  0  0  0  0  0  0  0  0  0  0
   19.5118   26.2626    1.8502 C   0  0  2  0  0  0  0  0  0  0  0  0
   19.1512   22.7768    1.0226 C   0  0  1  0  0  0  0  0  0  0  0  0
   18.0795   22.5127    1.9164 N   0  0  0  0  0  0  0  0  0  0  0  0
   18.5878   28.8530   -1.7851 C   0  0  2  0  0  0  0  0  0  0  0  0
   17.6342   27.7630   -1.7724 N   0  0  0  0  0  0  0  0  0  0  0  0
   19.2035   26.4865    3.3069 C   0  0  1  0  0  0  0  0  0  0  0  0
   17.9564   25.8695    3.6432 O   0  0  0  0  0  0  0  0  0  0  0  0
   18.6094   22.9912   -0.3807 C   0  0  2  0  0  0  0  0  0  0  0  0
   17.9186   21.8418   -0.8191 O   0  0  0  0  0  0  0  0  0  0  0  0
   18.9978   29.1469   -0.3654 C   0  0  1  0  0  0  0  0  0  0  0  0
   19.6397   27.9264    0.0977 O   0  0  0  0  0  0  0  0  0  0  0  0
   19.0824   27.9603    3.4325 C   0  0  1  0  0  0  0  0  0  0  0  0
   18.6642   28.4585    2.1596 O   0  0  0  0  0  0  0  0  0  0  0  0
   19.8109   23.2680   -1.2847 C   0  0  1  0  0  0  0  0  0  0  0  0
   19.3838   23.4863   -2.6203 O   0  0  0  0  0  0  0  0  0  0  0  0
   20.0999   30.2402   -0.3435 C   0  0  2  0  0  0  0  0  0  0  0  0
   20.4812   30.4913    1.0002 O   0  0  0  0  0  0  0  0  0  0  0  0
   20.5494   24.5012   -0.7635 C   0  0  1  0  0  0  0  0  0  0  0  0
   20.9772   24.2802    0.5794 O   0  0  0  0  0  0  0  0  0  0  0  0
   19.5486   31.5355   -0.9699 C   0  0  1  0  0  0  0  0  0  0  0  0
   20.5546   32.5554   -0.9571 O   0  0  0  0  0  0  0  0  0  0  0  0
   21.7694   24.7593   -1.6482 C   0  0  0  0  0  0  0  0  0  0  0  0
   22.6516   23.6519   -1.5595 O   0  0  0  0  0  0  0  0  0  0  0  0
   16.5154   32.4084   -2.0346 N   0  0  0  0  0  0  0  0  0  0  0  0
   16.9914   27.2736   -3.7318 N   0  0  0  0  0  0  0  0  0  0  0  0
  1  2  1  0  0  0  0
  1 39  1  0  0  0  0
  3  4  1  0  0  0  0
  5  6  1  0  0  0  0
  5 40  1  0  0  0  0
  9 10  1  1  0  0  0
  9 14  1  0  0  0  0
  9 35  1  0  0  0  0
 10  1  1  0  0  0  0
 11 16  1  0  0  0  0
 11 28  1  0  0  0  0
 11 26  1  6  0  0  0
 12 17  1  0  0  0  0
 12 34  1  0  0  0  0
 12 13  1  6  0  0  0
 14 15  1  6  0  0  0
 14 19  1  0  0  0  0
 16 13  1  6  0  0  0
 16 21  1  0  0  0  0
 17 18  1  1  0  0  0
 17 23  1  0  0  0  0
 18  8  1  0  0  0  0
 19 20  1  1  0  0  0
 19 25  1  0  0  0  0
 20  5  1  0  0  0  0
 21  3  1  1  0  0  0
 21 22  1  0  0  0  0
 21 27  1  0  0  0  0
 23 24  1  6  0  0  0
 23 29  1  0  0  0  0
 25 26  1  6  0  0  0
 25 31  1  0  0  0  0
 27  7  1  1  0  0  0
 27 28  1  0  0  0  0
 29 30  1  6  0  0  0
 29 33  1  0  0  0  0
 31 32  1  1  0  0  0
 31 35  1  0  0  0  0
 33 34  1  0  0  0  0
 33 37  1  6  0  0  0
 35 36  1  6  0  0  0
 37 38  1  0  0  0  0
M  END
>  <CHROM.1>
65.71381046,121.23372925,-172.75538922,175.23416955,152.08898246,-139.01770847
92.39664248,77.19154465,77.40934482,-116.85365078,-62.37041772,19.09690469
27.23182988,-0.08217508,2.43376972,-1.42834269,0.51816942

>  <Name>
1ntb_lig

>  <RI>
0

>  <Rbt.Current_Directory>
/home/itssahil/PROJECTS/Mol_Feturizer/New_Systems/rnas/1ntb

>  <Rbt.Executable>
rbdock ($Id: //depot/dev/client3/rdock/2013.1/src/exe/rbdock.cxx#4 $)

>  <Rbt.Library>
libRbt.so (2013.1, Build901 2013/11/27)

>  <Rbt.Parameter_File>
/export/apps/rDock/src/rDock_2013.1_src/data/scripts/dock_solv.prm

>  <Rbt.Receptor>
prm/blind_docking_40.prm

>  <SCORE>
-21.3856

>  <SCORE.INTER>
-14.2911

>  <SCORE.INTER.CONST>
1

>  <SCORE.INTER.POLAR>
-1.0692

>  <SCORE.INTER.ROT>
11

>  <SCORE.INTER.SOLV>
14.3521

>  <SCORE.INTER.VDW>
-21.6807

>  <SCORE.INTER.norm>
-0.357277

>  <SCORE.INTRA>
-7.09455

>  <SCORE.INTRA.DIHEDRAL>
-0.732499

>  <SCORE.INTRA.DIHEDRAL.0>
15.4453

>  <SCORE.INTRA.POLAR>
0

>  <SCORE.INTRA.POLAR.0>
0

>  <SCORE.INTRA.REPUL>
-0.823958

>  <SCORE.INTRA.REPUL.0>
0.823958

>  <SCORE.INTRA.SOLV>
2.95394

>  <SCORE.INTRA.SOLV.lig_0>
-99.3069

>  <SCORE.INTRA.VDW>
-4.08548

>  <SCORE.INTRA.VDW.0>
0.946495

>  <SCORE.INTRA.norm>
-0.177364

>  <SCORE.RESTR>
0

>  <SCORE.RESTR.CAVITY>
0

>  <SCORE.RESTR.norm>
0

>  <SCORE.SYSTEM>
0

>  <SCORE.SYSTEM.CONST>
0

>  <SCORE.SYSTEM.DIHEDRAL>
0

>  <SCORE.SYSTEM.SOLV>
0

>  <SCORE.SYSTEM.norm>
0

>  <SCORE.heavy>
40

>  <SCORE.norm>
-0.534641

>  <RMSD>
19.305

$$$$
1ntb_lig
 OpenBabel11021811403D
libRbt.so/2013.1/901 2013/11/27
 40 42  0  0  0  0  0  0  0  0999 V2000
   17.8399   33.2344   -2.1551 C   0  0  0  0  0  0  0  0  0  0  0  0
   16.6572   32.7605   -2.0729 N   0  0  0  0  0  0  0  0  0  0  0  0
   20.3109   25.6683    3.8782 C   0  0  0  0  0  0  0  0  0  0  0  0
   20.0762   25.9023    5.2568 O   0  0  0  0  0  0  0  0  0  0  0  0
   17.4278   27.2771   -2.8999 C   0  0  0  0  0  0  0  0  0  0  0  0
   16.5275   27.4509   -3.8006 N   0  0  0  0  0  0  0  0  0  0  0  0
   18.2629   28.1465    4.3724 C   0  0  0  0  0  0  0  0  0  0  0  0
   17.1147   21.1830    0.7607 C   0  0  0  0  0  0  0  0  0  0  0  0
   19.1472   31.2973   -2.4780 C   0  0  2  0  0  0  0  0  0  0  0  0
   18.6418   32.6229   -3.0055 N   0  0  0  0  0  0  0  0  0  0  0  0
   18.8193   27.3848    0.9863 C   0  0  2  0  0  0  0  0  0  0  0  0
   19.5412   23.8669    1.2491 C   0  0  1  0  0  0  0  0  0  0  0  0
   18.7824   25.0513    1.0893 O   0  0  0  0  0  0  0  0  0  0  0  0
   18.0270   30.2639   -2.4330 C   0  0  1  0  0  0  0  0  0  0  0  0
   17.5297   30.1798   -3.8392 O   0  0  0  0  0  0  0  0  0  0  0  0
   19.4383   26.1313    1.5775 C   0  0  2  0  0  0  0  0  0  0  0  0
   18.9520   22.7923    0.3679 C   0  0  1  0  0  0  0  0  0  0  0  0
   17.6123   22.5293    0.7596 N   0  0  0  0  0  0  0  0  0  0  0  0
   18.4816   28.9156   -1.8780 C   0  0  2  0  0  0  0  0  0  0  0  0
   17.4561   27.8947   -1.8174 N   0  0  0  0  0  0  0  0  0  0  0  0
   19.2142   26.3043    3.0563 C   0  0  1  0  0  0  0  0  0  0  0  0
   17.9438   25.7576    3.4256 O   0  0  0  0  0  0  0  0  0  0  0  0
   18.9792   23.2958   -1.0655 C   0  0  2  0  0  0  0  0  0  0  0  0
   18.4282   22.3297   -1.9337 O   0  0  0  0  0  0  0  0  0  0  0  0
   19.0156   29.1407   -0.4872 C   0  0  1  0  0  0  0  0  0  0  0  0
   19.6013   27.8661   -0.1017 O   0  0  0  0  0  0  0  0  0  0  0  0
   19.2026   27.7750    3.2546 C   0  0  1  0  0  0  0  0  0  0  0  0
   18.7619   28.3620    2.0280 O   0  0  0  0  0  0  0  0  0  0  0  0
   20.4437   23.5561   -1.4185 C   0  0  1  0  0  0  0  0  0  0  0  0
   20.5527   24.0378   -2.7489 O   0  0  0  0  0  0  0  0  0  0  0  0
   20.1916   30.1536   -0.5244 C   0  0  2  0  0  0  0  0  0  0  0  0
   20.6884   30.3402    0.7918 O   0  0  0  0  0  0  0  0  0  0  0  0
   21.0137   24.5848   -0.4414 C   0  0  1  0  0  0  0  0  0  0  0  0
   20.9025   24.0993    0.8954 O   0  0  0  0  0  0  0  0  0  0  0  0
   19.6893   31.5011   -1.0779 C   0  0  1  0  0  0  0  0  0  0  0  0
   20.7637   32.4479   -1.1185 O   0  0  0  0  0  0  0  0  0  0  0  0
   22.4871   24.8215   -0.7739 C   0  0  0  0  0  0  0  0  0  0  0  0
   23.1976   23.6015   -0.6347 O   0  0  0  0  0  0  0  0  0  0  0  0
   18.2371   34.2271   -1.4392 N   0  0  0  0  0  0  0  0  0  0  0  0
   18.3032   26.4105   -3.0710 N   0  0  0  0  0  0  0  0  0  0  0  0
  1  2  1  0  0  0  0
  1 39  1  0  0  0  0
  3  4  1  0  0  0  0
  5  6  1  0  0  0  0
  5 40  1  0  0  0  0
  9 10  1  1  0  0  0
  9 14  1  0  0  0  0
  9 35  1  0  0  0  0
 10  1  1  0  0  0  0
 11 16  1  0  0  0  0
 11 28  1  0  0  0  0
 11 26  1  6  0  0  0
 12 17  1  0  0  0  0
 12 34  1  0  0  0  0
 12 13  1  6  0  0  0
 14 15  1  6  0  0  0
 14 19  1  0  0  0  0
 16 13  1  6  0  0  0
 16 21  1  0  0  0  0
 17 18  1  1  0  0  0
 17 23  1  0  0  0  0
 18  8  1  0  0  0  0
 19 20  1  1  0  0  0
 19 25  1  0  0  0  0
 20  5  1  0  0  0  0
 21  3  1  1  0  0  0
 21 22  1  0  0  0  0
 21 27  1  0  0  0  0
 23 24  1  6  0  0  0
 23 29  1  0  0  0  0
 25 26  1  6  0  0  0
 25 31  1  0  0  0  0
 27  7  1  1  0  0  0
 27 28  1  0  0  0  0
 29 30  1  6  0  0  0
 29 33  1  0  0  0  0
 31 32  1  1  0  0  0
 31 35  1  0  0  0  0
 33 34  1  0  0  0  0
 33 37  1  6  0  0  0
 35 36  1  6  0  0  0
 37 38  1  0  0  0  0
M  END
>  <CHROM.1>
70.39024266,-75.78493780,-173.43786965,-164.56098402,161.54292510,-141.00263498
88.29976706,-103.87129563,177.88748614,-114.77012032,-60.81646710,19.12821535
27.23894184,-0.20730471,-2.34126690,1.39567883,-2.70476434

>  <Name>
1ntb_lig

>  <RI>
0

>  <Rbt.Current_Directory>
/home/itssahil/PROJECTS/Mol_Feturizer/New_Systems/rnas/1ntb

>  <Rbt.Executable>
rbdock ($Id: //depot/dev/client3/rdock/2013.1/src/exe/rbdock.cxx#4 $)

>  <Rbt.Library>
libRbt.so (2013.1, Build901 2013/11/27)

>  <Rbt.Parameter_File>
/export/apps/rDock/src/rDock_2013.1_src/data/scripts/dock_solv.prm

>  <Rbt.Receptor>
prm/blind_docking_40.prm

>  <SCORE>
-24.5647

>  <SCORE.INTER>
-17.0011

>  <SCORE.INTER.CONST>
1

>  <SCORE.INTER.POLAR>
-1.03575

>  <SCORE.INTER.ROT>
11

>  <SCORE.INTER.SOLV>
14.9156

>  <SCORE.INTER.VDW>
-23.7868

>  <SCORE.INTER.norm>
-0.425027

>  <SCORE.INTRA>
-7.56359

>  <SCORE.INTRA.DIHEDRAL>
-2.7262

>  <SCORE.INTRA.DIHEDRAL.0>
15.4453

>  <SCORE.INTRA.POLAR>
0

>  <SCORE.INTRA.POLAR.0>
0

>  <SCORE.INTRA.REPUL>
-0.823958

>  <SCORE.INTRA.REPUL.0>
0.823958

>  <SCORE.INTRA.SOLV>
1.33027

>  <SCORE.INTRA.SOLV.lig_0>
-99.3069

>  <SCORE.INTRA.VDW>
-2.74584

>  <SCORE.INTRA.VDW.0>
0.946495

>  <SCORE.INTRA.norm>
-0.18909

>  <SCORE.RESTR>
0

>  <SCORE.RESTR.CAVITY>
0

>  <SCORE.RESTR.norm>
0

>  <SCORE.SYSTEM>
0

>  <SCORE.SYSTEM.CONST>
0

>  <SCORE.SYSTEM.DIHEDRAL>
0

>  <SCORE.SYSTEM.SOLV>
0

>  <SCORE.SYSTEM.norm>
0

>  <SCORE.heavy>
40

>  <SCORE.norm>
-0.614117

>  <RMSD>
19.318

$$$$
1ntb_lig
 OpenBabel11021811403D
libRbt.so/2013.1/901 2013/11/27
 40 42  0  0  0  0  0  0  0  0999 V2000
   17.5603   32.8181   -2.2729 C   0  0  0  0  0  0  0  0  0  0  0  0
   17.6821   33.9815   -1.7612 N   0  0  0  0  0  0  0  0  0  0  0  0
   20.4448   25.6237    4.0603 C   0  0  0  0  0  0  0  0  0  0  0  0
   20.2306   25.8943    5.4355 O   0  0  0  0  0  0  0  0  0  0  0  0
   17.7831   26.8961   -2.8993 C   0  0  0  0  0  0  0  0  0  0  0  0
   17.0076   26.9379   -3.9234 N   0  0  0  0  0  0  0  0  0  0  0  0
   18.3643   28.0833    4.5091 C   0  0  0  0  0  0  0  0  0  0  0  0
   17.5173   21.0108    2.2051 C   0  0  0  0  0  0  0  0  0  0  0  0
   19.1474   31.0755   -2.3743 C   0  0  2  0  0  0  0  0  0  0  0  0
   18.6102   32.3740   -2.9367 N   0  0  0  0  0  0  0  0  0  0  0  0
   18.8568   27.2032    1.1418 C   0  0  2  0  0  0  0  0  0  0  0  0
   19.6944   23.7302    1.4001 C   0  0  1  0  0  0  0  0  0  0  0  0
   18.8644   24.8750    1.3334 O   0  0  0  0  0  0  0  0  0  0  0  0
   18.0896   29.9785   -2.4256 C   0  0  1  0  0  0  0  0  0  0  0  0
   17.7152   29.8777   -3.8684 O   0  0  0  0  0  0  0  0  0  0  0  0
   19.5116   25.9839    1.7650 C   0  0  2  0  0  0  0  0  0  0  0  0
   18.9262   22.5441    0.8694 C   0  0  1  0  0  0  0  0  0  0  0  0
   17.7757   22.3178    1.6710 N   0  0  0  0  0  0  0  0  0  0  0  0
   18.5752   28.6541   -1.8401 C   0  0  2  0  0  0  0  0  0  0  0  0
   17.6097   27.5749   -1.8682 N   0  0  0  0  0  0  0  0  0  0  0  0
   19.3183   26.2090    3.2412 C   0  0  1  0  0  0  0  0  0  0  0  0
   18.0668   25.6550    3.6605 O   0  0  0  0  0  0  0  0  0  0  0  0
   18.5057   22.8591   -0.5563 C   0  0  2  0  0  0  0  0  0  0  0  0
   17.7725   21.7828   -1.0990 O   0  0  0  0  0  0  0  0  0  0  0  0
   18.9792   28.8979   -0.4092 C   0  0  1  0  0  0  0  0  0  0  0  0
   19.6048   27.6562    0.0184 O   0  0  0  0  0  0  0  0  0  0  0  0
   19.2847   27.6858    3.3843 C   0  0  1  0  0  0  0  0  0  0  0  0
   18.8056   28.2181    2.1472 O   0  0  0  0  0  0  0  0  0  0  0  0
   19.7869   23.0892   -1.3582 C   0  0  1  0  0  0  0  0  0  0  0  0
   19.4758   23.3968   -2.7082 O   0  0  0  0  0  0  0  0  0  0  0  0
   20.0930   29.9776   -0.3456 C   0  0  2  0  0  0  0  0  0  0  0  0
   20.4683   30.1814    1.0078 O   0  0  0  0  0  0  0  0  0  0  0  0
   20.5671   24.2418   -0.7255 C   0  0  1  0  0  0  0  0  0  0  0  0
   20.8783   23.9312    0.6317 O   0  0  0  0  0  0  0  0  0  0  0  0
   19.5599   31.2984   -0.9335 C   0  0  1  0  0  0  0  0  0  0  0  0
   20.5767   32.3062   -0.8819 O   0  0  0  0  0  0  0  0  0  0  0  0
   21.8640   24.4512   -1.5077 C   0  0  0  0  0  0  0  0  0  0  0  0
   22.5950   25.5160   -0.9208 O   0  0  0  0  0  0  0  0  0  0  0  0
   16.4778   32.1298   -2.1727 N   0  0  0  0  0  0  0  0  0  0  0  0
   18.7399   26.1017   -2.8900 N   0  0  0  0  0  0  0  0  0  0  0  0
  1  2  1  0  0  0  0
  1 39  1  0  0  0  0
  3  4  1  0  0  0  0
  5  6  1  0  0  0  0
  5 40  1  0  0  0  0
  9 10  1  1  0  0  0
  9 14  1  0  0  0  0
  9 35  1  0  0  0  0
 10  1  1  0  0  0  0
 11 16  1  0  0  0  0
 11 28  1  0  0  0  0
 11 26  1  6  0  0  0
 12 17  1  0  0  0  0
 12 34  1  0  0  0  0
 12 13  1  6  0  0  0
 14 15  1  6  0  0  0
 14 19  1  0  0  0  0
 16 13  1  6  0  0  0
 16 21  1  0  0  0  0
 17 18  1  1  0  0  0
 17 23  1  0  0  0  0
 18  8  1  0  0  0  0
 19 20  1  1  0  0  0
 19 25  1  0  0  0  0
 20  5  1  0  0  0  0
 21  3  1  1  0  0  0
 21 22  1  0  0  0  0
 21 27  1  0  0  0  0
 23 24  1  6  0  0  0
 23 29  1  0  0  0  0
 25 26  1  6  0  0  0
 25 31  1  0  0  0  0
 27  7  1  1  0  0  0
 27 28  1  0  0  0  0
 29 30  1  6  0  0  0
 29 33  1  0  0  0  0
 31 32  1  1  0  0  0
 31 35  1  0  0  0  0
 33 34  1  0  0  0  0
 33 37  1  6  0  0  0
 35 36  1  6  0  0  0
 37 38  1  0  0  0  0
M  END
>  <CHROM.1>
60.01354310,121.32275403,-174.00389643,-178.39036390,155.89296198,-128.46373351
93.95505407,-105.53884840,178.46725689,-121.54949164,-179.73373886,19.05250067
27.04308016,-0.07271386,2.17343392,-1.41764463,0.21466574

>  <Name>
1ntb_lig

>  <RI>
0

>  <Rbt.Current_Directory>
/home/itssahil/PROJECTS/Mol_Feturizer/New_Systems/rnas/1ntb

>  <Rbt.Executable>
rbdock ($Id: //depot/dev/client3/rdock/2013.1/src/exe/rbdock.cxx#4 $)

>  <Rbt.Library>
libRbt.so (2013.1, Build901 2013/11/27)

>  <Rbt.Parameter_File>
/export/apps/rDock/src/rDock_2013.1_src/data/scripts/dock_solv.prm

>  <Rbt.Receptor>
prm/blind_docking_40.prm

>  <SCORE>
-22.7813

>  <SCORE.INTER>
-13.9791

>  <SCORE.INTER.CONST>
1

>  <SCORE.INTER.POLAR>
-1.02651

>  <SCORE.INTER.ROT>
11

>  <SCORE.INTER.SOLV>
13.4857

>  <SCORE.INTER.VDW>
-21.3262

>  <SCORE.INTER.norm>
-0.349477

>  <SCORE.INTRA>
-8.80796

>  <SCORE.INTRA.DIHEDRAL>
-2.81372

>  <SCORE.INTRA.DIHEDRAL.0>
15.4453

>  <SCORE.INTRA.POLAR>
0

>  <SCORE.INTRA.POLAR.0>
0

>  <SCORE.INTRA.REPUL>
-0.823958

>  <SCORE.INTRA.REPUL.0>
0.823958

>  <SCORE.INTRA.SOLV>
2.23502

>  <SCORE.INTRA.SOLV.lig_0>
-99.3069

>  <SCORE.INTRA.VDW>
-4.39882

>  <SCORE.INTRA.VDW.0>
0.946495

>  <SCORE.INTRA.norm>
-0.220199

>  <SCORE.RESTR>
0.00570302

>  <SCORE.RESTR.CAVITY>
0.00570302

>  <SCORE.RESTR.norm>
0.000142575

>  <SCORE.SYSTEM>
0

>  <SCORE.SYSTEM.CONST>
0

>  <SCORE.SYSTEM.DIHEDRAL>
0

>  <SCORE.SYSTEM.SOLV>
0

>  <SCORE.SYSTEM.norm>
0

>  <SCORE.heavy>
40

>  <SCORE.norm>
-0.569533

>  <RMSD>
19.334

$$$$
1ntb_lig
 OpenBabel11021811403D
libRbt.so/2013.1/901 2013/11/27
 40 42  0  0  0  0  0  0  0  0999 V2000
   18.7897   33.5857   -3.6588 C   0  0  0  0  0  0  0  0  0  0  0  0
   18.3817   33.5887   -4.8686 N   0  0  0  0  0  0  0  0  0  0  0  0
   20.4916   25.5510    3.5439 C   0  0  0  0  0  0  0  0  0  0  0  0
   20.1083   25.3093    4.8874 O   0  0  0  0  0  0  0  0  0  0  0  0
   17.9375   27.4440   -3.2569 C   0  0  0  0  0  0  0  0  0  0  0  0
   19.0852   27.4378   -3.8354 N   0  0  0  0  0  0  0  0  0  0  0  0
   18.2517   27.7808    4.3127 C   0  0  0  0  0  0  0  0  0  0  0  0
   17.1602   21.3757    0.9573 C   0  0  0  0  0  0  0  0  0  0  0  0
   18.7540   31.6477   -2.3139 C   0  0  2  0  0  0  0  0  0  0  0  0
   18.0536   32.8943   -2.8101 N   0  0  0  0  0  0  0  0  0  0  0  0
   18.8741   27.4864    0.8657 C   0  0  2  0  0  0  0  0  0  0  0  0
   19.7449   23.9693    0.9268 C   0  0  1  0  0  0  0  0  0  0  0  0
   19.0230   25.1623    0.6827 O   0  0  0  0  0  0  0  0  0  0  0  0
   17.8721   30.4169   -2.4936 C   0  0  1  0  0  0  0  0  0  0  0  0
   17.5723   30.3734   -3.9565 O   0  0  0  0  0  0  0  0  0  0  0  0
   19.5897   26.2226    1.3068 C   0  0  2  0  0  0  0  0  0  0  0  0
   19.0338   22.8255    0.2451 C   0  0  1  0  0  0  0  0  0  0  0  0
   17.7266   22.6828    0.7818 N   0  0  0  0  0  0  0  0  0  0  0  0
   18.5245   29.1356   -1.9788 C   0  0  2  0  0  0  0  0  0  0  0  0
   17.7302   27.9339   -2.1294 N   0  0  0  0  0  0  0  0  0  0  0  0
   19.3494   26.1946    2.7929 C   0  0  1  0  0  0  0  0  0  0  0  0
   18.1259   25.5084    3.0775 O   0  0  0  0  0  0  0  0  0  0  0  0
   18.9487   23.1450   -1.2379 C   0  0  2  0  0  0  0  0  0  0  0  0
   18.2812   22.1085   -1.9240 O   0  0  0  0  0  0  0  0  0  0  0  0
   18.8329   29.3253   -0.5162 C   0  0  1  0  0  0  0  0  0  0  0  0
   19.6176   28.1576   -0.1460 O   0  0  0  0  0  0  0  0  0  0  0  0
   19.2204   27.6244    3.1691 C   0  0  1  0  0  0  0  0  0  0  0  0
   18.7369   28.3208    2.0183 O   0  0  0  0  0  0  0  0  0  0  0  0
   20.3836   23.2834   -1.7470 C   0  0  1  0  0  0  0  0  0  0  0  0
   20.3884   23.5899   -3.1326 O   0  0  0  0  0  0  0  0  0  0  0  0
   19.7722   30.5461   -0.3227 C   0  0  2  0  0  0  0  0  0  0  0  0
   20.0612   30.6981    1.0584 O   0  0  0  0  0  0  0  0  0  0  0  0
   21.0825   24.3946   -0.9630 C   0  0  1  0  0  0  0  0  0  0  0  0
   21.0759   24.0851    0.4296 O   0  0  0  0  0  0  0  0  0  0  0  0
   19.0735   31.8172   -0.8425 C   0  0  1  0  0  0  0  0  0  0  0  0
   19.9281   32.9541   -0.6708 O   0  0  0  0  0  0  0  0  0  0  0  0
   22.5272   24.5116   -1.4495 C   0  0  0  0  0  0  0  0  0  0  0  0
   22.5288   24.8755   -2.8206 O   0  0  0  0  0  0  0  0  0  0  0  0
   19.8354   34.2336   -3.2813 N   0  0  0  0  0  0  0  0  0  0  0  0
   16.9486   26.9879   -3.8575 N   0  0  0  0  0  0  0  0  0  0  0  0
  1  2  1  0  0  0  0
  1 39  1  0  0  0  0
  3  4  1  0  0  0  0
  5  6  1  0  0  0  0
  5 40  1  0  0  0  0
  9 10  1  1  0  0  0
  9 14  1  0  0  0  0
  9 35  1  0  0  0  0
 10  1  1  0  0  0  0
 11 16  1  0  0  0  0
 11 28  1  0  0  0  0
 11 26  1  6  0  0  0
 12 17  1  0  0  0  0
 12 34  1  0  0  0  0
 12 13  1  6  0  0  0
 14 15  1  6  0  0  0
 14 19  1  0  0  0  0
 16 13  1  6  0  0  0
 16 21  1  0  0  0  0
 17 18  1  1  0  0  0
 17 23  1  0  0  0  0
 18  8  1  0  0  0  0
 19 20  1  1  0  0  0
 19 25  1  0  0  0  0
 20  5  1  0  0  0  0
 21  3  1  1  0  0  0
 21 22  1  0  0  0  0
 21 27  1  0  0  0  0
 23 24  1  6  0  0  0
 23 29  1  0  0  0  0
 25 26  1  6  0  0  0
 25 31  1  0  0  0  0
 27  7  1  1  0  0  0
 27 28  1  0  0  0  0
 29 30  1  6  0  0  0
 29 33  1  0  0  0  0
 31 32  1  1  0  0  0
 31 35  1  0  0  0  0
 33 34  1  0  0  0  0
 33 37  1  6  0  0  0
 35 36  1  6  0  0  0
 37 38  1  0  0  0  0
M  END
>  <CHROM.1>
-128.13728426,110.70193463,178.60980450,178.02855688,173.00585011,-143.07292229
87.01019223,37.46804873,-168.46416274,-119.15855986,62.31569766,19.19905175
27.33917286,-0.55025303,3.04717819,-1.49948919,1.09563680

>  <Name>
1ntb_lig

>  <RI>
0

>  <Rbt.Current_Directory>
/home/itssahil/PROJECTS/Mol_Feturizer/New_Systems/rnas/1ntb

>  <Rbt.Executable>
rbdock ($Id: //depot/dev/client3/rdock/2013.1/src/exe/rbdock.cxx#4 $)

>  <Rbt.Library>
libRbt.so (2013.1, Build901 2013/11/27)

>  <Rbt.Parameter_File>
/export/apps/rDock/src/rDock_2013.1_src/data/scripts/dock_solv.prm

>  <Rbt.Receptor>
prm/blind_docking_60.prm

>  <SCORE>
-26.2956

>  <SCORE.INTER>
-16.9775

>  <SCORE.INTER.CONST>
1

>  <SCORE.INTER.POLAR>
-2.35448

>  <SCORE.INTER.ROT>
11

>  <SCORE.INTER.SOLV>
24.7645

>  <SCORE.INTER.VDW>
-22.6582

>  <SCORE.INTER.norm>
-0.424437

>  <SCORE.INTRA>
-11.2163

>  <SCORE.INTRA.DIHEDRAL>
-3.651

>  <SCORE.INTRA.DIHEDRAL.0>
15.4453

>  <SCORE.INTRA.POLAR>
0

>  <SCORE.INTRA.POLAR.0>
0

>  <SCORE.INTRA.REPUL>
-0.815079

>  <SCORE.INTRA.REPUL.0>
0.823958

>  <SCORE.INTRA.SOLV>
-2.54271

>  <SCORE.INTRA.SOLV.lig_0>
-99.3069

>  <SCORE.INTRA.VDW>
-4.04404

>  <SCORE.INTRA.VDW.0>
0.946495

>  <SCORE.INTRA.norm>
-0.280407

>  <SCORE.RESTR>
1.89818

>  <SCORE.RESTR.CAVITY>
1.89818

>  <SCORE.RESTR.norm>
0.0474545

>  <SCORE.SYSTEM>
0

>  <SCORE.SYSTEM.CONST>
0

>  <SCORE.SYSTEM.DIHEDRAL>
0

>  <SCORE.SYSTEM.SOLV>
0

>  <SCORE.SYSTEM.norm>
0

>  <SCORE.heavy>
40

>  <SCORE.norm>
-0.65739

>  <RMSD>
19.339

$$$$
1ntb_lig
 OpenBabel11021811403D
libRbt.so/2013.1/901 2013/11/27
 40 42  0  0  0  0  0  0  0  0999 V2000
   18.4412   33.7418   -3.0547 C   0  0  0  0  0  0  0  0  0  0  0  0
   18.4815   33.5874   -4.3215 N   0  0  0  0  0  0  0  0  0  0  0  0
   20.4807   25.4187    3.5959 C   0  0  0  0  0  0  0  0  0  0  0  0
   20.3583   25.4788    5.0072 O   0  0  0  0  0  0  0  0  0  0  0  0
   18.2517   27.3575   -3.1572 C   0  0  0  0  0  0  0  0  0  0  0  0
   19.5067   27.4809   -3.4062 N   0  0  0  0  0  0  0  0  0  0  0  0
   18.3566   27.6839    4.5637 C   0  0  0  0  0  0  0  0  0  0  0  0
   17.0449   21.3464    0.9367 C   0  0  0  0  0  0  0  0  0  0  0  0
   18.4140   31.6626   -1.9402 C   0  0  2  0  0  0  0  0  0  0  0  0
   17.6678   32.8962   -2.4012 N   0  0  0  0  0  0  0  0  0  0  0  0
   18.6719   27.3952    1.0748 C   0  0  2  0  0  0  0  0  0  0  0  0
   19.4424   23.8516    1.1122 C   0  0  1  0  0  0  0  0  0  0  0  0
   18.7624   25.0697    0.8719 O   0  0  0  0  0  0  0  0  0  0  0  0
   17.6574   30.3935   -2.3168 C   0  0  1  0  0  0  0  0  0  0  0  0
   17.5102   30.4643   -3.8017 O   0  0  0  0  0  0  0  0  0  0  0  0
   19.4002   26.1168    1.4478 C   0  0  2  0  0  0  0  0  0  0  0  0
   18.8966   22.8001    0.1767 C   0  0  1  0  0  0  0  0  0  0  0  0
   17.5124   22.6043    0.4276 N   0  0  0  0  0  0  0  0  0  0  0  0
   18.3568   29.1203   -1.8454 C   0  0  2  0  0  0  0  0  0  0  0  0
   17.6819   27.8837   -2.1813 N   0  0  0  0  0  0  0  0  0  0  0  0
   19.2894   26.0860    2.9491 C   0  0  1  0  0  0  0  0  0  0  0  0
   18.0831   25.4201    3.3368 O   0  0  0  0  0  0  0  0  0  0  0  0
   19.0966   23.2916   -1.2471 C   0  0  2  0  0  0  0  0  0  0  0  0
   18.5927   22.3468   -2.1659 O   0  0  0  0  0  0  0  0  0  0  0  0
   18.5007   29.1954   -0.3474 C   0  0  1  0  0  0  0  0  0  0  0  0
   19.3366   28.0581    0.0044 O   0  0  0  0  0  0  0  0  0  0  0  0
   19.2193   27.5160    3.3398 C   0  0  1  0  0  0  0  0  0  0  0  0
   18.6503   28.2263    2.2376 O   0  0  0  0  0  0  0  0  0  0  0  0
   20.6008   23.4790   -1.4466 C   0  0  1  0  0  0  0  0  0  0  0  0
   20.8703   23.9456   -2.7594 O   0  0  0  0  0  0  0  0  0  0  0  0
   19.3137   30.4575    0.0481 C   0  0  2  0  0  0  0  0  0  0  0  0
   19.4495   30.5013    1.4601 O   0  0  0  0  0  0  0  0  0  0  0  0
   21.1153   24.4862   -0.4176 C   0  0  1  0  0  0  0  0  0  0  0  0
   20.8427   24.0160    0.9014 O   0  0  0  0  0  0  0  0  0  0  0  0
   18.5696   31.7177   -0.4340 C   0  0  1  0  0  0  0  0  0  0  0  0
   19.3076   32.8923   -0.0762 O   0  0  0  0  0  0  0  0  0  0  0  0
   22.6250   24.6497   -0.5956 C   0  0  0  0  0  0  0  0  0  0  0  0
   23.2611   23.4077   -0.3405 O   0  0  0  0  0  0  0  0  0  0  0  0
   19.0900   34.6754   -2.4521 N   0  0  0  0  0  0  0  0  0  0  0  0
   17.5315   26.7247   -3.9495 N   0  0  0  0  0  0  0  0  0  0  0  0
  1  2  1  0  0  0  0
  1 39  1  0  0  0  0
  3  4  1  0  0  0  0
  5  6  1  0  0  0  0
  5 40  1  0  0  0  0
  9 10  1  1  0  0  0
  9 14  1  0  0  0  0
  9 35  1  0  0  0  0
 10  1  1  0  0  0  0
 11 16  1  0  0  0  0
 11 28  1  0  0  0  0
 11 26  1  6  0  0  0
 12 17  1  0  0  0  0
 12 34  1  0  0  0  0
 12 13  1  6  0  0  0
 14 15  1  6  0  0  0
 14 19  1  0  0  0  0
 16 13  1  6  0  0  0
 16 21  1  0  0  0  0
 17 18  1  1  0  0  0
 17 23  1  0  0  0  0
 18  8  1  0  0  0  0
 19 20  1  1  0  0  0
 19 25  1  0  0  0  0
 20  5  1  0  0  0  0
 21  3  1  1  0  0  0
 21 22  1  0  0  0  0
 21 27  1  0  0  0  0
 23 24  1  6  0  0  0
 23 29  1  0  0  0  0
 25 26  1  6  0  0  0
 25 31  1  0  0  0  0
 27  7  1  1  0  0  0
 27 28  1  0  0  0  0
 29 30  1  6  0  0  0
 29 33  1  0  0  0  0
 31 32  1  1  0  0  0
 31 35  1  0  0  0  0
 33 34  1  0  0  0  0
 33 37  1  1  0  0  0
 35 36  1  6  0  0  0
 37 38  1  0  0  0  0
M  END
>  <CHROM.1>
-130.90304310,91.49885651,175.18340539,-165.88533906,176.28883807,-114.57501453
102.11546964,30.51403978,176.98415580,-130.93943432,-62.59842362,19.12368787
27.29239234,-0.24338380,2.99276083,-1.43293880,1.07994988

>  <Name>
1ntb_lig

>  <RI>
0

>  <Rbt.Current_Directory>
/home/itssahil/PROJECTS/Mol_Feturizer/New_Systems/rnas/1ntb

>  <Rbt.Executable>
rbdock ($Id: //depot/dev/client3/rdock/2013.1/src/exe/rbdock.cxx#4 $)

>  <Rbt.Library>
libRbt.so (2013.1, Build901 2013/11/27)

>  <Rbt.Parameter_File>
/export/apps/rDock/src/rDock_2013.1_src/data/scripts/dock_solv.prm

>  <Rbt.Receptor>
prm/blind_docking_100.prm

>  <SCORE>
-28.2687

>  <SCORE.INTER>
-18.2218

>  <SCORE.INTER.CONST>
1

>  <SCORE.INTER.POLAR>
-1.58934

>  <SCORE.INTER.ROT>
11

>  <SCORE.INTER.SOLV>
22.0504

>  <SCORE.INTER.VDW>
-25.1335

>  <SCORE.INTER.norm>
-0.455544

>  <SCORE.INTRA>
-10.2784

>  <SCORE.INTRA.DIHEDRAL>
-3.11952

>  <SCORE.INTRA.DIHEDRAL.0>
15.4453

>  <SCORE.INTRA.POLAR>
0

>  <SCORE.INTRA.POLAR.0>
0

>  <SCORE.INTRA.REPUL>
-0.823958

>  <SCORE.INTRA.REPUL.0>
0.823958

>  <SCORE.INTRA.SOLV>
-2.62644

>  <SCORE.INTRA.SOLV.lig_0>
-99.3069

>  <SCORE.INTRA.VDW>
-3.28563

>  <SCORE.INTRA.VDW.0>
0.946495

>  <SCORE.INTRA.norm>
-0.25696

>  <SCORE.RESTR>
0.231446

>  <SCORE.RESTR.CAVITY>
0.231446

>  <SCORE.RESTR.norm>
0.00578614

>  <SCORE.SYSTEM>
0

>  <SCORE.SYSTEM.CONST>
0

>  <SCORE.SYSTEM.DIHEDRAL>
0

>  <SCORE.SYSTEM.SOLV>
0

>  <SCORE.SYSTEM.norm>
0

>  <SCORE.heavy>
40

>  <SCORE.norm>
-0.706718

>  <RMSD>
19.345

$$$$
1ntb_lig
 OpenBabel11021811403D
libRbt.so/2013.1/901 2013/11/27
 40 42  0  0  0  0  0  0  0  0999 V2000
   17.2030   33.4105   -2.3186 C   0  0  0  0  0  0  0  0  0  0  0  0
   17.5281   34.0178   -3.3936 N   0  0  0  0  0  0  0  0  0  0  0  0
   22.3320   24.4176   -1.9875 C   0  0  0  0  0  0  0  0  0  0  0  0
   22.3092   25.0930   -3.2339 O   0  0  0  0  0  0  0  0  0  0  0  0
   19.0495   28.8158    1.8149 C   0  0  0  0  0  0  0  0  0  0  0  0
   18.0044   28.2123    2.2569 N   0  0  0  0  0  0  0  0  0  0  0  0
   23.1471   26.9394   -0.1017 C   0  0  0  0  0  0  0  0  0  0  0  0
   18.4445   25.1521   -3.7158 C   0  0  0  0  0  0  0  0  0  0  0  0
   17.9757   31.3178   -1.5508 C   0  0  2  0  0  0  0  0  0  0  0  0
   18.1899   32.8105   -1.6813 N   0  0  0  0  0  0  0  0  0  0  0  0
   19.6924   26.6099   -0.6605 C   0  0  2  0  0  0  0  0  0  0  0  0
   18.1474   24.0986   -0.9195 C   0  0  1  0  0  0  0  0  0  0  0  0
   19.4746   24.2922   -0.4664 O   0  0  0  0  0  0  0  0  0  0  0  0
   18.8775   30.7285   -0.4717 C   0  0  1  0  0  0  0  0  0  0  0  0
   18.5245   31.4785    0.7711 O   0  0  0  0  0  0  0  0  0  0  0  0
   20.1105   25.2483   -1.1849 C   0  0  2  0  0  0  0  0  0  0  0  0
   18.1807   23.2441   -2.1634 C   0  0  1  0  0  0  0  0  0  0  0  0
   18.9162   23.9058   -3.1825 N   0  0  0  0  0  0  0  0  0  0  0  0
   18.7195   29.2167   -0.3229 C   0  0  2  0  0  0  0  0  0  0  0  0
   19.5511   28.6054    0.6932 N   0  0  0  0  0  0  0  0  0  0  0  0
   21.5975   25.2330   -0.9490 C   0  0  1  0  0  0  0  0  0  0  0  0
   21.8797   24.7291    0.3608 O   0  0  0  0  0  0  0  0  0  0  0  0
   18.8581   21.9307   -1.8107 C   0  0  2  0  0  0  0  0  0  0  0  0
   18.9248   21.0946   -2.9452 O   0  0  0  0  0  0  0  0  0  0  0  0
   19.0417   28.5819   -1.6508 C   0  0  1  0  0  0  0  0  0  0  0  0
   18.6860   27.1805   -1.4903 O   0  0  0  0  0  0  0  0  0  0  0  0
   21.9954   26.6603   -1.0324 C   0  0  1  0  0  0  0  0  0  0  0  0
   20.8579   27.4376   -0.6516 O   0  0  0  0  0  0  0  0  0  0  0  0
   18.0170   21.2757   -0.7148 C   0  0  1  0  0  0  0  0  0  0  0  0
   18.5918   20.0385   -0.3242 O   0  0  0  0  0  0  0  0  0  0  0  0
   18.0962   29.1359   -2.7506 C   0  0  2  0  0  0  0  0  0  0  0  0
   18.4067   28.5153   -3.9886 O   0  0  0  0  0  0  0  0  0  0  0  0
   17.9440   22.2206    0.4851 C   0  0  1  0  0  0  0  0  0  0  0  0
   17.3667   23.4641    0.0904 O   0  0  0  0  0  0  0  0  0  0  0  0
   18.2950   30.6586   -2.8772 C   0  0  1  0  0  0  0  0  0  0  0  0
   17.4288   31.1857   -3.8893 O   0  0  0  0  0  0  0  0  0  0  0  0
   17.0763   21.5801    1.5687 C   0  0  0  0  0  0  0  0  0  0  0  0
   15.8331   21.1962    1.0033 O   0  0  0  0  0  0  0  0  0  0  0  0
   15.9895   33.3618   -1.8932 N   0  0  0  0  0  0  0  0  0  0  0  0
   19.5798   29.7037    2.5056 N   0  0  0  0  0  0  0  0  0  0  0  0
  1  2  1  0  0  0  0
  1 39  1  0  0  0  0
  3  4  1  0  0  0  0
  5  6  1  0  0  0  0
  5 40  1  0  0  0  0
  9 10  1  6  0  0  0
  9 14  1  0  0  0  0
  9 35  1  0  0  0  0
 10  1  1  0  0  0  0
 11 16  1  0  0  0  0
 11 28  1  0  0  0  0
 11 26  1  6  0  0  0
 12 17  1  0  0  0  0
 12 34  1  0  0  0  0
 12 13  1  1  0  0  0
 14 15  1  1  0  0  0
 14 19  1  0  0  0  0
 16 13  1  1  0  0  0
 16 21  1  0  0  0  0
 17 18  1  6  0  0  0
 17 23  1  0  0  0  0
 18  8  1  0  0  0  0
 19 20  1  1  0  0  0
 19 25  1  0  0  0  0
 20  5  1  0  0  0  0
 21  3  1  6  0  0  0
 21 22  1  0  0  0  0
 21 27  1  0  0  0  0
 23 24  1  6  0  0  0
 23 29  1  0  0  0  0
 25 26  1  1  0  0  0
 25 31  1  0  0  0  0
 27  7  1  1  0  0  0
 27 28  1  0  0  0  0
 29 30  1  1  0  0  0
 29 33  1  0  0  0  0
 31 32  1  6  0  0  0
 31 35  1  0  0  0  0
 33 34  1  0  0  0  0
 33 37  1  1  0  0  0
 35 36  1  6  0  0  0
 37 38  1  0  0  0  0
M  END
>  <CHROM.1>
-162.59620079,-119.62862805,-137.31775692,79.17680645,80.68580813,-63.57925630
77.96156627,74.39915172,70.78387037,-73.42902330,-52.43979320,18.97652959
26.75889609,-1.07771820,1.67031445,0.71409938,-0.15629959

>  <Name>
1ntb_lig

>  <RI>
0

>  <Rbt.Current_Directory>
/home/itssahil/PROJECTS/Mol_Feturizer/New_Systems/rnas/1ntb

>  <Rbt.Executable>
rbdock ($Id: //depot/dev/client3/rdock/2013.1/src/exe/rbdock.cxx#4 $)

>  <Rbt.Library>
libRbt.so (2013.1, Build901 2013/11/27)

>  <Rbt.Parameter_File>
/export/apps/rDock/src/rDock_2013.1_src/data/scripts/dock_solv.prm

>  <Rbt.Receptor>
prm/blind_docking_80.prm

>  <SCORE>
22.6264

>  <SCORE.INTER>
9.13398

>  <SCORE.INTER.CONST>
1

>  <SCORE.INTER.POLAR>
-1.59033

>  <SCORE.INTER.ROT>
11

>  <SCORE.INTER.SOLV>
26.8891

>  <SCORE.INTER.VDW>
-8.50594

>  <SCORE.INTER.norm>
0.22835

>  <SCORE.INTRA>
7.49043

>  <SCORE.INTRA.DIHEDRAL>
-2.67795

>  <SCORE.INTRA.DIHEDRAL.0>
15.4453

>  <SCORE.INTRA.POLAR>
0

>  <SCORE.INTRA.POLAR.0>
0

>  <SCORE.INTRA.REPUL>
-0.53572

>  <SCORE.INTRA.REPUL.0>
0.823958

>  <SCORE.INTRA.SOLV>
1.49951

>  <SCORE.INTRA.SOLV.lig_0>
-99.3069

>  <SCORE.INTRA.VDW>
10.7582

>  <SCORE.INTRA.VDW.0>
0.946495

>  <SCORE.INTRA.norm>
0.187261

>  <SCORE.RESTR>
6.00202

>  <SCORE.RESTR.CAVITY>
6.00202

>  <SCORE.RESTR.norm>
0.15005

>  <SCORE.SYSTEM>
0

>  <SCORE.SYSTEM.CONST>
0

>  <SCORE.SYSTEM.DIHEDRAL>
0

>  <SCORE.SYSTEM.SOLV>
0

>  <SCORE.SYSTEM.norm>
0

>  <SCORE.heavy>
40

>  <SCORE.norm>
0.565661

>  <RMSD>
19.356

$$$$
1ntb_lig
 OpenBabel11021811403D
libRbt.so/2013.1/901 2013/11/27
 40 42  0  0  0  0  0  0  0  0999 V2000
   17.5035   33.3163   -1.7941 C   0  0  0  0  0  0  0  0  0  0  0  0
   16.3285   32.8358   -1.9309 N   0  0  0  0  0  0  0  0  0  0  0  0
   20.4880   25.4001    3.5481 C   0  0  0  0  0  0  0  0  0  0  0  0
   20.3418   25.5196    4.9533 O   0  0  0  0  0  0  0  0  0  0  0  0
   17.6447   27.4074   -3.1713 C   0  0  0  0  0  0  0  0  0  0  0  0
   18.5086   26.4814   -3.3911 N   0  0  0  0  0  0  0  0  0  0  0  0
   18.4818   27.8280    4.3610 C   0  0  0  0  0  0  0  0  0  0  0  0
   16.9856   21.2311    0.6989 C   0  0  0  0  0  0  0  0  0  0  0  0
   18.9701   31.5184   -2.2213 C   0  0  2  0  0  0  0  0  0  0  0  0
   18.4083   32.8604   -2.6389 N   0  0  0  0  0  0  0  0  0  0  0  0
   18.7997   27.3140    0.8983 C   0  0  2  0  0  0  0  0  0  0  0  0
   19.4328   23.7512    1.0690 C   0  0  1  0  0  0  0  0  0  0  0  0
   18.7679   24.9790    0.8355 O   0  0  0  0  0  0  0  0  0  0  0  0
   17.9266   30.4173   -2.3749 C   0  0  1  0  0  0  0  0  0  0  0  0
   17.5351   30.4619   -3.8160 O   0  0  0  0  0  0  0  0  0  0  0  0
   19.4572   26.0238    1.3532 C   0  0  2  0  0  0  0  0  0  0  0  0
   18.8800   22.7138    0.1220 C   0  0  1  0  0  0  0  0  0  0  0  0
   17.4924   22.5317    0.3642 N   0  0  0  0  0  0  0  0  0  0  0  0
   18.4375   29.0464   -1.9365 C   0  0  2  0  0  0  0  0  0  0  0  0
   17.4864   27.9619   -2.0661 N   0  0  0  0  0  0  0  0  0  0  0  0
   19.3371   26.0890    2.8526 C   0  0  1  0  0  0  0  0  0  0  0  0
   18.0951   25.5120    3.2692 O   0  0  0  0  0  0  0  0  0  0  0  0
   19.0929   23.2147   -1.2966 C   0  0  2  0  0  0  0  0  0  0  0  0
   18.5831   22.2834   -2.2257 O   0  0  0  0  0  0  0  0  0  0  0  0
   18.8564   29.1456   -0.4926 C   0  0  1  0  0  0  0  0  0  0  0  0
   19.5042   27.8754   -0.2041 O   0  0  0  0  0  0  0  0  0  0  0  0
   19.3408   27.5416    3.1566 C   0  0  1  0  0  0  0  0  0  0  0  0
   18.8161   28.2134    2.0092 O   0  0  0  0  0  0  0  0  0  0  0  0
   20.6001   23.3867   -1.4868 C   0  0  1  0  0  0  0  0  0  0  0  0
   20.8817   23.8610   -2.7943 O   0  0  0  0  0  0  0  0  0  0  0  0
   19.9563   30.2291   -0.3292 C   0  0  2  0  0  0  0  0  0  0  0  0
   20.3461   30.2962    1.0338 O   0  0  0  0  0  0  0  0  0  0  0  0
   21.1207   24.3794   -0.4469 C   0  0  1  0  0  0  0  0  0  0  0  0
   20.8360   23.9015    0.8668 O   0  0  0  0  0  0  0  0  0  0  0  0
   19.3979   31.5960   -0.7699 C   0  0  1  0  0  0  0  0  0  0  0  0
   20.4017   32.6078   -0.6248 O   0  0  0  0  0  0  0  0  0  0  0  0
   22.6330   24.5273   -0.6158 C   0  0  0  0  0  0  0  0  0  0  0  0
   23.2562   23.2834   -0.3389 O   0  0  0  0  0  0  0  0  0  0  0  0
   17.7976   34.1704   -0.8778 N   0  0  0  0  0  0  0  0  0  0  0  0
   16.9498   27.8298   -4.1122 N   0  0  0  0  0  0  0  0  0  0  0  0
  1  2  1  0  0  0  0
  1 39  1  0  0  0  0
  3  4  1  0  0  0  0
  5  6  1  0  0  0  0
  5 40  1  0  0  0  0
  9 10  1  1  0  0  0
  9 14  1  0  0  0  0
  9 35  1  0  0  0  0
 10  1  1  0  0  0  0
 11 16  1  0  0  0  0
 11 28  1  0  0  0  0
 11 26  1  6  0  0  0
 12 17  1  0  0  0  0
 12 34  1  0  0  0  0
 12 13  1  6  0  0  0
 14 15  1  6  0  0  0
 14 19  1  0  0  0  0
 16 13  1  6  0  0  0
 16 21  1  0  0  0  0
 17 18  1  1  0  0  0
 17 23  1  0  0  0  0
 18  8  1  0  0  0  0
 19 20  1  1  0  0  0
 19 25  1  0  0  0  0
 20  5  1  0  0  0  0
 21  3  1  1  0  0  0
 21 22  1  0  0  0  0
 21 27  1  0  0  0  0
 23 24  1  6  0  0  0
 23 29  1  0  0  0  0
 25 26  1  6  0  0  0
 25 31  1  0  0  0  0
 27  7  1  1  0  0  0
 27 28  1  0  0  0  0
 29 30  1  6  0  0  0
 29 33  1  0  0  0  0
 31 32  1  1  0  0  0
 31 35  1  0  0  0  0
 33 34  1  0  0  0  0
 33 37  1  1  0  0  0
 35 36  1  6  0  0  0
 37 38  1  0  0  0  0
M  END
>  <CHROM.1>
70.12207846,-81.10009317,-175.87654666,-162.12219386,171.95604791,-122.36877525
93.14168083,84.87816602,178.58853418,-123.11364989,-63.87570395,19.11543898
27.19536785,-0.23378239,-2.42606463,1.34638038,-2.56863608

>  <Name>
1ntb_lig

>  <RI>
0

>  <Rbt.Current_Directory>
/home/itssahil/PROJECTS/Mol_Feturizer/New_Systems/rnas/1ntb

>  <Rbt.Executable>
rbdock ($Id: //depot/dev/client3/rdock/2013.1/src/exe/rbdock.cxx#4 $)

>  <Rbt.Library>
libRbt.so (2013.1, Build901 2013/11/27)

>  <Rbt.Parameter_File>
/export/apps/rDock/src/rDock_2013.1_src/data/scripts/dock_solv.prm

>  <Rbt.Receptor>
prm/blind_docking_100.prm

>  <SCORE>
-22.24

>  <SCORE.INTER>
-14.8505

>  <SCORE.INTER.CONST>
1

>  <SCORE.INTER.POLAR>
-1.09545

>  <SCORE.INTER.ROT>
11

>  <SCORE.INTER.SOLV>
18.6932

>  <SCORE.INTER.VDW>
-23.4132

>  <SCORE.INTER.norm>
-0.371262

>  <SCORE.INTRA>
-7.67983

>  <SCORE.INTRA.DIHEDRAL>
-2.94415

>  <SCORE.INTRA.DIHEDRAL.0>
15.4453

>  <SCORE.INTRA.POLAR>
0

>  <SCORE.INTRA.POLAR.0>
0

>  <SCORE.INTRA.REPUL>
-0.823958

>  <SCORE.INTRA.REPUL.0>
0.823958

>  <SCORE.INTRA.SOLV>
0.705519

>  <SCORE.INTRA.SOLV.lig_0>
-99.3069

>  <SCORE.INTRA.VDW>
-2.44073

>  <SCORE.INTRA.VDW.0>
0.946495

>  <SCORE.INTRA.norm>
-0.191996

>  <SCORE.RESTR>
0.290343

>  <SCORE.RESTR.CAVITY>
0.290343

>  <SCORE.RESTR.norm>
0.00725857

>  <SCORE.SYSTEM>
0

>  <SCORE.SYSTEM.CONST>
0

>  <SCORE.SYSTEM.DIHEDRAL>
0

>  <SCORE.SYSTEM.SOLV>
0

>  <SCORE.SYSTEM.norm>
0

>  <SCORE.heavy>
40

>  <SCORE.norm>
-0.555999

>  <RMSD>
19.364

$$$$
1ntb_lig
 OpenBabel11021811403D
libRbt.so/2013.1/901 2013/11/27
 40 42  0  0  0  0  0  0  0  0999 V2000
   17.8830   33.2787   -2.0847 C   0  0  0  0  0  0  0  0  0  0  0  0
   16.7151   32.7721   -1.9872 N   0  0  0  0  0  0  0  0  0  0  0  0
   20.3302   25.6427    3.8522 C   0  0  0  0  0  0  0  0  0  0  0  0
   20.1103   25.8913    5.2306 O   0  0  0  0  0  0  0  0  0  0  0  0
   17.6552   27.1462   -2.7758 C   0  0  0  0  0  0  0  0  0  0  0  0
   18.6385   26.3218   -2.8495 N   0  0  0  0  0  0  0  0  0  0  0  0
   18.2780   28.1136    4.3654 C   0  0  0  0  0  0  0  0  0  0  0  0
   17.0866   21.1994    0.7534 C   0  0  0  0  0  0  0  0  0  0  0  0
   19.1921   31.3466   -2.4303 C   0  0  2  0  0  0  0  0  0  0  0  0
   18.6940   32.6829   -2.9377 N   0  0  0  0  0  0  0  0  0  0  0  0
   18.8406   27.3830    0.9734 C   0  0  2  0  0  0  0  0  0  0  0  0
   19.5478   23.8574    1.2453 C   0  0  1  0  0  0  0  0  0  0  0  0
   18.8069   25.0487    1.0556 O   0  0  0  0  0  0  0  0  0  0  0  0
   18.0672   30.3175   -2.4057 C   0  0  1  0  0  0  0  0  0  0  0  0
   17.5741   30.2585   -3.8147 O   0  0  0  0  0  0  0  0  0  0  0  0
   19.4605   26.1252    1.5543 C   0  0  2  0  0  0  0  0  0  0  0  0
   18.9555   22.7755    0.3751 C   0  0  1  0  0  0  0  0  0  0  0  0
   17.6076   22.5368    0.7541 N   0  0  0  0  0  0  0  0  0  0  0  0
   18.5142   28.9584   -1.8714 C   0  0  2  0  0  0  0  0  0  0  0  0
   17.4841   27.9411   -1.8308 N   0  0  0  0  0  0  0  0  0  0  0  0
   19.2339   26.2845    3.0343 C   0  0  1  0  0  0  0  0  0  0  0  0
   17.9637   25.7328    3.3967 O   0  0  0  0  0  0  0  0  0  0  0  0
   19.0074   23.2537   -1.0661 C   0  0  2  0  0  0  0  0  0  0  0  0
   18.4546   22.2800   -1.9246 O   0  0  0  0  0  0  0  0  0  0  0  0
   19.0447   29.1584   -0.4754 C   0  0  1  0  0  0  0  0  0  0  0  0
   19.6236   27.8751   -0.1090 O   0  0  0  0  0  0  0  0  0  0  0  0
   19.2199   27.7534    3.2458 C   0  0  1  0  0  0  0  0  0  0  0  0
   18.7803   28.3507    2.0238 O   0  0  0  0  0  0  0  0  0  0  0  0
   20.4796   23.4887   -1.4048 C   0  0  1  0  0  0  0  0  0  0  0  0
   20.6117   23.9459   -2.7417 O   0  0  0  0  0  0  0  0  0  0  0  0
   20.2251   30.1666   -0.4924 C   0  0  2  0  0  0  0  0  0  0  0  0
   20.7185   30.3295    0.8283 O   0  0  0  0  0  0  0  0  0  0  0  0
   21.0508   24.5266   -0.4383 C   0  0  1  0  0  0  0  0  0  0  0  0
   20.9164   24.0658    0.9052 O   0  0  0  0  0  0  0  0  0  0  0  0
   19.7305   31.5252   -1.0253 C   0  0  1  0  0  0  0  0  0  0  0  0
   20.8091   32.4677   -1.0471 O   0  0  0  0  0  0  0  0  0  0  0  0
   22.5313   24.7382   -0.7559 C   0  0  0  0  0  0  0  0  0  0  0  0
   23.2414   23.5404   -0.4849 O   0  0  0  0  0  0  0  0  0  0  0  0
   18.2585   34.2884   -1.3811 N   0  0  0  0  0  0  0  0  0  0  0  0
   16.8417   27.2116   -3.7142 N   0  0  0  0  0  0  0  0  0  0  0  0
  1  2  1  0  0  0  0
  1 39  1  0  0  0  0
  3  4  1  0  0  0  0
  5  6  1  0  0  0  0
  5 40  1  0  0  0  0
  9 10  1  1  0  0  0
  9 14  1  0  0  0  0
  9 35  1  0  0  0  0
 10  1  1  0  0  0  0
 11 16  1  0  0  0  0
 11 28  1  0  0  0  0
 11 26  1  6  0  0  0
 12 17  1  0  0  0  0
 12 34  1  0  0  0  0
 12 13  1  6  0  0  0
 14 15  1  6  0  0  0
 14 19  1  0  0  0  0
 16 13  1  6  0  0  0
 16 21  1  0  0  0  0
 17 18  1  1  0  0  0
 17 23  1  0  0  0  0
 18  8  1  0  0  0  0
 19 20  1  1  0  0  0
 19 25  1  0  0  0  0
 20  5  1  0  0  0  0
 21  3  1  1  0  0  0
 21 22  1  0  0  0  0
 21 27  1  0  0  0  0
 23 24  1  6  0  0  0
 23 29  1  0  0  0  0
 25 26  1  6  0  0  0
 25 31  1  0  0  0  0
 27  7  1  1  0  0  0
 27 28  1  0  0  0  0
 29 30  1  6  0  0  0
 29 33  1  0  0  0  0
 31 32  1  1  0  0  0
 31 35  1  0  0  0  0
 33 34  1  0  0  0  0
 33 37  1  6  0  0  0
 35 36  1  6  0  0  0
 37 38  1  0  0  0  0
M  END
>  <CHROM.1>
69.85075578,-73.16291231,-172.89838116,-165.62931966,163.47284906,-141.90027671
103.67815814,69.18794227,176.50142203,-115.08914657,-65.40362283,19.17565076
27.22409117,-0.18220678,2.37830053,-1.40981614,0.49487740

>  <Name>
1ntb_lig

>  <RI>
0

>  <Rbt.Current_Directory>
/home/itssahil/PROJECTS/Mol_Feturizer/New_Systems/rnas/1ntb

>  <Rbt.Executable>
rbdock ($Id: //depot/dev/client3/rdock/2013.1/src/exe/rbdock.cxx#4 $)

>  <Rbt.Library>
libRbt.so (2013.1, Build901 2013/11/27)

>  <Rbt.Parameter_File>
/export/apps/rDock/src/rDock_2013.1_src/data/scripts/dock_solv.prm

>  <Rbt.Receptor>
prm/blind_docking_40.prm

>  <SCORE>
-24.5034

>  <SCORE.INTER>
-17.1657

>  <SCORE.INTER.CONST>
1

>  <SCORE.INTER.POLAR>
-1.07901

>  <SCORE.INTER.ROT>
11

>  <SCORE.INTER.SOLV>
14.2504

>  <SCORE.INTER.VDW>
-23.5306

>  <SCORE.INTER.norm>
-0.429142

>  <SCORE.INTRA>
-7.36541

>  <SCORE.INTRA.DIHEDRAL>
-2.25117

>  <SCORE.INTRA.DIHEDRAL.0>
15.4453

>  <SCORE.INTRA.POLAR>
0

>  <SCORE.INTRA.POLAR.0>
0

>  <SCORE.INTRA.REPUL>
-0.823958

>  <SCORE.INTRA.REPUL.0>
0.823958

>  <SCORE.INTRA.SOLV>
2.11804

>  <SCORE.INTRA.SOLV.lig_0>
-99.3069

>  <SCORE.INTRA.VDW>
-3.17905

>  <SCORE.INTRA.VDW.0>
0.946495

>  <SCORE.INTRA.norm>
-0.184135

>  <SCORE.RESTR>
0.0276668

>  <SCORE.RESTR.CAVITY>
0.0276668

>  <SCORE.RESTR.norm>
0.000691669

>  <SCORE.SYSTEM>
0

>  <SCORE.SYSTEM.CONST>
0

>  <SCORE.SYSTEM.DIHEDRAL>
0

>  <SCORE.SYSTEM.SOLV>
0

>  <SCORE.SYSTEM.norm>
0

>  <SCORE.heavy>
40

>  <SCORE.norm>
-0.612586

>  <RMSD>
19.364

$$$$
1ntb_lig
 OpenBabel11021811403D
libRbt.so/2013.1/901 2013/11/27
 40 42  0  0  0  0  0  0  0  0999 V2000
   18.5359   30.9499   -3.2658 C   0  0  0  0  0  0  0  0  0  0  0  0
   18.9586   32.1534   -3.2093 N   0  0  0  0  0  0  0  0  0  0  0  0
   20.4918   24.7479    4.4526 C   0  0  0  0  0  0  0  0  0  0  0  0
   20.7673   23.6858    3.5546 O   0  0  0  0  0  0  0  0  0  0  0  0
   21.7090   28.6978    1.8715 C   0  0  0  0  0  0  0  0  0  0  0  0
   22.3250   28.3394    0.8018 N   0  0  0  0  0  0  0  0  0  0  0  0
   17.7883   25.4940    6.1001 C   0  0  0  0  0  0  0  0  0  0  0  0
   18.2506   21.6231    1.2105 C   0  0  0  0  0  0  0  0  0  0  0  0
   18.9551   30.0011   -1.1469 C   0  0  2  0  0  0  0  0  0  0  0  0
   19.2677   30.0576   -2.6268 N   0  0  0  0  0  0  0  0  0  0  0  0
   18.2881   27.4133    3.1980 C   0  0  2  0  0  0  0  0  0  0  0  0
   20.0618   24.8682    1.3269 C   0  0  1  0  0  0  0  0  0  0  0  0
   19.0314   25.7471    1.7391 O   0  0  0  0  0  0  0  0  0  0  0  0
   20.2347   29.9448   -0.3196 C   0  0  1  0  0  0  0  0  0  0  0  0
   20.9937   31.1715   -0.7081 O   0  0  0  0  0  0  0  0  0  0  0  0
   19.3316   26.3479    2.9153 C   0  0  2  0  0  0  0  0  0  0  0  0
   19.4402   23.7031    0.5956 C   0  0  1  0  0  0  0  0  0  0  0  0
   18.5652   23.0001    1.4659 N   0  0  0  0  0  0  0  0  0  0  0  0
   19.9704   29.8560    1.1820 C   0  0  2  0  0  0  0  0  0  0  0  0
   21.1535   29.8044    2.0159 N   0  0  0  0  0  0  0  0  0  0  0  0
   19.1838   25.4068    4.0813 C   0  0  1  0  0  0  0  0  0  0  0  0
   18.1992   24.4111    3.7842 O   0  0  0  0  0  0  0  0  0  0  0  0
   18.6580   24.2549   -0.5843 C   0  0  2  0  0  0  0  0  0  0  0  0
   18.0457   23.2042   -1.2995 O   0  0  0  0  0  0  0  0  0  0  0  0
   19.1500   28.6183    1.4380 C   0  0  1  0  0  0  0  0  0  0  0  0
   18.7766   28.7021    2.8414 O   0  0  0  0  0  0  0  0  0  0  0  0
   18.7039   26.2699    5.1891 C   0  0  1  0  0  0  0  0  0  0  0  0
   17.9963   27.3614    4.5964 O   0  0  0  0  0  0  0  0  0  0  0  0
   19.6570   24.9944   -1.4745 C   0  0  1  0  0  0  0  0  0  0  0  0
   18.9976   25.5474   -2.6029 O   0  0  0  0  0  0  0  0  0  0  0  0
   17.8197   28.6854    0.6405 C   0  0  2  0  0  0  0  0  0  0  0  0
   17.0570   27.5185    0.9066 O   0  0  0  0  0  0  0  0  0  0  0  0
   20.3195   26.1053   -0.6593 C   0  0  1  0  0  0  0  0  0  0  0  0
   20.9811   25.5476    0.4750 O   0  0  0  0  0  0  0  0  0  0  0  0
   18.1296   28.7617   -0.8669 C   0  0  1  0  0  0  0  0  0  0  0  0
   16.9110   28.8241   -1.6175 O   0  0  0  0  0  0  0  0  0  0  0  0
   21.3419   26.8243   -1.5397 C   0  0  0  0  0  0  0  0  0  0  0  0
   22.3120   25.8898   -1.9848 O   0  0  0  0  0  0  0  0  0  0  0  0
   17.4802   30.6192   -3.9229 N   0  0  0  0  0  0  0  0  0  0  0  0
   21.6013   27.8922    2.8129 N   0  0  0  0  0  0  0  0  0  0  0  0
  1  2  1  0  0  0  0
  1 39  1  0  0  0  0
  3  4  1  0  0  0  0
  5  6  1  0  0  0  0
  5 40  1  0  0  0  0
  9 10  1  6  0  0  0
  9 14  1  0  0  0  0
  9 35  1  0  0  0  0
 10  1  1  0  0  0  0
 11 16  1  0  0  0  0
 11 28  1  0  0  0  0
 11 26  1  1  0  0  0
 12 17  1  0  0  0  0
 12 34  1  0  0  0  0
 12 13  1  6  0  0  0
 14 15  1  1  0  0  0
 14 19  1  0  0  0  0
 16 13  1  6  0  0  0
 16 21  1  0  0  0  0
 17 18  1  1  0  0  0
 17 23  1  0  0  0  0
 18  8  1  0  0  0  0
 19 20  1  1  0  0  0
 19 25  1  0  0  0  0
 20  5  1  0  0  0  0
 21  3  1  1  0  0  0
 21 22  1  0  0  0  0
 21 27  1  0  0  0  0
 23 24  1  6  0  0  0
 23 29  1  0  0  0  0
 25 26  1  1  0  0  0
 25 31  1  0  0  0  0
 27  7  1  1  0  0  0
 27 28  1  0  0  0  0
 29 30  1  6  0  0  0
 29 33  1  0  0  0  0
 31 32  1  6  0  0  0
 31 35  1  0  0  0  0
 33 34  1  0  0  0  0
 33 37  1  6  0  0  0
 35 36  1  6  0  0  0
 37 38  1  0  0  0  0
M  END
>  <CHROM.1>
-135.58450845,82.68760112,56.62157572,146.72587640,172.08633256,-156.57073353
-70.88165054,70.54553812,-78.78030152,-166.20373441,-59.30424977,19.37502558
27.03270990,0.78833525,1.19796041,-1.51424266,-1.12642342

>  <Name>
1ntb_lig

>  <RI>
0

>  <Rbt.Current_Directory>
/home/itssahil/PROJECTS/Mol_Feturizer/New_Systems/rnas/1ntb

>  <Rbt.Executable>
rbdock ($Id: //depot/dev/client3/rdock/2013.1/src/exe/rbdock.cxx#4 $)

>  <Rbt.Library>
libRbt.so (2013.1, Build901 2013/11/27)

>  <Rbt.Parameter_File>
/export/apps/rDock/src/rDock_2013.1_src/data/scripts/dock_solv.prm

>  <Rbt.Receptor>
prm/blind_docking_80.prm

>  <SCORE>
6.10327

>  <SCORE.INTER>
9.34852

>  <SCORE.INTER.CONST>
1

>  <SCORE.INTER.POLAR>
-1.64246

>  <SCORE.INTER.ROT>
11

>  <SCORE.INTER.SOLV>
23.6635

>  <SCORE.INTER.VDW>
-7.11395

>  <SCORE.INTER.norm>
0.233713

>  <SCORE.INTRA>
-3.25187

>  <SCORE.INTRA.DIHEDRAL>
-5.96354

>  <SCORE.INTRA.DIHEDRAL.0>
15.4453

>  <SCORE.INTRA.POLAR>
0

>  <SCORE.INTRA.POLAR.0>
0

>  <SCORE.INTRA.REPUL>
-0.823958

>  <SCORE.INTRA.REPUL.0>
0.823958

>  <SCORE.INTRA.SOLV>
9.84427

>  <SCORE.INTRA.SOLV.lig_0>
-99.3069

>  <SCORE.INTRA.VDW>
-1.07245

>  <SCORE.INTRA.VDW.0>
0.946495

>  <SCORE.INTRA.norm>
-0.0812968

>  <SCORE.RESTR>
0.00663044

>  <SCORE.RESTR.CAVITY>
0.00663044

>  <SCORE.RESTR.norm>
0.000165761

>  <SCORE.SYSTEM>
0

>  <SCORE.SYSTEM.CONST>
0

>  <SCORE.SYSTEM.DIHEDRAL>
0

>  <SCORE.SYSTEM.SOLV>
0

>  <SCORE.SYSTEM.norm>
0

>  <SCORE.heavy>
40

>  <SCORE.norm>
0.152582

>  <RMSD>
19.378

$$$$
1ntb_lig
 OpenBabel11021811403D
libRbt.so/2013.1/901 2013/11/27
 40 42  0  0  0  0  0  0  0  0999 V2000
   18.5236   33.4427   -3.3438 C   0  0  0  0  0  0  0  0  0  0  0  0
   19.0700   34.4721   -2.8222 N   0  0  0  0  0  0  0  0  0  0  0  0
   20.3718   25.3672    3.7740 C   0  0  0  0  0  0  0  0  0  0  0  0
   20.2208   23.9587    3.7124 O   0  0  0  0  0  0  0  0  0  0  0  0
   18.2861   27.2065   -3.1009 C   0  0  0  0  0  0  0  0  0  0  0  0
   17.7456   27.2431   -4.2665 N   0  0  0  0  0  0  0  0  0  0  0  0
   18.2259   27.6547    4.6357 C   0  0  0  0  0  0  0  0  0  0  0  0
   17.0866   21.2088    0.8441 C   0  0  0  0  0  0  0  0  0  0  0  0
   18.5179   31.5027   -2.0013 C   0  0  2  0  0  0  0  0  0  0  0  0
   17.7827   32.7158   -2.5296 N   0  0  0  0  0  0  0  0  0  0  0  0
   18.6848   27.3377    1.1652 C   0  0  2  0  0  0  0  0  0  0  0  0
   19.4723   23.8009    1.1917 C   0  0  1  0  0  0  0  0  0  0  0  0
   18.7665   25.0102    0.9829 O   0  0  0  0  0  0  0  0  0  0  0  0
   17.7639   30.2195   -2.3325 C   0  0  1  0  0  0  0  0  0  0  0  0
   17.6410   30.2234   -3.8213 O   0  0  0  0  0  0  0  0  0  0  0  0
   19.3874   26.0570    1.5775 C   0  0  2  0  0  0  0  0  0  0  0  0
   18.9260   22.7534    0.2521 C   0  0  1  0  0  0  0  0  0  0  0  0
   17.5508   22.5297    0.5278 N   0  0  0  0  0  0  0  0  0  0  0  0
   18.4521   28.9674   -1.7927 C   0  0  2  0  0  0  0  0  0  0  0  0
   17.7792   27.7183   -2.0835 N   0  0  0  0  0  0  0  0  0  0  0  0
   19.2137   26.0381    3.0731 C   0  0  1  0  0  0  0  0  0  0  0  0
   17.9872   25.3837    3.4146 O   0  0  0  0  0  0  0  0  0  0  0  0
   19.0885   23.2685   -1.1681 C   0  0  2  0  0  0  0  0  0  0  0  0
   18.5825   22.3282   -2.0902 O   0  0  0  0  0  0  0  0  0  0  0  0
   18.5718   29.1098   -0.2975 C   0  0  1  0  0  0  0  0  0  0  0  0
   19.3987   27.9878    0.1189 O   0  0  0  0  0  0  0  0  0  0  0  0
   19.1378   27.4714    3.4502 C   0  0  1  0  0  0  0  0  0  0  0  0
   18.6208   28.1776    2.3201 O   0  0  0  0  0  0  0  0  0  0  0  0
   20.5848   23.4854   -1.3949 C   0  0  1  0  0  0  0  0  0  0  0  0
   20.8195   23.9752   -2.7059 O   0  0  0  0  0  0  0  0  0  0  0  0
   19.3818   30.3868    0.0538 C   0  0  2  0  0  0  0  0  0  0  0  0
   19.4948   30.4941    1.4644 O   0  0  0  0  0  0  0  0  0  0  0  0
   21.1025   24.4867   -0.3619 C   0  0  1  0  0  0  0  0  0  0  0  0
   20.8650   23.9930    0.9554 O   0  0  0  0  0  0  0  0  0  0  0  0
   18.6492   31.6255   -0.4968 C   0  0  1  0  0  0  0  0  0  0  0  0
   19.3845   32.8135   -0.1804 O   0  0  0  0  0  0  0  0  0  0  0  0
   22.6052   24.6794   -0.5677 C   0  0  0  0  0  0  0  0  0  0  0  0
   23.2747   23.4629   -0.2772 O   0  0  0  0  0  0  0  0  0  0  0  0
   18.7009   33.1165   -4.5758 N   0  0  0  0  0  0  0  0  0  0  0  0
   19.3516   26.5853   -2.9413 N   0  0  0  0  0  0  0  0  0  0  0  0
  1  2  1  0  0  0  0
  1 39  1  0  0  0  0
  3  4  1  0  0  0  0
  5  6  1  0  0  0  0
  5 40  1  0  0  0  0
  9 10  1  1  0  0  0
  9 14  1  0  0  0  0
  9 35  1  0  0  0  0
 10  1  1  0  0  0  0
 11 16  1  0  0  0  0
 11 28  1  0  0  0  0
 11 26  1  6  0  0  0
 12 17  1  0  0  0  0
 12 34  1  0  0  0  0
 12 13  1  6  0  0  0
 14 15  1  6  0  0  0
 14 19  1  0  0  0  0
 16 13  1  6  0  0  0
 16 21  1  0  0  0  0
 17 18  1  1  0  0  0
 17 23  1  0  0  0  0
 18  8  1  0  0  0  0
 19 20  1  1  0  0  0
 19 25  1  0  0  0  0
 20  5  1  0  0  0  0
 21  3  1  1  0  0  0
 21 22  1  0  0  0  0
 21 27  1  0  0  0  0
 23 24  1  6  0  0  0
 23 29  1  0  0  0  0
 25 26  1  6  0  0  0
 25 31  1  0  0  0  0
 27  7  1  1  0  0  0
 27 28  1  0  0  0  0
 29 30  1  6  0  0  0
 29 33  1  0  0  0  0
 31 32  1  1  0  0  0
 31 35  1  0  0  0  0
 33 34  1  0  0  0  0
 33 37  1  6  0  0  0
 35 36  1  6  0  0  0
 37 38  1  0  0  0  0
M  END
>  <CHROM.1>
-123.02099423,-98.94790218,173.85998873,-166.77501068,172.67487404,-123.43596043
96.11187986,-102.49017968,-80.30862196,-128.26483936,-65.54384253,19.14331531
27.15988803,-0.25892625,-3.00446672,-1.44688595,1.34338048

>  <Name>
1ntb_lig

>  <RI>
0

>  <Rbt.Current_Directory>
/home/itssahil/PROJECTS/Mol_Feturizer/New_Systems/rnas/1ntb

>  <Rbt.Executable>
rbdock ($Id: //depot/dev/client3/rdock/2013.1/src/exe/rbdock.cxx#4 $)

>  <Rbt.Library>
libRbt.so (2013.1, Build901 2013/11/27)

>  <Rbt.Parameter_File>
/export/apps/rDock/src/rDock_2013.1_src/data/scripts/dock_solv.prm

>  <Rbt.Receptor>
prm/blind_docking_100.prm

>  <SCORE>
-26.1669

>  <SCORE.INTER>
-16.1334

>  <SCORE.INTER.CONST>
1

>  <SCORE.INTER.POLAR>
-1.09545

>  <SCORE.INTER.ROT>
11

>  <SCORE.INTER.SOLV>
23.4722

>  <SCORE.INTER.VDW>
-25.8615

>  <SCORE.INTER.norm>
-0.403334

>  <SCORE.INTRA>
-10.1553

>  <SCORE.INTRA.DIHEDRAL>
-1.87761

>  <SCORE.INTRA.DIHEDRAL.0>
15.4453

>  <SCORE.INTRA.POLAR>
0

>  <SCORE.INTRA.POLAR.0>
0

>  <SCORE.INTRA.REPUL>
-0.823958

>  <SCORE.INTRA.REPUL.0>
0.823958

>  <SCORE.INTRA.SOLV>
0.374901

>  <SCORE.INTRA.SOLV.lig_0>
-99.3069

>  <SCORE.INTRA.VDW>
-5.2842

>  <SCORE.INTRA.VDW.0>
0.946495

>  <SCORE.INTRA.norm>
-0.253884

>  <SCORE.RESTR>
0.121853

>  <SCORE.RESTR.CAVITY>
0.121853

>  <SCORE.RESTR.norm>
0.00304633

>  <SCORE.SYSTEM>
0

>  <SCORE.SYSTEM.CONST>
0

>  <SCORE.SYSTEM.DIHEDRAL>
0

>  <SCORE.SYSTEM.SOLV>
0

>  <SCORE.SYSTEM.norm>
0

>  <SCORE.heavy>
40

>  <SCORE.norm>
-0.654172

>  <RMSD>
19.384

$$$$
1ntb_lig
 OpenBabel11021811403D
libRbt.so/2013.1/901 2013/11/27
 40 42  0  0  0  0  0  0  0  0999 V2000
   19.7126   33.8981   -1.2153 C   0  0  0  0  0  0  0  0  0  0  0  0
   18.7015   34.3975   -1.8138 N   0  0  0  0  0  0  0  0  0  0  0  0
   20.3205   25.8060    3.5015 C   0  0  0  0  0  0  0  0  0  0  0  0
   20.0722   24.4151    3.6209 O   0  0  0  0  0  0  0  0  0  0  0  0
   17.0616   29.5601   -2.8881 C   0  0  0  0  0  0  0  0  0  0  0  0
   17.6282   29.3778   -4.0273 N   0  0  0  0  0  0  0  0  0  0  0  0
   18.3518   28.3540    3.9623 C   0  0  0  0  0  0  0  0  0  0  0  0
   17.0014   21.3843    0.6973 C   0  0  0  0  0  0  0  0  0  0  0  0
   20.5215   31.7871   -1.8902 C   0  0  2  0  0  0  0  0  0  0  0  0
   20.5942   33.2957   -1.9900 N   0  0  0  0  0  0  0  0  0  0  0  0
   18.8344   27.4921    0.5889 C   0  0  2  0  0  0  0  0  0  0  0  0
   19.4138   23.9531    1.0235 C   0  0  1  0  0  0  0  0  0  0  0  0
   18.7326   25.1640    0.7518 O   0  0  0  0  0  0  0  0  0  0  0  0
   19.0744   31.3072   -1.9083 C   0  0  1  0  0  0  0  0  0  0  0  0
   18.5144   31.8338   -3.1893 O   0  0  0  0  0  0  0  0  0  0  0  0
   19.4264   26.2364    1.2027 C   0  0  2  0  0  0  0  0  0  0  0  0
   18.8799   22.8809    0.1048 C   0  0  1  0  0  0  0  0  0  0  0  0
   17.4940   22.6861    0.3467 N   0  0  0  0  0  0  0  0  0  0  0  0
   18.9475   29.7907   -1.7792 C   0  0  2  0  0  0  0  0  0  0  0  0
   17.5922   29.2802   -1.7954 N   0  0  0  0  0  0  0  0  0  0  0  0
   19.2299   26.4527    2.6798 C   0  0  1  0  0  0  0  0  0  0  0  0
   17.9502   25.9523    3.0813 O   0  0  0  0  0  0  0  0  0  0  0  0
   19.0920   23.3435   -1.3268 C   0  0  2  0  0  0  0  0  0  0  0  0
   18.5995   22.3785   -2.2306 O   0  0  0  0  0  0  0  0  0  0  0  0
   19.5992   29.3774   -0.4851 C   0  0  1  0  0  0  0  0  0  0  0  0
   19.6131   27.9233   -0.5222 O   0  0  0  0  0  0  0  0  0  0  0  0
   19.2633   27.9276    2.8408 C   0  0  1  0  0  0  0  0  0  0  0  0
   18.8208   28.4962    1.6062 O   0  0  0  0  0  0  0  0  0  0  0  0
   20.5974   23.5315   -1.5159 C   0  0  1  0  0  0  0  0  0  0  0  0
   20.8780   23.9717   -2.8355 O   0  0  0  0  0  0  0  0  0  0  0  0
   21.0886   29.8155   -0.4738 C   0  0  2  0  0  0  0  0  0  0  0  0
   21.6865   29.4046    0.7459 O   0  0  0  0  0  0  0  0  0  0  0  0
   21.0993   24.5612   -0.5032 C   0  0  1  0  0  0  0  0  0  0  0  0
   20.8156   24.1174    0.8227 O   0  0  0  0  0  0  0  0  0  0  0  0
   21.1720   31.3494   -0.5937 C   0  0  1  0  0  0  0  0  0  0  0  0
   22.5414   31.7702   -0.5846 O   0  0  0  0  0  0  0  0  0  0  0  0
   22.6101   24.7257   -0.6703 C   0  0  0  0  0  0  0  0  0  0  0  0
   23.2448   23.4831   -0.4143 O   0  0  0  0  0  0  0  0  0  0  0  0
   19.8553   33.9532    0.0624 N   0  0  0  0  0  0  0  0  0  0  0  0
   15.9393   30.0940   -2.8430 N   0  0  0  0  0  0  0  0  0  0  0  0
  1  2  1  0  0  0  0
  1 39  1  0  0  0  0
  3  4  1  0  0  0  0
  5  6  1  0  0  0  0
  5 40  1  0  0  0  0
  9 10  1  1  0  0  0
  9 14  1  0  0  0  0
  9 35  1  0  0  0  0
 10  1  1  0  0  0  0
 11 16  1  0  0  0  0
 11 28  1  0  0  0  0
 11 26  1  6  0  0  0
 12 17  1  0  0  0  0
 12 34  1  0  0  0  0
 12 13  1  6  0  0  0
 14 15  1  6  0  0  0
 14 19  1  0  0  0  0
 16 13  1  6  0  0  0
 16 21  1  0  0  0  0
 17 18  1  1  0  0  0
 17 23  1  0  0  0  0
 18  8  1  0  0  0  0
 19 20  1  1  0  0  0
 19 25  1  0  0  0  0
 20  5  1  0  0  0  0
 21  3  1  1  0  0  0
 21 22  1  0  0  0  0
 21 27  1  0  0  0  0
 23 24  1  6  0  0  0
 23 29  1  0  0  0  0
 25 26  1  6  0  0  0
 25 31  1  0  0  0  0
 27  7  1  1  0  0  0
 27 28  1  0  0  0  0
 29 30  1  6  0  0  0
 29 33  1  0  0  0  0
 31 32  1  1  0  0  0
 31 35  1  0  0  0  0
 33 34  1  0  0  0  0
 33 37  1  1  0  0  0
 35 36  1  6  0  0  0
 37 38  1  0  0  0  0
M  END
>  <CHROM.1>
43.87253655,-105.07810351,-143.48111633,-160.08902822,166.07086599,-123.30339649
61.91103930,46.86591449,-79.16644656,-118.68020117,-61.23480777,19.53165639
27.57952184,-0.22542599,-1.59249253,1.31718272,2.93475228

>  <Name>
1ntb_lig

>  <RI>
0

>  <Rbt.Current_Directory>
/home/itssahil/PROJECTS/Mol_Feturizer/New_Systems/rnas/1ntb

>  <Rbt.Executable>
rbdock ($Id: //depot/dev/client3/rdock/2013.1/src/exe/rbdock.cxx#4 $)

>  <Rbt.Library>
libRbt.so (2013.1, Build901 2013/11/27)

>  <Rbt.Parameter_File>
/export/apps/rDock/src/rDock_2013.1_src/data/scripts/dock_solv.prm

>  <Rbt.Receptor>
prm/blind_docking_100.prm

>  <SCORE>
-15.0616

>  <SCORE.INTER>
-15.7528

>  <SCORE.INTER.CONST>
1

>  <SCORE.INTER.POLAR>
-0.777986

>  <SCORE.INTER.ROT>
11

>  <SCORE.INTER.SOLV>
21.2525

>  <SCORE.INTER.VDW>
-25.9261

>  <SCORE.INTER.norm>
-0.393821

>  <SCORE.INTRA>
0.329008

>  <SCORE.INTRA.DIHEDRAL>
2.85661

>  <SCORE.INTRA.DIHEDRAL.0>
15.4453

>  <SCORE.INTRA.POLAR>
0

>  <SCORE.INTRA.POLAR.0>
0

>  <SCORE.INTRA.REPUL>
-0.823958

>  <SCORE.INTRA.REPUL.0>
0.823958

>  <SCORE.INTRA.SOLV>
0.67809

>  <SCORE.INTRA.SOLV.lig_0>
-99.3069

>  <SCORE.INTRA.VDW>
2.68144

>  <SCORE.INTRA.VDW.0>
0.946495

>  <SCORE.INTRA.norm>
0.00822519

>  <SCORE.RESTR>
0.362279

>  <SCORE.RESTR.CAVITY>
0.362279

>  <SCORE.RESTR.norm>
0.00905698

>  <SCORE.SYSTEM>
0

>  <SCORE.SYSTEM.CONST>
0

>  <SCORE.SYSTEM.DIHEDRAL>
0

>  <SCORE.SYSTEM.SOLV>
0

>  <SCORE.SYSTEM.norm>
0

>  <SCORE.heavy>
40

>  <SCORE.norm>
-0.376539

>  <RMSD>
19.408

$$$$
1ntb_lig
 OpenBabel11021811403D
libRbt.so/2013.1/901 2013/11/27
 40 42  0  0  0  0  0  0  0  0999 V2000
   18.7129   32.9339   -4.0274 C   0  0  0  0  0  0  0  0  0  0  0  0
   19.3790   33.9019   -4.5268 N   0  0  0  0  0  0  0  0  0  0  0  0
   20.4705   25.2275    3.6027 C   0  0  0  0  0  0  0  0  0  0  0  0
   20.1911   23.8400    3.5196 O   0  0  0  0  0  0  0  0  0  0  0  0
   16.7971   27.8596   -1.8297 C   0  0  0  0  0  0  0  0  0  0  0  0
   17.2600   27.0140   -2.6799 N   0  0  0  0  0  0  0  0  0  0  0  0
   18.4962   27.7193    4.2907 C   0  0  0  0  0  0  0  0  0  0  0  0
   17.1353   21.3988    1.0771 C   0  0  0  0  0  0  0  0  0  0  0  0
   19.2804   31.3787   -2.3466 C   0  0  2  0  0  0  0  0  0  0  0  0
   18.8298   32.7737   -2.7232 N   0  0  0  0  0  0  0  0  0  0  0  0
   19.2058   27.3399    0.8690 C   0  0  2  0  0  0  0  0  0  0  0  0
   19.7032   23.7586    0.8587 C   0  0  1  0  0  0  0  0  0  0  0  0
   19.0730   25.0147    0.6878 O   0  0  0  0  0  0  0  0  0  0  0  0
   18.1153   30.5539   -1.8108 C   0  0  1  0  0  0  0  0  0  0  0  0
   17.1048   30.5624   -2.9111 O   0  0  0  0  0  0  0  0  0  0  0  0
   19.7427   25.9987    1.3344 C   0  0  2  0  0  0  0  0  0  0  0  0
   18.9528   22.7271    0.0515 C   0  0  1  0  0  0  0  0  0  0  0  0
   17.6148   22.6308    0.5181 N   0  0  0  0  0  0  0  0  0  0  0  0
   18.5268   29.1452   -1.3879 C   0  0  2  0  0  0  0  0  0  0  0  0
   17.4557   28.3162   -0.8748 N   0  0  0  0  0  0  0  0  0  0  0  0
   19.4455   26.0051    2.8105 C   0  0  1  0  0  0  0  0  0  0  0  0
   18.1367   25.4761    3.0480 O   0  0  0  0  0  0  0  0  0  0  0  0
   18.9600   23.1738   -1.4007 C   0  0  2  0  0  0  0  0  0  0  0  0
   18.2603   22.2463   -2.2012 O   0  0  0  0  0  0  0  0  0  0  0  0
   19.5873   29.2692   -0.3248 C   0  0  1  0  0  0  0  0  0  0  0  0
   20.0638   27.9112   -0.1131 O   0  0  0  0  0  0  0  0  0  0  0  0
   19.4801   27.4410    3.1840 C   0  0  1  0  0  0  0  0  0  0  0  0
   19.1297   28.1883    2.0170 O   0  0  0  0  0  0  0  0  0  0  0  0
   20.4237   23.2548   -1.8348 C   0  0  1  0  0  0  0  0  0  0  0  0
   20.5151   23.6742   -3.1873 O   0  0  0  0  0  0  0  0  0  0  0  0
   20.8027   30.0642   -0.8735 C   0  0  2  0  0  0  0  0  0  0  0  0
   21.7943   30.1570    0.1376 O   0  0  0  0  0  0  0  0  0  0  0  0
   21.1549   24.2462   -0.9291 C   0  0  1  0  0  0  0  0  0  0  0  0
   21.0613   23.8234    0.4302 O   0  0  0  0  0  0  0  0  0  0  0  0
   20.3484   31.4803   -1.2766 C   0  0  1  0  0  0  0  0  0  0  0  0
   21.4597   32.2277   -1.7854 O   0  0  0  0  0  0  0  0  0  0  0  0
   22.6259   24.3034   -1.3420 C   0  0  0  0  0  0  0  0  0  0  0  0
   22.7124   24.6896   -2.7043 O   0  0  0  0  0  0  0  0  0  0  0  0
   17.9932   32.1471   -4.7476 N   0  0  0  0  0  0  0  0  0  0  0  0
   15.6449   28.3041   -1.9761 N   0  0  0  0  0  0  0  0  0  0  0  0
  1  2  1  0  0  0  0
  1 39  1  0  0  0  0
  3  4  1  0  0  0  0
  5  6  1  0  0  0  0
  5 40  1  0  0  0  0
  9 10  1  1  0  0  0
  9 14  1  0  0  0  0
  9 35  1  0  0  0  0
 10  1  1  0  0  0  0
 11 16  1  0  0  0  0
 11 28  1  0  0  0  0
 11 26  1  6  0  0  0
 12 17  1  0  0  0  0
 12 34  1  0  0  0  0
 12 13  1  6  0  0  0
 14 15  1  6  0  0  0
 14 19  1  0  0  0  0
 16 13  1  6  0  0  0
 16 21  1  0  0  0  0
 17 18  1  1  0  0  0
 17 23  1  0  0  0  0
 18  8  1  0  0  0  0
 19 20  1  1  0  0  0
 19 25  1  0  0  0  0
 20  5  1  0  0  0  0
 21  3  1  1  0  0  0
 21 22  1  0  0  0  0
 21 27  1  0  0  0  0
 23 24  1  6  0  0  0
 23 29  1  0  0  0  0
 25 26  1  6  0  0  0
 25 31  1  0  0  0  0
 27  7  1  1  0  0  0
 27 28  1  0  0  0  0
 29 30  1  6  0  0  0
 29 33  1  0  0  0  0
 31 32  1  1  0  0  0
 31 35  1  0  0  0  0
 33 34  1  0  0  0  0
 33 37  1  6  0  0  0
 35 36  1  6  0  0  0
 37 38  1  0  0  0  0
M  END
>  <CHROM.1>
-103.94107561,-124.75567181,-170.85861354,-176.81790291,167.69105904,-117.38894377
79.40946335,66.90850805,-80.02600436,-87.42968490,58.29782913,19.31156701
27.15931831,-0.51713250,2.39168424,-1.50337198,0.42285780

>  <Name>
1ntb_lig

>  <RI>
0

>  <Rbt.Current_Directory>
/home/itssahil/PROJECTS/Mol_Feturizer/New_Systems/rnas/1ntb

>  <Rbt.Executable>
rbdock ($Id: //depot/dev/client3/rdock/2013.1/src/exe/rbdock.cxx#4 $)

>  <Rbt.Library>
libRbt.so (2013.1, Build901 2013/11/27)

>  <Rbt.Parameter_File>
/export/apps/rDock/src/rDock_2013.1_src/data/scripts/dock_solv.prm

>  <Rbt.Receptor>
prm/blind_docking_60.prm

>  <SCORE>
-24.4554

>  <SCORE.INTER>
-15.1548

>  <SCORE.INTER.CONST>
1

>  <SCORE.INTER.POLAR>
-1.79688

>  <SCORE.INTER.ROT>
11

>  <SCORE.INTER.SOLV>
25.4696

>  <SCORE.INTER.VDW>
-23.5368

>  <SCORE.INTER.norm>
-0.378869

>  <SCORE.INTRA>
-10.086

>  <SCORE.INTRA.DIHEDRAL>
-6.32638

>  <SCORE.INTRA.DIHEDRAL.0>
15.4453

>  <SCORE.INTRA.POLAR>
0

>  <SCORE.INTRA.POLAR.0>
0

>  <SCORE.INTRA.REPUL>
-0.823958

>  <SCORE.INTRA.REPUL.0>
0.823958

>  <SCORE.INTRA.SOLV>
-1.31002

>  <SCORE.INTRA.SOLV.lig_0>
-99.3069

>  <SCORE.INTRA.VDW>
-2.14799

>  <SCORE.INTRA.VDW.0>
0.946495

>  <SCORE.INTRA.norm>
-0.25215

>  <SCORE.RESTR>
0.785324

>  <SCORE.RESTR.CAVITY>
0.785324

>  <SCORE.RESTR.norm>
0.0196331

>  <SCORE.SYSTEM>
0

>  <SCORE.SYSTEM.CONST>
0

>  <SCORE.SYSTEM.DIHEDRAL>
0

>  <SCORE.SYSTEM.SOLV>
0

>  <SCORE.SYSTEM.norm>
0

>  <SCORE.heavy>
40

>  <SCORE.norm>
-0.611385

>  <RMSD>
19.423

$$$$
1ntb_lig
 OpenBabel11021811403D
libRbt.so/2013.1/901 2013/11/27
 40 42  0  0  0  0  0  0  0  0999 V2000
   17.1033   17.9689   -0.0612 C   0  0  0  0  0  0  0  0  0  0  0  0
   16.3534   17.5805   -1.0188 N   0  0  0  0  0  0  0  0  0  0  0  0
   18.5085   27.7075    3.4753 C   0  0  0  0  0  0  0  0  0  0  0  0
   17.2220   27.1464    3.6763 O   0  0  0  0  0  0  0  0  0  0  0  0
   18.2770   24.1142   -2.6885 C   0  0  0  0  0  0  0  0  0  0  0  0
   17.9559   23.9527   -3.9225 N   0  0  0  0  0  0  0  0  0  0  0  0
   20.5621   25.3151    4.2745 C   0  0  0  0  0  0  0  0  0  0  0  0
   21.9001   30.6289   -0.1949 C   0  0  0  0  0  0  0  0  0  0  0  0
   17.7924   20.2152   -0.2736 C   0  0  2  0  0  0  0  0  0  0  0  0
   18.1147   18.7423   -0.4062 N   0  0  0  0  0  0  0  0  0  0  0  0
   19.2389   25.0595    1.0281 C   0  0  2  0  0  0  0  0  0  0  0  0
   18.8918   28.6318    0.5135 C   0  0  1  0  0  0  0  0  0  0  0  0
   19.3486   27.2992    0.3734 O   0  0  0  0  0  0  0  0  0  0  0  0
   18.6010   21.0433   -1.2663 C   0  0  1  0  0  0  0  0  0  0  0  0
   18.2438   20.4871   -2.6061 O   0  0  0  0  0  0  0  0  0  0  0  0
   18.8036   26.4860    1.3097 C   0  0  2  0  0  0  0  0  0  0  0  0
   19.6991   29.5189   -0.4030 C   0  0  1  0  0  0  0  0  0  0  0  0
   21.0705   29.4683   -0.0368 N   0  0  0  0  0  0  0  0  0  0  0  0
   18.3324   22.5423   -1.1504 C   0  0  2  0  0  0  0  0  0  0  0  0
   19.0725   23.3761   -2.0750 N   0  0  0  0  0  0  0  0  0  0  0  0
   19.3666   26.7509    2.6808 C   0  0  1  0  0  0  0  0  0  0  0  0
   20.6995   27.2613    2.5719 O   0  0  0  0  0  0  0  0  0  0  0  0
   19.5267   29.0051   -1.8225 C   0  0  2  0  0  0  0  0  0  0  0  0
   20.2717   29.7959   -2.7226 O   0  0  0  0  0  0  0  0  0  0  0  0
   18.6707   22.9686    0.2546 C   0  0  1  0  0  0  0  0  0  0  0  0
   18.2123   24.3462    0.3468 O   0  0  0  0  0  0  0  0  0  0  0  0
   19.3934   25.4161    3.3289 C   0  0  1  0  0  0  0  0  0  0  0  0
   19.5197   24.4448    2.2878 O   0  0  0  0  0  0  0  0  0  0  0  0
   18.0353   29.0884   -2.1484 C   0  0  1  0  0  0  0  0  0  0  0  0
   17.7905   28.6172   -3.4644 O   0  0  0  0  0  0  0  0  0  0  0  0
   17.8171   22.1686    1.2752 C   0  0  2  0  0  0  0  0  0  0  0  0
   18.1406   22.5951    2.5896 O   0  0  0  0  0  0  0  0  0  0  0  0
   17.2594   28.2435   -1.1375 C   0  0  1  0  0  0  0  0  0  0  0  0
   17.5073   28.7180    0.1848 O   0  0  0  0  0  0  0  0  0  0  0  0
   18.1259   20.6656    1.1341 C   0  0  1  0  0  0  0  0  0  0  0  0
   17.3456   19.9127    2.0703 O   0  0  0  0  0  0  0  0  0  0  0  0
   15.7653   28.3523   -1.4433 C   0  0  0  0  0  0  0  0  0  0  0  0
   15.4527   27.5123   -2.5430 O   0  0  0  0  0  0  0  0  0  0  0  0
   16.9053   17.6119    1.1591 N   0  0  0  0  0  0  0  0  0  0  0  0
   17.8220   25.0873   -2.0617 N   0  0  0  0  0  0  0  0  0  0  0  0
  1  2  1  0  0  0  0
  1 39  1  0  0  0  0
  3  4  1  0  0  0  0
  5  6  1  0  0  0  0
  5 40  1  0  0  0  0
  9 10  1  1  0  0  0
  9 14  1  0  0  0  0
  9 35  1  0  0  0  0
 10  1  1  0  0  0  0
 11 16  1  0  0  0  0
 11 28  1  0  0  0  0
 11 26  1  1  0  0  0
 12 17  1  0  0  0  0
 12 34  1  0  0  0  0
 12 13  1  6  0  0  0
 14 15  1  6  0  0  0
 14 19  1  0  0  0  0
 16 13  1  6  0  0  0
 16 21  1  0  0  0  0
 17 18  1  1  0  0  0
 17 23  1  0  0  0  0
 18  8  1  0  0  0  0
 19 20  1  6  0  0  0
 19 25  1  0  0  0  0
 20  5  1  0  0  0  0
 21  3  1  1  0  0  0
 21 22  1  0  0  0  0
 21 27  1  0  0  0  0
 23 24  1  6  0  0  0
 23 29  1  0  0  0  0
 25 26  1  6  0  0  0
 25 31  1  0  0  0  0
 27  7  1  1  0  0  0
 27 28  1  0  0  0  0
 29 30  1  6  0  0  0
 29 33  1  0  0  0  0
 31 32  1  1  0  0  0
 31 35  1  0  0  0  0
 33 34  1  0  0  0  0
 33 37  1  6  0  0  0
 35 36  1  1  0  0  0
 37 38  1  0  0  0  0
M  END
>  <CHROM.1>
-151.51070981,94.85403425,-174.11979239,170.86586433,175.13393100,-146.80158812
127.14127946,-107.02281759,62.06980174,-136.96152694,78.37943813,18.46805629
24.94291932,0.03819713,2.14939464,1.27204506,2.54108182

>  <Name>
1ntb_lig

>  <RI>
0

>  <Rbt.Current_Directory>
/home/itssahil/PROJECTS/Mol_Feturizer/New_Systems/rnas/1ntb

>  <Rbt.Executable>
rbdock ($Id: //depot/dev/client3/rdock/2013.1/src/exe/rbdock.cxx#4 $)

>  <Rbt.Library>
libRbt.so (2013.1, Build901 2013/11/27)

>  <Rbt.Parameter_File>
/export/apps/rDock/src/rDock_2013.1_src/data/scripts/dock_solv.prm

>  <Rbt.Receptor>
prm/blind_docking_40.prm

>  <SCORE>
-16.3365

>  <SCORE.INTER>
-8.13293

>  <SCORE.INTER.CONST>
1

>  <SCORE.INTER.POLAR>
-0.594438

>  <SCORE.INTER.ROT>
11

>  <SCORE.INTER.SOLV>
16.0902

>  <SCORE.INTER.VDW>
-19.7372

>  <SCORE.INTER.norm>
-0.203323

>  <SCORE.INTRA>
-8.26316

>  <SCORE.INTRA.DIHEDRAL>
-4.14475

>  <SCORE.INTRA.DIHEDRAL.0>
15.4453

>  <SCORE.INTRA.POLAR>
0

>  <SCORE.INTRA.POLAR.0>
0

>  <SCORE.INTRA.REPUL>
-0.823958

>  <SCORE.INTRA.REPUL.0>
0.823958

>  <SCORE.INTRA.SOLV>
1.59303

>  <SCORE.INTRA.SOLV.lig_0>
-99.3069

>  <SCORE.INTRA.VDW>
-2.86751

>  <SCORE.INTRA.VDW.0>
0.946495

>  <SCORE.INTRA.norm>
-0.206579

>  <SCORE.RESTR>
0.0596177

>  <SCORE.RESTR.CAVITY>
0.0596177

>  <SCORE.RESTR.norm>
0.00149044

>  <SCORE.SYSTEM>
0

>  <SCORE.SYSTEM.CONST>
0

>  <SCORE.SYSTEM.DIHEDRAL>
0

>  <SCORE.SYSTEM.SOLV>
0

>  <SCORE.SYSTEM.norm>
0

>  <SCORE.heavy>
40

>  <SCORE.norm>
-0.408412

>  <RMSD>
19.526

$$$$
1ntb_lig
 OpenBabel11021811403D
libRbt.so/2013.1/901 2013/11/27
 40 42  0  0  0  0  0  0  0  0999 V2000
   18.8646   33.7689   -2.5700 C   0  0  0  0  0  0  0  0  0  0  0  0
   18.0465   34.5536   -3.1574 N   0  0  0  0  0  0  0  0  0  0  0  0
   20.6621   24.8466    3.6472 C   0  0  0  0  0  0  0  0  0  0  0  0
   20.1973   23.5263    3.8728 O   0  0  0  0  0  0  0  0  0  0  0  0
   18.1535   27.9272   -2.6511 C   0  0  0  0  0  0  0  0  0  0  0  0
   17.1881   27.7001   -3.4687 N   0  0  0  0  0  0  0  0  0  0  0  0
   18.5933   27.0325    4.8809 C   0  0  0  0  0  0  0  0  0  0  0  0
   16.9103   23.8428   -0.7114 C   0  0  0  0  0  0  0  0  0  0  0  0
   19.1061   31.9155   -1.1304 C   0  0  2  0  0  0  0  0  0  0  0  0
   18.4341   33.2352   -1.4430 N   0  0  0  0  0  0  0  0  0  0  0  0
   19.1270   27.3404    1.4203 C   0  0  2  0  0  0  0  0  0  0  0  0
   19.6841   23.7927    0.9080 C   0  0  1  0  0  0  0  0  0  0  0  0
   19.1150   25.0853    0.8110 O   0  0  0  0  0  0  0  0  0  0  0  0
   18.1933   30.7428   -1.4718 C   0  0  1  0  0  0  0  0  0  0  0  0
   17.8856   30.9101   -2.9241 O   0  0  0  0  0  0  0  0  0  0  0  0
   19.7641   25.9746    1.6001 C   0  0  2  0  0  0  0  0  0  0  0  0
   19.1669   22.9495   -0.2322 C   0  0  1  0  0  0  0  0  0  0  0  0
   17.7544   22.8314   -0.1415 N   0  0  0  0  0  0  0  0  0  0  0  0
   18.8166   29.3873   -1.1451 C   0  0  2  0  0  0  0  0  0  0  0  0
   17.9923   28.2373   -1.4545 N   0  0  0  0  0  0  0  0  0  0  0  0
   19.5515   25.6881    3.0629 C   0  0  1  0  0  0  0  0  0  0  0  0
   18.2902   25.0393    3.2559 O   0  0  0  0  0  0  0  0  0  0  0  0
   19.5426   23.6400   -1.5325 C   0  0  2  0  0  0  0  0  0  0  0  0
   19.0723   22.8957   -2.6351 O   0  0  0  0  0  0  0  0  0  0  0  0
   19.1365   29.3647    0.3271 C   0  0  1  0  0  0  0  0  0  0  0  0
   19.8941   28.1388    0.5253 O   0  0  0  0  0  0  0  0  0  0  0  0
   19.5266   27.0292    3.6980 C   0  0  1  0  0  0  0  0  0  0  0  0
   19.0689   27.9549    2.7097 O   0  0  0  0  0  0  0  0  0  0  0  0
   21.0684   23.7319   -1.5635 C   0  0  1  0  0  0  0  0  0  0  0  0
   21.5002   24.3747   -2.7526 O   0  0  0  0  0  0  0  0  0  0  0  0
   20.1065   30.5243    0.6804 C   0  0  2  0  0  0  0  0  0  0  0  0
   20.4058   30.4761    2.0668 O   0  0  0  0  0  0  0  0  0  0  0  0
   21.5421   24.5195   -0.3415 C   0  0  1  0  0  0  0  0  0  0  0  0
   21.1064   23.8723    0.8529 O   0  0  0  0  0  0  0  0  0  0  0  0
   19.4367   31.8714    0.3477 C   0  0  1  0  0  0  0  0  0  0  0  0
   20.3198   32.9529    0.6685 O   0  0  0  0  0  0  0  0  0  0  0  0
   23.0696   24.5841   -0.3548 C   0  0  0  0  0  0  0  0  0  0  0  0
   23.5730   23.5342   -1.1652 O   0  0  0  0  0  0  0  0  0  0  0  0
   20.0428   33.5304   -3.0291 N   0  0  0  0  0  0  0  0  0  0  0  0
   19.3270   27.7849   -3.0375 N   0  0  0  0  0  0  0  0  0  0  0  0
  1  2  1  0  0  0  0
  1 39  1  0  0  0  0
  3  4  1  0  0  0  0
  5  6  1  0  0  0  0
  5 40  1  0  0  0  0
  9 10  1  1  0  0  0
  9 14  1  0  0  0  0
  9 35  1  0  0  0  0
 10  1  1  0  0  0  0
 11 16  1  0  0  0  0
 11 28  1  0  0  0  0
 11 26  1  6  0  0  0
 12 17  1  0  0  0  0
 12 34  1  0  0  0  0
 12 13  1  6  0  0  0
 14 15  1  6  0  0  0
 14 19  1  0  0  0  0
 16 13  1  6  0  0  0
 16 21  1  0  0  0  0
 17 18  1  1  0  0  0
 17 23  1  0  0  0  0
 18  8  1  0  0  0  0
 19 20  1  1  0  0  0
 19 25  1  0  0  0  0
 20  5  1  0  0  0  0
 21  3  1  1  0  0  0
 21 22  1  0  0  0  0
 21 27  1  0  0  0  0
 23 24  1  6  0  0  0
 23 29  1  0  0  0  0
 25 26  1  6  0  0  0
 25 31  1  0  0  0  0
 27  7  1  1  0  0  0
 27 28  1  0  0  0  0
 29 30  1  6  0  0  0
 29 33  1  0  0  0  0
 31 32  1  1  0  0  0
 31 35  1  0  0  0  0
 33 34  1  0  0  0  0
 33 37  1  1  0  0  0
 35 36  1  6  0  0  0
 37 38  1  0  0  0  0
M  END
>  <CHROM.1>
-101.87970677,154.16719714,174.76752161,-165.56429404,178.55920155,85.63886965
85.14878331,-131.57642372,-106.67040687,-118.07815185,-20.98285036,19.49870691
27.38025218,-0.06636716,2.99169619,-1.43622498,1.16002382

>  <Name>
1ntb_lig

>  <RI>
0

>  <Rbt.Current_Directory>
/home/itssahil/PROJECTS/Mol_Feturizer/New_Systems/rnas/1ntb

>  <Rbt.Executable>
rbdock ($Id: //depot/dev/client3/rdock/2013.1/src/exe/rbdock.cxx#4 $)

>  <Rbt.Library>
libRbt.so (2013.1, Build901 2013/11/27)

>  <Rbt.Parameter_File>
/export/apps/rDock/src/rDock_2013.1_src/data/scripts/dock_solv.prm

>  <Rbt.Receptor>
prm/blind_docking_40.prm

>  <SCORE>
5.09954

>  <SCORE.INTER>
3.48012

>  <SCORE.INTER.CONST>
1

>  <SCORE.INTER.POLAR>
-0.669396

>  <SCORE.INTER.ROT>
11

>  <SCORE.INTER.SOLV>
20.3322

>  <SCORE.INTER.VDW>
-13.1593

>  <SCORE.INTER.norm>
0.0870031

>  <SCORE.INTRA>
0.408134

>  <SCORE.INTRA.DIHEDRAL>
3.99571

>  <SCORE.INTRA.DIHEDRAL.0>
15.4453

>  <SCORE.INTRA.POLAR>
0

>  <SCORE.INTRA.POLAR.0>
0

>  <SCORE.INTRA.REPUL>
-0.786075

>  <SCORE.INTRA.REPUL.0>
0.823958

>  <SCORE.INTRA.SOLV>
-1.71773

>  <SCORE.INTRA.SOLV.lig_0>
-99.3069

>  <SCORE.INTRA.VDW>
3.19952

>  <SCORE.INTRA.VDW.0>
0.946495

>  <SCORE.INTRA.norm>
0.0102034

>  <SCORE.RESTR>
1.21129

>  <SCORE.RESTR.CAVITY>
1.21129

>  <SCORE.RESTR.norm>
0.0302822

>  <SCORE.SYSTEM>
0

>  <SCORE.SYSTEM.CONST>
0

>  <SCORE.SYSTEM.DIHEDRAL>
0

>  <SCORE.SYSTEM.SOLV>
0

>  <SCORE.SYSTEM.norm>
0

>  <SCORE.heavy>
40

>  <SCORE.norm>
0.127489

>  <RMSD>
19.580

$$$$
