ligand
  PyMOL2.2          3D                             0

 10 11  0  0  0  0  0  0  0  0999 V2000
   12.0950   10.9280    9.3000 N   0  0  0  0  0  0  0  0  0  0  0  0
   11.7560   12.2500    9.5220 C   0  0  0  0  0  0  0  0  0  0  0  0
   11.3150   13.0480    8.5400 N   0  0  0  0  0  0  0  0  0  0  0  0
   11.2440   12.4270    7.3340 C   0  0  0  0  0  0  0  0  0  0  0  0
   11.5670   11.1140    7.0410 C   0  0  0  0  0  0  0  0  0  0  0  0
   12.0360   10.2540    8.0760 C   0  0  0  0  0  0  0  0  0  0  0  0
   12.3770    9.0630    8.0410 O   0  0  0  0  0  0  0  0  0  0  0  0
   11.3490   10.9050    5.7070 N   0  0  0  0  0  0  0  0  0  0  0  0
   10.8970   12.0800    5.2020 C   0  0  0  0  0  0  0  0  0  0  0  0
   10.8220   13.0380    6.1800 N   0  0  0  0  0  0  0  0  0  0  0  0
  1  2  4  0  0  0  0
  1  6  4  0  0  0  0
  2  3  4  0  0  0  0
  3  4  4  0  0  0  0
  4  5  4  0  0  0  0
  4 10  4  0  0  0  0
  5  6  4  0  0  0  0
  5  8  4  0  0  0  0
  6  7  2  0  0  0  0
  8  9  4  0  0  0  0
  9 10  4  0  0  0  0
M  END
$$$$
