ligand
 OpenBabel11021811423D
libRbt.so/2013.1/901 2013/11/27
 10 11  0  0  0  0  0  0  0  0999 V2000
   11.7472   11.3227    8.6760 N   0  0  0  0  0  0  0  0  0  0  0  0
   11.4997   12.6808    8.7549 C   0  0  0  0  0  0  0  0  0  0  0  0
   11.1775   13.4110    7.6785 N   0  0  0  0  0  0  0  0  0  0  0  0
   11.1262   12.6843    6.5320 C   0  0  0  0  0  0  0  0  0  0  0  0
   11.3625   11.3295    6.3807 C   0  0  0  0  0  0  0  0  0  0  0  0
   11.7048   10.5409    7.5172 C   0  0  0  0  0  0  0  0  0  0  0  0
   11.9540    9.3305    7.6124 O   0  0  0  0  0  0  0  0  0  0  0  0
   11.2040   11.0102    5.0602 N   0  0  0  0  0  0  0  0  0  0  0  0
   10.8733   12.1610    4.4229 C   0  0  0  0  0  0  0  0  0  0  0  0
   10.8181   13.2110    5.3029 N   0  0  0  0  0  0  0  0  0  0  0  0
  1  2  1  0  0  0  0
  1  6  1  0  0  0  0
  2  3  2  0  0  0  0
  3  4  1  0  0  0  0
  4  5  2  0  0  0  0
  4 10  1  0  0  0  0
  5  6  1  0  0  0  0
  5  8  1  0  0  0  0
  6  7  2  0  0  0  0
  8  9  1  0  0  0  0
  9 10  2  0  0  0  0
M  END
>  <CHROM.1>
11.35842052,11.72301979,6.81158455,0.33271615,-1.32062444,0.85644131

>  <Name>
ligand

>  <RI>
0

>  <Rbt.Current_Directory>
/home/itssahil/PROJECTS/Mol_Feturizer/New_Systems/rnas/2EEW

>  <Rbt.Executable>
rbdock ($Id: //depot/dev/client3/rdock/2013.1/src/exe/rbdock.cxx#4 $)

>  <Rbt.Library>
libRbt.so (2013.1, Build901 2013/11/27)

>  <Rbt.Parameter_File>
/export/apps/rDock/src/rDock_2013.1_src/data/scripts/dock_solv.prm

>  <Rbt.Receptor>
prm/pocket_docking_8.prm

>  <SCORE>
-17.0422

>  <SCORE.INTER>
-17.0422

>  <SCORE.INTER.CONST>
1

>  <SCORE.INTER.POLAR>
0

>  <SCORE.INTER.ROT>
0

>  <SCORE.INTER.SOLV>
3.33379

>  <SCORE.INTER.VDW>
-16.0727

>  <SCORE.INTER.norm>
-1.70422

>  <SCORE.INTRA>
0

>  <SCORE.INTRA.DIHEDRAL>
0

>  <SCORE.INTRA.DIHEDRAL.0>
0

>  <SCORE.INTRA.POLAR>
0

>  <SCORE.INTRA.POLAR.0>
0

>  <SCORE.INTRA.REPUL>
0

>  <SCORE.INTRA.REPUL.0>
0

>  <SCORE.INTRA.SOLV>
0

>  <SCORE.INTRA.SOLV.lig_0>
-4.28901

>  <SCORE.INTRA.VDW>
0

>  <SCORE.INTRA.VDW.0>
0

>  <SCORE.INTRA.norm>
0

>  <SCORE.RESTR>
0

>  <SCORE.RESTR.CAVITY>
0

>  <SCORE.RESTR.norm>
0

>  <SCORE.SYSTEM>
0

>  <SCORE.SYSTEM.CONST>
0

>  <SCORE.SYSTEM.DIHEDRAL>
0

>  <SCORE.SYSTEM.SOLV>
0

>  <SCORE.SYSTEM.norm>
0

>  <SCORE.heavy>
10

>  <SCORE.norm>
-1.70422

>  <RMSD>
0.803

$$$$
ligand
 OpenBabel11021811423D
libRbt.so/2013.1/901 2013/11/27
 10 11  0  0  0  0  0  0  0  0999 V2000
   11.7160   11.3574    8.7067 N   0  0  0  0  0  0  0  0  0  0  0  0
   11.5045   12.7228    8.7587 C   0  0  0  0  0  0  0  0  0  0  0  0
   11.2037   13.4403    7.6676 N   0  0  0  0  0  0  0  0  0  0  0  0
   11.1353   12.6931    6.5353 C   0  0  0  0  0  0  0  0  0  0  0  0
   11.3358   11.3299    6.4108 C   0  0  0  0  0  0  0  0  0  0  0  0
   11.6549   10.5546    7.5631 C   0  0  0  0  0  0  0  0  0  0  0  0
   11.8717    9.3402    7.6823 O   0  0  0  0  0  0  0  0  0  0  0  0
   11.1713   10.9893    5.0963 N   0  0  0  0  0  0  0  0  0  0  0  0
   10.8724   12.1359    4.4361 C   0  0  0  0  0  0  0  0  0  0  0  0
   10.8435   13.2038    5.2955 N   0  0  0  0  0  0  0  0  0  0  0  0
  1  2  1  0  0  0  0
  1  6  1  0  0  0  0
  2  3  2  0  0  0  0
  3  4  1  0  0  0  0
  4  5  2  0  0  0  0
  4 10  1  0  0  0  0
  5  6  1  0  0  0  0
  5  8  1  0  0  0  0
  6  7  2  0  0  0  0
  8  9  1  0  0  0  0
  9 10  2  0  0  0  0
M  END
>  <CHROM.1>
11.34136054,11.73161160,6.83393410,0.26233492,-1.34134258,0.76869609

>  <Name>
ligand

>  <RI>
0

>  <Rbt.Current_Directory>
/home/itssahil/PROJECTS/Mol_Feturizer/New_Systems/rnas/2EEW

>  <Rbt.Executable>
rbdock ($Id: //depot/dev/client3/rdock/2013.1/src/exe/rbdock.cxx#4 $)

>  <Rbt.Library>
libRbt.so (2013.1, Build901 2013/11/27)

>  <Rbt.Parameter_File>
/export/apps/rDock/src/rDock_2013.1_src/data/scripts/dock_solv.prm

>  <Rbt.Receptor>
prm/pocket_docking_4.prm

>  <SCORE>
-17.0321

>  <SCORE.INTER>
-17.0321

>  <SCORE.INTER.CONST>
1

>  <SCORE.INTER.POLAR>
0

>  <SCORE.INTER.ROT>
0

>  <SCORE.INTER.SOLV>
3.42897

>  <SCORE.INTER.VDW>
-16.0977

>  <SCORE.INTER.norm>
-1.70321

>  <SCORE.INTRA>
0

>  <SCORE.INTRA.DIHEDRAL>
0

>  <SCORE.INTRA.DIHEDRAL.0>
0

>  <SCORE.INTRA.POLAR>
0

>  <SCORE.INTRA.POLAR.0>
0

>  <SCORE.INTRA.REPUL>
0

>  <SCORE.INTRA.REPUL.0>
0

>  <SCORE.INTRA.SOLV>
0

>  <SCORE.INTRA.SOLV.lig_0>
-4.28901

>  <SCORE.INTRA.VDW>
0

>  <SCORE.INTRA.VDW.0>
0

>  <SCORE.INTRA.norm>
0

>  <SCORE.RESTR>
0

>  <SCORE.RESTR.CAVITY>
0

>  <SCORE.RESTR.norm>
0

>  <SCORE.SYSTEM>
0

>  <SCORE.SYSTEM.CONST>
0

>  <SCORE.SYSTEM.DIHEDRAL>
0

>  <SCORE.SYSTEM.SOLV>
0

>  <SCORE.SYSTEM.norm>
0

>  <SCORE.heavy>
10

>  <SCORE.norm>
-1.70321

>  <RMSD>
0.804

$$$$
ligand
 OpenBabel11021811423D
libRbt.so/2013.1/901 2013/11/27
 10 11  0  0  0  0  0  0  0  0999 V2000
   11.7911   11.2603    8.6218 N   0  0  0  0  0  0  0  0  0  0  0  0
   11.5000   12.6059    8.7500 C   0  0  0  0  0  0  0  0  0  0  0  0
   11.1469   13.3625    7.7019 N   0  0  0  0  0  0  0  0  0  0  0  0
   11.1117   12.6754    6.5308 C   0  0  0  0  0  0  0  0  0  0  0  0
   11.3910   11.3352    6.3303 C   0  0  0  0  0  0  0  0  0  0  0  0
   11.7665   10.5188    7.4363 C   0  0  0  0  0  0  0  0  0  0  0  0
   12.0556    9.3147    7.4872 O   0  0  0  0  0  0  0  0  0  0  0  0
   11.2341   11.0576    5.0003 N   0  0  0  0  0  0  0  0  0  0  0  0
   10.8618   12.2186    4.4059 C   0  0  0  0  0  0  0  0  0  0  0  0
   10.7782   13.2346    5.3228 N   0  0  0  0  0  0  0  0  0  0  0  0
  1  2  1  0  0  0  0
  1  6  1  0  0  0  0
  2  3  2  0  0  0  0
  3  4  1  0  0  0  0
  4  5  2  0  0  0  0
  4 10  1  0  0  0  0
  5  6  1  0  0  0  0
  5  8  1  0  0  0  0
  6  7  2  0  0  0  0
  8  9  1  0  0  0  0
  9 10  2  0  0  0  0
M  END
>  <CHROM.1>
11.37696626,11.71300376,6.77484930,0.39185675,-1.29109736,0.94882992

>  <Name>
ligand

>  <RI>
0

>  <Rbt.Current_Directory>
/home/itssahil/PROJECTS/Mol_Feturizer/New_Systems/rnas/2EEW

>  <Rbt.Executable>
rbdock ($Id: //depot/dev/client3/rdock/2013.1/src/exe/rbdock.cxx#4 $)

>  <Rbt.Library>
libRbt.so (2013.1, Build901 2013/11/27)

>  <Rbt.Parameter_File>
/export/apps/rDock/src/rDock_2013.1_src/data/scripts/dock_solv.prm

>  <Rbt.Receptor>
prm/blind_docking_60.prm

>  <SCORE>
-16.9958

>  <SCORE.INTER>
-16.9958

>  <SCORE.INTER.CONST>
1

>  <SCORE.INTER.POLAR>
0

>  <SCORE.INTER.ROT>
0

>  <SCORE.INTER.SOLV>
3.20371

>  <SCORE.INTER.VDW>
-15.9984

>  <SCORE.INTER.norm>
-1.69958

>  <SCORE.INTRA>
0

>  <SCORE.INTRA.DIHEDRAL>
0

>  <SCORE.INTRA.DIHEDRAL.0>
0

>  <SCORE.INTRA.POLAR>
0

>  <SCORE.INTRA.POLAR.0>
0

>  <SCORE.INTRA.REPUL>
0

>  <SCORE.INTRA.REPUL.0>
0

>  <SCORE.INTRA.SOLV>
0

>  <SCORE.INTRA.SOLV.lig_0>
-4.28901

>  <SCORE.INTRA.VDW>
0

>  <SCORE.INTRA.VDW.0>
0

>  <SCORE.INTRA.norm>
0

>  <SCORE.RESTR>
0

>  <SCORE.RESTR.CAVITY>
0

>  <SCORE.RESTR.norm>
0

>  <SCORE.SYSTEM>
0

>  <SCORE.SYSTEM.CONST>
0

>  <SCORE.SYSTEM.DIHEDRAL>
0

>  <SCORE.SYSTEM.SOLV>
0

>  <SCORE.SYSTEM.norm>
0

>  <SCORE.heavy>
10

>  <SCORE.norm>
-1.69958

>  <RMSD>
0.811

$$$$
ligand
 OpenBabel11021811423D
libRbt.so/2013.1/901 2013/11/27
 10 11  0  0  0  0  0  0  0  0999 V2000
   11.7054   11.3538    8.6937 N   0  0  0  0  0  0  0  0  0  0  0  0
   11.4747   12.7160    8.7486 C   0  0  0  0  0  0  0  0  0  0  0  0
   11.1666   13.4319    7.6586 N   0  0  0  0  0  0  0  0  0  0  0  0
   11.1114   12.6868    6.5242 C   0  0  0  0  0  0  0  0  0  0  0  0
   11.3312   11.3268    6.3968 C   0  0  0  0  0  0  0  0  0  0  0  0
   11.6584   10.5531    7.5480 C   0  0  0  0  0  0  0  0  0  0  0  0
   11.8918    9.3416    7.6646 O   0  0  0  0  0  0  0  0  0  0  0  0
   11.1747   10.9874    5.0811 N   0  0  0  0  0  0  0  0  0  0  0  0
   10.8615   12.1313    4.4230 C   0  0  0  0  0  0  0  0  0  0  0  0
   10.8156   13.1966    5.2850 N   0  0  0  0  0  0  0  0  0  0  0  0
  1  2  1  0  0  0  0
  1  6  1  0  0  0  0
  2  3  2  0  0  0  0
  3  4  1  0  0  0  0
  4  5  2  0  0  0  0
  4 10  1  0  0  0  0
  5  6  1  0  0  0  0
  5  8  1  0  0  0  0
  6  7  2  0  0  0  0
  8  9  1  0  0  0  0
  9 10  2  0  0  0  0
M  END
>  <CHROM.1>
11.33018503,11.72751394,6.82097865,0.31223243,-1.33310330,0.81976841

>  <Name>
ligand

>  <RI>
0

>  <Rbt.Current_Directory>
/home/itssahil/PROJECTS/Mol_Feturizer/New_Systems/rnas/2EEW

>  <Rbt.Executable>
rbdock ($Id: //depot/dev/client3/rdock/2013.1/src/exe/rbdock.cxx#4 $)

>  <Rbt.Library>
libRbt.so (2013.1, Build901 2013/11/27)

>  <Rbt.Parameter_File>
/export/apps/rDock/src/rDock_2013.1_src/data/scripts/dock_solv.prm

>  <Rbt.Receptor>
prm/pocket_docking_4.prm

>  <SCORE>
-17.054

>  <SCORE.INTER>
-17.054

>  <SCORE.INTER.CONST>
1

>  <SCORE.INTER.POLAR>
0

>  <SCORE.INTER.ROT>
0

>  <SCORE.INTER.SOLV>
3.39017

>  <SCORE.INTER.VDW>
-16.0994

>  <SCORE.INTER.norm>
-1.7054

>  <SCORE.INTRA>
0

>  <SCORE.INTRA.DIHEDRAL>
0

>  <SCORE.INTRA.DIHEDRAL.0>
0

>  <SCORE.INTRA.POLAR>
0

>  <SCORE.INTRA.POLAR.0>
0

>  <SCORE.INTRA.REPUL>
0

>  <SCORE.INTRA.REPUL.0>
0

>  <SCORE.INTRA.SOLV>
0

>  <SCORE.INTRA.SOLV.lig_0>
-4.28901

>  <SCORE.INTRA.VDW>
0

>  <SCORE.INTRA.VDW.0>
0

>  <SCORE.INTRA.norm>
0

>  <SCORE.RESTR>
0

>  <SCORE.RESTR.CAVITY>
0

>  <SCORE.RESTR.norm>
0

>  <SCORE.SYSTEM>
0

>  <SCORE.SYSTEM.CONST>
0

>  <SCORE.SYSTEM.DIHEDRAL>
0

>  <SCORE.SYSTEM.SOLV>
0

>  <SCORE.SYSTEM.norm>
0

>  <SCORE.heavy>
10

>  <SCORE.norm>
-1.7054

>  <RMSD>
0.814

$$$$
ligand
 OpenBabel11021811423D
libRbt.so/2013.1/901 2013/11/27
 10 11  0  0  0  0  0  0  0  0999 V2000
   11.6954   11.3457    8.6945 N   0  0  0  0  0  0  0  0  0  0  0  0
   11.4748   12.7096    8.7517 C   0  0  0  0  0  0  0  0  0  0  0  0
   11.1769   13.4304    7.6621 N   0  0  0  0  0  0  0  0  0  0  0  0
   11.1209   12.6884    6.5257 C   0  0  0  0  0  0  0  0  0  0  0  0
   11.3309   11.3271    6.3959 C   0  0  0  0  0  0  0  0  0  0  0  0
   11.6472   10.5482    7.5466 C   0  0  0  0  0  0  0  0  0  0  0  0
   11.8709    9.3346    7.6613 O   0  0  0  0  0  0  0  0  0  0  0  0
   11.1775   10.9920    5.0788 N   0  0  0  0  0  0  0  0  0  0  0  0
   10.8759   12.1399    4.4220 C   0  0  0  0  0  0  0  0  0  0  0  0
   10.8343   13.2034    5.2864 N   0  0  0  0  0  0  0  0  0  0  0  0
  1  2  1  0  0  0  0
  1  6  1  0  0  0  0
  2  3  2  0  0  0  0
  3  4  1  0  0  0  0
  4  5  2  0  0  0  0
  4 10  1  0  0  0  0
  5  6  1  0  0  0  0
  5  8  1  0  0  0  0
  6  7  2  0  0  0  0
  8  9  1  0  0  0  0
  9 10  2  0  0  0  0
M  END
>  <CHROM.1>
11.33108750,11.72681024,6.82106375,0.30321446,-1.34161026,0.81340729

>  <Name>
ligand

>  <RI>
0

>  <Rbt.Current_Directory>
/home/itssahil/PROJECTS/Mol_Feturizer/New_Systems/rnas/2EEW

>  <Rbt.Executable>
rbdock ($Id: //depot/dev/client3/rdock/2013.1/src/exe/rbdock.cxx#4 $)

>  <Rbt.Library>
libRbt.so (2013.1, Build901 2013/11/27)

>  <Rbt.Parameter_File>
/export/apps/rDock/src/rDock_2013.1_src/data/scripts/dock_solv.prm

>  <Rbt.Receptor>
prm/pocket_docking_5.prm

>  <SCORE>
-17.0956

>  <SCORE.INTER>
-17.0956

>  <SCORE.INTER.CONST>
1

>  <SCORE.INTER.POLAR>
0

>  <SCORE.INTER.ROT>
0

>  <SCORE.INTER.SOLV>
3.41961

>  <SCORE.INTER.VDW>
-16.1369

>  <SCORE.INTER.norm>
-1.70956

>  <SCORE.INTRA>
0

>  <SCORE.INTRA.DIHEDRAL>
0

>  <SCORE.INTRA.DIHEDRAL.0>
0

>  <SCORE.INTRA.POLAR>
0

>  <SCORE.INTRA.POLAR.0>
0

>  <SCORE.INTRA.REPUL>
0

>  <SCORE.INTRA.REPUL.0>
0

>  <SCORE.INTRA.SOLV>
0

>  <SCORE.INTRA.SOLV.lig_0>
-4.28901

>  <SCORE.INTRA.VDW>
0

>  <SCORE.INTRA.VDW.0>
0

>  <SCORE.INTRA.norm>
0

>  <SCORE.RESTR>
0

>  <SCORE.RESTR.CAVITY>
0

>  <SCORE.RESTR.norm>
0

>  <SCORE.SYSTEM>
0

>  <SCORE.SYSTEM.CONST>
0

>  <SCORE.SYSTEM.DIHEDRAL>
0

>  <SCORE.SYSTEM.SOLV>
0

>  <SCORE.SYSTEM.norm>
0

>  <SCORE.heavy>
10

>  <SCORE.norm>
-1.70956

>  <RMSD>
0.815

$$$$
ligand
 OpenBabel11021811423D
libRbt.so/2013.1/901 2013/11/27
 10 11  0  0  0  0  0  0  0  0999 V2000
   11.7442   11.3092    8.6441 N   0  0  0  0  0  0  0  0  0  0  0  0
   11.4958   12.6660    8.7398 C   0  0  0  0  0  0  0  0  0  0  0  0
   11.1717   13.4090    7.6728 N   0  0  0  0  0  0  0  0  0  0  0  0
   11.1196   12.6963    6.5176 C   0  0  0  0  0  0  0  0  0  0  0  0
   11.3567   11.3437    6.3495 C   0  0  0  0  0  0  0  0  0  0  0  0
   11.7010   10.5415    7.4759 C   0  0  0  0  0  0  0  0  0  0  0  0
   11.9512    9.3303    7.5560 O   0  0  0  0  0  0  0  0  0  0  0  0
   11.1968   11.0404    5.0254 N   0  0  0  0  0  0  0  0  0  0  0  0
   10.8645   12.1986    4.4025 C   0  0  0  0  0  0  0  0  0  0  0  0
   10.8096   13.2377    5.2954 N   0  0  0  0  0  0  0  0  0  0  0  0
  1  2  1  0  0  0  0
  1  6  1  0  0  0  0
  2  3  2  0  0  0  0
  3  4  1  0  0  0  0
  4  5  2  0  0  0  0
  4 10  1  0  0  0  0
  5  6  1  0  0  0  0
  5  8  1  0  0  0  0
  6  7  2  0  0  0  0
  8  9  1  0  0  0  0
  9 10  2  0  0  0  0
M  END
>  <CHROM.1>
11.35286154,11.73188843,6.78515315,0.33105572,-1.31924975,0.86703558

>  <Name>
ligand

>  <RI>
0

>  <Rbt.Current_Directory>
/home/itssahil/PROJECTS/Mol_Feturizer/New_Systems/rnas/2EEW

>  <Rbt.Executable>
rbdock ($Id: //depot/dev/client3/rdock/2013.1/src/exe/rbdock.cxx#4 $)

>  <Rbt.Library>
libRbt.so (2013.1, Build901 2013/11/27)

>  <Rbt.Parameter_File>
/export/apps/rDock/src/rDock_2013.1_src/data/scripts/dock_solv.prm

>  <Rbt.Receptor>
prm/pocket_docking_3.prm

>  <SCORE>
-17.0651

>  <SCORE.INTER>
-17.0651

>  <SCORE.INTER.CONST>
1

>  <SCORE.INTER.POLAR>
0

>  <SCORE.INTER.ROT>
0

>  <SCORE.INTER.SOLV>
3.32365

>  <SCORE.INTER.VDW>
-16.0846

>  <SCORE.INTER.norm>
-1.70651

>  <SCORE.INTRA>
0

>  <SCORE.INTRA.DIHEDRAL>
0

>  <SCORE.INTRA.DIHEDRAL.0>
0

>  <SCORE.INTRA.POLAR>
0

>  <SCORE.INTRA.POLAR.0>
0

>  <SCORE.INTRA.REPUL>
0

>  <SCORE.INTRA.REPUL.0>
0

>  <SCORE.INTRA.SOLV>
0

>  <SCORE.INTRA.SOLV.lig_0>
-4.28901

>  <SCORE.INTRA.VDW>
0

>  <SCORE.INTRA.VDW.0>
0

>  <SCORE.INTRA.norm>
0

>  <SCORE.RESTR>
0

>  <SCORE.RESTR.CAVITY>
0

>  <SCORE.RESTR.norm>
0

>  <SCORE.SYSTEM>
0

>  <SCORE.SYSTEM.CONST>
0

>  <SCORE.SYSTEM.DIHEDRAL>
0

>  <SCORE.SYSTEM.SOLV>
0

>  <SCORE.SYSTEM.norm>
0

>  <SCORE.heavy>
10

>  <SCORE.norm>
-1.70651

>  <RMSD>
0.825

$$$$
ligand
 OpenBabel11021811423D
libRbt.so/2013.1/901 2013/11/27
 10 11  0  0  0  0  0  0  0  0999 V2000
   11.7414   11.3045    8.6425 N   0  0  0  0  0  0  0  0  0  0  0  0
   11.4933   12.6613    8.7395 C   0  0  0  0  0  0  0  0  0  0  0  0
   11.1680   13.4051    7.6734 N   0  0  0  0  0  0  0  0  0  0  0  0
   11.1143   12.6933    6.5177 C   0  0  0  0  0  0  0  0  0  0  0  0
   11.3510   11.3407    6.3484 C   0  0  0  0  0  0  0  0  0  0  0  0
   11.6966   10.5377    7.4738 C   0  0  0  0  0  0  0  0  0  0  0  0
   11.9467    9.3264    7.5527 O   0  0  0  0  0  0  0  0  0  0  0  0
   11.1894   11.0384    5.0243 N   0  0  0  0  0  0  0  0  0  0  0  0
   10.8565   12.1971    4.4027 C   0  0  0  0  0  0  0  0  0  0  0  0
   10.8028   13.2356    5.2963 N   0  0  0  0  0  0  0  0  0  0  0  0
  1  2  1  0  0  0  0
  1  6  1  0  0  0  0
  2  3  2  0  0  0  0
  3  4  1  0  0  0  0
  4  5  2  0  0  0  0
  4 10  1  0  0  0  0
  5  6  1  0  0  0  0
  5  8  1  0  0  0  0
  6  7  2  0  0  0  0
  8  9  1  0  0  0  0
  9 10  2  0  0  0  0
M  END
>  <CHROM.1>
11.34777411,11.72861906,6.78431675,0.32679160,-1.31854431,0.86360880

>  <Name>
ligand

>  <RI>
0

>  <Rbt.Current_Directory>
/home/itssahil/PROJECTS/Mol_Feturizer/New_Systems/rnas/2EEW

>  <Rbt.Executable>
rbdock ($Id: //depot/dev/client3/rdock/2013.1/src/exe/rbdock.cxx#4 $)

>  <Rbt.Library>
libRbt.so (2013.1, Build901 2013/11/27)

>  <Rbt.Parameter_File>
/export/apps/rDock/src/rDock_2013.1_src/data/scripts/dock_solv.prm

>  <Rbt.Receptor>
prm/pocket_docking_3.prm

>  <SCORE>
-17.0663

>  <SCORE.INTER>
-17.0663

>  <SCORE.INTER.CONST>
1

>  <SCORE.INTER.POLAR>
0

>  <SCORE.INTER.ROT>
0

>  <SCORE.INTER.SOLV>
3.3231

>  <SCORE.INTER.VDW>
-16.0853

>  <SCORE.INTER.norm>
-1.70663

>  <SCORE.INTRA>
0

>  <SCORE.INTRA.DIHEDRAL>
0

>  <SCORE.INTRA.DIHEDRAL.0>
0

>  <SCORE.INTRA.POLAR>
0

>  <SCORE.INTRA.POLAR.0>
0

>  <SCORE.INTRA.REPUL>
0

>  <SCORE.INTRA.REPUL.0>
0

>  <SCORE.INTRA.SOLV>
0

>  <SCORE.INTRA.SOLV.lig_0>
-4.28901

>  <SCORE.INTRA.VDW>
0

>  <SCORE.INTRA.VDW.0>
0

>  <SCORE.INTRA.norm>
0

>  <SCORE.RESTR>
0

>  <SCORE.RESTR.CAVITY>
0

>  <SCORE.RESTR.norm>
0

>  <SCORE.SYSTEM>
0

>  <SCORE.SYSTEM.CONST>
0

>  <SCORE.SYSTEM.DIHEDRAL>
0

>  <SCORE.SYSTEM.SOLV>
0

>  <SCORE.SYSTEM.norm>
0

>  <SCORE.heavy>
10

>  <SCORE.norm>
-1.70663

>  <RMSD>
0.826

$$$$
ligand
 OpenBabel11021811423D
libRbt.so/2013.1/901 2013/11/27
 10 11  0  0  0  0  0  0  0  0999 V2000
   11.7452   11.3097    8.6419 N   0  0  0  0  0  0  0  0  0  0  0  0
   11.4948   12.6660    8.7395 C   0  0  0  0  0  0  0  0  0  0  0  0
   11.1691   13.4099    7.6737 N   0  0  0  0  0  0  0  0  0  0  0  0
   11.1174   12.6986    6.5175 C   0  0  0  0  0  0  0  0  0  0  0  0
   11.3565   11.3466    6.3476 C   0  0  0  0  0  0  0  0  0  0  0  0
   11.7026   10.5434    7.4727 C   0  0  0  0  0  0  0  0  0  0  0  0
   11.9546    9.3325    7.5511 O   0  0  0  0  0  0  0  0  0  0  0  0
   11.1963   11.0448    5.0232 N   0  0  0  0  0  0  0  0  0  0  0  0
   10.8620   12.2033    4.4020 C   0  0  0  0  0  0  0  0  0  0  0  0
   10.8059   13.2412    5.2962 N   0  0  0  0  0  0  0  0  0  0  0  0
  1  2  1  0  0  0  0
  1  6  1  0  0  0  0
  2  3  2  0  0  0  0
  3  4  1  0  0  0  0
  4  5  2  0  0  0  0
  4 10  1  0  0  0  0
  5  6  1  0  0  0  0
  5  8  1  0  0  0  0
  6  7  2  0  0  0  0
  8  9  1  0  0  0  0
  9 10  2  0  0  0  0
M  END
>  <CHROM.1>
11.35226420,11.73420386,6.78371586,0.33332278,-1.31776776,0.87052943

>  <Name>
ligand

>  <RI>
0

>  <Rbt.Current_Directory>
/home/itssahil/PROJECTS/Mol_Feturizer/New_Systems/rnas/2EEW

>  <Rbt.Executable>
rbdock ($Id: //depot/dev/client3/rdock/2013.1/src/exe/rbdock.cxx#4 $)

>  <Rbt.Library>
libRbt.so (2013.1, Build901 2013/11/27)

>  <Rbt.Parameter_File>
/export/apps/rDock/src/rDock_2013.1_src/data/scripts/dock_solv.prm

>  <Rbt.Receptor>
prm/blind_docking_80.prm

>  <SCORE>
-17.0622

>  <SCORE.INTER>
-17.0622

>  <SCORE.INTER.CONST>
1

>  <SCORE.INTER.POLAR>
0

>  <SCORE.INTER.ROT>
0

>  <SCORE.INTER.SOLV>
3.31766

>  <SCORE.INTER.VDW>
-16.0807

>  <SCORE.INTER.norm>
-1.70622

>  <SCORE.INTRA>
0

>  <SCORE.INTRA.DIHEDRAL>
0

>  <SCORE.INTRA.DIHEDRAL.0>
0

>  <SCORE.INTRA.POLAR>
0

>  <SCORE.INTRA.POLAR.0>
0

>  <SCORE.INTRA.REPUL>
0

>  <SCORE.INTRA.REPUL.0>
0

>  <SCORE.INTRA.SOLV>
0

>  <SCORE.INTRA.SOLV.lig_0>
-4.28901

>  <SCORE.INTRA.VDW>
0

>  <SCORE.INTRA.VDW.0>
0

>  <SCORE.INTRA.norm>
0

>  <SCORE.RESTR>
0

>  <SCORE.RESTR.CAVITY>
0

>  <SCORE.RESTR.norm>
0

>  <SCORE.SYSTEM>
0

>  <SCORE.SYSTEM.CONST>
0

>  <SCORE.SYSTEM.DIHEDRAL>
0

>  <SCORE.SYSTEM.SOLV>
0

>  <SCORE.SYSTEM.norm>
0

>  <SCORE.heavy>
10

>  <SCORE.norm>
-1.70622

>  <RMSD>
0.827

$$$$
ligand
 OpenBabel11021811423D
libRbt.so/2013.1/901 2013/11/27
 10 11  0  0  0  0  0  0  0  0999 V2000
   11.7407   11.3011    8.6391 N   0  0  0  0  0  0  0  0  0  0  0  0
   11.5023   12.6593    8.7398 C   0  0  0  0  0  0  0  0  0  0  0  0
   11.1808   13.4081    7.6760 N   0  0  0  0  0  0  0  0  0  0  0  0
   11.1205   12.6995    6.5187 C   0  0  0  0  0  0  0  0  0  0  0  0
   11.3474   11.3457    6.3457 C   0  0  0  0  0  0  0  0  0  0  0  0
   11.6889   10.5374    7.4685 C   0  0  0  0  0  0  0  0  0  0  0  0
   11.9305    9.3242    7.5441 O   0  0  0  0  0  0  0  0  0  0  0  0
   11.1819   11.0478    5.0210 N   0  0  0  0  0  0  0  0  0  0  0  0
   10.8563   12.2104    4.4027 C   0  0  0  0  0  0  0  0  0  0  0  0
   10.8112   13.2470    5.2990 N   0  0  0  0  0  0  0  0  0  0  0  0
  1  2  1  0  0  0  0
  1  6  1  0  0  0  0
  2  3  2  0  0  0  0
  3  4  1  0  0  0  0
  4  5  2  0  0  0  0
  4 10  1  0  0  0  0
  5  6  1  0  0  0  0
  5  8  1  0  0  0  0
  6  7  2  0  0  0  0
  8  9  1  0  0  0  0
  9 10  2  0  0  0  0
M  END
>  <CHROM.1>
11.34751065,11.73254453,6.78252460,0.30381704,-1.32296265,0.84383356

>  <Name>
ligand

>  <RI>
0

>  <Rbt.Current_Directory>
/home/itssahil/PROJECTS/Mol_Feturizer/New_Systems/rnas/2EEW

>  <Rbt.Executable>
rbdock ($Id: //depot/dev/client3/rdock/2013.1/src/exe/rbdock.cxx#4 $)

>  <Rbt.Library>
libRbt.so (2013.1, Build901 2013/11/27)

>  <Rbt.Parameter_File>
/export/apps/rDock/src/rDock_2013.1_src/data/scripts/dock_solv.prm

>  <Rbt.Receptor>
prm/blind_docking_60.prm

>  <SCORE>
-17.0733

>  <SCORE.INTER>
-17.0733

>  <SCORE.INTER.CONST>
1

>  <SCORE.INTER.POLAR>
0

>  <SCORE.INTER.ROT>
0

>  <SCORE.INTER.SOLV>
3.338

>  <SCORE.INTER.VDW>
-16.0948

>  <SCORE.INTER.norm>
-1.70733

>  <SCORE.INTRA>
0

>  <SCORE.INTRA.DIHEDRAL>
0

>  <SCORE.INTRA.DIHEDRAL.0>
0

>  <SCORE.INTRA.POLAR>
0

>  <SCORE.INTRA.POLAR.0>
0

>  <SCORE.INTRA.REPUL>
0

>  <SCORE.INTRA.REPUL.0>
0

>  <SCORE.INTRA.SOLV>
0

>  <SCORE.INTRA.SOLV.lig_0>
-4.28901

>  <SCORE.INTRA.VDW>
0

>  <SCORE.INTRA.VDW.0>
0

>  <SCORE.INTRA.norm>
0

>  <SCORE.RESTR>
0

>  <SCORE.RESTR.CAVITY>
0

>  <SCORE.RESTR.norm>
0

>  <SCORE.SYSTEM>
0

>  <SCORE.SYSTEM.CONST>
0

>  <SCORE.SYSTEM.DIHEDRAL>
0

>  <SCORE.SYSTEM.SOLV>
0

>  <SCORE.SYSTEM.norm>
0

>  <SCORE.heavy>
10

>  <SCORE.norm>
-1.70733

>  <RMSD>
0.828

$$$$
ligand
 OpenBabel11021811423D
libRbt.so/2013.1/901 2013/11/27
 10 11  0  0  0  0  0  0  0  0999 V2000
   11.7518   11.3153    8.6362 N   0  0  0  0  0  0  0  0  0  0  0  0
   11.5205   12.6751    8.7323 C   0  0  0  0  0  0  0  0  0  0  0  0
   11.1984   13.4211    7.6668 N   0  0  0  0  0  0  0  0  0  0  0  0
   11.1299   12.7082    6.5126 C   0  0  0  0  0  0  0  0  0  0  0  0
   11.3494   11.3526    6.3442 C   0  0  0  0  0  0  0  0  0  0  0  0
   11.6915   10.5472    7.4690 C   0  0  0  0  0  0  0  0  0  0  0  0
   11.9274    9.3331    7.5485 O   0  0  0  0  0  0  0  0  0  0  0  0
   11.1770   11.0502    5.0215 N   0  0  0  0  0  0  0  0  0  0  0  0
   10.8546   12.2119    4.3998 C   0  0  0  0  0  0  0  0  0  0  0  0
   10.8183   13.2523    5.2920 N   0  0  0  0  0  0  0  0  0  0  0  0
  1  2  1  0  0  0  0
  1  6  1  0  0  0  0
  2  3  2  0  0  0  0
  3  4  1  0  0  0  0
  4  5  2  0  0  0  0
  4 10  1  0  0  0  0
  5  6  1  0  0  0  0
  5  8  1  0  0  0  0
  6  7  2  0  0  0  0
  8  9  1  0  0  0  0
  9 10  2  0  0  0  0
M  END
>  <CHROM.1>
11.35319770,11.74120244,6.77949912,0.27798422,-1.32386239,0.81473101

>  <Name>
ligand

>  <RI>
0

>  <Rbt.Current_Directory>
/home/itssahil/PROJECTS/Mol_Feturizer/New_Systems/rnas/2EEW

>  <Rbt.Executable>
rbdock ($Id: //depot/dev/client3/rdock/2013.1/src/exe/rbdock.cxx#4 $)

>  <Rbt.Library>
libRbt.so (2013.1, Build901 2013/11/27)

>  <Rbt.Parameter_File>
/export/apps/rDock/src/rDock_2013.1_src/data/scripts/dock_solv.prm

>  <Rbt.Receptor>
prm/blind_docking_40.prm

>  <SCORE>
-17.0468

>  <SCORE.INTER>
-17.0468

>  <SCORE.INTER.CONST>
1

>  <SCORE.INTER.POLAR>
0

>  <SCORE.INTER.ROT>
0

>  <SCORE.INTER.SOLV>
3.34649

>  <SCORE.INTER.VDW>
-16.0801

>  <SCORE.INTER.norm>
-1.70468

>  <SCORE.INTRA>
0

>  <SCORE.INTRA.DIHEDRAL>
0

>  <SCORE.INTRA.DIHEDRAL.0>
0

>  <SCORE.INTRA.POLAR>
0

>  <SCORE.INTRA.POLAR.0>
0

>  <SCORE.INTRA.REPUL>
0

>  <SCORE.INTRA.REPUL.0>
0

>  <SCORE.INTRA.SOLV>
0

>  <SCORE.INTRA.SOLV.lig_0>
-4.28901

>  <SCORE.INTRA.VDW>
0

>  <SCORE.INTRA.VDW.0>
0

>  <SCORE.INTRA.norm>
0

>  <SCORE.RESTR>
0

>  <SCORE.RESTR.CAVITY>
0

>  <SCORE.RESTR.norm>
0

>  <SCORE.SYSTEM>
0

>  <SCORE.SYSTEM.CONST>
0

>  <SCORE.SYSTEM.DIHEDRAL>
0

>  <SCORE.SYSTEM.SOLV>
0

>  <SCORE.SYSTEM.norm>
0

>  <SCORE.heavy>
10

>  <SCORE.norm>
-1.70468

>  <RMSD>
0.834

$$$$
ligand
 OpenBabel11021811423D
libRbt.so/2013.1/901 2013/11/27
 10 11  0  0  0  0  0  0  0  0999 V2000
   11.7541   11.3034    8.6277 N   0  0  0  0  0  0  0  0  0  0  0  0
   11.5099   12.6605    8.7304 C   0  0  0  0  0  0  0  0  0  0  0  0
   11.1779   13.4080    7.6690 N   0  0  0  0  0  0  0  0  0  0  0  0
   11.1136   12.6995    6.5118 C   0  0  0  0  0  0  0  0  0  0  0  0
   11.3459   11.3468    6.3369 C   0  0  0  0  0  0  0  0  0  0  0  0
   11.6984   10.5399    7.4573 C   0  0  0  0  0  0  0  0  0  0  0  0
   11.9464    9.3278    7.5309 O   0  0  0  0  0  0  0  0  0  0  0  0
   11.1733   11.0486    5.0132 N   0  0  0  0  0  0  0  0  0  0  0  0
   10.8382   12.2098    4.3974 C   0  0  0  0  0  0  0  0  0  0  0  0
   10.7939   13.2459    5.2943 N   0  0  0  0  0  0  0  0  0  0  0  0
  1  2  1  0  0  0  0
  1  6  1  0  0  0  0
  2  3  2  0  0  0  0
  3  4  1  0  0  0  0
  4  5  2  0  0  0  0
  4 10  1  0  0  0  0
  5  6  1  0  0  0  0
  5  8  1  0  0  0  0
  6  7  2  0  0  0  0
  8  9  1  0  0  0  0
  9 10  2  0  0  0  0
M  END
>  <CHROM.1>
11.34694417,11.73354285,6.77386725,0.29750144,-1.31511202,0.83804125

>  <Name>
ligand

>  <RI>
0

>  <Rbt.Current_Directory>
/home/itssahil/PROJECTS/Mol_Feturizer/New_Systems/rnas/2EEW

>  <Rbt.Executable>
rbdock ($Id: //depot/dev/client3/rdock/2013.1/src/exe/rbdock.cxx#4 $)

>  <Rbt.Library>
libRbt.so (2013.1, Build901 2013/11/27)

>  <Rbt.Parameter_File>
/export/apps/rDock/src/rDock_2013.1_src/data/scripts/dock_solv.prm

>  <Rbt.Receptor>
prm/blind_docking_40.prm

>  <SCORE>
-17.0697

>  <SCORE.INTER>
-17.0697

>  <SCORE.INTER.CONST>
1

>  <SCORE.INTER.POLAR>
0

>  <SCORE.INTER.ROT>
0

>  <SCORE.INTER.SOLV>
3.31568

>  <SCORE.INTER.VDW>
-16.085

>  <SCORE.INTER.norm>
-1.70697

>  <SCORE.INTRA>
0

>  <SCORE.INTRA.DIHEDRAL>
0

>  <SCORE.INTRA.DIHEDRAL.0>
0

>  <SCORE.INTRA.POLAR>
0

>  <SCORE.INTRA.POLAR.0>
0

>  <SCORE.INTRA.REPUL>
0

>  <SCORE.INTRA.REPUL.0>
0

>  <SCORE.INTRA.SOLV>
0

>  <SCORE.INTRA.SOLV.lig_0>
-4.28901

>  <SCORE.INTRA.VDW>
0

>  <SCORE.INTRA.VDW.0>
0

>  <SCORE.INTRA.norm>
0

>  <SCORE.RESTR>
0

>  <SCORE.RESTR.CAVITY>
0

>  <SCORE.RESTR.norm>
0

>  <SCORE.SYSTEM>
0

>  <SCORE.SYSTEM.CONST>
0

>  <SCORE.SYSTEM.DIHEDRAL>
0

>  <SCORE.SYSTEM.SOLV>
0

>  <SCORE.SYSTEM.norm>
0

>  <SCORE.heavy>
10

>  <SCORE.norm>
-1.70697

>  <RMSD>
0.834

$$$$
ligand
 OpenBabel11021811423D
libRbt.so/2013.1/901 2013/11/27
 10 11  0  0  0  0  0  0  0  0999 V2000
   11.7460   11.3044    8.6279 N   0  0  0  0  0  0  0  0  0  0  0  0
   11.5058   12.6622    8.7298 C   0  0  0  0  0  0  0  0  0  0  0  0
   11.1785   13.4105    7.6675 N   0  0  0  0  0  0  0  0  0  0  0  0
   11.1144   12.7020    6.5104 C   0  0  0  0  0  0  0  0  0  0  0  0
   11.3428   11.3486    6.3362 C   0  0  0  0  0  0  0  0  0  0  0  0
   11.6904   10.5408    7.4576 C   0  0  0  0  0  0  0  0  0  0  0  0
   11.9344    9.3280    7.5320 O   0  0  0  0  0  0  0  0  0  0  0  0
   11.1720   11.0506    5.0123 N   0  0  0  0  0  0  0  0  0  0  0  0
   10.8419   12.2127    4.3955 C   0  0  0  0  0  0  0  0  0  0  0  0
   10.7989   13.2491    5.2921 N   0  0  0  0  0  0  0  0  0  0  0  0
  1  2  1  0  0  0  0
  1  6  1  0  0  0  0
  2  3  2  0  0  0  0
  3  4  1  0  0  0  0
  4  5  2  0  0  0  0
  4 10  1  0  0  0  0
  5  6  1  0  0  0  0
  5  8  1  0  0  0  0
  6  7  2  0  0  0  0
  8  9  1  0  0  0  0
  9 10  2  0  0  0  0
M  END
>  <CHROM.1>
11.34413922,11.73537625,6.77314395,0.29535968,-1.31884784,0.83573968

>  <Name>
ligand

>  <RI>
0

>  <Rbt.Current_Directory>
/home/itssahil/PROJECTS/Mol_Feturizer/New_Systems/rnas/2EEW

>  <Rbt.Executable>
rbdock ($Id: //depot/dev/client3/rdock/2013.1/src/exe/rbdock.cxx#4 $)

>  <Rbt.Library>
libRbt.so (2013.1, Build901 2013/11/27)

>  <Rbt.Parameter_File>
/export/apps/rDock/src/rDock_2013.1_src/data/scripts/dock_solv.prm

>  <Rbt.Receptor>
prm/blind_docking_40.prm

>  <SCORE>
-17.0741

>  <SCORE.INTER>
-17.0741

>  <SCORE.INTER.CONST>
1

>  <SCORE.INTER.POLAR>
0

>  <SCORE.INTER.ROT>
0

>  <SCORE.INTER.SOLV>
3.3277

>  <SCORE.INTER.VDW>
-16.0919

>  <SCORE.INTER.norm>
-1.70741

>  <SCORE.INTRA>
0

>  <SCORE.INTRA.DIHEDRAL>
0

>  <SCORE.INTRA.DIHEDRAL.0>
0

>  <SCORE.INTRA.POLAR>
0

>  <SCORE.INTRA.POLAR.0>
0

>  <SCORE.INTRA.REPUL>
0

>  <SCORE.INTRA.REPUL.0>
0

>  <SCORE.INTRA.SOLV>
0

>  <SCORE.INTRA.SOLV.lig_0>
-4.28901

>  <SCORE.INTRA.VDW>
0

>  <SCORE.INTRA.VDW.0>
0

>  <SCORE.INTRA.norm>
0

>  <SCORE.RESTR>
0

>  <SCORE.RESTR.CAVITY>
0

>  <SCORE.RESTR.norm>
0

>  <SCORE.SYSTEM>
0

>  <SCORE.SYSTEM.CONST>
0

>  <SCORE.SYSTEM.DIHEDRAL>
0

>  <SCORE.SYSTEM.SOLV>
0

>  <SCORE.SYSTEM.norm>
0

>  <SCORE.heavy>
10

>  <SCORE.norm>
-1.70741

>  <RMSD>
0.837

$$$$
ligand
 OpenBabel11021811423D
libRbt.so/2013.1/901 2013/11/27
 10 11  0  0  0  0  0  0  0  0999 V2000
   11.7493   11.3115    8.6271 N   0  0  0  0  0  0  0  0  0  0  0  0
   11.4967   12.6671    8.7287 C   0  0  0  0  0  0  0  0  0  0  0  0
   11.1633   13.4122    7.6660 N   0  0  0  0  0  0  0  0  0  0  0  0
   11.1064   12.7029    6.5089 C   0  0  0  0  0  0  0  0  0  0  0  0
   11.3472   11.3517    6.3352 C   0  0  0  0  0  0  0  0  0  0  0  0
   11.7014   10.5472    7.4569 C   0  0  0  0  0  0  0  0  0  0  0  0
   11.9564    9.3367    7.5316 O   0  0  0  0  0  0  0  0  0  0  0  0
   11.1800   11.0519    5.0112 N   0  0  0  0  0  0  0  0  0  0  0  0
   10.8397   12.2109    4.3940 C   0  0  0  0  0  0  0  0  0  0  0  0
   10.7867   13.2470    5.2904 N   0  0  0  0  0  0  0  0  0  0  0  0
  1  2  1  0  0  0  0
  1  6  1  0  0  0  0
  2  3  2  0  0  0  0
  3  4  1  0  0  0  0
  4  5  2  0  0  0  0
  4 10  1  0  0  0  0
  5  6  1  0  0  0  0
  5  8  1  0  0  0  0
  6  7  2  0  0  0  0
  8  9  1  0  0  0  0
  9 10  2  0  0  0  0
M  END
>  <CHROM.1>
11.34473109,11.73851711,6.77201321,0.32106737,-1.31247301,0.86045399

>  <Name>
ligand

>  <RI>
0

>  <Rbt.Current_Directory>
/home/itssahil/PROJECTS/Mol_Feturizer/New_Systems/rnas/2EEW

>  <Rbt.Executable>
rbdock ($Id: //depot/dev/client3/rdock/2013.1/src/exe/rbdock.cxx#4 $)

>  <Rbt.Library>
libRbt.so (2013.1, Build901 2013/11/27)

>  <Rbt.Parameter_File>
/export/apps/rDock/src/rDock_2013.1_src/data/scripts/dock_solv.prm

>  <Rbt.Receptor>
prm/pocket_docking_3.prm

>  <SCORE>
-17.0614

>  <SCORE.INTER>
-17.0614

>  <SCORE.INTER.CONST>
1

>  <SCORE.INTER.POLAR>
0

>  <SCORE.INTER.ROT>
0

>  <SCORE.INTER.SOLV>
3.30343

>  <SCORE.INTER.VDW>
-16.0754

>  <SCORE.INTER.norm>
-1.70614

>  <SCORE.INTRA>
0

>  <SCORE.INTRA.DIHEDRAL>
0

>  <SCORE.INTRA.DIHEDRAL.0>
0

>  <SCORE.INTRA.POLAR>
0

>  <SCORE.INTRA.POLAR.0>
0

>  <SCORE.INTRA.REPUL>
0

>  <SCORE.INTRA.REPUL.0>
0

>  <SCORE.INTRA.SOLV>
0

>  <SCORE.INTRA.SOLV.lig_0>
-4.28901

>  <SCORE.INTRA.VDW>
0

>  <SCORE.INTRA.VDW.0>
0

>  <SCORE.INTRA.norm>
0

>  <SCORE.RESTR>
0

>  <SCORE.RESTR.CAVITY>
0

>  <SCORE.RESTR.norm>
0

>  <SCORE.SYSTEM>
0

>  <SCORE.SYSTEM.CONST>
0

>  <SCORE.SYSTEM.DIHEDRAL>
0

>  <SCORE.SYSTEM.SOLV>
0

>  <SCORE.SYSTEM.norm>
0

>  <SCORE.heavy>
10

>  <SCORE.norm>
-1.70614

>  <RMSD>
0.838

$$$$
ligand
 OpenBabel11021811423D
libRbt.so/2013.1/901 2013/11/27
 10 11  0  0  0  0  0  0  0  0999 V2000
   11.7477   11.3085    8.6281 N   0  0  0  0  0  0  0  0  0  0  0  0
   11.5022   12.6655    8.7289 C   0  0  0  0  0  0  0  0  0  0  0  0
   11.1731   13.4118    7.6658 N   0  0  0  0  0  0  0  0  0  0  0  0
   11.1128   12.7023    6.5091 C   0  0  0  0  0  0  0  0  0  0  0  0
   11.3464   11.3497    6.3360 C   0  0  0  0  0  0  0  0  0  0  0  0
   11.6961   10.5439    7.4582 C   0  0  0  0  0  0  0  0  0  0  0  0
   11.9446    9.3321    7.5336 O   0  0  0  0  0  0  0  0  0  0  0  0
   11.1781   11.0502    5.0121 N   0  0  0  0  0  0  0  0  0  0  0  0
   10.8440   12.2106    4.3943 C   0  0  0  0  0  0  0  0  0  0  0  0
   10.7963   13.2475    5.2902 N   0  0  0  0  0  0  0  0  0  0  0  0
  1  2  1  0  0  0  0
  1  6  1  0  0  0  0
  2  3  2  0  0  0  0
  3  4  1  0  0  0  0
  4  5  2  0  0  0  0
  4 10  1  0  0  0  0
  5  6  1  0  0  0  0
  5  8  1  0  0  0  0
  6  7  2  0  0  0  0
  8  9  1  0  0  0  0
  9 10  2  0  0  0  0
M  END
>  <CHROM.1>
11.34589898,11.73675197,6.77270425,0.30824238,-1.31663830,0.84757539

>  <Name>
ligand

>  <RI>
0

>  <Rbt.Current_Directory>
/home/itssahil/PROJECTS/Mol_Feturizer/New_Systems/rnas/2EEW

>  <Rbt.Executable>
rbdock ($Id: //depot/dev/client3/rdock/2013.1/src/exe/rbdock.cxx#4 $)

>  <Rbt.Library>
libRbt.so (2013.1, Build901 2013/11/27)

>  <Rbt.Parameter_File>
/export/apps/rDock/src/rDock_2013.1_src/data/scripts/dock_solv.prm

>  <Rbt.Receptor>
prm/pocket_docking_7.prm

>  <SCORE>
-17.0706

>  <SCORE.INTER>
-17.0706

>  <SCORE.INTER.CONST>
1

>  <SCORE.INTER.POLAR>
0

>  <SCORE.INTER.ROT>
0

>  <SCORE.INTER.SOLV>
3.31874

>  <SCORE.INTER.VDW>
-16.0867

>  <SCORE.INTER.norm>
-1.70706

>  <SCORE.INTRA>
0

>  <SCORE.INTRA.DIHEDRAL>
0

>  <SCORE.INTRA.DIHEDRAL.0>
0

>  <SCORE.INTRA.POLAR>
0

>  <SCORE.INTRA.POLAR.0>
0

>  <SCORE.INTRA.REPUL>
0

>  <SCORE.INTRA.REPUL.0>
0

>  <SCORE.INTRA.SOLV>
0

>  <SCORE.INTRA.SOLV.lig_0>
-4.28901

>  <SCORE.INTRA.VDW>
0

>  <SCORE.INTRA.VDW.0>
0

>  <SCORE.INTRA.norm>
0

>  <SCORE.RESTR>
0

>  <SCORE.RESTR.CAVITY>
0

>  <SCORE.RESTR.norm>
0

>  <SCORE.SYSTEM>
0

>  <SCORE.SYSTEM.CONST>
0

>  <SCORE.SYSTEM.DIHEDRAL>
0

>  <SCORE.SYSTEM.SOLV>
0

>  <SCORE.SYSTEM.norm>
0

>  <SCORE.heavy>
10

>  <SCORE.norm>
-1.70706

>  <RMSD>
0.838

$$$$
ligand
 OpenBabel11021811423D
libRbt.so/2013.1/901 2013/11/27
 10 11  0  0  0  0  0  0  0  0999 V2000
   11.7868   11.2671    8.5959 N   0  0  0  0  0  0  0  0  0  0  0  0
   11.5303   12.6195    8.7268 C   0  0  0  0  0  0  0  0  0  0  0  0
   11.1791   13.3833    7.6833 N   0  0  0  0  0  0  0  0  0  0  0  0
   11.1087   12.6959    6.5138 C   0  0  0  0  0  0  0  0  0  0  0  0
   11.3522   11.3492    6.3110 C   0  0  0  0  0  0  0  0  0  0  0  0
   11.7254   10.5251    7.4120 C   0  0  0  0  0  0  0  0  0  0  0  0
   11.9861    9.3144    7.4600 O   0  0  0  0  0  0  0  0  0  0  0  0
   11.1676   11.0740    4.9839 N   0  0  0  0  0  0  0  0  0  0  0  0
   10.8141   12.2431    4.3938 C   0  0  0  0  0  0  0  0  0  0  0  0
   10.7697   13.2618    5.3105 N   0  0  0  0  0  0  0  0  0  0  0  0
  1  2  1  0  0  0  0
  1  6  1  0  0  0  0
  2  3  2  0  0  0  0
  3  4  1  0  0  0  0
  4  5  2  0  0  0  0
  4 10  1  0  0  0  0
  5  6  1  0  0  0  0
  5  8  1  0  0  0  0
  6  7  2  0  0  0  0
  8  9  1  0  0  0  0
  9 10  2  0  0  0  0
M  END
>  <CHROM.1>
11.35443491,11.72768567,6.75509672,0.29067174,-1.30019993,0.85018497

>  <Name>
ligand

>  <RI>
0

>  <Rbt.Current_Directory>
/home/itssahil/PROJECTS/Mol_Feturizer/New_Systems/rnas/2EEW

>  <Rbt.Executable>
rbdock ($Id: //depot/dev/client3/rdock/2013.1/src/exe/rbdock.cxx#4 $)

>  <Rbt.Library>
libRbt.so (2013.1, Build901 2013/11/27)

>  <Rbt.Parameter_File>
/export/apps/rDock/src/rDock_2013.1_src/data/scripts/dock_solv.prm

>  <Rbt.Receptor>
prm/blind_docking_60.prm

>  <SCORE>
-17.0507

>  <SCORE.INTER>
-17.0507

>  <SCORE.INTER.CONST>
1

>  <SCORE.INTER.POLAR>
0

>  <SCORE.INTER.ROT>
0

>  <SCORE.INTER.SOLV>
3.25831

>  <SCORE.INTER.VDW>
-16.0532

>  <SCORE.INTER.norm>
-1.70507

>  <SCORE.INTRA>
0

>  <SCORE.INTRA.DIHEDRAL>
0

>  <SCORE.INTRA.DIHEDRAL.0>
0

>  <SCORE.INTRA.POLAR>
0

>  <SCORE.INTRA.POLAR.0>
0

>  <SCORE.INTRA.REPUL>
0

>  <SCORE.INTRA.REPUL.0>
0

>  <SCORE.INTRA.SOLV>
0

>  <SCORE.INTRA.SOLV.lig_0>
-4.28901

>  <SCORE.INTRA.VDW>
0

>  <SCORE.INTRA.VDW.0>
0

>  <SCORE.INTRA.norm>
0

>  <SCORE.RESTR>
0

>  <SCORE.RESTR.CAVITY>
0

>  <SCORE.RESTR.norm>
0

>  <SCORE.SYSTEM>
0

>  <SCORE.SYSTEM.CONST>
0

>  <SCORE.SYSTEM.DIHEDRAL>
0

>  <SCORE.SYSTEM.SOLV>
0

>  <SCORE.SYSTEM.norm>
0

>  <SCORE.heavy>
10

>  <SCORE.norm>
-1.70507

>  <RMSD>
0.839

$$$$
ligand
 OpenBabel11021811423D
libRbt.so/2013.1/901 2013/11/27
 10 11  0  0  0  0  0  0  0  0999 V2000
   11.7464   11.3047    8.6224 N   0  0  0  0  0  0  0  0  0  0  0  0
   11.5043   12.6620    8.7270 C   0  0  0  0  0  0  0  0  0  0  0  0
   11.1756   13.4119    7.6662 N   0  0  0  0  0  0  0  0  0  0  0  0
   11.1122   12.7055    6.5077 C   0  0  0  0  0  0  0  0  0  0  0  0
   11.3425   11.3528    6.3309 C   0  0  0  0  0  0  0  0  0  0  0  0
   11.6916   10.5433    7.4505 C   0  0  0  0  0  0  0  0  0  0  0  0
   11.9373    9.3307    7.5225 O   0  0  0  0  0  0  0  0  0  0  0  0
   11.1718   11.0571    5.0064 N   0  0  0  0  0  0  0  0  0  0  0  0
   10.8398   12.2199    4.3920 C   0  0  0  0  0  0  0  0  0  0  0  0
   10.7956   13.2546    5.2906 N   0  0  0  0  0  0  0  0  0  0  0  0
  1  2  1  0  0  0  0
  1  6  1  0  0  0  0
  2  3  2  0  0  0  0
  3  4  1  0  0  0  0
  4  5  2  0  0  0  0
  4 10  1  0  0  0  0
  5  6  1  0  0  0  0
  5  8  1  0  0  0  0
  6  7  2  0  0  0  0
  8  9  1  0  0  0  0
  9 10  2  0  0  0  0
M  END
>  <CHROM.1>
11.34336168,11.73872603,6.76853262,0.29839324,-1.31760290,0.84062207

>  <Name>
ligand

>  <RI>
0

>  <Rbt.Current_Directory>
/home/itssahil/PROJECTS/Mol_Feturizer/New_Systems/rnas/2EEW

>  <Rbt.Executable>
rbdock ($Id: //depot/dev/client3/rdock/2013.1/src/exe/rbdock.cxx#4 $)

>  <Rbt.Library>
libRbt.so (2013.1, Build901 2013/11/27)

>  <Rbt.Parameter_File>
/export/apps/rDock/src/rDock_2013.1_src/data/scripts/dock_solv.prm

>  <Rbt.Receptor>
prm/pocket_docking_3.prm

>  <SCORE>
-17.07

>  <SCORE.INTER>
-17.07

>  <SCORE.INTER.CONST>
1

>  <SCORE.INTER.POLAR>
0

>  <SCORE.INTER.ROT>
0

>  <SCORE.INTER.SOLV>
3.32156

>  <SCORE.INTER.VDW>
-16.0872

>  <SCORE.INTER.norm>
-1.707

>  <SCORE.INTRA>
0

>  <SCORE.INTRA.DIHEDRAL>
0

>  <SCORE.INTRA.DIHEDRAL.0>
0

>  <SCORE.INTRA.POLAR>
0

>  <SCORE.INTRA.POLAR.0>
0

>  <SCORE.INTRA.REPUL>
0

>  <SCORE.INTRA.REPUL.0>
0

>  <SCORE.INTRA.SOLV>
0

>  <SCORE.INTRA.SOLV.lig_0>
-4.28901

>  <SCORE.INTRA.VDW>
0

>  <SCORE.INTRA.VDW.0>
0

>  <SCORE.INTRA.norm>
0

>  <SCORE.RESTR>
0

>  <SCORE.RESTR.CAVITY>
0

>  <SCORE.RESTR.norm>
0

>  <SCORE.SYSTEM>
0

>  <SCORE.SYSTEM.CONST>
0

>  <SCORE.SYSTEM.DIHEDRAL>
0

>  <SCORE.SYSTEM.SOLV>
0

>  <SCORE.SYSTEM.norm>
0

>  <SCORE.heavy>
10

>  <SCORE.norm>
-1.707

>  <RMSD>
0.842

$$$$
ligand
 OpenBabel11021811423D
libRbt.so/2013.1/901 2013/11/27
 10 11  0  0  0  0  0  0  0  0999 V2000
   11.7570   11.2390    8.5887 N   0  0  0  0  0  0  0  0  0  0  0  0
   11.5075   12.5915    8.7314 C   0  0  0  0  0  0  0  0  0  0  0  0
   11.1725   13.3687    7.6925 N   0  0  0  0  0  0  0  0  0  0  0  0
   11.1106   12.6943    6.5149 C   0  0  0  0  0  0  0  0  0  0  0  0
   11.3480   11.3483    6.3002 C   0  0  0  0  0  0  0  0  0  0  0  0
   11.7039   10.5101    7.3963 C   0  0  0  0  0  0  0  0  0  0  0  0
   11.9565    9.2973    7.4342 O   0  0  0  0  0  0  0  0  0  0  0  0
   11.1762   11.0885    4.9684 N   0  0  0  0  0  0  0  0  0  0  0  0
   10.8364   12.2661    4.3871 C   0  0  0  0  0  0  0  0  0  0  0  0
   10.7884   13.2751    5.3141 N   0  0  0  0  0  0  0  0  0  0  0  0
  1  2  1  0  0  0  0
  1  6  1  0  0  0  0
  2  3  2  0  0  0  0
  3  4  1  0  0  0  0
  4  5  2  0  0  0  0
  4 10  1  0  0  0  0
  5  6  1  0  0  0  0
  5  8  1  0  0  0  0
  6  7  2  0  0  0  0
  8  9  1  0  0  0  0
  9 10  2  0  0  0  0
M  END
>  <CHROM.1>
11.34766408,11.72198592,6.74842172,0.30676358,-1.31207335,0.87644553

>  <Name>
ligand

>  <RI>
0

>  <Rbt.Current_Directory>
/home/itssahil/PROJECTS/Mol_Feturizer/New_Systems/rnas/2EEW

>  <Rbt.Executable>
rbdock ($Id: //depot/dev/client3/rdock/2013.1/src/exe/rbdock.cxx#4 $)

>  <Rbt.Library>
libRbt.so (2013.1, Build901 2013/11/27)

>  <Rbt.Parameter_File>
/export/apps/rDock/src/rDock_2013.1_src/data/scripts/dock_solv.prm

>  <Rbt.Receptor>
prm/blind_docking_80.prm

>  <SCORE>
-17.0812

>  <SCORE.INTER>
-17.0812

>  <SCORE.INTER.CONST>
1

>  <SCORE.INTER.POLAR>
0

>  <SCORE.INTER.ROT>
0

>  <SCORE.INTER.SOLV>
3.28965

>  <SCORE.INTER.VDW>
-16.084

>  <SCORE.INTER.norm>
-1.70812

>  <SCORE.INTRA>
0

>  <SCORE.INTRA.DIHEDRAL>
0

>  <SCORE.INTRA.DIHEDRAL.0>
0

>  <SCORE.INTRA.POLAR>
0

>  <SCORE.INTRA.POLAR.0>
0

>  <SCORE.INTRA.REPUL>
0

>  <SCORE.INTRA.REPUL.0>
0

>  <SCORE.INTRA.SOLV>
0

>  <SCORE.INTRA.SOLV.lig_0>
-4.28901

>  <SCORE.INTRA.VDW>
0

>  <SCORE.INTRA.VDW.0>
0

>  <SCORE.INTRA.norm>
0

>  <SCORE.RESTR>
0

>  <SCORE.RESTR.CAVITY>
0

>  <SCORE.RESTR.norm>
0

>  <SCORE.SYSTEM>
0

>  <SCORE.SYSTEM.CONST>
0

>  <SCORE.SYSTEM.DIHEDRAL>
0

>  <SCORE.SYSTEM.SOLV>
0

>  <SCORE.SYSTEM.norm>
0

>  <SCORE.heavy>
10

>  <SCORE.norm>
-1.70812

>  <RMSD>
0.844

$$$$
ligand
 OpenBabel11021811423D
libRbt.so/2013.1/901 2013/11/27
 10 11  0  0  0  0  0  0  0  0999 V2000
   11.7254   11.3249    8.6354 N   0  0  0  0  0  0  0  0  0  0  0  0
   11.4788   12.6825    8.7253 C   0  0  0  0  0  0  0  0  0  0  0  0
   11.1551   13.4212    7.6552 N   0  0  0  0  0  0  0  0  0  0  0  0
   11.1015   12.7035    6.5031 C   0  0  0  0  0  0  0  0  0  0  0  0
   11.3367   11.3498    6.3409 C   0  0  0  0  0  0  0  0  0  0  0  0
   11.6805   10.5521    7.4706 C   0  0  0  0  0  0  0  0  0  0  0  0
   11.9292    9.3410    7.5559 O   0  0  0  0  0  0  0  0  0  0  0  0
   11.1758   11.0410    5.0182 N   0  0  0  0  0  0  0  0  0  0  0  0
   10.8447   12.1969    4.3904 C   0  0  0  0  0  0  0  0  0  0  0  0
   10.7916   13.2400    5.2787 N   0  0  0  0  0  0  0  0  0  0  0  0
  1  2  1  0  0  0  0
  1  6  1  0  0  0  0
  2  3  2  0  0  0  0
  3  4  1  0  0  0  0
  4  5  2  0  0  0  0
  4 10  1  0  0  0  0
  5  6  1  0  0  0  0
  5  8  1  0  0  0  0
  6  7  2  0  0  0  0
  8  9  1  0  0  0  0
  9 10  2  0  0  0  0
M  END
>  <CHROM.1>
11.33363114,11.73996930,6.77478251,0.32607682,-1.31994251,0.85782530

>  <Name>
ligand

>  <RI>
0

>  <Rbt.Current_Directory>
/home/itssahil/PROJECTS/Mol_Feturizer/New_Systems/rnas/2EEW

>  <Rbt.Executable>
rbdock ($Id: //depot/dev/client3/rdock/2013.1/src/exe/rbdock.cxx#4 $)

>  <Rbt.Library>
libRbt.so (2013.1, Build901 2013/11/27)

>  <Rbt.Parameter_File>
/export/apps/rDock/src/rDock_2013.1_src/data/scripts/dock_solv.prm

>  <Rbt.Receptor>
prm/pocket_docking_6.prm

>  <SCORE>
-17.0411

>  <SCORE.INTER>
-17.0411

>  <SCORE.INTER.CONST>
1

>  <SCORE.INTER.POLAR>
0

>  <SCORE.INTER.ROT>
0

>  <SCORE.INTER.SOLV>
3.33233

>  <SCORE.INTER.VDW>
-16.0715

>  <SCORE.INTER.norm>
-1.70411

>  <SCORE.INTRA>
0

>  <SCORE.INTRA.DIHEDRAL>
0

>  <SCORE.INTRA.DIHEDRAL.0>
0

>  <SCORE.INTRA.POLAR>
0

>  <SCORE.INTRA.POLAR.0>
0

>  <SCORE.INTRA.REPUL>
0

>  <SCORE.INTRA.REPUL.0>
0

>  <SCORE.INTRA.SOLV>
0

>  <SCORE.INTRA.SOLV.lig_0>
-4.28901

>  <SCORE.INTRA.VDW>
0

>  <SCORE.INTRA.VDW.0>
0

>  <SCORE.INTRA.norm>
0

>  <SCORE.RESTR>
0

>  <SCORE.RESTR.CAVITY>
0

>  <SCORE.RESTR.norm>
0

>  <SCORE.SYSTEM>
0

>  <SCORE.SYSTEM.CONST>
0

>  <SCORE.SYSTEM.DIHEDRAL>
0

>  <SCORE.SYSTEM.SOLV>
0

>  <SCORE.SYSTEM.norm>
0

>  <SCORE.heavy>
10

>  <SCORE.norm>
-1.70411

>  <RMSD>
0.844

$$$$
ligand
 OpenBabel11021811423D
libRbt.so/2013.1/901 2013/11/27
 10 11  0  0  0  0  0  0  0  0999 V2000
   11.7443   11.2987    8.6160 N   0  0  0  0  0  0  0  0  0  0  0  0
   11.5011   12.6565    8.7118 C   0  0  0  0  0  0  0  0  0  0  0  0
   11.1786   13.4005    7.6450 N   0  0  0  0  0  0  0  0  0  0  0  0
   11.1223   12.6878    6.4900 C   0  0  0  0  0  0  0  0  0  0  0  0
   11.3540   11.3342    6.3219 C   0  0  0  0  0  0  0  0  0  0  0  0
   11.6966   10.5309    7.4481 C   0  0  0  0  0  0  0  0  0  0  0  0
   11.9423    9.3188    7.5281 O   0  0  0  0  0  0  0  0  0  0  0  0
   11.1913   11.0313    4.9981 N   0  0  0  0  0  0  0  0  0  0  0  0
   10.8626   12.1906    4.3754 C   0  0  0  0  0  0  0  0  0  0  0  0
   10.8128   13.2301    5.2680 N   0  0  0  0  0  0  0  0  0  0  0  0
  1  2  1  0  0  0  0
  1  6  1  0  0  0  0
  2  3  2  0  0  0  0
  3  4  1  0  0  0  0
  4  5  2  0  0  0  0
  4 10  1  0  0  0  0
  5  6  1  0  0  0  0
  5  8  1  0  0  0  0
  6  7  2  0  0  0  0
  8  9  1  0  0  0  0
  9 10  2  0  0  0  0
M  END
>  <CHROM.1>
11.35218429,11.72251501,6.75748193,0.31711956,-1.32134634,0.85331473

>  <Name>
ligand

>  <RI>
0

>  <Rbt.Current_Directory>
/home/itssahil/PROJECTS/Mol_Feturizer/New_Systems/rnas/2EEW

>  <Rbt.Executable>
rbdock ($Id: //depot/dev/client3/rdock/2013.1/src/exe/rbdock.cxx#4 $)

>  <Rbt.Library>
libRbt.so (2013.1, Build901 2013/11/27)

>  <Rbt.Parameter_File>
/export/apps/rDock/src/rDock_2013.1_src/data/scripts/dock_solv.prm

>  <Rbt.Receptor>
prm/pocket_docking_3.prm

>  <SCORE>
-17.0394

>  <SCORE.INTER>
-17.0394

>  <SCORE.INTER.CONST>
1

>  <SCORE.INTER.POLAR>
0

>  <SCORE.INTER.ROT>
0

>  <SCORE.INTER.SOLV>
3.33442

>  <SCORE.INTER.VDW>
-16.0711

>  <SCORE.INTER.norm>
-1.70394

>  <SCORE.INTRA>
0

>  <SCORE.INTRA.DIHEDRAL>
0

>  <SCORE.INTRA.DIHEDRAL.0>
0

>  <SCORE.INTRA.POLAR>
0

>  <SCORE.INTRA.POLAR.0>
0

>  <SCORE.INTRA.REPUL>
0

>  <SCORE.INTRA.REPUL.0>
0

>  <SCORE.INTRA.SOLV>
0

>  <SCORE.INTRA.SOLV.lig_0>
-4.28901

>  <SCORE.INTRA.VDW>
0

>  <SCORE.INTRA.VDW.0>
0

>  <SCORE.INTRA.norm>
0

>  <SCORE.RESTR>
0

>  <SCORE.RESTR.CAVITY>
0

>  <SCORE.RESTR.norm>
0

>  <SCORE.SYSTEM>
0

>  <SCORE.SYSTEM.CONST>
0

>  <SCORE.SYSTEM.DIHEDRAL>
0

>  <SCORE.SYSTEM.SOLV>
0

>  <SCORE.SYSTEM.norm>
0

>  <SCORE.heavy>
10

>  <SCORE.norm>
-1.70394

>  <RMSD>
0.847

$$$$
ligand
 OpenBabel11021811423D
libRbt.so/2013.1/901 2013/11/27
 10 11  0  0  0  0  0  0  0  0999 V2000
   11.8057   11.2648    8.5784 N   0  0  0  0  0  0  0  0  0  0  0  0
   11.5681   12.6214    8.7012 C   0  0  0  0  0  0  0  0  0  0  0  0
   11.2287   13.3840    7.6530 N   0  0  0  0  0  0  0  0  0  0  0  0
   11.1500   12.6910    6.4874 C   0  0  0  0  0  0  0  0  0  0  0  0
   11.3749   11.3398    6.2925 C   0  0  0  0  0  0  0  0  0  0  0  0
   11.7352   10.5169    7.3987 C   0  0  0  0  0  0  0  0  0  0  0  0
   11.9789    9.3030    7.4541 O   0  0  0  0  0  0  0  0  0  0  0  0
   11.1879   11.0596    4.9669 N   0  0  0  0  0  0  0  0  0  0  0  0
   10.8514   12.2301    4.3697 C   0  0  0  0  0  0  0  0  0  0  0  0
   10.8203   13.2545    5.2804 N   0  0  0  0  0  0  0  0  0  0  0  0
  1  2  1  0  0  0  0
  1  6  1  0  0  0  0
  2  3  2  0  0  0  0
  3  4  1  0  0  0  0
  4  5  2  0  0  0  0
  4 10  1  0  0  0  0
  5  6  1  0  0  0  0
  5  8  1  0  0  0  0
  6  7  2  0  0  0  0
  8  9  1  0  0  0  0
  9 10  2  0  0  0  0
M  END
>  <CHROM.1>
11.38188019,11.72078925,6.73449313,0.25785605,-1.31131278,0.81274849

>  <Name>
ligand

>  <RI>
0

>  <Rbt.Current_Directory>
/home/itssahil/PROJECTS/Mol_Feturizer/New_Systems/rnas/2EEW

>  <Rbt.Executable>
rbdock ($Id: //depot/dev/client3/rdock/2013.1/src/exe/rbdock.cxx#4 $)

>  <Rbt.Library>
libRbt.so (2013.1, Build901 2013/11/27)

>  <Rbt.Parameter_File>
/export/apps/rDock/src/rDock_2013.1_src/data/scripts/dock_solv.prm

>  <Rbt.Receptor>
prm/pocket_docking_8.prm

>  <SCORE>
-17.0369

>  <SCORE.INTER>
-17.0369

>  <SCORE.INTER.CONST>
1

>  <SCORE.INTER.POLAR>
0

>  <SCORE.INTER.ROT>
0

>  <SCORE.INTER.SOLV>
3.29938

>  <SCORE.INTER.VDW>
-16.0577

>  <SCORE.INTER.norm>
-1.70369

>  <SCORE.INTRA>
0

>  <SCORE.INTRA.DIHEDRAL>
0

>  <SCORE.INTRA.DIHEDRAL.0>
0

>  <SCORE.INTRA.POLAR>
0

>  <SCORE.INTRA.POLAR.0>
0

>  <SCORE.INTRA.REPUL>
0

>  <SCORE.INTRA.REPUL.0>
0

>  <SCORE.INTRA.SOLV>
0

>  <SCORE.INTRA.SOLV.lig_0>
-4.28901

>  <SCORE.INTRA.VDW>
0

>  <SCORE.INTRA.VDW.0>
0

>  <SCORE.INTRA.norm>
0

>  <SCORE.RESTR>
0

>  <SCORE.RESTR.CAVITY>
0

>  <SCORE.RESTR.norm>
0

>  <SCORE.SYSTEM>
0

>  <SCORE.SYSTEM.CONST>
0

>  <SCORE.SYSTEM.DIHEDRAL>
0

>  <SCORE.SYSTEM.SOLV>
0

>  <SCORE.SYSTEM.norm>
0

>  <SCORE.heavy>
10

>  <SCORE.norm>
-1.70369

>  <RMSD>
0.852

$$$$
ligand
 OpenBabel11021811423D
libRbt.so/2013.1/901 2013/11/27
 10 11  0  0  0  0  0  0  0  0999 V2000
   11.7404   11.2601    8.5901 N   0  0  0  0  0  0  0  0  0  0  0  0
   11.4622   12.6090    8.7121 C   0  0  0  0  0  0  0  0  0  0  0  0
   11.1270   13.3664    7.6587 N   0  0  0  0  0  0  0  0  0  0  0  0
   11.0956   12.6764    6.4890 C   0  0  0  0  0  0  0  0  0  0  0  0
   11.3627   11.3329    6.2948 C   0  0  0  0  0  0  0  0  0  0  0  0
   11.7191   10.5155    7.4064 C   0  0  0  0  0  0  0  0  0  0  0  0
   11.9951    9.3086    7.4632 O   0  0  0  0  0  0  0  0  0  0  0  0
   11.2154   11.0532    4.9641 N   0  0  0  0  0  0  0  0  0  0  0  0
   10.8610   12.2165    4.3631 C   0  0  0  0  0  0  0  0  0  0  0  0
   10.7795   13.2358    5.2765 N   0  0  0  0  0  0  0  0  0  0  0  0
  1  2  1  0  0  0  0
  1  6  1  0  0  0  0
  2  3  2  0  0  0  0
  3  4  1  0  0  0  0
  4  5  2  0  0  0  0
  4 10  1  0  0  0  0
  5  6  1  0  0  0  0
  5  8  1  0  0  0  0
  6  7  2  0  0  0  0
  8  9  1  0  0  0  0
  9 10  2  0  0  0  0
M  END
>  <CHROM.1>
11.34843799,11.71197486,6.73817116,0.39771969,-1.30513397,0.95178136

>  <Name>
ligand

>  <RI>
0

>  <Rbt.Current_Directory>
/home/itssahil/PROJECTS/Mol_Feturizer/New_Systems/rnas/2EEW

>  <Rbt.Executable>
rbdock ($Id: //depot/dev/client3/rdock/2013.1/src/exe/rbdock.cxx#4 $)

>  <Rbt.Library>
libRbt.so (2013.1, Build901 2013/11/27)

>  <Rbt.Parameter_File>
/export/apps/rDock/src/rDock_2013.1_src/data/scripts/dock_solv.prm

>  <Rbt.Receptor>
prm/pocket_docking_3.prm

>  <SCORE>
-17.0225

>  <SCORE.INTER>
-17.0225

>  <SCORE.INTER.CONST>
1

>  <SCORE.INTER.POLAR>
0

>  <SCORE.INTER.ROT>
0

>  <SCORE.INTER.SOLV>
3.25941

>  <SCORE.INTER.VDW>
-16.0348

>  <SCORE.INTER.norm>
-1.70225

>  <SCORE.INTRA>
0

>  <SCORE.INTRA.DIHEDRAL>
0

>  <SCORE.INTRA.DIHEDRAL.0>
0

>  <SCORE.INTRA.POLAR>
0

>  <SCORE.INTRA.POLAR.0>
0

>  <SCORE.INTRA.REPUL>
0

>  <SCORE.INTRA.REPUL.0>
0

>  <SCORE.INTRA.SOLV>
0

>  <SCORE.INTRA.SOLV.lig_0>
-4.28901

>  <SCORE.INTRA.VDW>
0

>  <SCORE.INTRA.VDW.0>
0

>  <SCORE.INTRA.norm>
0

>  <SCORE.RESTR>
0

>  <SCORE.RESTR.CAVITY>
0

>  <SCORE.RESTR.norm>
0

>  <SCORE.SYSTEM>
0

>  <SCORE.SYSTEM.CONST>
0

>  <SCORE.SYSTEM.DIHEDRAL>
0

>  <SCORE.SYSTEM.SOLV>
0

>  <SCORE.SYSTEM.norm>
0

>  <SCORE.heavy>
10

>  <SCORE.norm>
-1.70225

>  <RMSD>
0.854

$$$$
ligand
 OpenBabel11021811423D
libRbt.so/2013.1/901 2013/11/27
 10 11  0  0  0  0  0  0  0  0999 V2000
   11.7560   11.2609    8.5854 N   0  0  0  0  0  0  0  0  0  0  0  0
   11.5124   12.6152    8.7211 C   0  0  0  0  0  0  0  0  0  0  0  0
   11.1800   13.3883    7.6783 N   0  0  0  0  0  0  0  0  0  0  0  0
   11.1145   12.7081    6.5044 C   0  0  0  0  0  0  0  0  0  0  0  0
   11.3461   11.3600    6.2966 C   0  0  0  0  0  0  0  0  0  0  0  0
   11.6991   10.5260    7.3968 C   0  0  0  0  0  0  0  0  0  0  0  0
   11.9466    9.3124    7.4409 O   0  0  0  0  0  0  0  0  0  0  0  0
   11.1724   11.0940    4.9662 N   0  0  0  0  0  0  0  0  0  0  0  0
   10.8372   12.2699    4.3790 C   0  0  0  0  0  0  0  0  0  0  0  0
   10.7940   13.2840    5.3007 N   0  0  0  0  0  0  0  0  0  0  0  0
  1  2  1  0  0  0  0
  1  6  1  0  0  0  0
  2  3  2  0  0  0  0
  3  4  1  0  0  0  0
  4  5  2  0  0  0  0
  4 10  1  0  0  0  0
  5  6  1  0  0  0  0
  5  8  1  0  0  0  0
  6  7  2  0  0  0  0
  8  9  1  0  0  0  0
  9 10  2  0  0  0  0
M  END
>  <CHROM.1>
11.34761394,11.73600938,6.74280443,0.29420991,-1.31491048,0.85908646

>  <Name>
ligand

>  <RI>
0

>  <Rbt.Current_Directory>
/home/itssahil/PROJECTS/Mol_Feturizer/New_Systems/rnas/2EEW

>  <Rbt.Executable>
rbdock ($Id: //depot/dev/client3/rdock/2013.1/src/exe/rbdock.cxx#4 $)

>  <Rbt.Library>
libRbt.so (2013.1, Build901 2013/11/27)

>  <Rbt.Parameter_File>
/export/apps/rDock/src/rDock_2013.1_src/data/scripts/dock_solv.prm

>  <Rbt.Receptor>
prm/pocket_docking_3.prm

>  <SCORE>
-17.0928

>  <SCORE.INTER>
-17.0928

>  <SCORE.INTER.CONST>
1

>  <SCORE.INTER.POLAR>
0

>  <SCORE.INTER.ROT>
0

>  <SCORE.INTER.SOLV>
3.30652

>  <SCORE.INTER.VDW>
-16.0974

>  <SCORE.INTER.norm>
-1.70928

>  <SCORE.INTRA>
0

>  <SCORE.INTRA.DIHEDRAL>
0

>  <SCORE.INTRA.DIHEDRAL.0>
0

>  <SCORE.INTRA.POLAR>
0

>  <SCORE.INTRA.POLAR.0>
0

>  <SCORE.INTRA.REPUL>
0

>  <SCORE.INTRA.REPUL.0>
0

>  <SCORE.INTRA.SOLV>
0

>  <SCORE.INTRA.SOLV.lig_0>
-4.28901

>  <SCORE.INTRA.VDW>
0

>  <SCORE.INTRA.VDW.0>
0

>  <SCORE.INTRA.norm>
0

>  <SCORE.RESTR>
0

>  <SCORE.RESTR.CAVITY>
0

>  <SCORE.RESTR.norm>
0

>  <SCORE.SYSTEM>
0

>  <SCORE.SYSTEM.CONST>
0

>  <SCORE.SYSTEM.DIHEDRAL>
0

>  <SCORE.SYSTEM.SOLV>
0

>  <SCORE.SYSTEM.norm>
0

>  <SCORE.heavy>
10

>  <SCORE.norm>
-1.70928

>  <RMSD>
0.855

$$$$
ligand
 OpenBabel11021811423D
libRbt.so/2013.1/901 2013/11/27
 10 11  0  0  0  0  0  0  0  0999 V2000
   11.7466   11.2784    8.5884 N   0  0  0  0  0  0  0  0  0  0  0  0
   11.4809   12.6293    8.7162 C   0  0  0  0  0  0  0  0  0  0  0  0
   11.1392   13.3915    7.6684 N   0  0  0  0  0  0  0  0  0  0  0  0
   11.0881   12.7040    6.4979 C   0  0  0  0  0  0  0  0  0  0  0  0
   11.3418   11.3587    6.2980 C   0  0  0  0  0  0  0  0  0  0  0  0
   11.7050   10.5364    7.4037 C   0  0  0  0  0  0  0  0  0  0  0  0
   11.9718    9.3272    7.4550 O   0  0  0  0  0  0  0  0  0  0  0  0
   11.1763   11.0829    4.9686 N   0  0  0  0  0  0  0  0  0  0  0  0
   10.8241   12.2501    4.3741 C   0  0  0  0  0  0  0  0  0  0  0  0
   10.7620   13.2683    5.2903 N   0  0  0  0  0  0  0  0  0  0  0  0
  1  2  1  0  0  0  0
  1  6  1  0  0  0  0
  2  3  2  0  0  0  0
  3  4  1  0  0  0  0
  4  5  2  0  0  0  0
  4 10  1  0  0  0  0
  5  6  1  0  0  0  0
  5  8  1  0  0  0  0
  6  7  2  0  0  0  0
  8  9  1  0  0  0  0
  9 10  2  0  0  0  0
M  END
>  <CHROM.1>
11.33605309,11.73709577,6.74220127,0.34237874,-1.30440263,0.90027244

>  <Name>
ligand

>  <RI>
0

>  <Rbt.Current_Directory>
/home/itssahil/PROJECTS/Mol_Feturizer/New_Systems/rnas/2EEW

>  <Rbt.Executable>
rbdock ($Id: //depot/dev/client3/rdock/2013.1/src/exe/rbdock.cxx#4 $)

>  <Rbt.Library>
libRbt.so (2013.1, Build901 2013/11/27)

>  <Rbt.Parameter_File>
/export/apps/rDock/src/rDock_2013.1_src/data/scripts/dock_solv.prm

>  <Rbt.Receptor>
prm/pocket_docking_3.prm

>  <SCORE>
-17.0757

>  <SCORE.INTER>
-17.0757

>  <SCORE.INTER.CONST>
1

>  <SCORE.INTER.POLAR>
0

>  <SCORE.INTER.ROT>
0

>  <SCORE.INTER.SOLV>
3.26479

>  <SCORE.INTER.VDW>
-16.072

>  <SCORE.INTER.norm>
-1.70757

>  <SCORE.INTRA>
0

>  <SCORE.INTRA.DIHEDRAL>
0

>  <SCORE.INTRA.DIHEDRAL.0>
0

>  <SCORE.INTRA.POLAR>
0

>  <SCORE.INTRA.POLAR.0>
0

>  <SCORE.INTRA.REPUL>
0

>  <SCORE.INTRA.REPUL.0>
0

>  <SCORE.INTRA.SOLV>
0

>  <SCORE.INTRA.SOLV.lig_0>
-4.28901

>  <SCORE.INTRA.VDW>
0

>  <SCORE.INTRA.VDW.0>
0

>  <SCORE.INTRA.norm>
0

>  <SCORE.RESTR>
0

>  <SCORE.RESTR.CAVITY>
0

>  <SCORE.RESTR.norm>
0

>  <SCORE.SYSTEM>
0

>  <SCORE.SYSTEM.CONST>
0

>  <SCORE.SYSTEM.DIHEDRAL>
0

>  <SCORE.SYSTEM.SOLV>
0

>  <SCORE.SYSTEM.norm>
0

>  <SCORE.heavy>
10

>  <SCORE.norm>
-1.70757

>  <RMSD>
0.859

$$$$
ligand
 OpenBabel11021811423D
libRbt.so/2013.1/901 2013/11/27
 10 11  0  0  0  0  0  0  0  0999 V2000
   11.6500   11.5467    8.7659 N   0  0  0  0  0  0  0  0  0  0  0  0
   11.4435   12.9130    8.7165 C   0  0  0  0  0  0  0  0  0  0  0  0
   11.1660   13.5516    7.5716 N   0  0  0  0  0  0  0  0  0  0  0  0
   11.1151   12.7258    6.4943 C   0  0  0  0  0  0  0  0  0  0  0  0
   11.3118   11.3565    6.4711 C   0  0  0  0  0  0  0  0  0  0  0  0
   11.6064   10.6645    7.6815 C   0  0  0  0  0  0  0  0  0  0  0  0
   11.8156    9.4610    7.8910 O   0  0  0  0  0  0  0  0  0  0  0  0
   11.1699   10.9235    5.1815 N   0  0  0  0  0  0  0  0  0  0  0  0
   10.8883   12.0210    4.4357 C   0  0  0  0  0  0  0  0  0  0  0  0
   10.8483   13.1476    5.2161 N   0  0  0  0  0  0  0  0  0  0  0  0
  1  2  1  0  0  0  0
  1  6  1  0  0  0  0
  2  3  2  0  0  0  0
  3  4  1  0  0  0  0
  4  5  2  0  0  0  0
  4 10  1  0  0  0  0
  5  6  1  0  0  0  0
  5  8  1  0  0  0  0
  6  7  2  0  0  0  0
  8  9  1  0  0  0  0
  9 10  2  0  0  0  0
M  END
>  <CHROM.1>
11.31139805,11.78740344,6.86458826,0.30764349,-1.35734852,0.74149347

>  <Name>
ligand

>  <RI>
0

>  <Rbt.Current_Directory>
/home/itssahil/PROJECTS/Mol_Feturizer/New_Systems/rnas/2EEW

>  <Rbt.Executable>
rbdock ($Id: //depot/dev/client3/rdock/2013.1/src/exe/rbdock.cxx#4 $)

>  <Rbt.Library>
libRbt.so (2013.1, Build901 2013/11/27)

>  <Rbt.Parameter_File>
/export/apps/rDock/src/rDock_2013.1_src/data/scripts/dock_solv.prm

>  <Rbt.Receptor>
prm/pocket_docking_4.prm

>  <SCORE>
-17.0219

>  <SCORE.INTER>
-17.0219

>  <SCORE.INTER.CONST>
1

>  <SCORE.INTER.POLAR>
0

>  <SCORE.INTER.ROT>
0

>  <SCORE.INTER.SOLV>
3.54877

>  <SCORE.INTER.VDW>
-16.1309

>  <SCORE.INTER.norm>
-1.70219

>  <SCORE.INTRA>
0

>  <SCORE.INTRA.DIHEDRAL>
0

>  <SCORE.INTRA.DIHEDRAL.0>
0

>  <SCORE.INTRA.POLAR>
0

>  <SCORE.INTRA.POLAR.0>
0

>  <SCORE.INTRA.REPUL>
0

>  <SCORE.INTRA.REPUL.0>
0

>  <SCORE.INTRA.SOLV>
0

>  <SCORE.INTRA.SOLV.lig_0>
-4.28901

>  <SCORE.INTRA.VDW>
0

>  <SCORE.INTRA.VDW.0>
0

>  <SCORE.INTRA.norm>
0

>  <SCORE.RESTR>
0

>  <SCORE.RESTR.CAVITY>
0

>  <SCORE.RESTR.norm>
0

>  <SCORE.SYSTEM>
0

>  <SCORE.SYSTEM.CONST>
0

>  <SCORE.SYSTEM.DIHEDRAL>
0

>  <SCORE.SYSTEM.SOLV>
0

>  <SCORE.SYSTEM.norm>
0

>  <SCORE.heavy>
10

>  <SCORE.norm>
-1.70219

>  <RMSD>
0.859

$$$$
ligand
 OpenBabel11021811423D
libRbt.so/2013.1/901 2013/11/27
 10 11  0  0  0  0  0  0  0  0999 V2000
   11.7848   11.2618    8.5721 N   0  0  0  0  0  0  0  0  0  0  0  0
   11.5333   12.6138    8.7159 C   0  0  0  0  0  0  0  0  0  0  0  0
   11.1908   13.3900    7.6787 N   0  0  0  0  0  0  0  0  0  0  0  0
   11.1237   12.7153    6.5017 C   0  0  0  0  0  0  0  0  0  0  0  0
   11.3627   11.3697    6.2860 C   0  0  0  0  0  0  0  0  0  0  0  0
   11.7266   10.5325    7.3802 C   0  0  0  0  0  0  0  0  0  0  0  0
   11.9819    9.3203    7.4169 O   0  0  0  0  0  0  0  0  0  0  0  0
   11.1839   11.1093    4.9552 N   0  0  0  0  0  0  0  0  0  0  0  0
   10.8384   12.2860    4.3756 C   0  0  0  0  0  0  0  0  0  0  0  0
   10.7935   13.2951    5.3026 N   0  0  0  0  0  0  0  0  0  0  0  0
  1  2  1  0  0  0  0
  1  6  1  0  0  0  0
  2  3  2  0  0  0  0
  3  4  1  0  0  0  0
  4  5  2  0  0  0  0
  4 10  1  0  0  0  0
  5  6  1  0  0  0  0
  5  8  1  0  0  0  0
  6  7  2  0  0  0  0
  8  9  1  0  0  0  0
  9 10  2  0  0  0  0
M  END
>  <CHROM.1>
11.36411578,11.74350053,6.73406941,0.29530979,-1.30683033,0.86516792

>  <Name>
ligand

>  <RI>
0

>  <Rbt.Current_Directory>
/home/itssahil/PROJECTS/Mol_Feturizer/New_Systems/rnas/2EEW

>  <Rbt.Executable>
rbdock ($Id: //depot/dev/client3/rdock/2013.1/src/exe/rbdock.cxx#4 $)

>  <Rbt.Library>
libRbt.so (2013.1, Build901 2013/11/27)

>  <Rbt.Parameter_File>
/export/apps/rDock/src/rDock_2013.1_src/data/scripts/dock_solv.prm

>  <Rbt.Receptor>
prm/pocket_docking_5.prm

>  <SCORE>
-17.0727

>  <SCORE.INTER>
-17.0727

>  <SCORE.INTER.CONST>
1

>  <SCORE.INTER.POLAR>
0

>  <SCORE.INTER.ROT>
0

>  <SCORE.INTER.SOLV>
3.26976

>  <SCORE.INTER.VDW>
-16.0717

>  <SCORE.INTER.norm>
-1.70727

>  <SCORE.INTRA>
0

>  <SCORE.INTRA.DIHEDRAL>
0

>  <SCORE.INTRA.DIHEDRAL.0>
0

>  <SCORE.INTRA.POLAR>
0

>  <SCORE.INTRA.POLAR.0>
0

>  <SCORE.INTRA.REPUL>
0

>  <SCORE.INTRA.REPUL.0>
0

>  <SCORE.INTRA.SOLV>
0

>  <SCORE.INTRA.SOLV.lig_0>
-4.28901

>  <SCORE.INTRA.VDW>
0

>  <SCORE.INTRA.VDW.0>
0

>  <SCORE.INTRA.norm>
0

>  <SCORE.RESTR>
0

>  <SCORE.RESTR.CAVITY>
0

>  <SCORE.RESTR.norm>
0

>  <SCORE.SYSTEM>
0

>  <SCORE.SYSTEM.CONST>
0

>  <SCORE.SYSTEM.DIHEDRAL>
0

>  <SCORE.SYSTEM.SOLV>
0

>  <SCORE.SYSTEM.norm>
0

>  <SCORE.heavy>
10

>  <SCORE.norm>
-1.70727

>  <RMSD>
0.859

$$$$
ligand
 OpenBabel11021811423D
libRbt.so/2013.1/901 2013/11/27
 10 11  0  0  0  0  0  0  0  0999 V2000
   11.7343   11.2647    8.5882 N   0  0  0  0  0  0  0  0  0  0  0  0
   11.4769   12.6167    8.7215 C   0  0  0  0  0  0  0  0  0  0  0  0
   11.1490   13.3871    7.6753 N   0  0  0  0  0  0  0  0  0  0  0  0
   11.1028   12.7068    6.5006 C   0  0  0  0  0  0  0  0  0  0  0  0
   11.3489   11.3609    6.2950 C   0  0  0  0  0  0  0  0  0  0  0  0
   11.6973   10.5298    7.3989 C   0  0  0  0  0  0  0  0  0  0  0  0
   11.9554    9.3185    7.4453 O   0  0  0  0  0  0  0  0  0  0  0  0
   11.1924   11.0938    4.9627 N   0  0  0  0  0  0  0  0  0  0  0  0
   10.8531   12.2668    4.3721 C   0  0  0  0  0  0  0  0  0  0  0  0
   10.7904   13.2801    5.2936 N   0  0  0  0  0  0  0  0  0  0  0  0
  1  2  1  0  0  0  0
  1  6  1  0  0  0  0
  2  3  2  0  0  0  0
  3  4  1  0  0  0  0
  4  5  2  0  0  0  0
  4 10  1  0  0  0  0
  5  6  1  0  0  0  0
  5  8  1  0  0  0  0
  6  7  2  0  0  0  0
  8  9  1  0  0  0  0
  9 10  2  0  0  0  0
M  END
>  <CHROM.1>
11.34208307,11.73674399,6.74129825,0.35089813,-1.31485618,0.91423907

>  <Name>
ligand

>  <RI>
0

>  <Rbt.Current_Directory>
/home/itssahil/PROJECTS/Mol_Feturizer/New_Systems/rnas/2EEW

>  <Rbt.Executable>
rbdock ($Id: //depot/dev/client3/rdock/2013.1/src/exe/rbdock.cxx#4 $)

>  <Rbt.Library>
libRbt.so (2013.1, Build901 2013/11/27)

>  <Rbt.Parameter_File>
/export/apps/rDock/src/rDock_2013.1_src/data/scripts/dock_solv.prm

>  <Rbt.Receptor>
prm/pocket_docking_5.prm

>  <SCORE>
-17.0705

>  <SCORE.INTER>
-17.0705

>  <SCORE.INTER.CONST>
1

>  <SCORE.INTER.POLAR>
0

>  <SCORE.INTER.ROT>
0

>  <SCORE.INTER.SOLV>
3.29369

>  <SCORE.INTER.VDW>
-16.0782

>  <SCORE.INTER.norm>
-1.70705

>  <SCORE.INTRA>
0

>  <SCORE.INTRA.DIHEDRAL>
0

>  <SCORE.INTRA.DIHEDRAL.0>
0

>  <SCORE.INTRA.POLAR>
0

>  <SCORE.INTRA.POLAR.0>
0

>  <SCORE.INTRA.REPUL>
0

>  <SCORE.INTRA.REPUL.0>
0

>  <SCORE.INTRA.SOLV>
0

>  <SCORE.INTRA.SOLV.lig_0>
-4.28901

>  <SCORE.INTRA.VDW>
0

>  <SCORE.INTRA.VDW.0>
0

>  <SCORE.INTRA.norm>
0

>  <SCORE.RESTR>
0

>  <SCORE.RESTR.CAVITY>
0

>  <SCORE.RESTR.norm>
0

>  <SCORE.SYSTEM>
0

>  <SCORE.SYSTEM.CONST>
0

>  <SCORE.SYSTEM.DIHEDRAL>
0

>  <SCORE.SYSTEM.SOLV>
0

>  <SCORE.SYSTEM.norm>
0

>  <SCORE.heavy>
10

>  <SCORE.norm>
-1.70705

>  <RMSD>
0.859

$$$$
ligand
 OpenBabel11021811423D
libRbt.so/2013.1/901 2013/11/27
 10 11  0  0  0  0  0  0  0  0999 V2000
   11.7425   11.2867    8.5938 N   0  0  0  0  0  0  0  0  0  0  0  0
   11.4875   12.6413    8.7035 C   0  0  0  0  0  0  0  0  0  0  0  0
   11.1587   13.3934    7.6443 N   0  0  0  0  0  0  0  0  0  0  0  0
   11.1091   12.6922    6.4820 C   0  0  0  0  0  0  0  0  0  0  0  0
   11.3527   11.3426    6.3000 C   0  0  0  0  0  0  0  0  0  0  0  0
   11.7020   10.5307    7.4179 C   0  0  0  0  0  0  0  0  0  0  0  0
   11.9583    9.3200    7.4855 O   0  0  0  0  0  0  0  0  0  0  0  0
   11.1931   11.0519    4.9731 N   0  0  0  0  0  0  0  0  0  0  0  0
   10.8545   12.2148    4.3622 C   0  0  0  0  0  0  0  0  0  0  0  0
   10.7952   13.2445    5.2656 N   0  0  0  0  0  0  0  0  0  0  0  0
  1  2  1  0  0  0  0
  1  6  1  0  0  0  0
  2  3  2  0  0  0  0
  3  4  1  0  0  0  0
  4  5  2  0  0  0  0
  4 10  1  0  0  0  0
  5  6  1  0  0  0  0
  5  8  1  0  0  0  0
  6  7  2  0  0  0  0
  8  9  1  0  0  0  0
  9 10  2  0  0  0  0
M  END
>  <CHROM.1>
11.34736005,11.72631295,6.73956297,0.34090259,-1.31486538,0.88670462

>  <Name>
ligand

>  <RI>
0

>  <Rbt.Current_Directory>
/home/itssahil/PROJECTS/Mol_Feturizer/New_Systems/rnas/2EEW

>  <Rbt.Executable>
rbdock ($Id: //depot/dev/client3/rdock/2013.1/src/exe/rbdock.cxx#4 $)

>  <Rbt.Library>
libRbt.so (2013.1, Build901 2013/11/27)

>  <Rbt.Parameter_File>
/export/apps/rDock/src/rDock_2013.1_src/data/scripts/dock_solv.prm

>  <Rbt.Receptor>
prm/pocket_docking_5.prm

>  <SCORE>
-17.0543

>  <SCORE.INTER>
-17.0543

>  <SCORE.INTER.CONST>
1

>  <SCORE.INTER.POLAR>
0

>  <SCORE.INTER.ROT>
0

>  <SCORE.INTER.SOLV>
3.30493

>  <SCORE.INTER.VDW>
-16.0712

>  <SCORE.INTER.norm>
-1.70543

>  <SCORE.INTRA>
0

>  <SCORE.INTRA.DIHEDRAL>
0

>  <SCORE.INTRA.DIHEDRAL.0>
0

>  <SCORE.INTRA.POLAR>
0

>  <SCORE.INTRA.POLAR.0>
0

>  <SCORE.INTRA.REPUL>
0

>  <SCORE.INTRA.REPUL.0>
0

>  <SCORE.INTRA.SOLV>
0

>  <SCORE.INTRA.SOLV.lig_0>
-4.28901

>  <SCORE.INTRA.VDW>
0

>  <SCORE.INTRA.VDW.0>
0

>  <SCORE.INTRA.norm>
0

>  <SCORE.RESTR>
0

>  <SCORE.RESTR.CAVITY>
0

>  <SCORE.RESTR.norm>
0

>  <SCORE.SYSTEM>
0

>  <SCORE.SYSTEM.CONST>
0

>  <SCORE.SYSTEM.DIHEDRAL>
0

>  <SCORE.SYSTEM.SOLV>
0

>  <SCORE.SYSTEM.norm>
0

>  <SCORE.heavy>
10

>  <SCORE.norm>
-1.70543

>  <RMSD>
0.861

$$$$
ligand
 OpenBabel11021811423D
libRbt.so/2013.1/901 2013/11/27
 10 11  0  0  0  0  0  0  0  0999 V2000
   11.7653   11.2696    8.5791 N   0  0  0  0  0  0  0  0  0  0  0  0
   11.5157   12.6239    8.7040 C   0  0  0  0  0  0  0  0  0  0  0  0
   11.1810   13.3874    7.6549 N   0  0  0  0  0  0  0  0  0  0  0  0
   11.1197   12.6977    6.4863 C   0  0  0  0  0  0  0  0  0  0  0  0
   11.3572   11.3491    6.2892 C   0  0  0  0  0  0  0  0  0  0  0  0
   11.7128   10.5252    7.3963 C   0  0  0  0  0  0  0  0  0  0  0  0
   11.9655    9.3131    7.4500 O   0  0  0  0  0  0  0  0  0  0  0  0
   11.1860   11.0719    4.9608 N   0  0  0  0  0  0  0  0  0  0  0  0
   10.8464   12.2418    4.3641 C   0  0  0  0  0  0  0  0  0  0  0  0
   10.7979   13.2628    5.2779 N   0  0  0  0  0  0  0  0  0  0  0  0
  1  2  1  0  0  0  0
  1  6  1  0  0  0  0
  2  3  2  0  0  0  0
  3  4  1  0  0  0  0
  4  5  2  0  0  0  0
  4 10  1  0  0  0  0
  5  6  1  0  0  0  0
  5  8  1  0  0  0  0
  6  7  2  0  0  0  0
  8  9  1  0  0  0  0
  9 10  2  0  0  0  0
M  END
>  <CHROM.1>
11.35671014,11.72855436,6.73250566,0.30814071,-1.31228313,0.86474998

>  <Name>
ligand

>  <RI>
0

>  <Rbt.Current_Directory>
/home/itssahil/PROJECTS/Mol_Feturizer/New_Systems/rnas/2EEW

>  <Rbt.Executable>
rbdock ($Id: //depot/dev/client3/rdock/2013.1/src/exe/rbdock.cxx#4 $)

>  <Rbt.Library>
libRbt.so (2013.1, Build901 2013/11/27)

>  <Rbt.Parameter_File>
/export/apps/rDock/src/rDock_2013.1_src/data/scripts/dock_solv.prm

>  <Rbt.Receptor>
prm/blind_docking_100.prm

>  <SCORE>
-17.073

>  <SCORE.INTER>
-17.073

>  <SCORE.INTER.CONST>
1

>  <SCORE.INTER.POLAR>
0

>  <SCORE.INTER.ROT>
0

>  <SCORE.INTER.SOLV>
3.29481

>  <SCORE.INTER.VDW>
-16.0803

>  <SCORE.INTER.norm>
-1.7073

>  <SCORE.INTRA>
0

>  <SCORE.INTRA.DIHEDRAL>
0

>  <SCORE.INTRA.DIHEDRAL.0>
0

>  <SCORE.INTRA.POLAR>
0

>  <SCORE.INTRA.POLAR.0>
0

>  <SCORE.INTRA.REPUL>
0

>  <SCORE.INTRA.REPUL.0>
0

>  <SCORE.INTRA.SOLV>
0

>  <SCORE.INTRA.SOLV.lig_0>
-4.28901

>  <SCORE.INTRA.VDW>
0

>  <SCORE.INTRA.VDW.0>
0

>  <SCORE.INTRA.norm>
0

>  <SCORE.RESTR>
0

>  <SCORE.RESTR.CAVITY>
0

>  <SCORE.RESTR.norm>
0

>  <SCORE.SYSTEM>
0

>  <SCORE.SYSTEM.CONST>
0

>  <SCORE.SYSTEM.DIHEDRAL>
0

>  <SCORE.SYSTEM.SOLV>
0

>  <SCORE.SYSTEM.norm>
0

>  <SCORE.heavy>
10

>  <SCORE.norm>
-1.7073

>  <RMSD>
0.862

$$$$
ligand
 OpenBabel11021811423D
libRbt.so/2013.1/901 2013/11/27
 10 11  0  0  0  0  0  0  0  0999 V2000
   11.7661   11.2769    8.5799 N   0  0  0  0  0  0  0  0  0  0  0  0
   11.5280   12.6326    8.7122 C   0  0  0  0  0  0  0  0  0  0  0  0
   11.1934   13.4033    7.6684 N   0  0  0  0  0  0  0  0  0  0  0  0
   11.1199   12.7194    6.4971 C   0  0  0  0  0  0  0  0  0  0  0  0
   11.3456   11.3698    6.2928 C   0  0  0  0  0  0  0  0  0  0  0  0
   11.7009   10.5382    7.3942 C   0  0  0  0  0  0  0  0  0  0  0  0
   11.9443    9.3239    7.4412 O   0  0  0  0  0  0  0  0  0  0  0  0
   11.1646   11.0999    4.9642 N   0  0  0  0  0  0  0  0  0  0  0  0
   10.8309   12.2750    4.3746 C   0  0  0  0  0  0  0  0  0  0  0  0
   10.7957   13.2923    5.2931 N   0  0  0  0  0  0  0  0  0  0  0  0
  1  2  1  0  0  0  0
  1  6  1  0  0  0  0
  2  3  2  0  0  0  0
  3  4  1  0  0  0  0
  4  5  2  0  0  0  0
  4 10  1  0  0  0  0
  5  6  1  0  0  0  0
  5  8  1  0  0  0  0
  6  7  2  0  0  0  0
  8  9  1  0  0  0  0
  9 10  2  0  0  0  0
M  END
>  <CHROM.1>
11.35060648,11.74727154,6.73773945,0.27067121,-1.31444293,0.83291923

>  <Name>
ligand

>  <RI>
0

>  <Rbt.Current_Directory>
/home/itssahil/PROJECTS/Mol_Feturizer/New_Systems/rnas/2EEW

>  <Rbt.Executable>
rbdock ($Id: //depot/dev/client3/rdock/2013.1/src/exe/rbdock.cxx#4 $)

>  <Rbt.Library>
libRbt.so (2013.1, Build901 2013/11/27)

>  <Rbt.Parameter_File>
/export/apps/rDock/src/rDock_2013.1_src/data/scripts/dock_solv.prm

>  <Rbt.Receptor>
prm/pocket_docking_6.prm

>  <SCORE>
-17.0702

>  <SCORE.INTER>
-17.0702

>  <SCORE.INTER.CONST>
1

>  <SCORE.INTER.POLAR>
0

>  <SCORE.INTER.ROT>
0

>  <SCORE.INTER.SOLV>
3.31279

>  <SCORE.INTER.VDW>
-16.0844

>  <SCORE.INTER.norm>
-1.70702

>  <SCORE.INTRA>
0

>  <SCORE.INTRA.DIHEDRAL>
0

>  <SCORE.INTRA.DIHEDRAL.0>
0

>  <SCORE.INTRA.POLAR>
0

>  <SCORE.INTRA.POLAR.0>
0

>  <SCORE.INTRA.REPUL>
0

>  <SCORE.INTRA.REPUL.0>
0

>  <SCORE.INTRA.SOLV>
0

>  <SCORE.INTRA.SOLV.lig_0>
-4.28901

>  <SCORE.INTRA.VDW>
0

>  <SCORE.INTRA.VDW.0>
0

>  <SCORE.INTRA.norm>
0

>  <SCORE.RESTR>
0

>  <SCORE.RESTR.CAVITY>
0

>  <SCORE.RESTR.norm>
0

>  <SCORE.SYSTEM>
0

>  <SCORE.SYSTEM.CONST>
0

>  <SCORE.SYSTEM.DIHEDRAL>
0

>  <SCORE.SYSTEM.SOLV>
0

>  <SCORE.SYSTEM.norm>
0

>  <SCORE.heavy>
10

>  <SCORE.norm>
-1.70702

>  <RMSD>
0.863

$$$$
ligand
 OpenBabel11021811423D
libRbt.so/2013.1/901 2013/11/27
 10 11  0  0  0  0  0  0  0  0999 V2000
   11.7583   11.2698    8.5774 N   0  0  0  0  0  0  0  0  0  0  0  0
   11.5065   12.6238    8.7009 C   0  0  0  0  0  0  0  0  0  0  0  0
   11.1743   13.3864    7.6504 N   0  0  0  0  0  0  0  0  0  0  0  0
   11.1178   12.6963    6.4818 C   0  0  0  0  0  0  0  0  0  0  0  0
   11.3578   11.3478    6.2861 C   0  0  0  0  0  0  0  0  0  0  0  0
   11.7107   10.5249    7.3947 C   0  0  0  0  0  0  0  0  0  0  0  0
   11.9648    9.3131    7.4498 O   0  0  0  0  0  0  0  0  0  0  0  0
   11.1913   11.0699    4.9573 N   0  0  0  0  0  0  0  0  0  0  0  0
   10.8522   12.2391    4.3589 C   0  0  0  0  0  0  0  0  0  0  0  0
   10.7993   13.2604    5.2721 N   0  0  0  0  0  0  0  0  0  0  0  0
  1  2  1  0  0  0  0
  1  6  1  0  0  0  0
  2  3  2  0  0  0  0
  3  4  1  0  0  0  0
  4  5  2  0  0  0  0
  4 10  1  0  0  0  0
  5  6  1  0  0  0  0
  5  8  1  0  0  0  0
  6  7  2  0  0  0  0
  8  9  1  0  0  0  0
  9 10  2  0  0  0  0
M  END
>  <CHROM.1>
11.35525990,11.72747955,6.72924653,0.32142975,-1.31343513,0.87719870

>  <Name>
ligand

>  <RI>
0

>  <Rbt.Current_Directory>
/home/itssahil/PROJECTS/Mol_Feturizer/New_Systems/rnas/2EEW

>  <Rbt.Executable>
rbdock ($Id: //depot/dev/client3/rdock/2013.1/src/exe/rbdock.cxx#4 $)

>  <Rbt.Library>
libRbt.so (2013.1, Build901 2013/11/27)

>  <Rbt.Parameter_File>
/export/apps/rDock/src/rDock_2013.1_src/data/scripts/dock_solv.prm

>  <Rbt.Receptor>
prm/blind_docking_80.prm

>  <SCORE>
-17.0706

>  <SCORE.INTER>
-17.0706

>  <SCORE.INTER.CONST>
1

>  <SCORE.INTER.POLAR>
0

>  <SCORE.INTER.ROT>
0

>  <SCORE.INTER.SOLV>
3.29688

>  <SCORE.INTER.VDW>
-16.0794

>  <SCORE.INTER.norm>
-1.70706

>  <SCORE.INTRA>
0

>  <SCORE.INTRA.DIHEDRAL>
0

>  <SCORE.INTRA.DIHEDRAL.0>
0

>  <SCORE.INTRA.POLAR>
0

>  <SCORE.INTRA.POLAR.0>
0

>  <SCORE.INTRA.REPUL>
0

>  <SCORE.INTRA.REPUL.0>
0

>  <SCORE.INTRA.SOLV>
0

>  <SCORE.INTRA.SOLV.lig_0>
-4.28901

>  <SCORE.INTRA.VDW>
0

>  <SCORE.INTRA.VDW.0>
0

>  <SCORE.INTRA.norm>
0

>  <SCORE.RESTR>
0

>  <SCORE.RESTR.CAVITY>
0

>  <SCORE.RESTR.norm>
0

>  <SCORE.SYSTEM>
0

>  <SCORE.SYSTEM.CONST>
0

>  <SCORE.SYSTEM.DIHEDRAL>
0

>  <SCORE.SYSTEM.SOLV>
0

>  <SCORE.SYSTEM.norm>
0

>  <SCORE.heavy>
10

>  <SCORE.norm>
-1.70706

>  <RMSD>
0.865

$$$$
ligand
 OpenBabel11021811423D
libRbt.so/2013.1/901 2013/11/27
 10 11  0  0  0  0  0  0  0  0999 V2000
   11.7656   11.2773    8.5741 N   0  0  0  0  0  0  0  0  0  0  0  0
   11.5141   12.6318    8.6934 C   0  0  0  0  0  0  0  0  0  0  0  0
   11.1805   13.3909    7.6407 N   0  0  0  0  0  0  0  0  0  0  0  0
   11.1221   12.6967    6.4746 C   0  0  0  0  0  0  0  0  0  0  0  0
   11.3617   11.3476    6.2831 C   0  0  0  0  0  0  0  0  0  0  0  0
   11.7161   10.5284    7.3940 C   0  0  0  0  0  0  0  0  0  0  0  0
   11.9701    9.3168    7.4529 O   0  0  0  0  0  0  0  0  0  0  0  0
   11.1932   11.0652    4.9555 N   0  0  0  0  0  0  0  0  0  0  0  0
   10.8534   12.2323    4.3537 C   0  0  0  0  0  0  0  0  0  0  0  0
   10.8020   13.2568    5.2634 N   0  0  0  0  0  0  0  0  0  0  0  0
  1  2  1  0  0  0  0
  1  6  1  0  0  0  0
  2  3  2  0  0  0  0
  3  4  1  0  0  0  0
  4  5  2  0  0  0  0
  4 10  1  0  0  0  0
  5  6  1  0  0  0  0
  5  8  1  0  0  0  0
  6  7  2  0  0  0  0
  8  9  1  0  0  0  0
  9 10  2  0  0  0  0
M  END
>  <CHROM.1>
11.35986574,11.72874379,6.72495871,0.31669387,-1.31257969,0.86920031

>  <Name>
ligand

>  <RI>
0

>  <Rbt.Current_Directory>
/home/itssahil/PROJECTS/Mol_Feturizer/New_Systems/rnas/2EEW

>  <Rbt.Executable>
rbdock ($Id: //depot/dev/client3/rdock/2013.1/src/exe/rbdock.cxx#4 $)

>  <Rbt.Library>
libRbt.so (2013.1, Build901 2013/11/27)

>  <Rbt.Parameter_File>
/export/apps/rDock/src/rDock_2013.1_src/data/scripts/dock_solv.prm

>  <Rbt.Receptor>
prm/pocket_docking_4.prm

>  <SCORE>
-17.077

>  <SCORE.INTER>
-17.077

>  <SCORE.INTER.CONST>
1

>  <SCORE.INTER.POLAR>
0

>  <SCORE.INTER.ROT>
0

>  <SCORE.INTER.SOLV>
3.29623

>  <SCORE.INTER.VDW>
-16.0834

>  <SCORE.INTER.norm>
-1.7077

>  <SCORE.INTRA>
0

>  <SCORE.INTRA.DIHEDRAL>
0

>  <SCORE.INTRA.DIHEDRAL.0>
0

>  <SCORE.INTRA.POLAR>
0

>  <SCORE.INTRA.POLAR.0>
0

>  <SCORE.INTRA.REPUL>
0

>  <SCORE.INTRA.REPUL.0>
0

>  <SCORE.INTRA.SOLV>
0

>  <SCORE.INTRA.SOLV.lig_0>
-4.28901

>  <SCORE.INTRA.VDW>
0

>  <SCORE.INTRA.VDW.0>
0

>  <SCORE.INTRA.norm>
0

>  <SCORE.RESTR>
0

>  <SCORE.RESTR.CAVITY>
0

>  <SCORE.RESTR.norm>
0

>  <SCORE.SYSTEM>
0

>  <SCORE.SYSTEM.CONST>
0

>  <SCORE.SYSTEM.DIHEDRAL>
0

>  <SCORE.SYSTEM.SOLV>
0

>  <SCORE.SYSTEM.norm>
0

>  <SCORE.heavy>
10

>  <SCORE.norm>
-1.7077

>  <RMSD>
0.869

$$$$
ligand
 OpenBabel11021811423D
libRbt.so/2013.1/901 2013/11/27
 10 11  0  0  0  0  0  0  0  0999 V2000
   11.7602   11.2889    8.5778 N   0  0  0  0  0  0  0  0  0  0  0  0
   11.4924   12.6406    8.6928 C   0  0  0  0  0  0  0  0  0  0  0  0
   11.1511   13.3925    7.6375 N   0  0  0  0  0  0  0  0  0  0  0  0
   11.1027   12.6943    6.4733 C   0  0  0  0  0  0  0  0  0  0  0  0
   11.3586   11.3476    6.2861 C   0  0  0  0  0  0  0  0  0  0  0  0
   11.7213   10.5360    7.3999 C   0  0  0  0  0  0  0  0  0  0  0  0
   11.9898    9.3277    7.4626 O   0  0  0  0  0  0  0  0  0  0  0  0
   11.1954   11.0593    4.9591 N   0  0  0  0  0  0  0  0  0  0  0  0
   10.8424   12.2206    4.3534 C   0  0  0  0  0  0  0  0  0  0  0  0
   10.7774   13.2470    5.2601 N   0  0  0  0  0  0  0  0  0  0  0  0
  1  2  1  0  0  0  0
  1  6  1  0  0  0  0
  2  3  2  0  0  0  0
  3  4  1  0  0  0  0
  4  5  2  0  0  0  0
  4 10  1  0  0  0  0
  5  6  1  0  0  0  0
  5  8  1  0  0  0  0
  6  7  2  0  0  0  0
  8  9  1  0  0  0  0
  9 10  2  0  0  0  0
M  END
>  <CHROM.1>
11.35164001,11.73003436,6.72683201,0.35002299,-1.30415371,0.89845861

>  <Name>
ligand

>  <RI>
0

>  <Rbt.Current_Directory>
/home/itssahil/PROJECTS/Mol_Feturizer/New_Systems/rnas/2EEW

>  <Rbt.Executable>
rbdock ($Id: //depot/dev/client3/rdock/2013.1/src/exe/rbdock.cxx#4 $)

>  <Rbt.Library>
libRbt.so (2013.1, Build901 2013/11/27)

>  <Rbt.Parameter_File>
/export/apps/rDock/src/rDock_2013.1_src/data/scripts/dock_solv.prm

>  <Rbt.Receptor>
prm/pocket_docking_6.prm

>  <SCORE>
-17.064

>  <SCORE.INTER>
-17.064

>  <SCORE.INTER.CONST>
1

>  <SCORE.INTER.POLAR>
0

>  <SCORE.INTER.ROT>
0

>  <SCORE.INTER.SOLV>
3.26801

>  <SCORE.INTER.VDW>
-16.0654

>  <SCORE.INTER.norm>
-1.7064

>  <SCORE.INTRA>
0

>  <SCORE.INTRA.DIHEDRAL>
0

>  <SCORE.INTRA.DIHEDRAL.0>
0

>  <SCORE.INTRA.POLAR>
0

>  <SCORE.INTRA.POLAR.0>
0

>  <SCORE.INTRA.REPUL>
0

>  <SCORE.INTRA.REPUL.0>
0

>  <SCORE.INTRA.SOLV>
0

>  <SCORE.INTRA.SOLV.lig_0>
-4.28901

>  <SCORE.INTRA.VDW>
0

>  <SCORE.INTRA.VDW.0>
0

>  <SCORE.INTRA.norm>
0

>  <SCORE.RESTR>
0

>  <SCORE.RESTR.CAVITY>
0

>  <SCORE.RESTR.norm>
0

>  <SCORE.SYSTEM>
0

>  <SCORE.SYSTEM.CONST>
0

>  <SCORE.SYSTEM.DIHEDRAL>
0

>  <SCORE.SYSTEM.SOLV>
0

>  <SCORE.SYSTEM.norm>
0

>  <SCORE.heavy>
10

>  <SCORE.norm>
-1.7064

>  <RMSD>
0.870

$$$$
ligand
 OpenBabel11021811423D
libRbt.so/2013.1/901 2013/11/27
 10 11  0  0  0  0  0  0  0  0999 V2000
   11.7556   11.2880    8.5740 N   0  0  0  0  0  0  0  0  0  0  0  0
   11.4928   12.6406    8.6894 C   0  0  0  0  0  0  0  0  0  0  0  0
   11.1562   13.3945    7.6339 N   0  0  0  0  0  0  0  0  0  0  0  0
   11.1070   12.6971    6.4693 C   0  0  0  0  0  0  0  0  0  0  0  0
   11.3581   11.3495    6.2817 C   0  0  0  0  0  0  0  0  0  0  0  0
   11.7158   10.5359    7.3956 C   0  0  0  0  0  0  0  0  0  0  0  0
   11.9795    9.3265    7.4581 O   0  0  0  0  0  0  0  0  0  0  0  0
   11.1960   11.0627    4.9543 N   0  0  0  0  0  0  0  0  0  0  0  0
   10.8485   12.2256    4.3487 C   0  0  0  0  0  0  0  0  0  0  0  0
   10.7860   13.2518    5.2558 N   0  0  0  0  0  0  0  0  0  0  0  0
  1  2  1  0  0  0  0
  1  6  1  0  0  0  0
  2  3  2  0  0  0  0
  3  4  1  0  0  0  0
  4  5  2  0  0  0  0
  4 10  1  0  0  0  0
  5  6  1  0  0  0  0
  5  8  1  0  0  0  0
  6  7  2  0  0  0  0
  8  9  1  0  0  0  0
  9 10  2  0  0  0  0
M  END
>  <CHROM.1>
11.35185415,11.73171930,6.72265922,0.34582028,-1.30823144,0.89499162

>  <Name>
ligand

>  <RI>
0

>  <Rbt.Current_Directory>
/home/itssahil/PROJECTS/Mol_Feturizer/New_Systems/rnas/2EEW

>  <Rbt.Executable>
rbdock ($Id: //depot/dev/client3/rdock/2013.1/src/exe/rbdock.cxx#4 $)

>  <Rbt.Library>
libRbt.so (2013.1, Build901 2013/11/27)

>  <Rbt.Parameter_File>
/export/apps/rDock/src/rDock_2013.1_src/data/scripts/dock_solv.prm

>  <Rbt.Receptor>
prm/blind_docking_60.prm

>  <SCORE>
-17.0683

>  <SCORE.INTER>
-17.0683

>  <SCORE.INTER.CONST>
1

>  <SCORE.INTER.POLAR>
0

>  <SCORE.INTER.ROT>
0

>  <SCORE.INTER.SOLV>
3.28091

>  <SCORE.INTER.VDW>
-16.0725

>  <SCORE.INTER.norm>
-1.70683

>  <SCORE.INTRA>
0

>  <SCORE.INTRA.DIHEDRAL>
0

>  <SCORE.INTRA.DIHEDRAL.0>
0

>  <SCORE.INTRA.POLAR>
0

>  <SCORE.INTRA.POLAR.0>
0

>  <SCORE.INTRA.REPUL>
0

>  <SCORE.INTRA.REPUL.0>
0

>  <SCORE.INTRA.SOLV>
0

>  <SCORE.INTRA.SOLV.lig_0>
-4.28901

>  <SCORE.INTRA.VDW>
0

>  <SCORE.INTRA.VDW.0>
0

>  <SCORE.INTRA.norm>
0

>  <SCORE.RESTR>
0

>  <SCORE.RESTR.CAVITY>
0

>  <SCORE.RESTR.norm>
0

>  <SCORE.SYSTEM>
0

>  <SCORE.SYSTEM.CONST>
0

>  <SCORE.SYSTEM.DIHEDRAL>
0

>  <SCORE.SYSTEM.SOLV>
0

>  <SCORE.SYSTEM.norm>
0

>  <SCORE.heavy>
10

>  <SCORE.norm>
-1.70683

>  <RMSD>
0.875

$$$$
ligand
 OpenBabel11021811423D
libRbt.so/2013.1/901 2013/11/27
 10 11  0  0  0  0  0  0  0  0999 V2000
   11.7684   11.2916    8.5714 N   0  0  0  0  0  0  0  0  0  0  0  0
   11.5169   12.6463    8.6877 C   0  0  0  0  0  0  0  0  0  0  0  0
   11.1810   13.4026    7.6337 N   0  0  0  0  0  0  0  0  0  0  0  0
   11.1204   12.7054    6.4695 C   0  0  0  0  0  0  0  0  0  0  0  0
   11.3599   11.3559    6.2811 C   0  0  0  0  0  0  0  0  0  0  0  0
   11.7167   10.5396    7.3934 C   0  0  0  0  0  0  0  0  0  0  0  0
   11.9711    9.3282    7.4548 O   0  0  0  0  0  0  0  0  0  0  0  0
   11.1888   11.0700    4.9545 N   0  0  0  0  0  0  0  0  0  0  0  0
   10.8475   12.2355    4.3504 C   0  0  0  0  0  0  0  0  0  0  0  0
   10.7977   13.2623    5.2576 N   0  0  0  0  0  0  0  0  0  0  0  0
  1  2  1  0  0  0  0
  1  6  1  0  0  0  0
  2  3  2  0  0  0  0
  3  4  1  0  0  0  0
  4  5  2  0  0  0  0
  4 10  1  0  0  0  0
  5  6  1  0  0  0  0
  5  8  1  0  0  0  0
  6  7  2  0  0  0  0
  8  9  1  0  0  0  0
  9 10  2  0  0  0  0
M  END
>  <CHROM.1>
11.35889052,11.73817071,6.72193339,0.31124431,-1.31111973,0.86134641

>  <Name>
ligand

>  <RI>
0

>  <Rbt.Current_Directory>
/home/itssahil/PROJECTS/Mol_Feturizer/New_Systems/rnas/2EEW

>  <Rbt.Executable>
rbdock ($Id: //depot/dev/client3/rdock/2013.1/src/exe/rbdock.cxx#4 $)

>  <Rbt.Library>
libRbt.so (2013.1, Build901 2013/11/27)

>  <Rbt.Parameter_File>
/export/apps/rDock/src/rDock_2013.1_src/data/scripts/dock_solv.prm

>  <Rbt.Receptor>
prm/pocket_docking_7.prm

>  <SCORE>
-17.0794

>  <SCORE.INTER>
-17.0794

>  <SCORE.INTER.CONST>
1

>  <SCORE.INTER.POLAR>
0

>  <SCORE.INTER.ROT>
0

>  <SCORE.INTER.SOLV>
3.29427

>  <SCORE.INTER.VDW>
-16.0844

>  <SCORE.INTER.norm>
-1.70794

>  <SCORE.INTRA>
0

>  <SCORE.INTRA.DIHEDRAL>
0

>  <SCORE.INTRA.DIHEDRAL.0>
0

>  <SCORE.INTRA.POLAR>
0

>  <SCORE.INTRA.POLAR.0>
0

>  <SCORE.INTRA.REPUL>
0

>  <SCORE.INTRA.REPUL.0>
0

>  <SCORE.INTRA.SOLV>
0

>  <SCORE.INTRA.SOLV.lig_0>
-4.28901

>  <SCORE.INTRA.VDW>
0

>  <SCORE.INTRA.VDW.0>
0

>  <SCORE.INTRA.norm>
0

>  <SCORE.RESTR>
0

>  <SCORE.RESTR.CAVITY>
0

>  <SCORE.RESTR.norm>
0

>  <SCORE.SYSTEM>
0

>  <SCORE.SYSTEM.CONST>
0

>  <SCORE.SYSTEM.DIHEDRAL>
0

>  <SCORE.SYSTEM.SOLV>
0

>  <SCORE.SYSTEM.norm>
0

>  <SCORE.heavy>
10

>  <SCORE.norm>
-1.70794

>  <RMSD>
0.875

$$$$
ligand
 OpenBabel11021811423D
libRbt.so/2013.1/901 2013/11/27
 10 11  0  0  0  0  0  0  0  0999 V2000
   11.7562   11.2900    8.5735 N   0  0  0  0  0  0  0  0  0  0  0  0
   11.4947   12.6429    8.6889 C   0  0  0  0  0  0  0  0  0  0  0  0
   11.1581   13.3970    7.6336 N   0  0  0  0  0  0  0  0  0  0  0  0
   11.1075   12.6995    6.4690 C   0  0  0  0  0  0  0  0  0  0  0  0
   11.3573   11.3517    6.2815 C   0  0  0  0  0  0  0  0  0  0  0  0
   11.7150   10.5378    7.3952 C   0  0  0  0  0  0  0  0  0  0  0  0
   11.9777    9.3283    7.4576 O   0  0  0  0  0  0  0  0  0  0  0  0
   11.1941   11.0649    4.9541 N   0  0  0  0  0  0  0  0  0  0  0  0
   10.8473   12.2281    4.3486 C   0  0  0  0  0  0  0  0  0  0  0  0
   10.7862   13.2543    5.2558 N   0  0  0  0  0  0  0  0  0  0  0  0
  1  2  1  0  0  0  0
  1  6  1  0  0  0  0
  2  3  2  0  0  0  0
  3  4  1  0  0  0  0
  4  5  2  0  0  0  0
  4 10  1  0  0  0  0
  5  6  1  0  0  0  0
  5  8  1  0  0  0  0
  6  7  2  0  0  0  0
  8  9  1  0  0  0  0
  9 10  2  0  0  0  0
M  END
>  <CHROM.1>
11.35168881,11.73396062,6.72235891,0.34189100,-1.30851414,0.89110426

>  <Name>
ligand

>  <RI>
0

>  <Rbt.Current_Directory>
/home/itssahil/PROJECTS/Mol_Feturizer/New_Systems/rnas/2EEW

>  <Rbt.Executable>
rbdock ($Id: //depot/dev/client3/rdock/2013.1/src/exe/rbdock.cxx#4 $)

>  <Rbt.Library>
libRbt.so (2013.1, Build901 2013/11/27)

>  <Rbt.Parameter_File>
/export/apps/rDock/src/rDock_2013.1_src/data/scripts/dock_solv.prm

>  <Rbt.Receptor>
prm/pocket_docking_8.prm

>  <SCORE>
-17.0697

>  <SCORE.INTER>
-17.0697

>  <SCORE.INTER.CONST>
1

>  <SCORE.INTER.POLAR>
0

>  <SCORE.INTER.ROT>
0

>  <SCORE.INTER.SOLV>
3.28239

>  <SCORE.INTER.VDW>
-16.0739

>  <SCORE.INTER.norm>
-1.70697

>  <SCORE.INTRA>
0

>  <SCORE.INTRA.DIHEDRAL>
0

>  <SCORE.INTRA.DIHEDRAL.0>
0

>  <SCORE.INTRA.POLAR>
0

>  <SCORE.INTRA.POLAR.0>
0

>  <SCORE.INTRA.REPUL>
0

>  <SCORE.INTRA.REPUL.0>
0

>  <SCORE.INTRA.SOLV>
0

>  <SCORE.INTRA.SOLV.lig_0>
-4.28901

>  <SCORE.INTRA.VDW>
0

>  <SCORE.INTRA.VDW.0>
0

>  <SCORE.INTRA.norm>
0

>  <SCORE.RESTR>
0

>  <SCORE.RESTR.CAVITY>
0

>  <SCORE.RESTR.norm>
0

>  <SCORE.SYSTEM>
0

>  <SCORE.SYSTEM.CONST>
0

>  <SCORE.SYSTEM.DIHEDRAL>
0

>  <SCORE.SYSTEM.SOLV>
0

>  <SCORE.SYSTEM.norm>
0

>  <SCORE.heavy>
10

>  <SCORE.norm>
-1.70697

>  <RMSD>
0.876

$$$$
ligand
 OpenBabel11021811423D
libRbt.so/2013.1/901 2013/11/27
 10 11  0  0  0  0  0  0  0  0999 V2000
   11.7703   11.2990    8.5708 N   0  0  0  0  0  0  0  0  0  0  0  0
   11.5091   12.6524    8.6803 C   0  0  0  0  0  0  0  0  0  0  0  0
   11.1710   13.4015    7.6220 N   0  0  0  0  0  0  0  0  0  0  0  0
   11.1186   12.6987    6.4608 C   0  0  0  0  0  0  0  0  0  0  0  0
   11.3679   11.3500    6.2791 C   0  0  0  0  0  0  0  0  0  0  0  0
   11.7272   10.5413    7.3961 C   0  0  0  0  0  0  0  0  0  0  0  0
   11.9898    9.3319    7.4638 O   0  0  0  0  0  0  0  0  0  0  0  0
   11.2025   11.0569    4.9534 N   0  0  0  0  0  0  0  0  0  0  0  0
   10.8549   12.2173    4.3430 C   0  0  0  0  0  0  0  0  0  0  0  0
   10.7954   13.2478    5.2454 N   0  0  0  0  0  0  0  0  0  0  0  0
  1  2  1  0  0  0  0
  1  6  1  0  0  0  0
  2  3  2  0  0  0  0
  3  4  1  0  0  0  0
  4  5  2  0  0  0  0
  4 10  1  0  0  0  0
  5  6  1  0  0  0  0
  5  8  1  0  0  0  0
  6  7  2  0  0  0  0
  8  9  1  0  0  0  0
  9 10  2  0  0  0  0
M  END
>  <CHROM.1>
11.36297022,11.73425220,6.71823999,0.33685537,-1.30763169,0.88153799

>  <Name>
ligand

>  <RI>
0

>  <Rbt.Current_Directory>
/home/itssahil/PROJECTS/Mol_Feturizer/New_Systems/rnas/2EEW

>  <Rbt.Executable>
rbdock ($Id: //depot/dev/client3/rdock/2013.1/src/exe/rbdock.cxx#4 $)

>  <Rbt.Library>
libRbt.so (2013.1, Build901 2013/11/27)

>  <Rbt.Parameter_File>
/export/apps/rDock/src/rDock_2013.1_src/data/scripts/dock_solv.prm

>  <Rbt.Receptor>
prm/pocket_docking_3.prm

>  <SCORE>
-17.0749

>  <SCORE.INTER>
-17.0749

>  <SCORE.INTER.CONST>
1

>  <SCORE.INTER.POLAR>
0

>  <SCORE.INTER.ROT>
0

>  <SCORE.INTER.SOLV>
3.2816

>  <SCORE.INTER.VDW>
-16.0772

>  <SCORE.INTER.norm>
-1.70749

>  <SCORE.INTRA>
0

>  <SCORE.INTRA.DIHEDRAL>
0

>  <SCORE.INTRA.DIHEDRAL.0>
0

>  <SCORE.INTRA.POLAR>
0

>  <SCORE.INTRA.POLAR.0>
0

>  <SCORE.INTRA.REPUL>
0

>  <SCORE.INTRA.REPUL.0>
0

>  <SCORE.INTRA.SOLV>
0

>  <SCORE.INTRA.SOLV.lig_0>
-4.28901

>  <SCORE.INTRA.VDW>
0

>  <SCORE.INTRA.VDW.0>
0

>  <SCORE.INTRA.norm>
0

>  <SCORE.RESTR>
0

>  <SCORE.RESTR.CAVITY>
0

>  <SCORE.RESTR.norm>
0

>  <SCORE.SYSTEM>
0

>  <SCORE.SYSTEM.CONST>
0

>  <SCORE.SYSTEM.DIHEDRAL>
0

>  <SCORE.SYSTEM.SOLV>
0

>  <SCORE.SYSTEM.norm>
0

>  <SCORE.heavy>
10

>  <SCORE.norm>
-1.70749

>  <RMSD>
0.878

$$$$
ligand
 OpenBabel11021811423D
libRbt.so/2013.1/901 2013/11/27
 10 11  0  0  0  0  0  0  0  0999 V2000
   11.7625   11.2939    8.5703 N   0  0  0  0  0  0  0  0  0  0  0  0
   11.5078   12.6481    8.6857 C   0  0  0  0  0  0  0  0  0  0  0  0
   11.1723   13.4034    7.6309 N   0  0  0  0  0  0  0  0  0  0  0  0
   11.1156   12.7058    6.4668 C   0  0  0  0  0  0  0  0  0  0  0  0
   11.3584   11.3567    6.2791 C   0  0  0  0  0  0  0  0  0  0  0  0
   11.7148   10.5415    7.3923 C   0  0  0  0  0  0  0  0  0  0  0  0
   11.9717    9.3307    7.4546 O   0  0  0  0  0  0  0  0  0  0  0  0
   11.1906   11.0701    4.9523 N   0  0  0  0  0  0  0  0  0  0  0  0
   10.8479   12.2348    4.3472 C   0  0  0  0  0  0  0  0  0  0  0  0
   10.7940   13.2617    5.2541 N   0  0  0  0  0  0  0  0  0  0  0  0
  1  2  1  0  0  0  0
  1  6  1  0  0  0  0
  2  3  2  0  0  0  0
  3  4  1  0  0  0  0
  4  5  2  0  0  0  0
  4 10  1  0  0  0  0
  5  6  1  0  0  0  0
  5  8  1  0  0  0  0
  6  7  2  0  0  0  0
  8  9  1  0  0  0  0
  9 10  2  0  0  0  0
M  END
>  <CHROM.1>
11.35566453,11.73912384,6.71989490,0.32265885,-1.31072375,0.87213350

>  <Name>
ligand

>  <RI>
0

>  <Rbt.Current_Directory>
/home/itssahil/PROJECTS/Mol_Feturizer/New_Systems/rnas/2EEW

>  <Rbt.Executable>
rbdock ($Id: //depot/dev/client3/rdock/2013.1/src/exe/rbdock.cxx#4 $)

>  <Rbt.Library>
libRbt.so (2013.1, Build901 2013/11/27)

>  <Rbt.Parameter_File>
/export/apps/rDock/src/rDock_2013.1_src/data/scripts/dock_solv.prm

>  <Rbt.Receptor>
prm/pocket_docking_3.prm

>  <SCORE>
-17.0766

>  <SCORE.INTER>
-17.0766

>  <SCORE.INTER.CONST>
1

>  <SCORE.INTER.POLAR>
0

>  <SCORE.INTER.ROT>
0

>  <SCORE.INTER.SOLV>
3.29173

>  <SCORE.INTER.VDW>
-16.0816

>  <SCORE.INTER.norm>
-1.70766

>  <SCORE.INTRA>
0

>  <SCORE.INTRA.DIHEDRAL>
0

>  <SCORE.INTRA.DIHEDRAL.0>
0

>  <SCORE.INTRA.POLAR>
0

>  <SCORE.INTRA.POLAR.0>
0

>  <SCORE.INTRA.REPUL>
0

>  <SCORE.INTRA.REPUL.0>
0

>  <SCORE.INTRA.SOLV>
0

>  <SCORE.INTRA.SOLV.lig_0>
-4.28901

>  <SCORE.INTRA.VDW>
0

>  <SCORE.INTRA.VDW.0>
0

>  <SCORE.INTRA.norm>
0

>  <SCORE.RESTR>
0

>  <SCORE.RESTR.CAVITY>
0

>  <SCORE.RESTR.norm>
0

>  <SCORE.SYSTEM>
0

>  <SCORE.SYSTEM.CONST>
0

>  <SCORE.SYSTEM.DIHEDRAL>
0

>  <SCORE.SYSTEM.SOLV>
0

>  <SCORE.SYSTEM.norm>
0

>  <SCORE.heavy>
10

>  <SCORE.norm>
-1.70766

>  <RMSD>
0.879

$$$$
ligand
 OpenBabel11021811423D
libRbt.so/2013.1/901 2013/11/27
 10 11  0  0  0  0  0  0  0  0999 V2000
   11.7599   11.2979    8.5714 N   0  0  0  0  0  0  0  0  0  0  0  0
   11.4974   12.6508    8.6834 C   0  0  0  0  0  0  0  0  0  0  0  0
   11.1599   13.4019    7.6263 N   0  0  0  0  0  0  0  0  0  0  0  0
   11.1097   12.7015    6.4635 C   0  0  0  0  0  0  0  0  0  0  0  0
   11.3604   11.3534    6.2793 C   0  0  0  0  0  0  0  0  0  0  0  0
   11.7190   10.5426    7.3950 C   0  0  0  0  0  0  0  0  0  0  0  0
   11.9826    9.3334    7.4605 O   0  0  0  0  0  0  0  0  0  0  0  0
   11.1971   11.0631    4.9528 N   0  0  0  0  0  0  0  0  0  0  0  0
   10.8492   12.2244    4.3444 C   0  0  0  0  0  0  0  0  0  0  0  0
   10.7876   13.2530    5.2489 N   0  0  0  0  0  0  0  0  0  0  0  0
  1  2  1  0  0  0  0
  1  6  1  0  0  0  0
  2  3  2  0  0  0  0
  3  4  1  0  0  0  0
  4  5  2  0  0  0  0
  4 10  1  0  0  0  0
  5  6  1  0  0  0  0
  5  8  1  0  0  0  0
  6  7  2  0  0  0  0
  8  9  1  0  0  0  0
  9 10  2  0  0  0  0
M  END
>  <CHROM.1>
11.35460635,11.73676691,6.71924544,0.34295961,-1.30776810,0.88958633

>  <Name>
ligand

>  <RI>
0

>  <Rbt.Current_Directory>
/home/itssahil/PROJECTS/Mol_Feturizer/New_Systems/rnas/2EEW

>  <Rbt.Executable>
rbdock ($Id: //depot/dev/client3/rdock/2013.1/src/exe/rbdock.cxx#4 $)

>  <Rbt.Library>
libRbt.so (2013.1, Build901 2013/11/27)

>  <Rbt.Parameter_File>
/export/apps/rDock/src/rDock_2013.1_src/data/scripts/dock_solv.prm

>  <Rbt.Receptor>
prm/pocket_docking_6.prm

>  <SCORE>
-17.0716

>  <SCORE.INTER>
-17.0716

>  <SCORE.INTER.CONST>
1

>  <SCORE.INTER.POLAR>
0

>  <SCORE.INTER.ROT>
0

>  <SCORE.INTER.SOLV>
3.28098

>  <SCORE.INTER.VDW>
-16.0747

>  <SCORE.INTER.norm>
-1.70716

>  <SCORE.INTRA>
0

>  <SCORE.INTRA.DIHEDRAL>
0

>  <SCORE.INTRA.DIHEDRAL.0>
0

>  <SCORE.INTRA.POLAR>
0

>  <SCORE.INTRA.POLAR.0>
0

>  <SCORE.INTRA.REPUL>
0

>  <SCORE.INTRA.REPUL.0>
0

>  <SCORE.INTRA.SOLV>
0

>  <SCORE.INTRA.SOLV.lig_0>
-4.28901

>  <SCORE.INTRA.VDW>
0

>  <SCORE.INTRA.VDW.0>
0

>  <SCORE.INTRA.norm>
0

>  <SCORE.RESTR>
0

>  <SCORE.RESTR.CAVITY>
0

>  <SCORE.RESTR.norm>
0

>  <SCORE.SYSTEM>
0

>  <SCORE.SYSTEM.CONST>
0

>  <SCORE.SYSTEM.DIHEDRAL>
0

>  <SCORE.SYSTEM.SOLV>
0

>  <SCORE.SYSTEM.norm>
0

>  <SCORE.heavy>
10

>  <SCORE.norm>
-1.70716

>  <RMSD>
0.879

$$$$
ligand
 OpenBabel11021811423D
libRbt.so/2013.1/901 2013/11/27
 10 11  0  0  0  0  0  0  0  0999 V2000
   11.7662   11.2949    8.5685 N   0  0  0  0  0  0  0  0  0  0  0  0
   11.5137   12.6496    8.6820 C   0  0  0  0  0  0  0  0  0  0  0  0
   11.1797   13.4039    7.6260 N   0  0  0  0  0  0  0  0  0  0  0  0
   11.1221   12.7048    6.4629 C   0  0  0  0  0  0  0  0  0  0  0  0
   11.3628   11.3550    6.2772 C   0  0  0  0  0  0  0  0  0  0  0  0
   11.7177   10.5409    7.3916 C   0  0  0  0  0  0  0  0  0  0  0  0
   11.9727    9.3297    7.4557 O   0  0  0  0  0  0  0  0  0  0  0  0
   11.1948   11.0668    4.9507 N   0  0  0  0  0  0  0  0  0  0  0  0
   10.8542   12.2311    4.3439 C   0  0  0  0  0  0  0  0  0  0  0  0
   10.8017   13.2594    5.2493 N   0  0  0  0  0  0  0  0  0  0  0  0
  1  2  1  0  0  0  0
  1  6  1  0  0  0  0
  2  3  2  0  0  0  0
  3  4  1  0  0  0  0
  4  5  2  0  0  0  0
  4 10  1  0  0  0  0
  5  6  1  0  0  0  0
  5  8  1  0  0  0  0
  6  7  2  0  0  0  0
  8  9  1  0  0  0  0
  9 10  2  0  0  0  0
M  END
>  <CHROM.1>
11.36057593,11.73807706,6.71739982,0.31938514,-1.31208786,0.86754508

>  <Name>
ligand

>  <RI>
0

>  <Rbt.Current_Directory>
/home/itssahil/PROJECTS/Mol_Feturizer/New_Systems/rnas/2EEW

>  <Rbt.Executable>
rbdock ($Id: //depot/dev/client3/rdock/2013.1/src/exe/rbdock.cxx#4 $)

>  <Rbt.Library>
libRbt.so (2013.1, Build901 2013/11/27)

>  <Rbt.Parameter_File>
/export/apps/rDock/src/rDock_2013.1_src/data/scripts/dock_solv.prm

>  <Rbt.Receptor>
prm/pocket_docking_4.prm

>  <SCORE>
-17.0792

>  <SCORE.INTER>
-17.0792

>  <SCORE.INTER.CONST>
1

>  <SCORE.INTER.POLAR>
0

>  <SCORE.INTER.ROT>
0

>  <SCORE.INTER.SOLV>
3.29666

>  <SCORE.INTER.VDW>
-16.085

>  <SCORE.INTER.norm>
-1.70792

>  <SCORE.INTRA>
0

>  <SCORE.INTRA.DIHEDRAL>
0

>  <SCORE.INTRA.DIHEDRAL.0>
0

>  <SCORE.INTRA.POLAR>
0

>  <SCORE.INTRA.POLAR.0>
0

>  <SCORE.INTRA.REPUL>
0

>  <SCORE.INTRA.REPUL.0>
0

>  <SCORE.INTRA.SOLV>
0

>  <SCORE.INTRA.SOLV.lig_0>
-4.28901

>  <SCORE.INTRA.VDW>
0

>  <SCORE.INTRA.VDW.0>
0

>  <SCORE.INTRA.norm>
0

>  <SCORE.RESTR>
0

>  <SCORE.RESTR.CAVITY>
0

>  <SCORE.RESTR.norm>
0

>  <SCORE.SYSTEM>
0

>  <SCORE.SYSTEM.CONST>
0

>  <SCORE.SYSTEM.DIHEDRAL>
0

>  <SCORE.SYSTEM.SOLV>
0

>  <SCORE.SYSTEM.norm>
0

>  <SCORE.heavy>
10

>  <SCORE.norm>
-1.70792

>  <RMSD>
0.880

$$$$
ligand
 OpenBabel11021811423D
libRbt.so/2013.1/901 2013/11/27
 10 11  0  0  0  0  0  0  0  0999 V2000
   11.7688   11.3020    8.5684 N   0  0  0  0  0  0  0  0  0  0  0  0
   11.5099   12.6559    8.6776 C   0  0  0  0  0  0  0  0  0  0  0  0
   11.1731   13.4054    7.6191 N   0  0  0  0  0  0  0  0  0  0  0  0
   11.1197   12.7024    6.4580 C   0  0  0  0  0  0  0  0  0  0  0  0
   11.3668   11.3533    6.2767 C   0  0  0  0  0  0  0  0  0  0  0  0
   11.7247   10.5442    7.3938 C   0  0  0  0  0  0  0  0  0  0  0  0
   11.9853    9.3344    7.4618 O   0  0  0  0  0  0  0  0  0  0  0  0
   11.2013   11.0602    4.9510 N   0  0  0  0  0  0  0  0  0  0  0  0
   10.8556   12.2210    4.3403 C   0  0  0  0  0  0  0  0  0  0  0  0
   10.7977   13.2519    5.2425 N   0  0  0  0  0  0  0  0  0  0  0  0
  1  2  1  0  0  0  0
  1  6  1  0  0  0  0
  2  3  2  0  0  0  0
  3  4  1  0  0  0  0
  4  5  2  0  0  0  0
  4 10  1  0  0  0  0
  5  6  1  0  0  0  0
  5  8  1  0  0  0  0
  6  7  2  0  0  0  0
  8  9  1  0  0  0  0
  9 10  2  0  0  0  0
M  END
>  <CHROM.1>
11.36251453,11.73764318,6.71567458,0.33333945,-1.30900022,0.87795997

>  <Name>
ligand

>  <RI>
0

>  <Rbt.Current_Directory>
/home/itssahil/PROJECTS/Mol_Feturizer/New_Systems/rnas/2EEW

>  <Rbt.Executable>
rbdock ($Id: //depot/dev/client3/rdock/2013.1/src/exe/rbdock.cxx#4 $)

>  <Rbt.Library>
libRbt.so (2013.1, Build901 2013/11/27)

>  <Rbt.Parameter_File>
/export/apps/rDock/src/rDock_2013.1_src/data/scripts/dock_solv.prm

>  <Rbt.Receptor>
prm/pocket_docking_4.prm

>  <SCORE>
-17.0763

>  <SCORE.INTER>
-17.0763

>  <SCORE.INTER.CONST>
1

>  <SCORE.INTER.POLAR>
0

>  <SCORE.INTER.ROT>
0

>  <SCORE.INTER.SOLV>
3.28642

>  <SCORE.INTER.VDW>
-16.0796

>  <SCORE.INTER.norm>
-1.70763

>  <SCORE.INTRA>
0

>  <SCORE.INTRA.DIHEDRAL>
0

>  <SCORE.INTRA.DIHEDRAL.0>
0

>  <SCORE.INTRA.POLAR>
0

>  <SCORE.INTRA.POLAR.0>
0

>  <SCORE.INTRA.REPUL>
0

>  <SCORE.INTRA.REPUL.0>
0

>  <SCORE.INTRA.SOLV>
0

>  <SCORE.INTRA.SOLV.lig_0>
-4.28901

>  <SCORE.INTRA.VDW>
0

>  <SCORE.INTRA.VDW.0>
0

>  <SCORE.INTRA.norm>
0

>  <SCORE.RESTR>
0

>  <SCORE.RESTR.CAVITY>
0

>  <SCORE.RESTR.norm>
0

>  <SCORE.SYSTEM>
0

>  <SCORE.SYSTEM.CONST>
0

>  <SCORE.SYSTEM.DIHEDRAL>
0

>  <SCORE.SYSTEM.SOLV>
0

>  <SCORE.SYSTEM.norm>
0

>  <SCORE.heavy>
10

>  <SCORE.norm>
-1.70763

>  <RMSD>
0.882

$$$$
ligand
 OpenBabel11021811423D
libRbt.so/2013.1/901 2013/11/27
 10 11  0  0  0  0  0  0  0  0999 V2000
   11.7567   11.2970    8.5685 N   0  0  0  0  0  0  0  0  0  0  0  0
   11.4931   12.6500    8.6774 C   0  0  0  0  0  0  0  0  0  0  0  0
   11.1594   13.3994    7.6179 N   0  0  0  0  0  0  0  0  0  0  0  0
   11.1139   12.6972    6.4560 C   0  0  0  0  0  0  0  0  0  0  0  0
   11.3660   11.3490    6.2748 C   0  0  0  0  0  0  0  0  0  0  0  0
   11.7207   10.5400    7.3930 C   0  0  0  0  0  0  0  0  0  0  0  0
   11.9846    9.3310    7.4613 O   0  0  0  0  0  0  0  0  0  0  0  0
   11.2079   11.0565    4.9480 N   0  0  0  0  0  0  0  0  0  0  0  0
   10.8618   12.2168    4.3366 C   0  0  0  0  0  0  0  0  0  0  0  0
   10.7962   13.2467    5.2393 N   0  0  0  0  0  0  0  0  0  0  0  0
  1  2  1  0  0  0  0
  1  6  1  0  0  0  0
  2  3  2  0  0  0  0
  3  4  1  0  0  0  0
  4  5  2  0  0  0  0
  4 10  1  0  0  0  0
  5  6  1  0  0  0  0
  5  8  1  0  0  0  0
  6  7  2  0  0  0  0
  8  9  1  0  0  0  0
  9 10  2  0  0  0  0
M  END
>  <CHROM.1>
11.35828732,11.73293922,6.71406826,0.35562886,-1.30979610,0.90032950

>  <Name>
ligand

>  <RI>
0

>  <Rbt.Current_Directory>
/home/itssahil/PROJECTS/Mol_Feturizer/New_Systems/rnas/2EEW

>  <Rbt.Executable>
rbdock ($Id: //depot/dev/client3/rdock/2013.1/src/exe/rbdock.cxx#4 $)

>  <Rbt.Library>
libRbt.so (2013.1, Build901 2013/11/27)

>  <Rbt.Parameter_File>
/export/apps/rDock/src/rDock_2013.1_src/data/scripts/dock_solv.prm

>  <Rbt.Receptor>
prm/blind_docking_60.prm

>  <SCORE>
-17.0678

>  <SCORE.INTER>
-17.0678

>  <SCORE.INTER.CONST>
1

>  <SCORE.INTER.POLAR>
0

>  <SCORE.INTER.ROT>
0

>  <SCORE.INTER.SOLV>
3.28579

>  <SCORE.INTER.VDW>
-16.0738

>  <SCORE.INTER.norm>
-1.70678

>  <SCORE.INTRA>
0

>  <SCORE.INTRA.DIHEDRAL>
0

>  <SCORE.INTRA.DIHEDRAL.0>
0

>  <SCORE.INTRA.POLAR>
0

>  <SCORE.INTRA.POLAR.0>
0

>  <SCORE.INTRA.REPUL>
0

>  <SCORE.INTRA.REPUL.0>
0

>  <SCORE.INTRA.SOLV>
0

>  <SCORE.INTRA.SOLV.lig_0>
-4.28901

>  <SCORE.INTRA.VDW>
0

>  <SCORE.INTRA.VDW.0>
0

>  <SCORE.INTRA.norm>
0

>  <SCORE.RESTR>
0

>  <SCORE.RESTR.CAVITY>
0

>  <SCORE.RESTR.norm>
0

>  <SCORE.SYSTEM>
0

>  <SCORE.SYSTEM.CONST>
0

>  <SCORE.SYSTEM.DIHEDRAL>
0

>  <SCORE.SYSTEM.SOLV>
0

>  <SCORE.SYSTEM.norm>
0

>  <SCORE.heavy>
10

>  <SCORE.norm>
-1.70678

>  <RMSD>
0.883

$$$$
ligand
 OpenBabel11021811423D
libRbt.so/2013.1/901 2013/11/27
 10 11  0  0  0  0  0  0  0  0999 V2000
   11.7663   11.3026    8.5665 N   0  0  0  0  0  0  0  0  0  0  0  0
   11.5087   12.6566    8.6772 C   0  0  0  0  0  0  0  0  0  0  0  0
   11.1728   13.4077    7.6195 N   0  0  0  0  0  0  0  0  0  0  0  0
   11.1187   12.7061    6.4576 C   0  0  0  0  0  0  0  0  0  0  0  0
   11.3644   11.3569    6.2748 C   0  0  0  0  0  0  0  0  0  0  0  0
   11.7214   10.5462    7.3911 C   0  0  0  0  0  0  0  0  0  0  0  0
   11.9807    9.3361    7.4577 O   0  0  0  0  0  0  0  0  0  0  0  0
   11.1986   11.0655    4.9488 N   0  0  0  0  0  0  0  0  0  0  0  0
   10.8542   12.2274    4.3394 C   0  0  0  0  0  0  0  0  0  0  0  0
   10.7973   13.2572    5.2427 N   0  0  0  0  0  0  0  0  0  0  0  0
  1  2  1  0  0  0  0
  1  6  1  0  0  0  0
  2  3  2  0  0  0  0
  3  4  1  0  0  0  0
  4  5  2  0  0  0  0
  4 10  1  0  0  0  0
  5  6  1  0  0  0  0
  5  8  1  0  0  0  0
  6  7  2  0  0  0  0
  8  9  1  0  0  0  0
  9 10  2  0  0  0  0
M  END
>  <CHROM.1>
11.36047648,11.74076733,6.71423884,0.33082906,-1.30982043,0.87665925

>  <Name>
ligand

>  <RI>
0

>  <Rbt.Current_Directory>
/home/itssahil/PROJECTS/Mol_Feturizer/New_Systems/rnas/2EEW

>  <Rbt.Executable>
rbdock ($Id: //depot/dev/client3/rdock/2013.1/src/exe/rbdock.cxx#4 $)

>  <Rbt.Library>
libRbt.so (2013.1, Build901 2013/11/27)

>  <Rbt.Parameter_File>
/export/apps/rDock/src/rDock_2013.1_src/data/scripts/dock_solv.prm

>  <Rbt.Receptor>
prm/pocket_docking_6.prm

>  <SCORE>
-17.0756

>  <SCORE.INTER>
-17.0756

>  <SCORE.INTER.CONST>
1

>  <SCORE.INTER.POLAR>
0

>  <SCORE.INTER.ROT>
0

>  <SCORE.INTER.SOLV>
3.28879

>  <SCORE.INTER.VDW>
-16.08

>  <SCORE.INTER.norm>
-1.70756

>  <SCORE.INTRA>
0

>  <SCORE.INTRA.DIHEDRAL>
0

>  <SCORE.INTRA.DIHEDRAL.0>
0

>  <SCORE.INTRA.POLAR>
0

>  <SCORE.INTRA.POLAR.0>
0

>  <SCORE.INTRA.REPUL>
0

>  <SCORE.INTRA.REPUL.0>
0

>  <SCORE.INTRA.SOLV>
0

>  <SCORE.INTRA.SOLV.lig_0>
-4.28901

>  <SCORE.INTRA.VDW>
0

>  <SCORE.INTRA.VDW.0>
0

>  <SCORE.INTRA.norm>
0

>  <SCORE.RESTR>
0

>  <SCORE.RESTR.CAVITY>
0

>  <SCORE.RESTR.norm>
0

>  <SCORE.SYSTEM>
0

>  <SCORE.SYSTEM.CONST>
0

>  <SCORE.SYSTEM.DIHEDRAL>
0

>  <SCORE.SYSTEM.SOLV>
0

>  <SCORE.SYSTEM.norm>
0

>  <SCORE.heavy>
10

>  <SCORE.norm>
-1.70756

>  <RMSD>
0.884

$$$$
ligand
 OpenBabel11021811423D
libRbt.so/2013.1/901 2013/11/27
 10 11  0  0  0  0  0  0  0  0999 V2000
   11.7270   11.4715    8.6624 N   0  0  0  0  0  0  0  0  0  0  0  0
   11.4786   12.8315    8.6386 C   0  0  0  0  0  0  0  0  0  0  0  0
   11.1537   13.4778    7.5106 N   0  0  0  0  0  0  0  0  0  0  0  0
   11.1007   12.6663    6.4226 C   0  0  0  0  0  0  0  0  0  0  0  0
   11.3377   11.3041    6.3740 C   0  0  0  0  0  0  0  0  0  0  0  0
   11.6828   10.6040    7.5663 C   0  0  0  0  0  0  0  0  0  0  0  0
   11.9331    9.4046    7.7524 O   0  0  0  0  0  0  0  0  0  0  0  0
   11.1768   10.8855    5.0818 N   0  0  0  0  0  0  0  0  0  0  0  0
   10.8440   11.9845    4.3597 C   0  0  0  0  0  0  0  0  0  0  0  0
   10.7897   13.0981    5.1577 N   0  0  0  0  0  0  0  0  0  0  0  0
  1  2  1  0  0  0  0
  1  6  1  0  0  0  0
  2  3  2  0  0  0  0
  3  4  1  0  0  0  0
  4  5  2  0  0  0  0
  4 10  1  0  0  0  0
  5  6  1  0  0  0  0
  5  8  1  0  0  0  0
  6  7  2  0  0  0  0
  8  9  1  0  0  0  0
  9 10  2  0  0  0  0
M  END
>  <CHROM.1>
11.33415951,11.72911078,6.77378895,0.32869599,-1.31874443,0.77666749

>  <Name>
ligand

>  <RI>
0

>  <Rbt.Current_Directory>
/home/itssahil/PROJECTS/Mol_Feturizer/New_Systems/rnas/2EEW

>  <Rbt.Executable>
rbdock ($Id: //depot/dev/client3/rdock/2013.1/src/exe/rbdock.cxx#4 $)

>  <Rbt.Library>
libRbt.so (2013.1, Build901 2013/11/27)

>  <Rbt.Parameter_File>
/export/apps/rDock/src/rDock_2013.1_src/data/scripts/dock_solv.prm

>  <Rbt.Receptor>
prm/pocket_docking_4.prm

>  <SCORE>
-17.0474

>  <SCORE.INTER>
-17.0474

>  <SCORE.INTER.CONST>
1

>  <SCORE.INTER.POLAR>
0

>  <SCORE.INTER.ROT>
0

>  <SCORE.INTER.SOLV>
3.37629

>  <SCORE.INTER.VDW>
-16.0904

>  <SCORE.INTER.norm>
-1.70474

>  <SCORE.INTRA>
0

>  <SCORE.INTRA.DIHEDRAL>
0

>  <SCORE.INTRA.DIHEDRAL.0>
0

>  <SCORE.INTRA.POLAR>
0

>  <SCORE.INTRA.POLAR.0>
0

>  <SCORE.INTRA.REPUL>
0

>  <SCORE.INTRA.REPUL.0>
0

>  <SCORE.INTRA.SOLV>
0

>  <SCORE.INTRA.SOLV.lig_0>
-4.28901

>  <SCORE.INTRA.VDW>
0

>  <SCORE.INTRA.VDW.0>
0

>  <SCORE.INTRA.norm>
0

>  <SCORE.RESTR>
0

>  <SCORE.RESTR.CAVITY>
0

>  <SCORE.RESTR.norm>
0

>  <SCORE.SYSTEM>
0

>  <SCORE.SYSTEM.CONST>
0

>  <SCORE.SYSTEM.DIHEDRAL>
0

>  <SCORE.SYSTEM.SOLV>
0

>  <SCORE.SYSTEM.norm>
0

>  <SCORE.heavy>
10

>  <SCORE.norm>
-1.70474

>  <RMSD>
0.886

$$$$
ligand
 OpenBabel11021811423D
libRbt.so/2013.1/901 2013/11/27
 10 11  0  0  0  0  0  0  0  0999 V2000
   11.7344   11.5885    8.7176 N   0  0  0  0  0  0  0  0  0  0  0  0
   11.4813   12.9463    8.6525 C   0  0  0  0  0  0  0  0  0  0  0  0
   11.1621   13.5583    7.5039 N   0  0  0  0  0  0  0  0  0  0  0  0
   11.1196   12.7152    6.4396 C   0  0  0  0  0  0  0  0  0  0  0  0
   11.3618   11.3531    6.4324 C   0  0  0  0  0  0  0  0  0  0  0  0
   11.7011   10.6894    7.6469 C   0  0  0  0  0  0  0  0  0  0  0  0
   11.9543    9.4968    7.8696 O   0  0  0  0  0  0  0  0  0  0  0  0
   11.2115   10.8965    5.1518 N   0  0  0  0  0  0  0  0  0  0  0  0
   10.8798   11.9728    4.3958 C   0  0  0  0  0  0  0  0  0  0  0  0
   10.8160   13.1089    5.1606 N   0  0  0  0  0  0  0  0  0  0  0  0
  1  2  1  0  0  0  0
  1  6  1  0  0  0  0
  2  3  2  0  0  0  0
  3  4  1  0  0  0  0
  4  5  2  0  0  0  0
  4 10  1  0  0  0  0
  5  6  1  0  0  0  0
  5  8  1  0  0  0  0
  6  7  2  0  0  0  0
  8  9  1  0  0  0  0
  9 10  2  0  0  0  0
M  END
>  <CHROM.1>
11.35395809,11.78956866,6.81956569,0.35896578,-1.32113624,0.77688179

>  <Name>
ligand

>  <RI>
0

>  <Rbt.Current_Directory>
/home/itssahil/PROJECTS/Mol_Feturizer/New_Systems/rnas/2EEW

>  <Rbt.Executable>
rbdock ($Id: //depot/dev/client3/rdock/2013.1/src/exe/rbdock.cxx#4 $)

>  <Rbt.Library>
libRbt.so (2013.1, Build901 2013/11/27)

>  <Rbt.Parameter_File>
/export/apps/rDock/src/rDock_2013.1_src/data/scripts/dock_solv.prm

>  <Rbt.Receptor>
prm/blind_docking_100.prm

>  <SCORE>
-17.0513

>  <SCORE.INTER>
-17.0513

>  <SCORE.INTER.CONST>
1

>  <SCORE.INTER.POLAR>
0

>  <SCORE.INTER.ROT>
0

>  <SCORE.INTER.SOLV>
3.39894

>  <SCORE.INTER.VDW>
-16.1005

>  <SCORE.INTER.norm>
-1.70513

>  <SCORE.INTRA>
0

>  <SCORE.INTRA.DIHEDRAL>
0

>  <SCORE.INTRA.DIHEDRAL.0>
0

>  <SCORE.INTRA.POLAR>
0

>  <SCORE.INTRA.POLAR.0>
0

>  <SCORE.INTRA.REPUL>
0

>  <SCORE.INTRA.REPUL.0>
0

>  <SCORE.INTRA.SOLV>
0

>  <SCORE.INTRA.SOLV.lig_0>
-4.28901

>  <SCORE.INTRA.VDW>
0

>  <SCORE.INTRA.VDW.0>
0

>  <SCORE.INTRA.norm>
0

>  <SCORE.RESTR>
0

>  <SCORE.RESTR.CAVITY>
0

>  <SCORE.RESTR.norm>
0

>  <SCORE.SYSTEM>
0

>  <SCORE.SYSTEM.CONST>
0

>  <SCORE.SYSTEM.DIHEDRAL>
0

>  <SCORE.SYSTEM.SOLV>
0

>  <SCORE.SYSTEM.norm>
0

>  <SCORE.heavy>
10

>  <SCORE.norm>
-1.70513

>  <RMSD>
0.887

$$$$
ligand
 OpenBabel11021811423D
libRbt.so/2013.1/901 2013/11/27
 10 11  0  0  0  0  0  0  0  0999 V2000
   11.6935   11.4904    8.6728 N   0  0  0  0  0  0  0  0  0  0  0  0
   11.4657   12.8542    8.6682 C   0  0  0  0  0  0  0  0  0  0  0  0
   11.1658   13.5237    7.5469 N   0  0  0  0  0  0  0  0  0  0  0  0
   11.1155   12.7309    6.4450 C   0  0  0  0  0  0  0  0  0  0  0  0
   11.3328   11.3663    6.3770 C   0  0  0  0  0  0  0  0  0  0  0  0
   11.6513   10.6417    7.5620 C   0  0  0  0  0  0  0  0  0  0  0  0
   11.8812    9.4357    7.7316 O   0  0  0  0  0  0  0  0  0  0  0  0
   11.1832   10.9714    5.0761 N   0  0  0  0  0  0  0  0  0  0  0  0
   10.8766   12.0869    4.3679 C   0  0  0  0  0  0  0  0  0  0  0  0
   10.8281   13.1880    5.1834 N   0  0  0  0  0  0  0  0  0  0  0  0
  1  2  1  0  0  0  0
  1  6  1  0  0  0  0
  2  3  2  0  0  0  0
  3  4  1  0  0  0  0
  4  5  2  0  0  0  0
  4 10  1  0  0  0  0
  5  6  1  0  0  0  0
  5  8  1  0  0  0  0
  6  7  2  0  0  0  0
  8  9  1  0  0  0  0
  9 10  2  0  0  0  0
M  END
>  <CHROM.1>
11.33018195,11.78472994,6.78367743,0.32382020,-1.33884324,0.78837178

>  <Name>
ligand

>  <RI>
0

>  <Rbt.Current_Directory>
/home/itssahil/PROJECTS/Mol_Feturizer/New_Systems/rnas/2EEW

>  <Rbt.Executable>
rbdock ($Id: //depot/dev/client3/rdock/2013.1/src/exe/rbdock.cxx#4 $)

>  <Rbt.Library>
libRbt.so (2013.1, Build901 2013/11/27)

>  <Rbt.Parameter_File>
/export/apps/rDock/src/rDock_2013.1_src/data/scripts/dock_solv.prm

>  <Rbt.Receptor>
prm/blind_docking_100.prm

>  <SCORE>
-17.0584

>  <SCORE.INTER>
-17.0584

>  <SCORE.INTER.CONST>
1

>  <SCORE.INTER.POLAR>
0

>  <SCORE.INTER.ROT>
0

>  <SCORE.INTER.SOLV>
3.41832

>  <SCORE.INTER.VDW>
-16.1117

>  <SCORE.INTER.norm>
-1.70584

>  <SCORE.INTRA>
0

>  <SCORE.INTRA.DIHEDRAL>
0

>  <SCORE.INTRA.DIHEDRAL.0>
0

>  <SCORE.INTRA.POLAR>
0

>  <SCORE.INTRA.POLAR.0>
0

>  <SCORE.INTRA.REPUL>
0

>  <SCORE.INTRA.REPUL.0>
0

>  <SCORE.INTRA.SOLV>
0

>  <SCORE.INTRA.SOLV.lig_0>
-4.28901

>  <SCORE.INTRA.VDW>
0

>  <SCORE.INTRA.VDW.0>
0

>  <SCORE.INTRA.norm>
0

>  <SCORE.RESTR>
0

>  <SCORE.RESTR.CAVITY>
0

>  <SCORE.RESTR.norm>
0

>  <SCORE.SYSTEM>
0

>  <SCORE.SYSTEM.CONST>
0

>  <SCORE.SYSTEM.DIHEDRAL>
0

>  <SCORE.SYSTEM.SOLV>
0

>  <SCORE.SYSTEM.norm>
0

>  <SCORE.heavy>
10

>  <SCORE.norm>
-1.70584

>  <RMSD>
0.890

$$$$
ligand
 OpenBabel11021811423D
libRbt.so/2013.1/901 2013/11/27
 10 11  0  0  0  0  0  0  0  0999 V2000
   11.6994   11.4992    8.6747 N   0  0  0  0  0  0  0  0  0  0  0  0
   11.4659   12.8621    8.6698 C   0  0  0  0  0  0  0  0  0  0  0  0
   11.1585   13.5292    7.5490 N   0  0  0  0  0  0  0  0  0  0  0  0
   11.1069   12.7351    6.4481 C   0  0  0  0  0  0  0  0  0  0  0  0
   11.3296   11.3713    6.3805 C   0  0  0  0  0  0  0  0  0  0  0  0
   11.6561   10.6493    7.5650 C   0  0  0  0  0  0  0  0  0  0  0  0
   11.8917    9.4444    7.7347 O   0  0  0  0  0  0  0  0  0  0  0  0
   11.1762   10.9745    5.0806 N   0  0  0  0  0  0  0  0  0  0  0  0
   10.8620   12.0881    4.3726 C   0  0  0  0  0  0  0  0  0  0  0  0
   10.8123   13.1898    5.1873 N   0  0  0  0  0  0  0  0  0  0  0  0
  1  2  1  0  0  0  0
  1  6  1  0  0  0  0
  2  3  2  0  0  0  0
  3  4  1  0  0  0  0
  4  5  2  0  0  0  0
  4 10  1  0  0  0  0
  5  6  1  0  0  0  0
  5  8  1  0  0  0  0
  6  7  2  0  0  0  0
  8  9  1  0  0  0  0
  9 10  2  0  0  0  0
M  END
>  <CHROM.1>
11.32693941,11.79016876,6.78683005,0.32370960,-1.33293641,0.78729037

>  <Name>
ligand

>  <RI>
0

>  <Rbt.Current_Directory>
/home/itssahil/PROJECTS/Mol_Feturizer/New_Systems/rnas/2EEW

>  <Rbt.Executable>
rbdock ($Id: //depot/dev/client3/rdock/2013.1/src/exe/rbdock.cxx#4 $)

>  <Rbt.Library>
libRbt.so (2013.1, Build901 2013/11/27)

>  <Rbt.Parameter_File>
/export/apps/rDock/src/rDock_2013.1_src/data/scripts/dock_solv.prm

>  <Rbt.Receptor>
prm/pocket_docking_4.prm

>  <SCORE>
-17.0511

>  <SCORE.INTER>
-17.0511

>  <SCORE.INTER.CONST>
1

>  <SCORE.INTER.POLAR>
0

>  <SCORE.INTER.ROT>
0

>  <SCORE.INTER.SOLV>
3.39901

>  <SCORE.INTER.VDW>
-16.1004

>  <SCORE.INTER.norm>
-1.70511

>  <SCORE.INTRA>
0

>  <SCORE.INTRA.DIHEDRAL>
0

>  <SCORE.INTRA.DIHEDRAL.0>
0

>  <SCORE.INTRA.POLAR>
0

>  <SCORE.INTRA.POLAR.0>
0

>  <SCORE.INTRA.REPUL>
0

>  <SCORE.INTRA.REPUL.0>
0

>  <SCORE.INTRA.SOLV>
0

>  <SCORE.INTRA.SOLV.lig_0>
-4.28901

>  <SCORE.INTRA.VDW>
0

>  <SCORE.INTRA.VDW.0>
0

>  <SCORE.INTRA.norm>
0

>  <SCORE.RESTR>
0

>  <SCORE.RESTR.CAVITY>
0

>  <SCORE.RESTR.norm>
0

>  <SCORE.SYSTEM>
0

>  <SCORE.SYSTEM.CONST>
0

>  <SCORE.SYSTEM.DIHEDRAL>
0

>  <SCORE.SYSTEM.SOLV>
0

>  <SCORE.SYSTEM.norm>
0

>  <SCORE.heavy>
10

>  <SCORE.norm>
-1.70511

>  <RMSD>
0.890

$$$$
ligand
 OpenBabel11021811423D
libRbt.so/2013.1/901 2013/11/27
 10 11  0  0  0  0  0  0  0  0999 V2000
   11.6878   11.4895    8.6732 N   0  0  0  0  0  0  0  0  0  0  0  0
   11.4586   12.8531    8.6663 C   0  0  0  0  0  0  0  0  0  0  0  0
   11.1621   13.5210    7.5431 N   0  0  0  0  0  0  0  0  0  0  0  0
   11.1166   12.7271    6.4419 C   0  0  0  0  0  0  0  0  0  0  0  0
   11.3356   11.3626    6.3761 C   0  0  0  0  0  0  0  0  0  0  0  0
   11.6506   10.6396    7.5631 C   0  0  0  0  0  0  0  0  0  0  0  0
   11.8811    9.4340    7.7348 O   0  0  0  0  0  0  0  0  0  0  0  0
   11.1913   10.9661    5.0751 N   0  0  0  0  0  0  0  0  0  0  0  0
   10.8861   12.0806    4.3646 C   0  0  0  0  0  0  0  0  0  0  0  0
   10.8334   13.1825    5.1788 N   0  0  0  0  0  0  0  0  0  0  0  0
  1  2  1  0  0  0  0
  1  6  1  0  0  0  0
  2  3  2  0  0  0  0
  3  4  1  0  0  0  0
  4  5  2  0  0  0  0
  4 10  1  0  0  0  0
  5  6  1  0  0  0  0
  5  8  1  0  0  0  0
  6  7  2  0  0  0  0
  8  9  1  0  0  0  0
  9 10  2  0  0  0  0
M  END
>  <CHROM.1>
11.33110957,11.78144071,6.78237576,0.33855560,-1.34065722,0.80166060

>  <Name>
ligand

>  <RI>
0

>  <Rbt.Current_Directory>
/home/itssahil/PROJECTS/Mol_Feturizer/New_Systems/rnas/2EEW

>  <Rbt.Executable>
rbdock ($Id: //depot/dev/client3/rdock/2013.1/src/exe/rbdock.cxx#4 $)

>  <Rbt.Library>
libRbt.so (2013.1, Build901 2013/11/27)

>  <Rbt.Parameter_File>
/export/apps/rDock/src/rDock_2013.1_src/data/scripts/dock_solv.prm

>  <Rbt.Receptor>
prm/blind_docking_40.prm

>  <SCORE>
-17.0555

>  <SCORE.INTER>
-17.0555

>  <SCORE.INTER.CONST>
1

>  <SCORE.INTER.POLAR>
0

>  <SCORE.INTER.ROT>
0

>  <SCORE.INTER.SOLV>
3.42254

>  <SCORE.INTER.VDW>
-16.1112

>  <SCORE.INTER.norm>
-1.70555

>  <SCORE.INTRA>
0

>  <SCORE.INTRA.DIHEDRAL>
0

>  <SCORE.INTRA.DIHEDRAL.0>
0

>  <SCORE.INTRA.POLAR>
0

>  <SCORE.INTRA.POLAR.0>
0

>  <SCORE.INTRA.REPUL>
0

>  <SCORE.INTRA.REPUL.0>
0

>  <SCORE.INTRA.SOLV>
0

>  <SCORE.INTRA.SOLV.lig_0>
-4.28901

>  <SCORE.INTRA.VDW>
0

>  <SCORE.INTRA.VDW.0>
0

>  <SCORE.INTRA.norm>
0

>  <SCORE.RESTR>
0

>  <SCORE.RESTR.CAVITY>
0

>  <SCORE.RESTR.norm>
0

>  <SCORE.SYSTEM>
0

>  <SCORE.SYSTEM.CONST>
0

>  <SCORE.SYSTEM.DIHEDRAL>
0

>  <SCORE.SYSTEM.SOLV>
0

>  <SCORE.SYSTEM.norm>
0

>  <SCORE.heavy>
10

>  <SCORE.norm>
-1.70555

>  <RMSD>
0.892

$$$$
ligand
 OpenBabel11021811423D
libRbt.so/2013.1/901 2013/11/27
 10 11  0  0  0  0  0  0  0  0999 V2000
   11.7098   11.4838    8.6634 N   0  0  0  0  0  0  0  0  0  0  0  0
   11.4639   12.8443    8.6440 C   0  0  0  0  0  0  0  0  0  0  0  0
   11.1332   13.4936    7.5194 N   0  0  0  0  0  0  0  0  0  0  0  0
   11.0717   12.6844    6.4301 C   0  0  0  0  0  0  0  0  0  0  0  0
   11.3056   11.3219    6.3771 C   0  0  0  0  0  0  0  0  0  0  0  0
   11.6569   10.6187    7.5658 C   0  0  0  0  0  0  0  0  0  0  0  0
   11.9060    9.4183    7.7478 O   0  0  0  0  0  0  0  0  0  0  0  0
   11.1357   10.9063    5.0852 N   0  0  0  0  0  0  0  0  0  0  0  0
   10.8005   12.0074    4.3675 C   0  0  0  0  0  0  0  0  0  0  0  0
   10.7535   13.1195    5.1681 N   0  0  0  0  0  0  0  0  0  0  0  0
  1  2  1  0  0  0  0
  1  6  1  0  0  0  0
  2  3  2  0  0  0  0
  3  4  1  0  0  0  0
  4  5  2  0  0  0  0
  4 10  1  0  0  0  0
  5  6  1  0  0  0  0
  5  8  1  0  0  0  0
  6  7  2  0  0  0  0
  8  9  1  0  0  0  0
  9 10  2  0  0  0  0
M  END
>  <CHROM.1>
11.30547218,11.74607420,6.77782800,0.30543899,-1.31554860,0.75622486

>  <Name>
ligand

>  <RI>
0

>  <Rbt.Current_Directory>
/home/itssahil/PROJECTS/Mol_Feturizer/New_Systems/rnas/2EEW

>  <Rbt.Executable>
rbdock ($Id: //depot/dev/client3/rdock/2013.1/src/exe/rbdock.cxx#4 $)

>  <Rbt.Library>
libRbt.so (2013.1, Build901 2013/11/27)

>  <Rbt.Parameter_File>
/export/apps/rDock/src/rDock_2013.1_src/data/scripts/dock_solv.prm

>  <Rbt.Receptor>
prm/pocket_docking_5.prm

>  <SCORE>
-17.0642

>  <SCORE.INTER>
-17.0642

>  <SCORE.INTER.CONST>
1

>  <SCORE.INTER.POLAR>
0

>  <SCORE.INTER.ROT>
0

>  <SCORE.INTER.SOLV>
3.3703

>  <SCORE.INTER.VDW>
-16.0996

>  <SCORE.INTER.norm>
-1.70642

>  <SCORE.INTRA>
0

>  <SCORE.INTRA.DIHEDRAL>
0

>  <SCORE.INTRA.DIHEDRAL.0>
0

>  <SCORE.INTRA.POLAR>
0

>  <SCORE.INTRA.POLAR.0>
0

>  <SCORE.INTRA.REPUL>
0

>  <SCORE.INTRA.REPUL.0>
0

>  <SCORE.INTRA.SOLV>
0

>  <SCORE.INTRA.SOLV.lig_0>
-4.28901

>  <SCORE.INTRA.VDW>
0

>  <SCORE.INTRA.VDW.0>
0

>  <SCORE.INTRA.norm>
0

>  <SCORE.RESTR>
0

>  <SCORE.RESTR.CAVITY>
0

>  <SCORE.RESTR.norm>
0

>  <SCORE.SYSTEM>
0

>  <SCORE.SYSTEM.CONST>
0

>  <SCORE.SYSTEM.DIHEDRAL>
0

>  <SCORE.SYSTEM.SOLV>
0

>  <SCORE.SYSTEM.norm>
0

>  <SCORE.heavy>
10

>  <SCORE.norm>
-1.70642

>  <RMSD>
0.892

$$$$
ligand
 OpenBabel11021811423D
libRbt.so/2013.1/901 2013/11/27
 10 11  0  0  0  0  0  0  0  0999 V2000
   11.6643   11.4798    8.6702 N   0  0  0  0  0  0  0  0  0  0  0  0
   11.4324   12.8429    8.6643 C   0  0  0  0  0  0  0  0  0  0  0  0
   11.1438   13.5126    7.5401 N   0  0  0  0  0  0  0  0  0  0  0  0
   11.1090   12.7209    6.4369 C   0  0  0  0  0  0  0  0  0  0  0  0
   11.3314   11.3569    6.3701 C   0  0  0  0  0  0  0  0  0  0  0  0
   11.6380   10.6321    7.5582 C   0  0  0  0  0  0  0  0  0  0  0  0
   11.8695    9.4267    7.7292 O   0  0  0  0  0  0  0  0  0  0  0  0
   11.1985   10.9629    5.0671 N   0  0  0  0  0  0  0  0  0  0  0  0
   10.8969   12.0783    4.3564 C   0  0  0  0  0  0  0  0  0  0  0  0
   10.8353   13.1784    5.1724 N   0  0  0  0  0  0  0  0  0  0  0  0
  1  2  1  0  0  0  0
  1  6  1  0  0  0  0
  2  3  2  0  0  0  0
  3  4  1  0  0  0  0
  4  5  2  0  0  0  0
  4 10  1  0  0  0  0
  5  6  1  0  0  0  0
  5  8  1  0  0  0  0
  6  7  2  0  0  0  0
  8  9  1  0  0  0  0
  9 10  2  0  0  0  0
M  END
>  <CHROM.1>
11.32261716,11.77494947,6.77718079,0.37124837,-1.34480452,0.83559566

>  <Name>
ligand

>  <RI>
0

>  <Rbt.Current_Directory>
/home/itssahil/PROJECTS/Mol_Feturizer/New_Systems/rnas/2EEW

>  <Rbt.Executable>
rbdock ($Id: //depot/dev/client3/rdock/2013.1/src/exe/rbdock.cxx#4 $)

>  <Rbt.Library>
libRbt.so (2013.1, Build901 2013/11/27)

>  <Rbt.Parameter_File>
/export/apps/rDock/src/rDock_2013.1_src/data/scripts/dock_solv.prm

>  <Rbt.Receptor>
prm/blind_docking_100.prm

>  <SCORE>
-17.0432

>  <SCORE.INTER>
-17.0432

>  <SCORE.INTER.CONST>
1

>  <SCORE.INTER.POLAR>
0

>  <SCORE.INTER.ROT>
0

>  <SCORE.INTER.SOLV>
3.43404

>  <SCORE.INTER.VDW>
-16.1068

>  <SCORE.INTER.norm>
-1.70432

>  <SCORE.INTRA>
0

>  <SCORE.INTRA.DIHEDRAL>
0

>  <SCORE.INTRA.DIHEDRAL.0>
0

>  <SCORE.INTRA.POLAR>
0

>  <SCORE.INTRA.POLAR.0>
0

>  <SCORE.INTRA.REPUL>
0

>  <SCORE.INTRA.REPUL.0>
0

>  <SCORE.INTRA.SOLV>
0

>  <SCORE.INTRA.SOLV.lig_0>
-4.28901

>  <SCORE.INTRA.VDW>
0

>  <SCORE.INTRA.VDW.0>
0

>  <SCORE.INTRA.norm>
0

>  <SCORE.RESTR>
0

>  <SCORE.RESTR.CAVITY>
0

>  <SCORE.RESTR.norm>
0

>  <SCORE.SYSTEM>
0

>  <SCORE.SYSTEM.CONST>
0

>  <SCORE.SYSTEM.DIHEDRAL>
0

>  <SCORE.SYSTEM.SOLV>
0

>  <SCORE.SYSTEM.norm>
0

>  <SCORE.heavy>
10

>  <SCORE.norm>
-1.70432

>  <RMSD>
0.897

$$$$
ligand
 OpenBabel11021811423D
libRbt.so/2013.1/901 2013/11/27
 10 11  0  0  0  0  0  0  0  0999 V2000
   11.6547   11.5381    8.7098 N   0  0  0  0  0  0  0  0  0  0  0  0
   11.4568   12.9060    8.6699 C   0  0  0  0  0  0  0  0  0  0  0  0
   11.1848   13.5545    7.5293 N   0  0  0  0  0  0  0  0  0  0  0  0
   11.1303   12.7367    6.4460 C   0  0  0  0  0  0  0  0  0  0  0  0
   11.3186   11.3665    6.4133 C   0  0  0  0  0  0  0  0  0  0  0  0
   11.6072   10.6640    7.6191 C   0  0  0  0  0  0  0  0  0  0  0  0
   11.8087    9.4578    7.8201 O   0  0  0  0  0  0  0  0  0  0  0  0
   11.1759   10.9437    5.1203 N   0  0  0  0  0  0  0  0  0  0  0  0
   10.9021   12.0482    4.3821 C   0  0  0  0  0  0  0  0  0  0  0  0
   10.8679   13.1694    5.1705 N   0  0  0  0  0  0  0  0  0  0  0  0
  1  2  1  0  0  0  0
  1  6  1  0  0  0  0
  2  3  2  0  0  0  0
  3  4  1  0  0  0  0
  4  5  2  0  0  0  0
  4 10  1  0  0  0  0
  5  6  1  0  0  0  0
  5  8  1  0  0  0  0
  6  7  2  0  0  0  0
  8  9  1  0  0  0  0
  9 10  2  0  0  0  0
M  END
>  <CHROM.1>
11.32032862,11.79455501,6.80979442,0.29019211,-1.36252841,0.73160663

>  <Name>
ligand

>  <RI>
0

>  <Rbt.Current_Directory>
/home/itssahil/PROJECTS/Mol_Feturizer/New_Systems/rnas/2EEW

>  <Rbt.Executable>
rbdock ($Id: //depot/dev/client3/rdock/2013.1/src/exe/rbdock.cxx#4 $)

>  <Rbt.Library>
libRbt.so (2013.1, Build901 2013/11/27)

>  <Rbt.Parameter_File>
/export/apps/rDock/src/rDock_2013.1_src/data/scripts/dock_solv.prm

>  <Rbt.Receptor>
prm/pocket_docking_8.prm

>  <SCORE>
-17.0352

>  <SCORE.INTER>
-17.0352

>  <SCORE.INTER.CONST>
1

>  <SCORE.INTER.POLAR>
0

>  <SCORE.INTER.ROT>
0

>  <SCORE.INTER.SOLV>
3.53793

>  <SCORE.INTER.VDW>
-16.1361

>  <SCORE.INTER.norm>
-1.70352

>  <SCORE.INTRA>
0

>  <SCORE.INTRA.DIHEDRAL>
0

>  <SCORE.INTRA.DIHEDRAL.0>
0

>  <SCORE.INTRA.POLAR>
0

>  <SCORE.INTRA.POLAR.0>
0

>  <SCORE.INTRA.REPUL>
0

>  <SCORE.INTRA.REPUL.0>
0

>  <SCORE.INTRA.SOLV>
0

>  <SCORE.INTRA.SOLV.lig_0>
-4.28901

>  <SCORE.INTRA.VDW>
0

>  <SCORE.INTRA.VDW.0>
0

>  <SCORE.INTRA.norm>
0

>  <SCORE.RESTR>
0

>  <SCORE.RESTR.CAVITY>
0

>  <SCORE.RESTR.norm>
0

>  <SCORE.SYSTEM>
0

>  <SCORE.SYSTEM.CONST>
0

>  <SCORE.SYSTEM.DIHEDRAL>
0

>  <SCORE.SYSTEM.SOLV>
0

>  <SCORE.SYSTEM.norm>
0

>  <SCORE.heavy>
10

>  <SCORE.norm>
-1.70352

>  <RMSD>
0.897

$$$$
ligand
 OpenBabel11021811423D
libRbt.so/2013.1/901 2013/11/27
 10 11  0  0  0  0  0  0  0  0999 V2000
   11.6970   11.4715    8.6494 N   0  0  0  0  0  0  0  0  0  0  0  0
   11.4866   12.8381    8.6501 C   0  0  0  0  0  0  0  0  0  0  0  0
   11.1894   13.5147    7.5323 N   0  0  0  0  0  0  0  0  0  0  0  0
   11.1234   12.7261    6.4283 C   0  0  0  0  0  0  0  0  0  0  0  0
   11.3231   11.3590    6.3551 C   0  0  0  0  0  0  0  0  0  0  0  0
   11.6384   10.6268    7.5363 C   0  0  0  0  0  0  0  0  0  0  0  0
   11.8539    9.4175    7.7011 O   0  0  0  0  0  0  0  0  0  0  0  0
   11.1618   10.9700    5.0538 N   0  0  0  0  0  0  0  0  0  0  0  0
   10.8658   12.0915    4.3505 C   0  0  0  0  0  0  0  0  0  0  0  0
   10.8354   13.1906    5.1696 N   0  0  0  0  0  0  0  0  0  0  0  0
  1  2  1  0  0  0  0
  1  6  1  0  0  0  0
  2  3  2  0  0  0  0
  3  4  1  0  0  0  0
  4  5  2  0  0  0  0
  4 10  1  0  0  0  0
  5  6  1  0  0  0  0
  5  8  1  0  0  0  0
  6  7  2  0  0  0  0
  8  9  1  0  0  0  0
  9 10  2  0  0  0  0
M  END
>  <CHROM.1>
11.32785145,11.77617174,6.76303385,0.26798745,-1.34388401,0.73704317

>  <Name>
ligand

>  <RI>
0

>  <Rbt.Current_Directory>
/home/itssahil/PROJECTS/Mol_Feturizer/New_Systems/rnas/2EEW

>  <Rbt.Executable>
rbdock ($Id: //depot/dev/client3/rdock/2013.1/src/exe/rbdock.cxx#4 $)

>  <Rbt.Library>
libRbt.so (2013.1, Build901 2013/11/27)

>  <Rbt.Parameter_File>
/export/apps/rDock/src/rDock_2013.1_src/data/scripts/dock_solv.prm

>  <Rbt.Receptor>
prm/pocket_docking_6.prm

>  <SCORE>
-17.0365

>  <SCORE.INTER>
-17.0365

>  <SCORE.INTER.CONST>
1

>  <SCORE.INTER.POLAR>
0

>  <SCORE.INTER.ROT>
0

>  <SCORE.INTER.SOLV>
3.44585

>  <SCORE.INTER.VDW>
-16.1063

>  <SCORE.INTER.norm>
-1.70365

>  <SCORE.INTRA>
0

>  <SCORE.INTRA.DIHEDRAL>
0

>  <SCORE.INTRA.DIHEDRAL.0>
0

>  <SCORE.INTRA.POLAR>
0

>  <SCORE.INTRA.POLAR.0>
0

>  <SCORE.INTRA.REPUL>
0

>  <SCORE.INTRA.REPUL.0>
0

>  <SCORE.INTRA.SOLV>
0

>  <SCORE.INTRA.SOLV.lig_0>
-4.28901

>  <SCORE.INTRA.VDW>
0

>  <SCORE.INTRA.VDW.0>
0

>  <SCORE.INTRA.norm>
0

>  <SCORE.RESTR>
0

>  <SCORE.RESTR.CAVITY>
0

>  <SCORE.RESTR.norm>
0

>  <SCORE.SYSTEM>
0

>  <SCORE.SYSTEM.CONST>
0

>  <SCORE.SYSTEM.DIHEDRAL>
0

>  <SCORE.SYSTEM.SOLV>
0

>  <SCORE.SYSTEM.norm>
0

>  <SCORE.heavy>
10

>  <SCORE.norm>
-1.70365

>  <RMSD>
0.903

$$$$
ligand
 OpenBabel11021811423D
libRbt.so/2013.1/901 2013/11/27
 10 11  0  0  0  0  0  0  0  0999 V2000
   11.6875   11.4697    8.6531 N   0  0  0  0  0  0  0  0  0  0  0  0
   11.4832   12.8372    8.6433 C   0  0  0  0  0  0  0  0  0  0  0  0
   11.1905   13.5068    7.5202 N   0  0  0  0  0  0  0  0  0  0  0  0
   11.1224   12.7103    6.4220 C   0  0  0  0  0  0  0  0  0  0  0  0
   11.3160   11.3418    6.3592 C   0  0  0  0  0  0  0  0  0  0  0  0
   11.6266   10.6171    7.5462 C   0  0  0  0  0  0  0  0  0  0  0  0
   11.8364    9.4081    7.7202 O   0  0  0  0  0  0  0  0  0  0  0  0
   11.1548   10.9439    5.0605 N   0  0  0  0  0  0  0  0  0  0  0  0
   10.8646   12.0615    4.3486 C   0  0  0  0  0  0  0  0  0  0  0  0
   10.8381   13.1668    5.1594 N   0  0  0  0  0  0  0  0  0  0  0  0
  1  2  1  0  0  0  0
  1  6  1  0  0  0  0
  2  3  2  0  0  0  0
  3  4  1  0  0  0  0
  4  5  2  0  0  0  0
  4 10  1  0  0  0  0
  5  6  1  0  0  0  0
  5  8  1  0  0  0  0
  6  7  2  0  0  0  0
  8  9  1  0  0  0  0
  9 10  2  0  0  0  0
M  END
>  <CHROM.1>
11.32214545,11.76202125,6.76401451,0.25694971,-1.34784477,0.71886136

>  <Name>
ligand

>  <RI>
0

>  <Rbt.Current_Directory>
/home/itssahil/PROJECTS/Mol_Feturizer/New_Systems/rnas/2EEW

>  <Rbt.Executable>
rbdock ($Id: //depot/dev/client3/rdock/2013.1/src/exe/rbdock.cxx#4 $)

>  <Rbt.Library>
libRbt.so (2013.1, Build901 2013/11/27)

>  <Rbt.Parameter_File>
/export/apps/rDock/src/rDock_2013.1_src/data/scripts/dock_solv.prm

>  <Rbt.Receptor>
prm/pocket_docking_8.prm

>  <SCORE>
-17.0363

>  <SCORE.INTER>
-17.0363

>  <SCORE.INTER.CONST>
1

>  <SCORE.INTER.POLAR>
0

>  <SCORE.INTER.ROT>
0

>  <SCORE.INTER.SOLV>
3.47185

>  <SCORE.INTER.VDW>
-16.1148

>  <SCORE.INTER.norm>
-1.70363

>  <SCORE.INTRA>
0

>  <SCORE.INTRA.DIHEDRAL>
0

>  <SCORE.INTRA.DIHEDRAL.0>
0

>  <SCORE.INTRA.POLAR>
0

>  <SCORE.INTRA.POLAR.0>
0

>  <SCORE.INTRA.REPUL>
0

>  <SCORE.INTRA.REPUL.0>
0

>  <SCORE.INTRA.SOLV>
0

>  <SCORE.INTRA.SOLV.lig_0>
-4.28901

>  <SCORE.INTRA.VDW>
0

>  <SCORE.INTRA.VDW.0>
0

>  <SCORE.INTRA.norm>
0

>  <SCORE.RESTR>
0

>  <SCORE.RESTR.CAVITY>
0

>  <SCORE.RESTR.norm>
0

>  <SCORE.SYSTEM>
0

>  <SCORE.SYSTEM.CONST>
0

>  <SCORE.SYSTEM.DIHEDRAL>
0

>  <SCORE.SYSTEM.SOLV>
0

>  <SCORE.SYSTEM.norm>
0

>  <SCORE.heavy>
10

>  <SCORE.norm>
-1.70363

>  <RMSD>
0.905

$$$$
ligand
 OpenBabel11021811423D
libRbt.so/2013.1/901 2013/11/27
 10 11  0  0  0  0  0  0  0  0999 V2000
   11.6800   11.4657    8.6505 N   0  0  0  0  0  0  0  0  0  0  0  0
   11.4688   12.8321    8.6465 C   0  0  0  0  0  0  0  0  0  0  0  0
   11.1761   13.5054    7.5255 N   0  0  0  0  0  0  0  0  0  0  0  0
   11.1153   12.7137    6.4234 C   0  0  0  0  0  0  0  0  0  0  0  0
   11.3160   11.3465    6.3549 C   0  0  0  0  0  0  0  0  0  0  0  0
   11.6267   10.6178    7.5396 C   0  0  0  0  0  0  0  0  0  0  0  0
   11.8421    9.4091    7.7086 O   0  0  0  0  0  0  0  0  0  0  0  0
   11.1607   10.9538    5.0540 N   0  0  0  0  0  0  0  0  0  0  0  0
   10.8670   12.0731    4.3464 C   0  0  0  0  0  0  0  0  0  0  0  0
   10.8325   13.1745    5.1622 N   0  0  0  0  0  0  0  0  0  0  0  0
  1  2  1  0  0  0  0
  1  6  1  0  0  0  0
  2  3  2  0  0  0  0
  3  4  1  0  0  0  0
  4  5  2  0  0  0  0
  4 10  1  0  0  0  0
  5  6  1  0  0  0  0
  5  8  1  0  0  0  0
  6  7  2  0  0  0  0
  8  9  1  0  0  0  0
  9 10  2  0  0  0  0
M  END
>  <CHROM.1>
11.31880928,11.76483315,6.76172653,0.28293205,-1.34669139,0.74880466

>  <Name>
ligand

>  <RI>
0

>  <Rbt.Current_Directory>
/home/itssahil/PROJECTS/Mol_Feturizer/New_Systems/rnas/2EEW

>  <Rbt.Executable>
rbdock ($Id: //depot/dev/client3/rdock/2013.1/src/exe/rbdock.cxx#4 $)

>  <Rbt.Library>
libRbt.so (2013.1, Build901 2013/11/27)

>  <Rbt.Parameter_File>
/export/apps/rDock/src/rDock_2013.1_src/data/scripts/dock_solv.prm

>  <Rbt.Receptor>
prm/pocket_docking_4.prm

>  <SCORE>
-17.0388

>  <SCORE.INTER>
-17.0388

>  <SCORE.INTER.CONST>
1

>  <SCORE.INTER.POLAR>
0

>  <SCORE.INTER.ROT>
0

>  <SCORE.INTER.SOLV>
3.45871

>  <SCORE.INTER.VDW>
-16.1121

>  <SCORE.INTER.norm>
-1.70388

>  <SCORE.INTRA>
0

>  <SCORE.INTRA.DIHEDRAL>
0

>  <SCORE.INTRA.DIHEDRAL.0>
0

>  <SCORE.INTRA.POLAR>
0

>  <SCORE.INTRA.POLAR.0>
0

>  <SCORE.INTRA.REPUL>
0

>  <SCORE.INTRA.REPUL.0>
0

>  <SCORE.INTRA.SOLV>
0

>  <SCORE.INTRA.SOLV.lig_0>
-4.28901

>  <SCORE.INTRA.VDW>
0

>  <SCORE.INTRA.VDW.0>
0

>  <SCORE.INTRA.norm>
0

>  <SCORE.RESTR>
0

>  <SCORE.RESTR.CAVITY>
0

>  <SCORE.RESTR.norm>
0

>  <SCORE.SYSTEM>
0

>  <SCORE.SYSTEM.CONST>
0

>  <SCORE.SYSTEM.DIHEDRAL>
0

>  <SCORE.SYSTEM.SOLV>
0

>  <SCORE.SYSTEM.norm>
0

>  <SCORE.heavy>
10

>  <SCORE.norm>
-1.70388

>  <RMSD>
0.906

$$$$
ligand
 OpenBabel11021811423D
libRbt.so/2013.1/901 2013/11/27
 10 11  0  0  0  0  0  0  0  0999 V2000
   11.6973   11.5774    8.6995 N   0  0  0  0  0  0  0  0  0  0  0  0
   11.4205   12.9302    8.6284 C   0  0  0  0  0  0  0  0  0  0  0  0
   11.1018   13.5336    7.4752 N   0  0  0  0  0  0  0  0  0  0  0  0
   11.0851   12.6874    6.4127 C   0  0  0  0  0  0  0  0  0  0  0  0
   11.3518   11.3298    6.4114 C   0  0  0  0  0  0  0  0  0  0  0  0
   11.6908   10.6752    7.6309 C   0  0  0  0  0  0  0  0  0  0  0  0
   11.9632    9.4879    7.8592 O   0  0  0  0  0  0  0  0  0  0  0  0
   11.2225   10.8675    5.1306 N   0  0  0  0  0  0  0  0  0  0  0  0
   10.8791   11.9358    4.3685 C   0  0  0  0  0  0  0  0  0  0  0  0
   10.7873   13.0724    5.1297 N   0  0  0  0  0  0  0  0  0  0  0  0
  1  2  1  0  0  0  0
  1  6  1  0  0  0  0
  2  3  2  0  0  0  0
  3  4  1  0  0  0  0
  4  5  2  0  0  0  0
  4 10  1  0  0  0  0
  5  6  1  0  0  0  0
  5  8  1  0  0  0  0
  6  7  2  0  0  0  0
  8  9  1  0  0  0  0
  9 10  2  0  0  0  0
M  END
>  <CHROM.1>
11.33225247,11.76695522,6.79735160,0.43730008,-1.31491873,0.85023514

>  <Name>
ligand

>  <RI>
0

>  <Rbt.Current_Directory>
/home/itssahil/PROJECTS/Mol_Feturizer/New_Systems/rnas/2EEW

>  <Rbt.Executable>
rbdock ($Id: //depot/dev/client3/rdock/2013.1/src/exe/rbdock.cxx#4 $)

>  <Rbt.Library>
libRbt.so (2013.1, Build901 2013/11/27)

>  <Rbt.Parameter_File>
/export/apps/rDock/src/rDock_2013.1_src/data/scripts/dock_solv.prm

>  <Rbt.Receptor>
prm/pocket_docking_8.prm

>  <SCORE>
-17.044

>  <SCORE.INTER>
-17.044

>  <SCORE.INTER.CONST>
1

>  <SCORE.INTER.POLAR>
0

>  <SCORE.INTER.ROT>
0

>  <SCORE.INTER.SOLV>
3.37181

>  <SCORE.INTER.VDW>
-16.0866

>  <SCORE.INTER.norm>
-1.7044

>  <SCORE.INTRA>
0

>  <SCORE.INTRA.DIHEDRAL>
0

>  <SCORE.INTRA.DIHEDRAL.0>
0

>  <SCORE.INTRA.POLAR>
0

>  <SCORE.INTRA.POLAR.0>
0

>  <SCORE.INTRA.REPUL>
0

>  <SCORE.INTRA.REPUL.0>
0

>  <SCORE.INTRA.SOLV>
0

>  <SCORE.INTRA.SOLV.lig_0>
-4.28901

>  <SCORE.INTRA.VDW>
0

>  <SCORE.INTRA.VDW.0>
0

>  <SCORE.INTRA.norm>
0

>  <SCORE.RESTR>
0

>  <SCORE.RESTR.CAVITY>
0

>  <SCORE.RESTR.norm>
0

>  <SCORE.SYSTEM>
0

>  <SCORE.SYSTEM.CONST>
0

>  <SCORE.SYSTEM.DIHEDRAL>
0

>  <SCORE.SYSTEM.SOLV>
0

>  <SCORE.SYSTEM.norm>
0

>  <SCORE.heavy>
10

>  <SCORE.norm>
-1.7044

>  <RMSD>
0.906

$$$$
ligand
 OpenBabel11021811423D
libRbt.so/2013.1/901 2013/11/27
 10 11  0  0  0  0  0  0  0  0999 V2000
   11.6954   11.4619    8.6423 N   0  0  0  0  0  0  0  0  0  0  0  0
   11.4801   12.8277    8.6384 C   0  0  0  0  0  0  0  0  0  0  0  0
   11.1814   13.4997    7.5182 N   0  0  0  0  0  0  0  0  0  0  0  0
   11.1190   12.7073    6.4167 C   0  0  0  0  0  0  0  0  0  0  0  0
   11.3235   11.3406    6.3481 C   0  0  0  0  0  0  0  0  0  0  0  0
   11.6405   10.6134    7.5319 C   0  0  0  0  0  0  0  0  0  0  0  0
   11.8601    9.4054    7.7007 O   0  0  0  0  0  0  0  0  0  0  0  0
   11.1645   10.9469    5.0479 N   0  0  0  0  0  0  0  0  0  0  0  0
   10.8651   12.0651    4.3408 C   0  0  0  0  0  0  0  0  0  0  0  0
   10.8303   13.1667    5.1563 N   0  0  0  0  0  0  0  0  0  0  0  0
  1  2  1  0  0  0  0
  1  6  1  0  0  0  0
  2  3  2  0  0  0  0
  3  4  1  0  0  0  0
  4  5  2  0  0  0  0
  4 10  1  0  0  0  0
  5  6  1  0  0  0  0
  5  8  1  0  0  0  0
  6  7  2  0  0  0  0
  8  9  1  0  0  0  0
  9 10  2  0  0  0  0
M  END
>  <CHROM.1>
11.32648290,11.75917520,6.75466821,0.28153341,-1.34204848,0.74701671

>  <Name>
ligand

>  <RI>
0

>  <Rbt.Current_Directory>
/home/itssahil/PROJECTS/Mol_Feturizer/New_Systems/rnas/2EEW

>  <Rbt.Executable>
rbdock ($Id: //depot/dev/client3/rdock/2013.1/src/exe/rbdock.cxx#4 $)

>  <Rbt.Library>
libRbt.so (2013.1, Build901 2013/11/27)

>  <Rbt.Parameter_File>
/export/apps/rDock/src/rDock_2013.1_src/data/scripts/dock_solv.prm

>  <Rbt.Receptor>
prm/blind_docking_60.prm

>  <SCORE>
-17.0372

>  <SCORE.INTER>
-17.0372

>  <SCORE.INTER.CONST>
1

>  <SCORE.INTER.POLAR>
0

>  <SCORE.INTER.ROT>
0

>  <SCORE.INTER.SOLV>
3.44135

>  <SCORE.INTER.VDW>
-16.1053

>  <SCORE.INTER.norm>
-1.70372

>  <SCORE.INTRA>
0

>  <SCORE.INTRA.DIHEDRAL>
0

>  <SCORE.INTRA.DIHEDRAL.0>
0

>  <SCORE.INTRA.POLAR>
0

>  <SCORE.INTRA.POLAR.0>
0

>  <SCORE.INTRA.REPUL>
0

>  <SCORE.INTRA.REPUL.0>
0

>  <SCORE.INTRA.SOLV>
0

>  <SCORE.INTRA.SOLV.lig_0>
-4.28901

>  <SCORE.INTRA.VDW>
0

>  <SCORE.INTRA.VDW.0>
0

>  <SCORE.INTRA.norm>
0

>  <SCORE.RESTR>
0

>  <SCORE.RESTR.CAVITY>
0

>  <SCORE.RESTR.norm>
0

>  <SCORE.SYSTEM>
0

>  <SCORE.SYSTEM.CONST>
0

>  <SCORE.SYSTEM.DIHEDRAL>
0

>  <SCORE.SYSTEM.SOLV>
0

>  <SCORE.SYSTEM.norm>
0

>  <SCORE.heavy>
10

>  <SCORE.norm>
-1.70372

>  <RMSD>
0.907

$$$$
ligand
 OpenBabel11021811423D
libRbt.so/2013.1/901 2013/11/27
 10 11  0  0  0  0  0  0  0  0999 V2000
   11.6876   11.4545    8.6412 N   0  0  0  0  0  0  0  0  0  0  0  0
   11.4716   12.8203    8.6400 C   0  0  0  0  0  0  0  0  0  0  0  0
   11.1750   13.4946    7.5206 N   0  0  0  0  0  0  0  0  0  0  0  0
   11.1154   12.7047    6.4172 C   0  0  0  0  0  0  0  0  0  0  0  0
   11.3208   11.3383    6.3459 C   0  0  0  0  0  0  0  0  0  0  0  0
   11.6356   10.6086    7.5287 C   0  0  0  0  0  0  0  0  0  0  0  0
   11.8555    9.4003    7.6953 O   0  0  0  0  0  0  0  0  0  0  0  0
   11.1649   10.9475    5.0445 N   0  0  0  0  0  0  0  0  0  0  0  0
   10.8664   12.0671    4.3393 C   0  0  0  0  0  0  0  0  0  0  0  0
   10.8292   13.1669    5.1572 N   0  0  0  0  0  0  0  0  0  0  0  0
  1  2  1  0  0  0  0
  1  6  1  0  0  0  0
  2  3  2  0  0  0  0
  3  4  1  0  0  0  0
  4  5  2  0  0  0  0
  4 10  1  0  0  0  0
  5  6  1  0  0  0  0
  5  8  1  0  0  0  0
  6  7  2  0  0  0  0
  8  9  1  0  0  0  0
  9 10  2  0  0  0  0
M  END
>  <CHROM.1>
11.32267274,11.75594571,6.75346283,0.28995622,-1.34328000,0.75749992

>  <Name>
ligand

>  <RI>
0

>  <Rbt.Current_Directory>
/home/itssahil/PROJECTS/Mol_Feturizer/New_Systems/rnas/2EEW

>  <Rbt.Executable>
rbdock ($Id: //depot/dev/client3/rdock/2013.1/src/exe/rbdock.cxx#4 $)

>  <Rbt.Library>
libRbt.so (2013.1, Build901 2013/11/27)

>  <Rbt.Parameter_File>
/export/apps/rDock/src/rDock_2013.1_src/data/scripts/dock_solv.prm

>  <Rbt.Receptor>
prm/pocket_docking_6.prm

>  <SCORE>
-17.0373

>  <SCORE.INTER>
-17.0373

>  <SCORE.INTER.CONST>
1

>  <SCORE.INTER.POLAR>
0

>  <SCORE.INTER.ROT>
0

>  <SCORE.INTER.SOLV>
3.44418

>  <SCORE.INTER.VDW>
-16.1063

>  <SCORE.INTER.norm>
-1.70373

>  <SCORE.INTRA>
0

>  <SCORE.INTRA.DIHEDRAL>
0

>  <SCORE.INTRA.DIHEDRAL.0>
0

>  <SCORE.INTRA.POLAR>
0

>  <SCORE.INTRA.POLAR.0>
0

>  <SCORE.INTRA.REPUL>
0

>  <SCORE.INTRA.REPUL.0>
0

>  <SCORE.INTRA.SOLV>
0

>  <SCORE.INTRA.SOLV.lig_0>
-4.28901

>  <SCORE.INTRA.VDW>
0

>  <SCORE.INTRA.VDW.0>
0

>  <SCORE.INTRA.norm>
0

>  <SCORE.RESTR>
0

>  <SCORE.RESTR.CAVITY>
0

>  <SCORE.RESTR.norm>
0

>  <SCORE.SYSTEM>
0

>  <SCORE.SYSTEM.CONST>
0

>  <SCORE.SYSTEM.DIHEDRAL>
0

>  <SCORE.SYSTEM.SOLV>
0

>  <SCORE.SYSTEM.norm>
0

>  <SCORE.heavy>
10

>  <SCORE.norm>
-1.70373

>  <RMSD>
0.907

$$$$
ligand
 OpenBabel11021811423D
libRbt.so/2013.1/901 2013/11/27
 10 11  0  0  0  0  0  0  0  0999 V2000
   11.6794   11.4796    8.6540 N   0  0  0  0  0  0  0  0  0  0  0  0
   11.4657   12.8457    8.6455 C   0  0  0  0  0  0  0  0  0  0  0  0
   11.1726   13.5149    7.5222 N   0  0  0  0  0  0  0  0  0  0  0  0
   11.1141   12.7196    6.4226 C   0  0  0  0  0  0  0  0  0  0  0  0
   11.3175   11.3526    6.3585 C   0  0  0  0  0  0  0  0  0  0  0  0
   11.6286   10.6282    7.5457 C   0  0  0  0  0  0  0  0  0  0  0  0
   11.8461    9.4204    7.7187 O   0  0  0  0  0  0  0  0  0  0  0  0
   11.1638   10.9555    5.0587 N   0  0  0  0  0  0  0  0  0  0  0  0
   10.8686   12.0720    4.3473 C   0  0  0  0  0  0  0  0  0  0  0  0
   10.8314   13.1759    5.1597 N   0  0  0  0  0  0  0  0  0  0  0  0
  1  2  1  0  0  0  0
  1  6  1  0  0  0  0
  2  3  2  0  0  0  0
  3  4  1  0  0  0  0
  4  5  2  0  0  0  0
  4 10  1  0  0  0  0
  5  6  1  0  0  0  0
  5  8  1  0  0  0  0
  6  7  2  0  0  0  0
  8  9  1  0  0  0  0
  9 10  2  0  0  0  0
M  END
>  <CHROM.1>
11.31914839,11.77217556,6.76400207,0.29140775,-1.34598000,0.75393320

>  <Name>
ligand

>  <RI>
0

>  <Rbt.Current_Directory>
/home/itssahil/PROJECTS/Mol_Feturizer/New_Systems/rnas/2EEW

>  <Rbt.Executable>
rbdock ($Id: //depot/dev/client3/rdock/2013.1/src/exe/rbdock.cxx#4 $)

>  <Rbt.Library>
libRbt.so (2013.1, Build901 2013/11/27)

>  <Rbt.Parameter_File>
/export/apps/rDock/src/rDock_2013.1_src/data/scripts/dock_solv.prm

>  <Rbt.Receptor>
prm/blind_docking_100.prm

>  <SCORE>
-17.0385

>  <SCORE.INTER>
-17.0385

>  <SCORE.INTER.CONST>
1

>  <SCORE.INTER.POLAR>
0

>  <SCORE.INTER.ROT>
0

>  <SCORE.INTER.SOLV>
3.45424

>  <SCORE.INTER.VDW>
-16.1104

>  <SCORE.INTER.norm>
-1.70385

>  <SCORE.INTRA>
0

>  <SCORE.INTRA.DIHEDRAL>
0

>  <SCORE.INTRA.DIHEDRAL.0>
0

>  <SCORE.INTRA.POLAR>
0

>  <SCORE.INTRA.POLAR.0>
0

>  <SCORE.INTRA.REPUL>
0

>  <SCORE.INTRA.REPUL.0>
0

>  <SCORE.INTRA.SOLV>
0

>  <SCORE.INTRA.SOLV.lig_0>
-4.28901

>  <SCORE.INTRA.VDW>
0

>  <SCORE.INTRA.VDW.0>
0

>  <SCORE.INTRA.norm>
0

>  <SCORE.RESTR>
0

>  <SCORE.RESTR.CAVITY>
0

>  <SCORE.RESTR.norm>
0

>  <SCORE.SYSTEM>
0

>  <SCORE.SYSTEM.CONST>
0

>  <SCORE.SYSTEM.DIHEDRAL>
0

>  <SCORE.SYSTEM.SOLV>
0

>  <SCORE.SYSTEM.norm>
0

>  <SCORE.heavy>
10

>  <SCORE.norm>
-1.70385

>  <RMSD>
0.908

$$$$
ligand
 OpenBabel11021811423D
libRbt.so/2013.1/901 2013/11/27
 10 11  0  0  0  0  0  0  0  0999 V2000
   11.7195   11.5440    8.6750 N   0  0  0  0  0  0  0  0  0  0  0  0
   11.4992   12.9082    8.6269 C   0  0  0  0  0  0  0  0  0  0  0  0
   11.1811   13.5398    7.4887 N   0  0  0  0  0  0  0  0  0  0  0  0
   11.1049   12.7092    6.4165 C   0  0  0  0  0  0  0  0  0  0  0  0
   11.3134   11.3417    6.3923 C   0  0  0  0  0  0  0  0  0  0  0  0
   11.6510   10.6572    7.5957 C   0  0  0  0  0  0  0  0  0  0  0  0
   11.8775    9.4565    7.8031 O   0  0  0  0  0  0  0  0  0  0  0  0
   11.1363   10.9024    5.1092 N   0  0  0  0  0  0  0  0  0  0  0  0
   10.8220   11.9943    4.3683 C   0  0  0  0  0  0  0  0  0  0  0  0
   10.7955   13.1236    5.1454 N   0  0  0  0  0  0  0  0  0  0  0  0
  1  2  1  0  0  0  0
  1  6  1  0  0  0  0
  2  3  2  0  0  0  0
  3  4  1  0  0  0  0
  4  5  2  0  0  0  0
  4 10  1  0  0  0  0
  5  6  1  0  0  0  0
  5  8  1  0  0  0  0
  6  7  2  0  0  0  0
  8  9  1  0  0  0  0
  9 10  2  0  0  0  0
M  END
>  <CHROM.1>
11.32100179,11.77417314,6.78402864,0.25004669,-1.32834042,0.68156302

>  <Name>
ligand

>  <RI>
0

>  <Rbt.Current_Directory>
/home/itssahil/PROJECTS/Mol_Feturizer/New_Systems/rnas/2EEW

>  <Rbt.Executable>
rbdock ($Id: //depot/dev/client3/rdock/2013.1/src/exe/rbdock.cxx#4 $)

>  <Rbt.Library>
libRbt.so (2013.1, Build901 2013/11/27)

>  <Rbt.Parameter_File>
/export/apps/rDock/src/rDock_2013.1_src/data/scripts/dock_solv.prm

>  <Rbt.Receptor>
prm/pocket_docking_8.prm

>  <SCORE>
-17.0407

>  <SCORE.INTER>
-17.0407

>  <SCORE.INTER.CONST>
1

>  <SCORE.INTER.POLAR>
0

>  <SCORE.INTER.ROT>
0

>  <SCORE.INTER.SOLV>
3.43049

>  <SCORE.INTER.VDW>
-16.104

>  <SCORE.INTER.norm>
-1.70407

>  <SCORE.INTRA>
0

>  <SCORE.INTRA.DIHEDRAL>
0

>  <SCORE.INTRA.DIHEDRAL.0>
0

>  <SCORE.INTRA.POLAR>
0

>  <SCORE.INTRA.POLAR.0>
0

>  <SCORE.INTRA.REPUL>
0

>  <SCORE.INTRA.REPUL.0>
0

>  <SCORE.INTRA.SOLV>
0

>  <SCORE.INTRA.SOLV.lig_0>
-4.28901

>  <SCORE.INTRA.VDW>
0

>  <SCORE.INTRA.VDW.0>
0

>  <SCORE.INTRA.norm>
0

>  <SCORE.RESTR>
0

>  <SCORE.RESTR.CAVITY>
0

>  <SCORE.RESTR.norm>
0

>  <SCORE.SYSTEM>
0

>  <SCORE.SYSTEM.CONST>
0

>  <SCORE.SYSTEM.DIHEDRAL>
0

>  <SCORE.SYSTEM.SOLV>
0

>  <SCORE.SYSTEM.norm>
0

>  <SCORE.heavy>
10

>  <SCORE.norm>
-1.70407

>  <RMSD>
0.908

$$$$
ligand
 OpenBabel11021811423D
libRbt.so/2013.1/901 2013/11/27
 10 11  0  0  0  0  0  0  0  0999 V2000
   11.6798   11.4738    8.6491 N   0  0  0  0  0  0  0  0  0  0  0  0
   11.4662   12.8399    8.6443 C   0  0  0  0  0  0  0  0  0  0  0  0
   11.1737   13.5124    7.5228 N   0  0  0  0  0  0  0  0  0  0  0  0
   11.1156   12.7201    6.4209 C   0  0  0  0  0  0  0  0  0  0  0  0
   11.3187   11.3533    6.3531 C   0  0  0  0  0  0  0  0  0  0  0  0
   11.6293   10.6256    7.5383 C   0  0  0  0  0  0  0  0  0  0  0  0
   11.8465    9.4173    7.7081 O   0  0  0  0  0  0  0  0  0  0  0  0
   11.1656   10.9599    5.0521 N   0  0  0  0  0  0  0  0  0  0  0  0
   10.8708   12.0785    4.3438 C   0  0  0  0  0  0  0  0  0  0  0  0
   10.8335   13.1801    5.1592 N   0  0  0  0  0  0  0  0  0  0  0  0
  1  2  1  0  0  0  0
  1  6  1  0  0  0  0
  2  3  2  0  0  0  0
  3  4  1  0  0  0  0
  4  5  2  0  0  0  0
  4 10  1  0  0  0  0
  5  6  1  0  0  0  0
  5  8  1  0  0  0  0
  6  7  2  0  0  0  0
  8  9  1  0  0  0  0
  9 10  2  0  0  0  0
M  END
>  <CHROM.1>
11.32032595,11.77177912,6.75978035,0.29221282,-1.34636586,0.75752711

>  <Name>
ligand

>  <RI>
0

>  <Rbt.Current_Directory>
/home/itssahil/PROJECTS/Mol_Feturizer/New_Systems/rnas/2EEW

>  <Rbt.Executable>
rbdock ($Id: //depot/dev/client3/rdock/2013.1/src/exe/rbdock.cxx#4 $)

>  <Rbt.Library>
libRbt.so (2013.1, Build901 2013/11/27)

>  <Rbt.Parameter_File>
/export/apps/rDock/src/rDock_2013.1_src/data/scripts/dock_solv.prm

>  <Rbt.Receptor>
prm/pocket_docking_6.prm

>  <SCORE>
-17.0389

>  <SCORE.INTER>
-17.0389

>  <SCORE.INTER.CONST>
1

>  <SCORE.INTER.POLAR>
0

>  <SCORE.INTER.ROT>
0

>  <SCORE.INTER.SOLV>
3.45301

>  <SCORE.INTER.VDW>
-16.1103

>  <SCORE.INTER.norm>
-1.70389

>  <SCORE.INTRA>
0

>  <SCORE.INTRA.DIHEDRAL>
0

>  <SCORE.INTRA.DIHEDRAL.0>
0

>  <SCORE.INTRA.POLAR>
0

>  <SCORE.INTRA.POLAR.0>
0

>  <SCORE.INTRA.REPUL>
0

>  <SCORE.INTRA.REPUL.0>
0

>  <SCORE.INTRA.SOLV>
0

>  <SCORE.INTRA.SOLV.lig_0>
-4.28901

>  <SCORE.INTRA.VDW>
0

>  <SCORE.INTRA.VDW.0>
0

>  <SCORE.INTRA.norm>
0

>  <SCORE.RESTR>
0

>  <SCORE.RESTR.CAVITY>
0

>  <SCORE.RESTR.norm>
0

>  <SCORE.SYSTEM>
0

>  <SCORE.SYSTEM.CONST>
0

>  <SCORE.SYSTEM.DIHEDRAL>
0

>  <SCORE.SYSTEM.SOLV>
0

>  <SCORE.SYSTEM.norm>
0

>  <SCORE.heavy>
10

>  <SCORE.norm>
-1.70389

>  <RMSD>
0.909

$$$$
ligand
 OpenBabel11021811423D
libRbt.so/2013.1/901 2013/11/27
 10 11  0  0  0  0  0  0  0  0999 V2000
   11.6852   11.5157    8.6673 N   0  0  0  0  0  0  0  0  0  0  0  0
   11.4118   12.8702    8.6191 C   0  0  0  0  0  0  0  0  0  0  0  0
   11.0947   13.4938    7.4762 N   0  0  0  0  0  0  0  0  0  0  0  0
   11.0761   12.6657    6.3996 C   0  0  0  0  0  0  0  0  0  0  0  0
   11.3394   11.3077    6.3753 C   0  0  0  0  0  0  0  0  0  0  0  0
   11.6766   10.6317    7.5836 C   0  0  0  0  0  0  0  0  0  0  0  0
   11.9460    9.4400    7.7918 O   0  0  0  0  0  0  0  0  0  0  0  0
   11.2091   10.8674    5.0869 N   0  0  0  0  0  0  0  0  0  0  0  0
   10.8685   11.9493    4.3429 C   0  0  0  0  0  0  0  0  0  0  0  0
   10.7793   13.0731    5.1232 N   0  0  0  0  0  0  0  0  0  0  0  0
  1  2  1  0  0  0  0
  1  6  1  0  0  0  0
  2  3  2  0  0  0  0
  3  4  1  0  0  0  0
  4  5  2  0  0  0  0
  4 10  1  0  0  0  0
  5  6  1  0  0  0  0
  5  8  1  0  0  0  0
  6  7  2  0  0  0  0
  8  9  1  0  0  0  0
  9 10  2  0  0  0  0
M  END
>  <CHROM.1>
11.32086739,11.73833098,6.76859713,0.43114314,-1.31686705,0.86118690

>  <Name>
ligand

>  <RI>
0

>  <Rbt.Current_Directory>
/home/itssahil/PROJECTS/Mol_Feturizer/New_Systems/rnas/2EEW

>  <Rbt.Executable>
rbdock ($Id: //depot/dev/client3/rdock/2013.1/src/exe/rbdock.cxx#4 $)

>  <Rbt.Library>
libRbt.so (2013.1, Build901 2013/11/27)

>  <Rbt.Parameter_File>
/export/apps/rDock/src/rDock_2013.1_src/data/scripts/dock_solv.prm

>  <Rbt.Receptor>
prm/blind_docking_40.prm

>  <SCORE>
-17.012

>  <SCORE.INTER>
-17.012

>  <SCORE.INTER.CONST>
1

>  <SCORE.INTER.POLAR>
0

>  <SCORE.INTER.ROT>
0

>  <SCORE.INTER.SOLV>
3.36551

>  <SCORE.INTER.VDW>
-16.0632

>  <SCORE.INTER.norm>
-1.7012

>  <SCORE.INTRA>
0

>  <SCORE.INTRA.DIHEDRAL>
0

>  <SCORE.INTRA.DIHEDRAL.0>
0

>  <SCORE.INTRA.POLAR>
0

>  <SCORE.INTRA.POLAR.0>
0

>  <SCORE.INTRA.REPUL>
0

>  <SCORE.INTRA.REPUL.0>
0

>  <SCORE.INTRA.SOLV>
0

>  <SCORE.INTRA.SOLV.lig_0>
-4.28901

>  <SCORE.INTRA.VDW>
0

>  <SCORE.INTRA.VDW.0>
0

>  <SCORE.INTRA.norm>
0

>  <SCORE.RESTR>
0

>  <SCORE.RESTR.CAVITY>
0

>  <SCORE.RESTR.norm>
0

>  <SCORE.SYSTEM>
0

>  <SCORE.SYSTEM.CONST>
0

>  <SCORE.SYSTEM.DIHEDRAL>
0

>  <SCORE.SYSTEM.SOLV>
0

>  <SCORE.SYSTEM.norm>
0

>  <SCORE.heavy>
10

>  <SCORE.norm>
-1.7012

>  <RMSD>
0.910

$$$$
ligand
 OpenBabel11021811423D
libRbt.so/2013.1/901 2013/11/27
 10 11  0  0  0  0  0  0  0  0999 V2000
   11.6776   11.4617    8.6428 N   0  0  0  0  0  0  0  0  0  0  0  0
   11.4602   12.8272    8.6418 C   0  0  0  0  0  0  0  0  0  0  0  0
   11.1665   13.5020    7.5219 N   0  0  0  0  0  0  0  0  0  0  0  0
   11.1113   12.7127    6.4178 C   0  0  0  0  0  0  0  0  0  0  0  0
   11.3183   11.3466    6.3462 C   0  0  0  0  0  0  0  0  0  0  0  0
   11.6301   10.6164    7.5296 C   0  0  0  0  0  0  0  0  0  0  0  0
   11.8506    9.4083    7.6960 O   0  0  0  0  0  0  0  0  0  0  0  0
   11.1671   10.9565    5.0441 N   0  0  0  0  0  0  0  0  0  0  0  0
   10.8696   12.0763    4.3387 C   0  0  0  0  0  0  0  0  0  0  0  0
   10.8287   13.1755    5.1572 N   0  0  0  0  0  0  0  0  0  0  0  0
  1  2  1  0  0  0  0
  1  6  1  0  0  0  0
  2  3  2  0  0  0  0
  3  4  1  0  0  0  0
  4  5  2  0  0  0  0
  4 10  1  0  0  0  0
  5  6  1  0  0  0  0
  5  8  1  0  0  0  0
  6  7  2  0  0  0  0
  8  9  1  0  0  0  0
  9 10  2  0  0  0  0
M  END
>  <CHROM.1>
11.31846859,11.76397645,6.75407976,0.30318145,-1.34489242,0.77105248

>  <Name>
ligand

>  <RI>
0

>  <Rbt.Current_Directory>
/home/itssahil/PROJECTS/Mol_Feturizer/New_Systems/rnas/2EEW

>  <Rbt.Executable>
rbdock ($Id: //depot/dev/client3/rdock/2013.1/src/exe/rbdock.cxx#4 $)

>  <Rbt.Library>
libRbt.so (2013.1, Build901 2013/11/27)

>  <Rbt.Parameter_File>
/export/apps/rDock/src/rDock_2013.1_src/data/scripts/dock_solv.prm

>  <Rbt.Receptor>
prm/blind_docking_80.prm

>  <SCORE>
-17.0375

>  <SCORE.INTER>
-17.0375

>  <SCORE.INTER.CONST>
1

>  <SCORE.INTER.POLAR>
0

>  <SCORE.INTER.ROT>
0

>  <SCORE.INTER.SOLV>
3.44598

>  <SCORE.INTER.VDW>
-16.107

>  <SCORE.INTER.norm>
-1.70375

>  <SCORE.INTRA>
0

>  <SCORE.INTRA.DIHEDRAL>
0

>  <SCORE.INTRA.DIHEDRAL.0>
0

>  <SCORE.INTRA.POLAR>
0

>  <SCORE.INTRA.POLAR.0>
0

>  <SCORE.INTRA.REPUL>
0

>  <SCORE.INTRA.REPUL.0>
0

>  <SCORE.INTRA.SOLV>
0

>  <SCORE.INTRA.SOLV.lig_0>
-4.28901

>  <SCORE.INTRA.VDW>
0

>  <SCORE.INTRA.VDW.0>
0

>  <SCORE.INTRA.norm>
0

>  <SCORE.RESTR>
0

>  <SCORE.RESTR.CAVITY>
0

>  <SCORE.RESTR.norm>
0

>  <SCORE.SYSTEM>
0

>  <SCORE.SYSTEM.CONST>
0

>  <SCORE.SYSTEM.DIHEDRAL>
0

>  <SCORE.SYSTEM.SOLV>
0

>  <SCORE.SYSTEM.norm>
0

>  <SCORE.heavy>
10

>  <SCORE.norm>
-1.70375

>  <RMSD>
0.910

$$$$
ligand
 OpenBabel11021811423D
libRbt.so/2013.1/901 2013/11/27
 10 11  0  0  0  0  0  0  0  0999 V2000
   11.6836   11.4697    8.6457 N   0  0  0  0  0  0  0  0  0  0  0  0
   11.4697   12.8357    8.6398 C   0  0  0  0  0  0  0  0  0  0  0  0
   11.1740   13.5067    7.5182 N   0  0  0  0  0  0  0  0  0  0  0  0
   11.1131   12.7130    6.4175 C   0  0  0  0  0  0  0  0  0  0  0  0
   11.3164   11.3461    6.3509 C   0  0  0  0  0  0  0  0  0  0  0  0
   11.6303   10.6200    7.5362 C   0  0  0  0  0  0  0  0  0  0  0  0
   11.8482    9.4119    7.7069 O   0  0  0  0  0  0  0  0  0  0  0  0
   11.1598   10.9510    5.0508 N   0  0  0  0  0  0  0  0  0  0  0  0
   10.8629   12.0686    4.3418 C   0  0  0  0  0  0  0  0  0  0  0  0
   10.8275   13.1713    5.1559 N   0  0  0  0  0  0  0  0  0  0  0  0
  1  2  1  0  0  0  0
  1  6  1  0  0  0  0
  2  3  2  0  0  0  0
  3  4  1  0  0  0  0
  4  5  2  0  0  0  0
  4 10  1  0  0  0  0
  5  6  1  0  0  0  0
  5  8  1  0  0  0  0
  6  7  2  0  0  0  0
  8  9  1  0  0  0  0
  9 10  2  0  0  0  0
M  END
>  <CHROM.1>
11.31894791,11.76511393,6.75699705,0.28464288,-1.34424742,0.74886923

>  <Name>
ligand

>  <RI>
0

>  <Rbt.Current_Directory>
/home/itssahil/PROJECTS/Mol_Feturizer/New_Systems/rnas/2EEW

>  <Rbt.Executable>
rbdock ($Id: //depot/dev/client3/rdock/2013.1/src/exe/rbdock.cxx#4 $)

>  <Rbt.Library>
libRbt.so (2013.1, Build901 2013/11/27)

>  <Rbt.Parameter_File>
/export/apps/rDock/src/rDock_2013.1_src/data/scripts/dock_solv.prm

>  <Rbt.Receptor>
prm/pocket_docking_3.prm

>  <SCORE>
-17.0394

>  <SCORE.INTER>
-17.0394

>  <SCORE.INTER.CONST>
1

>  <SCORE.INTER.POLAR>
0

>  <SCORE.INTER.ROT>
0

>  <SCORE.INTER.SOLV>
3.44972

>  <SCORE.INTER.VDW>
-16.1095

>  <SCORE.INTER.norm>
-1.70394

>  <SCORE.INTRA>
0

>  <SCORE.INTRA.DIHEDRAL>
0

>  <SCORE.INTRA.DIHEDRAL.0>
0

>  <SCORE.INTRA.POLAR>
0

>  <SCORE.INTRA.POLAR.0>
0

>  <SCORE.INTRA.REPUL>
0

>  <SCORE.INTRA.REPUL.0>
0

>  <SCORE.INTRA.SOLV>
0

>  <SCORE.INTRA.SOLV.lig_0>
-4.28901

>  <SCORE.INTRA.VDW>
0

>  <SCORE.INTRA.VDW.0>
0

>  <SCORE.INTRA.norm>
0

>  <SCORE.RESTR>
0

>  <SCORE.RESTR.CAVITY>
0

>  <SCORE.RESTR.norm>
0

>  <SCORE.SYSTEM>
0

>  <SCORE.SYSTEM.CONST>
0

>  <SCORE.SYSTEM.DIHEDRAL>
0

>  <SCORE.SYSTEM.SOLV>
0

>  <SCORE.SYSTEM.norm>
0

>  <SCORE.heavy>
10

>  <SCORE.norm>
-1.70394

>  <RMSD>
0.910

$$$$
ligand
 OpenBabel11021811423D
libRbt.so/2013.1/901 2013/11/27
 10 11  0  0  0  0  0  0  0  0999 V2000
   11.6690   11.5125    8.6649 N   0  0  0  0  0  0  0  0  0  0  0  0
   11.4344   12.8751    8.6516 C   0  0  0  0  0  0  0  0  0  0  0  0
   11.1397   13.5372    7.5245 N   0  0  0  0  0  0  0  0  0  0  0  0
   11.1019   12.7386    6.4263 C   0  0  0  0  0  0  0  0  0  0  0  0
   11.3267   11.3748    6.3670 C   0  0  0  0  0  0  0  0  0  0  0  0
   11.6398   10.6579    7.5582 C   0  0  0  0  0  0  0  0  0  0  0  0
   11.8745    9.4540    7.7358 O   0  0  0  0  0  0  0  0  0  0  0  0
   11.1892   10.9724    5.0670 N   0  0  0  0  0  0  0  0  0  0  0  0
   10.8824   12.0827    4.3508 C   0  0  0  0  0  0  0  0  0  0  0  0
   10.8220   13.1877    5.1602 N   0  0  0  0  0  0  0  0  0  0  0  0
  1  2  1  0  0  0  0
  1  6  1  0  0  0  0
  2  3  2  0  0  0  0
  3  4  1  0  0  0  0
  4  5  2  0  0  0  0
  4 10  1  0  0  0  0
  5  6  1  0  0  0  0
  5  8  1  0  0  0  0
  6  7  2  0  0  0  0
  8  9  1  0  0  0  0
  9 10  2  0  0  0  0
M  END
>  <CHROM.1>
11.31885147,11.79526513,6.77153268,0.36365641,-1.34049251,0.82201948

>  <Name>
ligand

>  <RI>
0

>  <Rbt.Current_Directory>
/home/itssahil/PROJECTS/Mol_Feturizer/New_Systems/rnas/2EEW

>  <Rbt.Executable>
rbdock ($Id: //depot/dev/client3/rdock/2013.1/src/exe/rbdock.cxx#4 $)

>  <Rbt.Library>
libRbt.so (2013.1, Build901 2013/11/27)

>  <Rbt.Parameter_File>
/export/apps/rDock/src/rDock_2013.1_src/data/scripts/dock_solv.prm

>  <Rbt.Receptor>
prm/blind_docking_40.prm

>  <SCORE>
-17.0469

>  <SCORE.INTER>
-17.0469

>  <SCORE.INTER.CONST>
1

>  <SCORE.INTER.POLAR>
0

>  <SCORE.INTER.ROT>
0

>  <SCORE.INTER.SOLV>
3.41668

>  <SCORE.INTER.VDW>
-16.1035

>  <SCORE.INTER.norm>
-1.70469

>  <SCORE.INTRA>
0

>  <SCORE.INTRA.DIHEDRAL>
0

>  <SCORE.INTRA.DIHEDRAL.0>
0

>  <SCORE.INTRA.POLAR>
0

>  <SCORE.INTRA.POLAR.0>
0

>  <SCORE.INTRA.REPUL>
0

>  <SCORE.INTRA.REPUL.0>
0

>  <SCORE.INTRA.SOLV>
0

>  <SCORE.INTRA.SOLV.lig_0>
-4.28901

>  <SCORE.INTRA.VDW>
0

>  <SCORE.INTRA.VDW.0>
0

>  <SCORE.INTRA.norm>
0

>  <SCORE.RESTR>
0

>  <SCORE.RESTR.CAVITY>
0

>  <SCORE.RESTR.norm>
0

>  <SCORE.SYSTEM>
0

>  <SCORE.SYSTEM.CONST>
0

>  <SCORE.SYSTEM.DIHEDRAL>
0

>  <SCORE.SYSTEM.SOLV>
0

>  <SCORE.SYSTEM.norm>
0

>  <SCORE.heavy>
10

>  <SCORE.norm>
-1.70469

>  <RMSD>
0.912

$$$$
ligand
 OpenBabel11021811423D
libRbt.so/2013.1/901 2013/11/27
 10 11  0  0  0  0  0  0  0  0999 V2000
   11.6902   11.4723    8.6429 N   0  0  0  0  0  0  0  0  0  0  0  0
   11.4649   12.8365    8.6278 C   0  0  0  0  0  0  0  0  0  0  0  0
   11.1643   13.4975    7.5016 N   0  0  0  0  0  0  0  0  0  0  0  0
   11.1108   12.6960    6.4062 C   0  0  0  0  0  0  0  0  0  0  0  0
   11.3255   11.3305    6.3488 C   0  0  0  0  0  0  0  0  0  0  0  0
   11.6447   10.6149    7.5390 C   0  0  0  0  0  0  0  0  0  0  0  0
   11.8727    9.4099    7.7179 O   0  0  0  0  0  0  0  0  0  0  0  0
   11.1731   10.9254    5.0513 N   0  0  0  0  0  0  0  0  0  0  0  0
   10.8673   12.0358    4.3347 C   0  0  0  0  0  0  0  0  0  0  0  0
   10.8221   13.1435    5.1414 N   0  0  0  0  0  0  0  0  0  0  0  0
  1  2  1  0  0  0  0
  1  6  1  0  0  0  0
  2  3  2  0  0  0  0
  3  4  1  0  0  0  0
  4  5  2  0  0  0  0
  4 10  1  0  0  0  0
  5  6  1  0  0  0  0
  5  8  1  0  0  0  0
  6  7  2  0  0  0  0
  8  9  1  0  0  0  0
  9 10  2  0  0  0  0
M  END
>  <CHROM.1>
11.32433900,11.75217154,6.75208062,0.31327918,-1.33892324,0.77011278

>  <Name>
ligand

>  <RI>
0

>  <Rbt.Current_Directory>
/home/itssahil/PROJECTS/Mol_Feturizer/New_Systems/rnas/2EEW

>  <Rbt.Executable>
rbdock ($Id: //depot/dev/client3/rdock/2013.1/src/exe/rbdock.cxx#4 $)

>  <Rbt.Library>
libRbt.so (2013.1, Build901 2013/11/27)

>  <Rbt.Parameter_File>
/export/apps/rDock/src/rDock_2013.1_src/data/scripts/dock_solv.prm

>  <Rbt.Receptor>
prm/blind_docking_80.prm

>  <SCORE>
-17.0687

>  <SCORE.INTER>
-17.0687

>  <SCORE.INTER.CONST>
1

>  <SCORE.INTER.POLAR>
0

>  <SCORE.INTER.ROT>
0

>  <SCORE.INTER.SOLV>
3.42933

>  <SCORE.INTER.VDW>
-16.1222

>  <SCORE.INTER.norm>
-1.70687

>  <SCORE.INTRA>
0

>  <SCORE.INTRA.DIHEDRAL>
0

>  <SCORE.INTRA.DIHEDRAL.0>
0

>  <SCORE.INTRA.POLAR>
0

>  <SCORE.INTRA.POLAR.0>
0

>  <SCORE.INTRA.REPUL>
0

>  <SCORE.INTRA.REPUL.0>
0

>  <SCORE.INTRA.SOLV>
0

>  <SCORE.INTRA.SOLV.lig_0>
-4.28901

>  <SCORE.INTRA.VDW>
0

>  <SCORE.INTRA.VDW.0>
0

>  <SCORE.INTRA.norm>
0

>  <SCORE.RESTR>
0

>  <SCORE.RESTR.CAVITY>
0

>  <SCORE.RESTR.norm>
0

>  <SCORE.SYSTEM>
0

>  <SCORE.SYSTEM.CONST>
0

>  <SCORE.SYSTEM.DIHEDRAL>
0

>  <SCORE.SYSTEM.SOLV>
0

>  <SCORE.SYSTEM.norm>
0

>  <SCORE.heavy>
10

>  <SCORE.norm>
-1.70687

>  <RMSD>
0.912

$$$$
ligand
 OpenBabel11021811423D
libRbt.so/2013.1/901 2013/11/27
 10 11  0  0  0  0  0  0  0  0999 V2000
   11.6946   11.4738    8.6424 N   0  0  0  0  0  0  0  0  0  0  0  0
   11.4779   12.8393    8.6264 C   0  0  0  0  0  0  0  0  0  0  0  0
   11.1749   13.5004    7.5009 N   0  0  0  0  0  0  0  0  0  0  0  0
   11.1100   12.6976    6.4070 C   0  0  0  0  0  0  0  0  0  0  0  0
   11.3158   11.3307    6.3506 C   0  0  0  0  0  0  0  0  0  0  0  0
   11.6373   10.6149    7.5402 C   0  0  0  0  0  0  0  0  0  0  0  0
   11.8587    9.4088    7.7196 O   0  0  0  0  0  0  0  0  0  0  0  0
   11.1533   10.9246    5.0547 N   0  0  0  0  0  0  0  0  0  0  0  0
   10.8505   12.0357    4.3381 C   0  0  0  0  0  0  0  0  0  0  0  0
   10.8169   13.1449    5.1433 N   0  0  0  0  0  0  0  0  0  0  0  0
  1  2  1  0  0  0  0
  1  6  1  0  0  0  0
  2  3  2  0  0  0  0
  3  4  1  0  0  0  0
  4  5  2  0  0  0  0
  4 10  1  0  0  0  0
  5  6  1  0  0  0  0
  5  8  1  0  0  0  0
  6  7  2  0  0  0  0
  8  9  1  0  0  0  0
  9 10  2  0  0  0  0
M  END
>  <CHROM.1>
11.31962345,11.75298630,6.75323772,0.27604665,-1.33903036,0.73229008

>  <Name>
ligand

>  <RI>
0

>  <Rbt.Current_Directory>
/home/itssahil/PROJECTS/Mol_Feturizer/New_Systems/rnas/2EEW

>  <Rbt.Executable>
rbdock ($Id: //depot/dev/client3/rdock/2013.1/src/exe/rbdock.cxx#4 $)

>  <Rbt.Library>
libRbt.so (2013.1, Build901 2013/11/27)

>  <Rbt.Parameter_File>
/export/apps/rDock/src/rDock_2013.1_src/data/scripts/dock_solv.prm

>  <Rbt.Receptor>
prm/blind_docking_60.prm

>  <SCORE>
-17.0685

>  <SCORE.INTER>
-17.0685

>  <SCORE.INTER.CONST>
1

>  <SCORE.INTER.POLAR>
0

>  <SCORE.INTER.ROT>
0

>  <SCORE.INTER.SOLV>
3.44104

>  <SCORE.INTER.VDW>
-16.126

>  <SCORE.INTER.norm>
-1.70685

>  <SCORE.INTRA>
0

>  <SCORE.INTRA.DIHEDRAL>
0

>  <SCORE.INTRA.DIHEDRAL.0>
0

>  <SCORE.INTRA.POLAR>
0

>  <SCORE.INTRA.POLAR.0>
0

>  <SCORE.INTRA.REPUL>
0

>  <SCORE.INTRA.REPUL.0>
0

>  <SCORE.INTRA.SOLV>
0

>  <SCORE.INTRA.SOLV.lig_0>
-4.28901

>  <SCORE.INTRA.VDW>
0

>  <SCORE.INTRA.VDW.0>
0

>  <SCORE.INTRA.norm>
0

>  <SCORE.RESTR>
0

>  <SCORE.RESTR.CAVITY>
0

>  <SCORE.RESTR.norm>
0

>  <SCORE.SYSTEM>
0

>  <SCORE.SYSTEM.CONST>
0

>  <SCORE.SYSTEM.DIHEDRAL>
0

>  <SCORE.SYSTEM.SOLV>
0

>  <SCORE.SYSTEM.norm>
0

>  <SCORE.heavy>
10

>  <SCORE.norm>
-1.70685

>  <RMSD>
0.913

$$$$
ligand
 OpenBabel11021811423D
libRbt.so/2013.1/901 2013/11/27
 10 11  0  0  0  0  0  0  0  0999 V2000
   11.6776   11.4919    8.6529 N   0  0  0  0  0  0  0  0  0  0  0  0
   11.4578   12.8570    8.6439 C   0  0  0  0  0  0  0  0  0  0  0  0
   11.1622   13.5246    7.5203 N   0  0  0  0  0  0  0  0  0  0  0  0
   11.1077   12.7286    6.4209 C   0  0  0  0  0  0  0  0  0  0  0  0
   11.3170   11.3625    6.3574 C   0  0  0  0  0  0  0  0  0  0  0  0
   11.6309   10.6399    7.5449 C   0  0  0  0  0  0  0  0  0  0  0  0
   11.8536    9.4332    7.7184 O   0  0  0  0  0  0  0  0  0  0  0  0
   11.1656   10.9643    5.0576 N   0  0  0  0  0  0  0  0  0  0  0  0
   10.8658   12.0794    4.3458 C   0  0  0  0  0  0  0  0  0  0  0  0
   10.8234   13.1833    5.1577 N   0  0  0  0  0  0  0  0  0  0  0  0
  1  2  1  0  0  0  0
  1  6  1  0  0  0  0
  2  3  2  0  0  0  0
  3  4  1  0  0  0  0
  4  5  2  0  0  0  0
  4 10  1  0  0  0  0
  5  6  1  0  0  0  0
  5  8  1  0  0  0  0
  6  7  2  0  0  0  0
  8  9  1  0  0  0  0
  9 10  2  0  0  0  0
M  END
>  <CHROM.1>
11.31672174,11.78228930,6.76270482,0.30673226,-1.34320943,0.76853176

>  <Name>
ligand

>  <RI>
0

>  <Rbt.Current_Directory>
/home/itssahil/PROJECTS/Mol_Feturizer/New_Systems/rnas/2EEW

>  <Rbt.Executable>
rbdock ($Id: //depot/dev/client3/rdock/2013.1/src/exe/rbdock.cxx#4 $)

>  <Rbt.Library>
libRbt.so (2013.1, Build901 2013/11/27)

>  <Rbt.Parameter_File>
/export/apps/rDock/src/rDock_2013.1_src/data/scripts/dock_solv.prm

>  <Rbt.Receptor>
prm/blind_docking_80.prm

>  <SCORE>
-17.0352

>  <SCORE.INTER>
-17.0352

>  <SCORE.INTER.CONST>
1

>  <SCORE.INTER.POLAR>
0

>  <SCORE.INTER.ROT>
0

>  <SCORE.INTER.SOLV>
3.43929

>  <SCORE.INTER.VDW>
-16.1032

>  <SCORE.INTER.norm>
-1.70352

>  <SCORE.INTRA>
0

>  <SCORE.INTRA.DIHEDRAL>
0

>  <SCORE.INTRA.DIHEDRAL.0>
0

>  <SCORE.INTRA.POLAR>
0

>  <SCORE.INTRA.POLAR.0>
0

>  <SCORE.INTRA.REPUL>
0

>  <SCORE.INTRA.REPUL.0>
0

>  <SCORE.INTRA.SOLV>
0

>  <SCORE.INTRA.SOLV.lig_0>
-4.28901

>  <SCORE.INTRA.VDW>
0

>  <SCORE.INTRA.VDW.0>
0

>  <SCORE.INTRA.norm>
0

>  <SCORE.RESTR>
0

>  <SCORE.RESTR.CAVITY>
0

>  <SCORE.RESTR.norm>
0

>  <SCORE.SYSTEM>
0

>  <SCORE.SYSTEM.CONST>
0

>  <SCORE.SYSTEM.DIHEDRAL>
0

>  <SCORE.SYSTEM.SOLV>
0

>  <SCORE.SYSTEM.norm>
0

>  <SCORE.heavy>
10

>  <SCORE.norm>
-1.70352

>  <RMSD>
0.913

$$$$
ligand
 OpenBabel11021811423D
libRbt.so/2013.1/901 2013/11/27
 10 11  0  0  0  0  0  0  0  0999 V2000
   11.6860   11.5715    8.6911 N   0  0  0  0  0  0  0  0  0  0  0  0
   11.4394   12.9309    8.6354 C   0  0  0  0  0  0  0  0  0  0  0  0
   11.1264   13.5529    7.4906 N   0  0  0  0  0  0  0  0  0  0  0  0
   11.0832   12.7181    6.4199 C   0  0  0  0  0  0  0  0  0  0  0  0
   11.3191   11.3549    6.4031 C   0  0  0  0  0  0  0  0  0  0  0  0
   11.6518   10.6805    7.6136 C   0  0  0  0  0  0  0  0  0  0  0  0
   11.8989    9.4852    7.8280 O   0  0  0  0  0  0  0  0  0  0  0  0
   11.1705   10.9087    5.1187 N   0  0  0  0  0  0  0  0  0  0  0  0
   10.8461   11.9921    4.3698 C   0  0  0  0  0  0  0  0  0  0  0  0
   10.7852   13.1228    5.1430 N   0  0  0  0  0  0  0  0  0  0  0  0
  1  2  1  0  0  0  0
  1  6  1  0  0  0  0
  2  3  2  0  0  0  0
  3  4  1  0  0  0  0
  4  5  2  0  0  0  0
  4 10  1  0  0  0  0
  5  6  1  0  0  0  0
  5  8  1  0  0  0  0
  6  7  2  0  0  0  0
  8  9  1  0  0  0  0
  9 10  2  0  0  0  0
M  END
>  <CHROM.1>
11.31215857,11.78851751,6.79352370,0.35402316,-1.32648451,0.77960825

>  <Name>
ligand

>  <RI>
0

>  <Rbt.Current_Directory>
/home/itssahil/PROJECTS/Mol_Feturizer/New_Systems/rnas/2EEW

>  <Rbt.Executable>
rbdock ($Id: //depot/dev/client3/rdock/2013.1/src/exe/rbdock.cxx#4 $)

>  <Rbt.Library>
libRbt.so (2013.1, Build901 2013/11/27)

>  <Rbt.Parameter_File>
/export/apps/rDock/src/rDock_2013.1_src/data/scripts/dock_solv.prm

>  <Rbt.Receptor>
prm/pocket_docking_4.prm

>  <SCORE>
-17.0687

>  <SCORE.INTER>
-17.0687

>  <SCORE.INTER.CONST>
1

>  <SCORE.INTER.POLAR>
0

>  <SCORE.INTER.ROT>
0

>  <SCORE.INTER.SOLV>
3.40933

>  <SCORE.INTER.VDW>
-16.1155

>  <SCORE.INTER.norm>
-1.70687

>  <SCORE.INTRA>
0

>  <SCORE.INTRA.DIHEDRAL>
0

>  <SCORE.INTRA.DIHEDRAL.0>
0

>  <SCORE.INTRA.POLAR>
0

>  <SCORE.INTRA.POLAR.0>
0

>  <SCORE.INTRA.REPUL>
0

>  <SCORE.INTRA.REPUL.0>
0

>  <SCORE.INTRA.SOLV>
0

>  <SCORE.INTRA.SOLV.lig_0>
-4.28901

>  <SCORE.INTRA.VDW>
0

>  <SCORE.INTRA.VDW.0>
0

>  <SCORE.INTRA.norm>
0

>  <SCORE.RESTR>
0

>  <SCORE.RESTR.CAVITY>
0

>  <SCORE.RESTR.norm>
0

>  <SCORE.SYSTEM>
0

>  <SCORE.SYSTEM.CONST>
0

>  <SCORE.SYSTEM.DIHEDRAL>
0

>  <SCORE.SYSTEM.SOLV>
0

>  <SCORE.SYSTEM.norm>
0

>  <SCORE.heavy>
10

>  <SCORE.norm>
-1.70687

>  <RMSD>
0.913

$$$$
ligand
 OpenBabel11021811423D
libRbt.so/2013.1/901 2013/11/27
 10 11  0  0  0  0  0  0  0  0999 V2000
   11.6815   11.4641    8.6382 N   0  0  0  0  0  0  0  0  0  0  0  0
   11.4507   12.8273    8.6266 C   0  0  0  0  0  0  0  0  0  0  0  0
   11.1518   13.4907    7.5013 N   0  0  0  0  0  0  0  0  0  0  0  0
   11.1057   12.6926    6.4031 C   0  0  0  0  0  0  0  0  0  0  0  0
   11.3262   11.3281    6.3422 C   0  0  0  0  0  0  0  0  0  0  0  0
   11.6437   10.6100    7.5314 C   0  0  0  0  0  0  0  0  0  0  0  0
   11.8758    9.4053    7.7073 O   0  0  0  0  0  0  0  0  0  0  0  0
   11.1804   10.9266    5.0428 N   0  0  0  0  0  0  0  0  0  0  0  0
   10.8730   12.0381    4.3286 C   0  0  0  0  0  0  0  0  0  0  0  0
   10.8202   13.1430    5.1387 N   0  0  0  0  0  0  0  0  0  0  0  0
  1  2  1  0  0  0  0
  1  6  1  0  0  0  0
  2  3  2  0  0  0  0
  3  4  1  0  0  0  0
  4  5  2  0  0  0  0
  4 10  1  0  0  0  0
  5  6  1  0  0  0  0
  5  8  1  0  0  0  0
  6  7  2  0  0  0  0
  8  9  1  0  0  0  0
  9 10  2  0  0  0  0
M  END
>  <CHROM.1>
11.32178249,11.74850806,6.74684148,0.33759155,-1.33883763,0.79698233

>  <Name>
ligand

>  <RI>
0

>  <Rbt.Current_Directory>
/home/itssahil/PROJECTS/Mol_Feturizer/New_Systems/rnas/2EEW

>  <Rbt.Executable>
rbdock ($Id: //depot/dev/client3/rdock/2013.1/src/exe/rbdock.cxx#4 $)

>  <Rbt.Library>
libRbt.so (2013.1, Build901 2013/11/27)

>  <Rbt.Parameter_File>
/export/apps/rDock/src/rDock_2013.1_src/data/scripts/dock_solv.prm

>  <Rbt.Receptor>
prm/blind_docking_100.prm

>  <SCORE>
-17.0635

>  <SCORE.INTER>
-17.0635

>  <SCORE.INTER.CONST>
1

>  <SCORE.INTER.POLAR>
0

>  <SCORE.INTER.ROT>
0

>  <SCORE.INTER.SOLV>
3.42324

>  <SCORE.INTER.VDW>
-16.1168

>  <SCORE.INTER.norm>
-1.70635

>  <SCORE.INTRA>
0

>  <SCORE.INTRA.DIHEDRAL>
0

>  <SCORE.INTRA.DIHEDRAL.0>
0

>  <SCORE.INTRA.POLAR>
0

>  <SCORE.INTRA.POLAR.0>
0

>  <SCORE.INTRA.REPUL>
0

>  <SCORE.INTRA.REPUL.0>
0

>  <SCORE.INTRA.SOLV>
0

>  <SCORE.INTRA.SOLV.lig_0>
-4.28901

>  <SCORE.INTRA.VDW>
0

>  <SCORE.INTRA.VDW.0>
0

>  <SCORE.INTRA.norm>
0

>  <SCORE.RESTR>
0

>  <SCORE.RESTR.CAVITY>
0

>  <SCORE.RESTR.norm>
0

>  <SCORE.SYSTEM>
0

>  <SCORE.SYSTEM.CONST>
0

>  <SCORE.SYSTEM.DIHEDRAL>
0

>  <SCORE.SYSTEM.SOLV>
0

>  <SCORE.SYSTEM.norm>
0

>  <SCORE.heavy>
10

>  <SCORE.norm>
-1.70635

>  <RMSD>
0.914

$$$$
ligand
 OpenBabel11021811423D
libRbt.so/2013.1/901 2013/11/27
 10 11  0  0  0  0  0  0  0  0999 V2000
   11.6889   11.4639    8.6353 N   0  0  0  0  0  0  0  0  0  0  0  0
   11.4550   12.8266    8.6269 C   0  0  0  0  0  0  0  0  0  0  0  0
   11.1505   13.4912    7.5038 N   0  0  0  0  0  0  0  0  0  0  0  0
   11.1023   12.6949    6.4044 C   0  0  0  0  0  0  0  0  0  0  0  0
   11.3257   11.3310    6.3404 C   0  0  0  0  0  0  0  0  0  0  0  0
   11.6491   10.6116    7.5272 C   0  0  0  0  0  0  0  0  0  0  0  0
   11.8847    9.4072    7.7002 O   0  0  0  0  0  0  0  0  0  0  0  0
   11.1762   10.9314    5.0409 N   0  0  0  0  0  0  0  0  0  0  0  0
   10.8636   12.0434    4.3296 C   0  0  0  0  0  0  0  0  0  0  0  0
   10.8112   13.1468    5.1418 N   0  0  0  0  0  0  0  0  0  0  0  0
  1  2  1  0  0  0  0
  1  6  1  0  0  0  0
  2  3  2  0  0  0  0
  3  4  1  0  0  0  0
  4  5  2  0  0  0  0
  4 10  1  0  0  0  0
  5  6  1  0  0  0  0
  5  8  1  0  0  0  0
  6  7  2  0  0  0  0
  8  9  1  0  0  0  0
  9 10  2  0  0  0  0
M  END
>  <CHROM.1>
11.32177868,11.75071370,6.74576501,0.33352335,-1.33468062,0.79473668

>  <Name>
ligand

>  <RI>
0

>  <Rbt.Current_Directory>
/home/itssahil/PROJECTS/Mol_Feturizer/New_Systems/rnas/2EEW

>  <Rbt.Executable>
rbdock ($Id: //depot/dev/client3/rdock/2013.1/src/exe/rbdock.cxx#4 $)

>  <Rbt.Library>
libRbt.so (2013.1, Build901 2013/11/27)

>  <Rbt.Parameter_File>
/export/apps/rDock/src/rDock_2013.1_src/data/scripts/dock_solv.prm

>  <Rbt.Receptor>
prm/blind_docking_60.prm

>  <SCORE>
-17.0647

>  <SCORE.INTER>
-17.0647

>  <SCORE.INTER.CONST>
1

>  <SCORE.INTER.POLAR>
0

>  <SCORE.INTER.ROT>
0

>  <SCORE.INTER.SOLV>
3.40881

>  <SCORE.INTER.VDW>
-16.1127

>  <SCORE.INTER.norm>
-1.70647

>  <SCORE.INTRA>
0

>  <SCORE.INTRA.DIHEDRAL>
0

>  <SCORE.INTRA.DIHEDRAL.0>
0

>  <SCORE.INTRA.POLAR>
0

>  <SCORE.INTRA.POLAR.0>
0

>  <SCORE.INTRA.REPUL>
0

>  <SCORE.INTRA.REPUL.0>
0

>  <SCORE.INTRA.SOLV>
0

>  <SCORE.INTRA.SOLV.lig_0>
-4.28901

>  <SCORE.INTRA.VDW>
0

>  <SCORE.INTRA.VDW.0>
0

>  <SCORE.INTRA.norm>
0

>  <SCORE.RESTR>
0

>  <SCORE.RESTR.CAVITY>
0

>  <SCORE.RESTR.norm>
0

>  <SCORE.SYSTEM>
0

>  <SCORE.SYSTEM.CONST>
0

>  <SCORE.SYSTEM.DIHEDRAL>
0

>  <SCORE.SYSTEM.SOLV>
0

>  <SCORE.SYSTEM.norm>
0

>  <SCORE.heavy>
10

>  <SCORE.norm>
-1.70647

>  <RMSD>
0.914

$$$$
ligand
 OpenBabel11021811423D
libRbt.so/2013.1/901 2013/11/27
 10 11  0  0  0  0  0  0  0  0999 V2000
   11.6861   11.4802    8.6455 N   0  0  0  0  0  0  0  0  0  0  0  0
   11.4655   12.8450    8.6265 C   0  0  0  0  0  0  0  0  0  0  0  0
   11.1656   13.5036    7.4987 N   0  0  0  0  0  0  0  0  0  0  0  0
   11.1076   12.6989    6.4058 C   0  0  0  0  0  0  0  0  0  0  0  0
   11.3175   11.3325    6.3523 C   0  0  0  0  0  0  0  0  0  0  0  0
   11.6360   10.6194    7.5444 C   0  0  0  0  0  0  0  0  0  0  0  0
   11.8600    9.4142    7.7266 O   0  0  0  0  0  0  0  0  0  0  0  0
   11.1618   10.9240    5.0563 N   0  0  0  0  0  0  0  0  0  0  0  0
   10.8588   12.0332    4.3368 C   0  0  0  0  0  0  0  0  0  0  0  0
   10.8187   13.1435    5.1402 N   0  0  0  0  0  0  0  0  0  0  0  0
  1  2  1  0  0  0  0
  1  6  1  0  0  0  0
  2  3  2  0  0  0  0
  3  4  1  0  0  0  0
  4  5  2  0  0  0  0
  4 10  1  0  0  0  0
  5  6  1  0  0  0  0
  5  8  1  0  0  0  0
  6  7  2  0  0  0  0
  8  9  1  0  0  0  0
  9 10  2  0  0  0  0
M  END
>  <CHROM.1>
11.31841255,11.75542268,6.75436465,0.29778202,-1.34027549,0.75193941

>  <Name>
ligand

>  <RI>
0

>  <Rbt.Current_Directory>
/home/itssahil/PROJECTS/Mol_Feturizer/New_Systems/rnas/2EEW

>  <Rbt.Executable>
rbdock ($Id: //depot/dev/client3/rdock/2013.1/src/exe/rbdock.cxx#4 $)

>  <Rbt.Library>
libRbt.so (2013.1, Build901 2013/11/27)

>  <Rbt.Parameter_File>
/export/apps/rDock/src/rDock_2013.1_src/data/scripts/dock_solv.prm

>  <Rbt.Receptor>
prm/pocket_docking_5.prm

>  <SCORE>
-17.0705

>  <SCORE.INTER>
-17.0705

>  <SCORE.INTER.CONST>
1

>  <SCORE.INTER.POLAR>
0

>  <SCORE.INTER.ROT>
0

>  <SCORE.INTER.SOLV>
3.44048

>  <SCORE.INTER.VDW>
-16.1272

>  <SCORE.INTER.norm>
-1.70705

>  <SCORE.INTRA>
0

>  <SCORE.INTRA.DIHEDRAL>
0

>  <SCORE.INTRA.DIHEDRAL.0>
0

>  <SCORE.INTRA.POLAR>
0

>  <SCORE.INTRA.POLAR.0>
0

>  <SCORE.INTRA.REPUL>
0

>  <SCORE.INTRA.REPUL.0>
0

>  <SCORE.INTRA.SOLV>
0

>  <SCORE.INTRA.SOLV.lig_0>
-4.28901

>  <SCORE.INTRA.VDW>
0

>  <SCORE.INTRA.VDW.0>
0

>  <SCORE.INTRA.norm>
0

>  <SCORE.RESTR>
0

>  <SCORE.RESTR.CAVITY>
0

>  <SCORE.RESTR.norm>
0

>  <SCORE.SYSTEM>
0

>  <SCORE.SYSTEM.CONST>
0

>  <SCORE.SYSTEM.DIHEDRAL>
0

>  <SCORE.SYSTEM.SOLV>
0

>  <SCORE.SYSTEM.norm>
0

>  <SCORE.heavy>
10

>  <SCORE.norm>
-1.70705

>  <RMSD>
0.914

$$$$
ligand
 OpenBabel11021811423D
libRbt.so/2013.1/901 2013/11/27
 10 11  0  0  0  0  0  0  0  0999 V2000
   11.6920   11.4755    8.6399 N   0  0  0  0  0  0  0  0  0  0  0  0
   11.4651   12.8393    8.6261 C   0  0  0  0  0  0  0  0  0  0  0  0
   11.1605   13.5005    7.5010 N   0  0  0  0  0  0  0  0  0  0  0  0
   11.1049   12.6996    6.4053 C   0  0  0  0  0  0  0  0  0  0  0  0
   11.3211   11.3343    6.3466 C   0  0  0  0  0  0  0  0  0  0  0  0
   11.6445   10.6185    7.5357 C   0  0  0  0  0  0  0  0  0  0  0  0
   11.8744    9.4137    7.7133 O   0  0  0  0  0  0  0  0  0  0  0  0
   11.1655   10.9298    5.0494 N   0  0  0  0  0  0  0  0  0  0  0  0
   10.8564   12.0402    4.3342 C   0  0  0  0  0  0  0  0  0  0  0  0
   10.8122   13.1474    5.1416 N   0  0  0  0  0  0  0  0  0  0  0  0
  1  2  1  0  0  0  0
  1  6  1  0  0  0  0
  2  3  2  0  0  0  0
  3  4  1  0  0  0  0
  4  5  2  0  0  0  0
  4 10  1  0  0  0  0
  5  6  1  0  0  0  0
  5  8  1  0  0  0  0
  6  7  2  0  0  0  0
  8  9  1  0  0  0  0
  9 10  2  0  0  0  0
M  END
>  <CHROM.1>
11.32054741,11.75581959,6.75018066,0.30859619,-1.33610267,0.76606996

>  <Name>
ligand

>  <RI>
0

>  <Rbt.Current_Directory>
/home/itssahil/PROJECTS/Mol_Feturizer/New_Systems/rnas/2EEW

>  <Rbt.Executable>
rbdock ($Id: //depot/dev/client3/rdock/2013.1/src/exe/rbdock.cxx#4 $)

>  <Rbt.Library>
libRbt.so (2013.1, Build901 2013/11/27)

>  <Rbt.Parameter_File>
/export/apps/rDock/src/rDock_2013.1_src/data/scripts/dock_solv.prm

>  <Rbt.Receptor>
prm/pocket_docking_8.prm

>  <SCORE>
-17.0696

>  <SCORE.INTER>
-17.0696

>  <SCORE.INTER.CONST>
1

>  <SCORE.INTER.POLAR>
0

>  <SCORE.INTER.ROT>
0

>  <SCORE.INTER.SOLV>
3.42044

>  <SCORE.INTER.VDW>
-16.1199

>  <SCORE.INTER.norm>
-1.70696

>  <SCORE.INTRA>
0

>  <SCORE.INTRA.DIHEDRAL>
0

>  <SCORE.INTRA.DIHEDRAL.0>
0

>  <SCORE.INTRA.POLAR>
0

>  <SCORE.INTRA.POLAR.0>
0

>  <SCORE.INTRA.REPUL>
0

>  <SCORE.INTRA.REPUL.0>
0

>  <SCORE.INTRA.SOLV>
0

>  <SCORE.INTRA.SOLV.lig_0>
-4.28901

>  <SCORE.INTRA.VDW>
0

>  <SCORE.INTRA.VDW.0>
0

>  <SCORE.INTRA.norm>
0

>  <SCORE.RESTR>
0

>  <SCORE.RESTR.CAVITY>
0

>  <SCORE.RESTR.norm>
0

>  <SCORE.SYSTEM>
0

>  <SCORE.SYSTEM.CONST>
0

>  <SCORE.SYSTEM.DIHEDRAL>
0

>  <SCORE.SYSTEM.SOLV>
0

>  <SCORE.SYSTEM.norm>
0

>  <SCORE.heavy>
10

>  <SCORE.norm>
-1.70696

>  <RMSD>
0.914

$$$$
ligand
 OpenBabel11021811423D
libRbt.so/2013.1/901 2013/11/27
 10 11  0  0  0  0  0  0  0  0999 V2000
   11.6692   11.4783    8.6474 N   0  0  0  0  0  0  0  0  0  0  0  0
   11.4457   12.8428    8.6392 C   0  0  0  0  0  0  0  0  0  0  0  0
   11.1519   13.5108    7.5153 N   0  0  0  0  0  0  0  0  0  0  0  0
   11.1031   12.7159    6.4149 C   0  0  0  0  0  0  0  0  0  0  0  0
   11.3163   11.3504    6.3506 C   0  0  0  0  0  0  0  0  0  0  0  0
   11.6284   10.6274    7.5383 C   0  0  0  0  0  0  0  0  0  0  0  0
   11.8538    9.4211    7.7112 O   0  0  0  0  0  0  0  0  0  0  0  0
   11.1702   10.9532    5.0500 N   0  0  0  0  0  0  0  0  0  0  0  0
   10.8696   12.0682    4.3383 C   0  0  0  0  0  0  0  0  0  0  0  0
   10.8216   13.1712    5.1513 N   0  0  0  0  0  0  0  0  0  0  0  0
  1  2  1  0  0  0  0
  1  6  1  0  0  0  0
  2  3  2  0  0  0  0
  3  4  1  0  0  0  0
  4  5  2  0  0  0  0
  4 10  1  0  0  0  0
  5  6  1  0  0  0  0
  5  8  1  0  0  0  0
  6  7  2  0  0  0  0
  8  9  1  0  0  0  0
  9 10  2  0  0  0  0
M  END
>  <CHROM.1>
11.31358532,11.76976089,6.75636828,0.32531975,-1.34357714,0.78771956

>  <Name>
ligand

>  <RI>
0

>  <Rbt.Current_Directory>
/home/itssahil/PROJECTS/Mol_Feturizer/New_Systems/rnas/2EEW

>  <Rbt.Executable>
rbdock ($Id: //depot/dev/client3/rdock/2013.1/src/exe/rbdock.cxx#4 $)

>  <Rbt.Library>
libRbt.so (2013.1, Build901 2013/11/27)

>  <Rbt.Parameter_File>
/export/apps/rDock/src/rDock_2013.1_src/data/scripts/dock_solv.prm

>  <Rbt.Receptor>
prm/blind_docking_100.prm

>  <SCORE>
-17.0333

>  <SCORE.INTER>
-17.0333

>  <SCORE.INTER.CONST>
1

>  <SCORE.INTER.POLAR>
0

>  <SCORE.INTER.ROT>
0

>  <SCORE.INTER.SOLV>
3.43954

>  <SCORE.INTER.VDW>
-16.1021

>  <SCORE.INTER.norm>
-1.70333

>  <SCORE.INTRA>
0

>  <SCORE.INTRA.DIHEDRAL>
0

>  <SCORE.INTRA.DIHEDRAL.0>
0

>  <SCORE.INTRA.POLAR>
0

>  <SCORE.INTRA.POLAR.0>
0

>  <SCORE.INTRA.REPUL>
0

>  <SCORE.INTRA.REPUL.0>
0

>  <SCORE.INTRA.SOLV>
0

>  <SCORE.INTRA.SOLV.lig_0>
-4.28901

>  <SCORE.INTRA.VDW>
0

>  <SCORE.INTRA.VDW.0>
0

>  <SCORE.INTRA.norm>
0

>  <SCORE.RESTR>
0

>  <SCORE.RESTR.CAVITY>
0

>  <SCORE.RESTR.norm>
0

>  <SCORE.SYSTEM>
0

>  <SCORE.SYSTEM.CONST>
0

>  <SCORE.SYSTEM.DIHEDRAL>
0

>  <SCORE.SYSTEM.SOLV>
0

>  <SCORE.SYSTEM.norm>
0

>  <SCORE.heavy>
10

>  <SCORE.norm>
-1.70333

>  <RMSD>
0.915

$$$$
ligand
 OpenBabel11021811423D
libRbt.so/2013.1/901 2013/11/27
 10 11  0  0  0  0  0  0  0  0999 V2000
   11.6818   11.4680    8.6399 N   0  0  0  0  0  0  0  0  0  0  0  0
   11.4520   12.8315    8.6268 C   0  0  0  0  0  0  0  0  0  0  0  0
   11.1528   13.4937    7.5010 N   0  0  0  0  0  0  0  0  0  0  0  0
   11.1054   12.6943    6.4038 C   0  0  0  0  0  0  0  0  0  0  0  0
   11.3248   11.3296    6.3443 C   0  0  0  0  0  0  0  0  0  0  0  0
   11.6426   10.6127    7.5341 C   0  0  0  0  0  0  0  0  0  0  0  0
   11.8740    9.4081    7.7113 O   0  0  0  0  0  0  0  0  0  0  0  0
   11.1778   10.9267    5.0455 N   0  0  0  0  0  0  0  0  0  0  0  0
   10.8707   12.0375    4.3302 C   0  0  0  0  0  0  0  0  0  0  0  0
   10.8193   13.1434    5.1390 N   0  0  0  0  0  0  0  0  0  0  0  0
  1  2  1  0  0  0  0
  1  6  1  0  0  0  0
  2  3  2  0  0  0  0
  3  4  1  0  0  0  0
  4  5  2  0  0  0  0
  4 10  1  0  0  0  0
  5  6  1  0  0  0  0
  5  8  1  0  0  0  0
  6  7  2  0  0  0  0
  8  9  1  0  0  0  0
  9 10  2  0  0  0  0
M  END
>  <CHROM.1>
11.32095123,11.75049659,6.74844228,0.33324330,-1.33886762,0.79156800

>  <Name>
ligand

>  <RI>
0

>  <Rbt.Current_Directory>
/home/itssahil/PROJECTS/Mol_Feturizer/New_Systems/rnas/2EEW

>  <Rbt.Executable>
rbdock ($Id: //depot/dev/client3/rdock/2013.1/src/exe/rbdock.cxx#4 $)

>  <Rbt.Library>
libRbt.so (2013.1, Build901 2013/11/27)

>  <Rbt.Parameter_File>
/export/apps/rDock/src/rDock_2013.1_src/data/scripts/dock_solv.prm

>  <Rbt.Receptor>
prm/pocket_docking_4.prm

>  <SCORE>
-17.0655

>  <SCORE.INTER>
-17.0655

>  <SCORE.INTER.CONST>
1

>  <SCORE.INTER.POLAR>
0

>  <SCORE.INTER.ROT>
0

>  <SCORE.INTER.SOLV>
3.42469

>  <SCORE.INTER.VDW>
-16.1186

>  <SCORE.INTER.norm>
-1.70655

>  <SCORE.INTRA>
0

>  <SCORE.INTRA.DIHEDRAL>
0

>  <SCORE.INTRA.DIHEDRAL.0>
0

>  <SCORE.INTRA.POLAR>
0

>  <SCORE.INTRA.POLAR.0>
0

>  <SCORE.INTRA.REPUL>
0

>  <SCORE.INTRA.REPUL.0>
0

>  <SCORE.INTRA.SOLV>
0

>  <SCORE.INTRA.SOLV.lig_0>
-4.28901

>  <SCORE.INTRA.VDW>
0

>  <SCORE.INTRA.VDW.0>
0

>  <SCORE.INTRA.norm>
0

>  <SCORE.RESTR>
0

>  <SCORE.RESTR.CAVITY>
0

>  <SCORE.RESTR.norm>
0

>  <SCORE.SYSTEM>
0

>  <SCORE.SYSTEM.CONST>
0

>  <SCORE.SYSTEM.DIHEDRAL>
0

>  <SCORE.SYSTEM.SOLV>
0

>  <SCORE.SYSTEM.norm>
0

>  <SCORE.heavy>
10

>  <SCORE.norm>
-1.70655

>  <RMSD>
0.915

$$$$
ligand
 OpenBabel11021811423D
libRbt.so/2013.1/901 2013/11/27
 10 11  0  0  0  0  0  0  0  0999 V2000
   11.6806   11.4864    8.6470 N   0  0  0  0  0  0  0  0  0  0  0  0
   11.4531   12.8501    8.6273 C   0  0  0  0  0  0  0  0  0  0  0  0
   11.1533   13.5072    7.4986 N   0  0  0  0  0  0  0  0  0  0  0  0
   11.1029   12.7023    6.4055 C   0  0  0  0  0  0  0  0  0  0  0  0
   11.3199   11.3369    6.3526 C   0  0  0  0  0  0  0  0  0  0  0  0
   11.6383   10.6255    7.5456 C   0  0  0  0  0  0  0  0  0  0  0  0
   11.8679    9.4214    7.7286 O   0  0  0  0  0  0  0  0  0  0  0  0
   11.1703   10.9277    5.0562 N   0  0  0  0  0  0  0  0  0  0  0  0
   10.8639   12.0354    4.3357 C   0  0  0  0  0  0  0  0  0  0  0  0
   10.8156   13.1455    5.1390 N   0  0  0  0  0  0  0  0  0  0  0  0
  1  2  1  0  0  0  0
  1  6  1  0  0  0  0
  2  3  2  0  0  0  0
  3  4  1  0  0  0  0
  4  5  2  0  0  0  0
  4 10  1  0  0  0  0
  5  6  1  0  0  0  0
  5  8  1  0  0  0  0
  6  7  2  0  0  0  0
  8  9  1  0  0  0  0
  9 10  2  0  0  0  0
M  END
>  <CHROM.1>
11.31738562,11.75986673,6.75468136,0.32335623,-1.33898965,0.77686767

>  <Name>
ligand

>  <RI>
0

>  <Rbt.Current_Directory>
/home/itssahil/PROJECTS/Mol_Feturizer/New_Systems/rnas/2EEW

>  <Rbt.Executable>
rbdock ($Id: //depot/dev/client3/rdock/2013.1/src/exe/rbdock.cxx#4 $)

>  <Rbt.Library>
libRbt.so (2013.1, Build901 2013/11/27)

>  <Rbt.Parameter_File>
/export/apps/rDock/src/rDock_2013.1_src/data/scripts/dock_solv.prm

>  <Rbt.Receptor>
prm/blind_docking_40.prm

>  <SCORE>
-17.0688

>  <SCORE.INTER>
-17.0688

>  <SCORE.INTER.CONST>
1

>  <SCORE.INTER.POLAR>
0

>  <SCORE.INTER.ROT>
0

>  <SCORE.INTER.SOLV>
3.42933

>  <SCORE.INTER.VDW>
-16.1223

>  <SCORE.INTER.norm>
-1.70688

>  <SCORE.INTRA>
0

>  <SCORE.INTRA.DIHEDRAL>
0

>  <SCORE.INTRA.DIHEDRAL.0>
0

>  <SCORE.INTRA.POLAR>
0

>  <SCORE.INTRA.POLAR.0>
0

>  <SCORE.INTRA.REPUL>
0

>  <SCORE.INTRA.REPUL.0>
0

>  <SCORE.INTRA.SOLV>
0

>  <SCORE.INTRA.SOLV.lig_0>
-4.28901

>  <SCORE.INTRA.VDW>
0

>  <SCORE.INTRA.VDW.0>
0

>  <SCORE.INTRA.norm>
0

>  <SCORE.RESTR>
0

>  <SCORE.RESTR.CAVITY>
0

>  <SCORE.RESTR.norm>
0

>  <SCORE.SYSTEM>
0

>  <SCORE.SYSTEM.CONST>
0

>  <SCORE.SYSTEM.DIHEDRAL>
0

>  <SCORE.SYSTEM.SOLV>
0

>  <SCORE.SYSTEM.norm>
0

>  <SCORE.heavy>
10

>  <SCORE.norm>
-1.70688

>  <RMSD>
0.916

$$$$
ligand
 OpenBabel11021811423D
libRbt.so/2013.1/901 2013/11/27
 10 11  0  0  0  0  0  0  0  0999 V2000
   11.6748   11.4899    8.6498 N   0  0  0  0  0  0  0  0  0  0  0  0
   11.4445   12.8531    8.6292 C   0  0  0  0  0  0  0  0  0  0  0  0
   11.1440   13.5089    7.5000 N   0  0  0  0  0  0  0  0  0  0  0  0
   11.0958   12.7034    6.4073 C   0  0  0  0  0  0  0  0  0  0  0  0
   11.3156   11.3384    6.3553 C   0  0  0  0  0  0  0  0  0  0  0  0
   11.6348   10.6283    7.5489 C   0  0  0  0  0  0  0  0  0  0  0  0
   11.8668    9.4247    7.7326 O   0  0  0  0  0  0  0  0  0  0  0  0
   11.1675   10.9281    5.0590 N   0  0  0  0  0  0  0  0  0  0  0  0
   10.8593   12.0348    4.3377 C   0  0  0  0  0  0  0  0  0  0  0  0
   10.8083   13.1452    5.1404 N   0  0  0  0  0  0  0  0  0  0  0  0
  1  2  1  0  0  0  0
  1  6  1  0  0  0  0
  2  3  2  0  0  0  0
  3  4  1  0  0  0  0
  4  5  2  0  0  0  0
  4 10  1  0  0  0  0
  5  6  1  0  0  0  0
  5  8  1  0  0  0  0
  6  7  2  0  0  0  0
  8  9  1  0  0  0  0
  9 10  2  0  0  0  0
M  END
>  <CHROM.1>
11.31202358,11.76154135,6.75713043,0.33118216,-1.33793430,0.78392125

>  <Name>
ligand

>  <RI>
0

>  <Rbt.Current_Directory>
/home/itssahil/PROJECTS/Mol_Feturizer/New_Systems/rnas/2EEW

>  <Rbt.Executable>
rbdock ($Id: //depot/dev/client3/rdock/2013.1/src/exe/rbdock.cxx#4 $)

>  <Rbt.Library>
libRbt.so (2013.1, Build901 2013/11/27)

>  <Rbt.Parameter_File>
/export/apps/rDock/src/rDock_2013.1_src/data/scripts/dock_solv.prm

>  <Rbt.Receptor>
prm/pocket_docking_3.prm

>  <SCORE>
-17.065

>  <SCORE.INTER>
-17.065

>  <SCORE.INTER.CONST>
1

>  <SCORE.INTER.POLAR>
0

>  <SCORE.INTER.ROT>
0

>  <SCORE.INTER.SOLV>
3.4261

>  <SCORE.INTER.VDW>
-16.1187

>  <SCORE.INTER.norm>
-1.7065

>  <SCORE.INTRA>
0

>  <SCORE.INTRA.DIHEDRAL>
0

>  <SCORE.INTRA.DIHEDRAL.0>
0

>  <SCORE.INTRA.POLAR>
0

>  <SCORE.INTRA.POLAR.0>
0

>  <SCORE.INTRA.REPUL>
0

>  <SCORE.INTRA.REPUL.0>
0

>  <SCORE.INTRA.SOLV>
0

>  <SCORE.INTRA.SOLV.lig_0>
-4.28901

>  <SCORE.INTRA.VDW>
0

>  <SCORE.INTRA.VDW.0>
0

>  <SCORE.INTRA.norm>
0

>  <SCORE.RESTR>
0

>  <SCORE.RESTR.CAVITY>
0

>  <SCORE.RESTR.norm>
0

>  <SCORE.SYSTEM>
0

>  <SCORE.SYSTEM.CONST>
0

>  <SCORE.SYSTEM.DIHEDRAL>
0

>  <SCORE.SYSTEM.SOLV>
0

>  <SCORE.SYSTEM.norm>
0

>  <SCORE.heavy>
10

>  <SCORE.norm>
-1.7065

>  <RMSD>
0.916

$$$$
ligand
 OpenBabel11021811423D
libRbt.so/2013.1/901 2013/11/27
 10 11  0  0  0  0  0  0  0  0999 V2000
   11.6815   11.4749    8.6402 N   0  0  0  0  0  0  0  0  0  0  0  0
   11.4501   12.8380    8.6264 C   0  0  0  0  0  0  0  0  0  0  0  0
   11.1495   13.4993    7.5004 N   0  0  0  0  0  0  0  0  0  0  0  0
   11.1023   12.6992    6.4037 C   0  0  0  0  0  0  0  0  0  0  0  0
   11.3232   11.3347    6.3449 C   0  0  0  0  0  0  0  0  0  0  0  0
   11.6426   10.6188    7.5350 C   0  0  0  0  0  0  0  0  0  0  0  0
   11.8755    9.4145    7.7127 O   0  0  0  0  0  0  0  0  0  0  0  0
   11.1759   10.9308    5.0464 N   0  0  0  0  0  0  0  0  0  0  0  0
   10.8670   12.0408    4.3306 C   0  0  0  0  0  0  0  0  0  0  0  0
   10.8149   13.1472    5.1389 N   0  0  0  0  0  0  0  0  0  0  0  0
  1  2  1  0  0  0  0
  1  6  1  0  0  0  0
  2  3  2  0  0  0  0
  3  4  1  0  0  0  0
  4  5  2  0  0  0  0
  4 10  1  0  0  0  0
  5  6  1  0  0  0  0
  5  8  1  0  0  0  0
  6  7  2  0  0  0  0
  8  9  1  0  0  0  0
  9 10  2  0  0  0  0
M  END
>  <CHROM.1>
11.31916268,11.75576717,6.74880413,0.33473077,-1.33761166,0.79241237

>  <Name>
ligand

>  <RI>
0

>  <Rbt.Current_Directory>
/home/itssahil/PROJECTS/Mol_Feturizer/New_Systems/rnas/2EEW

>  <Rbt.Executable>
rbdock ($Id: //depot/dev/client3/rdock/2013.1/src/exe/rbdock.cxx#4 $)

>  <Rbt.Library>
libRbt.so (2013.1, Build901 2013/11/27)

>  <Rbt.Parameter_File>
/export/apps/rDock/src/rDock_2013.1_src/data/scripts/dock_solv.prm

>  <Rbt.Receptor>
prm/pocket_docking_4.prm

>  <SCORE>
-17.0668

>  <SCORE.INTER>
-17.0668

>  <SCORE.INTER.CONST>
1

>  <SCORE.INTER.POLAR>
0

>  <SCORE.INTER.ROT>
0

>  <SCORE.INTER.SOLV>
3.41964

>  <SCORE.INTER.VDW>
-16.1178

>  <SCORE.INTER.norm>
-1.70668

>  <SCORE.INTRA>
0

>  <SCORE.INTRA.DIHEDRAL>
0

>  <SCORE.INTRA.DIHEDRAL.0>
0

>  <SCORE.INTRA.POLAR>
0

>  <SCORE.INTRA.POLAR.0>
0

>  <SCORE.INTRA.REPUL>
0

>  <SCORE.INTRA.REPUL.0>
0

>  <SCORE.INTRA.SOLV>
0

>  <SCORE.INTRA.SOLV.lig_0>
-4.28901

>  <SCORE.INTRA.VDW>
0

>  <SCORE.INTRA.VDW.0>
0

>  <SCORE.INTRA.norm>
0

>  <SCORE.RESTR>
0

>  <SCORE.RESTR.CAVITY>
0

>  <SCORE.RESTR.norm>
0

>  <SCORE.SYSTEM>
0

>  <SCORE.SYSTEM.CONST>
0

>  <SCORE.SYSTEM.DIHEDRAL>
0

>  <SCORE.SYSTEM.SOLV>
0

>  <SCORE.SYSTEM.norm>
0

>  <SCORE.heavy>
10

>  <SCORE.norm>
-1.70668

>  <RMSD>
0.916

$$$$
ligand
 OpenBabel11021811423D
libRbt.so/2013.1/901 2013/11/27
 10 11  0  0  0  0  0  0  0  0999 V2000
   11.6719   11.4906    8.6513 N   0  0  0  0  0  0  0  0  0  0  0  0
   11.4424   12.8539    8.6291 C   0  0  0  0  0  0  0  0  0  0  0  0
   11.1452   13.5091    7.4986 N   0  0  0  0  0  0  0  0  0  0  0  0
   11.0994   12.7027    6.4065 C   0  0  0  0  0  0  0  0  0  0  0  0
   11.3187   11.3376    6.3560 C   0  0  0  0  0  0  0  0  0  0  0  0
   11.6343   10.6282    7.5510 C   0  0  0  0  0  0  0  0  0  0  0  0
   11.8652    9.4247    7.7361 O   0  0  0  0  0  0  0  0  0  0  0  0
   11.1737   10.9265    5.0596 N   0  0  0  0  0  0  0  0  0  0  0  0
   10.8680   12.0328    4.3367 C   0  0  0  0  0  0  0  0  0  0  0  0
   10.8155   13.1438    5.1384 N   0  0  0  0  0  0  0  0  0  0  0  0
  1  2  1  0  0  0  0
  1  6  1  0  0  0  0
  2  3  2  0  0  0  0
  3  4  1  0  0  0  0
  4  5  2  0  0  0  0
  4 10  1  0  0  0  0
  5  6  1  0  0  0  0
  5  8  1  0  0  0  0
  6  7  2  0  0  0  0
  8  9  1  0  0  0  0
  9 10  2  0  0  0  0
M  END
>  <CHROM.1>
11.31422342,11.76105802,6.75750799,0.33770085,-1.34015671,0.78953352

>  <Name>
ligand

>  <RI>
0

>  <Rbt.Current_Directory>
/home/itssahil/PROJECTS/Mol_Feturizer/New_Systems/rnas/2EEW

>  <Rbt.Executable>
rbdock ($Id: //depot/dev/client3/rdock/2013.1/src/exe/rbdock.cxx#4 $)

>  <Rbt.Library>
libRbt.so (2013.1, Build901 2013/11/27)

>  <Rbt.Parameter_File>
/export/apps/rDock/src/rDock_2013.1_src/data/scripts/dock_solv.prm

>  <Rbt.Receptor>
prm/pocket_docking_7.prm

>  <SCORE>
-17.0652

>  <SCORE.INTER>
-17.0652

>  <SCORE.INTER.CONST>
1

>  <SCORE.INTER.POLAR>
0

>  <SCORE.INTER.ROT>
0

>  <SCORE.INTER.SOLV>
3.43221

>  <SCORE.INTER.VDW>
-16.1209

>  <SCORE.INTER.norm>
-1.70652

>  <SCORE.INTRA>
0

>  <SCORE.INTRA.DIHEDRAL>
0

>  <SCORE.INTRA.DIHEDRAL.0>
0

>  <SCORE.INTRA.POLAR>
0

>  <SCORE.INTRA.POLAR.0>
0

>  <SCORE.INTRA.REPUL>
0

>  <SCORE.INTRA.REPUL.0>
0

>  <SCORE.INTRA.SOLV>
0

>  <SCORE.INTRA.SOLV.lig_0>
-4.28901

>  <SCORE.INTRA.VDW>
0

>  <SCORE.INTRA.VDW.0>
0

>  <SCORE.INTRA.norm>
0

>  <SCORE.RESTR>
0

>  <SCORE.RESTR.CAVITY>
0

>  <SCORE.RESTR.norm>
0

>  <SCORE.SYSTEM>
0

>  <SCORE.SYSTEM.CONST>
0

>  <SCORE.SYSTEM.DIHEDRAL>
0

>  <SCORE.SYSTEM.SOLV>
0

>  <SCORE.SYSTEM.norm>
0

>  <SCORE.heavy>
10

>  <SCORE.norm>
-1.70652

>  <RMSD>
0.917

$$$$
ligand
 OpenBabel11021811423D
libRbt.so/2013.1/901 2013/11/27
 10 11  0  0  0  0  0  0  0  0999 V2000
   11.6768   11.4808    8.6436 N   0  0  0  0  0  0  0  0  0  0  0  0
   11.4541   12.8453    8.6265 C   0  0  0  0  0  0  0  0  0  0  0  0
   11.1554   13.5054    7.4992 N   0  0  0  0  0  0  0  0  0  0  0  0
   11.1010   12.7026    6.4048 C   0  0  0  0  0  0  0  0  0  0  0  0
   11.3132   11.3366    6.3493 C   0  0  0  0  0  0  0  0  0  0  0  0
   11.6303   10.6219    7.5408 C   0  0  0  0  0  0  0  0  0  0  0  0
   11.8558    9.4167    7.7213 O   0  0  0  0  0  0  0  0  0  0  0  0
   11.1607   10.9301    5.0523 N   0  0  0  0  0  0  0  0  0  0  0  0
   10.8575   12.0401    4.3340 C   0  0  0  0  0  0  0  0  0  0  0  0
   10.8140   13.1489    5.1393 N   0  0  0  0  0  0  0  0  0  0  0  0
  1  2  1  0  0  0  0
  1  6  1  0  0  0  0
  2  3  2  0  0  0  0
  3  4  1  0  0  0  0
  4  5  2  0  0  0  0
  4 10  1  0  0  0  0
  5  6  1  0  0  0  0
  5  8  1  0  0  0  0
  6  7  2  0  0  0  0
  8  9  1  0  0  0  0
  9 10  2  0  0  0  0
M  END
>  <CHROM.1>
11.31255049,11.75878373,6.75210027,0.30908800,-1.34069024,0.76471214

>  <Name>
ligand

>  <RI>
0

>  <Rbt.Current_Directory>
/home/itssahil/PROJECTS/Mol_Feturizer/New_Systems/rnas/2EEW

>  <Rbt.Executable>
rbdock ($Id: //depot/dev/client3/rdock/2013.1/src/exe/rbdock.cxx#4 $)

>  <Rbt.Library>
libRbt.so (2013.1, Build901 2013/11/27)

>  <Rbt.Parameter_File>
/export/apps/rDock/src/rDock_2013.1_src/data/scripts/dock_solv.prm

>  <Rbt.Receptor>
prm/pocket_docking_3.prm

>  <SCORE>
-17.0712

>  <SCORE.INTER>
-17.0712

>  <SCORE.INTER.CONST>
1

>  <SCORE.INTER.POLAR>
0

>  <SCORE.INTER.ROT>
0

>  <SCORE.INTER.SOLV>
3.43878

>  <SCORE.INTER.VDW>
-16.1271

>  <SCORE.INTER.norm>
-1.70712

>  <SCORE.INTRA>
0

>  <SCORE.INTRA.DIHEDRAL>
0

>  <SCORE.INTRA.DIHEDRAL.0>
0

>  <SCORE.INTRA.POLAR>
0

>  <SCORE.INTRA.POLAR.0>
0

>  <SCORE.INTRA.REPUL>
0

>  <SCORE.INTRA.REPUL.0>
0

>  <SCORE.INTRA.SOLV>
0

>  <SCORE.INTRA.SOLV.lig_0>
-4.28901

>  <SCORE.INTRA.VDW>
0

>  <SCORE.INTRA.VDW.0>
0

>  <SCORE.INTRA.norm>
0

>  <SCORE.RESTR>
0

>  <SCORE.RESTR.CAVITY>
0

>  <SCORE.RESTR.norm>
0

>  <SCORE.SYSTEM>
0

>  <SCORE.SYSTEM.CONST>
0

>  <SCORE.SYSTEM.DIHEDRAL>
0

>  <SCORE.SYSTEM.SOLV>
0

>  <SCORE.SYSTEM.norm>
0

>  <SCORE.heavy>
10

>  <SCORE.norm>
-1.70712

>  <RMSD>
0.918

$$$$
ligand
 OpenBabel11021811423D
libRbt.so/2013.1/901 2013/11/27
 10 11  0  0  0  0  0  0  0  0999 V2000
   11.6616   11.4743    8.6457 N   0  0  0  0  0  0  0  0  0  0  0  0
   11.4351   12.8383    8.6282 C   0  0  0  0  0  0  0  0  0  0  0  0
   11.1455   13.4989    7.4990 N   0  0  0  0  0  0  0  0  0  0  0  0
   11.1041   12.6974    6.4031 C   0  0  0  0  0  0  0  0  0  0  0  0
   11.3208   11.3321    6.3479 C   0  0  0  0  0  0  0  0  0  0  0  0
   11.6283   10.6168    7.5414 C   0  0  0  0  0  0  0  0  0  0  0  0
   11.8556    9.4120    7.7227 O   0  0  0  0  0  0  0  0  0  0  0  0
   11.1822   10.9269    5.0489 N   0  0  0  0  0  0  0  0  0  0  0  0
   10.8827   12.0369    4.3292 C   0  0  0  0  0  0  0  0  0  0  0  0
   10.8281   13.1446    5.1354 N   0  0  0  0  0  0  0  0  0  0  0  0
  1  2  1  0  0  0  0
  1  6  1  0  0  0  0
  2  3  2  0  0  0  0
  3  4  1  0  0  0  0
  4  5  2  0  0  0  0
  4 10  1  0  0  0  0
  5  6  1  0  0  0  0
  5  8  1  0  0  0  0
  6  7  2  0  0  0  0
  8  9  1  0  0  0  0
  9 10  2  0  0  0  0
M  END
>  <CHROM.1>
11.31501035,11.75377866,6.75118455,0.34866265,-1.34554069,0.80455949

>  <Name>
ligand

>  <RI>
0

>  <Rbt.Current_Directory>
/home/itssahil/PROJECTS/Mol_Feturizer/New_Systems/rnas/2EEW

>  <Rbt.Executable>
rbdock ($Id: //depot/dev/client3/rdock/2013.1/src/exe/rbdock.cxx#4 $)

>  <Rbt.Library>
libRbt.so (2013.1, Build901 2013/11/27)

>  <Rbt.Parameter_File>
/export/apps/rDock/src/rDock_2013.1_src/data/scripts/dock_solv.prm

>  <Rbt.Receptor>
prm/pocket_docking_7.prm

>  <SCORE>
-17.0607

>  <SCORE.INTER>
-17.0607

>  <SCORE.INTER.CONST>
1

>  <SCORE.INTER.POLAR>
0

>  <SCORE.INTER.ROT>
0

>  <SCORE.INTER.SOLV>
3.44704

>  <SCORE.INTER.VDW>
-16.1228

>  <SCORE.INTER.norm>
-1.70607

>  <SCORE.INTRA>
0

>  <SCORE.INTRA.DIHEDRAL>
0

>  <SCORE.INTRA.DIHEDRAL.0>
0

>  <SCORE.INTRA.POLAR>
0

>  <SCORE.INTRA.POLAR.0>
0

>  <SCORE.INTRA.REPUL>
0

>  <SCORE.INTRA.REPUL.0>
0

>  <SCORE.INTRA.SOLV>
0

>  <SCORE.INTRA.SOLV.lig_0>
-4.28901

>  <SCORE.INTRA.VDW>
0

>  <SCORE.INTRA.VDW.0>
0

>  <SCORE.INTRA.norm>
0

>  <SCORE.RESTR>
0

>  <SCORE.RESTR.CAVITY>
0

>  <SCORE.RESTR.norm>
0

>  <SCORE.SYSTEM>
0

>  <SCORE.SYSTEM.CONST>
0

>  <SCORE.SYSTEM.DIHEDRAL>
0

>  <SCORE.SYSTEM.SOLV>
0

>  <SCORE.SYSTEM.norm>
0

>  <SCORE.heavy>
10

>  <SCORE.norm>
-1.70607

>  <RMSD>
0.918

$$$$
ligand
 OpenBabel11021811423D
libRbt.so/2013.1/901 2013/11/27
 10 11  0  0  0  0  0  0  0  0999 V2000
   11.6710   11.4863    8.6465 N   0  0  0  0  0  0  0  0  0  0  0  0
   11.4458   12.8504    8.6272 C   0  0  0  0  0  0  0  0  0  0  0  0
   11.1484   13.5085    7.4984 N   0  0  0  0  0  0  0  0  0  0  0  0
   11.0980   12.7042    6.4049 C   0  0  0  0  0  0  0  0  0  0  0  0
   11.3129   11.3385    6.3516 C   0  0  0  0  0  0  0  0  0  0  0  0
   11.6286   10.6260    7.5447 C   0  0  0  0  0  0  0  0  0  0  0  0
   11.8561    9.4214    7.7273 O   0  0  0  0  0  0  0  0  0  0  0  0
   11.1641   10.9301    5.0548 N   0  0  0  0  0  0  0  0  0  0  0  0
   10.8604   12.0387    4.3345 C   0  0  0  0  0  0  0  0  0  0  0  0
   10.8129   13.1484    5.1382 N   0  0  0  0  0  0  0  0  0  0  0  0
  1  2  1  0  0  0  0
  1  6  1  0  0  0  0
  2  3  2  0  0  0  0
  3  4  1  0  0  0  0
  4  5  2  0  0  0  0
  4 10  1  0  0  0  0
  5  6  1  0  0  0  0
  5  8  1  0  0  0  0
  6  7  2  0  0  0  0
  8  9  1  0  0  0  0
  9 10  2  0  0  0  0
M  END
>  <CHROM.1>
11.31052777,11.76125826,6.75387307,0.32191709,-1.34097565,0.77594041

>  <Name>
ligand

>  <RI>
0

>  <Rbt.Current_Directory>
/home/itssahil/PROJECTS/Mol_Feturizer/New_Systems/rnas/2EEW

>  <Rbt.Executable>
rbdock ($Id: //depot/dev/client3/rdock/2013.1/src/exe/rbdock.cxx#4 $)

>  <Rbt.Library>
libRbt.so (2013.1, Build901 2013/11/27)

>  <Rbt.Parameter_File>
/export/apps/rDock/src/rDock_2013.1_src/data/scripts/dock_solv.prm

>  <Rbt.Receptor>
prm/blind_docking_60.prm

>  <SCORE>
-17.069

>  <SCORE.INTER>
-17.069

>  <SCORE.INTER.CONST>
1

>  <SCORE.INTER.POLAR>
0

>  <SCORE.INTER.ROT>
0

>  <SCORE.INTER.SOLV>
3.43798

>  <SCORE.INTER.VDW>
-16.1253

>  <SCORE.INTER.norm>
-1.7069

>  <SCORE.INTRA>
0

>  <SCORE.INTRA.DIHEDRAL>
0

>  <SCORE.INTRA.DIHEDRAL.0>
0

>  <SCORE.INTRA.POLAR>
0

>  <SCORE.INTRA.POLAR.0>
0

>  <SCORE.INTRA.REPUL>
0

>  <SCORE.INTRA.REPUL.0>
0

>  <SCORE.INTRA.SOLV>
0

>  <SCORE.INTRA.SOLV.lig_0>
-4.28901

>  <SCORE.INTRA.VDW>
0

>  <SCORE.INTRA.VDW.0>
0

>  <SCORE.INTRA.norm>
0

>  <SCORE.RESTR>
0

>  <SCORE.RESTR.CAVITY>
0

>  <SCORE.RESTR.norm>
0

>  <SCORE.SYSTEM>
0

>  <SCORE.SYSTEM.CONST>
0

>  <SCORE.SYSTEM.DIHEDRAL>
0

>  <SCORE.SYSTEM.SOLV>
0

>  <SCORE.SYSTEM.norm>
0

>  <SCORE.heavy>
10

>  <SCORE.norm>
-1.7069

>  <RMSD>
0.919

$$$$
ligand
 OpenBabel11021811423D
libRbt.so/2013.1/901 2013/11/27
 10 11  0  0  0  0  0  0  0  0999 V2000
   11.6628   11.4767    8.6450 N   0  0  0  0  0  0  0  0  0  0  0  0
   11.4305   12.8396    8.6279 C   0  0  0  0  0  0  0  0  0  0  0  0
   11.1388   13.4995    7.4987 N   0  0  0  0  0  0  0  0  0  0  0  0
   11.1014   12.6983    6.4024 C   0  0  0  0  0  0  0  0  0  0  0  0
   11.3239   11.3339    6.3469 C   0  0  0  0  0  0  0  0  0  0  0  0
   11.6338   10.6194    7.5403 C   0  0  0  0  0  0  0  0  0  0  0  0
   11.8661    9.4156    7.7212 O   0  0  0  0  0  0  0  0  0  0  0  0
   11.1878   10.9286    5.0477 N   0  0  0  0  0  0  0  0  0  0  0  0
   10.8841   12.0376    4.3282 C   0  0  0  0  0  0  0  0  0  0  0  0
   10.8243   13.1448    5.1348 N   0  0  0  0  0  0  0  0  0  0  0  0
  1  2  1  0  0  0  0
  1  6  1  0  0  0  0
  2  3  2  0  0  0  0
  3  4  1  0  0  0  0
  4  5  2  0  0  0  0
  4 10  1  0  0  0  0
  5  6  1  0  0  0  0
  5  8  1  0  0  0  0
  6  7  2  0  0  0  0
  8  9  1  0  0  0  0
  9 10  2  0  0  0  0
M  END
>  <CHROM.1>
11.31613727,11.75538661,6.75032195,0.36364396,-1.34287636,0.81954246

>  <Name>
ligand

>  <RI>
0

>  <Rbt.Current_Directory>
/home/itssahil/PROJECTS/Mol_Feturizer/New_Systems/rnas/2EEW

>  <Rbt.Executable>
rbdock ($Id: //depot/dev/client3/rdock/2013.1/src/exe/rbdock.cxx#4 $)

>  <Rbt.Library>
libRbt.so (2013.1, Build901 2013/11/27)

>  <Rbt.Parameter_File>
/export/apps/rDock/src/rDock_2013.1_src/data/scripts/dock_solv.prm

>  <Rbt.Receptor>
prm/pocket_docking_3.prm

>  <SCORE>
-17.0558

>  <SCORE.INTER>
-17.0558

>  <SCORE.INTER.CONST>
1

>  <SCORE.INTER.POLAR>
0

>  <SCORE.INTER.ROT>
0

>  <SCORE.INTER.SOLV>
3.43397

>  <SCORE.INTER.VDW>
-16.1152

>  <SCORE.INTER.norm>
-1.70558

>  <SCORE.INTRA>
0

>  <SCORE.INTRA.DIHEDRAL>
0

>  <SCORE.INTRA.DIHEDRAL.0>
0

>  <SCORE.INTRA.POLAR>
0

>  <SCORE.INTRA.POLAR.0>
0

>  <SCORE.INTRA.REPUL>
0

>  <SCORE.INTRA.REPUL.0>
0

>  <SCORE.INTRA.SOLV>
0

>  <SCORE.INTRA.SOLV.lig_0>
-4.28901

>  <SCORE.INTRA.VDW>
0

>  <SCORE.INTRA.VDW.0>
0

>  <SCORE.INTRA.norm>
0

>  <SCORE.RESTR>
0

>  <SCORE.RESTR.CAVITY>
0

>  <SCORE.RESTR.norm>
0

>  <SCORE.SYSTEM>
0

>  <SCORE.SYSTEM.CONST>
0

>  <SCORE.SYSTEM.DIHEDRAL>
0

>  <SCORE.SYSTEM.SOLV>
0

>  <SCORE.SYSTEM.norm>
0

>  <SCORE.heavy>
10

>  <SCORE.norm>
-1.70558

>  <RMSD>
0.919

$$$$
ligand
 OpenBabel11021811423D
libRbt.so/2013.1/901 2013/11/27
 10 11  0  0  0  0  0  0  0  0999 V2000
   11.6598   11.4793    8.6479 N   0  0  0  0  0  0  0  0  0  0  0  0
   11.4339   12.8433    8.6281 C   0  0  0  0  0  0  0  0  0  0  0  0
   11.1443   13.5022    7.4978 N   0  0  0  0  0  0  0  0  0  0  0  0
   11.1023   12.6988    6.4033 C   0  0  0  0  0  0  0  0  0  0  0  0
   11.3184   11.3333    6.3504 C   0  0  0  0  0  0  0  0  0  0  0  0
   11.6259   10.6199    7.5451 C   0  0  0  0  0  0  0  0  0  0  0  0
   11.8528    9.4154    7.7283 O   0  0  0  0  0  0  0  0  0  0  0  0
   11.1794   10.9259    5.0521 N   0  0  0  0  0  0  0  0  0  0  0  0
   10.8803   12.0349    4.3305 C   0  0  0  0  0  0  0  0  0  0  0  0
   10.8263   13.1439    5.1349 N   0  0  0  0  0  0  0  0  0  0  0  0
  1  2  1  0  0  0  0
  1  6  1  0  0  0  0
  2  3  2  0  0  0  0
  3  4  1  0  0  0  0
  4  5  2  0  0  0  0
  4 10  1  0  0  0  0
  5  6  1  0  0  0  0
  5  8  1  0  0  0  0
  6  7  2  0  0  0  0
  8  9  1  0  0  0  0
  9 10  2  0  0  0  0
M  END
>  <CHROM.1>
11.31291985,11.75567741,6.75294482,0.34667246,-1.34569922,0.80091021

>  <Name>
ligand

>  <RI>
0

>  <Rbt.Current_Directory>
/home/itssahil/PROJECTS/Mol_Feturizer/New_Systems/rnas/2EEW

>  <Rbt.Executable>
rbdock ($Id: //depot/dev/client3/rdock/2013.1/src/exe/rbdock.cxx#4 $)

>  <Rbt.Library>
libRbt.so (2013.1, Build901 2013/11/27)

>  <Rbt.Parameter_File>
/export/apps/rDock/src/rDock_2013.1_src/data/scripts/dock_solv.prm

>  <Rbt.Receptor>
prm/pocket_docking_5.prm

>  <SCORE>
-17.0619

>  <SCORE.INTER>
-17.0619

>  <SCORE.INTER.CONST>
1

>  <SCORE.INTER.POLAR>
0

>  <SCORE.INTER.ROT>
0

>  <SCORE.INTER.SOLV>
3.44927

>  <SCORE.INTER.VDW>
-16.1243

>  <SCORE.INTER.norm>
-1.70619

>  <SCORE.INTRA>
0

>  <SCORE.INTRA.DIHEDRAL>
0

>  <SCORE.INTRA.DIHEDRAL.0>
0

>  <SCORE.INTRA.POLAR>
0

>  <SCORE.INTRA.POLAR.0>
0

>  <SCORE.INTRA.REPUL>
0

>  <SCORE.INTRA.REPUL.0>
0

>  <SCORE.INTRA.SOLV>
0

>  <SCORE.INTRA.SOLV.lig_0>
-4.28901

>  <SCORE.INTRA.VDW>
0

>  <SCORE.INTRA.VDW.0>
0

>  <SCORE.INTRA.norm>
0

>  <SCORE.RESTR>
0

>  <SCORE.RESTR.CAVITY>
0

>  <SCORE.RESTR.norm>
0

>  <SCORE.SYSTEM>
0

>  <SCORE.SYSTEM.CONST>
0

>  <SCORE.SYSTEM.DIHEDRAL>
0

>  <SCORE.SYSTEM.SOLV>
0

>  <SCORE.SYSTEM.norm>
0

>  <SCORE.heavy>
10

>  <SCORE.norm>
-1.70619

>  <RMSD>
0.919

$$$$
ligand
 OpenBabel11021811423D
libRbt.so/2013.1/901 2013/11/27
 10 11  0  0  0  0  0  0  0  0999 V2000
   11.6675   11.4727    8.6408 N   0  0  0  0  0  0  0  0  0  0  0  0
   11.4356   12.8358    8.6267 C   0  0  0  0  0  0  0  0  0  0  0  0
   11.1405   13.4976    7.4995 N   0  0  0  0  0  0  0  0  0  0  0  0
   11.0994   12.6981    6.4021 C   0  0  0  0  0  0  0  0  0  0  0  0
   11.3212   11.3338    6.3436 C   0  0  0  0  0  0  0  0  0  0  0  0
   11.6347   10.6173    7.5349 C   0  0  0  0  0  0  0  0  0  0  0  0
   11.8672    9.4131    7.7131 O   0  0  0  0  0  0  0  0  0  0  0  0
   11.1808   10.9306    5.0442 N   0  0  0  0  0  0  0  0  0  0  0  0
   10.8752   12.0409    4.3275 C   0  0  0  0  0  0  0  0  0  0  0  0
   10.8183   13.1468    5.1361 N   0  0  0  0  0  0  0  0  0  0  0  0
  1  2  1  0  0  0  0
  1  6  1  0  0  0  0
  2  3  2  0  0  0  0
  3  4  1  0  0  0  0
  4  5  2  0  0  0  0
  4 10  1  0  0  0  0
  5  6  1  0  0  0  0
  5  8  1  0  0  0  0
  6  7  2  0  0  0  0
  8  9  1  0  0  0  0
  9 10  2  0  0  0  0
M  END
>  <CHROM.1>
11.31487717,11.75462697,6.74776412,0.35237181,-1.34089216,0.81018403

>  <Name>
ligand

>  <RI>
0

>  <Rbt.Current_Directory>
/home/itssahil/PROJECTS/Mol_Feturizer/New_Systems/rnas/2EEW

>  <Rbt.Executable>
rbdock ($Id: //depot/dev/client3/rdock/2013.1/src/exe/rbdock.cxx#4 $)

>  <Rbt.Library>
libRbt.so (2013.1, Build901 2013/11/27)

>  <Rbt.Parameter_File>
/export/apps/rDock/src/rDock_2013.1_src/data/scripts/dock_solv.prm

>  <Rbt.Receptor>
prm/pocket_docking_7.prm

>  <SCORE>
-17.0613

>  <SCORE.INTER>
-17.0613

>  <SCORE.INTER.CONST>
1

>  <SCORE.INTER.POLAR>
0

>  <SCORE.INTER.ROT>
0

>  <SCORE.INTER.SOLV>
3.42865

>  <SCORE.INTER.VDW>
-16.1171

>  <SCORE.INTER.norm>
-1.70613

>  <SCORE.INTRA>
0

>  <SCORE.INTRA.DIHEDRAL>
0

>  <SCORE.INTRA.DIHEDRAL.0>
0

>  <SCORE.INTRA.POLAR>
0

>  <SCORE.INTRA.POLAR.0>
0

>  <SCORE.INTRA.REPUL>
0

>  <SCORE.INTRA.REPUL.0>
0

>  <SCORE.INTRA.SOLV>
0

>  <SCORE.INTRA.SOLV.lig_0>
-4.28901

>  <SCORE.INTRA.VDW>
0

>  <SCORE.INTRA.VDW.0>
0

>  <SCORE.INTRA.norm>
0

>  <SCORE.RESTR>
0

>  <SCORE.RESTR.CAVITY>
0

>  <SCORE.RESTR.norm>
0

>  <SCORE.SYSTEM>
0

>  <SCORE.SYSTEM.CONST>
0

>  <SCORE.SYSTEM.DIHEDRAL>
0

>  <SCORE.SYSTEM.SOLV>
0

>  <SCORE.SYSTEM.norm>
0

>  <SCORE.heavy>
10

>  <SCORE.norm>
-1.70613

>  <RMSD>
0.919

$$$$
ligand
 OpenBabel11021811423D
libRbt.so/2013.1/901 2013/11/27
 10 11  0  0  0  0  0  0  0  0999 V2000
   11.6751   11.4786    8.6403 N   0  0  0  0  0  0  0  0  0  0  0  0
   11.4496   12.8427    8.6245 C   0  0  0  0  0  0  0  0  0  0  0  0
   11.1506   13.5035    7.4977 N   0  0  0  0  0  0  0  0  0  0  0  0
   11.0989   12.7018    6.4024 C   0  0  0  0  0  0  0  0  0  0  0  0
   11.3140   11.3363    6.3455 C   0  0  0  0  0  0  0  0  0  0  0  0
   11.6314   10.6210    7.5364 C   0  0  0  0  0  0  0  0  0  0  0  0
   11.8593    9.4160    7.7158 O   0  0  0  0  0  0  0  0  0  0  0  0
   11.1636   10.9310    5.0479 N   0  0  0  0  0  0  0  0  0  0  0  0
   10.8588   12.0412    4.3306 C   0  0  0  0  0  0  0  0  0  0  0  0
   10.8122   13.1491    5.1371 N   0  0  0  0  0  0  0  0  0  0  0  0
  1  2  1  0  0  0  0
  1  6  1  0  0  0  0
  2  3  2  0  0  0  0
  3  4  1  0  0  0  0
  4  5  2  0  0  0  0
  4 10  1  0  0  0  0
  5  6  1  0  0  0  0
  5  8  1  0  0  0  0
  6  7  2  0  0  0  0
  8  9  1  0  0  0  0
  9 10  2  0  0  0  0
M  END
>  <CHROM.1>
11.31209766,11.75807927,6.74877146,0.31850328,-1.33994347,0.77502694

>  <Name>
ligand

>  <RI>
0

>  <Rbt.Current_Directory>
/home/itssahil/PROJECTS/Mol_Feturizer/New_Systems/rnas/2EEW

>  <Rbt.Executable>
rbdock ($Id: //depot/dev/client3/rdock/2013.1/src/exe/rbdock.cxx#4 $)

>  <Rbt.Library>
libRbt.so (2013.1, Build901 2013/11/27)

>  <Rbt.Parameter_File>
/export/apps/rDock/src/rDock_2013.1_src/data/scripts/dock_solv.prm

>  <Rbt.Receptor>
prm/pocket_docking_7.prm

>  <SCORE>
-17.0703

>  <SCORE.INTER>
-17.0703

>  <SCORE.INTER.CONST>
1

>  <SCORE.INTER.POLAR>
0

>  <SCORE.INTER.ROT>
0

>  <SCORE.INTER.SOLV>
3.43314

>  <SCORE.INTER.VDW>
-16.1246

>  <SCORE.INTER.norm>
-1.70703

>  <SCORE.INTRA>
0

>  <SCORE.INTRA.DIHEDRAL>
0

>  <SCORE.INTRA.DIHEDRAL.0>
0

>  <SCORE.INTRA.POLAR>
0

>  <SCORE.INTRA.POLAR.0>
0

>  <SCORE.INTRA.REPUL>
0

>  <SCORE.INTRA.REPUL.0>
0

>  <SCORE.INTRA.SOLV>
0

>  <SCORE.INTRA.SOLV.lig_0>
-4.28901

>  <SCORE.INTRA.VDW>
0

>  <SCORE.INTRA.VDW.0>
0

>  <SCORE.INTRA.norm>
0

>  <SCORE.RESTR>
0

>  <SCORE.RESTR.CAVITY>
0

>  <SCORE.RESTR.norm>
0

>  <SCORE.SYSTEM>
0

>  <SCORE.SYSTEM.CONST>
0

>  <SCORE.SYSTEM.DIHEDRAL>
0

>  <SCORE.SYSTEM.SOLV>
0

>  <SCORE.SYSTEM.norm>
0

>  <SCORE.heavy>
10

>  <SCORE.norm>
-1.70703

>  <RMSD>
0.920

$$$$
ligand
 OpenBabel11021811423D
libRbt.so/2013.1/901 2013/11/27
 10 11  0  0  0  0  0  0  0  0999 V2000
   11.6590   11.5547    8.6890 N   0  0  0  0  0  0  0  0  0  0  0  0
   11.4475   12.9198    8.6281 C   0  0  0  0  0  0  0  0  0  0  0  0
   11.1560   13.5461    7.4799 N   0  0  0  0  0  0  0  0  0  0  0  0
   11.0967   12.7093    6.4115 C   0  0  0  0  0  0  0  0  0  0  0  0
   11.2977   11.3405    6.3999 C   0  0  0  0  0  0  0  0  0  0  0  0
   11.6072   10.6616    7.6140 C   0  0  0  0  0  0  0  0  0  0  0  0
   11.8226    9.4610    7.8333 O   0  0  0  0  0  0  0  0  0  0  0  0
   11.1439   10.8942    5.1162 N   0  0  0  0  0  0  0  0  0  0  0  0
   10.8509   11.9832    4.3624 C   0  0  0  0  0  0  0  0  0  0  0  0
   10.8152   13.1174    5.1319 N   0  0  0  0  0  0  0  0  0  0  0  0
  1  2  1  0  0  0  0
  1  6  1  0  0  0  0
  2  3  2  0  0  0  0
  3  4  1  0  0  0  0
  4  5  2  0  0  0  0
  4 10  1  0  0  0  0
  5  6  1  0  0  0  0
  5  8  1  0  0  0  0
  6  7  2  0  0  0  0
  8  9  1  0  0  0  0
  9 10  2  0  0  0  0
M  END
>  <CHROM.1>
11.29995081,11.77533964,6.78901864,0.28713695,-1.34740096,0.71147001

>  <Name>
ligand

>  <RI>
0

>  <Rbt.Current_Directory>
/home/itssahil/PROJECTS/Mol_Feturizer/New_Systems/rnas/2EEW

>  <Rbt.Executable>
rbdock ($Id: //depot/dev/client3/rdock/2013.1/src/exe/rbdock.cxx#4 $)

>  <Rbt.Library>
libRbt.so (2013.1, Build901 2013/11/27)

>  <Rbt.Parameter_File>
/export/apps/rDock/src/rDock_2013.1_src/data/scripts/dock_solv.prm

>  <Rbt.Receptor>
prm/pocket_docking_7.prm

>  <SCORE>
-17.0628

>  <SCORE.INTER>
-17.0628

>  <SCORE.INTER.CONST>
1

>  <SCORE.INTER.POLAR>
0

>  <SCORE.INTER.ROT>
0

>  <SCORE.INTER.SOLV>
3.50435

>  <SCORE.INTER.VDW>
-16.1433

>  <SCORE.INTER.norm>
-1.70628

>  <SCORE.INTRA>
0

>  <SCORE.INTRA.DIHEDRAL>
0

>  <SCORE.INTRA.DIHEDRAL.0>
0

>  <SCORE.INTRA.POLAR>
0

>  <SCORE.INTRA.POLAR.0>
0

>  <SCORE.INTRA.REPUL>
0

>  <SCORE.INTRA.REPUL.0>
0

>  <SCORE.INTRA.SOLV>
0

>  <SCORE.INTRA.SOLV.lig_0>
-4.28901

>  <SCORE.INTRA.VDW>
0

>  <SCORE.INTRA.VDW.0>
0

>  <SCORE.INTRA.norm>
0

>  <SCORE.RESTR>
0

>  <SCORE.RESTR.CAVITY>
0

>  <SCORE.RESTR.norm>
0

>  <SCORE.SYSTEM>
0

>  <SCORE.SYSTEM.CONST>
0

>  <SCORE.SYSTEM.DIHEDRAL>
0

>  <SCORE.SYSTEM.SOLV>
0

>  <SCORE.SYSTEM.norm>
0

>  <SCORE.heavy>
10

>  <SCORE.norm>
-1.70628

>  <RMSD>
0.920

$$$$
ligand
 OpenBabel11021811423D
libRbt.so/2013.1/901 2013/11/27
 10 11  0  0  0  0  0  0  0  0999 V2000
   11.6728   11.4745    8.6361 N   0  0  0  0  0  0  0  0  0  0  0  0
   11.4387   12.8372    8.6242 C   0  0  0  0  0  0  0  0  0  0  0  0
   11.1386   13.4997    7.4987 N   0  0  0  0  0  0  0  0  0  0  0  0
   11.0949   12.7013    6.4006 C   0  0  0  0  0  0  0  0  0  0  0  0
   11.3188   11.3374    6.3399 C   0  0  0  0  0  0  0  0  0  0  0  0
   11.6376   10.6202    7.5293 C   0  0  0  0  0  0  0  0  0  0  0  0
   11.8727    9.4161    7.7055 O   0  0  0  0  0  0  0  0  0  0  0  0
   11.1746   10.9354    5.0405 N   0  0  0  0  0  0  0  0  0  0  0  0
   10.8646   12.0460    4.3261 C   0  0  0  0  0  0  0  0  0  0  0  0
   10.8087   13.1508    5.1360 N   0  0  0  0  0  0  0  0  0  0  0  0
  1  2  1  0  0  0  0
  1  6  1  0  0  0  0
  2  3  2  0  0  0  0
  3  4  1  0  0  0  0
  4  5  2  0  0  0  0
  4 10  1  0  0  0  0
  5  6  1  0  0  0  0
  5  8  1  0  0  0  0
  6  7  2  0  0  0  0
  8  9  1  0  0  0  0
  9 10  2  0  0  0  0
M  END
>  <CHROM.1>
11.31317493,11.75779557,6.74453376,0.34636084,-1.33730660,0.80540330

>  <Name>
ligand

>  <RI>
0

>  <Rbt.Current_Directory>
/home/itssahil/PROJECTS/Mol_Feturizer/New_Systems/rnas/2EEW

>  <Rbt.Executable>
rbdock ($Id: //depot/dev/client3/rdock/2013.1/src/exe/rbdock.cxx#4 $)

>  <Rbt.Library>
libRbt.so (2013.1, Build901 2013/11/27)

>  <Rbt.Parameter_File>
/export/apps/rDock/src/rDock_2013.1_src/data/scripts/dock_solv.prm

>  <Rbt.Receptor>
prm/blind_docking_100.prm

>  <SCORE>
-17.0639

>  <SCORE.INTER>
-17.0639

>  <SCORE.INTER.CONST>
1

>  <SCORE.INTER.POLAR>
0

>  <SCORE.INTER.ROT>
0

>  <SCORE.INTER.SOLV>
3.41613

>  <SCORE.INTER.VDW>
-16.1147

>  <SCORE.INTER.norm>
-1.70639

>  <SCORE.INTRA>
0

>  <SCORE.INTRA.DIHEDRAL>
0

>  <SCORE.INTRA.DIHEDRAL.0>
0

>  <SCORE.INTRA.POLAR>
0

>  <SCORE.INTRA.POLAR.0>
0

>  <SCORE.INTRA.REPUL>
0

>  <SCORE.INTRA.REPUL.0>
0

>  <SCORE.INTRA.SOLV>
0

>  <SCORE.INTRA.SOLV.lig_0>
-4.28901

>  <SCORE.INTRA.VDW>
0

>  <SCORE.INTRA.VDW.0>
0

>  <SCORE.INTRA.norm>
0

>  <SCORE.RESTR>
0

>  <SCORE.RESTR.CAVITY>
0

>  <SCORE.RESTR.norm>
0

>  <SCORE.SYSTEM>
0

>  <SCORE.SYSTEM.CONST>
0

>  <SCORE.SYSTEM.DIHEDRAL>
0

>  <SCORE.SYSTEM.SOLV>
0

>  <SCORE.SYSTEM.norm>
0

>  <SCORE.heavy>
10

>  <SCORE.norm>
-1.70639

>  <RMSD>
0.921

$$$$
ligand
 OpenBabel11021811423D
libRbt.so/2013.1/901 2013/11/27
 10 11  0  0  0  0  0  0  0  0999 V2000
   11.6721   11.4955    8.6482 N   0  0  0  0  0  0  0  0  0  0  0  0
   11.4461   12.8593    8.6237 C   0  0  0  0  0  0  0  0  0  0  0  0
   11.1472   13.5127    7.4926 N   0  0  0  0  0  0  0  0  0  0  0  0
   11.0960   12.7041    6.4024 C   0  0  0  0  0  0  0  0  0  0  0  0
   11.3116   11.3383    6.3543 C   0  0  0  0  0  0  0  0  0  0  0  0
   11.6291   10.6307    7.5499 C   0  0  0  0  0  0  0  0  0  0  0  0
   11.8573    9.4270    7.7370 O   0  0  0  0  0  0  0  0  0  0  0  0
   11.1617   10.9247    5.0593 N   0  0  0  0  0  0  0  0  0  0  0  0
   10.8566   12.0302    4.3348 C   0  0  0  0  0  0  0  0  0  0  0  0
   10.8094   13.1431    5.1342 N   0  0  0  0  0  0  0  0  0  0  0  0
  1  2  1  0  0  0  0
  1  6  1  0  0  0  0
  2  3  2  0  0  0  0
  3  4  1  0  0  0  0
  4  5  2  0  0  0  0
  4 10  1  0  0  0  0
  5  6  1  0  0  0  0
  5  8  1  0  0  0  0
  6  7  2  0  0  0  0
  8  9  1  0  0  0  0
  9 10  2  0  0  0  0
M  END
>  <CHROM.1>
11.30947055,11.76265734,6.75486551,0.32036187,-1.33983185,0.77043718

>  <Name>
ligand

>  <RI>
0

>  <Rbt.Current_Directory>
/home/itssahil/PROJECTS/Mol_Feturizer/New_Systems/rnas/2EEW

>  <Rbt.Executable>
rbdock ($Id: //depot/dev/client3/rdock/2013.1/src/exe/rbdock.cxx#4 $)

>  <Rbt.Library>
libRbt.so (2013.1, Build901 2013/11/27)

>  <Rbt.Parameter_File>
/export/apps/rDock/src/rDock_2013.1_src/data/scripts/dock_solv.prm

>  <Rbt.Receptor>
prm/pocket_docking_4.prm

>  <SCORE>
-17.0665

>  <SCORE.INTER>
-17.0665

>  <SCORE.INTER.CONST>
1

>  <SCORE.INTER.POLAR>
0

>  <SCORE.INTER.ROT>
0

>  <SCORE.INTER.SOLV>
3.43649

>  <SCORE.INTER.VDW>
-16.1231

>  <SCORE.INTER.norm>
-1.70665

>  <SCORE.INTRA>
0

>  <SCORE.INTRA.DIHEDRAL>
0

>  <SCORE.INTRA.DIHEDRAL.0>
0

>  <SCORE.INTRA.POLAR>
0

>  <SCORE.INTRA.POLAR.0>
0

>  <SCORE.INTRA.REPUL>
0

>  <SCORE.INTRA.REPUL.0>
0

>  <SCORE.INTRA.SOLV>
0

>  <SCORE.INTRA.SOLV.lig_0>
-4.28901

>  <SCORE.INTRA.VDW>
0

>  <SCORE.INTRA.VDW.0>
0

>  <SCORE.INTRA.norm>
0

>  <SCORE.RESTR>
0

>  <SCORE.RESTR.CAVITY>
0

>  <SCORE.RESTR.norm>
0

>  <SCORE.SYSTEM>
0

>  <SCORE.SYSTEM.CONST>
0

>  <SCORE.SYSTEM.DIHEDRAL>
0

>  <SCORE.SYSTEM.SOLV>
0

>  <SCORE.SYSTEM.norm>
0

>  <SCORE.heavy>
10

>  <SCORE.norm>
-1.70665

>  <RMSD>
0.921

$$$$
ligand
 OpenBabel11021811423D
libRbt.so/2013.1/901 2013/11/27
 10 11  0  0  0  0  0  0  0  0999 V2000
   11.6694   11.4864    8.6417 N   0  0  0  0  0  0  0  0  0  0  0  0
   11.4333   12.8487    8.6250 C   0  0  0  0  0  0  0  0  0  0  0  0
   11.1342   13.5072    7.4969 N   0  0  0  0  0  0  0  0  0  0  0  0
   11.0936   12.7053    6.4013 C   0  0  0  0  0  0  0  0  0  0  0  0
   11.3196   11.3415    6.3453 C   0  0  0  0  0  0  0  0  0  0  0  0
   11.6374   10.6285    7.5376 C   0  0  0  0  0  0  0  0  0  0  0  0
   11.8739    9.4254    7.7180 O   0  0  0  0  0  0  0  0  0  0  0  0
   11.1783   10.9351    5.0470 N   0  0  0  0  0  0  0  0  0  0  0  0
   10.8679   12.0429    4.3284 C   0  0  0  0  0  0  0  0  0  0  0  0
   10.8091   13.1503    5.1348 N   0  0  0  0  0  0  0  0  0  0  0  0
  1  2  1  0  0  0  0
  1  6  1  0  0  0  0
  2  3  2  0  0  0  0
  3  4  1  0  0  0  0
  4  5  2  0  0  0  0
  4 10  1  0  0  0  0
  5  6  1  0  0  0  0
  5  8  1  0  0  0  0
  6  7  2  0  0  0  0
  8  9  1  0  0  0  0
  9 10  2  0  0  0  0
M  END
>  <CHROM.1>
11.31266390,11.76316622,6.74858394,0.35619813,-1.33748434,0.81176984

>  <Name>
ligand

>  <RI>
0

>  <Rbt.Current_Directory>
/home/itssahil/PROJECTS/Mol_Feturizer/New_Systems/rnas/2EEW

>  <Rbt.Executable>
rbdock ($Id: //depot/dev/client3/rdock/2013.1/src/exe/rbdock.cxx#4 $)

>  <Rbt.Library>
libRbt.so (2013.1, Build901 2013/11/27)

>  <Rbt.Parameter_File>
/export/apps/rDock/src/rDock_2013.1_src/data/scripts/dock_solv.prm

>  <Rbt.Receptor>
prm/blind_docking_100.prm

>  <SCORE>
-17.0611

>  <SCORE.INTER>
-17.0611

>  <SCORE.INTER.CONST>
1

>  <SCORE.INTER.POLAR>
0

>  <SCORE.INTER.ROT>
0

>  <SCORE.INTER.SOLV>
3.4156

>  <SCORE.INTER.VDW>
-16.1126

>  <SCORE.INTER.norm>
-1.70611

>  <SCORE.INTRA>
0

>  <SCORE.INTRA.DIHEDRAL>
0

>  <SCORE.INTRA.DIHEDRAL.0>
0

>  <SCORE.INTRA.POLAR>
0

>  <SCORE.INTRA.POLAR.0>
0

>  <SCORE.INTRA.REPUL>
0

>  <SCORE.INTRA.REPUL.0>
0

>  <SCORE.INTRA.SOLV>
0

>  <SCORE.INTRA.SOLV.lig_0>
-4.28901

>  <SCORE.INTRA.VDW>
0

>  <SCORE.INTRA.VDW.0>
0

>  <SCORE.INTRA.norm>
0

>  <SCORE.RESTR>
0

>  <SCORE.RESTR.CAVITY>
0

>  <SCORE.RESTR.norm>
0

>  <SCORE.SYSTEM>
0

>  <SCORE.SYSTEM.CONST>
0

>  <SCORE.SYSTEM.DIHEDRAL>
0

>  <SCORE.SYSTEM.SOLV>
0

>  <SCORE.SYSTEM.norm>
0

>  <SCORE.heavy>
10

>  <SCORE.norm>
-1.70611

>  <RMSD>
0.922

$$$$
ligand
 OpenBabel11021811423D
libRbt.so/2013.1/901 2013/11/27
 10 11  0  0  0  0  0  0  0  0999 V2000
   11.6648   11.4887    8.6450 N   0  0  0  0  0  0  0  0  0  0  0  0
   11.4327   12.8517    8.6250 C   0  0  0  0  0  0  0  0  0  0  0  0
   11.1364   13.5084    7.4952 N   0  0  0  0  0  0  0  0  0  0  0  0
   11.0942   12.7041    6.4014 C   0  0  0  0  0  0  0  0  0  0  0  0
   11.3162   11.3395    6.3488 C   0  0  0  0  0  0  0  0  0  0  0  0
   11.6310   10.6284    7.5430 C   0  0  0  0  0  0  0  0  0  0  0  0
   11.8638    9.4250    7.7263 O   0  0  0  0  0  0  0  0  0  0  0  0
   11.1745   10.9306    5.0513 N   0  0  0  0  0  0  0  0  0  0  0  0
   10.8680   12.0377    4.3300 C   0  0  0  0  0  0  0  0  0  0  0  0
   10.8118   13.1471    5.1337 N   0  0  0  0  0  0  0  0  0  0  0  0
  1  2  1  0  0  0  0
  1  6  1  0  0  0  0
  2  3  2  0  0  0  0
  3  4  1  0  0  0  0
  4  5  2  0  0  0  0
  4 10  1  0  0  0  0
  5  6  1  0  0  0  0
  5  8  1  0  0  0  0
  6  7  2  0  0  0  0
  8  9  1  0  0  0  0
  9 10  2  0  0  0  0
M  END
>  <CHROM.1>
11.31019903,11.76215717,6.75108149,0.34948961,-1.34009871,0.80293261

>  <Name>
ligand

>  <RI>
0

>  <Rbt.Current_Directory>
/home/itssahil/PROJECTS/Mol_Feturizer/New_Systems/rnas/2EEW

>  <Rbt.Executable>
rbdock ($Id: //depot/dev/client3/rdock/2013.1/src/exe/rbdock.cxx#4 $)

>  <Rbt.Library>
libRbt.so (2013.1, Build901 2013/11/27)

>  <Rbt.Parameter_File>
/export/apps/rDock/src/rDock_2013.1_src/data/scripts/dock_solv.prm

>  <Rbt.Receptor>
prm/blind_docking_80.prm

>  <SCORE>
-17.0629

>  <SCORE.INTER>
-17.0629

>  <SCORE.INTER.CONST>
1

>  <SCORE.INTER.POLAR>
0

>  <SCORE.INTER.ROT>
0

>  <SCORE.INTER.SOLV>
3.42792

>  <SCORE.INTER.VDW>
-16.1179

>  <SCORE.INTER.norm>
-1.70629

>  <SCORE.INTRA>
0

>  <SCORE.INTRA.DIHEDRAL>
0

>  <SCORE.INTRA.DIHEDRAL.0>
0

>  <SCORE.INTRA.POLAR>
0

>  <SCORE.INTRA.POLAR.0>
0

>  <SCORE.INTRA.REPUL>
0

>  <SCORE.INTRA.REPUL.0>
0

>  <SCORE.INTRA.SOLV>
0

>  <SCORE.INTRA.SOLV.lig_0>
-4.28901

>  <SCORE.INTRA.VDW>
0

>  <SCORE.INTRA.VDW.0>
0

>  <SCORE.INTRA.norm>
0

>  <SCORE.RESTR>
0

>  <SCORE.RESTR.CAVITY>
0

>  <SCORE.RESTR.norm>
0

>  <SCORE.SYSTEM>
0

>  <SCORE.SYSTEM.CONST>
0

>  <SCORE.SYSTEM.DIHEDRAL>
0

>  <SCORE.SYSTEM.SOLV>
0

>  <SCORE.SYSTEM.norm>
0

>  <SCORE.heavy>
10

>  <SCORE.norm>
-1.70629

>  <RMSD>
0.922

$$$$
ligand
 OpenBabel11021811423D
libRbt.so/2013.1/901 2013/11/27
 10 11  0  0  0  0  0  0  0  0999 V2000
   11.6804   11.4977    8.6443 N   0  0  0  0  0  0  0  0  0  0  0  0
   11.4483   12.8606    8.6247 C   0  0  0  0  0  0  0  0  0  0  0  0
   11.1430   13.5162    7.4966 N   0  0  0  0  0  0  0  0  0  0  0  0
   11.0919   12.7106    6.4040 C   0  0  0  0  0  0  0  0  0  0  0  0
   11.3133   11.3459    6.3511 C   0  0  0  0  0  0  0  0  0  0  0  0
   11.6376   10.6361    7.5435 C   0  0  0  0  0  0  0  0  0  0  0  0
   11.8717    9.4329    7.7263 O   0  0  0  0  0  0  0  0  0  0  0  0
   11.1611   10.9356    5.0553 N   0  0  0  0  0  0  0  0  0  0  0  0
   10.8489   12.0419    4.3352 C   0  0  0  0  0  0  0  0  0  0  0  0
   10.7994   13.1522    5.1381 N   0  0  0  0  0  0  0  0  0  0  0  0
  1  2  1  0  0  0  0
  1  6  1  0  0  0  0
  2  3  2  0  0  0  0
  3  4  1  0  0  0  0
  4  5  2  0  0  0  0
  4 10  1  0  0  0  0
  5  6  1  0  0  0  0
  5  8  1  0  0  0  0
  6  7  2  0  0  0  0
  8  9  1  0  0  0  0
  9 10  2  0  0  0  0
M  END
>  <CHROM.1>
11.31057279,11.76903494,6.75297706,0.32430888,-1.33454391,0.77731794

>  <Name>
ligand

>  <RI>
0

>  <Rbt.Current_Directory>
/home/itssahil/PROJECTS/Mol_Feturizer/New_Systems/rnas/2EEW

>  <Rbt.Executable>
rbdock ($Id: //depot/dev/client3/rdock/2013.1/src/exe/rbdock.cxx#4 $)

>  <Rbt.Library>
libRbt.so (2013.1, Build901 2013/11/27)

>  <Rbt.Parameter_File>
/export/apps/rDock/src/rDock_2013.1_src/data/scripts/dock_solv.prm

>  <Rbt.Receptor>
prm/pocket_docking_6.prm

>  <SCORE>
-17.0638

>  <SCORE.INTER>
-17.0638

>  <SCORE.INTER.CONST>
1

>  <SCORE.INTER.POLAR>
0

>  <SCORE.INTER.ROT>
0

>  <SCORE.INTER.SOLV>
3.41329

>  <SCORE.INTER.VDW>
-16.1136

>  <SCORE.INTER.norm>
-1.70638

>  <SCORE.INTRA>
0

>  <SCORE.INTRA.DIHEDRAL>
0

>  <SCORE.INTRA.DIHEDRAL.0>
0

>  <SCORE.INTRA.POLAR>
0

>  <SCORE.INTRA.POLAR.0>
0

>  <SCORE.INTRA.REPUL>
0

>  <SCORE.INTRA.REPUL.0>
0

>  <SCORE.INTRA.SOLV>
0

>  <SCORE.INTRA.SOLV.lig_0>
-4.28901

>  <SCORE.INTRA.VDW>
0

>  <SCORE.INTRA.VDW.0>
0

>  <SCORE.INTRA.norm>
0

>  <SCORE.RESTR>
0

>  <SCORE.RESTR.CAVITY>
0

>  <SCORE.RESTR.norm>
0

>  <SCORE.SYSTEM>
0

>  <SCORE.SYSTEM.CONST>
0

>  <SCORE.SYSTEM.DIHEDRAL>
0

>  <SCORE.SYSTEM.SOLV>
0

>  <SCORE.SYSTEM.norm>
0

>  <SCORE.heavy>
10

>  <SCORE.norm>
-1.70638

>  <RMSD>
0.922

$$$$
ligand
 OpenBabel11021811423D
libRbt.so/2013.1/901 2013/11/27
 10 11  0  0  0  0  0  0  0  0999 V2000
   11.6665   11.4924    8.6460 N   0  0  0  0  0  0  0  0  0  0  0  0
   11.4428   12.8567    8.6246 C   0  0  0  0  0  0  0  0  0  0  0  0
   11.1461   13.5134    7.4949 N   0  0  0  0  0  0  0  0  0  0  0  0
   11.0945   12.7075    6.4026 C   0  0  0  0  0  0  0  0  0  0  0  0
   11.3078   11.3415    6.3514 C   0  0  0  0  0  0  0  0  0  0  0  0
   11.6229   10.6304    7.5455 C   0  0  0  0  0  0  0  0  0  0  0  0
   11.8489    9.4259    7.7299 O   0  0  0  0  0  0  0  0  0  0  0  0
   11.1584   10.9313    5.0552 N   0  0  0  0  0  0  0  0  0  0  0  0
   10.8559   12.0390    4.3332 C   0  0  0  0  0  0  0  0  0  0  0  0
   10.8098   13.1501    5.1353 N   0  0  0  0  0  0  0  0  0  0  0  0
  1  2  1  0  0  0  0
  1  6  1  0  0  0  0
  2  3  2  0  0  0  0
  3  4  1  0  0  0  0
  4  5  2  0  0  0  0
  4 10  1  0  0  0  0
  5  6  1  0  0  0  0
  5  8  1  0  0  0  0
  6  7  2  0  0  0  0
  8  9  1  0  0  0  0
  9 10  2  0  0  0  0
M  END
>  <CHROM.1>
11.30601489,11.76484366,6.75299836,0.31773754,-1.34170699,0.77032721

>  <Name>
ligand

>  <RI>
0

>  <Rbt.Current_Directory>
/home/itssahil/PROJECTS/Mol_Feturizer/New_Systems/rnas/2EEW

>  <Rbt.Executable>
rbdock ($Id: //depot/dev/client3/rdock/2013.1/src/exe/rbdock.cxx#4 $)

>  <Rbt.Library>
libRbt.so (2013.1, Build901 2013/11/27)

>  <Rbt.Parameter_File>
/export/apps/rDock/src/rDock_2013.1_src/data/scripts/dock_solv.prm

>  <Rbt.Receptor>
prm/pocket_docking_8.prm

>  <SCORE>
-17.0682

>  <SCORE.INTER>
-17.0682

>  <SCORE.INTER.CONST>
1

>  <SCORE.INTER.POLAR>
0

>  <SCORE.INTER.ROT>
0

>  <SCORE.INTER.SOLV>
3.44247

>  <SCORE.INTER.VDW>
-16.1263

>  <SCORE.INTER.norm>
-1.70682

>  <SCORE.INTRA>
0

>  <SCORE.INTRA.DIHEDRAL>
0

>  <SCORE.INTRA.DIHEDRAL.0>
0

>  <SCORE.INTRA.POLAR>
0

>  <SCORE.INTRA.POLAR.0>
0

>  <SCORE.INTRA.REPUL>
0

>  <SCORE.INTRA.REPUL.0>
0

>  <SCORE.INTRA.SOLV>
0

>  <SCORE.INTRA.SOLV.lig_0>
-4.28901

>  <SCORE.INTRA.VDW>
0

>  <SCORE.INTRA.VDW.0>
0

>  <SCORE.INTRA.norm>
0

>  <SCORE.RESTR>
0

>  <SCORE.RESTR.CAVITY>
0

>  <SCORE.RESTR.norm>
0

>  <SCORE.SYSTEM>
0

>  <SCORE.SYSTEM.CONST>
0

>  <SCORE.SYSTEM.DIHEDRAL>
0

>  <SCORE.SYSTEM.SOLV>
0

>  <SCORE.SYSTEM.norm>
0

>  <SCORE.heavy>
10

>  <SCORE.norm>
-1.70682

>  <RMSD>
0.923

$$$$
ligand
 OpenBabel11021811423D
libRbt.so/2013.1/901 2013/11/27
 10 11  0  0  0  0  0  0  0  0999 V2000
   11.6645   11.4841    8.6411 N   0  0  0  0  0  0  0  0  0  0  0  0
   11.4340   12.8474    8.6249 C   0  0  0  0  0  0  0  0  0  0  0  0
   11.1369   13.5074    7.4972 N   0  0  0  0  0  0  0  0  0  0  0  0
   11.0923   12.7060    6.4014 C   0  0  0  0  0  0  0  0  0  0  0  0
   11.3126   11.3412    6.3449 C   0  0  0  0  0  0  0  0  0  0  0  0
   11.6281   10.6267    7.5368 C   0  0  0  0  0  0  0  0  0  0  0  0
   11.8598    9.4225    7.7167 O   0  0  0  0  0  0  0  0  0  0  0  0
   11.1686   10.9358    5.0466 N   0  0  0  0  0  0  0  0  0  0  0  0
   10.8624   12.0452    4.3286 C   0  0  0  0  0  0  0  0  0  0  0  0
   10.8087   13.1525    5.1352 N   0  0  0  0  0  0  0  0  0  0  0  0
  1  2  1  0  0  0  0
  1  6  1  0  0  0  0
  2  3  2  0  0  0  0
  3  4  1  0  0  0  0
  4  5  2  0  0  0  0
  4 10  1  0  0  0  0
  5  6  1  0  0  0  0
  5  8  1  0  0  0  0
  6  7  2  0  0  0  0
  8  9  1  0  0  0  0
  9 10  2  0  0  0  0
M  END
>  <CHROM.1>
11.30760791,11.76287020,6.74832702,0.34158632,-1.34000861,0.79782519

>  <Name>
ligand

>  <RI>
0

>  <Rbt.Current_Directory>
/home/itssahil/PROJECTS/Mol_Feturizer/New_Systems/rnas/2EEW

>  <Rbt.Executable>
rbdock ($Id: //depot/dev/client3/rdock/2013.1/src/exe/rbdock.cxx#4 $)

>  <Rbt.Library>
libRbt.so (2013.1, Build901 2013/11/27)

>  <Rbt.Parameter_File>
/export/apps/rDock/src/rDock_2013.1_src/data/scripts/dock_solv.prm

>  <Rbt.Receptor>
prm/blind_docking_60.prm

>  <SCORE>
-17.0651

>  <SCORE.INTER>
-17.0651

>  <SCORE.INTER.CONST>
1

>  <SCORE.INTER.POLAR>
0

>  <SCORE.INTER.ROT>
0

>  <SCORE.INTER.SOLV>
3.42827

>  <SCORE.INTER.VDW>
-16.1195

>  <SCORE.INTER.norm>
-1.70651

>  <SCORE.INTRA>
0

>  <SCORE.INTRA.DIHEDRAL>
0

>  <SCORE.INTRA.DIHEDRAL.0>
0

>  <SCORE.INTRA.POLAR>
0

>  <SCORE.INTRA.POLAR.0>
0

>  <SCORE.INTRA.REPUL>
0

>  <SCORE.INTRA.REPUL.0>
0

>  <SCORE.INTRA.SOLV>
0

>  <SCORE.INTRA.SOLV.lig_0>
-4.28901

>  <SCORE.INTRA.VDW>
0

>  <SCORE.INTRA.VDW.0>
0

>  <SCORE.INTRA.norm>
0

>  <SCORE.RESTR>
0

>  <SCORE.RESTR.CAVITY>
0

>  <SCORE.RESTR.norm>
0

>  <SCORE.SYSTEM>
0

>  <SCORE.SYSTEM.CONST>
0

>  <SCORE.SYSTEM.DIHEDRAL>
0

>  <SCORE.SYSTEM.SOLV>
0

>  <SCORE.SYSTEM.norm>
0

>  <SCORE.heavy>
10

>  <SCORE.norm>
-1.70651

>  <RMSD>
0.924

$$$$
ligand
 OpenBabel11021811423D
libRbt.so/2013.1/901 2013/11/27
 10 11  0  0  0  0  0  0  0  0999 V2000
   11.6630   11.4918    8.6443 N   0  0  0  0  0  0  0  0  0  0  0  0
   11.4264   12.8540    8.6248 C   0  0  0  0  0  0  0  0  0  0  0  0
   11.1286   13.5102    7.4951 N   0  0  0  0  0  0  0  0  0  0  0  0
   11.0899   12.7062    6.4009 C   0  0  0  0  0  0  0  0  0  0  0  0
   11.3165   11.3424    6.3478 C   0  0  0  0  0  0  0  0  0  0  0  0
   11.6328   10.6318    7.5418 C   0  0  0  0  0  0  0  0  0  0  0  0
   11.8696    9.4291    7.7248 O   0  0  0  0  0  0  0  0  0  0  0  0
   11.1771   10.9336    5.0500 N   0  0  0  0  0  0  0  0  0  0  0  0
   10.8673   12.0400    4.3290 C   0  0  0  0  0  0  0  0  0  0  0  0
   10.8069   13.1488    5.1331 N   0  0  0  0  0  0  0  0  0  0  0  0
  1  2  1  0  0  0  0
  1  6  1  0  0  0  0
  2  3  2  0  0  0  0
  3  4  1  0  0  0  0
  4  5  2  0  0  0  0
  4 10  1  0  0  0  0
  5  6  1  0  0  0  0
  5  8  1  0  0  0  0
  6  7  2  0  0  0  0
  8  9  1  0  0  0  0
  9 10  2  0  0  0  0
M  END
>  <CHROM.1>
11.30878424,11.76488435,6.75023879,0.36172602,-1.33815005,0.81529172

>  <Name>
ligand

>  <RI>
0

>  <Rbt.Current_Directory>
/home/itssahil/PROJECTS/Mol_Feturizer/New_Systems/rnas/2EEW

>  <Rbt.Executable>
rbdock ($Id: //depot/dev/client3/rdock/2013.1/src/exe/rbdock.cxx#4 $)

>  <Rbt.Library>
libRbt.so (2013.1, Build901 2013/11/27)

>  <Rbt.Parameter_File>
/export/apps/rDock/src/rDock_2013.1_src/data/scripts/dock_solv.prm

>  <Rbt.Receptor>
prm/pocket_docking_7.prm

>  <SCORE>
-17.058

>  <SCORE.INTER>
-17.058

>  <SCORE.INTER.CONST>
1

>  <SCORE.INTER.POLAR>
0

>  <SCORE.INTER.ROT>
0

>  <SCORE.INTER.SOLV>
3.41837

>  <SCORE.INTER.VDW>
-16.1114

>  <SCORE.INTER.norm>
-1.7058

>  <SCORE.INTRA>
0

>  <SCORE.INTRA.DIHEDRAL>
0

>  <SCORE.INTRA.DIHEDRAL.0>
0

>  <SCORE.INTRA.POLAR>
0

>  <SCORE.INTRA.POLAR.0>
0

>  <SCORE.INTRA.REPUL>
0

>  <SCORE.INTRA.REPUL.0>
0

>  <SCORE.INTRA.SOLV>
0

>  <SCORE.INTRA.SOLV.lig_0>
-4.28901

>  <SCORE.INTRA.VDW>
0

>  <SCORE.INTRA.VDW.0>
0

>  <SCORE.INTRA.norm>
0

>  <SCORE.RESTR>
0

>  <SCORE.RESTR.CAVITY>
0

>  <SCORE.RESTR.norm>
0

>  <SCORE.SYSTEM>
0

>  <SCORE.SYSTEM.CONST>
0

>  <SCORE.SYSTEM.DIHEDRAL>
0

>  <SCORE.SYSTEM.SOLV>
0

>  <SCORE.SYSTEM.norm>
0

>  <SCORE.heavy>
10

>  <SCORE.norm>
-1.7058

>  <RMSD>
0.924

$$$$
ligand
 OpenBabel11021811423D
libRbt.so/2013.1/901 2013/11/27
 10 11  0  0  0  0  0  0  0  0999 V2000
   11.6625   11.4911    8.6444 N   0  0  0  0  0  0  0  0  0  0  0  0
   11.4320   12.8543    8.6239 C   0  0  0  0  0  0  0  0  0  0  0  0
   11.1352   13.5108    7.4940 N   0  0  0  0  0  0  0  0  0  0  0  0
   11.0910   12.7059    6.4007 C   0  0  0  0  0  0  0  0  0  0  0  0
   11.3114   11.3410    6.3486 C   0  0  0  0  0  0  0  0  0  0  0  0
   11.6266   10.6302    7.5428 C   0  0  0  0  0  0  0  0  0  0  0  0
   11.8582    9.4266    7.7265 O   0  0  0  0  0  0  0  0  0  0  0  0
   11.1679   10.9316    5.0515 N   0  0  0  0  0  0  0  0  0  0  0  0
   10.8618   12.0386    4.3299 C   0  0  0  0  0  0  0  0  0  0  0  0
   10.8078   13.1485    5.1330 N   0  0  0  0  0  0  0  0  0  0  0  0
  1  2  1  0  0  0  0
  1  6  1  0  0  0  0
  2  3  2  0  0  0  0
  3  4  1  0  0  0  0
  4  5  2  0  0  0  0
  4 10  1  0  0  0  0
  5  6  1  0  0  0  0
  5  8  1  0  0  0  0
  6  7  2  0  0  0  0
  8  9  1  0  0  0  0
  9 10  2  0  0  0  0
M  END
>  <CHROM.1>
11.30628141,11.76391681,6.75064259,0.34271866,-1.34019659,0.79580387

>  <Name>
ligand

>  <RI>
0

>  <Rbt.Current_Directory>
/home/itssahil/PROJECTS/Mol_Feturizer/New_Systems/rnas/2EEW

>  <Rbt.Executable>
rbdock ($Id: //depot/dev/client3/rdock/2013.1/src/exe/rbdock.cxx#4 $)

>  <Rbt.Library>
libRbt.so (2013.1, Build901 2013/11/27)

>  <Rbt.Parameter_File>
/export/apps/rDock/src/rDock_2013.1_src/data/scripts/dock_solv.prm

>  <Rbt.Receptor>
prm/blind_docking_40.prm

>  <SCORE>
-17.0635

>  <SCORE.INTER>
-17.0635

>  <SCORE.INTER.CONST>
1

>  <SCORE.INTER.POLAR>
0

>  <SCORE.INTER.ROT>
0

>  <SCORE.INTER.SOLV>
3.43063

>  <SCORE.INTER.VDW>
-16.1192

>  <SCORE.INTER.norm>
-1.70635

>  <SCORE.INTRA>
0

>  <SCORE.INTRA.DIHEDRAL>
0

>  <SCORE.INTRA.DIHEDRAL.0>
0

>  <SCORE.INTRA.POLAR>
0

>  <SCORE.INTRA.POLAR.0>
0

>  <SCORE.INTRA.REPUL>
0

>  <SCORE.INTRA.REPUL.0>
0

>  <SCORE.INTRA.SOLV>
0

>  <SCORE.INTRA.SOLV.lig_0>
-4.28901

>  <SCORE.INTRA.VDW>
0

>  <SCORE.INTRA.VDW.0>
0

>  <SCORE.INTRA.norm>
0

>  <SCORE.RESTR>
0

>  <SCORE.RESTR.CAVITY>
0

>  <SCORE.RESTR.norm>
0

>  <SCORE.SYSTEM>
0

>  <SCORE.SYSTEM.CONST>
0

>  <SCORE.SYSTEM.DIHEDRAL>
0

>  <SCORE.SYSTEM.SOLV>
0

>  <SCORE.SYSTEM.norm>
0

>  <SCORE.heavy>
10

>  <SCORE.norm>
-1.70635

>  <RMSD>
0.925

$$$$
ligand
 OpenBabel11021811423D
libRbt.so/2013.1/901 2013/11/27
 10 11  0  0  0  0  0  0  0  0999 V2000
   11.6681   11.4916    8.6422 N   0  0  0  0  0  0  0  0  0  0  0  0
   11.4377   12.8549    8.6246 C   0  0  0  0  0  0  0  0  0  0  0  0
   11.1369   13.5130    7.4967 N   0  0  0  0  0  0  0  0  0  0  0  0
   11.0885   12.7097    6.4024 C   0  0  0  0  0  0  0  0  0  0  0  0
   11.3085   11.3449    6.3475 C   0  0  0  0  0  0  0  0  0  0  0  0
   11.6280   10.6323    7.5396 C   0  0  0  0  0  0  0  0  0  0  0  0
   11.8601    9.4284    7.7207 O   0  0  0  0  0  0  0  0  0  0  0  0
   11.1601   10.9373    5.0504 N   0  0  0  0  0  0  0  0  0  0  0  0
   10.8516   12.0454    4.3315 C   0  0  0  0  0  0  0  0  0  0  0  0
   10.8007   13.1542    5.1364 N   0  0  0  0  0  0  0  0  0  0  0  0
  1  2  1  0  0  0  0
  1  6  1  0  0  0  0
  2  3  2  0  0  0  0
  3  4  1  0  0  0  0
  4  5  2  0  0  0  0
  4 10  1  0  0  0  0
  5  6  1  0  0  0  0
  5  8  1  0  0  0  0
  6  7  2  0  0  0  0
  8  9  1  0  0  0  0
  9 10  2  0  0  0  0
M  END
>  <CHROM.1>
11.30492215,11.76718600,6.75021709,0.33082179,-1.33772777,0.78565756

>  <Name>
ligand

>  <RI>
0

>  <Rbt.Current_Directory>
/home/itssahil/PROJECTS/Mol_Feturizer/New_Systems/rnas/2EEW

>  <Rbt.Executable>
rbdock ($Id: //depot/dev/client3/rdock/2013.1/src/exe/rbdock.cxx#4 $)

>  <Rbt.Library>
libRbt.so (2013.1, Build901 2013/11/27)

>  <Rbt.Parameter_File>
/export/apps/rDock/src/rDock_2013.1_src/data/scripts/dock_solv.prm

>  <Rbt.Receptor>
prm/blind_docking_60.prm

>  <SCORE>
-17.0639

>  <SCORE.INTER>
-17.0639

>  <SCORE.INTER.CONST>
1

>  <SCORE.INTER.POLAR>
0

>  <SCORE.INTER.ROT>
0

>  <SCORE.INTER.SOLV>
3.42342

>  <SCORE.INTER.VDW>
-16.1171

>  <SCORE.INTER.norm>
-1.70639

>  <SCORE.INTRA>
0

>  <SCORE.INTRA.DIHEDRAL>
0

>  <SCORE.INTRA.DIHEDRAL.0>
0

>  <SCORE.INTRA.POLAR>
0

>  <SCORE.INTRA.POLAR.0>
0

>  <SCORE.INTRA.REPUL>
0

>  <SCORE.INTRA.REPUL.0>
0

>  <SCORE.INTRA.SOLV>
0

>  <SCORE.INTRA.SOLV.lig_0>
-4.28901

>  <SCORE.INTRA.VDW>
0

>  <SCORE.INTRA.VDW.0>
0

>  <SCORE.INTRA.norm>
0

>  <SCORE.RESTR>
0

>  <SCORE.RESTR.CAVITY>
0

>  <SCORE.RESTR.norm>
0

>  <SCORE.SYSTEM>
0

>  <SCORE.SYSTEM.CONST>
0

>  <SCORE.SYSTEM.DIHEDRAL>
0

>  <SCORE.SYSTEM.SOLV>
0

>  <SCORE.SYSTEM.norm>
0

>  <SCORE.heavy>
10

>  <SCORE.norm>
-1.70639

>  <RMSD>
0.925

$$$$
ligand
 OpenBabel11021811423D
libRbt.so/2013.1/901 2013/11/27
 10 11  0  0  0  0  0  0  0  0999 V2000
   11.6543   11.5318    8.6704 N   0  0  0  0  0  0  0  0  0  0  0  0
   11.4151   12.8924    8.6121 C   0  0  0  0  0  0  0  0  0  0  0  0
   11.1170   13.5159    7.4640 N   0  0  0  0  0  0  0  0  0  0  0  0
   11.0807   12.6811    6.3930 C   0  0  0  0  0  0  0  0  0  0  0  0
   11.3099   11.3168    6.3788 C   0  0  0  0  0  0  0  0  0  0  0  0
   11.6266   10.6409    7.5927 C   0  0  0  0  0  0  0  0  0  0  0  0
   11.8655    9.4443    7.8098 O   0  0  0  0  0  0  0  0  0  0  0  0
   11.1722   10.8711    5.0930 N   0  0  0  0  0  0  0  0  0  0  0  0
   10.8610   11.9561    4.3407 C   0  0  0  0  0  0  0  0  0  0  0  0
   10.7978   13.0871    5.1131 N   0  0  0  0  0  0  0  0  0  0  0  0
  1  2  1  0  0  0  0
  1  6  1  0  0  0  0
  2  3  2  0  0  0  0
  3  4  1  0  0  0  0
  4  5  2  0  0  0  0
  4 10  1  0  0  0  0
  5  6  1  0  0  0  0
  5  8  1  0  0  0  0
  6  7  2  0  0  0  0
  8  9  1  0  0  0  0
  9 10  2  0  0  0  0
M  END
>  <CHROM.1>
11.30106137,11.75047944,6.76909463,0.36975666,-1.33731265,0.79477693

>  <Name>
ligand

>  <RI>
0

>  <Rbt.Current_Directory>
/home/itssahil/PROJECTS/Mol_Feturizer/New_Systems/rnas/2EEW

>  <Rbt.Executable>
rbdock ($Id: //depot/dev/client3/rdock/2013.1/src/exe/rbdock.cxx#4 $)

>  <Rbt.Library>
libRbt.so (2013.1, Build901 2013/11/27)

>  <Rbt.Parameter_File>
/export/apps/rDock/src/rDock_2013.1_src/data/scripts/dock_solv.prm

>  <Rbt.Receptor>
prm/pocket_docking_6.prm

>  <SCORE>
-17.027

>  <SCORE.INTER>
-17.027

>  <SCORE.INTER.CONST>
1

>  <SCORE.INTER.POLAR>
0

>  <SCORE.INTER.ROT>
0

>  <SCORE.INTER.SOLV>
3.4437

>  <SCORE.INTER.VDW>
-16.0993

>  <SCORE.INTER.norm>
-1.7027

>  <SCORE.INTRA>
0

>  <SCORE.INTRA.DIHEDRAL>
0

>  <SCORE.INTRA.DIHEDRAL.0>
0

>  <SCORE.INTRA.POLAR>
0

>  <SCORE.INTRA.POLAR.0>
0

>  <SCORE.INTRA.REPUL>
0

>  <SCORE.INTRA.REPUL.0>
0

>  <SCORE.INTRA.SOLV>
0

>  <SCORE.INTRA.SOLV.lig_0>
-4.28901

>  <SCORE.INTRA.VDW>
0

>  <SCORE.INTRA.VDW.0>
0

>  <SCORE.INTRA.norm>
0

>  <SCORE.RESTR>
0

>  <SCORE.RESTR.CAVITY>
0

>  <SCORE.RESTR.norm>
0

>  <SCORE.SYSTEM>
0

>  <SCORE.SYSTEM.CONST>
0

>  <SCORE.SYSTEM.DIHEDRAL>
0

>  <SCORE.SYSTEM.SOLV>
0

>  <SCORE.SYSTEM.norm>
0

>  <SCORE.heavy>
10

>  <SCORE.norm>
-1.7027

>  <RMSD>
0.926

$$$$
ligand
 OpenBabel11021811423D
libRbt.so/2013.1/901 2013/11/27
 10 11  0  0  0  0  0  0  0  0999 V2000
   11.6465   11.4919    8.6429 N   0  0  0  0  0  0  0  0  0  0  0  0
   11.4138   12.8547    8.6245 C   0  0  0  0  0  0  0  0  0  0  0  0
   11.1203   13.5132    7.4950 N   0  0  0  0  0  0  0  0  0  0  0  0
   11.0817   12.7107    6.3997 C   0  0  0  0  0  0  0  0  0  0  0  0
   11.3046   11.3464    6.3454 C   0  0  0  0  0  0  0  0  0  0  0  0
   11.6164   10.6334    7.5392 C   0  0  0  0  0  0  0  0  0  0  0  0
   11.8494    9.4298    7.7212 O   0  0  0  0  0  0  0  0  0  0  0  0
   11.1669   10.9395    5.0468 N   0  0  0  0  0  0  0  0  0  0  0  0
   10.8618   12.0477    4.3265 C   0  0  0  0  0  0  0  0  0  0  0  0
   10.8027   13.1557    5.1319 N   0  0  0  0  0  0  0  0  0  0  0  0
  1  2  1  0  0  0  0
  1  6  1  0  0  0  0
  2  3  2  0  0  0  0
  3  4  1  0  0  0  0
  4  5  2  0  0  0  0
  4 10  1  0  0  0  0
  5  6  1  0  0  0  0
  5  8  1  0  0  0  0
  6  7  2  0  0  0  0
  8  9  1  0  0  0  0
  9 10  2  0  0  0  0
M  END
>  <CHROM.1>
11.29724259,11.76832579,6.74836571,0.36031258,-1.34168667,0.81516396

>  <Name>
ligand

>  <RI>
0

>  <Rbt.Current_Directory>
/home/itssahil/PROJECTS/Mol_Feturizer/New_Systems/rnas/2EEW

>  <Rbt.Executable>
rbdock ($Id: //depot/dev/client3/rdock/2013.1/src/exe/rbdock.cxx#4 $)

>  <Rbt.Library>
libRbt.so (2013.1, Build901 2013/11/27)

>  <Rbt.Parameter_File>
/export/apps/rDock/src/rDock_2013.1_src/data/scripts/dock_solv.prm

>  <Rbt.Receptor>
prm/pocket_docking_5.prm

>  <SCORE>
-17.0531

>  <SCORE.INTER>
-17.0531

>  <SCORE.INTER.CONST>
1

>  <SCORE.INTER.POLAR>
0

>  <SCORE.INTER.ROT>
0

>  <SCORE.INTER.SOLV>
3.43265

>  <SCORE.INTER.VDW>
-16.113

>  <SCORE.INTER.norm>
-1.70531

>  <SCORE.INTRA>
0

>  <SCORE.INTRA.DIHEDRAL>
0

>  <SCORE.INTRA.DIHEDRAL.0>
0

>  <SCORE.INTRA.POLAR>
0

>  <SCORE.INTRA.POLAR.0>
0

>  <SCORE.INTRA.REPUL>
0

>  <SCORE.INTRA.REPUL.0>
0

>  <SCORE.INTRA.SOLV>
0

>  <SCORE.INTRA.SOLV.lig_0>
-4.28901

>  <SCORE.INTRA.VDW>
0

>  <SCORE.INTRA.VDW.0>
0

>  <SCORE.INTRA.norm>
0

>  <SCORE.RESTR>
0

>  <SCORE.RESTR.CAVITY>
0

>  <SCORE.RESTR.norm>
0

>  <SCORE.SYSTEM>
0

>  <SCORE.SYSTEM.CONST>
0

>  <SCORE.SYSTEM.DIHEDRAL>
0

>  <SCORE.SYSTEM.SOLV>
0

>  <SCORE.SYSTEM.norm>
0

>  <SCORE.heavy>
10

>  <SCORE.norm>
-1.70531

>  <RMSD>
0.930

$$$$
ligand
 OpenBabel11021811423D
libRbt.so/2013.1/901 2013/11/27
 10 11  0  0  0  0  0  0  0  0999 V2000
   11.6845   11.3821    8.5792 N   0  0  0  0  0  0  0  0  0  0  0  0
   11.4398   12.7427    8.6089 C   0  0  0  0  0  0  0  0  0  0  0  0
   11.1307   13.4363    7.5048 N   0  0  0  0  0  0  0  0  0  0  0  0
   11.0895   12.6709    6.3834 C   0  0  0  0  0  0  0  0  0  0  0  0
   11.3238   11.3112    6.2811 C   0  0  0  0  0  0  0  0  0  0  0  0
   11.6522   10.5611    7.4475 C   0  0  0  0  0  0  0  0  0  0  0  0
   11.8972    9.3542    7.5866 O   0  0  0  0  0  0  0  0  0  0  0  0
   11.1782   10.9472    4.9707 N   0  0  0  0  0  0  0  0  0  0  0  0
   10.8572   12.0762    4.2909 C   0  0  0  0  0  0  0  0  0  0  0  0
   10.7955   13.1558    5.1338 N   0  0  0  0  0  0  0  0  0  0  0  0
  1  2  1  0  0  0  0
  1  6  1  0  0  0  0
  2  3  2  0  0  0  0
  3  4  1  0  0  0  0
  4  5  2  0  0  0  0
  4 10  1  0  0  0  0
  5  6  1  0  0  0  0
  5  8  1  0  0  0  0
  6  7  2  0  0  0  0
  8  9  1  0  0  0  0
  9 10  2  0  0  0  0
M  END
>  <CHROM.1>
11.31623453,11.71920947,6.69815708,0.35853101,-1.32934121,0.84722574

>  <Name>
ligand

>  <RI>
0

>  <Rbt.Current_Directory>
/home/itssahil/PROJECTS/Mol_Feturizer/New_Systems/rnas/2EEW

>  <Rbt.Executable>
rbdock ($Id: //depot/dev/client3/rdock/2013.1/src/exe/rbdock.cxx#4 $)

>  <Rbt.Library>
libRbt.so (2013.1, Build901 2013/11/27)

>  <Rbt.Parameter_File>
/export/apps/rDock/src/rDock_2013.1_src/data/scripts/dock_solv.prm

>  <Rbt.Receptor>
prm/blind_docking_100.prm

>  <SCORE>
-17.0124

>  <SCORE.INTER>
-17.0124

>  <SCORE.INTER.CONST>
1

>  <SCORE.INTER.POLAR>
0

>  <SCORE.INTER.ROT>
0

>  <SCORE.INTER.SOLV>
3.3817

>  <SCORE.INTER.VDW>
-16.0688

>  <SCORE.INTER.norm>
-1.70124

>  <SCORE.INTRA>
0

>  <SCORE.INTRA.DIHEDRAL>
0

>  <SCORE.INTRA.DIHEDRAL.0>
0

>  <SCORE.INTRA.POLAR>
0

>  <SCORE.INTRA.POLAR.0>
0

>  <SCORE.INTRA.REPUL>
0

>  <SCORE.INTRA.REPUL.0>
0

>  <SCORE.INTRA.SOLV>
0

>  <SCORE.INTRA.SOLV.lig_0>
-4.28901

>  <SCORE.INTRA.VDW>
0

>  <SCORE.INTRA.VDW.0>
0

>  <SCORE.INTRA.norm>
0

>  <SCORE.RESTR>
0

>  <SCORE.RESTR.CAVITY>
0

>  <SCORE.RESTR.norm>
0

>  <SCORE.SYSTEM>
0

>  <SCORE.SYSTEM.CONST>
0

>  <SCORE.SYSTEM.DIHEDRAL>
0

>  <SCORE.SYSTEM.SOLV>
0

>  <SCORE.SYSTEM.norm>
0

>  <SCORE.heavy>
10

>  <SCORE.norm>
-1.70124

>  <RMSD>
0.931

$$$$
ligand
 OpenBabel11021811423D
libRbt.so/2013.1/901 2013/11/27
 10 11  0  0  0  0  0  0  0  0999 V2000
   11.7110   11.3635    8.5620 N   0  0  0  0  0  0  0  0  0  0  0  0
   11.4633   12.7232    8.6049 C   0  0  0  0  0  0  0  0  0  0  0  0
   11.1393   13.4242    7.5098 N   0  0  0  0  0  0  0  0  0  0  0  0
   11.0867   12.6671    6.3832 C   0  0  0  0  0  0  0  0  0  0  0  0
   11.3232   11.3088    6.2679 C   0  0  0  0  0  0  0  0  0  0  0  0
   11.6673   10.5510    7.4246 C   0  0  0  0  0  0  0  0  0  0  0  0
   11.9169    9.3437    7.5518 O   0  0  0  0  0  0  0  0  0  0  0  0
   11.1629   10.9543    4.9566 N   0  0  0  0  0  0  0  0  0  0  0  0
   10.8311   12.0876    4.2892 C   0  0  0  0  0  0  0  0  0  0  0  0
   10.7767   13.1607    5.1408 N   0  0  0  0  0  0  0  0  0  0  0  0
  1  2  1  0  0  0  0
  1  6  1  0  0  0  0
  2  3  2  0  0  0  0
  3  4  1  0  0  0  0
  4  5  2  0  0  0  0
  4 10  1  0  0  0  0
  5  6  1  0  0  0  0
  5  8  1  0  0  0  0
  6  7  2  0  0  0  0
  8  9  1  0  0  0  0
  9 10  2  0  0  0  0
M  END
>  <CHROM.1>
11.31957704,11.71373301,6.68806554,0.32936167,-1.31950154,0.82643957

>  <Name>
ligand

>  <RI>
0

>  <Rbt.Current_Directory>
/home/itssahil/PROJECTS/Mol_Feturizer/New_Systems/rnas/2EEW

>  <Rbt.Executable>
rbdock ($Id: //depot/dev/client3/rdock/2013.1/src/exe/rbdock.cxx#4 $)

>  <Rbt.Library>
libRbt.so (2013.1, Build901 2013/11/27)

>  <Rbt.Parameter_File>
/export/apps/rDock/src/rDock_2013.1_src/data/scripts/dock_solv.prm

>  <Rbt.Receptor>
prm/blind_docking_60.prm

>  <SCORE>
-17.0381

>  <SCORE.INTER>
-17.0381

>  <SCORE.INTER.CONST>
1

>  <SCORE.INTER.POLAR>
0

>  <SCORE.INTER.ROT>
0

>  <SCORE.INTER.SOLV>
3.35402

>  <SCORE.INTER.VDW>
-16.0768

>  <SCORE.INTER.norm>
-1.70381

>  <SCORE.INTRA>
0

>  <SCORE.INTRA.DIHEDRAL>
0

>  <SCORE.INTRA.DIHEDRAL.0>
0

>  <SCORE.INTRA.POLAR>
0

>  <SCORE.INTRA.POLAR.0>
0

>  <SCORE.INTRA.REPUL>
0

>  <SCORE.INTRA.REPUL.0>
0

>  <SCORE.INTRA.SOLV>
0

>  <SCORE.INTRA.SOLV.lig_0>
-4.28901

>  <SCORE.INTRA.VDW>
0

>  <SCORE.INTRA.VDW.0>
0

>  <SCORE.INTRA.norm>
0

>  <SCORE.RESTR>
0

>  <SCORE.RESTR.CAVITY>
0

>  <SCORE.RESTR.norm>
0

>  <SCORE.SYSTEM>
0

>  <SCORE.SYSTEM.CONST>
0

>  <SCORE.SYSTEM.DIHEDRAL>
0

>  <SCORE.SYSTEM.SOLV>
0

>  <SCORE.SYSTEM.norm>
0

>  <SCORE.heavy>
10

>  <SCORE.norm>
-1.70381

>  <RMSD>
0.931

$$$$
ligand
 OpenBabel11021811423D
libRbt.so/2013.1/901 2013/11/27
 10 11  0  0  0  0  0  0  0  0999 V2000
   11.7056   11.3783    8.5678 N   0  0  0  0  0  0  0  0  0  0  0  0
   11.4512   12.7369    8.6044 C   0  0  0  0  0  0  0  0  0  0  0  0
   11.1291   13.4323    7.5051 N   0  0  0  0  0  0  0  0  0  0  0  0
   11.0853   12.6707    6.3812 C   0  0  0  0  0  0  0  0  0  0  0  0
   11.3287   11.3132    6.2721 C   0  0  0  0  0  0  0  0  0  0  0  0
   11.6710   10.5612    7.4332 C   0  0  0  0  0  0  0  0  0  0  0  0
   11.9258    9.3557    7.5661 O   0  0  0  0  0  0  0  0  0  0  0  0
   11.1763   10.9530    4.9614 N   0  0  0  0  0  0  0  0  0  0  0  0
   10.8422   12.0822    4.2882 C   0  0  0  0  0  0  0  0  0  0  0  0
   10.7789   13.1582    5.1356 N   0  0  0  0  0  0  0  0  0  0  0  0
  1  2  1  0  0  0  0
  1  6  1  0  0  0  0
  2  3  2  0  0  0  0
  3  4  1  0  0  0  0
  4  5  2  0  0  0  0
  4 10  1  0  0  0  0
  5  6  1  0  0  0  0
  5  8  1  0  0  0  0
  6  7  2  0  0  0  0
  8  9  1  0  0  0  0
  9 10  2  0  0  0  0
M  END
>  <CHROM.1>
11.32126596,11.71959339,6.69071936,0.35606549,-1.31911150,0.84856211

>  <Name>
ligand

>  <RI>
0

>  <Rbt.Current_Directory>
/home/itssahil/PROJECTS/Mol_Feturizer/New_Systems/rnas/2EEW

>  <Rbt.Executable>
rbdock ($Id: //depot/dev/client3/rdock/2013.1/src/exe/rbdock.cxx#4 $)

>  <Rbt.Library>
libRbt.so (2013.1, Build901 2013/11/27)

>  <Rbt.Parameter_File>
/export/apps/rDock/src/rDock_2013.1_src/data/scripts/dock_solv.prm

>  <Rbt.Receptor>
prm/pocket_docking_6.prm

>  <SCORE>
-17.0341

>  <SCORE.INTER>
-17.0341

>  <SCORE.INTER.CONST>
1

>  <SCORE.INTER.POLAR>
0

>  <SCORE.INTER.ROT>
0

>  <SCORE.INTER.SOLV>
3.34917

>  <SCORE.INTER.VDW>
-16.0725

>  <SCORE.INTER.norm>
-1.70341

>  <SCORE.INTRA>
0

>  <SCORE.INTRA.DIHEDRAL>
0

>  <SCORE.INTRA.DIHEDRAL.0>
0

>  <SCORE.INTRA.POLAR>
0

>  <SCORE.INTRA.POLAR.0>
0

>  <SCORE.INTRA.REPUL>
0

>  <SCORE.INTRA.REPUL.0>
0

>  <SCORE.INTRA.SOLV>
0

>  <SCORE.INTRA.SOLV.lig_0>
-4.28901

>  <SCORE.INTRA.VDW>
0

>  <SCORE.INTRA.VDW.0>
0

>  <SCORE.INTRA.norm>
0

>  <SCORE.RESTR>
0

>  <SCORE.RESTR.CAVITY>
0

>  <SCORE.RESTR.norm>
0

>  <SCORE.SYSTEM>
0

>  <SCORE.SYSTEM.CONST>
0

>  <SCORE.SYSTEM.DIHEDRAL>
0

>  <SCORE.SYSTEM.SOLV>
0

>  <SCORE.SYSTEM.norm>
0

>  <SCORE.heavy>
10

>  <SCORE.norm>
-1.70341

>  <RMSD>
0.932

$$$$
ligand
 OpenBabel11021811423D
libRbt.so/2013.1/901 2013/11/27
 10 11  0  0  0  0  0  0  0  0999 V2000
   11.6821   11.5024    8.6311 N   0  0  0  0  0  0  0  0  0  0  0  0
   11.4605   12.8671    8.6097 C   0  0  0  0  0  0  0  0  0  0  0  0
   11.1672   13.5246    7.4796 N   0  0  0  0  0  0  0  0  0  0  0  0
   11.1171   12.7193    6.3869 C   0  0  0  0  0  0  0  0  0  0  0  0
   11.3285   11.3530    6.3356 C   0  0  0  0  0  0  0  0  0  0  0  0
   11.6398   10.6409    7.5302 C   0  0  0  0  0  0  0  0  0  0  0  0
   11.8637    9.4360    7.7146 O   0  0  0  0  0  0  0  0  0  0  0  0
   11.1815   10.9435    5.0389 N   0  0  0  0  0  0  0  0  0  0  0  0
   10.8822   12.0520    4.3167 C   0  0  0  0  0  0  0  0  0  0  0  0
   10.8359   13.1628    5.1191 N   0  0  0  0  0  0  0  0  0  0  0  0
  1  2  1  0  0  0  0
  1  6  1  0  0  0  0
  2  3  2  0  0  0  0
  3  4  1  0  0  0  0
  4  5  2  0  0  0  0
  4 10  1  0  0  0  0
  5  6  1  0  0  0  0
  5  8  1  0  0  0  0
  6  7  2  0  0  0  0
  8  9  1  0  0  0  0
  9 10  2  0  0  0  0
M  END
>  <CHROM.1>
11.32640719,11.77615150,6.73737569,0.32033263,-1.34435478,0.77326050

>  <Name>
ligand

>  <RI>
0

>  <Rbt.Current_Directory>
/home/itssahil/PROJECTS/Mol_Feturizer/New_Systems/rnas/2EEW

>  <Rbt.Executable>
rbdock ($Id: //depot/dev/client3/rdock/2013.1/src/exe/rbdock.cxx#4 $)

>  <Rbt.Library>
libRbt.so (2013.1, Build901 2013/11/27)

>  <Rbt.Parameter_File>
/export/apps/rDock/src/rDock_2013.1_src/data/scripts/dock_solv.prm

>  <Rbt.Receptor>
prm/pocket_docking_4.prm

>  <SCORE>
-17.0307

>  <SCORE.INTER>
-17.0307

>  <SCORE.INTER.CONST>
1

>  <SCORE.INTER.POLAR>
0

>  <SCORE.INTER.ROT>
0

>  <SCORE.INTER.SOLV>
3.43775

>  <SCORE.INTER.VDW>
-16.0997

>  <SCORE.INTER.norm>
-1.70307

>  <SCORE.INTRA>
0

>  <SCORE.INTRA.DIHEDRAL>
0

>  <SCORE.INTRA.DIHEDRAL.0>
0

>  <SCORE.INTRA.POLAR>
0

>  <SCORE.INTRA.POLAR.0>
0

>  <SCORE.INTRA.REPUL>
0

>  <SCORE.INTRA.REPUL.0>
0

>  <SCORE.INTRA.SOLV>
0

>  <SCORE.INTRA.SOLV.lig_0>
-4.28901

>  <SCORE.INTRA.VDW>
0

>  <SCORE.INTRA.VDW.0>
0

>  <SCORE.INTRA.norm>
0

>  <SCORE.RESTR>
0

>  <SCORE.RESTR.CAVITY>
0

>  <SCORE.RESTR.norm>
0

>  <SCORE.SYSTEM>
0

>  <SCORE.SYSTEM.CONST>
0

>  <SCORE.SYSTEM.DIHEDRAL>
0

>  <SCORE.SYSTEM.SOLV>
0

>  <SCORE.SYSTEM.norm>
0

>  <SCORE.heavy>
10

>  <SCORE.norm>
-1.70307

>  <RMSD>
0.935

$$$$
ligand
 OpenBabel11021811423D
libRbt.so/2013.1/901 2013/11/27
 10 11  0  0  0  0  0  0  0  0999 V2000
   11.6679   11.4919    8.6305 N   0  0  0  0  0  0  0  0  0  0  0  0
   11.4551   12.8580    8.6104 C   0  0  0  0  0  0  0  0  0  0  0  0
   11.1663   13.5185    7.4808 N   0  0  0  0  0  0  0  0  0  0  0  0
   11.1110   12.7144    6.3873 C   0  0  0  0  0  0  0  0  0  0  0  0
   11.3136   11.3468    6.3349 C   0  0  0  0  0  0  0  0  0  0  0  0
   11.6202   10.6318    7.5288 C   0  0  0  0  0  0  0  0  0  0  0  0
   11.8363    9.4252    7.7122 O   0  0  0  0  0  0  0  0  0  0  0  0
   11.1641   10.9395    5.0378 N   0  0  0  0  0  0  0  0  0  0  0  0
   10.8721   12.0505    4.3165 C   0  0  0  0  0  0  0  0  0  0  0  0
   10.8329   13.1609    5.1199 N   0  0  0  0  0  0  0  0  0  0  0  0
  1  2  1  0  0  0  0
  1  6  1  0  0  0  0
  2  3  2  0  0  0  0
  3  4  1  0  0  0  0
  4  5  2  0  0  0  0
  4 10  1  0  0  0  0
  5  6  1  0  0  0  0
  5  8  1  0  0  0  0
  6  7  2  0  0  0  0
  8  9  1  0  0  0  0
  9 10  2  0  0  0  0
M  END
>  <CHROM.1>
11.31422328,11.76967156,6.73699052,0.29972971,-1.34890563,0.75407648

>  <Name>
ligand

>  <RI>
0

>  <Rbt.Current_Directory>
/home/itssahil/PROJECTS/Mol_Feturizer/New_Systems/rnas/2EEW

>  <Rbt.Executable>
rbdock ($Id: //depot/dev/client3/rdock/2013.1/src/exe/rbdock.cxx#4 $)

>  <Rbt.Library>
libRbt.so (2013.1, Build901 2013/11/27)

>  <Rbt.Parameter_File>
/export/apps/rDock/src/rDock_2013.1_src/data/scripts/dock_solv.prm

>  <Rbt.Receptor>
prm/pocket_docking_3.prm

>  <SCORE>
-17.0383

>  <SCORE.INTER>
-17.0383

>  <SCORE.INTER.CONST>
1

>  <SCORE.INTER.POLAR>
0

>  <SCORE.INTER.ROT>
0

>  <SCORE.INTER.SOLV>
3.46268

>  <SCORE.INTER.VDW>
-16.1131

>  <SCORE.INTER.norm>
-1.70383

>  <SCORE.INTRA>
0

>  <SCORE.INTRA.DIHEDRAL>
0

>  <SCORE.INTRA.DIHEDRAL.0>
0

>  <SCORE.INTRA.POLAR>
0

>  <SCORE.INTRA.POLAR.0>
0

>  <SCORE.INTRA.REPUL>
0

>  <SCORE.INTRA.REPUL.0>
0

>  <SCORE.INTRA.SOLV>
0

>  <SCORE.INTRA.SOLV.lig_0>
-4.28901

>  <SCORE.INTRA.VDW>
0

>  <SCORE.INTRA.VDW.0>
0

>  <SCORE.INTRA.norm>
0

>  <SCORE.RESTR>
0

>  <SCORE.RESTR.CAVITY>
0

>  <SCORE.RESTR.norm>
0

>  <SCORE.SYSTEM>
0

>  <SCORE.SYSTEM.CONST>
0

>  <SCORE.SYSTEM.DIHEDRAL>
0

>  <SCORE.SYSTEM.SOLV>
0

>  <SCORE.SYSTEM.norm>
0

>  <SCORE.heavy>
10

>  <SCORE.norm>
-1.70383

>  <RMSD>
0.937

$$$$
ligand
 OpenBabel11021811423D
libRbt.so/2013.1/901 2013/11/27
 10 11  0  0  0  0  0  0  0  0999 V2000
   11.6698   11.5005    8.6305 N   0  0  0  0  0  0  0  0  0  0  0  0
   11.4515   12.8657    8.6103 C   0  0  0  0  0  0  0  0  0  0  0  0
   11.1599   13.5250    7.4808 N   0  0  0  0  0  0  0  0  0  0  0  0
   11.1076   12.7206    6.3874 C   0  0  0  0  0  0  0  0  0  0  0  0
   11.3157   11.3539    6.3350 C   0  0  0  0  0  0  0  0  0  0  0  0
   11.6253   10.6401    7.5289 C   0  0  0  0  0  0  0  0  0  0  0  0
   11.8462    9.4344    7.7123 O   0  0  0  0  0  0  0  0  0  0  0  0
   11.1676   10.9459    5.0379 N   0  0  0  0  0  0  0  0  0  0  0  0
   10.8710   12.0557    4.3166 C   0  0  0  0  0  0  0  0  0  0  0  0
   10.8276   13.1659    5.1200 N   0  0  0  0  0  0  0  0  0  0  0  0
  1  2  1  0  0  0  0
  1  6  1  0  0  0  0
  2  3  2  0  0  0  0
  3  4  1  0  0  0  0
  4  5  2  0  0  0  0
  4 10  1  0  0  0  0
  5  6  1  0  0  0  0
  5  8  1  0  0  0  0
  6  7  2  0  0  0  0
  8  9  1  0  0  0  0
  9 10  2  0  0  0  0
M  END
>  <CHROM.1>
11.31465881,11.77671725,6.73706285,0.31213866,-1.34604760,0.76612395

>  <Name>
ligand

>  <RI>
0

>  <Rbt.Current_Directory>
/home/itssahil/PROJECTS/Mol_Feturizer/New_Systems/rnas/2EEW

>  <Rbt.Executable>
rbdock ($Id: //depot/dev/client3/rdock/2013.1/src/exe/rbdock.cxx#4 $)

>  <Rbt.Library>
libRbt.so (2013.1, Build901 2013/11/27)

>  <Rbt.Parameter_File>
/export/apps/rDock/src/rDock_2013.1_src/data/scripts/dock_solv.prm

>  <Rbt.Receptor>
prm/pocket_docking_6.prm

>  <SCORE>
-17.0372

>  <SCORE.INTER>
-17.0372

>  <SCORE.INTER.CONST>
1

>  <SCORE.INTER.POLAR>
0

>  <SCORE.INTER.ROT>
0

>  <SCORE.INTER.SOLV>
3.44786

>  <SCORE.INTER.VDW>
-16.1074

>  <SCORE.INTER.norm>
-1.70372

>  <SCORE.INTRA>
0

>  <SCORE.INTRA.DIHEDRAL>
0

>  <SCORE.INTRA.DIHEDRAL.0>
0

>  <SCORE.INTRA.POLAR>
0

>  <SCORE.INTRA.POLAR.0>
0

>  <SCORE.INTRA.REPUL>
0

>  <SCORE.INTRA.REPUL.0>
0

>  <SCORE.INTRA.SOLV>
0

>  <SCORE.INTRA.SOLV.lig_0>
-4.28901

>  <SCORE.INTRA.VDW>
0

>  <SCORE.INTRA.VDW.0>
0

>  <SCORE.INTRA.norm>
0

>  <SCORE.RESTR>
0

>  <SCORE.RESTR.CAVITY>
0

>  <SCORE.RESTR.norm>
0

>  <SCORE.SYSTEM>
0

>  <SCORE.SYSTEM.CONST>
0

>  <SCORE.SYSTEM.DIHEDRAL>
0

>  <SCORE.SYSTEM.SOLV>
0

>  <SCORE.SYSTEM.norm>
0

>  <SCORE.heavy>
10

>  <SCORE.norm>
-1.70372

>  <RMSD>
0.938

$$$$
ligand
 OpenBabel11021811423D
libRbt.so/2013.1/901 2013/11/27
 10 11  0  0  0  0  0  0  0  0999 V2000
   11.6665   11.5047    8.6343 N   0  0  0  0  0  0  0  0  0  0  0  0
   11.4532   12.8706    8.6110 C   0  0  0  0  0  0  0  0  0  0  0  0
   11.1646   13.5284    7.4798 N   0  0  0  0  0  0  0  0  0  0  0  0
   11.1100   12.7219    6.3882 C   0  0  0  0  0  0  0  0  0  0  0  0
   11.3131   11.3543    6.3389 C   0  0  0  0  0  0  0  0  0  0  0  0
   11.6195   10.6420    7.5345 C   0  0  0  0  0  0  0  0  0  0  0  0
   11.8360    9.4360    7.7207 O   0  0  0  0  0  0  0  0  0  0  0  0
   11.1643   10.9440    5.0426 N   0  0  0  0  0  0  0  0  0  0  0  0
   10.8722   12.0533    4.3187 C   0  0  0  0  0  0  0  0  0  0  0  0
   10.8323   13.1654    5.1196 N   0  0  0  0  0  0  0  0  0  0  0  0
  1  2  1  0  0  0  0
  1  6  1  0  0  0  0
  2  3  2  0  0  0  0
  3  4  1  0  0  0  0
  4  5  2  0  0  0  0
  4 10  1  0  0  0  0
  5  6  1  0  0  0  0
  5  8  1  0  0  0  0
  6  7  2  0  0  0  0
  8  9  1  0  0  0  0
  9 10  2  0  0  0  0
M  END
>  <CHROM.1>
11.31343159,11.77802486,6.74003954,0.30211238,-1.34895073,0.75415335

>  <Name>
ligand

>  <RI>
0

>  <Rbt.Current_Directory>
/home/itssahil/PROJECTS/Mol_Feturizer/New_Systems/rnas/2EEW

>  <Rbt.Executable>
rbdock ($Id: //depot/dev/client3/rdock/2013.1/src/exe/rbdock.cxx#4 $)

>  <Rbt.Library>
libRbt.so (2013.1, Build901 2013/11/27)

>  <Rbt.Parameter_File>
/export/apps/rDock/src/rDock_2013.1_src/data/scripts/dock_solv.prm

>  <Rbt.Receptor>
prm/pocket_docking_3.prm

>  <SCORE>
-17.0379

>  <SCORE.INTER>
-17.0379

>  <SCORE.INTER.CONST>
1

>  <SCORE.INTER.POLAR>
0

>  <SCORE.INTER.ROT>
0

>  <SCORE.INTER.SOLV>
3.46179

>  <SCORE.INTER.VDW>
-16.1125

>  <SCORE.INTER.norm>
-1.70379

>  <SCORE.INTRA>
0

>  <SCORE.INTRA.DIHEDRAL>
0

>  <SCORE.INTRA.DIHEDRAL.0>
0

>  <SCORE.INTRA.POLAR>
0

>  <SCORE.INTRA.POLAR.0>
0

>  <SCORE.INTRA.REPUL>
0

>  <SCORE.INTRA.REPUL.0>
0

>  <SCORE.INTRA.SOLV>
0

>  <SCORE.INTRA.SOLV.lig_0>
-4.28901

>  <SCORE.INTRA.VDW>
0

>  <SCORE.INTRA.VDW.0>
0

>  <SCORE.INTRA.norm>
0

>  <SCORE.RESTR>
0

>  <SCORE.RESTR.CAVITY>
0

>  <SCORE.RESTR.norm>
0

>  <SCORE.SYSTEM>
0

>  <SCORE.SYSTEM.CONST>
0

>  <SCORE.SYSTEM.DIHEDRAL>
0

>  <SCORE.SYSTEM.SOLV>
0

>  <SCORE.SYSTEM.norm>
0

>  <SCORE.heavy>
10

>  <SCORE.norm>
-1.70379

>  <RMSD>
0.939

$$$$
ligand
 OpenBabel11021811423D
libRbt.so/2013.1/901 2013/11/27
 10 11  0  0  0  0  0  0  0  0999 V2000
   11.6731   11.5001    8.6281 N   0  0  0  0  0  0  0  0  0  0  0  0
   11.4545   12.8653    8.6075 C   0  0  0  0  0  0  0  0  0  0  0  0
   11.1620   13.5241    7.4779 N   0  0  0  0  0  0  0  0  0  0  0  0
   11.1093   12.7193    6.3848 C   0  0  0  0  0  0  0  0  0  0  0  0
   11.3177   11.3526    6.3328 C   0  0  0  0  0  0  0  0  0  0  0  0
   11.6282   10.6393    7.5268 C   0  0  0  0  0  0  0  0  0  0  0  0
   11.8495    9.4338    7.7105 O   0  0  0  0  0  0  0  0  0  0  0  0
   11.1689   10.9440    5.0360 N   0  0  0  0  0  0  0  0  0  0  0  0
   10.8716   12.0535    4.3145 C   0  0  0  0  0  0  0  0  0  0  0  0
   10.8284   13.1641    5.1174 N   0  0  0  0  0  0  0  0  0  0  0  0
  1  2  1  0  0  0  0
  1  6  1  0  0  0  0
  2  3  2  0  0  0  0
  3  4  1  0  0  0  0
  4  5  2  0  0  0  0
  4 10  1  0  0  0  0
  5  6  1  0  0  0  0
  5  8  1  0  0  0  0
  6  7  2  0  0  0  0
  8  9  1  0  0  0  0
  9 10  2  0  0  0  0
M  END
>  <CHROM.1>
11.31679582,11.77556575,6.73473392,0.31113576,-1.34543773,0.76476757

>  <Name>
ligand

>  <RI>
0

>  <Rbt.Current_Directory>
/home/itssahil/PROJECTS/Mol_Feturizer/New_Systems/rnas/2EEW

>  <Rbt.Executable>
rbdock ($Id: //depot/dev/client3/rdock/2013.1/src/exe/rbdock.cxx#4 $)

>  <Rbt.Library>
libRbt.so (2013.1, Build901 2013/11/27)

>  <Rbt.Parameter_File>
/export/apps/rDock/src/rDock_2013.1_src/data/scripts/dock_solv.prm

>  <Rbt.Receptor>
prm/pocket_docking_8.prm

>  <SCORE>
-17.0371

>  <SCORE.INTER>
-17.0371

>  <SCORE.INTER.CONST>
1

>  <SCORE.INTER.POLAR>
0

>  <SCORE.INTER.ROT>
0

>  <SCORE.INTER.SOLV>
3.44542

>  <SCORE.INTER.VDW>
-16.1066

>  <SCORE.INTER.norm>
-1.70371

>  <SCORE.INTRA>
0

>  <SCORE.INTRA.DIHEDRAL>
0

>  <SCORE.INTRA.DIHEDRAL.0>
0

>  <SCORE.INTRA.POLAR>
0

>  <SCORE.INTRA.POLAR.0>
0

>  <SCORE.INTRA.REPUL>
0

>  <SCORE.INTRA.REPUL.0>
0

>  <SCORE.INTRA.SOLV>
0

>  <SCORE.INTRA.SOLV.lig_0>
-4.28901

>  <SCORE.INTRA.VDW>
0

>  <SCORE.INTRA.VDW.0>
0

>  <SCORE.INTRA.norm>
0

>  <SCORE.RESTR>
0

>  <SCORE.RESTR.CAVITY>
0

>  <SCORE.RESTR.norm>
0

>  <SCORE.SYSTEM>
0

>  <SCORE.SYSTEM.CONST>
0

>  <SCORE.SYSTEM.DIHEDRAL>
0

>  <SCORE.SYSTEM.SOLV>
0

>  <SCORE.SYSTEM.norm>
0

>  <SCORE.heavy>
10

>  <SCORE.norm>
-1.70371

>  <RMSD>
0.939

$$$$
ligand
 OpenBabel11021811423D
libRbt.so/2013.1/901 2013/11/27
 10 11  0  0  0  0  0  0  0  0999 V2000
   11.6700   11.5033    8.6298 N   0  0  0  0  0  0  0  0  0  0  0  0
   11.4580   12.8694    8.6050 C   0  0  0  0  0  0  0  0  0  0  0  0
   11.1672   13.5258    7.4736 N   0  0  0  0  0  0  0  0  0  0  0  0
   11.1091   12.7177    6.3833 C   0  0  0  0  0  0  0  0  0  0  0  0
   11.3108   11.3498    6.3355 C   0  0  0  0  0  0  0  0  0  0  0  0
   11.6195   10.6390    7.5314 C   0  0  0  0  0  0  0  0  0  0  0  0
   11.8352    9.4330    7.7189 O   0  0  0  0  0  0  0  0  0  0  0  0
   11.1583   10.9377    5.0403 N   0  0  0  0  0  0  0  0  0  0  0  0
   10.8655   12.0462    4.3154 C   0  0  0  0  0  0  0  0  0  0  0  0
   10.8286   13.1596    5.1147 N   0  0  0  0  0  0  0  0  0  0  0  0
  1  2  1  0  0  0  0
  1  6  1  0  0  0  0
  2  3  2  0  0  0  0
  3  4  1  0  0  0  0
  4  5  2  0  0  0  0
  4 10  1  0  0  0  0
  5  6  1  0  0  0  0
  5  8  1  0  0  0  0
  6  7  2  0  0  0  0
  8  9  1  0  0  0  0
  9 10  2  0  0  0  0
M  END
>  <CHROM.1>
11.31250934,11.77411513,6.73603975,0.29109862,-1.34778005,0.74190767

>  <Name>
ligand

>  <RI>
0

>  <Rbt.Current_Directory>
/home/itssahil/PROJECTS/Mol_Feturizer/New_Systems/rnas/2EEW

>  <Rbt.Executable>
rbdock ($Id: //depot/dev/client3/rdock/2013.1/src/exe/rbdock.cxx#4 $)

>  <Rbt.Library>
libRbt.so (2013.1, Build901 2013/11/27)

>  <Rbt.Parameter_File>
/export/apps/rDock/src/rDock_2013.1_src/data/scripts/dock_solv.prm

>  <Rbt.Receptor>
prm/pocket_docking_7.prm

>  <SCORE>
-17.0388

>  <SCORE.INTER>
-17.0388

>  <SCORE.INTER.CONST>
1

>  <SCORE.INTER.POLAR>
0

>  <SCORE.INTER.ROT>
0

>  <SCORE.INTER.SOLV>
3.46121

>  <SCORE.INTER.VDW>
-16.1129

>  <SCORE.INTER.norm>
-1.70388

>  <SCORE.INTRA>
0

>  <SCORE.INTRA.DIHEDRAL>
0

>  <SCORE.INTRA.DIHEDRAL.0>
0

>  <SCORE.INTRA.POLAR>
0

>  <SCORE.INTRA.POLAR.0>
0

>  <SCORE.INTRA.REPUL>
0

>  <SCORE.INTRA.REPUL.0>
0

>  <SCORE.INTRA.SOLV>
0

>  <SCORE.INTRA.SOLV.lig_0>
-4.28901

>  <SCORE.INTRA.VDW>
0

>  <SCORE.INTRA.VDW.0>
0

>  <SCORE.INTRA.norm>
0

>  <SCORE.RESTR>
0

>  <SCORE.RESTR.CAVITY>
0

>  <SCORE.RESTR.norm>
0

>  <SCORE.SYSTEM>
0

>  <SCORE.SYSTEM.CONST>
0

>  <SCORE.SYSTEM.DIHEDRAL>
0

>  <SCORE.SYSTEM.SOLV>
0

>  <SCORE.SYSTEM.norm>
0

>  <SCORE.heavy>
10

>  <SCORE.norm>
-1.70388

>  <RMSD>
0.941

$$$$
ligand
 OpenBabel11021811423D
libRbt.so/2013.1/901 2013/11/27
 10 11  0  0  0  0  0  0  0  0999 V2000
   11.6566   11.6626    8.7135 N   0  0  0  0  0  0  0  0  0  0  0  0
   11.3816   13.0140    8.6140 C   0  0  0  0  0  0  0  0  0  0  0  0
   11.0753   13.5956    7.4463 N   0  0  0  0  0  0  0  0  0  0  0  0
   11.0691   12.7296    6.3999 C   0  0  0  0  0  0  0  0  0  0  0  0
   11.3348   11.3720    6.4270 C   0  0  0  0  0  0  0  0  0  0  0  0
   11.6606   10.7404    7.6621 C   0  0  0  0  0  0  0  0  0  0  0  0
   11.9297    9.5575    7.9156 O   0  0  0  0  0  0  0  0  0  0  0  0
   11.2186   10.8858    5.1539 N   0  0  0  0  0  0  0  0  0  0  0  0
   10.8839   11.9397    4.3682 C   0  0  0  0  0  0  0  0  0  0  0  0
   10.7849   13.0905    5.1068 N   0  0  0  0  0  0  0  0  0  0  0  0
  1  2  1  0  0  0  0
  1  6  1  0  0  0  0
  2  3  2  0  0  0  0
  3  4  1  0  0  0  0
  4  5  2  0  0  0  0
  4 10  1  0  0  0  0
  5  6  1  0  0  0  0
  5  8  1  0  0  0  0
  6  7  2  0  0  0  0
  8  9  1  0  0  0  0
  9 10  2  0  0  0  0
M  END
>  <CHROM.1>
11.31155650,11.81645157,6.80440224,0.46724771,-1.32224716,0.86037578

>  <Name>
ligand

>  <RI>
0

>  <Rbt.Current_Directory>
/home/itssahil/PROJECTS/Mol_Feturizer/New_Systems/rnas/2EEW

>  <Rbt.Executable>
rbdock ($Id: //depot/dev/client3/rdock/2013.1/src/exe/rbdock.cxx#4 $)

>  <Rbt.Library>
libRbt.so (2013.1, Build901 2013/11/27)

>  <Rbt.Parameter_File>
/export/apps/rDock/src/rDock_2013.1_src/data/scripts/dock_solv.prm

>  <Rbt.Receptor>
prm/blind_docking_80.prm

>  <SCORE>
-17.0833

>  <SCORE.INTER>
-17.0833

>  <SCORE.INTER.CONST>
1

>  <SCORE.INTER.POLAR>
0

>  <SCORE.INTER.ROT>
0

>  <SCORE.INTER.SOLV>
3.40574

>  <SCORE.INTER.VDW>
-16.1241

>  <SCORE.INTER.norm>
-1.70833

>  <SCORE.INTRA>
0

>  <SCORE.INTRA.DIHEDRAL>
0

>  <SCORE.INTRA.DIHEDRAL.0>
0

>  <SCORE.INTRA.POLAR>
0

>  <SCORE.INTRA.POLAR.0>
0

>  <SCORE.INTRA.REPUL>
0

>  <SCORE.INTRA.REPUL.0>
0

>  <SCORE.INTRA.SOLV>
0

>  <SCORE.INTRA.SOLV.lig_0>
-4.28901

>  <SCORE.INTRA.VDW>
0

>  <SCORE.INTRA.VDW.0>
0

>  <SCORE.INTRA.norm>
0

>  <SCORE.RESTR>
0

>  <SCORE.RESTR.CAVITY>
0

>  <SCORE.RESTR.norm>
0

>  <SCORE.SYSTEM>
0

>  <SCORE.SYSTEM.CONST>
0

>  <SCORE.SYSTEM.DIHEDRAL>
0

>  <SCORE.SYSTEM.SOLV>
0

>  <SCORE.SYSTEM.norm>
0

>  <SCORE.heavy>
10

>  <SCORE.norm>
-1.70833

>  <RMSD>
0.942

$$$$
ligand
 OpenBabel11021811423D
libRbt.so/2013.1/901 2013/11/27
 10 11  0  0  0  0  0  0  0  0999 V2000
   11.6538   11.6950    8.7626 N   0  0  0  0  0  0  0  0  0  0  0  0
   11.4217   13.0452    8.5759 C   0  0  0  0  0  0  0  0  0  0  0  0
   11.1436   13.5614    7.3709 N   0  0  0  0  0  0  0  0  0  0  0  0
   11.1194   12.6318    6.3807 C   0  0  0  0  0  0  0  0  0  0  0  0
   11.3425   11.2712    6.4954 C   0  0  0  0  0  0  0  0  0  0  0  0
   11.6380   10.7088    7.7710 C   0  0  0  0  0  0  0  0  0  0  0  0
   11.8681    9.5365    8.1008 O   0  0  0  0  0  0  0  0  0  0  0  0
   11.2220   10.7097    5.2541 N   0  0  0  0  0  0  0  0  0  0  0  0
   10.9270   11.7218    4.4006 C   0  0  0  0  0  0  0  0  0  0  0  0
   10.8575   12.9193    5.0647 N   0  0  0  0  0  0  0  0  0  0  0  0
  1  2  1  0  0  0  0
  1  6  1  0  0  0  0
  2  3  2  0  0  0  0
  3  4  1  0  0  0  0
  4  5  2  0  0  0  0
  4 10  1  0  0  0  0
  5  6  1  0  0  0  0
  5  8  1  0  0  0  0
  6  7  2  0  0  0  0
  8  9  1  0  0  0  0
  9 10  2  0  0  0  0
M  END
>  <CHROM.1>
11.32990044,11.73898150,6.84404673,0.40375537,-1.35090981,0.73584331

>  <Name>
ligand

>  <RI>
0

>  <Rbt.Current_Directory>
/home/itssahil/PROJECTS/Mol_Feturizer/New_Systems/rnas/2EEW

>  <Rbt.Executable>
rbdock ($Id: //depot/dev/client3/rdock/2013.1/src/exe/rbdock.cxx#4 $)

>  <Rbt.Library>
libRbt.so (2013.1, Build901 2013/11/27)

>  <Rbt.Parameter_File>
/export/apps/rDock/src/rDock_2013.1_src/data/scripts/dock_solv.prm

>  <Rbt.Receptor>
prm/pocket_docking_3.prm

>  <SCORE>
-17.0995

>  <SCORE.INTER>
-17.0995

>  <SCORE.INTER.CONST>
1

>  <SCORE.INTER.POLAR>
0

>  <SCORE.INTER.ROT>
0

>  <SCORE.INTER.SOLV>
3.59313

>  <SCORE.INTER.VDW>
-16.1974

>  <SCORE.INTER.norm>
-1.70995

>  <SCORE.INTRA>
0

>  <SCORE.INTRA.DIHEDRAL>
0

>  <SCORE.INTRA.DIHEDRAL.0>
0

>  <SCORE.INTRA.POLAR>
0

>  <SCORE.INTRA.POLAR.0>
0

>  <SCORE.INTRA.REPUL>
0

>  <SCORE.INTRA.REPUL.0>
0

>  <SCORE.INTRA.SOLV>
0

>  <SCORE.INTRA.SOLV.lig_0>
-4.28901

>  <SCORE.INTRA.VDW>
0

>  <SCORE.INTRA.VDW.0>
0

>  <SCORE.INTRA.norm>
0

>  <SCORE.RESTR>
0

>  <SCORE.RESTR.CAVITY>
0

>  <SCORE.RESTR.norm>
0

>  <SCORE.SYSTEM>
0

>  <SCORE.SYSTEM.CONST>
0

>  <SCORE.SYSTEM.DIHEDRAL>
0

>  <SCORE.SYSTEM.SOLV>
0

>  <SCORE.SYSTEM.norm>
0

>  <SCORE.heavy>
10

>  <SCORE.norm>
-1.70995

>  <RMSD>
0.946

$$$$
ligand
 OpenBabel11021811423D
libRbt.so/2013.1/901 2013/11/27
 10 11  0  0  0  0  0  0  0  0999 V2000
   11.6592   11.6985    8.7726 N   0  0  0  0  0  0  0  0  0  0  0  0
   11.4568   13.0519    8.5745 C   0  0  0  0  0  0  0  0  0  0  0  0
   11.1728   13.5617    7.3683 N   0  0  0  0  0  0  0  0  0  0  0  0
   11.1112   12.6225    6.3889 C   0  0  0  0  0  0  0  0  0  0  0  0
   11.3034   11.2582    6.5152 C   0  0  0  0  0  0  0  0  0  0  0  0
   11.6047   10.7025    7.7924 C   0  0  0  0  0  0  0  0  0  0  0  0
   11.8116    9.5285    8.1316 O   0  0  0  0  0  0  0  0  0  0  0  0
   11.1505   10.6865    5.2821 N   0  0  0  0  0  0  0  0  0  0  0  0
   10.8669   11.6963    4.4220 C   0  0  0  0  0  0  0  0  0  0  0  0
   10.8363   12.9021    5.0738 N   0  0  0  0  0  0  0  0  0  0  0  0
  1  2  1  0  0  0  0
  1  6  1  0  0  0  0
  2  3  2  0  0  0  0
  3  4  1  0  0  0  0
  4  5  2  0  0  0  0
  4 10  1  0  0  0  0
  5  6  1  0  0  0  0
  5  8  1  0  0  0  0
  6  7  2  0  0  0  0
  8  9  1  0  0  0  0
  9 10  2  0  0  0  0
M  END
>  <CHROM.1>
11.30726589,11.72982306,6.85882276,0.27327036,-1.35392100,0.59758775

>  <Name>
ligand

>  <RI>
0

>  <Rbt.Current_Directory>
/home/itssahil/PROJECTS/Mol_Feturizer/New_Systems/rnas/2EEW

>  <Rbt.Executable>
rbdock ($Id: //depot/dev/client3/rdock/2013.1/src/exe/rbdock.cxx#4 $)

>  <Rbt.Library>
libRbt.so (2013.1, Build901 2013/11/27)

>  <Rbt.Parameter_File>
/export/apps/rDock/src/rDock_2013.1_src/data/scripts/dock_solv.prm

>  <Rbt.Receptor>
prm/pocket_docking_4.prm

>  <SCORE>
-17.0392

>  <SCORE.INTER>
-17.0392

>  <SCORE.INTER.CONST>
1

>  <SCORE.INTER.POLAR>
0

>  <SCORE.INTER.ROT>
0

>  <SCORE.INTER.SOLV>
3.65698

>  <SCORE.INTER.VDW>
-16.1785

>  <SCORE.INTER.norm>
-1.70392

>  <SCORE.INTRA>
0

>  <SCORE.INTRA.DIHEDRAL>
0

>  <SCORE.INTRA.DIHEDRAL.0>
0

>  <SCORE.INTRA.POLAR>
0

>  <SCORE.INTRA.POLAR.0>
0

>  <SCORE.INTRA.REPUL>
0

>  <SCORE.INTRA.REPUL.0>
0

>  <SCORE.INTRA.SOLV>
0

>  <SCORE.INTRA.SOLV.lig_0>
-4.28901

>  <SCORE.INTRA.VDW>
0

>  <SCORE.INTRA.VDW.0>
0

>  <SCORE.INTRA.norm>
0

>  <SCORE.RESTR>
0

>  <SCORE.RESTR.CAVITY>
0

>  <SCORE.RESTR.norm>
0

>  <SCORE.SYSTEM>
0

>  <SCORE.SYSTEM.CONST>
0

>  <SCORE.SYSTEM.DIHEDRAL>
0

>  <SCORE.SYSTEM.SOLV>
0

>  <SCORE.SYSTEM.norm>
0

>  <SCORE.heavy>
10

>  <SCORE.norm>
-1.70392

>  <RMSD>
0.946

$$$$
ligand
 OpenBabel11021811423D
libRbt.so/2013.1/901 2013/11/27
 10 11  0  0  0  0  0  0  0  0999 V2000
   11.6406   11.6930    8.7686 N   0  0  0  0  0  0  0  0  0  0  0  0
   11.4270   13.0460    8.5795 C   0  0  0  0  0  0  0  0  0  0  0  0
   11.1575   13.5640    7.3734 N   0  0  0  0  0  0  0  0  0  0  0  0
   11.1221   12.6333    6.3846 C   0  0  0  0  0  0  0  0  0  0  0  0
   11.3267   11.2700    6.5016 C   0  0  0  0  0  0  0  0  0  0  0  0
   11.6129   10.7057    7.7785 C   0  0  0  0  0  0  0  0  0  0  0  0
   11.8268    9.5309    8.1103 O   0  0  0  0  0  0  0  0  0  0  0  0
   11.2003   10.7082    5.2610 N   0  0  0  0  0  0  0  0  0  0  0  0
   10.9201   11.7230    4.4056 C   0  0  0  0  0  0  0  0  0  0  0  0
   10.8659   12.9223    5.0678 N   0  0  0  0  0  0  0  0  0  0  0  0
  1  2  1  0  0  0  0
  1  6  1  0  0  0  0
  2  3  2  0  0  0  0
  3  4  1  0  0  0  0
  4  5  2  0  0  0  0
  4 10  1  0  0  0  0
  5  6  1  0  0  0  0
  5  8  1  0  0  0  0
  6  7  2  0  0  0  0
  8  9  1  0  0  0  0
  9 10  2  0  0  0  0
M  END
>  <CHROM.1>
11.31990252,11.73845401,6.84955196,0.36017776,-1.36074232,0.69175245

>  <Name>
ligand

>  <RI>
0

>  <Rbt.Current_Directory>
/home/itssahil/PROJECTS/Mol_Feturizer/New_Systems/rnas/2EEW

>  <Rbt.Executable>
rbdock ($Id: //depot/dev/client3/rdock/2013.1/src/exe/rbdock.cxx#4 $)

>  <Rbt.Library>
libRbt.so (2013.1, Build901 2013/11/27)

>  <Rbt.Parameter_File>
/export/apps/rDock/src/rDock_2013.1_src/data/scripts/dock_solv.prm

>  <Rbt.Receptor>
prm/pocket_docking_6.prm

>  <SCORE>
-17.1189

>  <SCORE.INTER>
-17.1189

>  <SCORE.INTER.CONST>
1

>  <SCORE.INTER.POLAR>
0

>  <SCORE.INTER.ROT>
0

>  <SCORE.INTER.SOLV>
3.64279

>  <SCORE.INTER.VDW>
-16.2269

>  <SCORE.INTER.norm>
-1.71189

>  <SCORE.INTRA>
0

>  <SCORE.INTRA.DIHEDRAL>
0

>  <SCORE.INTRA.DIHEDRAL.0>
0

>  <SCORE.INTRA.POLAR>
0

>  <SCORE.INTRA.POLAR.0>
0

>  <SCORE.INTRA.REPUL>
0

>  <SCORE.INTRA.REPUL.0>
0

>  <SCORE.INTRA.SOLV>
0

>  <SCORE.INTRA.SOLV.lig_0>
-4.28901

>  <SCORE.INTRA.VDW>
0

>  <SCORE.INTRA.VDW.0>
0

>  <SCORE.INTRA.norm>
0

>  <SCORE.RESTR>
0

>  <SCORE.RESTR.CAVITY>
0

>  <SCORE.RESTR.norm>
0

>  <SCORE.SYSTEM>
0

>  <SCORE.SYSTEM.CONST>
0

>  <SCORE.SYSTEM.DIHEDRAL>
0

>  <SCORE.SYSTEM.SOLV>
0

>  <SCORE.SYSTEM.norm>
0

>  <SCORE.heavy>
10

>  <SCORE.norm>
-1.71189

>  <RMSD>
0.947

$$$$
ligand
 OpenBabel11021811423D
libRbt.so/2013.1/901 2013/11/27
 10 11  0  0  0  0  0  0  0  0999 V2000
   11.6352   11.6774    8.7580 N   0  0  0  0  0  0  0  0  0  0  0  0
   11.4181   13.0306    8.5749 C   0  0  0  0  0  0  0  0  0  0  0  0
   11.1483   13.5534    7.3710 N   0  0  0  0  0  0  0  0  0  0  0  0
   11.1162   12.6271    6.3779 C   0  0  0  0  0  0  0  0  0  0  0  0
   11.3243   11.2639    6.4889 C   0  0  0  0  0  0  0  0  0  0  0  0
   11.6110   10.6945    7.7634 C   0  0  0  0  0  0  0  0  0  0  0  0
   11.8276    9.5187    8.0901 O   0  0  0  0  0  0  0  0  0  0  0  0
   11.2004   10.7074    5.2456 N   0  0  0  0  0  0  0  0  0  0  0  0
   10.9182   11.7252    4.3946 C   0  0  0  0  0  0  0  0  0  0  0  0
   10.8603   12.9214    5.0622 N   0  0  0  0  0  0  0  0  0  0  0  0
  1  2  1  0  0  0  0
  1  6  1  0  0  0  0
  2  3  2  0  0  0  0
  3  4  1  0  0  0  0
  4  5  2  0  0  0  0
  4 10  1  0  0  0  0
  5  6  1  0  0  0  0
  5  8  1  0  0  0  0
  6  7  2  0  0  0  0
  8  9  1  0  0  0  0
  9 10  2  0  0  0  0
M  END
>  <CHROM.1>
11.31597524,11.73068580,6.83896100,0.37254007,-1.35967546,0.70837727

>  <Name>
ligand

>  <RI>
0

>  <Rbt.Current_Directory>
/home/itssahil/PROJECTS/Mol_Feturizer/New_Systems/rnas/2EEW

>  <Rbt.Executable>
rbdock ($Id: //depot/dev/client3/rdock/2013.1/src/exe/rbdock.cxx#4 $)

>  <Rbt.Library>
libRbt.so (2013.1, Build901 2013/11/27)

>  <Rbt.Parameter_File>
/export/apps/rDock/src/rDock_2013.1_src/data/scripts/dock_solv.prm

>  <Rbt.Receptor>
prm/pocket_docking_4.prm

>  <SCORE>
-17.1224

>  <SCORE.INTER>
-17.1224

>  <SCORE.INTER.CONST>
1

>  <SCORE.INTER.POLAR>
0

>  <SCORE.INTER.ROT>
0

>  <SCORE.INTER.SOLV>
3.63283

>  <SCORE.INTER.VDW>
-16.2259

>  <SCORE.INTER.norm>
-1.71224

>  <SCORE.INTRA>
0

>  <SCORE.INTRA.DIHEDRAL>
0

>  <SCORE.INTRA.DIHEDRAL.0>
0

>  <SCORE.INTRA.POLAR>
0

>  <SCORE.INTRA.POLAR.0>
0

>  <SCORE.INTRA.REPUL>
0

>  <SCORE.INTRA.REPUL.0>
0

>  <SCORE.INTRA.SOLV>
0

>  <SCORE.INTRA.SOLV.lig_0>
-4.28901

>  <SCORE.INTRA.VDW>
0

>  <SCORE.INTRA.VDW.0>
0

>  <SCORE.INTRA.norm>
0

>  <SCORE.RESTR>
0

>  <SCORE.RESTR.CAVITY>
0

>  <SCORE.RESTR.norm>
0

>  <SCORE.SYSTEM>
0

>  <SCORE.SYSTEM.CONST>
0

>  <SCORE.SYSTEM.DIHEDRAL>
0

>  <SCORE.SYSTEM.SOLV>
0

>  <SCORE.SYSTEM.norm>
0

>  <SCORE.heavy>
10

>  <SCORE.norm>
-1.71224

>  <RMSD>
0.948

$$$$
ligand
 OpenBabel11021811423D
libRbt.so/2013.1/901 2013/11/27
 10 11  0  0  0  0  0  0  0  0999 V2000
   11.6491   11.6874    8.7564 N   0  0  0  0  0  0  0  0  0  0  0  0
   11.4207   13.0386    8.5718 C   0  0  0  0  0  0  0  0  0  0  0  0
   11.1431   13.5572    7.3678 N   0  0  0  0  0  0  0  0  0  0  0  0
   11.1155   12.6291    6.3763 C   0  0  0  0  0  0  0  0  0  0  0  0
   11.3349   11.2677    6.4889 C   0  0  0  0  0  0  0  0  0  0  0  0
   11.6299   10.7027    7.7635 C   0  0  0  0  0  0  0  0  0  0  0  0
   11.8569    9.5293    8.0914 O   0  0  0  0  0  0  0  0  0  0  0  0
   11.2118   10.7082    5.2469 N   0  0  0  0  0  0  0  0  0  0  0  0
   10.9190   11.7224    4.3950 C   0  0  0  0  0  0  0  0  0  0  0  0
   10.8534   12.9192    5.0609 N   0  0  0  0  0  0  0  0  0  0  0  0
  1  2  1  0  0  0  0
  1  6  1  0  0  0  0
  2  3  2  0  0  0  0
  3  4  1  0  0  0  0
  4  5  2  0  0  0  0
  4 10  1  0  0  0  0
  5  6  1  0  0  0  0
  5  8  1  0  0  0  0
  6  7  2  0  0  0  0
  8  9  1  0  0  0  0
  9 10  2  0  0  0  0
M  END
>  <CHROM.1>
11.32387112,11.73502685,6.83819618,0.39173606,-1.35219848,0.72552068

>  <Name>
ligand

>  <RI>
0

>  <Rbt.Current_Directory>
/home/itssahil/PROJECTS/Mol_Feturizer/New_Systems/rnas/2EEW

>  <Rbt.Executable>
rbdock ($Id: //depot/dev/client3/rdock/2013.1/src/exe/rbdock.cxx#4 $)

>  <Rbt.Library>
libRbt.so (2013.1, Build901 2013/11/27)

>  <Rbt.Parameter_File>
/export/apps/rDock/src/rDock_2013.1_src/data/scripts/dock_solv.prm

>  <Rbt.Receptor>
prm/pocket_docking_4.prm

>  <SCORE>
-17.1083

>  <SCORE.INTER>
-17.1083

>  <SCORE.INTER.CONST>
1

>  <SCORE.INTER.POLAR>
0

>  <SCORE.INTER.ROT>
0

>  <SCORE.INTER.SOLV>
3.59963

>  <SCORE.INTER.VDW>
-16.2054

>  <SCORE.INTER.norm>
-1.71083

>  <SCORE.INTRA>
0

>  <SCORE.INTRA.DIHEDRAL>
0

>  <SCORE.INTRA.DIHEDRAL.0>
0

>  <SCORE.INTRA.POLAR>
0

>  <SCORE.INTRA.POLAR.0>
0

>  <SCORE.INTRA.REPUL>
0

>  <SCORE.INTRA.REPUL.0>
0

>  <SCORE.INTRA.SOLV>
0

>  <SCORE.INTRA.SOLV.lig_0>
-4.28901

>  <SCORE.INTRA.VDW>
0

>  <SCORE.INTRA.VDW.0>
0

>  <SCORE.INTRA.norm>
0

>  <SCORE.RESTR>
0

>  <SCORE.RESTR.CAVITY>
0

>  <SCORE.RESTR.norm>
0

>  <SCORE.SYSTEM>
0

>  <SCORE.SYSTEM.CONST>
0

>  <SCORE.SYSTEM.DIHEDRAL>
0

>  <SCORE.SYSTEM.SOLV>
0

>  <SCORE.SYSTEM.norm>
0

>  <SCORE.heavy>
10

>  <SCORE.norm>
-1.71083

>  <RMSD>
0.949

$$$$
ligand
 OpenBabel11021811423D
libRbt.so/2013.1/901 2013/11/27
 10 11  0  0  0  0  0  0  0  0999 V2000
   11.6368   11.6937    8.7649 N   0  0  0  0  0  0  0  0  0  0  0  0
   11.4070   13.0441    8.5770 C   0  0  0  0  0  0  0  0  0  0  0  0
   11.1350   13.5604    7.3708 N   0  0  0  0  0  0  0  0  0  0  0  0
   11.1144   12.6308    6.3806 C   0  0  0  0  0  0  0  0  0  0  0  0
   11.3357   11.2700    6.4964 C   0  0  0  0  0  0  0  0  0  0  0  0
   11.6247   10.7074    7.7734 C   0  0  0  0  0  0  0  0  0  0  0  0
   11.8521    9.5349    8.1043 O   0  0  0  0  0  0  0  0  0  0  0  0
   11.2204   10.7084    5.2546 N   0  0  0  0  0  0  0  0  0  0  0  0
   10.9303   11.7208    4.3996 C   0  0  0  0  0  0  0  0  0  0  0  0
   10.8590   12.9184    5.0633 N   0  0  0  0  0  0  0  0  0  0  0  0
  1  2  1  0  0  0  0
  1  6  1  0  0  0  0
  2  3  2  0  0  0  0
  3  4  1  0  0  0  0
  4  5  2  0  0  0  0
  4 10  1  0  0  0  0
  5  6  1  0  0  0  0
  5  8  1  0  0  0  0
  6  7  2  0  0  0  0
  8  9  1  0  0  0  0
  9 10  2  0  0  0  0
M  END
>  <CHROM.1>
11.32190431,11.73781525,6.84491377,0.41493815,-1.35499652,0.74667209

>  <Name>
ligand

>  <RI>
0

>  <Rbt.Current_Directory>
/home/itssahil/PROJECTS/Mol_Feturizer/New_Systems/rnas/2EEW

>  <Rbt.Executable>
rbdock ($Id: //depot/dev/client3/rdock/2013.1/src/exe/rbdock.cxx#4 $)

>  <Rbt.Library>
libRbt.so (2013.1, Build901 2013/11/27)

>  <Rbt.Parameter_File>
/export/apps/rDock/src/rDock_2013.1_src/data/scripts/dock_solv.prm

>  <Rbt.Receptor>
prm/pocket_docking_5.prm

>  <SCORE>
-17.1045

>  <SCORE.INTER>
-17.1045

>  <SCORE.INTER.CONST>
1

>  <SCORE.INTER.POLAR>
0

>  <SCORE.INTER.ROT>
0

>  <SCORE.INTER.SOLV>
3.60946

>  <SCORE.INTER.VDW>
-16.2062

>  <SCORE.INTER.norm>
-1.71045

>  <SCORE.INTRA>
0

>  <SCORE.INTRA.DIHEDRAL>
0

>  <SCORE.INTRA.DIHEDRAL.0>
0

>  <SCORE.INTRA.POLAR>
0

>  <SCORE.INTRA.POLAR.0>
0

>  <SCORE.INTRA.REPUL>
0

>  <SCORE.INTRA.REPUL.0>
0

>  <SCORE.INTRA.SOLV>
0

>  <SCORE.INTRA.SOLV.lig_0>
-4.28901

>  <SCORE.INTRA.VDW>
0

>  <SCORE.INTRA.VDW.0>
0

>  <SCORE.INTRA.norm>
0

>  <SCORE.RESTR>
0

>  <SCORE.RESTR.CAVITY>
0

>  <SCORE.RESTR.norm>
0

>  <SCORE.SYSTEM>
0

>  <SCORE.SYSTEM.CONST>
0

>  <SCORE.SYSTEM.DIHEDRAL>
0

>  <SCORE.SYSTEM.SOLV>
0

>  <SCORE.SYSTEM.norm>
0

>  <SCORE.heavy>
10

>  <SCORE.norm>
-1.71045

>  <RMSD>
0.949

$$$$
ligand
 OpenBabel11021811423D
libRbt.so/2013.1/901 2013/11/27
 10 11  0  0  0  0  0  0  0  0999 V2000
   11.6573   11.6917    8.7315 N   0  0  0  0  0  0  0  0  0  0  0  0
   11.4286   13.0481    8.5908 C   0  0  0  0  0  0  0  0  0  0  0  0
   11.1443   13.6045    7.4054 N   0  0  0  0  0  0  0  0  0  0  0  0
   11.1105   12.7081    6.3853 C   0  0  0  0  0  0  0  0  0  0  0  0
   11.3297   11.3437    6.4537 C   0  0  0  0  0  0  0  0  0  0  0  0
   11.6317   10.7387    7.7082 C   0  0  0  0  0  0  0  0  0  0  0  0
   11.8600    9.5555    7.9977 O   0  0  0  0  0  0  0  0  0  0  0  0
   11.1992   10.8237    5.1955 N   0  0  0  0  0  0  0  0  0  0  0  0
   10.9020   11.8643    4.3777 C   0  0  0  0  0  0  0  0  0  0  0  0
   10.8410   13.0395    5.0812 N   0  0  0  0  0  0  0  0  0  0  0  0
  1  2  1  0  0  0  0
  1  6  1  0  0  0  0
  2  3  2  0  0  0  0
  3  4  1  0  0  0  0
  4  5  2  0  0  0  0
  4 10  1  0  0  0  0
  5  6  1  0  0  0  0
  5  8  1  0  0  0  0
  6  7  2  0  0  0  0
  8  9  1  0  0  0  0
  9 10  2  0  0  0  0
M  END
>  <CHROM.1>
11.32098510,11.79980577,6.81763881,0.37244620,-1.34821074,0.73817895

>  <Name>
ligand

>  <RI>
0

>  <Rbt.Current_Directory>
/home/itssahil/PROJECTS/Mol_Feturizer/New_Systems/rnas/2EEW

>  <Rbt.Executable>
rbdock ($Id: //depot/dev/client3/rdock/2013.1/src/exe/rbdock.cxx#4 $)

>  <Rbt.Library>
libRbt.so (2013.1, Build901 2013/11/27)

>  <Rbt.Parameter_File>
/export/apps/rDock/src/rDock_2013.1_src/data/scripts/dock_solv.prm

>  <Rbt.Receptor>
prm/blind_docking_80.prm

>  <SCORE>
-17.0556

>  <SCORE.INTER>
-17.0556

>  <SCORE.INTER.CONST>
1

>  <SCORE.INTER.POLAR>
0

>  <SCORE.INTER.ROT>
0

>  <SCORE.INTER.SOLV>
3.53937

>  <SCORE.INTER.VDW>
-16.1502

>  <SCORE.INTER.norm>
-1.70556

>  <SCORE.INTRA>
0

>  <SCORE.INTRA.DIHEDRAL>
0

>  <SCORE.INTRA.DIHEDRAL.0>
0

>  <SCORE.INTRA.POLAR>
0

>  <SCORE.INTRA.POLAR.0>
0

>  <SCORE.INTRA.REPUL>
0

>  <SCORE.INTRA.REPUL.0>
0

>  <SCORE.INTRA.SOLV>
0

>  <SCORE.INTRA.SOLV.lig_0>
-4.28901

>  <SCORE.INTRA.VDW>
0

>  <SCORE.INTRA.VDW.0>
0

>  <SCORE.INTRA.norm>
0

>  <SCORE.RESTR>
0

>  <SCORE.RESTR.CAVITY>
0

>  <SCORE.RESTR.norm>
0

>  <SCORE.SYSTEM>
0

>  <SCORE.SYSTEM.CONST>
0

>  <SCORE.SYSTEM.DIHEDRAL>
0

>  <SCORE.SYSTEM.SOLV>
0

>  <SCORE.SYSTEM.norm>
0

>  <SCORE.heavy>
10

>  <SCORE.norm>
-1.70556

>  <RMSD>
0.952

$$$$
ligand
 OpenBabel11021811423D
libRbt.so/2013.1/901 2013/11/27
 10 11  0  0  0  0  0  0  0  0999 V2000
   11.6523   11.6799    8.7458 N   0  0  0  0  0  0  0  0  0  0  0  0
   11.4357   13.0338    8.5669 C   0  0  0  0  0  0  0  0  0  0  0  0
   11.1523   13.5585    7.3669 N   0  0  0  0  0  0  0  0  0  0  0  0
   11.1065   12.6335    6.3732 C   0  0  0  0  0  0  0  0  0  0  0  0
   11.3134   11.2697    6.4802 C   0  0  0  0  0  0  0  0  0  0  0  0
   11.6142   10.6982    7.7505 C   0  0  0  0  0  0  0  0  0  0  0  0
   11.8326    9.5217    8.0732 O   0  0  0  0  0  0  0  0  0  0  0  0
   11.1735   10.7149    5.2378 N   0  0  0  0  0  0  0  0  0  0  0  0
   10.8831   11.7343    4.3914 C   0  0  0  0  0  0  0  0  0  0  0  0
   10.8354   12.9297    5.0611 N   0  0  0  0  0  0  0  0  0  0  0  0
  1  2  1  0  0  0  0
  1  6  1  0  0  0  0
  2  3  2  0  0  0  0
  3  4  1  0  0  0  0
  4  5  2  0  0  0  0
  4 10  1  0  0  0  0
  5  6  1  0  0  0  0
  5  8  1  0  0  0  0
  6  7  2  0  0  0  0
  8  9  1  0  0  0  0
  9 10  2  0  0  0  0
M  END
>  <CHROM.1>
11.31015856,11.73609176,6.83081396,0.32992186,-1.35160325,0.66791264

>  <Name>
ligand

>  <RI>
0

>  <Rbt.Current_Directory>
/home/itssahil/PROJECTS/Mol_Feturizer/New_Systems/rnas/2EEW

>  <Rbt.Executable>
rbdock ($Id: //depot/dev/client3/rdock/2013.1/src/exe/rbdock.cxx#4 $)

>  <Rbt.Library>
libRbt.so (2013.1, Build901 2013/11/27)

>  <Rbt.Parameter_File>
/export/apps/rDock/src/rDock_2013.1_src/data/scripts/dock_solv.prm

>  <Rbt.Receptor>
prm/blind_docking_80.prm

>  <SCORE>
-17.1021

>  <SCORE.INTER>
-17.1021

>  <SCORE.INTER.CONST>
1

>  <SCORE.INTER.POLAR>
0

>  <SCORE.INTER.ROT>
0

>  <SCORE.INTER.SOLV>
3.60864

>  <SCORE.INTER.VDW>
-16.2043

>  <SCORE.INTER.norm>
-1.71021

>  <SCORE.INTRA>
0

>  <SCORE.INTRA.DIHEDRAL>
0

>  <SCORE.INTRA.DIHEDRAL.0>
0

>  <SCORE.INTRA.POLAR>
0

>  <SCORE.INTRA.POLAR.0>
0

>  <SCORE.INTRA.REPUL>
0

>  <SCORE.INTRA.REPUL.0>
0

>  <SCORE.INTRA.SOLV>
0

>  <SCORE.INTRA.SOLV.lig_0>
-4.28901

>  <SCORE.INTRA.VDW>
0

>  <SCORE.INTRA.VDW.0>
0

>  <SCORE.INTRA.norm>
0

>  <SCORE.RESTR>
0

>  <SCORE.RESTR.CAVITY>
0

>  <SCORE.RESTR.norm>
0

>  <SCORE.SYSTEM>
0

>  <SCORE.SYSTEM.CONST>
0

>  <SCORE.SYSTEM.DIHEDRAL>
0

>  <SCORE.SYSTEM.SOLV>
0

>  <SCORE.SYSTEM.norm>
0

>  <SCORE.heavy>
10

>  <SCORE.norm>
-1.71021

>  <RMSD>
0.952

$$$$
ligand
 OpenBabel11021811423D
libRbt.so/2013.1/901 2013/11/27
 10 11  0  0  0  0  0  0  0  0999 V2000
   11.6555   11.7293    8.7711 N   0  0  0  0  0  0  0  0  0  0  0  0
   11.4283   13.0791    8.5756 C   0  0  0  0  0  0  0  0  0  0  0  0
   11.1459   13.5875    7.3684 N   0  0  0  0  0  0  0  0  0  0  0  0
   11.1123   12.6507    6.3853 C   0  0  0  0  0  0  0  0  0  0  0  0
   11.3302   11.2900    6.5089 C   0  0  0  0  0  0  0  0  0  0  0  0
   11.6302   10.7359    7.7870 C   0  0  0  0  0  0  0  0  0  0  0  0
   11.8570    9.5650    8.1243 O   0  0  0  0  0  0  0  0  0  0  0  0
   11.2006   10.7198    5.2724 N   0  0  0  0  0  0  0  0  0  0  0  0
   10.9053   11.7268    4.4130 C   0  0  0  0  0  0  0  0  0  0  0  0
   10.8446   12.9295    5.0686 N   0  0  0  0  0  0  0  0  0  0  0  0
  1  2  1  0  0  0  0
  1  6  1  0  0  0  0
  2  3  2  0  0  0  0
  3  4  1  0  0  0  0
  4  5  2  0  0  0  0
  4 10  1  0  0  0  0
  5  6  1  0  0  0  0
  5  8  1  0  0  0  0
  6  7  2  0  0  0  0
  8  9  1  0  0  0  0
  9 10  2  0  0  0  0
M  END
>  <CHROM.1>
11.32146613,11.76042674,6.85408481,0.37266932,-1.34967398,0.69806612

>  <Name>
ligand

>  <RI>
0

>  <Rbt.Current_Directory>
/home/itssahil/PROJECTS/Mol_Feturizer/New_Systems/rnas/2EEW

>  <Rbt.Executable>
rbdock ($Id: //depot/dev/client3/rdock/2013.1/src/exe/rbdock.cxx#4 $)

>  <Rbt.Library>
libRbt.so (2013.1, Build901 2013/11/27)

>  <Rbt.Parameter_File>
/export/apps/rDock/src/rDock_2013.1_src/data/scripts/dock_solv.prm

>  <Rbt.Receptor>
prm/pocket_docking_8.prm

>  <SCORE>
-17.0806

>  <SCORE.INTER>
-17.0806

>  <SCORE.INTER.CONST>
1

>  <SCORE.INTER.POLAR>
0

>  <SCORE.INTER.ROT>
0

>  <SCORE.INTER.SOLV>
3.60003

>  <SCORE.INTER.VDW>
-16.1871

>  <SCORE.INTER.norm>
-1.70806

>  <SCORE.INTRA>
0

>  <SCORE.INTRA.DIHEDRAL>
0

>  <SCORE.INTRA.DIHEDRAL.0>
0

>  <SCORE.INTRA.POLAR>
0

>  <SCORE.INTRA.POLAR.0>
0

>  <SCORE.INTRA.REPUL>
0

>  <SCORE.INTRA.REPUL.0>
0

>  <SCORE.INTRA.SOLV>
0

>  <SCORE.INTRA.SOLV.lig_0>
-4.28901

>  <SCORE.INTRA.VDW>
0

>  <SCORE.INTRA.VDW.0>
0

>  <SCORE.INTRA.norm>
0

>  <SCORE.RESTR>
0

>  <SCORE.RESTR.CAVITY>
0

>  <SCORE.RESTR.norm>
0

>  <SCORE.SYSTEM>
0

>  <SCORE.SYSTEM.CONST>
0

>  <SCORE.SYSTEM.DIHEDRAL>
0

>  <SCORE.SYSTEM.SOLV>
0

>  <SCORE.SYSTEM.norm>
0

>  <SCORE.heavy>
10

>  <SCORE.norm>
-1.70806

>  <RMSD>
0.953

$$$$
ligand
 OpenBabel11021811423D
libRbt.so/2013.1/901 2013/11/27
 10 11  0  0  0  0  0  0  0  0999 V2000
   11.6371   11.6820    8.7495 N   0  0  0  0  0  0  0  0  0  0  0  0
   11.4019   13.0323    8.5669 C   0  0  0  0  0  0  0  0  0  0  0  0
   11.1243   13.5517    7.3633 N   0  0  0  0  0  0  0  0  0  0  0  0
   11.1038   12.6254    6.3700 C   0  0  0  0  0  0  0  0  0  0  0  0
   11.3301   11.2650    6.4805 C   0  0  0  0  0  0  0  0  0  0  0  0
   11.6252   10.6991    7.7546 C   0  0  0  0  0  0  0  0  0  0  0  0
   11.8578    9.5263    8.0808 O   0  0  0  0  0  0  0  0  0  0  0  0
   11.2128   10.7072    5.2371 N   0  0  0  0  0  0  0  0  0  0  0  0
   10.9165   11.7215    4.3865 C   0  0  0  0  0  0  0  0  0  0  0  0
   10.8431   12.9166    5.0545 N   0  0  0  0  0  0  0  0  0  0  0  0
  1  2  1  0  0  0  0
  1  6  1  0  0  0  0
  2  3  2  0  0  0  0
  3  4  1  0  0  0  0
  4  5  2  0  0  0  0
  4 10  1  0  0  0  0
  5  6  1  0  0  0  0
  5  8  1  0  0  0  0
  6  7  2  0  0  0  0
  8  9  1  0  0  0  0
  9 10  2  0  0  0  0
M  END
>  <CHROM.1>
11.31583620,11.73155442,6.83063038,0.41661856,-1.35027781,0.75171385

>  <Name>
ligand

>  <RI>
0

>  <Rbt.Current_Directory>
/home/itssahil/PROJECTS/Mol_Feturizer/New_Systems/rnas/2EEW

>  <Rbt.Executable>
rbdock ($Id: //depot/dev/client3/rdock/2013.1/src/exe/rbdock.cxx#4 $)

>  <Rbt.Library>
libRbt.so (2013.1, Build901 2013/11/27)

>  <Rbt.Parameter_File>
/export/apps/rDock/src/rDock_2013.1_src/data/scripts/dock_solv.prm

>  <Rbt.Receptor>
prm/pocket_docking_3.prm

>  <SCORE>
-17.1049

>  <SCORE.INTER>
-17.1049

>  <SCORE.INTER.CONST>
1

>  <SCORE.INTER.POLAR>
0

>  <SCORE.INTER.ROT>
0

>  <SCORE.INTER.SOLV>
3.58829

>  <SCORE.INTER.VDW>
-16.1994

>  <SCORE.INTER.norm>
-1.71049

>  <SCORE.INTRA>
0

>  <SCORE.INTRA.DIHEDRAL>
0

>  <SCORE.INTRA.DIHEDRAL.0>
0

>  <SCORE.INTRA.POLAR>
0

>  <SCORE.INTRA.POLAR.0>
0

>  <SCORE.INTRA.REPUL>
0

>  <SCORE.INTRA.REPUL.0>
0

>  <SCORE.INTRA.SOLV>
0

>  <SCORE.INTRA.SOLV.lig_0>
-4.28901

>  <SCORE.INTRA.VDW>
0

>  <SCORE.INTRA.VDW.0>
0

>  <SCORE.INTRA.norm>
0

>  <SCORE.RESTR>
0

>  <SCORE.RESTR.CAVITY>
0

>  <SCORE.RESTR.norm>
0

>  <SCORE.SYSTEM>
0

>  <SCORE.SYSTEM.CONST>
0

>  <SCORE.SYSTEM.DIHEDRAL>
0

>  <SCORE.SYSTEM.SOLV>
0

>  <SCORE.SYSTEM.norm>
0

>  <SCORE.heavy>
10

>  <SCORE.norm>
-1.71049

>  <RMSD>
0.954

$$$$
ligand
 OpenBabel11021811423D
libRbt.so/2013.1/901 2013/11/27
 10 11  0  0  0  0  0  0  0  0999 V2000
   11.6450   11.6783    8.7291 N   0  0  0  0  0  0  0  0  0  0  0  0
   11.4173   13.0335    8.5753 C   0  0  0  0  0  0  0  0  0  0  0  0
   11.1308   13.5782    7.3850 N   0  0  0  0  0  0  0  0  0  0  0  0
   11.0936   12.6716    6.3741 C   0  0  0  0  0  0  0  0  0  0  0  0
   11.3117   11.3078    6.4558 C   0  0  0  0  0  0  0  0  0  0  0  0
   11.6160   10.7152    7.7155 C   0  0  0  0  0  0  0  0  0  0  0  0
   11.8438    9.5347    8.0164 O   0  0  0  0  0  0  0  0  0  0  0  0
   11.1776   10.7752    5.2031 N   0  0  0  0  0  0  0  0  0  0  0  0
   10.8795   11.8078    4.3756 C   0  0  0  0  0  0  0  0  0  0  0  0
   10.8213   12.9901    5.0674 N   0  0  0  0  0  0  0  0  0  0  0  0
  1  2  1  0  0  0  0
  1  6  1  0  0  0  0
  2  3  2  0  0  0  0
  3  4  1  0  0  0  0
  4  5  2  0  0  0  0
  4 10  1  0  0  0  0
  5  6  1  0  0  0  0
  5  8  1  0  0  0  0
  6  7  2  0  0  0  0
  8  9  1  0  0  0  0
  9 10  2  0  0  0  0
M  END
>  <CHROM.1>
11.30421902,11.76752886,6.81507512,0.36192549,-1.34711071,0.71784662

>  <Name>
ligand

>  <RI>
0

>  <Rbt.Current_Directory>
/home/itssahil/PROJECTS/Mol_Feturizer/New_Systems/rnas/2EEW

>  <Rbt.Executable>
rbdock ($Id: //depot/dev/client3/rdock/2013.1/src/exe/rbdock.cxx#4 $)

>  <Rbt.Library>
libRbt.so (2013.1, Build901 2013/11/27)

>  <Rbt.Parameter_File>
/export/apps/rDock/src/rDock_2013.1_src/data/scripts/dock_solv.prm

>  <Rbt.Receptor>
prm/pocket_docking_5.prm

>  <SCORE>
-17.063

>  <SCORE.INTER>
-17.063

>  <SCORE.INTER.CONST>
1

>  <SCORE.INTER.POLAR>
0

>  <SCORE.INTER.ROT>
0

>  <SCORE.INTER.SOLV>
3.5583

>  <SCORE.INTER.VDW>
-16.1615

>  <SCORE.INTER.norm>
-1.7063

>  <SCORE.INTRA>
0

>  <SCORE.INTRA.DIHEDRAL>
0

>  <SCORE.INTRA.DIHEDRAL.0>
0

>  <SCORE.INTRA.POLAR>
0

>  <SCORE.INTRA.POLAR.0>
0

>  <SCORE.INTRA.REPUL>
0

>  <SCORE.INTRA.REPUL.0>
0

>  <SCORE.INTRA.SOLV>
0

>  <SCORE.INTRA.SOLV.lig_0>
-4.28901

>  <SCORE.INTRA.VDW>
0

>  <SCORE.INTRA.VDW.0>
0

>  <SCORE.INTRA.norm>
0

>  <SCORE.RESTR>
0

>  <SCORE.RESTR.CAVITY>
0

>  <SCORE.RESTR.norm>
0

>  <SCORE.SYSTEM>
0

>  <SCORE.SYSTEM.CONST>
0

>  <SCORE.SYSTEM.DIHEDRAL>
0

>  <SCORE.SYSTEM.SOLV>
0

>  <SCORE.SYSTEM.norm>
0

>  <SCORE.heavy>
10

>  <SCORE.norm>
-1.7063

>  <RMSD>
0.956

$$$$
ligand
 OpenBabel11021811423D
libRbt.so/2013.1/901 2013/11/27
 10 11  0  0  0  0  0  0  0  0999 V2000
   11.6125   11.6976    8.7662 N   0  0  0  0  0  0  0  0  0  0  0  0
   11.3931   13.0493    8.5748 C   0  0  0  0  0  0  0  0  0  0  0  0
   11.1289   13.5651    7.3666 N   0  0  0  0  0  0  0  0  0  0  0  0
   11.1049   12.6336    6.3782 C   0  0  0  0  0  0  0  0  0  0  0  0
   11.3158   11.2715    6.4975 C   0  0  0  0  0  0  0  0  0  0  0  0
   11.5965   10.7094    7.7766 C   0  0  0  0  0  0  0  0  0  0  0  0
   11.8142    9.5360    8.1107 O   0  0  0  0  0  0  0  0  0  0  0  0
   11.2005   10.7082    5.2565 N   0  0  0  0  0  0  0  0  0  0  0  0
   10.9207   11.7209    4.3985 C   0  0  0  0  0  0  0  0  0  0  0  0
   10.8559   12.9203    5.0595 N   0  0  0  0  0  0  0  0  0  0  0  0
  1  2  1  0  0  0  0
  1  6  1  0  0  0  0
  2  3  2  0  0  0  0
  3  4  1  0  0  0  0
  4  5  2  0  0  0  0
  4 10  1  0  0  0  0
  5  6  1  0  0  0  0
  5  8  1  0  0  0  0
  6  7  2  0  0  0  0
  8  9  1  0  0  0  0
  9 10  2  0  0  0  0
M  END
>  <CHROM.1>
11.30426713,11.74006950,6.84508201,0.39994667,-1.36236578,0.72996714

>  <Name>
ligand

>  <RI>
0

>  <Rbt.Current_Directory>
/home/itssahil/PROJECTS/Mol_Feturizer/New_Systems/rnas/2EEW

>  <Rbt.Executable>
rbdock ($Id: //depot/dev/client3/rdock/2013.1/src/exe/rbdock.cxx#4 $)

>  <Rbt.Library>
libRbt.so (2013.1, Build901 2013/11/27)

>  <Rbt.Parameter_File>
/export/apps/rDock/src/rDock_2013.1_src/data/scripts/dock_solv.prm

>  <Rbt.Receptor>
prm/pocket_docking_3.prm

>  <SCORE>
-17.0919

>  <SCORE.INTER>
-17.0919

>  <SCORE.INTER.CONST>
1

>  <SCORE.INTER.POLAR>
0

>  <SCORE.INTER.ROT>
0

>  <SCORE.INTER.SOLV>
3.64463

>  <SCORE.INTER.VDW>
-16.2095

>  <SCORE.INTER.norm>
-1.70919

>  <SCORE.INTRA>
0

>  <SCORE.INTRA.DIHEDRAL>
0

>  <SCORE.INTRA.DIHEDRAL.0>
0

>  <SCORE.INTRA.POLAR>
0

>  <SCORE.INTRA.POLAR.0>
0

>  <SCORE.INTRA.REPUL>
0

>  <SCORE.INTRA.REPUL.0>
0

>  <SCORE.INTRA.SOLV>
0

>  <SCORE.INTRA.SOLV.lig_0>
-4.28901

>  <SCORE.INTRA.VDW>
0

>  <SCORE.INTRA.VDW.0>
0

>  <SCORE.INTRA.norm>
0

>  <SCORE.RESTR>
0

>  <SCORE.RESTR.CAVITY>
0

>  <SCORE.RESTR.norm>
0

>  <SCORE.SYSTEM>
0

>  <SCORE.SYSTEM.CONST>
0

>  <SCORE.SYSTEM.DIHEDRAL>
0

>  <SCORE.SYSTEM.SOLV>
0

>  <SCORE.SYSTEM.norm>
0

>  <SCORE.heavy>
10

>  <SCORE.norm>
-1.70919

>  <RMSD>
0.957

$$$$
ligand
 OpenBabel11021811423D
libRbt.so/2013.1/901 2013/11/27
 10 11  0  0  0  0  0  0  0  0999 V2000
   11.6947   11.6743    8.6936 N   0  0  0  0  0  0  0  0  0  0  0  0
   11.4411   13.0280    8.5705 C   0  0  0  0  0  0  0  0  0  0  0  0
   11.1312   13.5917    7.3950 N   0  0  0  0  0  0  0  0  0  0  0  0
   11.0987   12.7056    6.3660 C   0  0  0  0  0  0  0  0  0  0  0  0
   11.3420   11.3446    6.4169 C   0  0  0  0  0  0  0  0  0  0  0  0
   11.6713   10.7318    7.6606 C   0  0  0  0  0  0  0  0  0  0  0  0
   11.9236    9.5497    7.9344 O   0  0  0  0  0  0  0  0  0  0  0  0
   11.2031   10.8355    5.1550 N   0  0  0  0  0  0  0  0  0  0  0  0
   10.8771   11.8793    4.3525 C   0  0  0  0  0  0  0  0  0  0  0  0
   10.8058   13.0459    5.0693 N   0  0  0  0  0  0  0  0  0  0  0  0
  1  2  1  0  0  0  0
  1  6  1  0  0  0  0
  2  3  2  0  0  0  0
  3  4  1  0  0  0  0
  4  5  2  0  0  0  0
  4 10  1  0  0  0  0
  5  6  1  0  0  0  0
  5  8  1  0  0  0  0
  6  7  2  0  0  0  0
  8  9  1  0  0  0  0
  9 10  2  0  0  0  0
M  END
>  <CHROM.1>
11.33045614,11.79659151,6.78573074,0.38637585,-1.32664741,0.76227684

>  <Name>
ligand

>  <RI>
0

>  <Rbt.Current_Directory>
/home/itssahil/PROJECTS/Mol_Feturizer/New_Systems/rnas/2EEW

>  <Rbt.Executable>
rbdock ($Id: //depot/dev/client3/rdock/2013.1/src/exe/rbdock.cxx#4 $)

>  <Rbt.Library>
libRbt.so (2013.1, Build901 2013/11/27)

>  <Rbt.Parameter_File>
/export/apps/rDock/src/rDock_2013.1_src/data/scripts/dock_solv.prm

>  <Rbt.Receptor>
prm/pocket_docking_7.prm

>  <SCORE>
-17.0939

>  <SCORE.INTER>
-17.0939

>  <SCORE.INTER.CONST>
1

>  <SCORE.INTER.POLAR>
0

>  <SCORE.INTER.ROT>
0

>  <SCORE.INTER.SOLV>
3.43366

>  <SCORE.INTER.VDW>
-16.1405

>  <SCORE.INTER.norm>
-1.70939

>  <SCORE.INTRA>
0

>  <SCORE.INTRA.DIHEDRAL>
0

>  <SCORE.INTRA.DIHEDRAL.0>
0

>  <SCORE.INTRA.POLAR>
0

>  <SCORE.INTRA.POLAR.0>
0

>  <SCORE.INTRA.REPUL>
0

>  <SCORE.INTRA.REPUL.0>
0

>  <SCORE.INTRA.SOLV>
0

>  <SCORE.INTRA.SOLV.lig_0>
-4.28901

>  <SCORE.INTRA.VDW>
0

>  <SCORE.INTRA.VDW.0>
0

>  <SCORE.INTRA.norm>
0

>  <SCORE.RESTR>
0

>  <SCORE.RESTR.CAVITY>
0

>  <SCORE.RESTR.norm>
0

>  <SCORE.SYSTEM>
0

>  <SCORE.SYSTEM.CONST>
0

>  <SCORE.SYSTEM.DIHEDRAL>
0

>  <SCORE.SYSTEM.SOLV>
0

>  <SCORE.SYSTEM.norm>
0

>  <SCORE.heavy>
10

>  <SCORE.norm>
-1.70939

>  <RMSD>
0.958

$$$$
ligand
 OpenBabel11021811423D
libRbt.so/2013.1/901 2013/11/27
 10 11  0  0  0  0  0  0  0  0999 V2000
   11.6947   11.6761    8.6942 N   0  0  0  0  0  0  0  0  0  0  0  0
   11.4458   13.0307    8.5718 C   0  0  0  0  0  0  0  0  0  0  0  0
   11.1391   13.5964    7.3964 N   0  0  0  0  0  0  0  0  0  0  0  0
   11.1045   12.7110    6.3668 C   0  0  0  0  0  0  0  0  0  0  0  0
   11.3432   11.3491    6.4170 C   0  0  0  0  0  0  0  0  0  0  0  0
   11.6692   10.7344    7.6606 C   0  0  0  0  0  0  0  0  0  0  0  0
   11.9172    9.5513    7.9338 O   0  0  0  0  0  0  0  0  0  0  0  0
   11.2038   10.8414    5.1546 N   0  0  0  0  0  0  0  0  0  0  0  0
   10.8822   11.8869    4.3524 C   0  0  0  0  0  0  0  0  0  0  0  0
   10.8141   13.0532    5.0700 N   0  0  0  0  0  0  0  0  0  0  0  0
  1  2  1  0  0  0  0
  1  6  1  0  0  0  0
  2  3  2  0  0  0  0
  3  4  1  0  0  0  0
  4  5  2  0  0  0  0
  4 10  1  0  0  0  0
  5  6  1  0  0  0  0
  5  8  1  0  0  0  0
  6  7  2  0  0  0  0
  8  9  1  0  0  0  0
  9 10  2  0  0  0  0
M  END
>  <CHROM.1>
11.33280886,11.80096478,6.78609844,0.37903785,-1.32970419,0.75583522

>  <Name>
ligand

>  <RI>
0

>  <Rbt.Current_Directory>
/home/itssahil/PROJECTS/Mol_Feturizer/New_Systems/rnas/2EEW

>  <Rbt.Executable>
rbdock ($Id: //depot/dev/client3/rdock/2013.1/src/exe/rbdock.cxx#4 $)

>  <Rbt.Library>
libRbt.so (2013.1, Build901 2013/11/27)

>  <Rbt.Parameter_File>
/export/apps/rDock/src/rDock_2013.1_src/data/scripts/dock_solv.prm

>  <Rbt.Receptor>
prm/pocket_docking_8.prm

>  <SCORE>
-17.0991

>  <SCORE.INTER>
-17.0991

>  <SCORE.INTER.CONST>
1

>  <SCORE.INTER.POLAR>
0

>  <SCORE.INTER.ROT>
0

>  <SCORE.INTER.SOLV>
3.4434

>  <SCORE.INTER.VDW>
-16.1472

>  <SCORE.INTER.norm>
-1.70991

>  <SCORE.INTRA>
0

>  <SCORE.INTRA.DIHEDRAL>
0

>  <SCORE.INTRA.DIHEDRAL.0>
0

>  <SCORE.INTRA.POLAR>
0

>  <SCORE.INTRA.POLAR.0>
0

>  <SCORE.INTRA.REPUL>
0

>  <SCORE.INTRA.REPUL.0>
0

>  <SCORE.INTRA.SOLV>
0

>  <SCORE.INTRA.SOLV.lig_0>
-4.28901

>  <SCORE.INTRA.VDW>
0

>  <SCORE.INTRA.VDW.0>
0

>  <SCORE.INTRA.norm>
0

>  <SCORE.RESTR>
0

>  <SCORE.RESTR.CAVITY>
0

>  <SCORE.RESTR.norm>
0

>  <SCORE.SYSTEM>
0

>  <SCORE.SYSTEM.CONST>
0

>  <SCORE.SYSTEM.DIHEDRAL>
0

>  <SCORE.SYSTEM.SOLV>
0

>  <SCORE.SYSTEM.norm>
0

>  <SCORE.heavy>
10

>  <SCORE.norm>
-1.70991

>  <RMSD>
0.958

$$$$
ligand
 OpenBabel11021811423D
libRbt.so/2013.1/901 2013/11/27
 10 11  0  0  0  0  0  0  0  0999 V2000
   11.6214   11.6840    8.7508 N   0  0  0  0  0  0  0  0  0  0  0  0
   11.4039   13.0372    8.5680 C   0  0  0  0  0  0  0  0  0  0  0  0
   11.1336   13.5601    7.3643 N   0  0  0  0  0  0  0  0  0  0  0  0
   11.1015   12.6341    6.3710 C   0  0  0  0  0  0  0  0  0  0  0  0
   11.3101   11.2708    6.4817 C   0  0  0  0  0  0  0  0  0  0  0  0
   11.5972   10.7012    7.7560 C   0  0  0  0  0  0  0  0  0  0  0  0
   11.8143    9.5255    8.0824 O   0  0  0  0  0  0  0  0  0  0  0  0
   11.1861   10.7146    5.2383 N   0  0  0  0  0  0  0  0  0  0  0  0
   10.9034   11.7325    4.3875 C   0  0  0  0  0  0  0  0  0  0  0  0
   10.8453   12.9285    5.0554 N   0  0  0  0  0  0  0  0  0  0  0  0
  1  2  1  0  0  0  0
  1  6  1  0  0  0  0
  2  3  2  0  0  0  0
  3  4  1  0  0  0  0
  4  5  2  0  0  0  0
  4 10  1  0  0  0  0
  5  6  1  0  0  0  0
  5  8  1  0  0  0  0
  6  7  2  0  0  0  0
  8  9  1  0  0  0  0
  9 10  2  0  0  0  0
M  END
>  <CHROM.1>
11.30172985,11.73757663,6.83182205,0.37290889,-1.35930667,0.70894597

>  <Name>
ligand

>  <RI>
0

>  <Rbt.Current_Directory>
/home/itssahil/PROJECTS/Mol_Feturizer/New_Systems/rnas/2EEW

>  <Rbt.Executable>
rbdock ($Id: //depot/dev/client3/rdock/2013.1/src/exe/rbdock.cxx#4 $)

>  <Rbt.Library>
libRbt.so (2013.1, Build901 2013/11/27)

>  <Rbt.Parameter_File>
/export/apps/rDock/src/rDock_2013.1_src/data/scripts/dock_solv.prm

>  <Rbt.Receptor>
prm/pocket_docking_5.prm

>  <SCORE>
-17.1125

>  <SCORE.INTER>
-17.1125

>  <SCORE.INTER.CONST>
1

>  <SCORE.INTER.POLAR>
0

>  <SCORE.INTER.ROT>
0

>  <SCORE.INTER.SOLV>
3.63059

>  <SCORE.INTER.VDW>
-16.2185

>  <SCORE.INTER.norm>
-1.71125

>  <SCORE.INTRA>
0

>  <SCORE.INTRA.DIHEDRAL>
0

>  <SCORE.INTRA.DIHEDRAL.0>
0

>  <SCORE.INTRA.POLAR>
0

>  <SCORE.INTRA.POLAR.0>
0

>  <SCORE.INTRA.REPUL>
0

>  <SCORE.INTRA.REPUL.0>
0

>  <SCORE.INTRA.SOLV>
0

>  <SCORE.INTRA.SOLV.lig_0>
-4.28901

>  <SCORE.INTRA.VDW>
0

>  <SCORE.INTRA.VDW.0>
0

>  <SCORE.INTRA.norm>
0

>  <SCORE.RESTR>
0

>  <SCORE.RESTR.CAVITY>
0

>  <SCORE.RESTR.norm>
0

>  <SCORE.SYSTEM>
0

>  <SCORE.SYSTEM.CONST>
0

>  <SCORE.SYSTEM.DIHEDRAL>
0

>  <SCORE.SYSTEM.SOLV>
0

>  <SCORE.SYSTEM.norm>
0

>  <SCORE.heavy>
10

>  <SCORE.norm>
-1.71125

>  <RMSD>
0.959

$$$$
ligand
 OpenBabel11021811423D
libRbt.so/2013.1/901 2013/11/27
 10 11  0  0  0  0  0  0  0  0999 V2000
   11.6418   11.6769    8.7335 N   0  0  0  0  0  0  0  0  0  0  0  0
   11.4012   13.0275    8.5607 C   0  0  0  0  0  0  0  0  0  0  0  0
   11.1129   13.5532    7.3623 N   0  0  0  0  0  0  0  0  0  0  0  0
   11.0877   12.6326    6.3638 C   0  0  0  0  0  0  0  0  0  0  0  0
   11.3189   11.2723    6.4645 C   0  0  0  0  0  0  0  0  0  0  0  0
   11.6254   10.6998    7.7330 C   0  0  0  0  0  0  0  0  0  0  0  0
   11.8639    9.5258    8.0505 O   0  0  0  0  0  0  0  0  0  0  0  0
   11.1939   10.7215    5.2188 N   0  0  0  0  0  0  0  0  0  0  0  0
   10.8880   11.7398    4.3765 C   0  0  0  0  0  0  0  0  0  0  0  0
   10.8161   12.9308    5.0521 N   0  0  0  0  0  0  0  0  0  0  0  0
  1  2  1  0  0  0  0
  1  6  1  0  0  0  0
  2  3  2  0  0  0  0
  3  4  1  0  0  0  0
  4  5  2  0  0  0  0
  4 10  1  0  0  0  0
  5  6  1  0  0  0  0
  5  8  1  0  0  0  0
  6  7  2  0  0  0  0
  8  9  1  0  0  0  0
  9 10  2  0  0  0  0
M  END
>  <CHROM.1>
11.30587401,11.73675384,6.81751745,0.40348044,-1.34267591,0.74480058

>  <Name>
ligand

>  <RI>
0

>  <Rbt.Current_Directory>
/home/itssahil/PROJECTS/Mol_Feturizer/New_Systems/rnas/2EEW

>  <Rbt.Executable>
rbdock ($Id: //depot/dev/client3/rdock/2013.1/src/exe/rbdock.cxx#4 $)

>  <Rbt.Library>
libRbt.so (2013.1, Build901 2013/11/27)

>  <Rbt.Parameter_File>
/export/apps/rDock/src/rDock_2013.1_src/data/scripts/dock_solv.prm

>  <Rbt.Receptor>
prm/pocket_docking_6.prm

>  <SCORE>
-17.1033

>  <SCORE.INTER>
-17.1033

>  <SCORE.INTER.CONST>
1

>  <SCORE.INTER.POLAR>
0

>  <SCORE.INTER.ROT>
0

>  <SCORE.INTER.SOLV>
3.55547

>  <SCORE.INTER.VDW>
-16.1874

>  <SCORE.INTER.norm>
-1.71033

>  <SCORE.INTRA>
0

>  <SCORE.INTRA.DIHEDRAL>
0

>  <SCORE.INTRA.DIHEDRAL.0>
0

>  <SCORE.INTRA.POLAR>
0

>  <SCORE.INTRA.POLAR.0>
0

>  <SCORE.INTRA.REPUL>
0

>  <SCORE.INTRA.REPUL.0>
0

>  <SCORE.INTRA.SOLV>
0

>  <SCORE.INTRA.SOLV.lig_0>
-4.28901

>  <SCORE.INTRA.VDW>
0

>  <SCORE.INTRA.VDW.0>
0

>  <SCORE.INTRA.norm>
0

>  <SCORE.RESTR>
0

>  <SCORE.RESTR.CAVITY>
0

>  <SCORE.RESTR.norm>
0

>  <SCORE.SYSTEM>
0

>  <SCORE.SYSTEM.CONST>
0

>  <SCORE.SYSTEM.DIHEDRAL>
0

>  <SCORE.SYSTEM.SOLV>
0

>  <SCORE.SYSTEM.norm>
0

>  <SCORE.heavy>
10

>  <SCORE.norm>
-1.71033

>  <RMSD>
0.959

$$$$
ligand
 OpenBabel11021811423D
libRbt.so/2013.1/901 2013/11/27
 10 11  0  0  0  0  0  0  0  0999 V2000
   11.6277   11.6820    8.7407 N   0  0  0  0  0  0  0  0  0  0  0  0
   11.3863   13.0318    8.5631 C   0  0  0  0  0  0  0  0  0  0  0  0
   11.1057   13.5544    7.3615 N   0  0  0  0  0  0  0  0  0  0  0  0
   11.0889   12.6316    6.3649 C   0  0  0  0  0  0  0  0  0  0  0  0
   11.3215   11.2718    6.4703 C   0  0  0  0  0  0  0  0  0  0  0  0
   11.6198   10.7027    7.7423 C   0  0  0  0  0  0  0  0  0  0  0  0
   11.8579    9.5297    8.0641 O   0  0  0  0  0  0  0  0  0  0  0  0
   11.2061   10.7180    5.2250 N   0  0  0  0  0  0  0  0  0  0  0  0
   10.9047   11.7340    4.3783 C   0  0  0  0  0  0  0  0  0  0  0  0
   10.8262   12.9263    5.0506 N   0  0  0  0  0  0  0  0  0  0  0  0
  1  2  1  0  0  0  0
  1  6  1  0  0  0  0
  2  3  2  0  0  0  0
  3  4  1  0  0  0  0
  4  5  2  0  0  0  0
  4 10  1  0  0  0  0
  5  6  1  0  0  0  0
  5  8  1  0  0  0  0
  6  7  2  0  0  0  0
  8  9  1  0  0  0  0
  9 10  2  0  0  0  0
M  END
>  <CHROM.1>
11.30525034,11.73703217,6.82219986,0.43001665,-1.34676572,0.76839457

>  <Name>
ligand

>  <RI>
0

>  <Rbt.Current_Directory>
/home/itssahil/PROJECTS/Mol_Feturizer/New_Systems/rnas/2EEW

>  <Rbt.Executable>
rbdock ($Id: //depot/dev/client3/rdock/2013.1/src/exe/rbdock.cxx#4 $)

>  <Rbt.Library>
libRbt.so (2013.1, Build901 2013/11/27)

>  <Rbt.Parameter_File>
/export/apps/rDock/src/rDock_2013.1_src/data/scripts/dock_solv.prm

>  <Rbt.Receptor>
prm/pocket_docking_7.prm

>  <SCORE>
-17.0936

>  <SCORE.INTER>
-17.0936

>  <SCORE.INTER.CONST>
1

>  <SCORE.INTER.POLAR>
0

>  <SCORE.INTER.ROT>
0

>  <SCORE.INTER.SOLV>
3.56979

>  <SCORE.INTER.VDW>
-16.1857

>  <SCORE.INTER.norm>
-1.70936

>  <SCORE.INTRA>
0

>  <SCORE.INTRA.DIHEDRAL>
0

>  <SCORE.INTRA.DIHEDRAL.0>
0

>  <SCORE.INTRA.POLAR>
0

>  <SCORE.INTRA.POLAR.0>
0

>  <SCORE.INTRA.REPUL>
0

>  <SCORE.INTRA.REPUL.0>
0

>  <SCORE.INTRA.SOLV>
0

>  <SCORE.INTRA.SOLV.lig_0>
-4.28901

>  <SCORE.INTRA.VDW>
0

>  <SCORE.INTRA.VDW.0>
0

>  <SCORE.INTRA.norm>
0

>  <SCORE.RESTR>
0

>  <SCORE.RESTR.CAVITY>
0

>  <SCORE.RESTR.norm>
0

>  <SCORE.SYSTEM>
0

>  <SCORE.SYSTEM.CONST>
0

>  <SCORE.SYSTEM.DIHEDRAL>
0

>  <SCORE.SYSTEM.SOLV>
0

>  <SCORE.SYSTEM.norm>
0

>  <SCORE.heavy>
10

>  <SCORE.norm>
-1.70936

>  <RMSD>
0.960

$$$$
ligand
 OpenBabel11021811423D
libRbt.so/2013.1/901 2013/11/27
 10 11  0  0  0  0  0  0  0  0999 V2000
   11.6573   11.6731    8.7036 N   0  0  0  0  0  0  0  0  0  0  0  0
   11.4305   13.0318    8.5828 C   0  0  0  0  0  0  0  0  0  0  0  0
   11.1494   13.6062    7.4053 N   0  0  0  0  0  0  0  0  0  0  0  0
   11.1166   12.7253    6.3719 C   0  0  0  0  0  0  0  0  0  0  0  0
   11.3340   11.3598    6.4202 C   0  0  0  0  0  0  0  0  0  0  0  0
   11.6327   10.7357    7.6660 C   0  0  0  0  0  0  0  0  0  0  0  0
   11.8589    9.5479    7.9382 O   0  0  0  0  0  0  0  0  0  0  0  0
   11.2054   10.8589    5.1540 N   0  0  0  0  0  0  0  0  0  0  0  0
   10.9112   11.9120    4.3513 C   0  0  0  0  0  0  0  0  0  0  0  0
   10.8501   13.0766    5.0724 N   0  0  0  0  0  0  0  0  0  0  0  0
  1  2  1  0  0  0  0
  1  6  1  0  0  0  0
  2  3  2  0  0  0  0
  3  4  1  0  0  0  0
  4  5  2  0  0  0  0
  4 10  1  0  0  0  0
  5  6  1  0  0  0  0
  5  8  1  0  0  0  0
  6  7  2  0  0  0  0
  8  9  1  0  0  0  0
  9 10  2  0  0  0  0
M  END
>  <CHROM.1>
11.32506258,11.81038468,6.79091958,0.37468195,-1.35055512,0.75538027

>  <Name>
ligand

>  <RI>
0

>  <Rbt.Current_Directory>
/home/itssahil/PROJECTS/Mol_Feturizer/New_Systems/rnas/2EEW

>  <Rbt.Executable>
rbdock ($Id: //depot/dev/client3/rdock/2013.1/src/exe/rbdock.cxx#4 $)

>  <Rbt.Library>
libRbt.so (2013.1, Build901 2013/11/27)

>  <Rbt.Parameter_File>
/export/apps/rDock/src/rDock_2013.1_src/data/scripts/dock_solv.prm

>  <Rbt.Receptor>
prm/pocket_docking_7.prm

>  <SCORE>
-17.1015

>  <SCORE.INTER>
-17.1015

>  <SCORE.INTER.CONST>
1

>  <SCORE.INTER.POLAR>
0

>  <SCORE.INTER.ROT>
0

>  <SCORE.INTER.SOLV>
3.51582

>  <SCORE.INTER.VDW>
-16.173

>  <SCORE.INTER.norm>
-1.71015

>  <SCORE.INTRA>
0

>  <SCORE.INTRA.DIHEDRAL>
0

>  <SCORE.INTRA.DIHEDRAL.0>
0

>  <SCORE.INTRA.POLAR>
0

>  <SCORE.INTRA.POLAR.0>
0

>  <SCORE.INTRA.REPUL>
0

>  <SCORE.INTRA.REPUL.0>
0

>  <SCORE.INTRA.SOLV>
0

>  <SCORE.INTRA.SOLV.lig_0>
-4.28901

>  <SCORE.INTRA.VDW>
0

>  <SCORE.INTRA.VDW.0>
0

>  <SCORE.INTRA.norm>
0

>  <SCORE.RESTR>
0

>  <SCORE.RESTR.CAVITY>
0

>  <SCORE.RESTR.norm>
0

>  <SCORE.SYSTEM>
0

>  <SCORE.SYSTEM.CONST>
0

>  <SCORE.SYSTEM.DIHEDRAL>
0

>  <SCORE.SYSTEM.SOLV>
0

>  <SCORE.SYSTEM.norm>
0

>  <SCORE.heavy>
10

>  <SCORE.norm>
-1.71015

>  <RMSD>
0.962

$$$$
ligand
 OpenBabel11021811423D
libRbt.so/2013.1/901 2013/11/27
 10 11  0  0  0  0  0  0  0  0999 V2000
   11.6243   11.7142    8.7625 N   0  0  0  0  0  0  0  0  0  0  0  0
   11.3999   13.0644    8.5659 C   0  0  0  0  0  0  0  0  0  0  0  0
   11.1280   13.5737    7.3567 N   0  0  0  0  0  0  0  0  0  0  0  0
   11.1018   12.6375    6.3728 C   0  0  0  0  0  0  0  0  0  0  0  0
   11.3174   11.2766    6.4974 C   0  0  0  0  0  0  0  0  0  0  0  0
   11.6063   10.7214    7.7777 C   0  0  0  0  0  0  0  0  0  0  0  0
   11.8293    9.5502    8.1162 O   0  0  0  0  0  0  0  0  0  0  0  0
   11.1976   10.7072    5.2596 N   0  0  0  0  0  0  0  0  0  0  0  0
   10.9103   11.7150    4.3984 C   0  0  0  0  0  0  0  0  0  0  0  0
   10.8452   12.9173    5.0541 N   0  0  0  0  0  0  0  0  0  0  0  0
  1  2  1  0  0  0  0
  1  6  1  0  0  0  0
  2  3  2  0  0  0  0
  3  4  1  0  0  0  0
  4  5  2  0  0  0  0
  4 10  1  0  0  0  0
  5  6  1  0  0  0  0
  5  8  1  0  0  0  0
  6  7  2  0  0  0  0
  8  9  1  0  0  0  0
  9 10  2  0  0  0  0
M  END
>  <CHROM.1>
11.30624252,11.74679638,6.84282593,0.39464978,-1.35657157,0.72010357

>  <Name>
ligand

>  <RI>
0

>  <Rbt.Current_Directory>
/home/itssahil/PROJECTS/Mol_Feturizer/New_Systems/rnas/2EEW

>  <Rbt.Executable>
rbdock ($Id: //depot/dev/client3/rdock/2013.1/src/exe/rbdock.cxx#4 $)

>  <Rbt.Library>
libRbt.so (2013.1, Build901 2013/11/27)

>  <Rbt.Parameter_File>
/export/apps/rDock/src/rDock_2013.1_src/data/scripts/dock_solv.prm

>  <Rbt.Receptor>
prm/pocket_docking_3.prm

>  <SCORE>
-17.0807

>  <SCORE.INTER>
-17.0807

>  <SCORE.INTER.CONST>
1

>  <SCORE.INTER.POLAR>
0

>  <SCORE.INTER.ROT>
0

>  <SCORE.INTER.SOLV>
3.62379

>  <SCORE.INTER.VDW>
-16.1951

>  <SCORE.INTER.norm>
-1.70807

>  <SCORE.INTRA>
0

>  <SCORE.INTRA.DIHEDRAL>
0

>  <SCORE.INTRA.DIHEDRAL.0>
0

>  <SCORE.INTRA.POLAR>
0

>  <SCORE.INTRA.POLAR.0>
0

>  <SCORE.INTRA.REPUL>
0

>  <SCORE.INTRA.REPUL.0>
0

>  <SCORE.INTRA.SOLV>
0

>  <SCORE.INTRA.SOLV.lig_0>
-4.28901

>  <SCORE.INTRA.VDW>
0

>  <SCORE.INTRA.VDW.0>
0

>  <SCORE.INTRA.norm>
0

>  <SCORE.RESTR>
0

>  <SCORE.RESTR.CAVITY>
0

>  <SCORE.RESTR.norm>
0

>  <SCORE.SYSTEM>
0

>  <SCORE.SYSTEM.CONST>
0

>  <SCORE.SYSTEM.DIHEDRAL>
0

>  <SCORE.SYSTEM.SOLV>
0

>  <SCORE.SYSTEM.norm>
0

>  <SCORE.heavy>
10

>  <SCORE.norm>
-1.70807

>  <RMSD>
0.963

$$$$
ligand
 OpenBabel11021811423D
libRbt.so/2013.1/901 2013/11/27
 10 11  0  0  0  0  0  0  0  0999 V2000
   11.6843   11.6782    8.6922 N   0  0  0  0  0  0  0  0  0  0  0  0
   11.4252   13.0306    8.5661 C   0  0  0  0  0  0  0  0  0  0  0  0
   11.1159   13.5910    7.3889 N   0  0  0  0  0  0  0  0  0  0  0  0
   11.0897   12.7030    6.3614 C   0  0  0  0  0  0  0  0  0  0  0  0
   11.3387   11.3431    6.4152 C   0  0  0  0  0  0  0  0  0  0  0  0
   11.6676   10.7339    7.6608 C   0  0  0  0  0  0  0  0  0  0  0  0
   11.9242    9.5533    7.9372 O   0  0  0  0  0  0  0  0  0  0  0  0
   11.2052   10.8313    5.1538 N   0  0  0  0  0  0  0  0  0  0  0  0
   10.8767   11.8723    4.3487 C   0  0  0  0  0  0  0  0  0  0  0  0
   10.7985   13.0398    5.0633 N   0  0  0  0  0  0  0  0  0  0  0  0
  1  2  1  0  0  0  0
  1  6  1  0  0  0  0
  2  3  2  0  0  0  0
  3  4  1  0  0  0  0
  4  5  2  0  0  0  0
  4 10  1  0  0  0  0
  5  6  1  0  0  0  0
  5  8  1  0  0  0  0
  6  7  2  0  0  0  0
  8  9  1  0  0  0  0
  9 10  2  0  0  0  0
M  END
>  <CHROM.1>
11.32431670,11.79570609,6.78321033,0.40629219,-1.32543853,0.77990173

>  <Name>
ligand

>  <RI>
0

>  <Rbt.Current_Directory>
/home/itssahil/PROJECTS/Mol_Feturizer/New_Systems/rnas/2EEW

>  <Rbt.Executable>
rbdock ($Id: //depot/dev/client3/rdock/2013.1/src/exe/rbdock.cxx#4 $)

>  <Rbt.Library>
libRbt.so (2013.1, Build901 2013/11/27)

>  <Rbt.Parameter_File>
/export/apps/rDock/src/rDock_2013.1_src/data/scripts/dock_solv.prm

>  <Rbt.Receptor>
prm/pocket_docking_7.prm

>  <SCORE>
-17.0866

>  <SCORE.INTER>
-17.0866

>  <SCORE.INTER.CONST>
1

>  <SCORE.INTER.POLAR>
0

>  <SCORE.INTER.ROT>
0

>  <SCORE.INTER.SOLV>
3.42811

>  <SCORE.INTER.VDW>
-16.1338

>  <SCORE.INTER.norm>
-1.70866

>  <SCORE.INTRA>
0

>  <SCORE.INTRA.DIHEDRAL>
0

>  <SCORE.INTRA.DIHEDRAL.0>
0

>  <SCORE.INTRA.POLAR>
0

>  <SCORE.INTRA.POLAR.0>
0

>  <SCORE.INTRA.REPUL>
0

>  <SCORE.INTRA.REPUL.0>
0

>  <SCORE.INTRA.SOLV>
0

>  <SCORE.INTRA.SOLV.lig_0>
-4.28901

>  <SCORE.INTRA.VDW>
0

>  <SCORE.INTRA.VDW.0>
0

>  <SCORE.INTRA.norm>
0

>  <SCORE.RESTR>
0

>  <SCORE.RESTR.CAVITY>
0

>  <SCORE.RESTR.norm>
0

>  <SCORE.SYSTEM>
0

>  <SCORE.SYSTEM.CONST>
0

>  <SCORE.SYSTEM.DIHEDRAL>
0

>  <SCORE.SYSTEM.SOLV>
0

>  <SCORE.SYSTEM.norm>
0

>  <SCORE.heavy>
10

>  <SCORE.norm>
-1.70866

>  <RMSD>
0.963

$$$$
ligand
 OpenBabel11021811423D
libRbt.so/2013.1/901 2013/11/27
 10 11  0  0  0  0  0  0  0  0999 V2000
   11.6563   11.6885    8.7181 N   0  0  0  0  0  0  0  0  0  0  0  0
   11.4292   13.0438    8.5649 C   0  0  0  0  0  0  0  0  0  0  0  0
   11.1436   13.5893    7.3748 N   0  0  0  0  0  0  0  0  0  0  0  0
   11.1066   12.6833    6.3634 C   0  0  0  0  0  0  0  0  0  0  0  0
   11.3241   11.3194    6.4444 C   0  0  0  0  0  0  0  0  0  0  0  0
   11.6275   10.7259    7.7039 C   0  0  0  0  0  0  0  0  0  0  0  0
   11.8547    9.5452    8.0042 O   0  0  0  0  0  0  0  0  0  0  0  0
   11.1905   10.7876    5.1913 N   0  0  0  0  0  0  0  0  0  0  0  0
   10.8932   11.8208    4.3642 C   0  0  0  0  0  0  0  0  0  0  0  0
   10.8351   13.0027    5.0567 N   0  0  0  0  0  0  0  0  0  0  0  0
  1  2  1  0  0  0  0
  1  6  1  0  0  0  0
  2  3  2  0  0  0  0
  3  4  1  0  0  0  0
  4  5  2  0  0  0  0
  4 10  1  0  0  0  0
  5  6  1  0  0  0  0
  5  8  1  0  0  0  0
  6  7  2  0  0  0  0
  8  9  1  0  0  0  0
  9 10  2  0  0  0  0
M  END
>  <CHROM.1>
11.31660901,11.77892676,6.80392383,0.36216984,-1.34777695,0.71865473

>  <Name>
ligand

>  <RI>
0

>  <Rbt.Current_Directory>
/home/itssahil/PROJECTS/Mol_Feturizer/New_Systems/rnas/2EEW

>  <Rbt.Executable>
rbdock ($Id: //depot/dev/client3/rdock/2013.1/src/exe/rbdock.cxx#4 $)

>  <Rbt.Library>
libRbt.so (2013.1, Build901 2013/11/27)

>  <Rbt.Parameter_File>
/export/apps/rDock/src/rDock_2013.1_src/data/scripts/dock_solv.prm

>  <Rbt.Receptor>
prm/pocket_docking_8.prm

>  <SCORE>
-17.0703

>  <SCORE.INTER>
-17.0703

>  <SCORE.INTER.CONST>
1

>  <SCORE.INTER.POLAR>
0

>  <SCORE.INTER.ROT>
0

>  <SCORE.INTER.SOLV>
3.54796

>  <SCORE.INTER.VDW>
-16.1629

>  <SCORE.INTER.norm>
-1.70703

>  <SCORE.INTRA>
0

>  <SCORE.INTRA.DIHEDRAL>
0

>  <SCORE.INTRA.DIHEDRAL.0>
0

>  <SCORE.INTRA.POLAR>
0

>  <SCORE.INTRA.POLAR.0>
0

>  <SCORE.INTRA.REPUL>
0

>  <SCORE.INTRA.REPUL.0>
0

>  <SCORE.INTRA.SOLV>
0

>  <SCORE.INTRA.SOLV.lig_0>
-4.28901

>  <SCORE.INTRA.VDW>
0

>  <SCORE.INTRA.VDW.0>
0

>  <SCORE.INTRA.norm>
0

>  <SCORE.RESTR>
0

>  <SCORE.RESTR.CAVITY>
0

>  <SCORE.RESTR.norm>
0

>  <SCORE.SYSTEM>
0

>  <SCORE.SYSTEM.CONST>
0

>  <SCORE.SYSTEM.DIHEDRAL>
0

>  <SCORE.SYSTEM.SOLV>
0

>  <SCORE.SYSTEM.norm>
0

>  <SCORE.heavy>
10

>  <SCORE.norm>
-1.70703

>  <RMSD>
0.964

$$$$
ligand
 OpenBabel11021811423D
libRbt.so/2013.1/901 2013/11/27
 10 11  0  0  0  0  0  0  0  0999 V2000
   11.6486   11.6733    8.7010 N   0  0  0  0  0  0  0  0  0  0  0  0
   11.4202   13.0311    8.5740 C   0  0  0  0  0  0  0  0  0  0  0  0
   11.1414   13.6002    7.3933 N   0  0  0  0  0  0  0  0  0  0  0  0
   11.1126   12.7149    6.3635 C   0  0  0  0  0  0  0  0  0  0  0  0
   11.3320   11.3500    6.4181 C   0  0  0  0  0  0  0  0  0  0  0  0
   11.6282   10.7315    7.6673 C   0  0  0  0  0  0  0  0  0  0  0  0
   11.8555    9.5452    7.9451 O   0  0  0  0  0  0  0  0  0  0  0  0
   11.2076   10.8435    5.1537 N   0  0  0  0  0  0  0  0  0  0  0  0
   10.9140   11.8929    4.3458 C   0  0  0  0  0  0  0  0  0  0  0  0
   10.8492   13.0603    5.0618 N   0  0  0  0  0  0  0  0  0  0  0  0
  1  2  1  0  0  0  0
  1  6  1  0  0  0  0
  2  3  2  0  0  0  0
  3  4  1  0  0  0  0
  4  5  2  0  0  0  0
  4 10  1  0  0  0  0
  5  6  1  0  0  0  0
  5  8  1  0  0  0  0
  6  7  2  0  0  0  0
  8  9  1  0  0  0  0
  9 10  2  0  0  0  0
M  END
>  <CHROM.1>
11.32138964,11.80205723,6.78692292,0.38825206,-1.35147541,0.76444673

>  <Name>
ligand

>  <RI>
0

>  <Rbt.Current_Directory>
/home/itssahil/PROJECTS/Mol_Feturizer/New_Systems/rnas/2EEW

>  <Rbt.Executable>
rbdock ($Id: //depot/dev/client3/rdock/2013.1/src/exe/rbdock.cxx#4 $)

>  <Rbt.Library>
libRbt.so (2013.1, Build901 2013/11/27)

>  <Rbt.Parameter_File>
/export/apps/rDock/src/rDock_2013.1_src/data/scripts/dock_solv.prm

>  <Rbt.Receptor>
prm/pocket_docking_5.prm

>  <SCORE>
-17.0962

>  <SCORE.INTER>
-17.0962

>  <SCORE.INTER.CONST>
1

>  <SCORE.INTER.POLAR>
0

>  <SCORE.INTER.ROT>
0

>  <SCORE.INTER.SOLV>
3.52189

>  <SCORE.INTER.VDW>
-16.1714

>  <SCORE.INTER.norm>
-1.70962

>  <SCORE.INTRA>
0

>  <SCORE.INTRA.DIHEDRAL>
0

>  <SCORE.INTRA.DIHEDRAL.0>
0

>  <SCORE.INTRA.POLAR>
0

>  <SCORE.INTRA.POLAR.0>
0

>  <SCORE.INTRA.REPUL>
0

>  <SCORE.INTRA.REPUL.0>
0

>  <SCORE.INTRA.SOLV>
0

>  <SCORE.INTRA.SOLV.lig_0>
-4.28901

>  <SCORE.INTRA.VDW>
0

>  <SCORE.INTRA.VDW.0>
0

>  <SCORE.INTRA.norm>
0

>  <SCORE.RESTR>
0

>  <SCORE.RESTR.CAVITY>
0

>  <SCORE.RESTR.norm>
0

>  <SCORE.SYSTEM>
0

>  <SCORE.SYSTEM.CONST>
0

>  <SCORE.SYSTEM.DIHEDRAL>
0

>  <SCORE.SYSTEM.SOLV>
0

>  <SCORE.SYSTEM.norm>
0

>  <SCORE.heavy>
10

>  <SCORE.norm>
-1.70962

>  <RMSD>
0.967

$$$$
ligand
 OpenBabel11021811423D
libRbt.so/2013.1/901 2013/11/27
 10 11  0  0  0  0  0  0  0  0999 V2000
   11.6594   11.5939    8.6527 N   0  0  0  0  0  0  0  0  0  0  0  0
   11.4319   12.9547    8.5615 C   0  0  0  0  0  0  0  0  0  0  0  0
   11.1405   13.5529    7.3984 N   0  0  0  0  0  0  0  0  0  0  0  0
   11.0984   12.6931    6.3476 C   0  0  0  0  0  0  0  0  0  0  0  0
   11.3161   11.3269    6.3664 C   0  0  0  0  0  0  0  0  0  0  0  0
   11.6255   10.6777    7.5967 C   0  0  0  0  0  0  0  0  0  0  0  0
   11.8539    9.4847    7.8428 O   0  0  0  0  0  0  0  0  0  0  0  0
   11.1762   10.8517    5.0915 N   0  0  0  0  0  0  0  0  0  0  0  0
   10.8752   11.9209    4.3129 C   0  0  0  0  0  0  0  0  0  0  0  0
   10.8207   13.0706    5.0579 N   0  0  0  0  0  0  0  0  0  0  0  0
  1  2  1  0  0  0  0
  1  6  1  0  0  0  0
  2  3  2  0  0  0  0
  3  4  1  0  0  0  0
  4  5  2  0  0  0  0
  4 10  1  0  0  0  0
  5  6  1  0  0  0  0
  5  8  1  0  0  0  0
  6  7  2  0  0  0  0
  8  9  1  0  0  0  0
  9 10  2  0  0  0  0
M  END
>  <CHROM.1>
11.31043929,11.76987059,6.74622736,0.34723117,-1.34421508,0.74885349

>  <Name>
ligand

>  <RI>
0

>  <Rbt.Current_Directory>
/home/itssahil/PROJECTS/Mol_Feturizer/New_Systems/rnas/2EEW

>  <Rbt.Executable>
rbdock ($Id: //depot/dev/client3/rdock/2013.1/src/exe/rbdock.cxx#4 $)

>  <Rbt.Library>
libRbt.so (2013.1, Build901 2013/11/27)

>  <Rbt.Parameter_File>
/export/apps/rDock/src/rDock_2013.1_src/data/scripts/dock_solv.prm

>  <Rbt.Receptor>
prm/pocket_docking_8.prm

>  <SCORE>
-17.0667

>  <SCORE.INTER>
-17.0667

>  <SCORE.INTER.CONST>
1

>  <SCORE.INTER.POLAR>
0

>  <SCORE.INTER.ROT>
0

>  <SCORE.INTER.SOLV>
3.47023

>  <SCORE.INTER.VDW>
-16.1345

>  <SCORE.INTER.norm>
-1.70667

>  <SCORE.INTRA>
0

>  <SCORE.INTRA.DIHEDRAL>
0

>  <SCORE.INTRA.DIHEDRAL.0>
0

>  <SCORE.INTRA.POLAR>
0

>  <SCORE.INTRA.POLAR.0>
0

>  <SCORE.INTRA.REPUL>
0

>  <SCORE.INTRA.REPUL.0>
0

>  <SCORE.INTRA.SOLV>
0

>  <SCORE.INTRA.SOLV.lig_0>
-4.28901

>  <SCORE.INTRA.VDW>
0

>  <SCORE.INTRA.VDW.0>
0

>  <SCORE.INTRA.norm>
0

>  <SCORE.RESTR>
0

>  <SCORE.RESTR.CAVITY>
0

>  <SCORE.RESTR.norm>
0

>  <SCORE.SYSTEM>
0

>  <SCORE.SYSTEM.CONST>
0

>  <SCORE.SYSTEM.DIHEDRAL>
0

>  <SCORE.SYSTEM.SOLV>
0

>  <SCORE.SYSTEM.norm>
0

>  <SCORE.heavy>
10

>  <SCORE.norm>
-1.70667

>  <RMSD>
0.967

$$$$
ligand
 OpenBabel11021811423D
libRbt.so/2013.1/901 2013/11/27
 10 11  0  0  0  0  0  0  0  0999 V2000
   11.6745   11.7034    8.7002 N   0  0  0  0  0  0  0  0  0  0  0  0
   11.4219   13.0564    8.5679 C   0  0  0  0  0  0  0  0  0  0  0  0
   11.1302   13.6153    7.3855 N   0  0  0  0  0  0  0  0  0  0  0  0
   11.1145   12.7252    6.3596 C   0  0  0  0  0  0  0  0  0  0  0  0
   11.3580   11.3646    6.4195 C   0  0  0  0  0  0  0  0  0  0  0  0
   11.6682   10.7569    7.6707 C   0  0  0  0  0  0  0  0  0  0  0  0
   11.9170    9.5761    7.9530 O   0  0  0  0  0  0  0  0  0  0  0  0
   11.2394   10.8505    5.1576 N   0  0  0  0  0  0  0  0  0  0  0  0
   10.9253   11.8910    4.3460 C   0  0  0  0  0  0  0  0  0  0  0  0
   10.8418   13.0603    5.0571 N   0  0  0  0  0  0  0  0  0  0  0  0
  1  2  1  0  0  0  0
  1  6  1  0  0  0  0
  2  3  2  0  0  0  0
  3  4  1  0  0  0  0
  4  5  2  0  0  0  0
  4 10  1  0  0  0  0
  5  6  1  0  0  0  0
  5  8  1  0  0  0  0
  6  7  2  0  0  0  0
  8  9  1  0  0  0  0
  9 10  2  0  0  0  0
M  END
>  <CHROM.1>
11.34033335,11.81802767,6.78639404,0.43578705,-1.33723012,0.80641909

>  <Name>
ligand

>  <RI>
0

>  <Rbt.Current_Directory>
/home/itssahil/PROJECTS/Mol_Feturizer/New_Systems/rnas/2EEW

>  <Rbt.Executable>
rbdock ($Id: //depot/dev/client3/rdock/2013.1/src/exe/rbdock.cxx#4 $)

>  <Rbt.Library>
libRbt.so (2013.1, Build901 2013/11/27)

>  <Rbt.Parameter_File>
/export/apps/rDock/src/rDock_2013.1_src/data/scripts/dock_solv.prm

>  <Rbt.Receptor>
prm/blind_docking_40.prm

>  <SCORE>
-17.0901

>  <SCORE.INTER>
-17.0901

>  <SCORE.INTER.CONST>
1

>  <SCORE.INTER.POLAR>
0

>  <SCORE.INTER.ROT>
0

>  <SCORE.INTER.SOLV>
3.45768

>  <SCORE.INTER.VDW>
-16.146

>  <SCORE.INTER.norm>
-1.70901

>  <SCORE.INTRA>
0

>  <SCORE.INTRA.DIHEDRAL>
0

>  <SCORE.INTRA.DIHEDRAL.0>
0

>  <SCORE.INTRA.POLAR>
0

>  <SCORE.INTRA.POLAR.0>
0

>  <SCORE.INTRA.REPUL>
0

>  <SCORE.INTRA.REPUL.0>
0

>  <SCORE.INTRA.SOLV>
0

>  <SCORE.INTRA.SOLV.lig_0>
-4.28901

>  <SCORE.INTRA.VDW>
0

>  <SCORE.INTRA.VDW.0>
0

>  <SCORE.INTRA.norm>
0

>  <SCORE.RESTR>
0

>  <SCORE.RESTR.CAVITY>
0

>  <SCORE.RESTR.norm>
0

>  <SCORE.SYSTEM>
0

>  <SCORE.SYSTEM.CONST>
0

>  <SCORE.SYSTEM.DIHEDRAL>
0

>  <SCORE.SYSTEM.SOLV>
0

>  <SCORE.SYSTEM.norm>
0

>  <SCORE.heavy>
10

>  <SCORE.norm>
-1.70901

>  <RMSD>
0.971

$$$$
ligand
 OpenBabel11021811423D
libRbt.so/2013.1/901 2013/11/27
 10 11  0  0  0  0  0  0  0  0999 V2000
   11.6505   11.5975    8.6503 N   0  0  0  0  0  0  0  0  0  0  0  0
   11.4185   12.9574    8.5571 C   0  0  0  0  0  0  0  0  0  0  0  0
   11.1276   13.5534    7.3926 N   0  0  0  0  0  0  0  0  0  0  0  0
   11.0906   12.6922    6.3428 C   0  0  0  0  0  0  0  0  0  0  0  0
   11.3128   11.3268    6.3636 C   0  0  0  0  0  0  0  0  0  0  0  0
   11.6220   10.6800    7.5952 C   0  0  0  0  0  0  0  0  0  0  0  0
   11.8539    9.4881    7.8431 O   0  0  0  0  0  0  0  0  0  0  0  0
   11.1773   10.8497    5.0889 N   0  0  0  0  0  0  0  0  0  0  0  0
   10.8742   11.9170    4.3085 C   0  0  0  0  0  0  0  0  0  0  0  0
   10.8142   13.0674    5.0521 N   0  0  0  0  0  0  0  0  0  0  0  0
  1  2  1  0  0  0  0
  1  6  1  0  0  0  0
  2  3  2  0  0  0  0
  3  4  1  0  0  0  0
  4  5  2  0  0  0  0
  4 10  1  0  0  0  0
  5  6  1  0  0  0  0
  5  8  1  0  0  0  0
  6  7  2  0  0  0  0
  8  9  1  0  0  0  0
  9 10  2  0  0  0  0
M  END
>  <CHROM.1>
11.30491988,11.77017667,6.74285132,0.36463606,-1.34337835,0.76470044

>  <Name>
ligand

>  <RI>
0

>  <Rbt.Current_Directory>
/home/itssahil/PROJECTS/Mol_Feturizer/New_Systems/rnas/2EEW

>  <Rbt.Executable>
rbdock ($Id: //depot/dev/client3/rdock/2013.1/src/exe/rbdock.cxx#4 $)

>  <Rbt.Library>
libRbt.so (2013.1, Build901 2013/11/27)

>  <Rbt.Parameter_File>
/export/apps/rDock/src/rDock_2013.1_src/data/scripts/dock_solv.prm

>  <Rbt.Receptor>
prm/pocket_docking_6.prm

>  <SCORE>
-17.0606

>  <SCORE.INTER>
-17.0606

>  <SCORE.INTER.CONST>
1

>  <SCORE.INTER.POLAR>
0

>  <SCORE.INTER.ROT>
0

>  <SCORE.INTER.SOLV>
3.46498

>  <SCORE.INTER.VDW>
-16.1287

>  <SCORE.INTER.norm>
-1.70606

>  <SCORE.INTRA>
0

>  <SCORE.INTRA.DIHEDRAL>
0

>  <SCORE.INTRA.DIHEDRAL.0>
0

>  <SCORE.INTRA.POLAR>
0

>  <SCORE.INTRA.POLAR.0>
0

>  <SCORE.INTRA.REPUL>
0

>  <SCORE.INTRA.REPUL.0>
0

>  <SCORE.INTRA.SOLV>
0

>  <SCORE.INTRA.SOLV.lig_0>
-4.28901

>  <SCORE.INTRA.VDW>
0

>  <SCORE.INTRA.VDW.0>
0

>  <SCORE.INTRA.norm>
0

>  <SCORE.RESTR>
0

>  <SCORE.RESTR.CAVITY>
0

>  <SCORE.RESTR.norm>
0

>  <SCORE.SYSTEM>
0

>  <SCORE.SYSTEM.CONST>
0

>  <SCORE.SYSTEM.DIHEDRAL>
0

>  <SCORE.SYSTEM.SOLV>
0

>  <SCORE.SYSTEM.norm>
0

>  <SCORE.heavy>
10

>  <SCORE.norm>
-1.70606

>  <RMSD>
0.972

$$$$
ligand
 OpenBabel11021811423D
libRbt.so/2013.1/901 2013/11/27
 10 11  0  0  0  0  0  0  0  0999 V2000
   11.6336   11.6826    8.7020 N   0  0  0  0  0  0  0  0  0  0  0  0
   11.4044   13.0400    8.5724 C   0  0  0  0  0  0  0  0  0  0  0  0
   11.1274   13.6071    7.3903 N   0  0  0  0  0  0  0  0  0  0  0  0
   11.1014   12.7202    6.3618 C   0  0  0  0  0  0  0  0  0  0  0  0
   11.3217   11.3555    6.4190 C   0  0  0  0  0  0  0  0  0  0  0  0
   11.6160   10.7392    7.6698 C   0  0  0  0  0  0  0  0  0  0  0  0
   11.8436    9.5536    7.9499 O   0  0  0  0  0  0  0  0  0  0  0  0
   11.2002   10.8470    5.1551 N   0  0  0  0  0  0  0  0  0  0  0  0
   10.9073   11.8948    4.3450 C   0  0  0  0  0  0  0  0  0  0  0  0
   10.8403   13.0633    5.0591 N   0  0  0  0  0  0  0  0  0  0  0  0
  1  2  1  0  0  0  0
  1  6  1  0  0  0  0
  2  3  2  0  0  0  0
  3  4  1  0  0  0  0
  4  5  2  0  0  0  0
  4 10  1  0  0  0  0
  5  6  1  0  0  0  0
  5  8  1  0  0  0  0
  6  7  2  0  0  0  0
  8  9  1  0  0  0  0
  9 10  2  0  0  0  0
M  END
>  <CHROM.1>
11.31003448,11.80814433,6.78707618,0.39708206,-1.35236120,0.77148485

>  <Name>
ligand

>  <RI>
0

>  <Rbt.Current_Directory>
/home/itssahil/PROJECTS/Mol_Feturizer/New_Systems/rnas/2EEW

>  <Rbt.Executable>
rbdock ($Id: //depot/dev/client3/rdock/2013.1/src/exe/rbdock.cxx#4 $)

>  <Rbt.Library>
libRbt.so (2013.1, Build901 2013/11/27)

>  <Rbt.Parameter_File>
/export/apps/rDock/src/rDock_2013.1_src/data/scripts/dock_solv.prm

>  <Rbt.Receptor>
prm/pocket_docking_3.prm

>  <SCORE>
-17.0915

>  <SCORE.INTER>
-17.0915

>  <SCORE.INTER.CONST>
1

>  <SCORE.INTER.POLAR>
0

>  <SCORE.INTER.ROT>
0

>  <SCORE.INTER.SOLV>
3.52688

>  <SCORE.INTER.VDW>
-16.17

>  <SCORE.INTER.norm>
-1.70915

>  <SCORE.INTRA>
0

>  <SCORE.INTRA.DIHEDRAL>
0

>  <SCORE.INTRA.DIHEDRAL.0>
0

>  <SCORE.INTRA.POLAR>
0

>  <SCORE.INTRA.POLAR.0>
0

>  <SCORE.INTRA.REPUL>
0

>  <SCORE.INTRA.REPUL.0>
0

>  <SCORE.INTRA.SOLV>
0

>  <SCORE.INTRA.SOLV.lig_0>
-4.28901

>  <SCORE.INTRA.VDW>
0

>  <SCORE.INTRA.VDW.0>
0

>  <SCORE.INTRA.norm>
0

>  <SCORE.RESTR>
0

>  <SCORE.RESTR.CAVITY>
0

>  <SCORE.RESTR.norm>
0

>  <SCORE.SYSTEM>
0

>  <SCORE.SYSTEM.CONST>
0

>  <SCORE.SYSTEM.DIHEDRAL>
0

>  <SCORE.SYSTEM.SOLV>
0

>  <SCORE.SYSTEM.norm>
0

>  <SCORE.heavy>
10

>  <SCORE.norm>
-1.70915

>  <RMSD>
0.974

$$$$
ligand
 OpenBabel11021811423D
libRbt.so/2013.1/901 2013/11/27
 10 11  0  0  0  0  0  0  0  0999 V2000
   11.6718   11.6738    8.6893 N   0  0  0  0  0  0  0  0  0  0  0  0
   11.4410   13.0298    8.5487 C   0  0  0  0  0  0  0  0  0  0  0  0
   11.1547   13.5856    7.3635 N   0  0  0  0  0  0  0  0  0  0  0  0
   11.1210   12.6890    6.3436 C   0  0  0  0  0  0  0  0  0  0  0  0
   11.3424   11.3250    6.4120 C   0  0  0  0  0  0  0  0  0  0  0  0
   11.6466   10.7207    7.6662 C   0  0  0  0  0  0  0  0  0  0  0  0
   11.8769    9.5378    7.9556 O   0  0  0  0  0  0  0  0  0  0  0  0
   11.2112   10.8046    5.1539 N   0  0  0  0  0  0  0  0  0  0  0  0
   10.9116   11.8446    4.3363 C   0  0  0  0  0  0  0  0  0  0  0  0
   10.8496   13.0198    5.0398 N   0  0  0  0  0  0  0  0  0  0  0  0
  1  2  1  0  0  0  0
  1  6  1  0  0  0  0
  2  3  2  0  0  0  0
  3  4  1  0  0  0  0
  4  5  2  0  0  0  0
  4 10  1  0  0  0  0
  5  6  1  0  0  0  0
  5  8  1  0  0  0  0
  6  7  2  0  0  0  0
  8  9  1  0  0  0  0
  9 10  2  0  0  0  0
M  END
>  <CHROM.1>
11.33331931,11.78113032,6.77584049,0.37408341,-1.34643545,0.73963556

>  <Name>
ligand

>  <RI>
0

>  <Rbt.Current_Directory>
/home/itssahil/PROJECTS/Mol_Feturizer/New_Systems/rnas/2EEW

>  <Rbt.Executable>
rbdock ($Id: //depot/dev/client3/rdock/2013.1/src/exe/rbdock.cxx#4 $)

>  <Rbt.Library>
libRbt.so (2013.1, Build901 2013/11/27)

>  <Rbt.Parameter_File>
/export/apps/rDock/src/rDock_2013.1_src/data/scripts/dock_solv.prm

>  <Rbt.Receptor>
prm/pocket_docking_8.prm

>  <SCORE>
-17.0529

>  <SCORE.INTER>
-17.0529

>  <SCORE.INTER.CONST>
1

>  <SCORE.INTER.POLAR>
0

>  <SCORE.INTER.ROT>
0

>  <SCORE.INTER.SOLV>
3.51378

>  <SCORE.INTER.VDW>
-16.1399

>  <SCORE.INTER.norm>
-1.70529

>  <SCORE.INTRA>
0

>  <SCORE.INTRA.DIHEDRAL>
0

>  <SCORE.INTRA.DIHEDRAL.0>
0

>  <SCORE.INTRA.POLAR>
0

>  <SCORE.INTRA.POLAR.0>
0

>  <SCORE.INTRA.REPUL>
0

>  <SCORE.INTRA.REPUL.0>
0

>  <SCORE.INTRA.SOLV>
0

>  <SCORE.INTRA.SOLV.lig_0>
-4.28901

>  <SCORE.INTRA.VDW>
0

>  <SCORE.INTRA.VDW.0>
0

>  <SCORE.INTRA.norm>
0

>  <SCORE.RESTR>
0

>  <SCORE.RESTR.CAVITY>
0

>  <SCORE.RESTR.norm>
0

>  <SCORE.SYSTEM>
0

>  <SCORE.SYSTEM.CONST>
0

>  <SCORE.SYSTEM.DIHEDRAL>
0

>  <SCORE.SYSTEM.SOLV>
0

>  <SCORE.SYSTEM.norm>
0

>  <SCORE.heavy>
10

>  <SCORE.norm>
-1.70529

>  <RMSD>
0.974

$$$$
ligand
 OpenBabel11021811423D
libRbt.so/2013.1/901 2013/11/27
 10 11  0  0  0  0  0  0  0  0999 V2000
   11.6526   11.6429    8.6745 N   0  0  0  0  0  0  0  0  0  0  0  0
   11.4550   13.0067    8.5621 C   0  0  0  0  0  0  0  0  0  0  0  0
   11.1773   13.5931    7.3896 N   0  0  0  0  0  0  0  0  0  0  0  0
   11.1169   12.7183    6.3523 C   0  0  0  0  0  0  0  0  0  0  0  0
   11.3046   11.3482    6.3923 C   0  0  0  0  0  0  0  0  0  0  0  0
   11.5992   10.7114    7.6327 C   0  0  0  0  0  0  0  0  0  0  0  0
   11.8013    9.5176    7.8973 O   0  0  0  0  0  0  0  0  0  0  0  0
   11.1550   10.8565    5.1248 N   0  0  0  0  0  0  0  0  0  0  0  0
   10.8777   11.9198    4.3295 C   0  0  0  0  0  0  0  0  0  0  0  0
   10.8480   13.0818    5.0566 N   0  0  0  0  0  0  0  0  0  0  0  0
  1  2  1  0  0  0  0
  1  6  1  0  0  0  0
  2  3  2  0  0  0  0
  3  4  1  0  0  0  0
  4  5  2  0  0  0  0
  4 10  1  0  0  0  0
  5  6  1  0  0  0  0
  5  8  1  0  0  0  0
  6  7  2  0  0  0  0
  8  9  1  0  0  0  0
  9 10  2  0  0  0  0
M  END
>  <CHROM.1>
11.30847575,11.79694836,6.76521597,0.27256559,-1.35886130,0.66053664

>  <Name>
ligand

>  <RI>
0

>  <Rbt.Current_Directory>
/home/itssahil/PROJECTS/Mol_Feturizer/New_Systems/rnas/2EEW

>  <Rbt.Executable>
rbdock ($Id: //depot/dev/client3/rdock/2013.1/src/exe/rbdock.cxx#4 $)

>  <Rbt.Library>
libRbt.so (2013.1, Build901 2013/11/27)

>  <Rbt.Parameter_File>
/export/apps/rDock/src/rDock_2013.1_src/data/scripts/dock_solv.prm

>  <Rbt.Receptor>
prm/pocket_docking_3.prm

>  <SCORE>
-17.0812

>  <SCORE.INTER>
-17.0812

>  <SCORE.INTER.CONST>
1

>  <SCORE.INTER.POLAR>
0

>  <SCORE.INTER.ROT>
0

>  <SCORE.INTER.SOLV>
3.55351

>  <SCORE.INTER.VDW>
-16.172

>  <SCORE.INTER.norm>
-1.70812

>  <SCORE.INTRA>
0

>  <SCORE.INTRA.DIHEDRAL>
0

>  <SCORE.INTRA.DIHEDRAL.0>
0

>  <SCORE.INTRA.POLAR>
0

>  <SCORE.INTRA.POLAR.0>
0

>  <SCORE.INTRA.REPUL>
0

>  <SCORE.INTRA.REPUL.0>
0

>  <SCORE.INTRA.SOLV>
0

>  <SCORE.INTRA.SOLV.lig_0>
-4.28901

>  <SCORE.INTRA.VDW>
0

>  <SCORE.INTRA.VDW.0>
0

>  <SCORE.INTRA.norm>
0

>  <SCORE.RESTR>
0

>  <SCORE.RESTR.CAVITY>
0

>  <SCORE.RESTR.norm>
0

>  <SCORE.SYSTEM>
0

>  <SCORE.SYSTEM.CONST>
0

>  <SCORE.SYSTEM.DIHEDRAL>
0

>  <SCORE.SYSTEM.SOLV>
0

>  <SCORE.SYSTEM.norm>
0

>  <SCORE.heavy>
10

>  <SCORE.norm>
-1.70812

>  <RMSD>
0.976

$$$$
ligand
 OpenBabel11021811423D
libRbt.so/2013.1/901 2013/11/27
 10 11  0  0  0  0  0  0  0  0999 V2000
   11.6520   11.6680    8.6872 N   0  0  0  0  0  0  0  0  0  0  0  0
   11.4479   13.0298    8.5625 C   0  0  0  0  0  0  0  0  0  0  0  0
   11.1669   13.6042    7.3849 N   0  0  0  0  0  0  0  0  0  0  0  0
   11.1100   12.7197    6.3556 C   0  0  0  0  0  0  0  0  0  0  0  0
   11.3041   11.3508    6.4080 C   0  0  0  0  0  0  0  0  0  0  0  0
   11.6024   10.7268    7.6539 C   0  0  0  0  0  0  0  0  0  0  0  0
   11.8102    9.5364    7.9293 O   0  0  0  0  0  0  0  0  0  0  0  0
   11.1562   10.8469    5.1451 N   0  0  0  0  0  0  0  0  0  0  0  0
   10.8735   11.9017    4.3404 C   0  0  0  0  0  0  0  0  0  0  0  0
   10.8388   13.0701    5.0568 N   0  0  0  0  0  0  0  0  0  0  0  0
  1  2  1  0  0  0  0
  1  6  1  0  0  0  0
  2  3  2  0  0  0  0
  3  4  1  0  0  0  0
  4  5  2  0  0  0  0
  4 10  1  0  0  0  0
  5  6  1  0  0  0  0
  5  8  1  0  0  0  0
  6  7  2  0  0  0  0
  8  9  1  0  0  0  0
  9 10  2  0  0  0  0
M  END
>  <CHROM.1>
11.30611661,11.80301929,6.77680607,0.28827138,-1.35553819,0.66676832

>  <Name>
ligand

>  <RI>
0

>  <Rbt.Current_Directory>
/home/itssahil/PROJECTS/Mol_Feturizer/New_Systems/rnas/2EEW

>  <Rbt.Executable>
rbdock ($Id: //depot/dev/client3/rdock/2013.1/src/exe/rbdock.cxx#4 $)

>  <Rbt.Library>
libRbt.so (2013.1, Build901 2013/11/27)

>  <Rbt.Parameter_File>
/export/apps/rDock/src/rDock_2013.1_src/data/scripts/dock_solv.prm

>  <Rbt.Receptor>
prm/pocket_docking_4.prm

>  <SCORE>
-17.0936

>  <SCORE.INTER>
-17.0936

>  <SCORE.INTER.CONST>
1

>  <SCORE.INTER.POLAR>
0

>  <SCORE.INTER.ROT>
0

>  <SCORE.INTER.SOLV>
3.55453

>  <SCORE.INTER.VDW>
-16.1806

>  <SCORE.INTER.norm>
-1.70936

>  <SCORE.INTRA>
0

>  <SCORE.INTRA.DIHEDRAL>
0

>  <SCORE.INTRA.DIHEDRAL.0>
0

>  <SCORE.INTRA.POLAR>
0

>  <SCORE.INTRA.POLAR.0>
0

>  <SCORE.INTRA.REPUL>
0

>  <SCORE.INTRA.REPUL.0>
0

>  <SCORE.INTRA.SOLV>
0

>  <SCORE.INTRA.SOLV.lig_0>
-4.28901

>  <SCORE.INTRA.VDW>
0

>  <SCORE.INTRA.VDW.0>
0

>  <SCORE.INTRA.norm>
0

>  <SCORE.RESTR>
0

>  <SCORE.RESTR.CAVITY>
0

>  <SCORE.RESTR.norm>
0

>  <SCORE.SYSTEM>
0

>  <SCORE.SYSTEM.CONST>
0

>  <SCORE.SYSTEM.DIHEDRAL>
0

>  <SCORE.SYSTEM.SOLV>
0

>  <SCORE.SYSTEM.norm>
0

>  <SCORE.heavy>
10

>  <SCORE.norm>
-1.70936

>  <RMSD>
0.977

$$$$
ligand
 OpenBabel11021811423D
libRbt.so/2013.1/901 2013/11/27
 10 11  0  0  0  0  0  0  0  0999 V2000
   11.6363   11.6861    8.6961 N   0  0  0  0  0  0  0  0  0  0  0  0
   11.4112   13.0447    8.5711 C   0  0  0  0  0  0  0  0  0  0  0  0
   11.1351   13.6164    7.3910 N   0  0  0  0  0  0  0  0  0  0  0  0
   11.1053   12.7329    6.3597 C   0  0  0  0  0  0  0  0  0  0  0  0
   11.3214   11.3673    6.4123 C   0  0  0  0  0  0  0  0  0  0  0  0
   11.6148   10.7461    7.6608 C   0  0  0  0  0  0  0  0  0  0  0  0
   11.8389    9.5588    7.9369 O   0  0  0  0  0  0  0  0  0  0  0  0
   11.1971   10.8633    5.1469 N   0  0  0  0  0  0  0  0  0  0  0  0
   10.9069   11.9146    4.3405 C   0  0  0  0  0  0  0  0  0  0  0  0
   10.8441   13.0811    5.0583 N   0  0  0  0  0  0  0  0  0  0  0  0
  1  2  1  0  0  0  0
  1  6  1  0  0  0  0
  2  3  2  0  0  0  0
  3  4  1  0  0  0  0
  4  5  2  0  0  0  0
  4 10  1  0  0  0  0
  5  6  1  0  0  0  0
  5  8  1  0  0  0  0
  6  7  2  0  0  0  0
  8  9  1  0  0  0  0
  9 10  2  0  0  0  0
M  END
>  <CHROM.1>
11.31143308,11.81884271,6.78185495,0.38371582,-1.35391871,0.76166904

>  <Name>
ligand

>  <RI>
0

>  <Rbt.Current_Directory>
/home/itssahil/PROJECTS/Mol_Feturizer/New_Systems/rnas/2EEW

>  <Rbt.Executable>
rbdock ($Id: //depot/dev/client3/rdock/2013.1/src/exe/rbdock.cxx#4 $)

>  <Rbt.Library>
libRbt.so (2013.1, Build901 2013/11/27)

>  <Rbt.Parameter_File>
/export/apps/rDock/src/rDock_2013.1_src/data/scripts/dock_solv.prm

>  <Rbt.Receptor>
prm/pocket_docking_5.prm

>  <SCORE>
-17.1088

>  <SCORE.INTER>
-17.1088

>  <SCORE.INTER.CONST>
1

>  <SCORE.INTER.POLAR>
0

>  <SCORE.INTER.ROT>
0

>  <SCORE.INTER.SOLV>
3.52541

>  <SCORE.INTER.VDW>
-16.181

>  <SCORE.INTER.norm>
-1.71088

>  <SCORE.INTRA>
0

>  <SCORE.INTRA.DIHEDRAL>
0

>  <SCORE.INTRA.DIHEDRAL.0>
0

>  <SCORE.INTRA.POLAR>
0

>  <SCORE.INTRA.POLAR.0>
0

>  <SCORE.INTRA.REPUL>
0

>  <SCORE.INTRA.REPUL.0>
0

>  <SCORE.INTRA.SOLV>
0

>  <SCORE.INTRA.SOLV.lig_0>
-4.28901

>  <SCORE.INTRA.VDW>
0

>  <SCORE.INTRA.VDW.0>
0

>  <SCORE.INTRA.norm>
0

>  <SCORE.RESTR>
0

>  <SCORE.RESTR.CAVITY>
0

>  <SCORE.RESTR.norm>
0

>  <SCORE.SYSTEM>
0

>  <SCORE.SYSTEM.CONST>
0

>  <SCORE.SYSTEM.DIHEDRAL>
0

>  <SCORE.SYSTEM.SOLV>
0

>  <SCORE.SYSTEM.norm>
0

>  <SCORE.heavy>
10

>  <SCORE.norm>
-1.71088

>  <RMSD>
0.978

$$$$
ligand
 OpenBabel11021811423D
libRbt.so/2013.1/901 2013/11/27
 10 11  0  0  0  0  0  0  0  0999 V2000
   11.6524   11.6770    8.6898 N   0  0  0  0  0  0  0  0  0  0  0  0
   11.4041   13.0298    8.5474 C   0  0  0  0  0  0  0  0  0  0  0  0
   11.1155   13.5812    7.3607 N   0  0  0  0  0  0  0  0  0  0  0  0
   11.0984   12.6837    6.3411 C   0  0  0  0  0  0  0  0  0  0  0  0
   11.3376   11.3228    6.4112 C   0  0  0  0  0  0  0  0  0  0  0  0
   11.6444   10.7232    7.6670 C   0  0  0  0  0  0  0  0  0  0  0  0
   11.8892    9.5436    7.9581 O   0  0  0  0  0  0  0  0  0  0  0  0
   11.2190   10.8001    5.1528 N   0  0  0  0  0  0  0  0  0  0  0  0
   10.9091   11.8356    4.3334 C   0  0  0  0  0  0  0  0  0  0  0  0
   10.8283   13.0103    5.0359 N   0  0  0  0  0  0  0  0  0  0  0  0
  1  2  1  0  0  0  0
  1  6  1  0  0  0  0
  2  3  2  0  0  0  0
  3  4  1  0  0  0  0
  4  5  2  0  0  0  0
  4 10  1  0  0  0  0
  5  6  1  0  0  0  0
  5  8  1  0  0  0  0
  6  7  2  0  0  0  0
  8  9  1  0  0  0  0
  9 10  2  0  0  0  0
M  END
>  <CHROM.1>
11.32090640,11.77894758,6.77475206,0.43035419,-1.34031182,0.79395563

>  <Name>
ligand

>  <RI>
0

>  <Rbt.Current_Directory>
/home/itssahil/PROJECTS/Mol_Feturizer/New_Systems/rnas/2EEW

>  <Rbt.Executable>
rbdock ($Id: //depot/dev/client3/rdock/2013.1/src/exe/rbdock.cxx#4 $)

>  <Rbt.Library>
libRbt.so (2013.1, Build901 2013/11/27)

>  <Rbt.Parameter_File>
/export/apps/rDock/src/rDock_2013.1_src/data/scripts/dock_solv.prm

>  <Rbt.Receptor>
prm/pocket_docking_5.prm

>  <SCORE>
-17.1059

>  <SCORE.INTER>
-17.1059

>  <SCORE.INTER.CONST>
1

>  <SCORE.INTER.POLAR>
0

>  <SCORE.INTER.ROT>
0

>  <SCORE.INTER.SOLV>
3.48573

>  <SCORE.INTER.VDW>
-16.1658

>  <SCORE.INTER.norm>
-1.71059

>  <SCORE.INTRA>
0

>  <SCORE.INTRA.DIHEDRAL>
0

>  <SCORE.INTRA.DIHEDRAL.0>
0

>  <SCORE.INTRA.POLAR>
0

>  <SCORE.INTRA.POLAR.0>
0

>  <SCORE.INTRA.REPUL>
0

>  <SCORE.INTRA.REPUL.0>
0

>  <SCORE.INTRA.SOLV>
0

>  <SCORE.INTRA.SOLV.lig_0>
-4.28901

>  <SCORE.INTRA.VDW>
0

>  <SCORE.INTRA.VDW.0>
0

>  <SCORE.INTRA.norm>
0

>  <SCORE.RESTR>
0

>  <SCORE.RESTR.CAVITY>
0

>  <SCORE.RESTR.norm>
0

>  <SCORE.SYSTEM>
0

>  <SCORE.SYSTEM.CONST>
0

>  <SCORE.SYSTEM.DIHEDRAL>
0

>  <SCORE.SYSTEM.SOLV>
0

>  <SCORE.SYSTEM.norm>
0

>  <SCORE.heavy>
10

>  <SCORE.norm>
-1.71059

>  <RMSD>
0.978

$$$$
ligand
 OpenBabel11021811423D
libRbt.so/2013.1/901 2013/11/27
 10 11  0  0  0  0  0  0  0  0999 V2000
   11.6478   11.6725    8.6805 N   0  0  0  0  0  0  0  0  0  0  0  0
   11.3743   13.0219    8.5532 C   0  0  0  0  0  0  0  0  0  0  0  0
   11.0705   13.5801    7.3734 N   0  0  0  0  0  0  0  0  0  0  0  0
   11.0653   12.6930    6.3447 C   0  0  0  0  0  0  0  0  0  0  0  0
   11.3296   11.3360    6.3997 C   0  0  0  0  0  0  0  0  0  0  0  0
   11.6527   10.7292    7.6479 C   0  0  0  0  0  0  0  0  0  0  0  0
   11.9203    9.5514    7.9258 O   0  0  0  0  0  0  0  0  0  0  0  0
   11.2151   10.8242    5.1365 N   0  0  0  0  0  0  0  0  0  0  0  0
   10.8828   11.8623    4.3291 C   0  0  0  0  0  0  0  0  0  0  0  0
   10.7836   13.0279    5.0441 N   0  0  0  0  0  0  0  0  0  0  0  0
  1  2  1  0  0  0  0
  1  6  1  0  0  0  0
  2  3  2  0  0  0  0
  3  4  1  0  0  0  0
  4  5  2  0  0  0  0
  4 10  1  0  0  0  0
  5  6  1  0  0  0  0
  5  8  1  0  0  0  0
  6  7  2  0  0  0  0
  8  9  1  0  0  0  0
  9 10  2  0  0  0  0
M  END
>  <CHROM.1>
11.30616132,11.78802175,6.76802059,0.46994478,-1.32407283,0.84274437

>  <Name>
ligand

>  <RI>
0

>  <Rbt.Current_Directory>
/home/itssahil/PROJECTS/Mol_Feturizer/New_Systems/rnas/2EEW

>  <Rbt.Executable>
rbdock ($Id: //depot/dev/client3/rdock/2013.1/src/exe/rbdock.cxx#4 $)

>  <Rbt.Library>
libRbt.so (2013.1, Build901 2013/11/27)

>  <Rbt.Parameter_File>
/export/apps/rDock/src/rDock_2013.1_src/data/scripts/dock_solv.prm

>  <Rbt.Receptor>
prm/pocket_docking_4.prm

>  <SCORE>
-17.0291

>  <SCORE.INTER>
-17.0291

>  <SCORE.INTER.CONST>
1

>  <SCORE.INTER.POLAR>
0

>  <SCORE.INTER.ROT>
0

>  <SCORE.INTER.SOLV>
3.41902

>  <SCORE.INTER.VDW>
-16.0924

>  <SCORE.INTER.norm>
-1.70291

>  <SCORE.INTRA>
0

>  <SCORE.INTRA.DIHEDRAL>
0

>  <SCORE.INTRA.DIHEDRAL.0>
0

>  <SCORE.INTRA.POLAR>
0

>  <SCORE.INTRA.POLAR.0>
0

>  <SCORE.INTRA.REPUL>
0

>  <SCORE.INTRA.REPUL.0>
0

>  <SCORE.INTRA.SOLV>
0

>  <SCORE.INTRA.SOLV.lig_0>
-4.28901

>  <SCORE.INTRA.VDW>
0

>  <SCORE.INTRA.VDW.0>
0

>  <SCORE.INTRA.norm>
0

>  <SCORE.RESTR>
0

>  <SCORE.RESTR.CAVITY>
0

>  <SCORE.RESTR.norm>
0

>  <SCORE.SYSTEM>
0

>  <SCORE.SYSTEM.CONST>
0

>  <SCORE.SYSTEM.DIHEDRAL>
0

>  <SCORE.SYSTEM.SOLV>
0

>  <SCORE.SYSTEM.norm>
0

>  <SCORE.heavy>
10

>  <SCORE.norm>
-1.70291

>  <RMSD>
0.979

$$$$
ligand
 OpenBabel11021811423D
libRbt.so/2013.1/901 2013/11/27
 10 11  0  0  0  0  0  0  0  0999 V2000
   11.6638   11.7017    8.6910 N   0  0  0  0  0  0  0  0  0  0  0  0
   11.4104   13.0544    8.5571 C   0  0  0  0  0  0  0  0  0  0  0  0
   11.1107   13.6105    7.3754 N   0  0  0  0  0  0  0  0  0  0  0  0
   11.0879   12.7178    6.3518 C   0  0  0  0  0  0  0  0  0  0  0  0
   11.3317   11.3573    6.4134 C   0  0  0  0  0  0  0  0  0  0  0  0
   11.6504   10.7527    7.6639 C   0  0  0  0  0  0  0  0  0  0  0  0
   11.9010    9.5725    7.9473 O   0  0  0  0  0  0  0  0  0  0  0  0
   11.2044   10.8402    5.1536 N   0  0  0  0  0  0  0  0  0  0  0  0
   10.8849   11.8787    4.3416 C   0  0  0  0  0  0  0  0  0  0  0  0
   10.8063   13.0497    5.0504 N   0  0  0  0  0  0  0  0  0  0  0  0
  1  2  1  0  0  0  0
  1  6  1  0  0  0  0
  2  3  2  0  0  0  0
  3  4  1  0  0  0  0
  4  5  2  0  0  0  0
  4 10  1  0  0  0  0
  5  6  1  0  0  0  0
  5  8  1  0  0  0  0
  6  7  2  0  0  0  0
  8  9  1  0  0  0  0
  9 10  2  0  0  0  0
M  END
>  <CHROM.1>
11.31657664,11.81167273,6.77926102,0.41462531,-1.33252561,0.78340236

>  <Name>
ligand

>  <RI>
0

>  <Rbt.Current_Directory>
/home/itssahil/PROJECTS/Mol_Feturizer/New_Systems/rnas/2EEW

>  <Rbt.Executable>
rbdock ($Id: //depot/dev/client3/rdock/2013.1/src/exe/rbdock.cxx#4 $)

>  <Rbt.Library>
libRbt.so (2013.1, Build901 2013/11/27)

>  <Rbt.Parameter_File>
/export/apps/rDock/src/rDock_2013.1_src/data/scripts/dock_solv.prm

>  <Rbt.Receptor>
prm/blind_docking_80.prm

>  <SCORE>
-17.1159

>  <SCORE.INTER>
-17.1159

>  <SCORE.INTER.CONST>
1

>  <SCORE.INTER.POLAR>
0

>  <SCORE.INTER.ROT>
0

>  <SCORE.INTER.SOLV>
3.45247

>  <SCORE.INTER.VDW>
-16.1614

>  <SCORE.INTER.norm>
-1.71159

>  <SCORE.INTRA>
0

>  <SCORE.INTRA.DIHEDRAL>
0

>  <SCORE.INTRA.DIHEDRAL.0>
0

>  <SCORE.INTRA.POLAR>
0

>  <SCORE.INTRA.POLAR.0>
0

>  <SCORE.INTRA.REPUL>
0

>  <SCORE.INTRA.REPUL.0>
0

>  <SCORE.INTRA.SOLV>
0

>  <SCORE.INTRA.SOLV.lig_0>
-4.28901

>  <SCORE.INTRA.VDW>
0

>  <SCORE.INTRA.VDW.0>
0

>  <SCORE.INTRA.norm>
0

>  <SCORE.RESTR>
0

>  <SCORE.RESTR.CAVITY>
0

>  <SCORE.RESTR.norm>
0

>  <SCORE.SYSTEM>
0

>  <SCORE.SYSTEM.CONST>
0

>  <SCORE.SYSTEM.DIHEDRAL>
0

>  <SCORE.SYSTEM.SOLV>
0

>  <SCORE.SYSTEM.norm>
0

>  <SCORE.heavy>
10

>  <SCORE.norm>
-1.71159

>  <RMSD>
0.980

$$$$
ligand
 OpenBabel11021811423D
libRbt.so/2013.1/901 2013/11/27
 10 11  0  0  0  0  0  0  0  0999 V2000
   11.6437   11.6638    8.6850 N   0  0  0  0  0  0  0  0  0  0  0  0
   11.4392   13.0250    8.5539 C   0  0  0  0  0  0  0  0  0  0  0  0
   11.1653   13.5948    7.3724 N   0  0  0  0  0  0  0  0  0  0  0  0
   11.1160   12.7065    6.3460 C   0  0  0  0  0  0  0  0  0  0  0  0
   11.3110   11.3380    6.4047 C   0  0  0  0  0  0  0  0  0  0  0  0
   11.6017   10.7188    7.6548 C   0  0  0  0  0  0  0  0  0  0  0  0
   11.8088    9.5297    7.9359 O   0  0  0  0  0  0  0  0  0  0  0  0
   11.1717   10.8294    5.1427 N   0  0  0  0  0  0  0  0  0  0  0  0
   10.8933   11.8809    4.3323 C   0  0  0  0  0  0  0  0  0  0  0  0
   10.8529   13.0519    5.0443 N   0  0  0  0  0  0  0  0  0  0  0  0
  1  2  1  0  0  0  0
  1  6  1  0  0  0  0
  2  3  2  0  0  0  0
  3  4  1  0  0  0  0
  4  5  2  0  0  0  0
  4 10  1  0  0  0  0
  5  6  1  0  0  0  0
  5  8  1  0  0  0  0
  6  7  2  0  0  0  0
  8  9  1  0  0  0  0
  9 10  2  0  0  0  0
M  END
>  <CHROM.1>
11.31014772,11.79156841,6.77185663,0.31091375,-1.36004397,0.68524267

>  <Name>
ligand

>  <RI>
0

>  <Rbt.Current_Directory>
/home/itssahil/PROJECTS/Mol_Feturizer/New_Systems/rnas/2EEW

>  <Rbt.Executable>
rbdock ($Id: //depot/dev/client3/rdock/2013.1/src/exe/rbdock.cxx#4 $)

>  <Rbt.Library>
libRbt.so (2013.1, Build901 2013/11/27)

>  <Rbt.Parameter_File>
/export/apps/rDock/src/rDock_2013.1_src/data/scripts/dock_solv.prm

>  <Rbt.Receptor>
prm/pocket_docking_7.prm

>  <SCORE>
-17.0914

>  <SCORE.INTER>
-17.0914

>  <SCORE.INTER.CONST>
1

>  <SCORE.INTER.POLAR>
0

>  <SCORE.INTER.ROT>
0

>  <SCORE.INTER.SOLV>
3.56727

>  <SCORE.INTER.VDW>
-16.1833

>  <SCORE.INTER.norm>
-1.70914

>  <SCORE.INTRA>
0

>  <SCORE.INTRA.DIHEDRAL>
0

>  <SCORE.INTRA.DIHEDRAL.0>
0

>  <SCORE.INTRA.POLAR>
0

>  <SCORE.INTRA.POLAR.0>
0

>  <SCORE.INTRA.REPUL>
0

>  <SCORE.INTRA.REPUL.0>
0

>  <SCORE.INTRA.SOLV>
0

>  <SCORE.INTRA.SOLV.lig_0>
-4.28901

>  <SCORE.INTRA.VDW>
0

>  <SCORE.INTRA.VDW.0>
0

>  <SCORE.INTRA.norm>
0

>  <SCORE.RESTR>
0

>  <SCORE.RESTR.CAVITY>
0

>  <SCORE.RESTR.norm>
0

>  <SCORE.SYSTEM>
0

>  <SCORE.SYSTEM.CONST>
0

>  <SCORE.SYSTEM.DIHEDRAL>
0

>  <SCORE.SYSTEM.SOLV>
0

>  <SCORE.SYSTEM.norm>
0

>  <SCORE.heavy>
10

>  <SCORE.norm>
-1.70914

>  <RMSD>
0.980

$$$$
ligand
 OpenBabel11021811423D
libRbt.so/2013.1/901 2013/11/27
 10 11  0  0  0  0  0  0  0  0999 V2000
   11.6307   11.6569    8.6792 N   0  0  0  0  0  0  0  0  0  0  0  0
   11.4195   13.0186    8.5647 C   0  0  0  0  0  0  0  0  0  0  0  0
   11.1440   13.6015    7.3900 N   0  0  0  0  0  0  0  0  0  0  0  0
   11.1002   12.7257    6.3526 C   0  0  0  0  0  0  0  0  0  0  0  0
   11.3020   11.3576    6.3947 C   0  0  0  0  0  0  0  0  0  0  0  0
   11.5944   10.7245    7.6374 C   0  0  0  0  0  0  0  0  0  0  0  0
   11.8072    9.5330    7.9041 O   0  0  0  0  0  0  0  0  0  0  0  0
   11.1666   10.8638    5.1263 N   0  0  0  0  0  0  0  0  0  0  0  0
   10.8839   11.9239    4.3286 C   0  0  0  0  0  0  0  0  0  0  0  0
   10.8368   13.0858    5.0549 N   0  0  0  0  0  0  0  0  0  0  0  0
  1  2  1  0  0  0  0
  1  6  1  0  0  0  0
  2  3  2  0  0  0  0
  3  4  1  0  0  0  0
  4  5  2  0  0  0  0
  4 10  1  0  0  0  0
  5  6  1  0  0  0  0
  5  8  1  0  0  0  0
  6  7  2  0  0  0  0
  8  9  1  0  0  0  0
  9 10  2  0  0  0  0
M  END
>  <CHROM.1>
11.29852476,11.80655318,6.76738777,0.33245754,-1.35768409,0.71862596

>  <Name>
ligand

>  <RI>
0

>  <Rbt.Current_Directory>
/home/itssahil/PROJECTS/Mol_Feturizer/New_Systems/rnas/2EEW

>  <Rbt.Executable>
rbdock ($Id: //depot/dev/client3/rdock/2013.1/src/exe/rbdock.cxx#4 $)

>  <Rbt.Library>
libRbt.so (2013.1, Build901 2013/11/27)

>  <Rbt.Parameter_File>
/export/apps/rDock/src/rDock_2013.1_src/data/scripts/dock_solv.prm

>  <Rbt.Receptor>
prm/blind_docking_60.prm

>  <SCORE>
-17.1186

>  <SCORE.INTER>
-17.1186

>  <SCORE.INTER.CONST>
1

>  <SCORE.INTER.POLAR>
0

>  <SCORE.INTER.ROT>
0

>  <SCORE.INTER.SOLV>
3.53894

>  <SCORE.INTER.VDW>
-16.1921

>  <SCORE.INTER.norm>
-1.71186

>  <SCORE.INTRA>
0

>  <SCORE.INTRA.DIHEDRAL>
0

>  <SCORE.INTRA.DIHEDRAL.0>
0

>  <SCORE.INTRA.POLAR>
0

>  <SCORE.INTRA.POLAR.0>
0

>  <SCORE.INTRA.REPUL>
0

>  <SCORE.INTRA.REPUL.0>
0

>  <SCORE.INTRA.SOLV>
0

>  <SCORE.INTRA.SOLV.lig_0>
-4.28901

>  <SCORE.INTRA.VDW>
0

>  <SCORE.INTRA.VDW.0>
0

>  <SCORE.INTRA.norm>
0

>  <SCORE.RESTR>
0

>  <SCORE.RESTR.CAVITY>
0

>  <SCORE.RESTR.norm>
0

>  <SCORE.SYSTEM>
0

>  <SCORE.SYSTEM.CONST>
0

>  <SCORE.SYSTEM.DIHEDRAL>
0

>  <SCORE.SYSTEM.SOLV>
0

>  <SCORE.SYSTEM.norm>
0

>  <SCORE.heavy>
10

>  <SCORE.norm>
-1.71186

>  <RMSD>
0.981

$$$$
ligand
 OpenBabel11021811423D
libRbt.so/2013.1/901 2013/11/27
 10 11  0  0  0  0  0  0  0  0999 V2000
   11.6610   11.6333    8.6554 N   0  0  0  0  0  0  0  0  0  0  0  0
   11.4537   12.9964    8.5508 C   0  0  0  0  0  0  0  0  0  0  0  0
   11.1675   13.5869    7.3825 N   0  0  0  0  0  0  0  0  0  0  0  0
   11.1091   12.7171    6.3408 C   0  0  0  0  0  0  0  0  0  0  0  0
   11.3062   11.3480    6.3730 C   0  0  0  0  0  0  0  0  0  0  0  0
   11.6099   10.7069    7.6089 C   0  0  0  0  0  0  0  0  0  0  0  0
   11.8211    9.5132    7.8666 O   0  0  0  0  0  0  0  0  0  0  0  0
   11.1551   10.8619    5.1035 N   0  0  0  0  0  0  0  0  0  0  0  0
   10.8676   11.9274    4.3149 C   0  0  0  0  0  0  0  0  0  0  0  0
   10.8328   13.0855    5.0481 N   0  0  0  0  0  0  0  0  0  0  0  0
  1  2  1  0  0  0  0
  1  6  1  0  0  0  0
  2  3  2  0  0  0  0
  3  4  1  0  0  0  0
  4  5  2  0  0  0  0
  4 10  1  0  0  0  0
  5  6  1  0  0  0  0
  5  8  1  0  0  0  0
  6  7  2  0  0  0  0
  8  9  1  0  0  0  0
  9 10  2  0  0  0  0
M  END
>  <CHROM.1>
11.30848479,11.79491587,6.74822949,0.28635031,-1.35165766,0.67918453

>  <Name>
ligand

>  <RI>
0

>  <Rbt.Current_Directory>
/home/itssahil/PROJECTS/Mol_Feturizer/New_Systems/rnas/2EEW

>  <Rbt.Executable>
rbdock ($Id: //depot/dev/client3/rdock/2013.1/src/exe/rbdock.cxx#4 $)

>  <Rbt.Library>
libRbt.so (2013.1, Build901 2013/11/27)

>  <Rbt.Parameter_File>
/export/apps/rDock/src/rDock_2013.1_src/data/scripts/dock_solv.prm

>  <Rbt.Receptor>
prm/blind_docking_80.prm

>  <SCORE>
-17.0908

>  <SCORE.INTER>
-17.0908

>  <SCORE.INTER.CONST>
1

>  <SCORE.INTER.POLAR>
0

>  <SCORE.INTER.ROT>
0

>  <SCORE.INTER.SOLV>
3.51257

>  <SCORE.INTER.VDW>
-16.1647

>  <SCORE.INTER.norm>
-1.70908

>  <SCORE.INTRA>
0

>  <SCORE.INTRA.DIHEDRAL>
0

>  <SCORE.INTRA.DIHEDRAL.0>
0

>  <SCORE.INTRA.POLAR>
0

>  <SCORE.INTRA.POLAR.0>
0

>  <SCORE.INTRA.REPUL>
0

>  <SCORE.INTRA.REPUL.0>
0

>  <SCORE.INTRA.SOLV>
0

>  <SCORE.INTRA.SOLV.lig_0>
-4.28901

>  <SCORE.INTRA.VDW>
0

>  <SCORE.INTRA.VDW.0>
0

>  <SCORE.INTRA.norm>
0

>  <SCORE.RESTR>
0

>  <SCORE.RESTR.CAVITY>
0

>  <SCORE.RESTR.norm>
0

>  <SCORE.SYSTEM>
0

>  <SCORE.SYSTEM.CONST>
0

>  <SCORE.SYSTEM.DIHEDRAL>
0

>  <SCORE.SYSTEM.SOLV>
0

>  <SCORE.SYSTEM.norm>
0

>  <SCORE.heavy>
10

>  <SCORE.norm>
-1.70908

>  <RMSD>
0.982

$$$$
ligand
 OpenBabel11021811423D
libRbt.so/2013.1/901 2013/11/27
 10 11  0  0  0  0  0  0  0  0999 V2000
   11.6464   11.6623    8.6710 N   0  0  0  0  0  0  0  0  0  0  0  0
   11.4126   13.0207    8.5619 C   0  0  0  0  0  0  0  0  0  0  0  0
   11.1225   13.6028    7.3903 N   0  0  0  0  0  0  0  0  0  0  0  0
   11.0882   12.7297    6.3504 C   0  0  0  0  0  0  0  0  0  0  0  0
   11.3123   11.3649    6.3871 C   0  0  0  0  0  0  0  0  0  0  0  0
   11.6206   10.7327    7.6264 C   0  0  0  0  0  0  0  0  0  0  0  0
   11.8539    9.5440    7.8883 O   0  0  0  0  0  0  0  0  0  0  0  0
   11.1793   10.8731    5.1178 N   0  0  0  0  0  0  0  0  0  0  0  0
   10.8758   11.9309    4.3248 C   0  0  0  0  0  0  0  0  0  0  0  0
   10.8132   13.0896    5.0550 N   0  0  0  0  0  0  0  0  0  0  0  0
  1  2  1  0  0  0  0
  1  6  1  0  0  0  0
  2  3  2  0  0  0  0
  3  4  1  0  0  0  0
  4  5  2  0  0  0  0
  4 10  1  0  0  0  0
  5  6  1  0  0  0  0
  5  8  1  0  0  0  0
  6  7  2  0  0  0  0
  8  9  1  0  0  0  0
  9 10  2  0  0  0  0
M  END
>  <CHROM.1>
11.30325543,11.81257998,6.76125815,0.37354778,-1.34342497,0.76193322

>  <Name>
ligand

>  <RI>
0

>  <Rbt.Current_Directory>
/home/itssahil/PROJECTS/Mol_Feturizer/New_Systems/rnas/2EEW

>  <Rbt.Executable>
rbdock ($Id: //depot/dev/client3/rdock/2013.1/src/exe/rbdock.cxx#4 $)

>  <Rbt.Library>
libRbt.so (2013.1, Build901 2013/11/27)

>  <Rbt.Parameter_File>
/export/apps/rDock/src/rDock_2013.1_src/data/scripts/dock_solv.prm

>  <Rbt.Receptor>
prm/pocket_docking_6.prm

>  <SCORE>
-17.0662

>  <SCORE.INTER>
-17.0662

>  <SCORE.INTER.CONST>
1

>  <SCORE.INTER.POLAR>
0

>  <SCORE.INTER.ROT>
0

>  <SCORE.INTER.SOLV>
3.47324

>  <SCORE.INTER.VDW>
-16.1352

>  <SCORE.INTER.norm>
-1.70662

>  <SCORE.INTRA>
0

>  <SCORE.INTRA.DIHEDRAL>
0

>  <SCORE.INTRA.DIHEDRAL.0>
0

>  <SCORE.INTRA.POLAR>
0

>  <SCORE.INTRA.POLAR.0>
0

>  <SCORE.INTRA.REPUL>
0

>  <SCORE.INTRA.REPUL.0>
0

>  <SCORE.INTRA.SOLV>
0

>  <SCORE.INTRA.SOLV.lig_0>
-4.28901

>  <SCORE.INTRA.VDW>
0

>  <SCORE.INTRA.VDW.0>
0

>  <SCORE.INTRA.norm>
0

>  <SCORE.RESTR>
0

>  <SCORE.RESTR.CAVITY>
0

>  <SCORE.RESTR.norm>
0

>  <SCORE.SYSTEM>
0

>  <SCORE.SYSTEM.CONST>
0

>  <SCORE.SYSTEM.DIHEDRAL>
0

>  <SCORE.SYSTEM.SOLV>
0

>  <SCORE.SYSTEM.norm>
0

>  <SCORE.heavy>
10

>  <SCORE.norm>
-1.70662

>  <RMSD>
0.982

$$$$
ligand
 OpenBabel11021811423D
libRbt.so/2013.1/901 2013/11/27
 10 11  0  0  0  0  0  0  0  0999 V2000
   11.6418   11.6338    8.6658 N   0  0  0  0  0  0  0  0  0  0  0  0
   11.4442   12.9972    8.5480 C   0  0  0  0  0  0  0  0  0  0  0  0
   11.1726   13.5798    7.3723 N   0  0  0  0  0  0  0  0  0  0  0  0
   11.1181   12.7016    6.3374 C   0  0  0  0  0  0  0  0  0  0  0  0
   11.3062   11.3317    6.3827 C   0  0  0  0  0  0  0  0  0  0  0  0
   11.5944   10.6990    7.6267 C   0  0  0  0  0  0  0  0  0  0  0  0
   11.7956    9.5061    7.8962 O   0  0  0  0  0  0  0  0  0  0  0  0
   11.1636   10.8360    5.1160 N   0  0  0  0  0  0  0  0  0  0  0  0
   10.8902   11.8967    4.3159 C   0  0  0  0  0  0  0  0  0  0  0  0
   10.8561   13.0610    5.0391 N   0  0  0  0  0  0  0  0  0  0  0  0
  1  2  1  0  0  0  0
  1  6  1  0  0  0  0
  2  3  2  0  0  0  0
  3  4  1  0  0  0  0
  4  5  2  0  0  0  0
  4 10  1  0  0  0  0
  5  6  1  0  0  0  0
  5  8  1  0  0  0  0
  6  7  2  0  0  0  0
  8  9  1  0  0  0  0
  9 10  2  0  0  0  0
M  END
>  <CHROM.1>
11.30788274,11.78167488,6.75423731,0.29015392,-1.36282332,0.67458020

>  <Name>
ligand

>  <RI>
0

>  <Rbt.Current_Directory>
/home/itssahil/PROJECTS/Mol_Feturizer/New_Systems/rnas/2EEW

>  <Rbt.Executable>
rbdock ($Id: //depot/dev/client3/rdock/2013.1/src/exe/rbdock.cxx#4 $)

>  <Rbt.Library>
libRbt.so (2013.1, Build901 2013/11/27)

>  <Rbt.Parameter_File>
/export/apps/rDock/src/rDock_2013.1_src/data/scripts/dock_solv.prm

>  <Rbt.Receptor>
prm/pocket_docking_3.prm

>  <SCORE>
-17.0777

>  <SCORE.INTER>
-17.0777

>  <SCORE.INTER.CONST>
1

>  <SCORE.INTER.POLAR>
0

>  <SCORE.INTER.ROT>
0

>  <SCORE.INTER.SOLV>
3.56491

>  <SCORE.INTER.VDW>
-16.1734

>  <SCORE.INTER.norm>
-1.70777

>  <SCORE.INTRA>
0

>  <SCORE.INTRA.DIHEDRAL>
0

>  <SCORE.INTRA.DIHEDRAL.0>
0

>  <SCORE.INTRA.POLAR>
0

>  <SCORE.INTRA.POLAR.0>
0

>  <SCORE.INTRA.REPUL>
0

>  <SCORE.INTRA.REPUL.0>
0

>  <SCORE.INTRA.SOLV>
0

>  <SCORE.INTRA.SOLV.lig_0>
-4.28901

>  <SCORE.INTRA.VDW>
0

>  <SCORE.INTRA.VDW.0>
0

>  <SCORE.INTRA.norm>
0

>  <SCORE.RESTR>
0

>  <SCORE.RESTR.CAVITY>
0

>  <SCORE.RESTR.norm>
0

>  <SCORE.SYSTEM>
0

>  <SCORE.SYSTEM.CONST>
0

>  <SCORE.SYSTEM.DIHEDRAL>
0

>  <SCORE.SYSTEM.SOLV>
0

>  <SCORE.SYSTEM.norm>
0

>  <SCORE.heavy>
10

>  <SCORE.norm>
-1.70777

>  <RMSD>
0.983

$$$$
ligand
 OpenBabel11021811423D
libRbt.so/2013.1/901 2013/11/27
 10 11  0  0  0  0  0  0  0  0999 V2000
   11.6385   11.6567    8.6745 N   0  0  0  0  0  0  0  0  0  0  0  0
   11.4229   13.0176    8.5590 C   0  0  0  0  0  0  0  0  0  0  0  0
   11.1405   13.5981    7.3847 N   0  0  0  0  0  0  0  0  0  0  0  0
   11.0946   12.7206    6.3488 C   0  0  0  0  0  0  0  0  0  0  0  0
   11.3005   11.3531    6.3919 C   0  0  0  0  0  0  0  0  0  0  0  0
   11.6003   10.7227    7.6342 C   0  0  0  0  0  0  0  0  0  0  0  0
   11.8177    9.5322    7.9016 O   0  0  0  0  0  0  0  0  0  0  0  0
   11.1610   10.8572    5.1249 N   0  0  0  0  0  0  0  0  0  0  0  0
   10.8716   11.9152    4.3269 C   0  0  0  0  0  0  0  0  0  0  0  0
   10.8244   13.0781    5.0518 N   0  0  0  0  0  0  0  0  0  0  0  0
  1  2  1  0  0  0  0
  1  6  1  0  0  0  0
  2  3  2  0  0  0  0
  3  4  1  0  0  0  0
  4  5  2  0  0  0  0
  4 10  1  0  0  0  0
  5  6  1  0  0  0  0
  5  8  1  0  0  0  0
  6  7  2  0  0  0  0
  8  9  1  0  0  0  0
  9 10  2  0  0  0  0
M  END
>  <CHROM.1>
11.29742647,11.80263886,6.76397935,0.32903019,-1.35242906,0.71384294

>  <Name>
ligand

>  <RI>
0

>  <Rbt.Current_Directory>
/home/itssahil/PROJECTS/Mol_Feturizer/New_Systems/rnas/2EEW

>  <Rbt.Executable>
rbdock ($Id: //depot/dev/client3/rdock/2013.1/src/exe/rbdock.cxx#4 $)

>  <Rbt.Library>
libRbt.so (2013.1, Build901 2013/11/27)

>  <Rbt.Parameter_File>
/export/apps/rDock/src/rDock_2013.1_src/data/scripts/dock_solv.prm

>  <Rbt.Receptor>
prm/pocket_docking_6.prm

>  <SCORE>
-17.1128

>  <SCORE.INTER>
-17.1128

>  <SCORE.INTER.CONST>
1

>  <SCORE.INTER.POLAR>
0

>  <SCORE.INTER.ROT>
0

>  <SCORE.INTER.SOLV>
3.5232

>  <SCORE.INTER.VDW>
-16.1829

>  <SCORE.INTER.norm>
-1.71128

>  <SCORE.INTRA>
0

>  <SCORE.INTRA.DIHEDRAL>
0

>  <SCORE.INTRA.DIHEDRAL.0>
0

>  <SCORE.INTRA.POLAR>
0

>  <SCORE.INTRA.POLAR.0>
0

>  <SCORE.INTRA.REPUL>
0

>  <SCORE.INTRA.REPUL.0>
0

>  <SCORE.INTRA.SOLV>
0

>  <SCORE.INTRA.SOLV.lig_0>
-4.28901

>  <SCORE.INTRA.VDW>
0

>  <SCORE.INTRA.VDW.0>
0

>  <SCORE.INTRA.norm>
0

>  <SCORE.RESTR>
0

>  <SCORE.RESTR.CAVITY>
0

>  <SCORE.RESTR.norm>
0

>  <SCORE.SYSTEM>
0

>  <SCORE.SYSTEM.CONST>
0

>  <SCORE.SYSTEM.DIHEDRAL>
0

>  <SCORE.SYSTEM.SOLV>
0

>  <SCORE.SYSTEM.norm>
0

>  <SCORE.heavy>
10

>  <SCORE.norm>
-1.71128

>  <RMSD>
0.983

$$$$
ligand
 OpenBabel11021811423D
libRbt.so/2013.1/901 2013/11/27
 10 11  0  0  0  0  0  0  0  0999 V2000
   11.6909   11.3792    8.5170 N   0  0  0  0  0  0  0  0  0  0  0  0
   11.4497   12.7404    8.5447 C   0  0  0  0  0  0  0  0  0  0  0  0
   11.1347   13.4317    7.4408 N   0  0  0  0  0  0  0  0  0  0  0  0
   11.0838   12.6634    6.3218 C   0  0  0  0  0  0  0  0  0  0  0  0
   11.3140   11.3028    6.2216 C   0  0  0  0  0  0  0  0  0  0  0  0
   11.6486   10.5552    7.3877 C   0  0  0  0  0  0  0  0  0  0  0  0
   11.8916    9.3481    7.5285 O   0  0  0  0  0  0  0  0  0  0  0  0
   11.1584   10.9357    4.9133 N   0  0  0  0  0  0  0  0  0  0  0  0
   10.8355   12.0636    4.2326 C   0  0  0  0  0  0  0  0  0  0  0  0
   10.7823   13.1457    5.0730 N   0  0  0  0  0  0  0  0  0  0  0  0
  1  2  1  0  0  0  0
  1  6  1  0  0  0  0
  2  3  2  0  0  0  0
  3  4  1  0  0  0  0
  4  5  2  0  0  0  0
  4 10  1  0  0  0  0
  5  6  1  0  0  0  0
  5  8  1  0  0  0  0
  6  7  2  0  0  0  0
  8  9  1  0  0  0  0
  9 10  2  0  0  0  0
M  END
>  <CHROM.1>
11.31035401,11.71204856,6.63760424,0.33022494,-1.32649390,0.81701828

>  <Name>
ligand

>  <RI>
0

>  <Rbt.Current_Directory>
/home/itssahil/PROJECTS/Mol_Feturizer/New_Systems/rnas/2EEW

>  <Rbt.Executable>
rbdock ($Id: //depot/dev/client3/rdock/2013.1/src/exe/rbdock.cxx#4 $)

>  <Rbt.Library>
libRbt.so (2013.1, Build901 2013/11/27)

>  <Rbt.Parameter_File>
/export/apps/rDock/src/rDock_2013.1_src/data/scripts/dock_solv.prm

>  <Rbt.Receptor>
prm/blind_docking_40.prm

>  <SCORE>
-17.0198

>  <SCORE.INTER>
-17.0198

>  <SCORE.INTER.CONST>
1

>  <SCORE.INTER.POLAR>
0

>  <SCORE.INTER.ROT>
0

>  <SCORE.INTER.SOLV>
3.39375

>  <SCORE.INTER.VDW>
-16.0778

>  <SCORE.INTER.norm>
-1.70198

>  <SCORE.INTRA>
0

>  <SCORE.INTRA.DIHEDRAL>
0

>  <SCORE.INTRA.DIHEDRAL.0>
0

>  <SCORE.INTRA.POLAR>
0

>  <SCORE.INTRA.POLAR.0>
0

>  <SCORE.INTRA.REPUL>
0

>  <SCORE.INTRA.REPUL.0>
0

>  <SCORE.INTRA.SOLV>
0

>  <SCORE.INTRA.SOLV.lig_0>
-4.28901

>  <SCORE.INTRA.VDW>
0

>  <SCORE.INTRA.VDW.0>
0

>  <SCORE.INTRA.norm>
0

>  <SCORE.RESTR>
0

>  <SCORE.RESTR.CAVITY>
0

>  <SCORE.RESTR.norm>
0

>  <SCORE.SYSTEM>
0

>  <SCORE.SYSTEM.CONST>
0

>  <SCORE.SYSTEM.DIHEDRAL>
0

>  <SCORE.SYSTEM.SOLV>
0

>  <SCORE.SYSTEM.norm>
0

>  <SCORE.heavy>
10

>  <SCORE.norm>
-1.70198

>  <RMSD>
0.984

$$$$
ligand
 OpenBabel11021811423D
libRbt.so/2013.1/901 2013/11/27
 10 11  0  0  0  0  0  0  0  0999 V2000
   11.6153   11.6784    8.6905 N   0  0  0  0  0  0  0  0  0  0  0  0
   11.3938   13.0375    8.5654 C   0  0  0  0  0  0  0  0  0  0  0  0
   11.1220   13.6104    7.3849 N   0  0  0  0  0  0  0  0  0  0  0  0
   11.0929   12.7273    6.3531 C   0  0  0  0  0  0  0  0  0  0  0  0
   11.3056   11.3613    6.4058 C   0  0  0  0  0  0  0  0  0  0  0  0
   11.5943   10.7389    7.6548 C   0  0  0  0  0  0  0  0  0  0  0  0
   11.8149    9.5510    7.9310 O   0  0  0  0  0  0  0  0  0  0  0  0
   11.1835   10.8580    5.1399 N   0  0  0  0  0  0  0  0  0  0  0  0
   10.8978   11.9104    4.3331 C   0  0  0  0  0  0  0  0  0  0  0  0
   10.8359   13.0767    5.0512 N   0  0  0  0  0  0  0  0  0  0  0  0
  1  2  1  0  0  0  0
  1  6  1  0  0  0  0
  2  3  2  0  0  0  0
  3  4  1  0  0  0  0
  4  5  2  0  0  0  0
  4 10  1  0  0  0  0
  5  6  1  0  0  0  0
  5  8  1  0  0  0  0
  6  7  2  0  0  0  0
  8  9  1  0  0  0  0
  9 10  2  0  0  0  0
M  END
>  <CHROM.1>
11.29574787,11.81266645,6.77545091,0.38416629,-1.35741690,0.76249844

>  <Name>
ligand

>  <RI>
0

>  <Rbt.Current_Directory>
/home/itssahil/PROJECTS/Mol_Feturizer/New_Systems/rnas/2EEW

>  <Rbt.Executable>
rbdock ($Id: //depot/dev/client3/rdock/2013.1/src/exe/rbdock.cxx#4 $)

>  <Rbt.Library>
libRbt.so (2013.1, Build901 2013/11/27)

>  <Rbt.Parameter_File>
/export/apps/rDock/src/rDock_2013.1_src/data/scripts/dock_solv.prm

>  <Rbt.Receptor>
prm/blind_docking_40.prm

>  <SCORE>
-17.1201

>  <SCORE.INTER>
-17.1201

>  <SCORE.INTER.CONST>
1

>  <SCORE.INTER.POLAR>
0

>  <SCORE.INTER.ROT>
0

>  <SCORE.INTER.SOLV>
3.5393

>  <SCORE.INTER.VDW>
-16.1932

>  <SCORE.INTER.norm>
-1.71201

>  <SCORE.INTRA>
0

>  <SCORE.INTRA.DIHEDRAL>
0

>  <SCORE.INTRA.DIHEDRAL.0>
0

>  <SCORE.INTRA.POLAR>
0

>  <SCORE.INTRA.POLAR.0>
0

>  <SCORE.INTRA.REPUL>
0

>  <SCORE.INTRA.REPUL.0>
0

>  <SCORE.INTRA.SOLV>
0

>  <SCORE.INTRA.SOLV.lig_0>
-4.28901

>  <SCORE.INTRA.VDW>
0

>  <SCORE.INTRA.VDW.0>
0

>  <SCORE.INTRA.norm>
0

>  <SCORE.RESTR>
0

>  <SCORE.RESTR.CAVITY>
0

>  <SCORE.RESTR.norm>
0

>  <SCORE.SYSTEM>
0

>  <SCORE.SYSTEM.CONST>
0

>  <SCORE.SYSTEM.DIHEDRAL>
0

>  <SCORE.SYSTEM.SOLV>
0

>  <SCORE.SYSTEM.norm>
0

>  <SCORE.heavy>
10

>  <SCORE.norm>
-1.71201

>  <RMSD>
0.985

$$$$
ligand
 OpenBabel11021811423D
libRbt.so/2013.1/901 2013/11/27
 10 11  0  0  0  0  0  0  0  0999 V2000
   11.6276   11.6556    8.6759 N   0  0  0  0  0  0  0  0  0  0  0  0
   11.4189   13.0176    8.5615 C   0  0  0  0  0  0  0  0  0  0  0  0
   11.1435   13.6010    7.3870 N   0  0  0  0  0  0  0  0  0  0  0  0
   11.0971   12.7251    6.3497 C   0  0  0  0  0  0  0  0  0  0  0  0
   11.2964   11.3567    6.3917 C   0  0  0  0  0  0  0  0  0  0  0  0
   11.5887   10.7231    7.6343 C   0  0  0  0  0  0  0  0  0  0  0  0
   11.7995    9.5313    7.9008 O   0  0  0  0  0  0  0  0  0  0  0  0
   11.1590   10.8631    5.1236 N   0  0  0  0  0  0  0  0  0  0  0  0
   10.8775   11.9235    4.3260 C   0  0  0  0  0  0  0  0  0  0  0  0
   10.8332   13.0857    5.0522 N   0  0  0  0  0  0  0  0  0  0  0  0
  1  2  1  0  0  0  0
  1  6  1  0  0  0  0
  2  3  2  0  0  0  0
  3  4  1  0  0  0  0
  4  5  2  0  0  0  0
  4 10  1  0  0  0  0
  5  6  1  0  0  0  0
  5  8  1  0  0  0  0
  6  7  2  0  0  0  0
  8  9  1  0  0  0  0
  9 10  2  0  0  0  0
M  END
>  <CHROM.1>
11.29405861,11.80567271,6.76439970,0.32303740,-1.35822620,0.70932789

>  <Name>
ligand

>  <RI>
0

>  <Rbt.Current_Directory>
/home/itssahil/PROJECTS/Mol_Feturizer/New_Systems/rnas/2EEW

>  <Rbt.Executable>
rbdock ($Id: //depot/dev/client3/rdock/2013.1/src/exe/rbdock.cxx#4 $)

>  <Rbt.Library>
libRbt.so (2013.1, Build901 2013/11/27)

>  <Rbt.Parameter_File>
/export/apps/rDock/src/rDock_2013.1_src/data/scripts/dock_solv.prm

>  <Rbt.Receptor>
prm/blind_docking_40.prm

>  <SCORE>
-17.1202

>  <SCORE.INTER>
-17.1202

>  <SCORE.INTER.CONST>
1

>  <SCORE.INTER.POLAR>
0

>  <SCORE.INTER.ROT>
0

>  <SCORE.INTER.SOLV>
3.54236

>  <SCORE.INTER.VDW>
-16.1943

>  <SCORE.INTER.norm>
-1.71202

>  <SCORE.INTRA>
0

>  <SCORE.INTRA.DIHEDRAL>
0

>  <SCORE.INTRA.DIHEDRAL.0>
0

>  <SCORE.INTRA.POLAR>
0

>  <SCORE.INTRA.POLAR.0>
0

>  <SCORE.INTRA.REPUL>
0

>  <SCORE.INTRA.REPUL.0>
0

>  <SCORE.INTRA.SOLV>
0

>  <SCORE.INTRA.SOLV.lig_0>
-4.28901

>  <SCORE.INTRA.VDW>
0

>  <SCORE.INTRA.VDW.0>
0

>  <SCORE.INTRA.norm>
0

>  <SCORE.RESTR>
0

>  <SCORE.RESTR.CAVITY>
0

>  <SCORE.RESTR.norm>
0

>  <SCORE.SYSTEM>
0

>  <SCORE.SYSTEM.CONST>
0

>  <SCORE.SYSTEM.DIHEDRAL>
0

>  <SCORE.SYSTEM.SOLV>
0

>  <SCORE.SYSTEM.norm>
0

>  <SCORE.heavy>
10

>  <SCORE.norm>
-1.71202

>  <RMSD>
0.985

$$$$
ligand
 OpenBabel11021811423D
libRbt.so/2013.1/901 2013/11/27
 10 11  0  0  0  0  0  0  0  0999 V2000
   11.6001   11.6653    8.7068 N   0  0  0  0  0  0  0  0  0  0  0  0
   11.4234   13.0284    8.5562 C   0  0  0  0  0  0  0  0  0  0  0  0
   11.1669   13.5873    7.3657 N   0  0  0  0  0  0  0  0  0  0  0  0
   11.1050   12.6862    6.3512 C   0  0  0  0  0  0  0  0  0  0  0  0
   11.2723   11.3150    6.4294 C   0  0  0  0  0  0  0  0  0  0  0  0
   11.5443   10.7073    7.6894 C   0  0  0  0  0  0  0  0  0  0  0  0
   11.7262    9.5182    7.9877 O   0  0  0  0  0  0  0  0  0  0  0  0
   11.1292   10.7920    5.1737 N   0  0  0  0  0  0  0  0  0  0  0  0
   10.8760   11.8377    4.3477 C   0  0  0  0  0  0  0  0  0  0  0  0
   10.8554   13.0190    5.0435 N   0  0  0  0  0  0  0  0  0  0  0  0
  1  2  1  0  0  0  0
  1  6  1  0  0  0  0
  2  3  2  0  0  0  0
  3  4  1  0  0  0  0
  4  5  2  0  0  0  0
  4 10  1  0  0  0  0
  5  6  1  0  0  0  0
  5  8  1  0  0  0  0
  6  7  2  0  0  0  0
  8  9  1  0  0  0  0
  9 10  2  0  0  0  0
M  END
>  <CHROM.1>
11.27870136,11.77347554,6.79039597,0.24734135,-1.37619737,0.60934128

>  <Name>
ligand

>  <RI>
0

>  <Rbt.Current_Directory>
/home/itssahil/PROJECTS/Mol_Feturizer/New_Systems/rnas/2EEW

>  <Rbt.Executable>
rbdock ($Id: //depot/dev/client3/rdock/2013.1/src/exe/rbdock.cxx#4 $)

>  <Rbt.Library>
libRbt.so (2013.1, Build901 2013/11/27)

>  <Rbt.Parameter_File>
/export/apps/rDock/src/rDock_2013.1_src/data/scripts/dock_solv.prm

>  <Rbt.Receptor>
prm/blind_docking_80.prm

>  <SCORE>
-17.0664

>  <SCORE.INTER>
-17.0664

>  <SCORE.INTER.CONST>
1

>  <SCORE.INTER.POLAR>
0

>  <SCORE.INTER.ROT>
0

>  <SCORE.INTER.SOLV>
3.67165

>  <SCORE.INTER.VDW>
-16.2015

>  <SCORE.INTER.norm>
-1.70664

>  <SCORE.INTRA>
0

>  <SCORE.INTRA.DIHEDRAL>
0

>  <SCORE.INTRA.DIHEDRAL.0>
0

>  <SCORE.INTRA.POLAR>
0

>  <SCORE.INTRA.POLAR.0>
0

>  <SCORE.INTRA.REPUL>
0

>  <SCORE.INTRA.REPUL.0>
0

>  <SCORE.INTRA.SOLV>
0

>  <SCORE.INTRA.SOLV.lig_0>
-4.28901

>  <SCORE.INTRA.VDW>
0

>  <SCORE.INTRA.VDW.0>
0

>  <SCORE.INTRA.norm>
0

>  <SCORE.RESTR>
0

>  <SCORE.RESTR.CAVITY>
0

>  <SCORE.RESTR.norm>
0

>  <SCORE.SYSTEM>
0

>  <SCORE.SYSTEM.CONST>
0

>  <SCORE.SYSTEM.DIHEDRAL>
0

>  <SCORE.SYSTEM.SOLV>
0

>  <SCORE.SYSTEM.norm>
0

>  <SCORE.heavy>
10

>  <SCORE.norm>
-1.70664

>  <RMSD>
0.985

$$$$
ligand
 OpenBabel11021811423D
libRbt.so/2013.1/901 2013/11/27
 10 11  0  0  0  0  0  0  0  0999 V2000
   11.6289   11.6588    8.6797 N   0  0  0  0  0  0  0  0  0  0  0  0
   11.4323   13.0222    8.5596 C   0  0  0  0  0  0  0  0  0  0  0  0
   11.1643   13.6034    7.3823 N   0  0  0  0  0  0  0  0  0  0  0  0
   11.1123   12.7239    6.3484 C   0  0  0  0  0  0  0  0  0  0  0  0
   11.2995   11.3539    6.3961 C   0  0  0  0  0  0  0  0  0  0  0  0
   11.5839   10.7227    7.6417 C   0  0  0  0  0  0  0  0  0  0  0  0
   11.7837    9.5301    7.9133 O   0  0  0  0  0  0  0  0  0  0  0  0
   11.1602   10.8565    5.1296 N   0  0  0  0  0  0  0  0  0  0  0  0
   10.8895   11.9163    4.3274 C   0  0  0  0  0  0  0  0  0  0  0  0
   10.8541   13.0816    5.0490 N   0  0  0  0  0  0  0  0  0  0  0  0
  1  2  1  0  0  0  0
  1  6  1  0  0  0  0
  2  3  2  0  0  0  0
  3  4  1  0  0  0  0
  4  5  2  0  0  0  0
  4 10  1  0  0  0  0
  5  6  1  0  0  0  0
  5  8  1  0  0  0  0
  6  7  2  0  0  0  0
  8  9  1  0  0  0  0
  9 10  2  0  0  0  0
M  END
>  <CHROM.1>
11.30036514,11.80436444,6.76699981,0.29662682,-1.36532709,0.67958550

>  <Name>
ligand

>  <RI>
0

>  <Rbt.Current_Directory>
/home/itssahil/PROJECTS/Mol_Feturizer/New_Systems/rnas/2EEW

>  <Rbt.Executable>
rbdock ($Id: //depot/dev/client3/rdock/2013.1/src/exe/rbdock.cxx#4 $)

>  <Rbt.Library>
libRbt.so (2013.1, Build901 2013/11/27)

>  <Rbt.Parameter_File>
/export/apps/rDock/src/rDock_2013.1_src/data/scripts/dock_solv.prm

>  <Rbt.Receptor>
prm/pocket_docking_6.prm

>  <SCORE>
-17.1166

>  <SCORE.INTER>
-17.1166

>  <SCORE.INTER.CONST>
1

>  <SCORE.INTER.POLAR>
0

>  <SCORE.INTER.ROT>
0

>  <SCORE.INTER.SOLV>
3.5761

>  <SCORE.INTER.VDW>
-16.2031

>  <SCORE.INTER.norm>
-1.71166

>  <SCORE.INTRA>
0

>  <SCORE.INTRA.DIHEDRAL>
0

>  <SCORE.INTRA.DIHEDRAL.0>
0

>  <SCORE.INTRA.POLAR>
0

>  <SCORE.INTRA.POLAR.0>
0

>  <SCORE.INTRA.REPUL>
0

>  <SCORE.INTRA.REPUL.0>
0

>  <SCORE.INTRA.SOLV>
0

>  <SCORE.INTRA.SOLV.lig_0>
-4.28901

>  <SCORE.INTRA.VDW>
0

>  <SCORE.INTRA.VDW.0>
0

>  <SCORE.INTRA.norm>
0

>  <SCORE.RESTR>
0

>  <SCORE.RESTR.CAVITY>
0

>  <SCORE.RESTR.norm>
0

>  <SCORE.SYSTEM>
0

>  <SCORE.SYSTEM.CONST>
0

>  <SCORE.SYSTEM.DIHEDRAL>
0

>  <SCORE.SYSTEM.SOLV>
0

>  <SCORE.SYSTEM.norm>
0

>  <SCORE.heavy>
10

>  <SCORE.norm>
-1.71166

>  <RMSD>
0.985

$$$$
ligand
 OpenBabel11021811423D
libRbt.so/2013.1/901 2013/11/27
 10 11  0  0  0  0  0  0  0  0999 V2000
   11.6257   11.6553    8.6762 N   0  0  0  0  0  0  0  0  0  0  0  0
   11.4231   13.0183    8.5625 C   0  0  0  0  0  0  0  0  0  0  0  0
   11.1509   13.6037    7.3883 N   0  0  0  0  0  0  0  0  0  0  0  0
   11.1011   12.7287    6.3505 C   0  0  0  0  0  0  0  0  0  0  0  0
   11.2942   11.3593    6.3917 C   0  0  0  0  0  0  0  0  0  0  0  0
   11.5831   10.7237    7.6340 C   0  0  0  0  0  0  0  0  0  0  0  0
   11.7884    9.5307    7.8999 O   0  0  0  0  0  0  0  0  0  0  0  0
   11.1552   10.8671    5.1231 N   0  0  0  0  0  0  0  0  0  0  0  0
   10.8789   11.9294    4.3261 C   0  0  0  0  0  0  0  0  0  0  0  0
   10.8395   13.0912    5.0531 N   0  0  0  0  0  0  0  0  0  0  0  0
  1  2  1  0  0  0  0
  1  6  1  0  0  0  0
  2  3  2  0  0  0  0
  3  4  1  0  0  0  0
  4  5  2  0  0  0  0
  4 10  1  0  0  0  0
  5  6  1  0  0  0  0
  5  8  1  0  0  0  0
  6  7  2  0  0  0  0
  8  9  1  0  0  0  0
  9 10  2  0  0  0  0
M  END
>  <CHROM.1>
11.29371718,11.80807511,6.76463952,0.30816152,-1.36150983,0.69541730

>  <Name>
ligand

>  <RI>
0

>  <Rbt.Current_Directory>
/home/itssahil/PROJECTS/Mol_Feturizer/New_Systems/rnas/2EEW

>  <Rbt.Executable>
rbdock ($Id: //depot/dev/client3/rdock/2013.1/src/exe/rbdock.cxx#4 $)

>  <Rbt.Library>
libRbt.so (2013.1, Build901 2013/11/27)

>  <Rbt.Parameter_File>
/export/apps/rDock/src/rDock_2013.1_src/data/scripts/dock_solv.prm

>  <Rbt.Receptor>
prm/pocket_docking_6.prm

>  <SCORE>
-17.1227

>  <SCORE.INTER>
-17.1227

>  <SCORE.INTER.CONST>
1

>  <SCORE.INTER.POLAR>
0

>  <SCORE.INTER.ROT>
0

>  <SCORE.INTER.SOLV>
3.55708

>  <SCORE.INTER.VDW>
-16.2008

>  <SCORE.INTER.norm>
-1.71227

>  <SCORE.INTRA>
0

>  <SCORE.INTRA.DIHEDRAL>
0

>  <SCORE.INTRA.DIHEDRAL.0>
0

>  <SCORE.INTRA.POLAR>
0

>  <SCORE.INTRA.POLAR.0>
0

>  <SCORE.INTRA.REPUL>
0

>  <SCORE.INTRA.REPUL.0>
0

>  <SCORE.INTRA.SOLV>
0

>  <SCORE.INTRA.SOLV.lig_0>
-4.28901

>  <SCORE.INTRA.VDW>
0

>  <SCORE.INTRA.VDW.0>
0

>  <SCORE.INTRA.norm>
0

>  <SCORE.RESTR>
0

>  <SCORE.RESTR.CAVITY>
0

>  <SCORE.RESTR.norm>
0

>  <SCORE.SYSTEM>
0

>  <SCORE.SYSTEM.CONST>
0

>  <SCORE.SYSTEM.DIHEDRAL>
0

>  <SCORE.SYSTEM.SOLV>
0

>  <SCORE.SYSTEM.norm>
0

>  <SCORE.heavy>
10

>  <SCORE.norm>
-1.71227

>  <RMSD>
0.985

$$$$
ligand
 OpenBabel11021811423D
libRbt.so/2013.1/901 2013/11/27
 10 11  0  0  0  0  0  0  0  0999 V2000
   11.6323   11.6395    8.6682 N   0  0  0  0  0  0  0  0  0  0  0  0
   11.4414   13.0046    8.5580 C   0  0  0  0  0  0  0  0  0  0  0  0
   11.1707   13.5948    7.3859 N   0  0  0  0  0  0  0  0  0  0  0  0
   11.1098   12.7225    6.3464 C   0  0  0  0  0  0  0  0  0  0  0  0
   11.2909   11.3514    6.3841 C   0  0  0  0  0  0  0  0  0  0  0  0
   11.5781   10.7105    7.6241 C   0  0  0  0  0  0  0  0  0  0  0  0
   11.7737    9.5153    7.8869 O   0  0  0  0  0  0  0  0  0  0  0  0
   11.1435   10.8631    5.1150 N   0  0  0  0  0  0  0  0  0  0  0  0
   10.8740   11.9295    4.3211 C   0  0  0  0  0  0  0  0  0  0  0  0
   10.8472   13.0900    5.0506 N   0  0  0  0  0  0  0  0  0  0  0  0
  1  2  1  0  0  0  0
  1  6  1  0  0  0  0
  2  3  2  0  0  0  0
  3  4  1  0  0  0  0
  4  5  2  0  0  0  0
  4 10  1  0  0  0  0
  5  6  1  0  0  0  0
  5  8  1  0  0  0  0
  6  7  2  0  0  0  0
  8  9  1  0  0  0  0
  9 10  2  0  0  0  0
M  END
>  <CHROM.1>
11.29558414,11.79932480,6.75802291,0.26492340,-1.36452945,0.65521522

>  <Name>
ligand

>  <RI>
0

>  <Rbt.Current_Directory>
/home/itssahil/PROJECTS/Mol_Feturizer/New_Systems/rnas/2EEW

>  <Rbt.Executable>
rbdock ($Id: //depot/dev/client3/rdock/2013.1/src/exe/rbdock.cxx#4 $)

>  <Rbt.Library>
libRbt.so (2013.1, Build901 2013/11/27)

>  <Rbt.Parameter_File>
/export/apps/rDock/src/rDock_2013.1_src/data/scripts/dock_solv.prm

>  <Rbt.Receptor>
prm/pocket_docking_8.prm

>  <SCORE>
-17.0889

>  <SCORE.INTER>
-17.0889

>  <SCORE.INTER.CONST>
1

>  <SCORE.INTER.POLAR>
0

>  <SCORE.INTER.ROT>
0

>  <SCORE.INTER.SOLV>
3.57734

>  <SCORE.INTER.VDW>
-16.185

>  <SCORE.INTER.norm>
-1.70889

>  <SCORE.INTRA>
0

>  <SCORE.INTRA.DIHEDRAL>
0

>  <SCORE.INTRA.DIHEDRAL.0>
0

>  <SCORE.INTRA.POLAR>
0

>  <SCORE.INTRA.POLAR.0>
0

>  <SCORE.INTRA.REPUL>
0

>  <SCORE.INTRA.REPUL.0>
0

>  <SCORE.INTRA.SOLV>
0

>  <SCORE.INTRA.SOLV.lig_0>
-4.28901

>  <SCORE.INTRA.VDW>
0

>  <SCORE.INTRA.VDW.0>
0

>  <SCORE.INTRA.norm>
0

>  <SCORE.RESTR>
0

>  <SCORE.RESTR.CAVITY>
0

>  <SCORE.RESTR.norm>
0

>  <SCORE.SYSTEM>
0

>  <SCORE.SYSTEM.CONST>
0

>  <SCORE.SYSTEM.DIHEDRAL>
0

>  <SCORE.SYSTEM.SOLV>
0

>  <SCORE.SYSTEM.norm>
0

>  <SCORE.heavy>
10

>  <SCORE.norm>
-1.70889

>  <RMSD>
0.985

$$$$
ligand
 OpenBabel11021811423D
libRbt.so/2013.1/901 2013/11/27
 10 11  0  0  0  0  0  0  0  0999 V2000
   11.6218   11.6529    8.6762 N   0  0  0  0  0  0  0  0  0  0  0  0
   11.4126   13.0144    8.5553 C   0  0  0  0  0  0  0  0  0  0  0  0
   11.1444   13.5931    7.3768 N   0  0  0  0  0  0  0  0  0  0  0  0
   11.1058   12.7133    6.3426 C   0  0  0  0  0  0  0  0  0  0  0  0
   11.3061   11.3452    6.3910 C   0  0  0  0  0  0  0  0  0  0  0  0
   11.5908   10.7166    7.6378 C   0  0  0  0  0  0  0  0  0  0  0  0
   11.8009    9.5260    7.9102 O   0  0  0  0  0  0  0  0  0  0  0  0
   11.1776   10.8468    5.1238 N   0  0  0  0  0  0  0  0  0  0  0  0
   10.9005   11.9040    4.3204 C   0  0  0  0  0  0  0  0  0  0  0  0
   10.8502   13.0688    5.0420 N   0  0  0  0  0  0  0  0  0  0  0  0
  1  2  1  0  0  0  0
  1  6  1  0  0  0  0
  2  3  2  0  0  0  0
  3  4  1  0  0  0  0
  4  5  2  0  0  0  0
  4 10  1  0  0  0  0
  5  6  1  0  0  0  0
  5  8  1  0  0  0  0
  6  7  2  0  0  0  0
  8  9  1  0  0  0  0
  9 10  2  0  0  0  0
M  END
>  <CHROM.1>
11.30088650,11.79563175,6.76195253,0.34756945,-1.36260238,0.72960574

>  <Name>
ligand

>  <RI>
0

>  <Rbt.Current_Directory>
/home/itssahil/PROJECTS/Mol_Feturizer/New_Systems/rnas/2EEW

>  <Rbt.Executable>
rbdock ($Id: //depot/dev/client3/rdock/2013.1/src/exe/rbdock.cxx#4 $)

>  <Rbt.Library>
libRbt.so (2013.1, Build901 2013/11/27)

>  <Rbt.Parameter_File>
/export/apps/rDock/src/rDock_2013.1_src/data/scripts/dock_solv.prm

>  <Rbt.Receptor>
prm/pocket_docking_3.prm

>  <SCORE>
-17.1128

>  <SCORE.INTER>
-17.1128

>  <SCORE.INTER.CONST>
1

>  <SCORE.INTER.POLAR>
0

>  <SCORE.INTER.ROT>
0

>  <SCORE.INTER.SOLV>
3.5552

>  <SCORE.INTER.VDW>
-16.1936

>  <SCORE.INTER.norm>
-1.71128

>  <SCORE.INTRA>
0

>  <SCORE.INTRA.DIHEDRAL>
0

>  <SCORE.INTRA.DIHEDRAL.0>
0

>  <SCORE.INTRA.POLAR>
0

>  <SCORE.INTRA.POLAR.0>
0

>  <SCORE.INTRA.REPUL>
0

>  <SCORE.INTRA.REPUL.0>
0

>  <SCORE.INTRA.SOLV>
0

>  <SCORE.INTRA.SOLV.lig_0>
-4.28901

>  <SCORE.INTRA.VDW>
0

>  <SCORE.INTRA.VDW.0>
0

>  <SCORE.INTRA.norm>
0

>  <SCORE.RESTR>
0

>  <SCORE.RESTR.CAVITY>
0

>  <SCORE.RESTR.norm>
0

>  <SCORE.SYSTEM>
0

>  <SCORE.SYSTEM.CONST>
0

>  <SCORE.SYSTEM.DIHEDRAL>
0

>  <SCORE.SYSTEM.SOLV>
0

>  <SCORE.SYSTEM.norm>
0

>  <SCORE.heavy>
10

>  <SCORE.norm>
-1.71128

>  <RMSD>
0.986

$$$$
ligand
 OpenBabel11021811423D
libRbt.so/2013.1/901 2013/11/27
 10 11  0  0  0  0  0  0  0  0999 V2000
   11.6243   11.6356    8.6747 N   0  0  0  0  0  0  0  0  0  0  0  0
   11.4365   12.9992    8.5438 C   0  0  0  0  0  0  0  0  0  0  0  0
   11.1770   13.5735    7.3612 N   0  0  0  0  0  0  0  0  0  0  0  0
   11.1240   12.6869    6.3335 C   0  0  0  0  0  0  0  0  0  0  0  0
   11.3027   11.3162    6.3919 C   0  0  0  0  0  0  0  0  0  0  0  0
   11.5779   10.6923    7.6432 C   0  0  0  0  0  0  0  0  0  0  0  0
   11.7693    9.5005    7.9243 O   0  0  0  0  0  0  0  0  0  0  0  0
   11.1657   10.8105    5.1284 N   0  0  0  0  0  0  0  0  0  0  0  0
   10.9049   11.8661    4.3174 C   0  0  0  0  0  0  0  0  0  0  0  0
   10.8735   13.0367    5.0305 N   0  0  0  0  0  0  0  0  0  0  0  0
  1  2  1  0  0  0  0
  1  6  1  0  0  0  0
  2  3  2  0  0  0  0
  3  4  1  0  0  0  0
  4  5  2  0  0  0  0
  4 10  1  0  0  0  0
  5  6  1  0  0  0  0
  5  8  1  0  0  0  0
  6  7  2  0  0  0  0
  8  9  1  0  0  0  0
  9 10  2  0  0  0  0
M  END
>  <CHROM.1>
11.30473348,11.76927381,6.75956478,0.28611262,-1.37244592,0.66206204

>  <Name>
ligand

>  <RI>
0

>  <Rbt.Current_Directory>
/home/itssahil/PROJECTS/Mol_Feturizer/New_Systems/rnas/2EEW

>  <Rbt.Executable>
rbdock ($Id: //depot/dev/client3/rdock/2013.1/src/exe/rbdock.cxx#4 $)

>  <Rbt.Library>
libRbt.so (2013.1, Build901 2013/11/27)

>  <Rbt.Parameter_File>
/export/apps/rDock/src/rDock_2013.1_src/data/scripts/dock_solv.prm

>  <Rbt.Receptor>
prm/pocket_docking_5.prm

>  <SCORE>
-17.0827

>  <SCORE.INTER>
-17.0827

>  <SCORE.INTER.CONST>
1

>  <SCORE.INTER.POLAR>
0

>  <SCORE.INTER.ROT>
0

>  <SCORE.INTER.SOLV>
3.61446

>  <SCORE.INTER.VDW>
-16.1933

>  <SCORE.INTER.norm>
-1.70827

>  <SCORE.INTRA>
0

>  <SCORE.INTRA.DIHEDRAL>
0

>  <SCORE.INTRA.DIHEDRAL.0>
0

>  <SCORE.INTRA.POLAR>
0

>  <SCORE.INTRA.POLAR.0>
0

>  <SCORE.INTRA.REPUL>
0

>  <SCORE.INTRA.REPUL.0>
0

>  <SCORE.INTRA.SOLV>
0

>  <SCORE.INTRA.SOLV.lig_0>
-4.28901

>  <SCORE.INTRA.VDW>
0

>  <SCORE.INTRA.VDW.0>
0

>  <SCORE.INTRA.norm>
0

>  <SCORE.RESTR>
0

>  <SCORE.RESTR.CAVITY>
0

>  <SCORE.RESTR.norm>
0

>  <SCORE.SYSTEM>
0

>  <SCORE.SYSTEM.CONST>
0

>  <SCORE.SYSTEM.DIHEDRAL>
0

>  <SCORE.SYSTEM.SOLV>
0

>  <SCORE.SYSTEM.norm>
0

>  <SCORE.heavy>
10

>  <SCORE.norm>
-1.70827

>  <RMSD>
0.986

$$$$
ligand
 OpenBabel11021811423D
libRbt.so/2013.1/901 2013/11/27
 10 11  0  0  0  0  0  0  0  0999 V2000
   11.6362   11.6583    8.6725 N   0  0  0  0  0  0  0  0  0  0  0  0
   11.4293   13.0204    8.5561 C   0  0  0  0  0  0  0  0  0  0  0  0
   11.1509   13.6019    7.3814 N   0  0  0  0  0  0  0  0  0  0  0  0
   11.0996   12.7241    6.3460 C   0  0  0  0  0  0  0  0  0  0  0  0
   11.2967   11.3554    6.3901 C   0  0  0  0  0  0  0  0  0  0  0  0
   11.5923   10.7238    7.6329 C   0  0  0  0  0  0  0  0  0  0  0  0
   11.8020    9.5322    7.9011 O   0  0  0  0  0  0  0  0  0  0  0  0
   11.1542   10.8595    5.1234 N   0  0  0  0  0  0  0  0  0  0  0  0
   10.8718   11.9189    4.3247 C   0  0  0  0  0  0  0  0  0  0  0  0
   10.8319   13.0825    5.0487 N   0  0  0  0  0  0  0  0  0  0  0  0
  1  2  1  0  0  0  0
  1  6  1  0  0  0  0
  2  3  2  0  0  0  0
  3  4  1  0  0  0  0
  4  5  2  0  0  0  0
  4 10  1  0  0  0  0
  5  6  1  0  0  0  0
  5  8  1  0  0  0  0
  6  7  2  0  0  0  0
  8  9  1  0  0  0  0
  9 10  2  0  0  0  0
M  END
>  <CHROM.1>
11.29643108,11.80513589,6.76186021,0.30680908,-1.35668106,0.69148371

>  <Name>
ligand

>  <RI>
0

>  <Rbt.Current_Directory>
/home/itssahil/PROJECTS/Mol_Feturizer/New_Systems/rnas/2EEW

>  <Rbt.Executable>
rbdock ($Id: //depot/dev/client3/rdock/2013.1/src/exe/rbdock.cxx#4 $)

>  <Rbt.Library>
libRbt.so (2013.1, Build901 2013/11/27)

>  <Rbt.Parameter_File>
/export/apps/rDock/src/rDock_2013.1_src/data/scripts/dock_solv.prm

>  <Rbt.Receptor>
prm/pocket_docking_5.prm

>  <SCORE>
-17.116

>  <SCORE.INTER>
-17.116

>  <SCORE.INTER.CONST>
1

>  <SCORE.INTER.POLAR>
0

>  <SCORE.INTER.ROT>
0

>  <SCORE.INTER.SOLV>
3.54119

>  <SCORE.INTER.VDW>
-16.191

>  <SCORE.INTER.norm>
-1.7116

>  <SCORE.INTRA>
0

>  <SCORE.INTRA.DIHEDRAL>
0

>  <SCORE.INTRA.DIHEDRAL.0>
0

>  <SCORE.INTRA.POLAR>
0

>  <SCORE.INTRA.POLAR.0>
0

>  <SCORE.INTRA.REPUL>
0

>  <SCORE.INTRA.REPUL.0>
0

>  <SCORE.INTRA.SOLV>
0

>  <SCORE.INTRA.SOLV.lig_0>
-4.28901

>  <SCORE.INTRA.VDW>
0

>  <SCORE.INTRA.VDW.0>
0

>  <SCORE.INTRA.norm>
0

>  <SCORE.RESTR>
0

>  <SCORE.RESTR.CAVITY>
0

>  <SCORE.RESTR.norm>
0

>  <SCORE.SYSTEM>
0

>  <SCORE.SYSTEM.CONST>
0

>  <SCORE.SYSTEM.DIHEDRAL>
0

>  <SCORE.SYSTEM.SOLV>
0

>  <SCORE.SYSTEM.norm>
0

>  <SCORE.heavy>
10

>  <SCORE.norm>
-1.7116

>  <RMSD>
0.986

$$$$
ligand
 OpenBabel11021811423D
libRbt.so/2013.1/901 2013/11/27
 10 11  0  0  0  0  0  0  0  0999 V2000
   11.6580   11.6331    8.6517 N   0  0  0  0  0  0  0  0  0  0  0  0
   11.4353   12.9932    8.5402 C   0  0  0  0  0  0  0  0  0  0  0  0
   11.1508   13.5758    7.3675 N   0  0  0  0  0  0  0  0  0  0  0  0
   11.1104   12.7013    6.3289 C   0  0  0  0  0  0  0  0  0  0  0  0
   11.3235   11.3349    6.3679 C   0  0  0  0  0  0  0  0  0  0  0  0
   11.6257   10.7021    7.6085 C   0  0  0  0  0  0  0  0  0  0  0  0
   11.8491    9.5120    7.8724 O   0  0  0  0  0  0  0  0  0  0  0  0
   11.1876   10.8421    5.0993 N   0  0  0  0  0  0  0  0  0  0  0  0
   10.8933   11.9011    4.3043 C   0  0  0  0  0  0  0  0  0  0  0  0
   10.8394   13.0615    5.0327 N   0  0  0  0  0  0  0  0  0  0  0  0
  1  2  1  0  0  0  0
  1  6  1  0  0  0  0
  2  3  2  0  0  0  0
  3  4  1  0  0  0  0
  4  5  2  0  0  0  0
  4 10  1  0  0  0  0
  5  6  1  0  0  0  0
  5  8  1  0  0  0  0
  6  7  2  0  0  0  0
  8  9  1  0  0  0  0
  9 10  2  0  0  0  0
M  END
>  <CHROM.1>
11.31775011,11.78319915,6.74138036,0.34963559,-1.34953077,0.73705304

>  <Name>
ligand

>  <RI>
0

>  <Rbt.Current_Directory>
/home/itssahil/PROJECTS/Mol_Feturizer/New_Systems/rnas/2EEW

>  <Rbt.Executable>
rbdock ($Id: //depot/dev/client3/rdock/2013.1/src/exe/rbdock.cxx#4 $)

>  <Rbt.Library>
libRbt.so (2013.1, Build901 2013/11/27)

>  <Rbt.Parameter_File>
/export/apps/rDock/src/rDock_2013.1_src/data/scripts/dock_solv.prm

>  <Rbt.Receptor>
prm/pocket_docking_6.prm

>  <SCORE>
-17.0733

>  <SCORE.INTER>
-17.0733

>  <SCORE.INTER.CONST>
1

>  <SCORE.INTER.POLAR>
0

>  <SCORE.INTER.ROT>
0

>  <SCORE.INTER.SOLV>
3.49158

>  <SCORE.INTER.VDW>
-16.146

>  <SCORE.INTER.norm>
-1.70733

>  <SCORE.INTRA>
0

>  <SCORE.INTRA.DIHEDRAL>
0

>  <SCORE.INTRA.DIHEDRAL.0>
0

>  <SCORE.INTRA.POLAR>
0

>  <SCORE.INTRA.POLAR.0>
0

>  <SCORE.INTRA.REPUL>
0

>  <SCORE.INTRA.REPUL.0>
0

>  <SCORE.INTRA.SOLV>
0

>  <SCORE.INTRA.SOLV.lig_0>
-4.28901

>  <SCORE.INTRA.VDW>
0

>  <SCORE.INTRA.VDW.0>
0

>  <SCORE.INTRA.norm>
0

>  <SCORE.RESTR>
0

>  <SCORE.RESTR.CAVITY>
0

>  <SCORE.RESTR.norm>
0

>  <SCORE.SYSTEM>
0

>  <SCORE.SYSTEM.CONST>
0

>  <SCORE.SYSTEM.DIHEDRAL>
0

>  <SCORE.SYSTEM.SOLV>
0

>  <SCORE.SYSTEM.norm>
0

>  <SCORE.heavy>
10

>  <SCORE.norm>
-1.70733

>  <RMSD>
0.986

$$$$
ligand
 OpenBabel11021811423D
libRbt.so/2013.1/901 2013/11/27
 10 11  0  0  0  0  0  0  0  0999 V2000
   11.6324   11.6376    8.6654 N   0  0  0  0  0  0  0  0  0  0  0  0
   11.4419   13.0027    8.5555 C   0  0  0  0  0  0  0  0  0  0  0  0
   11.1699   13.5930    7.3837 N   0  0  0  0  0  0  0  0  0  0  0  0
   11.1074   12.7208    6.3443 C   0  0  0  0  0  0  0  0  0  0  0  0
   11.2880   11.3496    6.3817 C   0  0  0  0  0  0  0  0  0  0  0  0
   11.5765   10.7086    7.6214 C   0  0  0  0  0  0  0  0  0  0  0  0
   11.7719    9.5133    7.8839 O   0  0  0  0  0  0  0  0  0  0  0  0
   11.1387   10.8615    5.1128 N   0  0  0  0  0  0  0  0  0  0  0  0
   10.8687   11.9279    4.3193 C   0  0  0  0  0  0  0  0  0  0  0  0
   10.8434   13.0885    5.0488 N   0  0  0  0  0  0  0  0  0  0  0  0
  1  2  1  0  0  0  0
  1  6  1  0  0  0  0
  2  3  2  0  0  0  0
  3  4  1  0  0  0  0
  4  5  2  0  0  0  0
  4 10  1  0  0  0  0
  5  6  1  0  0  0  0
  5  8  1  0  0  0  0
  6  7  2  0  0  0  0
  8  9  1  0  0  0  0
  9 10  2  0  0  0  0
M  END
>  <CHROM.1>
11.29331599,11.79756142,6.75565627,0.25960972,-1.36378506,0.65004237

>  <Name>
ligand

>  <RI>
0

>  <Rbt.Current_Directory>
/home/itssahil/PROJECTS/Mol_Feturizer/New_Systems/rnas/2EEW

>  <Rbt.Executable>
rbdock ($Id: //depot/dev/client3/rdock/2013.1/src/exe/rbdock.cxx#4 $)

>  <Rbt.Library>
libRbt.so (2013.1, Build901 2013/11/27)

>  <Rbt.Parameter_File>
/export/apps/rDock/src/rDock_2013.1_src/data/scripts/dock_solv.prm

>  <Rbt.Receptor>
prm/pocket_docking_6.prm

>  <SCORE>
-17.0873

>  <SCORE.INTER>
-17.0873

>  <SCORE.INTER.CONST>
1

>  <SCORE.INTER.POLAR>
0

>  <SCORE.INTER.ROT>
0

>  <SCORE.INTER.SOLV>
3.57717

>  <SCORE.INTER.VDW>
-16.1839

>  <SCORE.INTER.norm>
-1.70873

>  <SCORE.INTRA>
0

>  <SCORE.INTRA.DIHEDRAL>
0

>  <SCORE.INTRA.DIHEDRAL.0>
0

>  <SCORE.INTRA.POLAR>
0

>  <SCORE.INTRA.POLAR.0>
0

>  <SCORE.INTRA.REPUL>
0

>  <SCORE.INTRA.REPUL.0>
0

>  <SCORE.INTRA.SOLV>
0

>  <SCORE.INTRA.SOLV.lig_0>
-4.28901

>  <SCORE.INTRA.VDW>
0

>  <SCORE.INTRA.VDW.0>
0

>  <SCORE.INTRA.norm>
0

>  <SCORE.RESTR>
0

>  <SCORE.RESTR.CAVITY>
0

>  <SCORE.RESTR.norm>
0

>  <SCORE.SYSTEM>
0

>  <SCORE.SYSTEM.CONST>
0

>  <SCORE.SYSTEM.DIHEDRAL>
0

>  <SCORE.SYSTEM.SOLV>
0

>  <SCORE.SYSTEM.norm>
0

>  <SCORE.heavy>
10

>  <SCORE.norm>
-1.70873

>  <RMSD>
0.986

$$$$
ligand
 OpenBabel11021811423D
libRbt.so/2013.1/901 2013/11/27
 10 11  0  0  0  0  0  0  0  0999 V2000
   11.6243   11.6550    8.6770 N   0  0  0  0  0  0  0  0  0  0  0  0
   11.4237   13.0181    8.5613 C   0  0  0  0  0  0  0  0  0  0  0  0
   11.1549   13.6025    7.3858 N   0  0  0  0  0  0  0  0  0  0  0  0
   11.1063   12.7264    6.3489 C   0  0  0  0  0  0  0  0  0  0  0  0
   11.2975   11.3568    6.3920 C   0  0  0  0  0  0  0  0  0  0  0  0
   11.5829   10.7222    7.6357 C   0  0  0  0  0  0  0  0  0  0  0  0
   11.7860    9.5293    7.9034 O   0  0  0  0  0  0  0  0  0  0  0  0
   11.1607   10.8634    5.1238 N   0  0  0  0  0  0  0  0  0  0  0  0
   10.8876   11.9251    4.3249 C   0  0  0  0  0  0  0  0  0  0  0  0
   10.8480   13.0878    5.0505 N   0  0  0  0  0  0  0  0  0  0  0  0
  1  2  1  0  0  0  0
  1  6  1  0  0  0  0
  2  3  2  0  0  0  0
  3  4  1  0  0  0  0
  4  5  2  0  0  0  0
  4 10  1  0  0  0  0
  5  6  1  0  0  0  0
  5  8  1  0  0  0  0
  6  7  2  0  0  0  0
  8  9  1  0  0  0  0
  9 10  2  0  0  0  0
M  END
>  <CHROM.1>
11.29680113,11.80603076,6.76450302,0.31040418,-1.36403647,0.69647955

>  <Name>
ligand

>  <RI>
0

>  <Rbt.Current_Directory>
/home/itssahil/PROJECTS/Mol_Feturizer/New_Systems/rnas/2EEW

>  <Rbt.Executable>
rbdock ($Id: //depot/dev/client3/rdock/2013.1/src/exe/rbdock.cxx#4 $)

>  <Rbt.Library>
libRbt.so (2013.1, Build901 2013/11/27)

>  <Rbt.Parameter_File>
/export/apps/rDock/src/rDock_2013.1_src/data/scripts/dock_solv.prm

>  <Rbt.Receptor>
prm/pocket_docking_8.prm

>  <SCORE>
-17.1228

>  <SCORE.INTER>
-17.1228

>  <SCORE.INTER.CONST>
1

>  <SCORE.INTER.POLAR>
0

>  <SCORE.INTER.ROT>
0

>  <SCORE.INTER.SOLV>
3.56558

>  <SCORE.INTER.VDW>
-16.2038

>  <SCORE.INTER.norm>
-1.71228

>  <SCORE.INTRA>
0

>  <SCORE.INTRA.DIHEDRAL>
0

>  <SCORE.INTRA.DIHEDRAL.0>
0

>  <SCORE.INTRA.POLAR>
0

>  <SCORE.INTRA.POLAR.0>
0

>  <SCORE.INTRA.REPUL>
0

>  <SCORE.INTRA.REPUL.0>
0

>  <SCORE.INTRA.SOLV>
0

>  <SCORE.INTRA.SOLV.lig_0>
-4.28901

>  <SCORE.INTRA.VDW>
0

>  <SCORE.INTRA.VDW.0>
0

>  <SCORE.INTRA.norm>
0

>  <SCORE.RESTR>
0

>  <SCORE.RESTR.CAVITY>
0

>  <SCORE.RESTR.norm>
0

>  <SCORE.SYSTEM>
0

>  <SCORE.SYSTEM.CONST>
0

>  <SCORE.SYSTEM.DIHEDRAL>
0

>  <SCORE.SYSTEM.SOLV>
0

>  <SCORE.SYSTEM.norm>
0

>  <SCORE.heavy>
10

>  <SCORE.norm>
-1.71228

>  <RMSD>
0.986

$$$$
ligand
 OpenBabel11021811423D
libRbt.so/2013.1/901 2013/11/27
 10 11  0  0  0  0  0  0  0  0999 V2000
   11.6136   11.6891    8.7163 N   0  0  0  0  0  0  0  0  0  0  0  0
   11.3966   13.0427    8.5359 C   0  0  0  0  0  0  0  0  0  0  0  0
   11.1242   13.5676    7.3335 N   0  0  0  0  0  0  0  0  0  0  0  0
   11.0895   12.6431    6.3389 C   0  0  0  0  0  0  0  0  0  0  0  0
   11.2975   11.2795    6.4472 C   0  0  0  0  0  0  0  0  0  0  0  0
   11.5868   10.7079    7.7201 C   0  0  0  0  0  0  0  0  0  0  0  0
   11.8039    9.5316    8.0443 O   0  0  0  0  0  0  0  0  0  0  0  0
   11.1707   10.7252    5.2032 N   0  0  0  0  0  0  0  0  0  0  0  0
   10.8869   11.7445    4.3545 C   0  0  0  0  0  0  0  0  0  0  0  0
   10.8308   12.9396    5.0243 N   0  0  0  0  0  0  0  0  0  0  0  0
  1  2  1  0  0  0  0
  1  6  1  0  0  0  0
  2  3  2  0  0  0  0
  3  4  1  0  0  0  0
  4  5  2  0  0  0  0
  4 10  1  0  0  0  0
  5  6  1  0  0  0  0
  5  8  1  0  0  0  0
  6  7  2  0  0  0  0
  8  9  1  0  0  0  0
  9 10  2  0  0  0  0
M  END
>  <CHROM.1>
11.29010873,11.74576354,6.79801265,0.36446679,-1.35816840,0.70216875

>  <Name>
ligand

>  <RI>
0

>  <Rbt.Current_Directory>
/home/itssahil/PROJECTS/Mol_Feturizer/New_Systems/rnas/2EEW

>  <Rbt.Executable>
rbdock ($Id: //depot/dev/client3/rdock/2013.1/src/exe/rbdock.cxx#4 $)

>  <Rbt.Library>
libRbt.so (2013.1, Build901 2013/11/27)

>  <Rbt.Parameter_File>
/export/apps/rDock/src/rDock_2013.1_src/data/scripts/dock_solv.prm

>  <Rbt.Receptor>
prm/blind_docking_80.prm

>  <SCORE>
-17.0823

>  <SCORE.INTER>
-17.0823

>  <SCORE.INTER.CONST>
1

>  <SCORE.INTER.POLAR>
0

>  <SCORE.INTER.ROT>
0

>  <SCORE.INTER.SOLV>
3.61151

>  <SCORE.INTER.VDW>
-16.1921

>  <SCORE.INTER.norm>
-1.70823

>  <SCORE.INTRA>
0

>  <SCORE.INTRA.DIHEDRAL>
0

>  <SCORE.INTRA.DIHEDRAL.0>
0

>  <SCORE.INTRA.POLAR>
0

>  <SCORE.INTRA.POLAR.0>
0

>  <SCORE.INTRA.REPUL>
0

>  <SCORE.INTRA.REPUL.0>
0

>  <SCORE.INTRA.SOLV>
0

>  <SCORE.INTRA.SOLV.lig_0>
-4.28901

>  <SCORE.INTRA.VDW>
0

>  <SCORE.INTRA.VDW.0>
0

>  <SCORE.INTRA.norm>
0

>  <SCORE.RESTR>
0

>  <SCORE.RESTR.CAVITY>
0

>  <SCORE.RESTR.norm>
0

>  <SCORE.SYSTEM>
0

>  <SCORE.SYSTEM.CONST>
0

>  <SCORE.SYSTEM.DIHEDRAL>
0

>  <SCORE.SYSTEM.SOLV>
0

>  <SCORE.SYSTEM.norm>
0

>  <SCORE.heavy>
10

>  <SCORE.norm>
-1.70823

>  <RMSD>
0.987

$$$$
ligand
 OpenBabel11021811423D
libRbt.so/2013.1/901 2013/11/27
 10 11  0  0  0  0  0  0  0  0999 V2000
   11.6214   11.6532    8.6744 N   0  0  0  0  0  0  0  0  0  0  0  0
   11.4142   13.0152    8.5574 C   0  0  0  0  0  0  0  0  0  0  0  0
   11.1440   13.5973    7.3810 N   0  0  0  0  0  0  0  0  0  0  0  0
   11.1011   12.7201    6.3448 C   0  0  0  0  0  0  0  0  0  0  0  0
   11.2990   11.3515    6.3893 C   0  0  0  0  0  0  0  0  0  0  0  0
   11.5859   10.7194    7.6339 C   0  0  0  0  0  0  0  0  0  0  0  0
   11.7947    9.5277    7.9029 O   0  0  0  0  0  0  0  0  0  0  0  0
   11.1663   10.8563    5.1213 N   0  0  0  0  0  0  0  0  0  0  0  0
   10.8889   11.9160    4.3212 C   0  0  0  0  0  0  0  0  0  0  0  0
   10.8427   13.0791    5.0457 N   0  0  0  0  0  0  0  0  0  0  0  0
  1  2  1  0  0  0  0
  1  6  1  0  0  0  0
  2  3  2  0  0  0  0
  3  4  1  0  0  0  0
  4  5  2  0  0  0  0
  4 10  1  0  0  0  0
  5  6  1  0  0  0  0
  5  8  1  0  0  0  0
  6  7  2  0  0  0  0
  8  9  1  0  0  0  0
  9 10  2  0  0  0  0
M  END
>  <CHROM.1>
11.29560516,11.80100286,6.76141470,0.33266495,-1.36178768,0.71742257

>  <Name>
ligand

>  <RI>
0

>  <Rbt.Current_Directory>
/home/itssahil/PROJECTS/Mol_Feturizer/New_Systems/rnas/2EEW

>  <Rbt.Executable>
rbdock ($Id: //depot/dev/client3/rdock/2013.1/src/exe/rbdock.cxx#4 $)

>  <Rbt.Library>
libRbt.so (2013.1, Build901 2013/11/27)

>  <Rbt.Parameter_File>
/export/apps/rDock/src/rDock_2013.1_src/data/scripts/dock_solv.prm

>  <Rbt.Receptor>
prm/pocket_docking_5.prm

>  <SCORE>
-17.1208

>  <SCORE.INTER>
-17.1208

>  <SCORE.INTER.CONST>
1

>  <SCORE.INTER.POLAR>
0

>  <SCORE.INTER.ROT>
0

>  <SCORE.INTER.SOLV>
3.55302

>  <SCORE.INTER.VDW>
-16.1982

>  <SCORE.INTER.norm>
-1.71208

>  <SCORE.INTRA>
0

>  <SCORE.INTRA.DIHEDRAL>
0

>  <SCORE.INTRA.DIHEDRAL.0>
0

>  <SCORE.INTRA.POLAR>
0

>  <SCORE.INTRA.POLAR.0>
0

>  <SCORE.INTRA.REPUL>
0

>  <SCORE.INTRA.REPUL.0>
0

>  <SCORE.INTRA.SOLV>
0

>  <SCORE.INTRA.SOLV.lig_0>
-4.28901

>  <SCORE.INTRA.VDW>
0

>  <SCORE.INTRA.VDW.0>
0

>  <SCORE.INTRA.norm>
0

>  <SCORE.RESTR>
0

>  <SCORE.RESTR.CAVITY>
0

>  <SCORE.RESTR.norm>
0

>  <SCORE.SYSTEM>
0

>  <SCORE.SYSTEM.CONST>
0

>  <SCORE.SYSTEM.DIHEDRAL>
0

>  <SCORE.SYSTEM.SOLV>
0

>  <SCORE.SYSTEM.norm>
0

>  <SCORE.heavy>
10

>  <SCORE.norm>
-1.71208

>  <RMSD>
0.987

$$$$
ligand
 OpenBabel11021811423D
libRbt.so/2013.1/901 2013/11/27
 10 11  0  0  0  0  0  0  0  0999 V2000
   11.6194   11.6557    8.6778 N   0  0  0  0  0  0  0  0  0  0  0  0
   11.4277   13.0201    8.5614 C   0  0  0  0  0  0  0  0  0  0  0  0
   11.1617   13.6054    7.3857 N   0  0  0  0  0  0  0  0  0  0  0  0
   11.1064   12.7290    6.3494 C   0  0  0  0  0  0  0  0  0  0  0  0
   11.2886   11.3582    6.3934 C   0  0  0  0  0  0  0  0  0  0  0  0
   11.5709   10.7226    7.6372 C   0  0  0  0  0  0  0  0  0  0  0  0
   11.7665    9.5286    7.9056 O   0  0  0  0  0  0  0  0  0  0  0  0
   11.1474   10.8648    5.1256 N   0  0  0  0  0  0  0  0  0  0  0  0
   10.8805   11.9277    4.3262 C   0  0  0  0  0  0  0  0  0  0  0  0
   10.8493   13.0912    5.0510 N   0  0  0  0  0  0  0  0  0  0  0  0
  1  2  1  0  0  0  0
  1  6  1  0  0  0  0
  2  3  2  0  0  0  0
  3  4  1  0  0  0  0
  4  5  2  0  0  0  0
  4 10  1  0  0  0  0
  5  6  1  0  0  0  0
  5  8  1  0  0  0  0
  6  7  2  0  0  0  0
  8  9  1  0  0  0  0
  9 10  2  0  0  0  0
M  END
>  <CHROM.1>
11.29120315,11.80765325,6.76553053,0.28250585,-1.36747589,0.66848106

>  <Name>
ligand

>  <RI>
0

>  <Rbt.Current_Directory>
/home/itssahil/PROJECTS/Mol_Feturizer/New_Systems/rnas/2EEW

>  <Rbt.Executable>
rbdock ($Id: //depot/dev/client3/rdock/2013.1/src/exe/rbdock.cxx#4 $)

>  <Rbt.Library>
libRbt.so (2013.1, Build901 2013/11/27)

>  <Rbt.Parameter_File>
/export/apps/rDock/src/rDock_2013.1_src/data/scripts/dock_solv.prm

>  <Rbt.Receptor>
prm/blind_docking_80.prm

>  <SCORE>
-17.12

>  <SCORE.INTER>
-17.12

>  <SCORE.INTER.CONST>
1

>  <SCORE.INTER.POLAR>
0

>  <SCORE.INTER.ROT>
0

>  <SCORE.INTER.SOLV>
3.58824

>  <SCORE.INTER.VDW>
-16.2094

>  <SCORE.INTER.norm>
-1.712

>  <SCORE.INTRA>
0

>  <SCORE.INTRA.DIHEDRAL>
0

>  <SCORE.INTRA.DIHEDRAL.0>
0

>  <SCORE.INTRA.POLAR>
0

>  <SCORE.INTRA.POLAR.0>
0

>  <SCORE.INTRA.REPUL>
0

>  <SCORE.INTRA.REPUL.0>
0

>  <SCORE.INTRA.SOLV>
0

>  <SCORE.INTRA.SOLV.lig_0>
-4.28901

>  <SCORE.INTRA.VDW>
0

>  <SCORE.INTRA.VDW.0>
0

>  <SCORE.INTRA.norm>
0

>  <SCORE.RESTR>
0

>  <SCORE.RESTR.CAVITY>
0

>  <SCORE.RESTR.norm>
0

>  <SCORE.SYSTEM>
0

>  <SCORE.SYSTEM.CONST>
0

>  <SCORE.SYSTEM.DIHEDRAL>
0

>  <SCORE.SYSTEM.SOLV>
0

>  <SCORE.SYSTEM.norm>
0

>  <SCORE.heavy>
10

>  <SCORE.norm>
-1.712

>  <RMSD>
0.988

$$$$
ligand
 OpenBabel11021811423D
libRbt.so/2013.1/901 2013/11/27
 10 11  0  0  0  0  0  0  0  0999 V2000
   11.6629   11.6231    8.6434 N   0  0  0  0  0  0  0  0  0  0  0  0
   11.4478   12.9847    8.5356 C   0  0  0  0  0  0  0  0  0  0  0  0
   11.1608   13.5713    7.3655 N   0  0  0  0  0  0  0  0  0  0  0  0
   11.1097   12.6990    6.3255 C   0  0  0  0  0  0  0  0  0  0  0  0
   11.3149   11.3312    6.3608 C   0  0  0  0  0  0  0  0  0  0  0  0
   11.6196   10.6944    7.5987 C   0  0  0  0  0  0  0  0  0  0  0  0
   11.8373    9.5024    7.8592 O   0  0  0  0  0  0  0  0  0  0  0  0
   11.1694   10.8417    5.0920 N   0  0  0  0  0  0  0  0  0  0  0  0
   10.8774   11.9040    4.3006 C   0  0  0  0  0  0  0  0  0  0  0  0
   10.8342   13.0632    5.0314 N   0  0  0  0  0  0  0  0  0  0  0  0
  1  2  1  0  0  0  0
  1  6  1  0  0  0  0
  2  3  2  0  0  0  0
  3  4  1  0  0  0  0
  4  5  2  0  0  0  0
  4 10  1  0  0  0  0
  5  6  1  0  0  0  0
  5  8  1  0  0  0  0
  6  7  2  0  0  0  0
  8  9  1  0  0  0  0
  9 10  2  0  0  0  0
M  END
>  <CHROM.1>
11.31368283,11.77887430,6.73517275,0.31352882,-1.34959186,0.70371460

>  <Name>
ligand

>  <RI>
0

>  <Rbt.Current_Directory>
/home/itssahil/PROJECTS/Mol_Feturizer/New_Systems/rnas/2EEW

>  <Rbt.Executable>
rbdock ($Id: //depot/dev/client3/rdock/2013.1/src/exe/rbdock.cxx#4 $)

>  <Rbt.Library>
libRbt.so (2013.1, Build901 2013/11/27)

>  <Rbt.Parameter_File>
/export/apps/rDock/src/rDock_2013.1_src/data/scripts/dock_solv.prm

>  <Rbt.Receptor>
prm/blind_docking_80.prm

>  <SCORE>
-17.0838

>  <SCORE.INTER>
-17.0838

>  <SCORE.INTER.CONST>
1

>  <SCORE.INTER.POLAR>
0

>  <SCORE.INTER.ROT>
0

>  <SCORE.INTER.SOLV>
3.49611

>  <SCORE.INTER.VDW>
-16.1546

>  <SCORE.INTER.norm>
-1.70838

>  <SCORE.INTRA>
0

>  <SCORE.INTRA.DIHEDRAL>
0

>  <SCORE.INTRA.DIHEDRAL.0>
0

>  <SCORE.INTRA.POLAR>
0

>  <SCORE.INTRA.POLAR.0>
0

>  <SCORE.INTRA.REPUL>
0

>  <SCORE.INTRA.REPUL.0>
0

>  <SCORE.INTRA.SOLV>
0

>  <SCORE.INTRA.SOLV.lig_0>
-4.28901

>  <SCORE.INTRA.VDW>
0

>  <SCORE.INTRA.VDW.0>
0

>  <SCORE.INTRA.norm>
0

>  <SCORE.RESTR>
0

>  <SCORE.RESTR.CAVITY>
0

>  <SCORE.RESTR.norm>
0

>  <SCORE.SYSTEM>
0

>  <SCORE.SYSTEM.CONST>
0

>  <SCORE.SYSTEM.DIHEDRAL>
0

>  <SCORE.SYSTEM.SOLV>
0

>  <SCORE.SYSTEM.norm>
0

>  <SCORE.heavy>
10

>  <SCORE.norm>
-1.70838

>  <RMSD>
0.988

$$$$
ligand
 OpenBabel11021811423D
libRbt.so/2013.1/901 2013/11/27
 10 11  0  0  0  0  0  0  0  0999 V2000
   11.6224   11.6537    8.6737 N   0  0  0  0  0  0  0  0  0  0  0  0
   11.4162   13.0161    8.5579 C   0  0  0  0  0  0  0  0  0  0  0  0
   11.1447   13.5992    7.3823 N   0  0  0  0  0  0  0  0  0  0  0  0
   11.0997   12.7228    6.3455 C   0  0  0  0  0  0  0  0  0  0  0  0
   11.2967   11.3540    6.3888 C   0  0  0  0  0  0  0  0  0  0  0  0
   11.5848   10.7207    7.6325 C   0  0  0  0  0  0  0  0  0  0  0  0
   11.7930    9.5287    7.9003 O   0  0  0  0  0  0  0  0  0  0  0  0
   11.1618   10.8599    5.1206 N   0  0  0  0  0  0  0  0  0  0  0  0
   10.8841   11.9203    4.3217 C   0  0  0  0  0  0  0  0  0  0  0  0
   10.8398   13.0829    5.0471 N   0  0  0  0  0  0  0  0  0  0  0  0
  1  2  1  0  0  0  0
  1  6  1  0  0  0  0
  2  3  2  0  0  0  0
  3  4  1  0  0  0  0
  4  5  2  0  0  0  0
  4 10  1  0  0  0  0
  5  6  1  0  0  0  0
  5  8  1  0  0  0  0
  6  7  2  0  0  0  0
  8  9  1  0  0  0  0
  9 10  2  0  0  0  0
M  END
>  <CHROM.1>
11.29413435,11.80324281,6.76121952,0.32550564,-1.36124343,0.71115574

>  <Name>
ligand

>  <RI>
0

>  <Rbt.Current_Directory>
/home/itssahil/PROJECTS/Mol_Feturizer/New_Systems/rnas/2EEW

>  <Rbt.Executable>
rbdock ($Id: //depot/dev/client3/rdock/2013.1/src/exe/rbdock.cxx#4 $)

>  <Rbt.Library>
libRbt.so (2013.1, Build901 2013/11/27)

>  <Rbt.Parameter_File>
/export/apps/rDock/src/rDock_2013.1_src/data/scripts/dock_solv.prm

>  <Rbt.Receptor>
prm/pocket_docking_3.prm

>  <SCORE>
-17.122

>  <SCORE.INTER>
-17.122

>  <SCORE.INTER.CONST>
1

>  <SCORE.INTER.POLAR>
0

>  <SCORE.INTER.ROT>
0

>  <SCORE.INTER.SOLV>
3.55232

>  <SCORE.INTER.VDW>
-16.1988

>  <SCORE.INTER.norm>
-1.7122

>  <SCORE.INTRA>
0

>  <SCORE.INTRA.DIHEDRAL>
0

>  <SCORE.INTRA.DIHEDRAL.0>
0

>  <SCORE.INTRA.POLAR>
0

>  <SCORE.INTRA.POLAR.0>
0

>  <SCORE.INTRA.REPUL>
0

>  <SCORE.INTRA.REPUL.0>
0

>  <SCORE.INTRA.SOLV>
0

>  <SCORE.INTRA.SOLV.lig_0>
-4.28901

>  <SCORE.INTRA.VDW>
0

>  <SCORE.INTRA.VDW.0>
0

>  <SCORE.INTRA.norm>
0

>  <SCORE.RESTR>
0

>  <SCORE.RESTR.CAVITY>
0

>  <SCORE.RESTR.norm>
0

>  <SCORE.SYSTEM>
0

>  <SCORE.SYSTEM.CONST>
0

>  <SCORE.SYSTEM.DIHEDRAL>
0

>  <SCORE.SYSTEM.SOLV>
0

>  <SCORE.SYSTEM.norm>
0

>  <SCORE.heavy>
10

>  <SCORE.norm>
-1.7122

>  <RMSD>
0.988

$$$$
ligand
 OpenBabel11021811423D
libRbt.so/2013.1/901 2013/11/27
 10 11  0  0  0  0  0  0  0  0999 V2000
   11.6189   11.6537    8.6765 N   0  0  0  0  0  0  0  0  0  0  0  0
   11.4214   13.0171    8.5579 C   0  0  0  0  0  0  0  0  0  0  0  0
   11.1568   13.5999    7.3807 N   0  0  0  0  0  0  0  0  0  0  0  0
   11.1093   12.7221    6.3452 C   0  0  0  0  0  0  0  0  0  0  0  0
   11.2977   11.3522    6.3913 C   0  0  0  0  0  0  0  0  0  0  0  0
   11.5785   10.7192    7.6368 C   0  0  0  0  0  0  0  0  0  0  0  0
   11.7786    9.5264    7.9072 O   0  0  0  0  0  0  0  0  0  0  0  0
   11.1634   10.8568    5.1235 N   0  0  0  0  0  0  0  0  0  0  0  0
   10.8944   11.9176    4.3221 C   0  0  0  0  0  0  0  0  0  0  0  0
   10.8552   13.0817    5.0455 N   0  0  0  0  0  0  0  0  0  0  0  0
  1  2  1  0  0  0  0
  1  6  1  0  0  0  0
  2  3  2  0  0  0  0
  3  4  1  0  0  0  0
  4  5  2  0  0  0  0
  4 10  1  0  0  0  0
  5  6  1  0  0  0  0
  5  8  1  0  0  0  0
  6  7  2  0  0  0  0
  8  9  1  0  0  0  0
  9 10  2  0  0  0  0
M  END
>  <CHROM.1>
11.29689138,11.80204964,6.76294016,0.31145836,-1.36734493,0.69575054

>  <Name>
ligand

>  <RI>
0

>  <Rbt.Current_Directory>
/home/itssahil/PROJECTS/Mol_Feturizer/New_Systems/rnas/2EEW

>  <Rbt.Executable>
rbdock ($Id: //depot/dev/client3/rdock/2013.1/src/exe/rbdock.cxx#4 $)

>  <Rbt.Library>
libRbt.so (2013.1, Build901 2013/11/27)

>  <Rbt.Parameter_File>
/export/apps/rDock/src/rDock_2013.1_src/data/scripts/dock_solv.prm

>  <Rbt.Receptor>
prm/pocket_docking_4.prm

>  <SCORE>
-17.1206

>  <SCORE.INTER>
-17.1206

>  <SCORE.INTER.CONST>
1

>  <SCORE.INTER.POLAR>
0

>  <SCORE.INTER.ROT>
0

>  <SCORE.INTER.SOLV>
3.57884

>  <SCORE.INTER.VDW>
-16.2066

>  <SCORE.INTER.norm>
-1.71206

>  <SCORE.INTRA>
0

>  <SCORE.INTRA.DIHEDRAL>
0

>  <SCORE.INTRA.DIHEDRAL.0>
0

>  <SCORE.INTRA.POLAR>
0

>  <SCORE.INTRA.POLAR.0>
0

>  <SCORE.INTRA.REPUL>
0

>  <SCORE.INTRA.REPUL.0>
0

>  <SCORE.INTRA.SOLV>
0

>  <SCORE.INTRA.SOLV.lig_0>
-4.28901

>  <SCORE.INTRA.VDW>
0

>  <SCORE.INTRA.VDW.0>
0

>  <SCORE.INTRA.norm>
0

>  <SCORE.RESTR>
0

>  <SCORE.RESTR.CAVITY>
0

>  <SCORE.RESTR.norm>
0

>  <SCORE.SYSTEM>
0

>  <SCORE.SYSTEM.CONST>
0

>  <SCORE.SYSTEM.DIHEDRAL>
0

>  <SCORE.SYSTEM.SOLV>
0

>  <SCORE.SYSTEM.norm>
0

>  <SCORE.heavy>
10

>  <SCORE.norm>
-1.71206

>  <RMSD>
0.988

$$$$
ligand
 OpenBabel11021811423D
libRbt.so/2013.1/901 2013/11/27
 10 11  0  0  0  0  0  0  0  0999 V2000
   11.6265   11.6557    8.6736 N   0  0  0  0  0  0  0  0  0  0  0  0
   11.4243   13.0186    8.5576 C   0  0  0  0  0  0  0  0  0  0  0  0
   11.1521   13.6019    7.3823 N   0  0  0  0  0  0  0  0  0  0  0  0
   11.1020   12.7250    6.3461 C   0  0  0  0  0  0  0  0  0  0  0  0
   11.2947   11.3557    6.3897 C   0  0  0  0  0  0  0  0  0  0  0  0
   11.5837   10.7222    7.6331 C   0  0  0  0  0  0  0  0  0  0  0  0
   11.7887    9.5297    7.9011 O   0  0  0  0  0  0  0  0  0  0  0  0
   11.1555   10.8613    5.1221 N   0  0  0  0  0  0  0  0  0  0  0  0
   10.8793   11.9221    4.3232 C   0  0  0  0  0  0  0  0  0  0  0  0
   10.8403   13.0853    5.0480 N   0  0  0  0  0  0  0  0  0  0  0  0
  1  2  1  0  0  0  0
  1  6  1  0  0  0  0
  2  3  2  0  0  0  0
  3  4  1  0  0  0  0
  4  5  2  0  0  0  0
  4 10  1  0  0  0  0
  5  6  1  0  0  0  0
  5  8  1  0  0  0  0
  6  7  2  0  0  0  0
  8  9  1  0  0  0  0
  9 10  2  0  0  0  0
M  END
>  <CHROM.1>
11.29441777,11.80514355,6.76186142,0.30701419,-1.36155531,0.69249900

>  <Name>
ligand

>  <RI>
0

>  <Rbt.Current_Directory>
/home/itssahil/PROJECTS/Mol_Feturizer/New_Systems/rnas/2EEW

>  <Rbt.Executable>
rbdock ($Id: //depot/dev/client3/rdock/2013.1/src/exe/rbdock.cxx#4 $)

>  <Rbt.Library>
libRbt.so (2013.1, Build901 2013/11/27)

>  <Rbt.Parameter_File>
/export/apps/rDock/src/rDock_2013.1_src/data/scripts/dock_solv.prm

>  <Rbt.Receptor>
prm/pocket_docking_5.prm

>  <SCORE>
-17.1212

>  <SCORE.INTER>
-17.1212

>  <SCORE.INTER.CONST>
1

>  <SCORE.INTER.POLAR>
0

>  <SCORE.INTER.ROT>
0

>  <SCORE.INTER.SOLV>
3.55834

>  <SCORE.INTER.VDW>
-16.2002

>  <SCORE.INTER.norm>
-1.71212

>  <SCORE.INTRA>
0

>  <SCORE.INTRA.DIHEDRAL>
0

>  <SCORE.INTRA.DIHEDRAL.0>
0

>  <SCORE.INTRA.POLAR>
0

>  <SCORE.INTRA.POLAR.0>
0

>  <SCORE.INTRA.REPUL>
0

>  <SCORE.INTRA.REPUL.0>
0

>  <SCORE.INTRA.SOLV>
0

>  <SCORE.INTRA.SOLV.lig_0>
-4.28901

>  <SCORE.INTRA.VDW>
0

>  <SCORE.INTRA.VDW.0>
0

>  <SCORE.INTRA.norm>
0

>  <SCORE.RESTR>
0

>  <SCORE.RESTR.CAVITY>
0

>  <SCORE.RESTR.norm>
0

>  <SCORE.SYSTEM>
0

>  <SCORE.SYSTEM.CONST>
0

>  <SCORE.SYSTEM.DIHEDRAL>
0

>  <SCORE.SYSTEM.SOLV>
0

>  <SCORE.SYSTEM.norm>
0

>  <SCORE.heavy>
10

>  <SCORE.norm>
-1.71212

>  <RMSD>
0.988

$$$$
ligand
 OpenBabel11021811423D
libRbt.so/2013.1/901 2013/11/27
 10 11  0  0  0  0  0  0  0  0999 V2000
   11.6211   11.6537    8.6739 N   0  0  0  0  0  0  0  0  0  0  0  0
   11.4218   13.0172    8.5595 C   0  0  0  0  0  0  0  0  0  0  0  0
   11.1520   13.6026    7.3847 N   0  0  0  0  0  0  0  0  0  0  0  0
   11.1012   12.7273    6.3472 C   0  0  0  0  0  0  0  0  0  0  0  0
   11.2911   11.3575    6.3892 C   0  0  0  0  0  0  0  0  0  0  0  0
   11.5774   10.7217    7.6320 C   0  0  0  0  0  0  0  0  0  0  0  0
   11.7797    9.5284    7.8986 O   0  0  0  0  0  0  0  0  0  0  0  0
   11.1521   10.8651    5.1207 N   0  0  0  0  0  0  0  0  0  0  0  0
   10.8790   11.9277    4.3230 C   0  0  0  0  0  0  0  0  0  0  0  0
   10.8416   13.0899    5.0495 N   0  0  0  0  0  0  0  0  0  0  0  0
  1  2  1  0  0  0  0
  1  6  1  0  0  0  0
  2  3  2  0  0  0  0
  3  4  1  0  0  0  0
  4  5  2  0  0  0  0
  4 10  1  0  0  0  0
  5  6  1  0  0  0  0
  5  8  1  0  0  0  0
  6  7  2  0  0  0  0
  8  9  1  0  0  0  0
  9 10  2  0  0  0  0
M  END
>  <CHROM.1>
11.29130461,11.80645507,6.76198142,0.30251322,-1.36367338,0.68946938

>  <Name>
ligand

>  <RI>
0

>  <Rbt.Current_Directory>
/home/itssahil/PROJECTS/Mol_Feturizer/New_Systems/rnas/2EEW

>  <Rbt.Executable>
rbdock ($Id: //depot/dev/client3/rdock/2013.1/src/exe/rbdock.cxx#4 $)

>  <Rbt.Library>
libRbt.so (2013.1, Build901 2013/11/27)

>  <Rbt.Parameter_File>
/export/apps/rDock/src/rDock_2013.1_src/data/scripts/dock_solv.prm

>  <Rbt.Receptor>
prm/pocket_docking_7.prm

>  <SCORE>
-17.1232

>  <SCORE.INTER>
-17.1232

>  <SCORE.INTER.CONST>
1

>  <SCORE.INTER.POLAR>
0

>  <SCORE.INTER.ROT>
0

>  <SCORE.INTER.SOLV>
3.56719

>  <SCORE.INTER.VDW>
-16.2045

>  <SCORE.INTER.norm>
-1.71232

>  <SCORE.INTRA>
0

>  <SCORE.INTRA.DIHEDRAL>
0

>  <SCORE.INTRA.DIHEDRAL.0>
0

>  <SCORE.INTRA.POLAR>
0

>  <SCORE.INTRA.POLAR.0>
0

>  <SCORE.INTRA.REPUL>
0

>  <SCORE.INTRA.REPUL.0>
0

>  <SCORE.INTRA.SOLV>
0

>  <SCORE.INTRA.SOLV.lig_0>
-4.28901

>  <SCORE.INTRA.VDW>
0

>  <SCORE.INTRA.VDW.0>
0

>  <SCORE.INTRA.norm>
0

>  <SCORE.RESTR>
0

>  <SCORE.RESTR.CAVITY>
0

>  <SCORE.RESTR.norm>
0

>  <SCORE.SYSTEM>
0

>  <SCORE.SYSTEM.CONST>
0

>  <SCORE.SYSTEM.DIHEDRAL>
0

>  <SCORE.SYSTEM.SOLV>
0

>  <SCORE.SYSTEM.norm>
0

>  <SCORE.heavy>
10

>  <SCORE.norm>
-1.71232

>  <RMSD>
0.988

$$$$
ligand
 OpenBabel11021811423D
libRbt.so/2013.1/901 2013/11/27
 10 11  0  0  0  0  0  0  0  0999 V2000
   11.6232   11.6831    8.6876 N   0  0  0  0  0  0  0  0  0  0  0  0
   11.3982   13.0409    8.5553 C   0  0  0  0  0  0  0  0  0  0  0  0
   11.1201   13.6061    7.3726 N   0  0  0  0  0  0  0  0  0  0  0  0
   11.0883   12.7168    6.3463 C   0  0  0  0  0  0  0  0  0  0  0  0
   11.3042   11.3516    6.4062 C   0  0  0  0  0  0  0  0  0  0  0  0
   11.5997   10.7373    7.6576 C   0  0  0  0  0  0  0  0  0  0  0  0
   11.8241    9.5515    7.9399 O   0  0  0  0  0  0  0  0  0  0  0  0
   11.1776   10.8405    5.1438 N   0  0  0  0  0  0  0  0  0  0  0  0
   10.8862   11.8873    4.3320 C   0  0  0  0  0  0  0  0  0  0  0  0
   10.8249   13.0578    5.0435 N   0  0  0  0  0  0  0  0  0  0  0  0
  1  2  1  0  0  0  0
  1  6  1  0  0  0  0
  2  3  2  0  0  0  0
  3  4  1  0  0  0  0
  4  5  2  0  0  0  0
  4 10  1  0  0  0  0
  5  6  1  0  0  0  0
  5  8  1  0  0  0  0
  6  7  2  0  0  0  0
  8  9  1  0  0  0  0
  9 10  2  0  0  0  0
M  END
>  <CHROM.1>
11.29500892,11.80513499,6.77319819,0.37741085,-1.35277034,0.74991208

>  <Name>
ligand

>  <RI>
0

>  <Rbt.Current_Directory>
/home/itssahil/PROJECTS/Mol_Feturizer/New_Systems/rnas/2EEW

>  <Rbt.Executable>
rbdock ($Id: //depot/dev/client3/rdock/2013.1/src/exe/rbdock.cxx#4 $)

>  <Rbt.Library>
libRbt.so (2013.1, Build901 2013/11/27)

>  <Rbt.Parameter_File>
/export/apps/rDock/src/rDock_2013.1_src/data/scripts/dock_solv.prm

>  <Rbt.Receptor>
prm/pocket_docking_8.prm

>  <SCORE>
-17.1106

>  <SCORE.INTER>
-17.1106

>  <SCORE.INTER.CONST>
1

>  <SCORE.INTER.POLAR>
0

>  <SCORE.INTER.ROT>
0

>  <SCORE.INTER.SOLV>
3.53154

>  <SCORE.INTER.VDW>
-16.1842

>  <SCORE.INTER.norm>
-1.71106

>  <SCORE.INTRA>
0

>  <SCORE.INTRA.DIHEDRAL>
0

>  <SCORE.INTRA.DIHEDRAL.0>
0

>  <SCORE.INTRA.POLAR>
0

>  <SCORE.INTRA.POLAR.0>
0

>  <SCORE.INTRA.REPUL>
0

>  <SCORE.INTRA.REPUL.0>
0

>  <SCORE.INTRA.SOLV>
0

>  <SCORE.INTRA.SOLV.lig_0>
-4.28901

>  <SCORE.INTRA.VDW>
0

>  <SCORE.INTRA.VDW.0>
0

>  <SCORE.INTRA.norm>
0

>  <SCORE.RESTR>
0

>  <SCORE.RESTR.CAVITY>
0

>  <SCORE.RESTR.norm>
0

>  <SCORE.SYSTEM>
0

>  <SCORE.SYSTEM.CONST>
0

>  <SCORE.SYSTEM.DIHEDRAL>
0

>  <SCORE.SYSTEM.SOLV>
0

>  <SCORE.SYSTEM.norm>
0

>  <SCORE.heavy>
10

>  <SCORE.norm>
-1.71106

>  <RMSD>
0.988

$$$$
ligand
 OpenBabel11021811423D
libRbt.so/2013.1/901 2013/11/27
 10 11  0  0  0  0  0  0  0  0999 V2000
   11.6584   11.6329    8.6466 N   0  0  0  0  0  0  0  0  0  0  0  0
   11.4325   12.9927    8.5379 C   0  0  0  0  0  0  0  0  0  0  0  0
   11.1434   13.5766    7.3670 N   0  0  0  0  0  0  0  0  0  0  0  0
   11.1017   12.7036    6.3271 C   0  0  0  0  0  0  0  0  0  0  0  0
   11.3178   11.3375    6.3634 C   0  0  0  0  0  0  0  0  0  0  0  0
   11.6249   10.7035    7.6021 C   0  0  0  0  0  0  0  0  0  0  0  0
   11.8516    9.5134    7.8635 O   0  0  0  0  0  0  0  0  0  0  0  0
   11.1791   10.8465    5.0943 N   0  0  0  0  0  0  0  0  0  0  0  0
   10.8803   11.9061    4.3020 C   0  0  0  0  0  0  0  0  0  0  0  0
   10.8261   13.0652    5.0323 N   0  0  0  0  0  0  0  0  0  0  0  0
  1  2  1  0  0  0  0
  1  6  1  0  0  0  0
  2  3  2  0  0  0  0
  3  4  1  0  0  0  0
  4  5  2  0  0  0  0
  4 10  1  0  0  0  0
  5  6  1  0  0  0  0
  5  8  1  0  0  0  0
  6  7  2  0  0  0  0
  8  9  1  0  0  0  0
  9 10  2  0  0  0  0
M  END
>  <CHROM.1>
11.31217243,11.78525784,6.73754861,0.34761104,-1.34595615,0.73663988

>  <Name>
ligand

>  <RI>
0

>  <Rbt.Current_Directory>
/home/itssahil/PROJECTS/Mol_Feturizer/New_Systems/rnas/2EEW

>  <Rbt.Executable>
rbdock ($Id: //depot/dev/client3/rdock/2013.1/src/exe/rbdock.cxx#4 $)

>  <Rbt.Library>
libRbt.so (2013.1, Build901 2013/11/27)

>  <Rbt.Parameter_File>
/export/apps/rDock/src/rDock_2013.1_src/data/scripts/dock_solv.prm

>  <Rbt.Receptor>
prm/blind_docking_100.prm

>  <SCORE>
-17.0799

>  <SCORE.INTER>
-17.0799

>  <SCORE.INTER.CONST>
1

>  <SCORE.INTER.POLAR>
0

>  <SCORE.INTER.ROT>
0

>  <SCORE.INTER.SOLV>
3.47715

>  <SCORE.INTER.VDW>
-16.1456

>  <SCORE.INTER.norm>
-1.70799

>  <SCORE.INTRA>
0

>  <SCORE.INTRA.DIHEDRAL>
0

>  <SCORE.INTRA.DIHEDRAL.0>
0

>  <SCORE.INTRA.POLAR>
0

>  <SCORE.INTRA.POLAR.0>
0

>  <SCORE.INTRA.REPUL>
0

>  <SCORE.INTRA.REPUL.0>
0

>  <SCORE.INTRA.SOLV>
0

>  <SCORE.INTRA.SOLV.lig_0>
-4.28901

>  <SCORE.INTRA.VDW>
0

>  <SCORE.INTRA.VDW.0>
0

>  <SCORE.INTRA.norm>
0

>  <SCORE.RESTR>
0

>  <SCORE.RESTR.CAVITY>
0

>  <SCORE.RESTR.norm>
0

>  <SCORE.SYSTEM>
0

>  <SCORE.SYSTEM.CONST>
0

>  <SCORE.SYSTEM.DIHEDRAL>
0

>  <SCORE.SYSTEM.SOLV>
0

>  <SCORE.SYSTEM.norm>
0

>  <SCORE.heavy>
10

>  <SCORE.norm>
-1.70799

>  <RMSD>
0.989

$$$$
ligand
 OpenBabel11021811423D
libRbt.so/2013.1/901 2013/11/27
 10 11  0  0  0  0  0  0  0  0999 V2000
   11.6272   11.6813    8.6974 N   0  0  0  0  0  0  0  0  0  0  0  0
   11.3998   13.0351    8.5319 C   0  0  0  0  0  0  0  0  0  0  0  0
   11.1272   13.5716    7.3346 N   0  0  0  0  0  0  0  0  0  0  0  0
   11.1035   12.6583    6.3294 C   0  0  0  0  0  0  0  0  0  0  0  0
   11.3222   11.2953    6.4227 C   0  0  0  0  0  0  0  0  0  0  0  0
   11.6118   10.7114    7.6899 C   0  0  0  0  0  0  0  0  0  0  0  0
   11.8373    9.5332    8.0014 O   0  0  0  0  0  0  0  0  0  0  0  0
   11.2041   10.7543    5.1720 N   0  0  0  0  0  0  0  0  0  0  0  0
   10.9149   11.7810    4.3341 C   0  0  0  0  0  0  0  0  0  0  0  0
   10.8469   12.9678    5.0173 N   0  0  0  0  0  0  0  0  0  0  0  0
  1  2  1  0  0  0  0
  1  6  1  0  0  0  0
  2  3  2  0  0  0  0
  3  4  1  0  0  0  0
  4  5  2  0  0  0  0
  4 10  1  0  0  0  0
  5  6  1  0  0  0  0
  5  8  1  0  0  0  0
  6  7  2  0  0  0  0
  8  9  1  0  0  0  0
  9 10  2  0  0  0  0
M  END
>  <CHROM.1>
11.30980069,11.75738429,6.77880839,0.40379222,-1.35537126,0.75209799

>  <Name>
ligand

>  <RI>
0

>  <Rbt.Current_Directory>
/home/itssahil/PROJECTS/Mol_Feturizer/New_Systems/rnas/2EEW

>  <Rbt.Executable>
rbdock ($Id: //depot/dev/client3/rdock/2013.1/src/exe/rbdock.cxx#4 $)

>  <Rbt.Library>
libRbt.so (2013.1, Build901 2013/11/27)

>  <Rbt.Parameter_File>
/export/apps/rDock/src/rDock_2013.1_src/data/scripts/dock_solv.prm

>  <Rbt.Receptor>
prm/blind_docking_60.prm

>  <SCORE>
-17.0379

>  <SCORE.INTER>
-17.0379

>  <SCORE.INTER.CONST>
1

>  <SCORE.INTER.POLAR>
0

>  <SCORE.INTER.ROT>
0

>  <SCORE.INTER.SOLV>
3.56787

>  <SCORE.INTER.VDW>
-16.1479

>  <SCORE.INTER.norm>
-1.70379

>  <SCORE.INTRA>
0

>  <SCORE.INTRA.DIHEDRAL>
0

>  <SCORE.INTRA.DIHEDRAL.0>
0

>  <SCORE.INTRA.POLAR>
0

>  <SCORE.INTRA.POLAR.0>
0

>  <SCORE.INTRA.REPUL>
0

>  <SCORE.INTRA.REPUL.0>
0

>  <SCORE.INTRA.SOLV>
0

>  <SCORE.INTRA.SOLV.lig_0>
-4.28901

>  <SCORE.INTRA.VDW>
0

>  <SCORE.INTRA.VDW.0>
0

>  <SCORE.INTRA.norm>
0

>  <SCORE.RESTR>
0

>  <SCORE.RESTR.CAVITY>
0

>  <SCORE.RESTR.norm>
0

>  <SCORE.SYSTEM>
0

>  <SCORE.SYSTEM.CONST>
0

>  <SCORE.SYSTEM.DIHEDRAL>
0

>  <SCORE.SYSTEM.SOLV>
0

>  <SCORE.SYSTEM.norm>
0

>  <SCORE.heavy>
10

>  <SCORE.norm>
-1.70379

>  <RMSD>
0.989

$$$$
ligand
 OpenBabel11021811423D
libRbt.so/2013.1/901 2013/11/27
 10 11  0  0  0  0  0  0  0  0999 V2000
   11.6130   11.6525    8.6773 N   0  0  0  0  0  0  0  0  0  0  0  0
   11.4195   13.0165    8.5587 C   0  0  0  0  0  0  0  0  0  0  0  0
   11.1571   13.6000    7.3813 N   0  0  0  0  0  0  0  0  0  0  0  0
   11.1073   12.7223    6.3458 C   0  0  0  0  0  0  0  0  0  0  0  0
   11.2916   11.3519    6.3920 C   0  0  0  0  0  0  0  0  0  0  0  0
   11.5701   10.7181    7.6376 C   0  0  0  0  0  0  0  0  0  0  0  0
   11.7666    9.5247    7.9080 O   0  0  0  0  0  0  0  0  0  0  0  0
   11.1562   10.8569    5.1242 N   0  0  0  0  0  0  0  0  0  0  0  0
   10.8907   11.9185    4.3227 C   0  0  0  0  0  0  0  0  0  0  0  0
   10.8547   13.0827    5.0460 N   0  0  0  0  0  0  0  0  0  0  0  0
  1  2  1  0  0  0  0
  1  6  1  0  0  0  0
  2  3  2  0  0  0  0
  3  4  1  0  0  0  0
  4  5  2  0  0  0  0
  4 10  1  0  0  0  0
  5  6  1  0  0  0  0
  5  8  1  0  0  0  0
  6  7  2  0  0  0  0
  8  9  1  0  0  0  0
  9 10  2  0  0  0  0
M  END
>  <CHROM.1>
11.29201863,11.80179334,6.76365084,0.30101555,-1.36948773,0.68551633

>  <Name>
ligand

>  <RI>
0

>  <Rbt.Current_Directory>
/home/itssahil/PROJECTS/Mol_Feturizer/New_Systems/rnas/2EEW

>  <Rbt.Executable>
rbdock ($Id: //depot/dev/client3/rdock/2013.1/src/exe/rbdock.cxx#4 $)

>  <Rbt.Library>
libRbt.so (2013.1, Build901 2013/11/27)

>  <Rbt.Parameter_File>
/export/apps/rDock/src/rDock_2013.1_src/data/scripts/dock_solv.prm

>  <Rbt.Receptor>
prm/pocket_docking_4.prm

>  <SCORE>
-17.1206

>  <SCORE.INTER>
-17.1206

>  <SCORE.INTER.CONST>
1

>  <SCORE.INTER.POLAR>
0

>  <SCORE.INTER.ROT>
0

>  <SCORE.INTER.SOLV>
3.59172

>  <SCORE.INTER.VDW>
-16.211

>  <SCORE.INTER.norm>
-1.71206

>  <SCORE.INTRA>
0

>  <SCORE.INTRA.DIHEDRAL>
0

>  <SCORE.INTRA.DIHEDRAL.0>
0

>  <SCORE.INTRA.POLAR>
0

>  <SCORE.INTRA.POLAR.0>
0

>  <SCORE.INTRA.REPUL>
0

>  <SCORE.INTRA.REPUL.0>
0

>  <SCORE.INTRA.SOLV>
0

>  <SCORE.INTRA.SOLV.lig_0>
-4.28901

>  <SCORE.INTRA.VDW>
0

>  <SCORE.INTRA.VDW.0>
0

>  <SCORE.INTRA.norm>
0

>  <SCORE.RESTR>
0

>  <SCORE.RESTR.CAVITY>
0

>  <SCORE.RESTR.norm>
0

>  <SCORE.SYSTEM>
0

>  <SCORE.SYSTEM.CONST>
0

>  <SCORE.SYSTEM.DIHEDRAL>
0

>  <SCORE.SYSTEM.SOLV>
0

>  <SCORE.SYSTEM.norm>
0

>  <SCORE.heavy>
10

>  <SCORE.norm>
-1.71206

>  <RMSD>
0.989

$$$$
ligand
 OpenBabel11021811423D
libRbt.so/2013.1/901 2013/11/27
 10 11  0  0  0  0  0  0  0  0999 V2000
   11.6471   11.5435    8.6046 N   0  0  0  0  0  0  0  0  0  0  0  0
   11.4322   12.9077    8.5378 C   0  0  0  0  0  0  0  0  0  0  0  0
   11.1491   13.5298    7.3852 N   0  0  0  0  0  0  0  0  0  0  0  0
   11.1018   12.6898    6.3188 C   0  0  0  0  0  0  0  0  0  0  0  0
   11.3070   11.3216    6.3130 C   0  0  0  0  0  0  0  0  0  0  0  0
   11.6075   10.6471    7.5318 C   0  0  0  0  0  0  0  0  0  0  0  0
   11.8245    9.4478    7.7565 O   0  0  0  0  0  0  0  0  0  0  0  0
   11.1660   10.8711    5.0292 N   0  0  0  0  0  0  0  0  0  0  0  0
   10.8765   11.9571    4.2697 C   0  0  0  0  0  0  0  0  0  0  0  0
   10.8306   13.0934    5.0355 N   0  0  0  0  0  0  0  0  0  0  0  0
  1  2  1  0  0  0  0
  1  6  1  0  0  0  0
  2  3  2  0  0  0  0
  3  4  1  0  0  0  0
  4  5  2  0  0  0  0
  4 10  1  0  0  0  0
  5  6  1  0  0  0  0
  5  8  1  0  0  0  0
  6  7  2  0  0  0  0
  8  9  1  0  0  0  0
  9 10  2  0  0  0  0
M  END
>  <CHROM.1>
11.30443434,11.75753370,6.70081996,0.32440557,-1.35210908,0.74493889

>  <Name>
ligand

>  <RI>
0

>  <Rbt.Current_Directory>
/home/itssahil/PROJECTS/Mol_Feturizer/New_Systems/rnas/2EEW

>  <Rbt.Executable>
rbdock ($Id: //depot/dev/client3/rdock/2013.1/src/exe/rbdock.cxx#4 $)

>  <Rbt.Library>
libRbt.so (2013.1, Build901 2013/11/27)

>  <Rbt.Parameter_File>
/export/apps/rDock/src/rDock_2013.1_src/data/scripts/dock_solv.prm

>  <Rbt.Receptor>
prm/pocket_docking_5.prm

>  <SCORE>
-17.0426

>  <SCORE.INTER>
-17.0426

>  <SCORE.INTER.CONST>
1

>  <SCORE.INTER.POLAR>
0

>  <SCORE.INTER.ROT>
0

>  <SCORE.INTER.SOLV>
3.48113

>  <SCORE.INTER.VDW>
-16.1221

>  <SCORE.INTER.norm>
-1.70426

>  <SCORE.INTRA>
0

>  <SCORE.INTRA.DIHEDRAL>
0

>  <SCORE.INTRA.DIHEDRAL.0>
0

>  <SCORE.INTRA.POLAR>
0

>  <SCORE.INTRA.POLAR.0>
0

>  <SCORE.INTRA.REPUL>
0

>  <SCORE.INTRA.REPUL.0>
0

>  <SCORE.INTRA.SOLV>
0

>  <SCORE.INTRA.SOLV.lig_0>
-4.28901

>  <SCORE.INTRA.VDW>
0

>  <SCORE.INTRA.VDW.0>
0

>  <SCORE.INTRA.norm>
0

>  <SCORE.RESTR>
0

>  <SCORE.RESTR.CAVITY>
0

>  <SCORE.RESTR.norm>
0

>  <SCORE.SYSTEM>
0

>  <SCORE.SYSTEM.CONST>
0

>  <SCORE.SYSTEM.DIHEDRAL>
0

>  <SCORE.SYSTEM.SOLV>
0

>  <SCORE.SYSTEM.norm>
0

>  <SCORE.heavy>
10

>  <SCORE.norm>
-1.70426

>  <RMSD>
0.989

$$$$
ligand
 OpenBabel11021811423D
libRbt.so/2013.1/901 2013/11/27
 10 11  0  0  0  0  0  0  0  0999 V2000
   11.6181   11.6535    8.6748 N   0  0  0  0  0  0  0  0  0  0  0  0
   11.4120   13.0156    8.5554 C   0  0  0  0  0  0  0  0  0  0  0  0
   11.1450   13.5962    7.3776 N   0  0  0  0  0  0  0  0  0  0  0  0
   11.1040   12.7176    6.3425 C   0  0  0  0  0  0  0  0  0  0  0  0
   11.3010   11.3490    6.3894 C   0  0  0  0  0  0  0  0  0  0  0  0
   11.5845   10.7184    7.6355 C   0  0  0  0  0  0  0  0  0  0  0  0
   11.7919    9.5269    7.9066 O   0  0  0  0  0  0  0  0  0  0  0  0
   11.1710   10.8522    5.1217 N   0  0  0  0  0  0  0  0  0  0  0  0
   10.8961   11.9109    4.3195 C   0  0  0  0  0  0  0  0  0  0  0  0
   10.8489   13.0750    5.0423 N   0  0  0  0  0  0  0  0  0  0  0  0
  1  2  1  0  0  0  0
  1  6  1  0  0  0  0
  2  3  2  0  0  0  0
  3  4  1  0  0  0  0
  4  5  2  0  0  0  0
  4 10  1  0  0  0  0
  5  6  1  0  0  0  0
  5  8  1  0  0  0  0
  6  7  2  0  0  0  0
  8  9  1  0  0  0  0
  9 10  2  0  0  0  0
M  END
>  <CHROM.1>
11.29695307,11.79899058,6.76082927,0.33806107,-1.36398872,0.72134113

>  <Name>
ligand

>  <RI>
0

>  <Rbt.Current_Directory>
/home/itssahil/PROJECTS/Mol_Feturizer/New_Systems/rnas/2EEW

>  <Rbt.Executable>
rbdock ($Id: //depot/dev/client3/rdock/2013.1/src/exe/rbdock.cxx#4 $)

>  <Rbt.Library>
libRbt.so (2013.1, Build901 2013/11/27)

>  <Rbt.Parameter_File>
/export/apps/rDock/src/rDock_2013.1_src/data/scripts/dock_solv.prm

>  <Rbt.Receptor>
prm/pocket_docking_6.prm

>  <SCORE>
-17.1176

>  <SCORE.INTER>
-17.1176

>  <SCORE.INTER.CONST>
1

>  <SCORE.INTER.POLAR>
0

>  <SCORE.INTER.ROT>
0

>  <SCORE.INTER.SOLV>
3.5604

>  <SCORE.INTER.VDW>
-16.1985

>  <SCORE.INTER.norm>
-1.71176

>  <SCORE.INTRA>
0

>  <SCORE.INTRA.DIHEDRAL>
0

>  <SCORE.INTRA.DIHEDRAL.0>
0

>  <SCORE.INTRA.POLAR>
0

>  <SCORE.INTRA.POLAR.0>
0

>  <SCORE.INTRA.REPUL>
0

>  <SCORE.INTRA.REPUL.0>
0

>  <SCORE.INTRA.SOLV>
0

>  <SCORE.INTRA.SOLV.lig_0>
-4.28901

>  <SCORE.INTRA.VDW>
0

>  <SCORE.INTRA.VDW.0>
0

>  <SCORE.INTRA.norm>
0

>  <SCORE.RESTR>
0

>  <SCORE.RESTR.CAVITY>
0

>  <SCORE.RESTR.norm>
0

>  <SCORE.SYSTEM>
0

>  <SCORE.SYSTEM.CONST>
0

>  <SCORE.SYSTEM.DIHEDRAL>
0

>  <SCORE.SYSTEM.SOLV>
0

>  <SCORE.SYSTEM.norm>
0

>  <SCORE.heavy>
10

>  <SCORE.norm>
-1.71176

>  <RMSD>
0.989

$$$$
ligand
 OpenBabel11021811423D
libRbt.so/2013.1/901 2013/11/27
 10 11  0  0  0  0  0  0  0  0999 V2000
   11.6320   11.6301    8.6599 N   0  0  0  0  0  0  0  0  0  0  0  0
   11.4430   12.9951    8.5466 C   0  0  0  0  0  0  0  0  0  0  0  0
   11.1727   13.5830    7.3732 N   0  0  0  0  0  0  0  0  0  0  0  0
   11.1104   12.7084    6.3358 C   0  0  0  0  0  0  0  0  0  0  0  0
   11.2896   11.3371    6.3766 C   0  0  0  0  0  0  0  0  0  0  0  0
   11.5763   10.6988    7.6180 C   0  0  0  0  0  0  0  0  0  0  0  0
   11.7703    9.5039    7.8835 O   0  0  0  0  0  0  0  0  0  0  0  0
   11.1412   10.8462    5.1087 N   0  0  0  0  0  0  0  0  0  0  0  0
   10.8730   11.9110    4.3124 C   0  0  0  0  0  0  0  0  0  0  0  0
   10.8480   13.0733    5.0392 N   0  0  0  0  0  0  0  0  0  0  0  0
  1  2  1  0  0  0  0
  1  6  1  0  0  0  0
  2  3  2  0  0  0  0
  3  4  1  0  0  0  0
  4  5  2  0  0  0  0
  4 10  1  0  0  0  0
  5  6  1  0  0  0  0
  5  8  1  0  0  0  0
  6  7  2  0  0  0  0
  8  9  1  0  0  0  0
  9 10  2  0  0  0  0
M  END
>  <CHROM.1>
11.29502167,11.78595463,6.74947124,0.25888243,-1.36517122,0.64699302

>  <Name>
ligand

>  <RI>
0

>  <Rbt.Current_Directory>
/home/itssahil/PROJECTS/Mol_Feturizer/New_Systems/rnas/2EEW

>  <Rbt.Executable>
rbdock ($Id: //depot/dev/client3/rdock/2013.1/src/exe/rbdock.cxx#4 $)

>  <Rbt.Library>
libRbt.so (2013.1, Build901 2013/11/27)

>  <Rbt.Parameter_File>
/export/apps/rDock/src/rDock_2013.1_src/data/scripts/dock_solv.prm

>  <Rbt.Receptor>
prm/pocket_docking_6.prm

>  <SCORE>
-17.0838

>  <SCORE.INTER>
-17.0838

>  <SCORE.INTER.CONST>
1

>  <SCORE.INTER.POLAR>
0

>  <SCORE.INTER.ROT>
0

>  <SCORE.INTER.SOLV>
3.58398

>  <SCORE.INTER.VDW>
-16.1839

>  <SCORE.INTER.norm>
-1.70838

>  <SCORE.INTRA>
0

>  <SCORE.INTRA.DIHEDRAL>
0

>  <SCORE.INTRA.DIHEDRAL.0>
0

>  <SCORE.INTRA.POLAR>
0

>  <SCORE.INTRA.POLAR.0>
0

>  <SCORE.INTRA.REPUL>
0

>  <SCORE.INTRA.REPUL.0>
0

>  <SCORE.INTRA.SOLV>
0

>  <SCORE.INTRA.SOLV.lig_0>
-4.28901

>  <SCORE.INTRA.VDW>
0

>  <SCORE.INTRA.VDW.0>
0

>  <SCORE.INTRA.norm>
0

>  <SCORE.RESTR>
0

>  <SCORE.RESTR.CAVITY>
0

>  <SCORE.RESTR.norm>
0

>  <SCORE.SYSTEM>
0

>  <SCORE.SYSTEM.CONST>
0

>  <SCORE.SYSTEM.DIHEDRAL>
0

>  <SCORE.SYSTEM.SOLV>
0

>  <SCORE.SYSTEM.norm>
0

>  <SCORE.heavy>
10

>  <SCORE.norm>
-1.70838

>  <RMSD>
0.989

$$$$
ligand
 OpenBabel11021811423D
libRbt.so/2013.1/901 2013/11/27
 10 11  0  0  0  0  0  0  0  0999 V2000
   11.6169   11.6508    8.6721 N   0  0  0  0  0  0  0  0  0  0  0  0
   11.4150   13.0136    8.5543 C   0  0  0  0  0  0  0  0  0  0  0  0
   11.1484   13.5963    7.3774 N   0  0  0  0  0  0  0  0  0  0  0  0
   11.1033   12.7188    6.3415 C   0  0  0  0  0  0  0  0  0  0  0  0
   11.2960   11.3495    6.3868 C   0  0  0  0  0  0  0  0  0  0  0  0
   11.5791   10.7168    7.6319 C   0  0  0  0  0  0  0  0  0  0  0  0
   11.7830    9.5245    7.9016 O   0  0  0  0  0  0  0  0  0  0  0  0
   11.1629   10.8544    5.1188 N   0  0  0  0  0  0  0  0  0  0  0  0
   10.8904   11.9148    4.3180 C   0  0  0  0  0  0  0  0  0  0  0  0
   10.8477   13.0783    5.0420 N   0  0  0  0  0  0  0  0  0  0  0  0
  1  2  1  0  0  0  0
  1  6  1  0  0  0  0
  2  3  2  0  0  0  0
  3  4  1  0  0  0  0
  4  5  2  0  0  0  0
  4 10  1  0  0  0  0
  5  6  1  0  0  0  0
  5  8  1  0  0  0  0
  6  7  2  0  0  0  0
  8  9  1  0  0  0  0
  9 10  2  0  0  0  0
M  END
>  <CHROM.1>
11.29387525,11.79919641,6.75869677,0.32232580,-1.36513105,0.70692672

>  <Name>
ligand

>  <RI>
0

>  <Rbt.Current_Directory>
/home/itssahil/PROJECTS/Mol_Feturizer/New_Systems/rnas/2EEW

>  <Rbt.Executable>
rbdock ($Id: //depot/dev/client3/rdock/2013.1/src/exe/rbdock.cxx#4 $)

>  <Rbt.Library>
libRbt.so (2013.1, Build901 2013/11/27)

>  <Rbt.Parameter_File>
/export/apps/rDock/src/rDock_2013.1_src/data/scripts/dock_solv.prm

>  <Rbt.Receptor>
prm/blind_docking_40.prm

>  <SCORE>
-17.1218

>  <SCORE.INTER>
-17.1218

>  <SCORE.INTER.CONST>
1

>  <SCORE.INTER.POLAR>
0

>  <SCORE.INTER.ROT>
0

>  <SCORE.INTER.SOLV>
3.56823

>  <SCORE.INTER.VDW>
-16.204

>  <SCORE.INTER.norm>
-1.71218

>  <SCORE.INTRA>
0

>  <SCORE.INTRA.DIHEDRAL>
0

>  <SCORE.INTRA.DIHEDRAL.0>
0

>  <SCORE.INTRA.POLAR>
0

>  <SCORE.INTRA.POLAR.0>
0

>  <SCORE.INTRA.REPUL>
0

>  <SCORE.INTRA.REPUL.0>
0

>  <SCORE.INTRA.SOLV>
0

>  <SCORE.INTRA.SOLV.lig_0>
-4.28901

>  <SCORE.INTRA.VDW>
0

>  <SCORE.INTRA.VDW.0>
0

>  <SCORE.INTRA.norm>
0

>  <SCORE.RESTR>
0

>  <SCORE.RESTR.CAVITY>
0

>  <SCORE.RESTR.norm>
0

>  <SCORE.SYSTEM>
0

>  <SCORE.SYSTEM.CONST>
0

>  <SCORE.SYSTEM.DIHEDRAL>
0

>  <SCORE.SYSTEM.SOLV>
0

>  <SCORE.SYSTEM.norm>
0

>  <SCORE.heavy>
10

>  <SCORE.norm>
-1.71218

>  <RMSD>
0.990

$$$$
ligand
 OpenBabel11021811423D
libRbt.so/2013.1/901 2013/11/27
 10 11  0  0  0  0  0  0  0  0999 V2000
   11.6913   11.6886    8.6710 N   0  0  0  0  0  0  0  0  0  0  0  0
   11.4168   13.0346    8.5133 C   0  0  0  0  0  0  0  0  0  0  0  0
   11.1022   13.5639    7.3232 N   0  0  0  0  0  0  0  0  0  0  0  0
   11.0872   12.6519    6.3166 C   0  0  0  0  0  0  0  0  0  0  0  0
   11.3519   11.2967    6.4022 C   0  0  0  0  0  0  0  0  0  0  0  0
   11.6865   10.7204    7.6618 C   0  0  0  0  0  0  0  0  0  0  0  0
   11.9564    9.5496    7.9659 O   0  0  0  0  0  0  0  0  0  0  0  0
   11.2255   10.7541    5.1530 N   0  0  0  0  0  0  0  0  0  0  0  0
   10.8858   11.7723    4.3236 C   0  0  0  0  0  0  0  0  0  0  0  0
   10.7935   12.9551    5.0108 N   0  0  0  0  0  0  0  0  0  0  0  0
  1  2  1  0  0  0  0
  1  6  1  0  0  0  0
  2  3  2  0  0  0  0
  3  4  1  0  0  0  0
  4  5  2  0  0  0  0
  4 10  1  0  0  0  0
  5  6  1  0  0  0  0
  5  8  1  0  0  0  0
  6  7  2  0  0  0  0
  8  9  1  0  0  0  0
  9 10  2  0  0  0  0
M  END
>  <CHROM.1>
11.33190018,11.75749788,6.75956980,0.44174266,-1.31789525,0.79098276

>  <Name>
ligand

>  <RI>
0

>  <Rbt.Current_Directory>
/home/itssahil/PROJECTS/Mol_Feturizer/New_Systems/rnas/2EEW

>  <Rbt.Executable>
rbdock ($Id: //depot/dev/client3/rdock/2013.1/src/exe/rbdock.cxx#4 $)

>  <Rbt.Library>
libRbt.so (2013.1, Build901 2013/11/27)

>  <Rbt.Parameter_File>
/export/apps/rDock/src/rDock_2013.1_src/data/scripts/dock_solv.prm

>  <Rbt.Receptor>
prm/pocket_docking_3.prm

>  <SCORE>
-17.0713

>  <SCORE.INTER>
-17.0713

>  <SCORE.INTER.CONST>
1

>  <SCORE.INTER.POLAR>
0

>  <SCORE.INTER.ROT>
0

>  <SCORE.INTER.SOLV>
3.40836

>  <SCORE.INTER.VDW>
-16.117

>  <SCORE.INTER.norm>
-1.70713

>  <SCORE.INTRA>
0

>  <SCORE.INTRA.DIHEDRAL>
0

>  <SCORE.INTRA.DIHEDRAL.0>
0

>  <SCORE.INTRA.POLAR>
0

>  <SCORE.INTRA.POLAR.0>
0

>  <SCORE.INTRA.REPUL>
0

>  <SCORE.INTRA.REPUL.0>
0

>  <SCORE.INTRA.SOLV>
0

>  <SCORE.INTRA.SOLV.lig_0>
-4.28901

>  <SCORE.INTRA.VDW>
0

>  <SCORE.INTRA.VDW.0>
0

>  <SCORE.INTRA.norm>
0

>  <SCORE.RESTR>
0

>  <SCORE.RESTR.CAVITY>
0

>  <SCORE.RESTR.norm>
0

>  <SCORE.SYSTEM>
0

>  <SCORE.SYSTEM.CONST>
0

>  <SCORE.SYSTEM.DIHEDRAL>
0

>  <SCORE.SYSTEM.SOLV>
0

>  <SCORE.SYSTEM.norm>
0

>  <SCORE.heavy>
10

>  <SCORE.norm>
-1.70713

>  <RMSD>
0.990

$$$$
ligand
 OpenBabel11021811423D
libRbt.so/2013.1/901 2013/11/27
 10 11  0  0  0  0  0  0  0  0999 V2000
   11.6677   11.6676    8.6628 N   0  0  0  0  0  0  0  0  0  0  0  0
   11.4062   13.0183    8.5249 C   0  0  0  0  0  0  0  0  0  0  0  0
   11.0990   13.5683    7.3422 N   0  0  0  0  0  0  0  0  0  0  0  0
   11.0775   12.6718    6.3220 C   0  0  0  0  0  0  0  0  0  0  0  0
   11.3291   11.3129    6.3877 C   0  0  0  0  0  0  0  0  0  0  0  0
   11.6557   10.7147    7.6392 C   0  0  0  0  0  0  0  0  0  0  0  0
   11.9140    9.5370    7.9262 O   0  0  0  0  0  0  0  0  0  0  0  0
   11.2001   10.7904    5.1303 N   0  0  0  0  0  0  0  0  0  0  0  0
   10.8718   11.8241    4.3157 C   0  0  0  0  0  0  0  0  0  0  0  0
   10.7893   12.9973    5.0204 N   0  0  0  0  0  0  0  0  0  0  0  0
  1  2  1  0  0  0  0
  1  6  1  0  0  0  0
  2  3  2  0  0  0  0
  3  4  1  0  0  0  0
  4  5  2  0  0  0  0
  4 10  1  0  0  0  0
  5  6  1  0  0  0  0
  5  8  1  0  0  0  0
  6  7  2  0  0  0  0
  8  9  1  0  0  0  0
  9 10  2  0  0  0  0
M  END
>  <CHROM.1>
11.31279022,11.76851115,6.75197575,0.42025371,-1.32598783,0.78515824

>  <Name>
ligand

>  <RI>
0

>  <Rbt.Current_Directory>
/home/itssahil/PROJECTS/Mol_Feturizer/New_Systems/rnas/2EEW

>  <Rbt.Executable>
rbdock ($Id: //depot/dev/client3/rdock/2013.1/src/exe/rbdock.cxx#4 $)

>  <Rbt.Library>
libRbt.so (2013.1, Build901 2013/11/27)

>  <Rbt.Parameter_File>
/export/apps/rDock/src/rDock_2013.1_src/data/scripts/dock_solv.prm

>  <Rbt.Receptor>
prm/pocket_docking_7.prm

>  <SCORE>
-17.0643

>  <SCORE.INTER>
-17.0643

>  <SCORE.INTER.CONST>
1

>  <SCORE.INTER.POLAR>
0

>  <SCORE.INTER.ROT>
0

>  <SCORE.INTER.SOLV>
3.42954

>  <SCORE.INTER.VDW>
-16.1194

>  <SCORE.INTER.norm>
-1.70643

>  <SCORE.INTRA>
0

>  <SCORE.INTRA.DIHEDRAL>
0

>  <SCORE.INTRA.DIHEDRAL.0>
0

>  <SCORE.INTRA.POLAR>
0

>  <SCORE.INTRA.POLAR.0>
0

>  <SCORE.INTRA.REPUL>
0

>  <SCORE.INTRA.REPUL.0>
0

>  <SCORE.INTRA.SOLV>
0

>  <SCORE.INTRA.SOLV.lig_0>
-4.28901

>  <SCORE.INTRA.VDW>
0

>  <SCORE.INTRA.VDW.0>
0

>  <SCORE.INTRA.norm>
0

>  <SCORE.RESTR>
0

>  <SCORE.RESTR.CAVITY>
0

>  <SCORE.RESTR.norm>
0

>  <SCORE.SYSTEM>
0

>  <SCORE.SYSTEM.CONST>
0

>  <SCORE.SYSTEM.DIHEDRAL>
0

>  <SCORE.SYSTEM.SOLV>
0

>  <SCORE.SYSTEM.norm>
0

>  <SCORE.heavy>
10

>  <SCORE.norm>
-1.70643

>  <RMSD>
0.990

$$$$
ligand
 OpenBabel11021811423D
libRbt.so/2013.1/901 2013/11/27
 10 11  0  0  0  0  0  0  0  0999 V2000
   11.6609   11.6680    8.6631 N   0  0  0  0  0  0  0  0  0  0  0  0
   11.3972   13.0183    8.5247 C   0  0  0  0  0  0  0  0  0  0  0  0
   11.0921   13.5680    7.3413 N   0  0  0  0  0  0  0  0  0  0  0  0
   11.0749   12.6716    6.3208 C   0  0  0  0  0  0  0  0  0  0  0  0
   11.3290   11.3132    6.3870 C   0  0  0  0  0  0  0  0  0  0  0  0
   11.6534   10.7153    7.6392 C   0  0  0  0  0  0  0  0  0  0  0  0
   11.9132    9.5381    7.9266 O   0  0  0  0  0  0  0  0  0  0  0  0
   11.2043   10.7907    5.1291 N   0  0  0  0  0  0  0  0  0  0  0  0
   10.8762   11.8239    4.3138 C   0  0  0  0  0  0  0  0  0  0  0  0
   10.7896   12.9968    5.0186 N   0  0  0  0  0  0  0  0  0  0  0  0
  1  2  1  0  0  0  0
  1  6  1  0  0  0  0
  2  3  2  0  0  0  0
  3  4  1  0  0  0  0
  4  5  2  0  0  0  0
  4 10  1  0  0  0  0
  5  6  1  0  0  0  0
  5  8  1  0  0  0  0
  6  7  2  0  0  0  0
  8  9  1  0  0  0  0
  9 10  2  0  0  0  0
M  END
>  <CHROM.1>
11.31082946,11.76867401,6.75127521,0.43358809,-1.32646690,0.79829799

>  <Name>
ligand

>  <RI>
0

>  <Rbt.Current_Directory>
/home/itssahil/PROJECTS/Mol_Feturizer/New_Systems/rnas/2EEW

>  <Rbt.Executable>
rbdock ($Id: //depot/dev/client3/rdock/2013.1/src/exe/rbdock.cxx#4 $)

>  <Rbt.Library>
libRbt.so (2013.1, Build901 2013/11/27)

>  <Rbt.Parameter_File>
/export/apps/rDock/src/rDock_2013.1_src/data/scripts/dock_solv.prm

>  <Rbt.Receptor>
prm/blind_docking_60.prm

>  <SCORE>
-17.0602

>  <SCORE.INTER>
-17.0602

>  <SCORE.INTER.CONST>
1

>  <SCORE.INTER.POLAR>
0

>  <SCORE.INTER.ROT>
0

>  <SCORE.INTER.SOLV>
3.42963

>  <SCORE.INTER.VDW>
-16.1167

>  <SCORE.INTER.norm>
-1.70602

>  <SCORE.INTRA>
0

>  <SCORE.INTRA.DIHEDRAL>
0

>  <SCORE.INTRA.DIHEDRAL.0>
0

>  <SCORE.INTRA.POLAR>
0

>  <SCORE.INTRA.POLAR.0>
0

>  <SCORE.INTRA.REPUL>
0

>  <SCORE.INTRA.REPUL.0>
0

>  <SCORE.INTRA.SOLV>
0

>  <SCORE.INTRA.SOLV.lig_0>
-4.28901

>  <SCORE.INTRA.VDW>
0

>  <SCORE.INTRA.VDW.0>
0

>  <SCORE.INTRA.norm>
0

>  <SCORE.RESTR>
0

>  <SCORE.RESTR.CAVITY>
0

>  <SCORE.RESTR.norm>
0

>  <SCORE.SYSTEM>
0

>  <SCORE.SYSTEM.CONST>
0

>  <SCORE.SYSTEM.DIHEDRAL>
0

>  <SCORE.SYSTEM.SOLV>
0

>  <SCORE.SYSTEM.norm>
0

>  <SCORE.heavy>
10

>  <SCORE.norm>
-1.70602

>  <RMSD>
0.991

$$$$
ligand
 OpenBabel11021811423D
libRbt.so/2013.1/901 2013/11/27
 10 11  0  0  0  0  0  0  0  0999 V2000
   11.6213   11.6515    8.6680 N   0  0  0  0  0  0  0  0  0  0  0  0
   11.4084   13.0127    8.5506 C   0  0  0  0  0  0  0  0  0  0  0  0
   11.1329   13.5929    7.3746 N   0  0  0  0  0  0  0  0  0  0  0  0
   11.0909   12.7149    6.3390 C   0  0  0  0  0  0  0  0  0  0  0  0
   11.2945   11.3472    6.3839 C   0  0  0  0  0  0  0  0  0  0  0  0
   11.5870   10.7170    7.6281 C   0  0  0  0  0  0  0  0  0  0  0  0
   11.8012    9.5263    7.8973 O   0  0  0  0  0  0  0  0  0  0  0  0
   11.1606   10.8507    5.1165 N   0  0  0  0  0  0  0  0  0  0  0  0
   10.8769   11.9088    4.3165 C   0  0  0  0  0  0  0  0  0  0  0  0
   10.8278   13.0721    5.0404 N   0  0  0  0  0  0  0  0  0  0  0  0
  1  2  1  0  0  0  0
  1  6  1  0  0  0  0
  2  3  2  0  0  0  0
  3  4  1  0  0  0  0
  4  5  2  0  0  0  0
  4 10  1  0  0  0  0
  5  6  1  0  0  0  0
  5  8  1  0  0  0  0
  6  7  2  0  0  0  0
  8  9  1  0  0  0  0
  9 10  2  0  0  0  0
M  END
>  <CHROM.1>
11.29018281,11.79691626,6.75571600,0.33926491,-1.35726003,0.72327628

>  <Name>
ligand

>  <RI>
0

>  <Rbt.Current_Directory>
/home/itssahil/PROJECTS/Mol_Feturizer/New_Systems/rnas/2EEW

>  <Rbt.Executable>
rbdock ($Id: //depot/dev/client3/rdock/2013.1/src/exe/rbdock.cxx#4 $)

>  <Rbt.Library>
libRbt.so (2013.1, Build901 2013/11/27)

>  <Rbt.Parameter_File>
/export/apps/rDock/src/rDock_2013.1_src/data/scripts/dock_solv.prm

>  <Rbt.Receptor>
prm/blind_docking_80.prm

>  <SCORE>
-17.1165

>  <SCORE.INTER>
-17.1165

>  <SCORE.INTER.CONST>
1

>  <SCORE.INTER.POLAR>
0

>  <SCORE.INTER.ROT>
0

>  <SCORE.INTER.SOLV>
3.5367

>  <SCORE.INTER.VDW>
-16.1899

>  <SCORE.INTER.norm>
-1.71165

>  <SCORE.INTRA>
0

>  <SCORE.INTRA.DIHEDRAL>
0

>  <SCORE.INTRA.DIHEDRAL.0>
0

>  <SCORE.INTRA.POLAR>
0

>  <SCORE.INTRA.POLAR.0>
0

>  <SCORE.INTRA.REPUL>
0

>  <SCORE.INTRA.REPUL.0>
0

>  <SCORE.INTRA.SOLV>
0

>  <SCORE.INTRA.SOLV.lig_0>
-4.28901

>  <SCORE.INTRA.VDW>
0

>  <SCORE.INTRA.VDW.0>
0

>  <SCORE.INTRA.norm>
0

>  <SCORE.RESTR>
0

>  <SCORE.RESTR.CAVITY>
0

>  <SCORE.RESTR.norm>
0

>  <SCORE.SYSTEM>
0

>  <SCORE.SYSTEM.CONST>
0

>  <SCORE.SYSTEM.DIHEDRAL>
0

>  <SCORE.SYSTEM.SOLV>
0

>  <SCORE.SYSTEM.norm>
0

>  <SCORE.heavy>
10

>  <SCORE.norm>
-1.71165

>  <RMSD>
0.991

$$$$
ligand
 OpenBabel11021811423D
libRbt.so/2013.1/901 2013/11/27
 10 11  0  0  0  0  0  0  0  0999 V2000
   11.6633   11.6271    8.6384 N   0  0  0  0  0  0  0  0  0  0  0  0
   11.4384   12.9874    8.5340 C   0  0  0  0  0  0  0  0  0  0  0  0
   11.1445   13.5744    7.3658 N   0  0  0  0  0  0  0  0  0  0  0  0
   11.0972   12.7039    6.3240 C   0  0  0  0  0  0  0  0  0  0  0  0
   11.3121   11.3376    6.3560 C   0  0  0  0  0  0  0  0  0  0  0  0
   11.6241   10.7003    7.5918 C   0  0  0  0  0  0  0  0  0  0  0  0
   11.8508    9.5093    7.8494 O   0  0  0  0  0  0  0  0  0  0  0  0
   11.1672   10.8497    5.0865 N   0  0  0  0  0  0  0  0  0  0  0  0
   10.8658   11.9115    4.2980 C   0  0  0  0  0  0  0  0  0  0  0  0
   10.8161   13.0689    5.0314 N   0  0  0  0  0  0  0  0  0  0  0  0
  1  2  1  0  0  0  0
  1  6  1  0  0  0  0
  2  3  2  0  0  0  0
  3  4  1  0  0  0  0
  4  5  2  0  0  0  0
  4 10  1  0  0  0  0
  5  6  1  0  0  0  0
  5  8  1  0  0  0  0
  6  7  2  0  0  0  0
  8  9  1  0  0  0  0
  9 10  2  0  0  0  0
M  END
>  <CHROM.1>
11.30859248,11.78439662,6.73131914,0.33074732,-1.34325625,0.72260012

>  <Name>
ligand

>  <RI>
0

>  <Rbt.Current_Directory>
/home/itssahil/PROJECTS/Mol_Feturizer/New_Systems/rnas/2EEW

>  <Rbt.Executable>
rbdock ($Id: //depot/dev/client3/rdock/2013.1/src/exe/rbdock.cxx#4 $)

>  <Rbt.Library>
libRbt.so (2013.1, Build901 2013/11/27)

>  <Rbt.Parameter_File>
/export/apps/rDock/src/rDock_2013.1_src/data/scripts/dock_solv.prm

>  <Rbt.Receptor>
prm/pocket_docking_3.prm

>  <SCORE>
-17.0851

>  <SCORE.INTER>
-17.0851

>  <SCORE.INTER.CONST>
1

>  <SCORE.INTER.POLAR>
0

>  <SCORE.INTER.ROT>
0

>  <SCORE.INTER.SOLV>
3.46709

>  <SCORE.INTER.VDW>
-16.1458

>  <SCORE.INTER.norm>
-1.70851

>  <SCORE.INTRA>
0

>  <SCORE.INTRA.DIHEDRAL>
0

>  <SCORE.INTRA.DIHEDRAL.0>
0

>  <SCORE.INTRA.POLAR>
0

>  <SCORE.INTRA.POLAR.0>
0

>  <SCORE.INTRA.REPUL>
0

>  <SCORE.INTRA.REPUL.0>
0

>  <SCORE.INTRA.SOLV>
0

>  <SCORE.INTRA.SOLV.lig_0>
-4.28901

>  <SCORE.INTRA.VDW>
0

>  <SCORE.INTRA.VDW.0>
0

>  <SCORE.INTRA.norm>
0

>  <SCORE.RESTR>
0

>  <SCORE.RESTR.CAVITY>
0

>  <SCORE.RESTR.norm>
0

>  <SCORE.SYSTEM>
0

>  <SCORE.SYSTEM.CONST>
0

>  <SCORE.SYSTEM.DIHEDRAL>
0

>  <SCORE.SYSTEM.SOLV>
0

>  <SCORE.SYSTEM.norm>
0

>  <SCORE.heavy>
10

>  <SCORE.norm>
-1.70851

>  <RMSD>
0.991

$$$$
ligand
 OpenBabel11021811423D
libRbt.so/2013.1/901 2013/11/27
 10 11  0  0  0  0  0  0  0  0999 V2000
   11.6535   11.5578    8.6067 N   0  0  0  0  0  0  0  0  0  0  0  0
   11.4452   12.9230    8.5365 C   0  0  0  0  0  0  0  0  0  0  0  0
   11.1625   13.5431    7.3827 N   0  0  0  0  0  0  0  0  0  0  0  0
   11.1084   12.7003    6.3188 C   0  0  0  0  0  0  0  0  0  0  0  0
   11.3068   11.3310    6.3165 C   0  0  0  0  0  0  0  0  0  0  0  0
   11.6068   10.6586    7.5366 C   0  0  0  0  0  0  0  0  0  0  0  0
   11.8183    9.4588    7.7642 O   0  0  0  0  0  0  0  0  0  0  0  0
   11.1605   10.8776    5.0344 N   0  0  0  0  0  0  0  0  0  0  0  0
   10.8746   11.9628    4.2725 C   0  0  0  0  0  0  0  0  0  0  0  0
   10.8363   13.1015    5.0351 N   0  0  0  0  0  0  0  0  0  0  0  0
  1  2  1  0  0  0  0
  1  6  1  0  0  0  0
  2  3  2  0  0  0  0
  3  4  1  0  0  0  0
  4  5  2  0  0  0  0
  4 10  1  0  0  0  0
  5  6  1  0  0  0  0
  5  8  1  0  0  0  0
  6  7  2  0  0  0  0
  8  9  1  0  0  0  0
  9 10  2  0  0  0  0
M  END
>  <CHROM.1>
11.30733501,11.76810469,6.70310759,0.29973092,-1.35370100,0.71795677

>  <Name>
ligand

>  <RI>
0

>  <Rbt.Current_Directory>
/home/itssahil/PROJECTS/Mol_Feturizer/New_Systems/rnas/2EEW

>  <Rbt.Executable>
rbdock ($Id: //depot/dev/client3/rdock/2013.1/src/exe/rbdock.cxx#4 $)

>  <Rbt.Library>
libRbt.so (2013.1, Build901 2013/11/27)

>  <Rbt.Parameter_File>
/export/apps/rDock/src/rDock_2013.1_src/data/scripts/dock_solv.prm

>  <Rbt.Receptor>
prm/pocket_docking_4.prm

>  <SCORE>
-17.0463

>  <SCORE.INTER>
-17.0463

>  <SCORE.INTER.CONST>
1

>  <SCORE.INTER.POLAR>
0

>  <SCORE.INTER.ROT>
0

>  <SCORE.INTER.SOLV>
3.49114

>  <SCORE.INTER.VDW>
-16.1279

>  <SCORE.INTER.norm>
-1.70463

>  <SCORE.INTRA>
0

>  <SCORE.INTRA.DIHEDRAL>
0

>  <SCORE.INTRA.DIHEDRAL.0>
0

>  <SCORE.INTRA.POLAR>
0

>  <SCORE.INTRA.POLAR.0>
0

>  <SCORE.INTRA.REPUL>
0

>  <SCORE.INTRA.REPUL.0>
0

>  <SCORE.INTRA.SOLV>
0

>  <SCORE.INTRA.SOLV.lig_0>
-4.28901

>  <SCORE.INTRA.VDW>
0

>  <SCORE.INTRA.VDW.0>
0

>  <SCORE.INTRA.norm>
0

>  <SCORE.RESTR>
0

>  <SCORE.RESTR.CAVITY>
0

>  <SCORE.RESTR.norm>
0

>  <SCORE.SYSTEM>
0

>  <SCORE.SYSTEM.CONST>
0

>  <SCORE.SYSTEM.DIHEDRAL>
0

>  <SCORE.SYSTEM.SOLV>
0

>  <SCORE.SYSTEM.norm>
0

>  <SCORE.heavy>
10

>  <SCORE.norm>
-1.70463

>  <RMSD>
0.991

$$$$
ligand
 OpenBabel11021811423D
libRbt.so/2013.1/901 2013/11/27
 10 11  0  0  0  0  0  0  0  0999 V2000
   11.6323   11.6539    8.6619 N   0  0  0  0  0  0  0  0  0  0  0  0
   11.4011   13.0123    8.5466 C   0  0  0  0  0  0  0  0  0  0  0  0
   11.1194   13.5907    7.3712 N   0  0  0  0  0  0  0  0  0  0  0  0
   11.0906   12.7140    6.3340 C   0  0  0  0  0  0  0  0  0  0  0  0
   11.3126   11.3491    6.3769 C   0  0  0  0  0  0  0  0  0  0  0  0
   11.6120   10.7207    7.6204 C   0  0  0  0  0  0  0  0  0  0  0  0
   11.8419    9.5326    7.8878 O   0  0  0  0  0  0  0  0  0  0  0  0
   11.1871   10.8530    5.1084 N   0  0  0  0  0  0  0  0  0  0  0  0
   10.8902   11.9085    4.3098 C   0  0  0  0  0  0  0  0  0  0  0  0
   10.8244   13.0699    5.0357 N   0  0  0  0  0  0  0  0  0  0  0  0
  1  2  1  0  0  0  0
  1  6  1  0  0  0  0
  2  3  2  0  0  0  0
  3  4  1  0  0  0  0
  4  5  2  0  0  0  0
  4 10  1  0  0  0  0
  5  6  1  0  0  0  0
  5  8  1  0  0  0  0
  6  7  2  0  0  0  0
  8  9  1  0  0  0  0
  9 10  2  0  0  0  0
M  END
>  <CHROM.1>
11.30171798,11.79807317,6.74943864,0.38923689,-1.34904109,0.77377383

>  <Name>
ligand

>  <RI>
0

>  <Rbt.Current_Directory>
/home/itssahil/PROJECTS/Mol_Feturizer/New_Systems/rnas/2EEW

>  <Rbt.Executable>
rbdock ($Id: //depot/dev/client3/rdock/2013.1/src/exe/rbdock.cxx#4 $)

>  <Rbt.Library>
libRbt.so (2013.1, Build901 2013/11/27)

>  <Rbt.Parameter_File>
/export/apps/rDock/src/rDock_2013.1_src/data/scripts/dock_solv.prm

>  <Rbt.Receptor>
prm/blind_docking_100.prm

>  <SCORE>
-17.1031

>  <SCORE.INTER>
-17.1031

>  <SCORE.INTER.CONST>
1

>  <SCORE.INTER.POLAR>
0

>  <SCORE.INTER.ROT>
0

>  <SCORE.INTER.SOLV>
3.49071

>  <SCORE.INTER.VDW>
-16.1657

>  <SCORE.INTER.norm>
-1.71031

>  <SCORE.INTRA>
0

>  <SCORE.INTRA.DIHEDRAL>
0

>  <SCORE.INTRA.DIHEDRAL.0>
0

>  <SCORE.INTRA.POLAR>
0

>  <SCORE.INTRA.POLAR.0>
0

>  <SCORE.INTRA.REPUL>
0

>  <SCORE.INTRA.REPUL.0>
0

>  <SCORE.INTRA.SOLV>
0

>  <SCORE.INTRA.SOLV.lig_0>
-4.28901

>  <SCORE.INTRA.VDW>
0

>  <SCORE.INTRA.VDW.0>
0

>  <SCORE.INTRA.norm>
0

>  <SCORE.RESTR>
0

>  <SCORE.RESTR.CAVITY>
0

>  <SCORE.RESTR.norm>
0

>  <SCORE.SYSTEM>
0

>  <SCORE.SYSTEM.CONST>
0

>  <SCORE.SYSTEM.DIHEDRAL>
0

>  <SCORE.SYSTEM.SOLV>
0

>  <SCORE.SYSTEM.norm>
0

>  <SCORE.heavy>
10

>  <SCORE.norm>
-1.71031

>  <RMSD>
0.992

$$$$
ligand
 OpenBabel11021811423D
libRbt.so/2013.1/901 2013/11/27
 10 11  0  0  0  0  0  0  0  0999 V2000
   11.6930   11.6948    8.6701 N   0  0  0  0  0  0  0  0  0  0  0  0
   11.4189   13.0407    8.5111 C   0  0  0  0  0  0  0  0  0  0  0  0
   11.1051   13.5691    7.3203 N   0  0  0  0  0  0  0  0  0  0  0  0
   11.0905   12.6562    6.3145 C   0  0  0  0  0  0  0  0  0  0  0  0
   11.3547   11.3010    6.4014 C   0  0  0  0  0  0  0  0  0  0  0  0
   11.6885   10.7257    7.6617 C   0  0  0  0  0  0  0  0  0  0  0  0
   11.9580    9.5551    7.9669 O   0  0  0  0  0  0  0  0  0  0  0  0
   11.2288   10.7574    5.1526 N   0  0  0  0  0  0  0  0  0  0  0  0
   10.8899   11.7750    4.3222 C   0  0  0  0  0  0  0  0  0  0  0  0
   10.7975   12.9584    5.0084 N   0  0  0  0  0  0  0  0  0  0  0  0
  1  2  1  0  0  0  0
  1  6  1  0  0  0  0
  2  3  2  0  0  0  0
  3  4  1  0  0  0  0
  4  5  2  0  0  0  0
  4 10  1  0  0  0  0
  5  6  1  0  0  0  0
  5  8  1  0  0  0  0
  6  7  2  0  0  0  0
  8  9  1  0  0  0  0
  9 10  2  0  0  0  0
M  END
>  <CHROM.1>
11.33466463,11.76213136,6.75840436,0.44259243,-1.31844394,0.79095156

>  <Name>
ligand

>  <RI>
0

>  <Rbt.Current_Directory>
/home/itssahil/PROJECTS/Mol_Feturizer/New_Systems/rnas/2EEW

>  <Rbt.Executable>
rbdock ($Id: //depot/dev/client3/rdock/2013.1/src/exe/rbdock.cxx#4 $)

>  <Rbt.Library>
libRbt.so (2013.1, Build901 2013/11/27)

>  <Rbt.Parameter_File>
/export/apps/rDock/src/rDock_2013.1_src/data/scripts/dock_solv.prm

>  <Rbt.Receptor>
prm/pocket_docking_3.prm

>  <SCORE>
-17.0704

>  <SCORE.INTER>
-17.0704

>  <SCORE.INTER.CONST>
1

>  <SCORE.INTER.POLAR>
0

>  <SCORE.INTER.ROT>
0

>  <SCORE.INTER.SOLV>
3.40824

>  <SCORE.INTER.VDW>
-16.1163

>  <SCORE.INTER.norm>
-1.70704

>  <SCORE.INTRA>
0

>  <SCORE.INTRA.DIHEDRAL>
0

>  <SCORE.INTRA.DIHEDRAL.0>
0

>  <SCORE.INTRA.POLAR>
0

>  <SCORE.INTRA.POLAR.0>
0

>  <SCORE.INTRA.REPUL>
0

>  <SCORE.INTRA.REPUL.0>
0

>  <SCORE.INTRA.SOLV>
0

>  <SCORE.INTRA.SOLV.lig_0>
-4.28901

>  <SCORE.INTRA.VDW>
0

>  <SCORE.INTRA.VDW.0>
0

>  <SCORE.INTRA.norm>
0

>  <SCORE.RESTR>
0

>  <SCORE.RESTR.CAVITY>
0

>  <SCORE.RESTR.norm>
0

>  <SCORE.SYSTEM>
0

>  <SCORE.SYSTEM.CONST>
0

>  <SCORE.SYSTEM.DIHEDRAL>
0

>  <SCORE.SYSTEM.SOLV>
0

>  <SCORE.SYSTEM.norm>
0

>  <SCORE.heavy>
10

>  <SCORE.norm>
-1.70704

>  <RMSD>
0.992

$$$$
ligand
 OpenBabel11021811423D
libRbt.so/2013.1/901 2013/11/27
 10 11  0  0  0  0  0  0  0  0999 V2000
   11.6851   11.6896    8.6699 N   0  0  0  0  0  0  0  0  0  0  0  0
   11.4109   13.0356    8.5120 C   0  0  0  0  0  0  0  0  0  0  0  0
   11.0985   13.5652    7.3214 N   0  0  0  0  0  0  0  0  0  0  0  0
   11.0853   12.6535    6.3146 C   0  0  0  0  0  0  0  0  0  0  0  0
   11.3497   11.2982    6.4004 C   0  0  0  0  0  0  0  0  0  0  0  0
   11.6820   10.7216    7.6605 C   0  0  0  0  0  0  0  0  0  0  0  0
   11.9513    9.5507    7.9647 O   0  0  0  0  0  0  0  0  0  0  0  0
   11.2255   10.7559    5.1508 N   0  0  0  0  0  0  0  0  0  0  0  0
   10.8875   11.7743    4.3210 C   0  0  0  0  0  0  0  0  0  0  0  0
   10.7940   12.9570    5.0084 N   0  0  0  0  0  0  0  0  0  0  0  0
  1  2  1  0  0  0  0
  1  6  1  0  0  0  0
  2  3  2  0  0  0  0
  3  4  1  0  0  0  0
  4  5  2  0  0  0  0
  4 10  1  0  0  0  0
  5  6  1  0  0  0  0
  5  8  1  0  0  0  0
  6  7  2  0  0  0  0
  8  9  1  0  0  0  0
  9 10  2  0  0  0  0
M  END
>  <CHROM.1>
11.32911181,11.75892642,6.75782332,0.44676148,-1.31920780,0.79607268

>  <Name>
ligand

>  <RI>
0

>  <Rbt.Current_Directory>
/home/itssahil/PROJECTS/Mol_Feturizer/New_Systems/rnas/2EEW

>  <Rbt.Executable>
rbdock ($Id: //depot/dev/client3/rdock/2013.1/src/exe/rbdock.cxx#4 $)

>  <Rbt.Library>
libRbt.so (2013.1, Build901 2013/11/27)

>  <Rbt.Parameter_File>
/export/apps/rDock/src/rDock_2013.1_src/data/scripts/dock_solv.prm

>  <Rbt.Receptor>
prm/pocket_docking_4.prm

>  <SCORE>
-17.0758

>  <SCORE.INTER>
-17.0758

>  <SCORE.INTER.CONST>
1

>  <SCORE.INTER.POLAR>
0

>  <SCORE.INTER.ROT>
0

>  <SCORE.INTER.SOLV>
3.41162

>  <SCORE.INTER.VDW>
-16.1211

>  <SCORE.INTER.norm>
-1.70758

>  <SCORE.INTRA>
0

>  <SCORE.INTRA.DIHEDRAL>
0

>  <SCORE.INTRA.DIHEDRAL.0>
0

>  <SCORE.INTRA.POLAR>
0

>  <SCORE.INTRA.POLAR.0>
0

>  <SCORE.INTRA.REPUL>
0

>  <SCORE.INTRA.REPUL.0>
0

>  <SCORE.INTRA.SOLV>
0

>  <SCORE.INTRA.SOLV.lig_0>
-4.28901

>  <SCORE.INTRA.VDW>
0

>  <SCORE.INTRA.VDW.0>
0

>  <SCORE.INTRA.norm>
0

>  <SCORE.RESTR>
0

>  <SCORE.RESTR.CAVITY>
0

>  <SCORE.RESTR.norm>
0

>  <SCORE.SYSTEM>
0

>  <SCORE.SYSTEM.CONST>
0

>  <SCORE.SYSTEM.DIHEDRAL>
0

>  <SCORE.SYSTEM.SOLV>
0

>  <SCORE.SYSTEM.norm>
0

>  <SCORE.heavy>
10

>  <SCORE.norm>
-1.70758

>  <RMSD>
0.992

$$$$
ligand
 OpenBabel11021811423D
libRbt.so/2013.1/901 2013/11/27
 10 11  0  0  0  0  0  0  0  0999 V2000
   11.6119   11.6555    8.6728 N   0  0  0  0  0  0  0  0  0  0  0  0
   11.4041   13.0173    8.5529 C   0  0  0  0  0  0  0  0  0  0  0  0
   11.1370   13.5972    7.3747 N   0  0  0  0  0  0  0  0  0  0  0  0
   11.0979   12.7182    6.3398 C   0  0  0  0  0  0  0  0  0  0  0  0
   11.2967   11.3499    6.3873 C   0  0  0  0  0  0  0  0  0  0  0  0
   11.5802   10.7200    7.6337 C   0  0  0  0  0  0  0  0  0  0  0  0
   11.7890    9.5289    7.9053 O   0  0  0  0  0  0  0  0  0  0  0  0
   11.1682   10.8525    5.1196 N   0  0  0  0  0  0  0  0  0  0  0  0
   10.8924   11.9107    4.3170 C   0  0  0  0  0  0  0  0  0  0  0  0
   10.8432   13.0749    5.0394 N   0  0  0  0  0  0  0  0  0  0  0  0
  1  2  1  0  0  0  0
  1  6  1  0  0  0  0
  2  3  2  0  0  0  0
  3  4  1  0  0  0  0
  4  5  2  0  0  0  0
  4 10  1  0  0  0  0
  5  6  1  0  0  0  0
  5  8  1  0  0  0  0
  6  7  2  0  0  0  0
  8  9  1  0  0  0  0
  9 10  2  0  0  0  0
M  END
>  <CHROM.1>
11.29181226,11.79999972,6.75858146,0.34501573,-1.36359505,0.72786489

>  <Name>
ligand

>  <RI>
0

>  <Rbt.Current_Directory>
/home/itssahil/PROJECTS/Mol_Feturizer/New_Systems/rnas/2EEW

>  <Rbt.Executable>
rbdock ($Id: //depot/dev/client3/rdock/2013.1/src/exe/rbdock.cxx#4 $)

>  <Rbt.Library>
libRbt.so (2013.1, Build901 2013/11/27)

>  <Rbt.Parameter_File>
/export/apps/rDock/src/rDock_2013.1_src/data/scripts/dock_solv.prm

>  <Rbt.Receptor>
prm/pocket_docking_5.prm

>  <SCORE>
-17.1149

>  <SCORE.INTER>
-17.1149

>  <SCORE.INTER.CONST>
1

>  <SCORE.INTER.POLAR>
0

>  <SCORE.INTER.ROT>
0

>  <SCORE.INTER.SOLV>
3.55883

>  <SCORE.INTER.VDW>
-16.1962

>  <SCORE.INTER.norm>
-1.71149

>  <SCORE.INTRA>
0

>  <SCORE.INTRA.DIHEDRAL>
0

>  <SCORE.INTRA.DIHEDRAL.0>
0

>  <SCORE.INTRA.POLAR>
0

>  <SCORE.INTRA.POLAR.0>
0

>  <SCORE.INTRA.REPUL>
0

>  <SCORE.INTRA.REPUL.0>
0

>  <SCORE.INTRA.SOLV>
0

>  <SCORE.INTRA.SOLV.lig_0>
-4.28901

>  <SCORE.INTRA.VDW>
0

>  <SCORE.INTRA.VDW.0>
0

>  <SCORE.INTRA.norm>
0

>  <SCORE.RESTR>
0

>  <SCORE.RESTR.CAVITY>
0

>  <SCORE.RESTR.norm>
0

>  <SCORE.SYSTEM>
0

>  <SCORE.SYSTEM.CONST>
0

>  <SCORE.SYSTEM.DIHEDRAL>
0

>  <SCORE.SYSTEM.SOLV>
0

>  <SCORE.SYSTEM.norm>
0

>  <SCORE.heavy>
10

>  <SCORE.norm>
-1.71149

>  <RMSD>
0.992

$$$$
ligand
 OpenBabel11021811423D
libRbt.so/2013.1/901 2013/11/27
 10 11  0  0  0  0  0  0  0  0999 V2000
   11.6335   11.6512    8.6595 N   0  0  0  0  0  0  0  0  0  0  0  0
   11.4050   13.0102    8.5461 C   0  0  0  0  0  0  0  0  0  0  0  0
   11.1217   13.5905    7.3720 N   0  0  0  0  0  0  0  0  0  0  0  0
   11.0887   12.7150    6.3340 C   0  0  0  0  0  0  0  0  0  0  0  0
   11.3079   11.3496    6.3749 C   0  0  0  0  0  0  0  0  0  0  0  0
   11.6088   10.7193    7.6170 C   0  0  0  0  0  0  0  0  0  0  0  0
   11.8368    9.5304    7.8827 O   0  0  0  0  0  0  0  0  0  0  0  0
   11.1785   10.8551    5.1062 N   0  0  0  0  0  0  0  0  0  0  0  0
   10.8820   11.9121    4.3094 C   0  0  0  0  0  0  0  0  0  0  0  0
   10.8204   13.0728    5.0366 N   0  0  0  0  0  0  0  0  0  0  0  0
  1  2  1  0  0  0  0
  1  6  1  0  0  0  0
  2  3  2  0  0  0  0
  3  4  1  0  0  0  0
  4  5  2  0  0  0  0
  4 10  1  0  0  0  0
  5  6  1  0  0  0  0
  5  8  1  0  0  0  0
  6  7  2  0  0  0  0
  8  9  1  0  0  0  0
  9 10  2  0  0  0  0
M  END
>  <CHROM.1>
11.29887443,11.79815641,6.74795784,0.37505591,-1.34885278,0.76100256

>  <Name>
ligand

>  <RI>
0

>  <Rbt.Current_Directory>
/home/itssahil/PROJECTS/Mol_Feturizer/New_Systems/rnas/2EEW

>  <Rbt.Executable>
rbdock ($Id: //depot/dev/client3/rdock/2013.1/src/exe/rbdock.cxx#4 $)

>  <Rbt.Library>
libRbt.so (2013.1, Build901 2013/11/27)

>  <Rbt.Parameter_File>
/export/apps/rDock/src/rDock_2013.1_src/data/scripts/dock_solv.prm

>  <Rbt.Receptor>
prm/pocket_docking_5.prm

>  <SCORE>
-17.1105

>  <SCORE.INTER>
-17.1105

>  <SCORE.INTER.CONST>
1

>  <SCORE.INTER.POLAR>
0

>  <SCORE.INTER.ROT>
0

>  <SCORE.INTER.SOLV>
3.49129

>  <SCORE.INTER.VDW>
-16.1708

>  <SCORE.INTER.norm>
-1.71105

>  <SCORE.INTRA>
0

>  <SCORE.INTRA.DIHEDRAL>
0

>  <SCORE.INTRA.DIHEDRAL.0>
0

>  <SCORE.INTRA.POLAR>
0

>  <SCORE.INTRA.POLAR.0>
0

>  <SCORE.INTRA.REPUL>
0

>  <SCORE.INTRA.REPUL.0>
0

>  <SCORE.INTRA.SOLV>
0

>  <SCORE.INTRA.SOLV.lig_0>
-4.28901

>  <SCORE.INTRA.VDW>
0

>  <SCORE.INTRA.VDW.0>
0

>  <SCORE.INTRA.norm>
0

>  <SCORE.RESTR>
0

>  <SCORE.RESTR.CAVITY>
0

>  <SCORE.RESTR.norm>
0

>  <SCORE.SYSTEM>
0

>  <SCORE.SYSTEM.CONST>
0

>  <SCORE.SYSTEM.DIHEDRAL>
0

>  <SCORE.SYSTEM.SOLV>
0

>  <SCORE.SYSTEM.norm>
0

>  <SCORE.heavy>
10

>  <SCORE.norm>
-1.71105

>  <RMSD>
0.992

$$$$
ligand
 OpenBabel11021811423D
libRbt.so/2013.1/901 2013/11/27
 10 11  0  0  0  0  0  0  0  0999 V2000
   11.6238   11.6544    8.6713 N   0  0  0  0  0  0  0  0  0  0  0  0
   11.4228   13.0166    8.5452 C   0  0  0  0  0  0  0  0  0  0  0  0
   11.1534   13.5918    7.3653 N   0  0  0  0  0  0  0  0  0  0  0  0
   11.1047   12.7076    6.3352 C   0  0  0  0  0  0  0  0  0  0  0  0
   11.2963   11.3385    6.3889 C   0  0  0  0  0  0  0  0  0  0  0  0
   11.5823   10.7136    7.6374 C   0  0  0  0  0  0  0  0  0  0  0  0
   11.7859    9.5229    7.9143 O   0  0  0  0  0  0  0  0  0  0  0  0
   11.1592   10.8352    5.1245 N   0  0  0  0  0  0  0  0  0  0  0  0
   10.8855   11.8906    4.3176 C   0  0  0  0  0  0  0  0  0  0  0  0
   10.8458   13.0589    5.0341 N   0  0  0  0  0  0  0  0  0  0  0  0
  1  2  1  0  0  0  0
  1  6  1  0  0  0  0
  2  3  2  0  0  0  0
  3  4  1  0  0  0  0
  4  5  2  0  0  0  0
  4 10  1  0  0  0  0
  5  6  1  0  0  0  0
  5  8  1  0  0  0  0
  6  7  2  0  0  0  0
  8  9  1  0  0  0  0
  9 10  2  0  0  0  0
M  END
>  <CHROM.1>
11.29560670,11.79056632,6.75788924,0.31034522,-1.36357739,0.68867015

>  <Name>
ligand

>  <RI>
0

>  <Rbt.Current_Directory>
/home/itssahil/PROJECTS/Mol_Feturizer/New_Systems/rnas/2EEW

>  <Rbt.Executable>
rbdock ($Id: //depot/dev/client3/rdock/2013.1/src/exe/rbdock.cxx#4 $)

>  <Rbt.Library>
libRbt.so (2013.1, Build901 2013/11/27)

>  <Rbt.Parameter_File>
/export/apps/rDock/src/rDock_2013.1_src/data/scripts/dock_solv.prm

>  <Rbt.Receptor>
prm/pocket_docking_6.prm

>  <SCORE>
-17.1099

>  <SCORE.INTER>
-17.1099

>  <SCORE.INTER.CONST>
1

>  <SCORE.INTER.POLAR>
0

>  <SCORE.INTER.ROT>
0

>  <SCORE.INTER.SOLV>
3.57165

>  <SCORE.INTER.VDW>
-16.1971

>  <SCORE.INTER.norm>
-1.71099

>  <SCORE.INTRA>
0

>  <SCORE.INTRA.DIHEDRAL>
0

>  <SCORE.INTRA.DIHEDRAL.0>
0

>  <SCORE.INTRA.POLAR>
0

>  <SCORE.INTRA.POLAR.0>
0

>  <SCORE.INTRA.REPUL>
0

>  <SCORE.INTRA.REPUL.0>
0

>  <SCORE.INTRA.SOLV>
0

>  <SCORE.INTRA.SOLV.lig_0>
-4.28901

>  <SCORE.INTRA.VDW>
0

>  <SCORE.INTRA.VDW.0>
0

>  <SCORE.INTRA.norm>
0

>  <SCORE.RESTR>
0

>  <SCORE.RESTR.CAVITY>
0

>  <SCORE.RESTR.norm>
0

>  <SCORE.SYSTEM>
0

>  <SCORE.SYSTEM.CONST>
0

>  <SCORE.SYSTEM.DIHEDRAL>
0

>  <SCORE.SYSTEM.SOLV>
0

>  <SCORE.SYSTEM.norm>
0

>  <SCORE.heavy>
10

>  <SCORE.norm>
-1.71099

>  <RMSD>
0.992

$$$$
ligand
 OpenBabel11021811423D
libRbt.so/2013.1/901 2013/11/27
 10 11  0  0  0  0  0  0  0  0999 V2000
   11.6392   11.6523    8.6572 N   0  0  0  0  0  0  0  0  0  0  0  0
   11.4076   13.0109    8.5457 C   0  0  0  0  0  0  0  0  0  0  0  0
   11.1205   13.5918    7.3727 N   0  0  0  0  0  0  0  0  0  0  0  0
   11.0870   12.7172    6.3339 C   0  0  0  0  0  0  0  0  0  0  0  0
   11.3091   11.3521    6.3730 C   0  0  0  0  0  0  0  0  0  0  0  0
   11.6141   10.7212    7.6139 C   0  0  0  0  0  0  0  0  0  0  0  0
   11.8451    9.5326    7.8779 O   0  0  0  0  0  0  0  0  0  0  0  0
   11.1778   10.8587    5.1042 N   0  0  0  0  0  0  0  0  0  0  0  0
   10.8774   11.9158    4.3091 C   0  0  0  0  0  0  0  0  0  0  0  0
   10.8150   13.0757    5.0376 N   0  0  0  0  0  0  0  0  0  0  0  0
  1  2  1  0  0  0  0
  1  6  1  0  0  0  0
  2  3  2  0  0  0  0
  3  4  1  0  0  0  0
  4  5  2  0  0  0  0
  4 10  1  0  0  0  0
  5  6  1  0  0  0  0
  5  8  1  0  0  0  0
  6  7  2  0  0  0  0
  8  9  1  0  0  0  0
  9 10  2  0  0  0  0
M  END
>  <CHROM.1>
11.29994797,11.80035443,6.74655609,0.37486424,-1.34580787,0.76179148

>  <Name>
ligand

>  <RI>
0

>  <Rbt.Current_Directory>
/home/itssahil/PROJECTS/Mol_Feturizer/New_Systems/rnas/2EEW

>  <Rbt.Executable>
rbdock ($Id: //depot/dev/client3/rdock/2013.1/src/exe/rbdock.cxx#4 $)

>  <Rbt.Library>
libRbt.so (2013.1, Build901 2013/11/27)

>  <Rbt.Parameter_File>
/export/apps/rDock/src/rDock_2013.1_src/data/scripts/dock_solv.prm

>  <Rbt.Receptor>
prm/pocket_docking_6.prm

>  <SCORE>
-17.1094

>  <SCORE.INTER>
-17.1094

>  <SCORE.INTER.CONST>
1

>  <SCORE.INTER.POLAR>
0

>  <SCORE.INTER.ROT>
0

>  <SCORE.INTER.SOLV>
3.47815

>  <SCORE.INTER.VDW>
-16.1657

>  <SCORE.INTER.norm>
-1.71094

>  <SCORE.INTRA>
0

>  <SCORE.INTRA.DIHEDRAL>
0

>  <SCORE.INTRA.DIHEDRAL.0>
0

>  <SCORE.INTRA.POLAR>
0

>  <SCORE.INTRA.POLAR.0>
0

>  <SCORE.INTRA.REPUL>
0

>  <SCORE.INTRA.REPUL.0>
0

>  <SCORE.INTRA.SOLV>
0

>  <SCORE.INTRA.SOLV.lig_0>
-4.28901

>  <SCORE.INTRA.VDW>
0

>  <SCORE.INTRA.VDW.0>
0

>  <SCORE.INTRA.norm>
0

>  <SCORE.RESTR>
0

>  <SCORE.RESTR.CAVITY>
0

>  <SCORE.RESTR.norm>
0

>  <SCORE.SYSTEM>
0

>  <SCORE.SYSTEM.CONST>
0

>  <SCORE.SYSTEM.DIHEDRAL>
0

>  <SCORE.SYSTEM.SOLV>
0

>  <SCORE.SYSTEM.norm>
0

>  <SCORE.heavy>
10

>  <SCORE.norm>
-1.71094

>  <RMSD>
0.992

$$$$
ligand
 OpenBabel11021811423D
libRbt.so/2013.1/901 2013/11/27
 10 11  0  0  0  0  0  0  0  0999 V2000
   11.5951   11.6696    8.6875 N   0  0  0  0  0  0  0  0  0  0  0  0
   11.3856   13.0302    8.5581 C   0  0  0  0  0  0  0  0  0  0  0  0
   11.1235   13.6023    7.3750 N   0  0  0  0  0  0  0  0  0  0  0  0
   11.0912   12.7169    6.3454 C   0  0  0  0  0  0  0  0  0  0  0  0
   11.2922   11.3492    6.4023 C   0  0  0  0  0  0  0  0  0  0  0  0
   11.5705   10.7276    7.6541 C   0  0  0  0  0  0  0  0  0  0  0  0
   11.7799    9.5386    7.9341 O   0  0  0  0  0  0  0  0  0  0  0  0
   11.1710   10.8438    5.1372 N   0  0  0  0  0  0  0  0  0  0  0  0
   10.8975   11.8964    4.3266 C   0  0  0  0  0  0  0  0  0  0  0  0
   10.8425   13.0651    5.0415 N   0  0  0  0  0  0  0  0  0  0  0  0
  1  2  1  0  0  0  0
  1  6  1  0  0  0  0
  2  3  2  0  0  0  0
  3  4  1  0  0  0  0
  4  5  2  0  0  0  0
  4 10  1  0  0  0  0
  5  6  1  0  0  0  0
  5  8  1  0  0  0  0
  6  7  2  0  0  0  0
  8  9  1  0  0  0  0
  9 10  2  0  0  0  0
M  END
>  <CHROM.1>
11.28460652,11.80161418,6.77083874,0.36817907,-1.36618248,0.74433554

>  <Name>
ligand

>  <RI>
0

>  <Rbt.Current_Directory>
/home/itssahil/PROJECTS/Mol_Feturizer/New_Systems/rnas/2EEW

>  <Rbt.Executable>
rbdock ($Id: //depot/dev/client3/rdock/2013.1/src/exe/rbdock.cxx#4 $)

>  <Rbt.Library>
libRbt.so (2013.1, Build901 2013/11/27)

>  <Rbt.Parameter_File>
/export/apps/rDock/src/rDock_2013.1_src/data/scripts/dock_solv.prm

>  <Rbt.Receptor>
prm/pocket_docking_7.prm

>  <SCORE>
-17.1268

>  <SCORE.INTER>
-17.1268

>  <SCORE.INTER.CONST>
1

>  <SCORE.INTER.POLAR>
0

>  <SCORE.INTER.ROT>
0

>  <SCORE.INTER.SOLV>
3.57646

>  <SCORE.INTER.VDW>
-16.21

>  <SCORE.INTER.norm>
-1.71268

>  <SCORE.INTRA>
0

>  <SCORE.INTRA.DIHEDRAL>
0

>  <SCORE.INTRA.DIHEDRAL.0>
0

>  <SCORE.INTRA.POLAR>
0

>  <SCORE.INTRA.POLAR.0>
0

>  <SCORE.INTRA.REPUL>
0

>  <SCORE.INTRA.REPUL.0>
0

>  <SCORE.INTRA.SOLV>
0

>  <SCORE.INTRA.SOLV.lig_0>
-4.28901

>  <SCORE.INTRA.VDW>
0

>  <SCORE.INTRA.VDW.0>
0

>  <SCORE.INTRA.norm>
0

>  <SCORE.RESTR>
0

>  <SCORE.RESTR.CAVITY>
0

>  <SCORE.RESTR.norm>
0

>  <SCORE.SYSTEM>
0

>  <SCORE.SYSTEM.CONST>
0

>  <SCORE.SYSTEM.DIHEDRAL>
0

>  <SCORE.SYSTEM.SOLV>
0

>  <SCORE.SYSTEM.norm>
0

>  <SCORE.heavy>
10

>  <SCORE.norm>
-1.71268

>  <RMSD>
0.992

$$$$
ligand
 OpenBabel11021811423D
libRbt.so/2013.1/901 2013/11/27
 10 11  0  0  0  0  0  0  0  0999 V2000
   11.6058   11.6756    8.6854 N   0  0  0  0  0  0  0  0  0  0  0  0
   11.3911   13.0357    8.5588 C   0  0  0  0  0  0  0  0  0  0  0  0
   11.1272   13.6093    7.3769 N   0  0  0  0  0  0  0  0  0  0  0  0
   11.0987   12.7261    6.3453 C   0  0  0  0  0  0  0  0  0  0  0  0
   11.3050   11.3591    6.3994 C   0  0  0  0  0  0  0  0  0  0  0  0
   11.5852   10.7358    7.6499 C   0  0  0  0  0  0  0  0  0  0  0  0
   11.7992    9.5470    7.9274 O   0  0  0  0  0  0  0  0  0  0  0  0
   11.1863   10.8559    5.1331 N   0  0  0  0  0  0  0  0  0  0  0  0
   10.9090   11.9093    4.3247 C   0  0  0  0  0  0  0  0  0  0  0  0
   10.8492   13.0761    5.0421 N   0  0  0  0  0  0  0  0  0  0  0  0
  1  2  1  0  0  0  0
  1  6  1  0  0  0  0
  2  3  2  0  0  0  0
  3  4  1  0  0  0  0
  4  5  2  0  0  0  0
  4 10  1  0  0  0  0
  5  6  1  0  0  0  0
  5  8  1  0  0  0  0
  6  7  2  0  0  0  0
  8  9  1  0  0  0  0
  9 10  2  0  0  0  0
M  END
>  <CHROM.1>
11.29552397,11.81061267,6.76883730,0.38325261,-1.36381984,0.76126005

>  <Name>
ligand

>  <RI>
0

>  <Rbt.Current_Directory>
/home/itssahil/PROJECTS/Mol_Feturizer/New_Systems/rnas/2EEW

>  <Rbt.Executable>
rbdock ($Id: //depot/dev/client3/rdock/2013.1/src/exe/rbdock.cxx#4 $)

>  <Rbt.Library>
libRbt.so (2013.1, Build901 2013/11/27)

>  <Rbt.Parameter_File>
/export/apps/rDock/src/rDock_2013.1_src/data/scripts/dock_solv.prm

>  <Rbt.Receptor>
prm/pocket_docking_8.prm

>  <SCORE>
-17.1229

>  <SCORE.INTER>
-17.1229

>  <SCORE.INTER.CONST>
1

>  <SCORE.INTER.POLAR>
0

>  <SCORE.INTER.ROT>
0

>  <SCORE.INTER.SOLV>
3.55813

>  <SCORE.INTER.VDW>
-16.2013

>  <SCORE.INTER.norm>
-1.71229

>  <SCORE.INTRA>
0

>  <SCORE.INTRA.DIHEDRAL>
0

>  <SCORE.INTRA.DIHEDRAL.0>
0

>  <SCORE.INTRA.POLAR>
0

>  <SCORE.INTRA.POLAR.0>
0

>  <SCORE.INTRA.REPUL>
0

>  <SCORE.INTRA.REPUL.0>
0

>  <SCORE.INTRA.SOLV>
0

>  <SCORE.INTRA.SOLV.lig_0>
-4.28901

>  <SCORE.INTRA.VDW>
0

>  <SCORE.INTRA.VDW.0>
0

>  <SCORE.INTRA.norm>
0

>  <SCORE.RESTR>
0

>  <SCORE.RESTR.CAVITY>
0

>  <SCORE.RESTR.norm>
0

>  <SCORE.SYSTEM>
0

>  <SCORE.SYSTEM.CONST>
0

>  <SCORE.SYSTEM.DIHEDRAL>
0

>  <SCORE.SYSTEM.SOLV>
0

>  <SCORE.SYSTEM.norm>
0

>  <SCORE.heavy>
10

>  <SCORE.norm>
-1.71229

>  <RMSD>
0.992

$$$$
ligand
 OpenBabel11021811423D
libRbt.so/2013.1/901 2013/11/27
 10 11  0  0  0  0  0  0  0  0999 V2000
   11.6141   11.6578    8.6709 N   0  0  0  0  0  0  0  0  0  0  0  0
   11.3965   13.0180    8.5514 C   0  0  0  0  0  0  0  0  0  0  0  0
   11.1225   13.5959    7.3739 N   0  0  0  0  0  0  0  0  0  0  0  0
   11.0870   12.7167    6.3391 C   0  0  0  0  0  0  0  0  0  0  0  0
   11.2956   11.3498    6.3861 C   0  0  0  0  0  0  0  0  0  0  0  0
   11.5866   10.7220    7.6319 C   0  0  0  0  0  0  0  0  0  0  0  0
   11.8044    9.5324    7.9031 O   0  0  0  0  0  0  0  0  0  0  0  0
   11.1675   10.8514    5.1189 N   0  0  0  0  0  0  0  0  0  0  0  0
   10.8824   11.9075    4.3168 C   0  0  0  0  0  0  0  0  0  0  0  0
   10.8267   13.0715    5.0393 N   0  0  0  0  0  0  0  0  0  0  0  0
  1  2  1  0  0  0  0
  1  6  1  0  0  0  0
  2  3  2  0  0  0  0
  3  4  1  0  0  0  0
  4  5  2  0  0  0  0
  4 10  1  0  0  0  0
  5  6  1  0  0  0  0
  5  8  1  0  0  0  0
  6  7  2  0  0  0  0
  8  9  1  0  0  0  0
  9 10  2  0  0  0  0
M  END
>  <CHROM.1>
11.28843959,11.79985747,6.75744530,0.36211859,-1.35708326,0.74451395

>  <Name>
ligand

>  <RI>
0

>  <Rbt.Current_Directory>
/home/itssahil/PROJECTS/Mol_Feturizer/New_Systems/rnas/2EEW

>  <Rbt.Executable>
rbdock ($Id: //depot/dev/client3/rdock/2013.1/src/exe/rbdock.cxx#4 $)

>  <Rbt.Library>
libRbt.so (2013.1, Build901 2013/11/27)

>  <Rbt.Parameter_File>
/export/apps/rDock/src/rDock_2013.1_src/data/scripts/dock_solv.prm

>  <Rbt.Receptor>
prm/blind_docking_40.prm

>  <SCORE>
-17.107

>  <SCORE.INTER>
-17.107

>  <SCORE.INTER.CONST>
1

>  <SCORE.INTER.POLAR>
0

>  <SCORE.INTER.ROT>
0

>  <SCORE.INTER.SOLV>
3.53353

>  <SCORE.INTER.VDW>
-16.1825

>  <SCORE.INTER.norm>
-1.7107

>  <SCORE.INTRA>
0

>  <SCORE.INTRA.DIHEDRAL>
0

>  <SCORE.INTRA.DIHEDRAL.0>
0

>  <SCORE.INTRA.POLAR>
0

>  <SCORE.INTRA.POLAR.0>
0

>  <SCORE.INTRA.REPUL>
0

>  <SCORE.INTRA.REPUL.0>
0

>  <SCORE.INTRA.SOLV>
0

>  <SCORE.INTRA.SOLV.lig_0>
-4.28901

>  <SCORE.INTRA.VDW>
0

>  <SCORE.INTRA.VDW.0>
0

>  <SCORE.INTRA.norm>
0

>  <SCORE.RESTR>
0

>  <SCORE.RESTR.CAVITY>
0

>  <SCORE.RESTR.norm>
0

>  <SCORE.SYSTEM>
0

>  <SCORE.SYSTEM.CONST>
0

>  <SCORE.SYSTEM.DIHEDRAL>
0

>  <SCORE.SYSTEM.SOLV>
0

>  <SCORE.SYSTEM.norm>
0

>  <SCORE.heavy>
10

>  <SCORE.norm>
-1.7107

>  <RMSD>
0.993

$$$$
ligand
 OpenBabel11021811423D
libRbt.so/2013.1/901 2013/11/27
 10 11  0  0  0  0  0  0  0  0999 V2000
   11.6652   11.5598    8.6002 N   0  0  0  0  0  0  0  0  0  0  0  0
   11.4407   12.9224    8.5311 C   0  0  0  0  0  0  0  0  0  0  0  0
   11.1509   13.5401    7.3779 N   0  0  0  0  0  0  0  0  0  0  0  0
   11.1069   12.6977    6.3133 C   0  0  0  0  0  0  0  0  0  0  0  0
   11.3214   11.3309    6.3098 C   0  0  0  0  0  0  0  0  0  0  0  0
   11.6293   10.6610    7.5293 C   0  0  0  0  0  0  0  0  0  0  0  0
   11.8549    9.4636    7.7559 O   0  0  0  0  0  0  0  0  0  0  0  0
   11.1807   10.8768    5.0273 N   0  0  0  0  0  0  0  0  0  0  0  0
   10.8821   11.9592    4.2662 C   0  0  0  0  0  0  0  0  0  0  0  0
   10.8302   13.0968    5.0298 N   0  0  0  0  0  0  0  0  0  0  0  0
  1  2  1  0  0  0  0
  1  6  1  0  0  0  0
  2  3  2  0  0  0  0
  3  4  1  0  0  0  0
  4  5  2  0  0  0  0
  4 10  1  0  0  0  0
  5  6  1  0  0  0  0
  5  8  1  0  0  0  0
  6  7  2  0  0  0  0
  8  9  1  0  0  0  0
  9 10  2  0  0  0  0
M  END
>  <CHROM.1>
11.31679014,11.76758522,6.69675300,0.34011695,-1.34582804,0.75822871

>  <Name>
ligand

>  <RI>
0

>  <Rbt.Current_Directory>
/home/itssahil/PROJECTS/Mol_Feturizer/New_Systems/rnas/2EEW

>  <Rbt.Executable>
rbdock ($Id: //depot/dev/client3/rdock/2013.1/src/exe/rbdock.cxx#4 $)

>  <Rbt.Library>
libRbt.so (2013.1, Build901 2013/11/27)

>  <Rbt.Parameter_File>
/export/apps/rDock/src/rDock_2013.1_src/data/scripts/dock_solv.prm

>  <Rbt.Receptor>
prm/blind_docking_40.prm

>  <SCORE>
-17.0364

>  <SCORE.INTER>
-17.0364

>  <SCORE.INTER.CONST>
1

>  <SCORE.INTER.POLAR>
0

>  <SCORE.INTER.ROT>
0

>  <SCORE.INTER.SOLV>
3.44518

>  <SCORE.INTER.VDW>
-16.106

>  <SCORE.INTER.norm>
-1.70364

>  <SCORE.INTRA>
0

>  <SCORE.INTRA.DIHEDRAL>
0

>  <SCORE.INTRA.DIHEDRAL.0>
0

>  <SCORE.INTRA.POLAR>
0

>  <SCORE.INTRA.POLAR.0>
0

>  <SCORE.INTRA.REPUL>
0

>  <SCORE.INTRA.REPUL.0>
0

>  <SCORE.INTRA.SOLV>
0

>  <SCORE.INTRA.SOLV.lig_0>
-4.28901

>  <SCORE.INTRA.VDW>
0

>  <SCORE.INTRA.VDW.0>
0

>  <SCORE.INTRA.norm>
0

>  <SCORE.RESTR>
0

>  <SCORE.RESTR.CAVITY>
0

>  <SCORE.RESTR.norm>
0

>  <SCORE.SYSTEM>
0

>  <SCORE.SYSTEM.CONST>
0

>  <SCORE.SYSTEM.DIHEDRAL>
0

>  <SCORE.SYSTEM.SOLV>
0

>  <SCORE.SYSTEM.norm>
0

>  <SCORE.heavy>
10

>  <SCORE.norm>
-1.70364

>  <RMSD>
0.993

$$$$
ligand
 OpenBabel11021811423D
libRbt.so/2013.1/901 2013/11/27
 10 11  0  0  0  0  0  0  0  0999 V2000
   11.6216   11.6843    8.6820 N   0  0  0  0  0  0  0  0  0  0  0  0
   11.4058   13.0440    8.5541 C   0  0  0  0  0  0  0  0  0  0  0  0
   11.1298   13.6147    7.3736 N   0  0  0  0  0  0  0  0  0  0  0  0
   11.0902   12.7288    6.3447 C   0  0  0  0  0  0  0  0  0  0  0  0
   11.2967   11.3619    6.4001 C   0  0  0  0  0  0  0  0  0  0  0  0
   11.5899   10.7418    7.6492 C   0  0  0  0  0  0  0  0  0  0  0  0
   11.8065    9.5536    7.9275 O   0  0  0  0  0  0  0  0  0  0  0  0
   11.1646   10.8555    5.1364 N   0  0  0  0  0  0  0  0  0  0  0  0
   10.8791   11.9068    4.3282 C   0  0  0  0  0  0  0  0  0  0  0  0
   10.8272   13.0756    5.0432 N   0  0  0  0  0  0  0  0  0  0  0  0
  1  2  1  0  0  0  0
  1  6  1  0  0  0  0
  2  3  2  0  0  0  0
  3  4  1  0  0  0  0
  4  5  2  0  0  0  0
  4 10  1  0  0  0  0
  5  6  1  0  0  0  0
  5  8  1  0  0  0  0
  6  7  2  0  0  0  0
  8  9  1  0  0  0  0
  9 10  2  0  0  0  0
M  END
>  <CHROM.1>
11.29123830,11.81439322,6.76845456,0.34846475,-1.35626882,0.72466333

>  <Name>
ligand

>  <RI>
0

>  <Rbt.Current_Directory>
/home/itssahil/PROJECTS/Mol_Feturizer/New_Systems/rnas/2EEW

>  <Rbt.Executable>
rbdock ($Id: //depot/dev/client3/rdock/2013.1/src/exe/rbdock.cxx#4 $)

>  <Rbt.Library>
libRbt.so (2013.1, Build901 2013/11/27)

>  <Rbt.Parameter_File>
/export/apps/rDock/src/rDock_2013.1_src/data/scripts/dock_solv.prm

>  <Rbt.Receptor>
prm/blind_docking_40.prm

>  <SCORE>
-17.1225

>  <SCORE.INTER>
-17.1225

>  <SCORE.INTER.CONST>
1

>  <SCORE.INTER.POLAR>
0

>  <SCORE.INTER.ROT>
0

>  <SCORE.INTER.SOLV>
3.54177

>  <SCORE.INTER.VDW>
-16.1956

>  <SCORE.INTER.norm>
-1.71225

>  <SCORE.INTRA>
0

>  <SCORE.INTRA.DIHEDRAL>
0

>  <SCORE.INTRA.DIHEDRAL.0>
0

>  <SCORE.INTRA.POLAR>
0

>  <SCORE.INTRA.POLAR.0>
0

>  <SCORE.INTRA.REPUL>
0

>  <SCORE.INTRA.REPUL.0>
0

>  <SCORE.INTRA.SOLV>
0

>  <SCORE.INTRA.SOLV.lig_0>
-4.28901

>  <SCORE.INTRA.VDW>
0

>  <SCORE.INTRA.VDW.0>
0

>  <SCORE.INTRA.norm>
0

>  <SCORE.RESTR>
0

>  <SCORE.RESTR.CAVITY>
0

>  <SCORE.RESTR.norm>
0

>  <SCORE.SYSTEM>
0

>  <SCORE.SYSTEM.CONST>
0

>  <SCORE.SYSTEM.DIHEDRAL>
0

>  <SCORE.SYSTEM.SOLV>
0

>  <SCORE.SYSTEM.norm>
0

>  <SCORE.heavy>
10

>  <SCORE.norm>
-1.71225

>  <RMSD>
0.993

$$$$
ligand
 OpenBabel11021811423D
libRbt.so/2013.1/901 2013/11/27
 10 11  0  0  0  0  0  0  0  0999 V2000
   11.6498   11.6317    8.6440 N   0  0  0  0  0  0  0  0  0  0  0  0
   11.4285   12.9921    8.5336 C   0  0  0  0  0  0  0  0  0  0  0  0
   11.1432   13.5757    7.3616 N   0  0  0  0  0  0  0  0  0  0  0  0
   11.1006   12.7018    6.3225 C   0  0  0  0  0  0  0  0  0  0  0  0
   11.3122   11.3351    6.3605 C   0  0  0  0  0  0  0  0  0  0  0  0
   11.6152   10.7013    7.6004 C   0  0  0  0  0  0  0  0  0  0  0  0
   11.8377    9.5108    7.8633 O   0  0  0  0  0  0  0  0  0  0  0  0
   11.1742   10.8432    5.0917 N   0  0  0  0  0  0  0  0  0  0  0  0
   10.8801   11.9030    4.2978 C   0  0  0  0  0  0  0  0  0  0  0  0
   10.8283   13.0630    5.0269 N   0  0  0  0  0  0  0  0  0  0  0  0
  1  2  1  0  0  0  0
  1  6  1  0  0  0  0
  2  3  2  0  0  0  0
  3  4  1  0  0  0  0
  4  5  2  0  0  0  0
  4 10  1  0  0  0  0
  5  6  1  0  0  0  0
  5  8  1  0  0  0  0
  6  7  2  0  0  0  0
  8  9  1  0  0  0  0
  9 10  2  0  0  0  0
M  END
>  <CHROM.1>
11.30737918,11.78320669,6.73421938,0.34216045,-1.34935610,0.73033421

>  <Name>
ligand

>  <RI>
0

>  <Rbt.Current_Directory>
/home/itssahil/PROJECTS/Mol_Feturizer/New_Systems/rnas/2EEW

>  <Rbt.Executable>
rbdock ($Id: //depot/dev/client3/rdock/2013.1/src/exe/rbdock.cxx#4 $)

>  <Rbt.Library>
libRbt.so (2013.1, Build901 2013/11/27)

>  <Rbt.Parameter_File>
/export/apps/rDock/src/rDock_2013.1_src/data/scripts/dock_solv.prm

>  <Rbt.Receptor>
prm/pocket_docking_3.prm

>  <SCORE>
-17.0825

>  <SCORE.INTER>
-17.0825

>  <SCORE.INTER.CONST>
1

>  <SCORE.INTER.POLAR>
0

>  <SCORE.INTER.ROT>
0

>  <SCORE.INTER.SOLV>
3.49103

>  <SCORE.INTER.VDW>
-16.152

>  <SCORE.INTER.norm>
-1.70825

>  <SCORE.INTRA>
0

>  <SCORE.INTRA.DIHEDRAL>
0

>  <SCORE.INTRA.DIHEDRAL.0>
0

>  <SCORE.INTRA.POLAR>
0

>  <SCORE.INTRA.POLAR.0>
0

>  <SCORE.INTRA.REPUL>
0

>  <SCORE.INTRA.REPUL.0>
0

>  <SCORE.INTRA.SOLV>
0

>  <SCORE.INTRA.SOLV.lig_0>
-4.28901

>  <SCORE.INTRA.VDW>
0

>  <SCORE.INTRA.VDW.0>
0

>  <SCORE.INTRA.norm>
0

>  <SCORE.RESTR>
0

>  <SCORE.RESTR.CAVITY>
0

>  <SCORE.RESTR.norm>
0

>  <SCORE.SYSTEM>
0

>  <SCORE.SYSTEM.CONST>
0

>  <SCORE.SYSTEM.DIHEDRAL>
0

>  <SCORE.SYSTEM.SOLV>
0

>  <SCORE.SYSTEM.norm>
0

>  <SCORE.heavy>
10

>  <SCORE.norm>
-1.70825

>  <RMSD>
0.993

$$$$
ligand
 OpenBabel11021811423D
libRbt.so/2013.1/901 2013/11/27
 10 11  0  0  0  0  0  0  0  0999 V2000
   11.6165   11.6489    8.6666 N   0  0  0  0  0  0  0  0  0  0  0  0
   11.4098   13.0111    8.5494 C   0  0  0  0  0  0  0  0  0  0  0  0
   11.1381   13.5928    7.3733 N   0  0  0  0  0  0  0  0  0  0  0  0
   11.0933   12.7153    6.3374 C   0  0  0  0  0  0  0  0  0  0  0  0
   11.2907   11.3467    6.3821 C   0  0  0  0  0  0  0  0  0  0  0  0
   11.5790   10.7148    7.6265 C   0  0  0  0  0  0  0  0  0  0  0  0
   11.7876    9.5231    7.8956 O   0  0  0  0  0  0  0  0  0  0  0  0
   11.1558   10.8511    5.1144 N   0  0  0  0  0  0  0  0  0  0  0  0
   10.8778   11.9106    4.3144 C   0  0  0  0  0  0  0  0  0  0  0  0
   10.8332   13.0740    5.0386 N   0  0  0  0  0  0  0  0  0  0  0  0
  1  2  1  0  0  0  0
  1  6  1  0  0  0  0
  2  3  2  0  0  0  0
  3  4  1  0  0  0  0
  4  5  2  0  0  0  0
  4 10  1  0  0  0  0
  5  6  1  0  0  0  0
  5  8  1  0  0  0  0
  6  7  2  0  0  0  0
  8  9  1  0  0  0  0
  9 10  2  0  0  0  0
M  END
>  <CHROM.1>
11.28798679,11.79627698,6.75406106,0.32629002,-1.36101135,0.71085033

>  <Name>
ligand

>  <RI>
0

>  <Rbt.Current_Directory>
/home/itssahil/PROJECTS/Mol_Feturizer/New_Systems/rnas/2EEW

>  <Rbt.Executable>
rbdock ($Id: //depot/dev/client3/rdock/2013.1/src/exe/rbdock.cxx#4 $)

>  <Rbt.Library>
libRbt.so (2013.1, Build901 2013/11/27)

>  <Rbt.Parameter_File>
/export/apps/rDock/src/rDock_2013.1_src/data/scripts/dock_solv.prm

>  <Rbt.Receptor>
prm/pocket_docking_4.prm

>  <SCORE>
-17.1196

>  <SCORE.INTER>
-17.1196

>  <SCORE.INTER.CONST>
1

>  <SCORE.INTER.POLAR>
0

>  <SCORE.INTER.ROT>
0

>  <SCORE.INTER.SOLV>
3.55394

>  <SCORE.INTER.VDW>
-16.1977

>  <SCORE.INTER.norm>
-1.71196

>  <SCORE.INTRA>
0

>  <SCORE.INTRA.DIHEDRAL>
0

>  <SCORE.INTRA.DIHEDRAL.0>
0

>  <SCORE.INTRA.POLAR>
0

>  <SCORE.INTRA.POLAR.0>
0

>  <SCORE.INTRA.REPUL>
0

>  <SCORE.INTRA.REPUL.0>
0

>  <SCORE.INTRA.SOLV>
0

>  <SCORE.INTRA.SOLV.lig_0>
-4.28901

>  <SCORE.INTRA.VDW>
0

>  <SCORE.INTRA.VDW.0>
0

>  <SCORE.INTRA.norm>
0

>  <SCORE.RESTR>
0

>  <SCORE.RESTR.CAVITY>
0

>  <SCORE.RESTR.norm>
0

>  <SCORE.SYSTEM>
0

>  <SCORE.SYSTEM.CONST>
0

>  <SCORE.SYSTEM.DIHEDRAL>
0

>  <SCORE.SYSTEM.SOLV>
0

>  <SCORE.SYSTEM.norm>
0

>  <SCORE.heavy>
10

>  <SCORE.norm>
-1.71196

>  <RMSD>
0.993

$$$$
ligand
 OpenBabel11021811423D
libRbt.so/2013.1/901 2013/11/27
 10 11  0  0  0  0  0  0  0  0999 V2000
   11.6025   11.6750    8.6840 N   0  0  0  0  0  0  0  0  0  0  0  0
   11.3811   13.0341    8.5585 C   0  0  0  0  0  0  0  0  0  0  0  0
   11.1152   13.6075    7.3770 N   0  0  0  0  0  0  0  0  0  0  0  0
   11.0916   12.7250    6.3446 C   0  0  0  0  0  0  0  0  0  0  0  0
   11.3045   11.3590    6.3976 C   0  0  0  0  0  0  0  0  0  0  0  0
   11.5870   10.7360    7.6477 C   0  0  0  0  0  0  0  0  0  0  0  0
   11.8067    9.5481    7.9243 O   0  0  0  0  0  0  0  0  0  0  0  0
   11.1889   10.8564    5.1308 N   0  0  0  0  0  0  0  0  0  0  0  0
   10.9070   11.9091    4.3231 C   0  0  0  0  0  0  0  0  0  0  0  0
   10.8411   13.0750    5.0416 N   0  0  0  0  0  0  0  0  0  0  0  0
  1  2  1  0  0  0  0
  1  6  1  0  0  0  0
  2  3  2  0  0  0  0
  3  4  1  0  0  0  0
  4  5  2  0  0  0  0
  4 10  1  0  0  0  0
  5  6  1  0  0  0  0
  5  8  1  0  0  0  0
  6  7  2  0  0  0  0
  8  9  1  0  0  0  0
  9 10  2  0  0  0  0
M  END
>  <CHROM.1>
11.29260858,11.81018854,6.76744071,0.40213232,-1.36082022,0.78060812

>  <Name>
ligand

>  <RI>
0

>  <Rbt.Current_Directory>
/home/itssahil/PROJECTS/Mol_Feturizer/New_Systems/rnas/2EEW

>  <Rbt.Executable>
rbdock ($Id: //depot/dev/client3/rdock/2013.1/src/exe/rbdock.cxx#4 $)

>  <Rbt.Library>
libRbt.so (2013.1, Build901 2013/11/27)

>  <Rbt.Parameter_File>
/export/apps/rDock/src/rDock_2013.1_src/data/scripts/dock_solv.prm

>  <Rbt.Receptor>
prm/pocket_docking_4.prm

>  <SCORE>
-17.1157

>  <SCORE.INTER>
-17.1157

>  <SCORE.INTER.CONST>
1

>  <SCORE.INTER.POLAR>
0

>  <SCORE.INTER.ROT>
0

>  <SCORE.INTER.SOLV>
3.54434

>  <SCORE.INTER.VDW>
-16.1919

>  <SCORE.INTER.norm>
-1.71157

>  <SCORE.INTRA>
0

>  <SCORE.INTRA.DIHEDRAL>
0

>  <SCORE.INTRA.DIHEDRAL.0>
0

>  <SCORE.INTRA.POLAR>
0

>  <SCORE.INTRA.POLAR.0>
0

>  <SCORE.INTRA.REPUL>
0

>  <SCORE.INTRA.REPUL.0>
0

>  <SCORE.INTRA.SOLV>
0

>  <SCORE.INTRA.SOLV.lig_0>
-4.28901

>  <SCORE.INTRA.VDW>
0

>  <SCORE.INTRA.VDW.0>
0

>  <SCORE.INTRA.norm>
0

>  <SCORE.RESTR>
0

>  <SCORE.RESTR.CAVITY>
0

>  <SCORE.RESTR.norm>
0

>  <SCORE.SYSTEM>
0

>  <SCORE.SYSTEM.CONST>
0

>  <SCORE.SYSTEM.DIHEDRAL>
0

>  <SCORE.SYSTEM.SOLV>
0

>  <SCORE.SYSTEM.norm>
0

>  <SCORE.heavy>
10

>  <SCORE.norm>
-1.71157

>  <RMSD>
0.993

$$$$
ligand
 OpenBabel11021811423D
libRbt.so/2013.1/901 2013/11/27
 10 11  0  0  0  0  0  0  0  0999 V2000
   11.6318   11.6519    8.6660 N   0  0  0  0  0  0  0  0  0  0  0  0
   11.4115   13.0104    8.5323 C   0  0  0  0  0  0  0  0  0  0  0  0
   11.1366   13.5755    7.3488 N   0  0  0  0  0  0  0  0  0  0  0  0
   11.1030   12.6854    6.3233 C   0  0  0  0  0  0  0  0  0  0  0  0
   11.3142   11.3195    6.3845 C   0  0  0  0  0  0  0  0  0  0  0  0
   11.6061   10.7053    7.6369 C   0  0  0  0  0  0  0  0  0  0  0  0
   11.8262    9.5190    7.9204 O   0  0  0  0  0  0  0  0  0  0  0  0
   11.1872   10.8077    5.1225 N   0  0  0  0  0  0  0  0  0  0  0  0
   10.9002   11.8549    4.3095 C   0  0  0  0  0  0  0  0  0  0  0  0
   10.8422   13.0262    5.0198 N   0  0  0  0  0  0  0  0  0  0  0  0
  1  2  1  0  0  0  0
  1  6  1  0  0  0  0
  2  3  2  0  0  0  0
  3  4  1  0  0  0  0
  4  5  2  0  0  0  0
  4 10  1  0  0  0  0
  5  6  1  0  0  0  0
  5  8  1  0  0  0  0
  6  7  2  0  0  0  0
  8  9  1  0  0  0  0
  9 10  2  0  0  0  0
M  END
>  <CHROM.1>
11.30607926,11.77338856,6.75114974,0.36930528,-1.35588395,0.74112970

>  <Name>
ligand

>  <RI>
0

>  <Rbt.Current_Directory>
/home/itssahil/PROJECTS/Mol_Feturizer/New_Systems/rnas/2EEW

>  <Rbt.Executable>
rbdock ($Id: //depot/dev/client3/rdock/2013.1/src/exe/rbdock.cxx#4 $)

>  <Rbt.Library>
libRbt.so (2013.1, Build901 2013/11/27)

>  <Rbt.Parameter_File>
/export/apps/rDock/src/rDock_2013.1_src/data/scripts/dock_solv.prm

>  <Rbt.Receptor>
prm/pocket_docking_5.prm

>  <SCORE>
-17.1091

>  <SCORE.INTER>
-17.1091

>  <SCORE.INTER.CONST>
1

>  <SCORE.INTER.POLAR>
0

>  <SCORE.INTER.ROT>
0

>  <SCORE.INTER.SOLV>
3.53732

>  <SCORE.INTER.VDW>
-16.1852

>  <SCORE.INTER.norm>
-1.71091

>  <SCORE.INTRA>
0

>  <SCORE.INTRA.DIHEDRAL>
0

>  <SCORE.INTRA.DIHEDRAL.0>
0

>  <SCORE.INTRA.POLAR>
0

>  <SCORE.INTRA.POLAR.0>
0

>  <SCORE.INTRA.REPUL>
0

>  <SCORE.INTRA.REPUL.0>
0

>  <SCORE.INTRA.SOLV>
0

>  <SCORE.INTRA.SOLV.lig_0>
-4.28901

>  <SCORE.INTRA.VDW>
0

>  <SCORE.INTRA.VDW.0>
0

>  <SCORE.INTRA.norm>
0

>  <SCORE.RESTR>
0

>  <SCORE.RESTR.CAVITY>
0

>  <SCORE.RESTR.norm>
0

>  <SCORE.SYSTEM>
0

>  <SCORE.SYSTEM.CONST>
0

>  <SCORE.SYSTEM.DIHEDRAL>
0

>  <SCORE.SYSTEM.SOLV>
0

>  <SCORE.SYSTEM.norm>
0

>  <SCORE.heavy>
10

>  <SCORE.norm>
-1.71091

>  <RMSD>
0.993

$$$$
ligand
 OpenBabel11021811423D
libRbt.so/2013.1/901 2013/11/27
 10 11  0  0  0  0  0  0  0  0999 V2000
   11.6727   11.5808    8.6087 N   0  0  0  0  0  0  0  0  0  0  0  0
   11.4357   12.9402    8.5199 C   0  0  0  0  0  0  0  0  0  0  0  0
   11.1294   13.5366    7.3597 N   0  0  0  0  0  0  0  0  0  0  0  0
   11.0828   12.6767    6.3093 C   0  0  0  0  0  0  0  0  0  0  0  0
   11.3092   11.3119    6.3257 C   0  0  0  0  0  0  0  0  0  0  0  0
   11.6346   10.6645    7.5529 C   0  0  0  0  0  0  0  0  0  0  0  0
   11.8729    9.4730    7.7965 O   0  0  0  0  0  0  0  0  0  0  0  0
   11.1603   10.8360    5.0521 N   0  0  0  0  0  0  0  0  0  0  0  0
   10.8450   11.9033    4.2767 C   0  0  0  0  0  0  0  0  0  0  0  0
   10.7903   13.0526    5.0223 N   0  0  0  0  0  0  0  0  0  0  0  0
  1  2  1  0  0  0  0
  1  6  1  0  0  0  0
  2  3  2  0  0  0  0
  3  4  1  0  0  0  0
  4  5  2  0  0  0  0
  4 10  1  0  0  0  0
  5  6  1  0  0  0  0
  5  8  1  0  0  0  0
  6  7  2  0  0  0  0
  8  9  1  0  0  0  0
  9 10  2  0  0  0  0
M  END
>  <CHROM.1>
11.30443640,11.75479168,6.70566046,0.33940486,-1.33287132,0.74138781

>  <Name>
ligand

>  <RI>
0

>  <Rbt.Current_Directory>
/home/itssahil/PROJECTS/Mol_Feturizer/New_Systems/rnas/2EEW

>  <Rbt.Executable>
rbdock ($Id: //depot/dev/client3/rdock/2013.1/src/exe/rbdock.cxx#4 $)

>  <Rbt.Library>
libRbt.so (2013.1, Build901 2013/11/27)

>  <Rbt.Parameter_File>
/export/apps/rDock/src/rDock_2013.1_src/data/scripts/dock_solv.prm

>  <Rbt.Receptor>
prm/blind_docking_60.prm

>  <SCORE>
-17.0547

>  <SCORE.INTER>
-17.0547

>  <SCORE.INTER.CONST>
1

>  <SCORE.INTER.POLAR>
0

>  <SCORE.INTER.ROT>
0

>  <SCORE.INTER.SOLV>
3.41923

>  <SCORE.INTER.VDW>
-16.1096

>  <SCORE.INTER.norm>
-1.70547

>  <SCORE.INTRA>
0

>  <SCORE.INTRA.DIHEDRAL>
0

>  <SCORE.INTRA.DIHEDRAL.0>
0

>  <SCORE.INTRA.POLAR>
0

>  <SCORE.INTRA.POLAR.0>
0

>  <SCORE.INTRA.REPUL>
0

>  <SCORE.INTRA.REPUL.0>
0

>  <SCORE.INTRA.SOLV>
0

>  <SCORE.INTRA.SOLV.lig_0>
-4.28901

>  <SCORE.INTRA.VDW>
0

>  <SCORE.INTRA.VDW.0>
0

>  <SCORE.INTRA.norm>
0

>  <SCORE.RESTR>
0

>  <SCORE.RESTR.CAVITY>
0

>  <SCORE.RESTR.norm>
0

>  <SCORE.SYSTEM>
0

>  <SCORE.SYSTEM.CONST>
0

>  <SCORE.SYSTEM.DIHEDRAL>
0

>  <SCORE.SYSTEM.SOLV>
0

>  <SCORE.SYSTEM.norm>
0

>  <SCORE.heavy>
10

>  <SCORE.norm>
-1.70547

>  <RMSD>
0.994

$$$$
ligand
 OpenBabel11021811423D
libRbt.so/2013.1/901 2013/11/27
 10 11  0  0  0  0  0  0  0  0999 V2000
   11.6060   11.6770    8.6822 N   0  0  0  0  0  0  0  0  0  0  0  0
   11.3808   13.0353    8.5550 C   0  0  0  0  0  0  0  0  0  0  0  0
   11.1113   13.6061    7.3730 N   0  0  0  0  0  0  0  0  0  0  0  0
   11.0882   12.7220    6.3420 C   0  0  0  0  0  0  0  0  0  0  0  0
   11.3048   11.3566    6.3968 C   0  0  0  0  0  0  0  0  0  0  0  0
   11.5912   10.7363    7.6474 C   0  0  0  0  0  0  0  0  0  0  0  0
   11.8144    9.5494    7.9255 O   0  0  0  0  0  0  0  0  0  0  0  0
   11.1883   10.8517    5.1310 N   0  0  0  0  0  0  0  0  0  0  0  0
   10.9022   11.9024    4.3222 C   0  0  0  0  0  0  0  0  0  0  0  0
   10.8345   13.0692    5.0389 N   0  0  0  0  0  0  0  0  0  0  0  0
  1  2  1  0  0  0  0
  1  6  1  0  0  0  0
  2  3  2  0  0  0  0
  3  4  1  0  0  0  0
  4  5  2  0  0  0  0
  4 10  1  0  0  0  0
  5  6  1  0  0  0  0
  5  8  1  0  0  0  0
  6  7  2  0  0  0  0
  8  9  1  0  0  0  0
  9 10  2  0  0  0  0
M  END
>  <CHROM.1>
11.29237303,11.80831838,6.76595446,0.40515856,-1.35771630,0.78200670

>  <Name>
ligand

>  <RI>
0

>  <Rbt.Current_Directory>
/home/itssahil/PROJECTS/Mol_Feturizer/New_Systems/rnas/2EEW

>  <Rbt.Executable>
rbdock ($Id: //depot/dev/client3/rdock/2013.1/src/exe/rbdock.cxx#4 $)

>  <Rbt.Library>
libRbt.so (2013.1, Build901 2013/11/27)

>  <Rbt.Parameter_File>
/export/apps/rDock/src/rDock_2013.1_src/data/scripts/dock_solv.prm

>  <Rbt.Receptor>
prm/pocket_docking_3.prm

>  <SCORE>
-17.112

>  <SCORE.INTER>
-17.112

>  <SCORE.INTER.CONST>
1

>  <SCORE.INTER.POLAR>
0

>  <SCORE.INTER.ROT>
0

>  <SCORE.INTER.SOLV>
3.53471

>  <SCORE.INTER.VDW>
-16.1862

>  <SCORE.INTER.norm>
-1.7112

>  <SCORE.INTRA>
0

>  <SCORE.INTRA.DIHEDRAL>
0

>  <SCORE.INTRA.DIHEDRAL.0>
0

>  <SCORE.INTRA.POLAR>
0

>  <SCORE.INTRA.POLAR.0>
0

>  <SCORE.INTRA.REPUL>
0

>  <SCORE.INTRA.REPUL.0>
0

>  <SCORE.INTRA.SOLV>
0

>  <SCORE.INTRA.SOLV.lig_0>
-4.28901

>  <SCORE.INTRA.VDW>
0

>  <SCORE.INTRA.VDW.0>
0

>  <SCORE.INTRA.norm>
0

>  <SCORE.RESTR>
0

>  <SCORE.RESTR.CAVITY>
0

>  <SCORE.RESTR.norm>
0

>  <SCORE.SYSTEM>
0

>  <SCORE.SYSTEM.CONST>
0

>  <SCORE.SYSTEM.DIHEDRAL>
0

>  <SCORE.SYSTEM.SOLV>
0

>  <SCORE.SYSTEM.norm>
0

>  <SCORE.heavy>
10

>  <SCORE.norm>
-1.7112

>  <RMSD>
0.994

$$$$
ligand
 OpenBabel11021811423D
libRbt.so/2013.1/901 2013/11/27
 10 11  0  0  0  0  0  0  0  0999 V2000
   11.6220   11.6526    8.6674 N   0  0  0  0  0  0  0  0  0  0  0  0
   11.4176   13.0146    8.5450 C   0  0  0  0  0  0  0  0  0  0  0  0
   11.1475   13.5925    7.3666 N   0  0  0  0  0  0  0  0  0  0  0  0
   11.1018   12.7112    6.3339 C   0  0  0  0  0  0  0  0  0  0  0  0
   11.2969   11.3424    6.3838 C   0  0  0  0  0  0  0  0  0  0  0  0
   11.5836   10.7147    7.6307 C   0  0  0  0  0  0  0  0  0  0  0  0
   11.7901    9.5237    7.9043 O   0  0  0  0  0  0  0  0  0  0  0  0
   11.1620   10.8424    5.1179 N   0  0  0  0  0  0  0  0  0  0  0  0
   10.8861   11.8994    4.3138 C   0  0  0  0  0  0  0  0  0  0  0  0
   10.8429   13.0655    5.0337 N   0  0  0  0  0  0  0  0  0  0  0  0
  1  2  1  0  0  0  0
  1  6  1  0  0  0  0
  2  3  2  0  0  0  0
  3  4  1  0  0  0  0
  4  5  2  0  0  0  0
  4 10  1  0  0  0  0
  5  6  1  0  0  0  0
  5  8  1  0  0  0  0
  6  7  2  0  0  0  0
  8  9  1  0  0  0  0
  9 10  2  0  0  0  0
M  END
>  <CHROM.1>
11.29475656,11.79343031,6.75409136,0.32207067,-1.36247148,0.70302155

>  <Name>
ligand

>  <RI>
0

>  <Rbt.Current_Directory>
/home/itssahil/PROJECTS/Mol_Feturizer/New_Systems/rnas/2EEW

>  <Rbt.Executable>
rbdock ($Id: //depot/dev/client3/rdock/2013.1/src/exe/rbdock.cxx#4 $)

>  <Rbt.Library>
libRbt.so (2013.1, Build901 2013/11/27)

>  <Rbt.Parameter_File>
/export/apps/rDock/src/rDock_2013.1_src/data/scripts/dock_solv.prm

>  <Rbt.Receptor>
prm/pocket_docking_3.prm

>  <SCORE>
-17.1153

>  <SCORE.INTER>
-17.1153

>  <SCORE.INTER.CONST>
1

>  <SCORE.INTER.POLAR>
0

>  <SCORE.INTER.ROT>
0

>  <SCORE.INTER.SOLV>
3.56072

>  <SCORE.INTER.VDW>
-16.1971

>  <SCORE.INTER.norm>
-1.71153

>  <SCORE.INTRA>
0

>  <SCORE.INTRA.DIHEDRAL>
0

>  <SCORE.INTRA.DIHEDRAL.0>
0

>  <SCORE.INTRA.POLAR>
0

>  <SCORE.INTRA.POLAR.0>
0

>  <SCORE.INTRA.REPUL>
0

>  <SCORE.INTRA.REPUL.0>
0

>  <SCORE.INTRA.SOLV>
0

>  <SCORE.INTRA.SOLV.lig_0>
-4.28901

>  <SCORE.INTRA.VDW>
0

>  <SCORE.INTRA.VDW.0>
0

>  <SCORE.INTRA.norm>
0

>  <SCORE.RESTR>
0

>  <SCORE.RESTR.CAVITY>
0

>  <SCORE.RESTR.norm>
0

>  <SCORE.SYSTEM>
0

>  <SCORE.SYSTEM.CONST>
0

>  <SCORE.SYSTEM.DIHEDRAL>
0

>  <SCORE.SYSTEM.SOLV>
0

>  <SCORE.SYSTEM.norm>
0

>  <SCORE.heavy>
10

>  <SCORE.norm>
-1.71153

>  <RMSD>
0.994

$$$$
ligand
 OpenBabel11021811423D
libRbt.so/2013.1/901 2013/11/27
 10 11  0  0  0  0  0  0  0  0999 V2000
   11.6036   11.6469    8.6748 N   0  0  0  0  0  0  0  0  0  0  0  0
   11.4030   13.0084    8.5410 C   0  0  0  0  0  0  0  0  0  0  0  0
   11.1464   13.5787    7.3559 N   0  0  0  0  0  0  0  0  0  0  0  0
   11.1099   12.6904    6.3289 C   0  0  0  0  0  0  0  0  0  0  0  0
   11.3020   11.3217    6.3901 C   0  0  0  0  0  0  0  0  0  0  0  0
   11.5744   10.7020    7.6442 C   0  0  0  0  0  0  0  0  0  0  0  0
   11.7758    9.5125    7.9280 O   0  0  0  0  0  0  0  0  0  0  0  0
   11.1794   10.8133    5.1263 N   0  0  0  0  0  0  0  0  0  0  0  0
   10.9139   11.8653    4.3122 C   0  0  0  0  0  0  0  0  0  0  0  0
   10.8654   13.0363    5.0236 N   0  0  0  0  0  0  0  0  0  0  0  0
  1  2  1  0  0  0  0
  1  6  1  0  0  0  0
  2  3  2  0  0  0  0
  3  4  1  0  0  0  0
  4  5  2  0  0  0  0
  4 10  1  0  0  0  0
  5  6  1  0  0  0  0
  5  8  1  0  0  0  0
  6  7  2  0  0  0  0
  8  9  1  0  0  0  0
  9 10  2  0  0  0  0
M  END
>  <CHROM.1>
11.29678276,11.77520576,6.75728657,0.34928982,-1.37160271,0.72286216

>  <Name>
ligand

>  <RI>
0

>  <Rbt.Current_Directory>
/home/itssahil/PROJECTS/Mol_Feturizer/New_Systems/rnas/2EEW

>  <Rbt.Executable>
rbdock ($Id: //depot/dev/client3/rdock/2013.1/src/exe/rbdock.cxx#4 $)

>  <Rbt.Library>
libRbt.so (2013.1, Build901 2013/11/27)

>  <Rbt.Parameter_File>
/export/apps/rDock/src/rDock_2013.1_src/data/scripts/dock_solv.prm

>  <Rbt.Receptor>
prm/pocket_docking_4.prm

>  <SCORE>
-17.1185

>  <SCORE.INTER>
-17.1185

>  <SCORE.INTER.CONST>
1

>  <SCORE.INTER.POLAR>
0

>  <SCORE.INTER.ROT>
0

>  <SCORE.INTER.SOLV>
3.59789

>  <SCORE.INTER.VDW>
-16.2116

>  <SCORE.INTER.norm>
-1.71185

>  <SCORE.INTRA>
0

>  <SCORE.INTRA.DIHEDRAL>
0

>  <SCORE.INTRA.DIHEDRAL.0>
0

>  <SCORE.INTRA.POLAR>
0

>  <SCORE.INTRA.POLAR.0>
0

>  <SCORE.INTRA.REPUL>
0

>  <SCORE.INTRA.REPUL.0>
0

>  <SCORE.INTRA.SOLV>
0

>  <SCORE.INTRA.SOLV.lig_0>
-4.28901

>  <SCORE.INTRA.VDW>
0

>  <SCORE.INTRA.VDW.0>
0

>  <SCORE.INTRA.norm>
0

>  <SCORE.RESTR>
0

>  <SCORE.RESTR.CAVITY>
0

>  <SCORE.RESTR.norm>
0

>  <SCORE.SYSTEM>
0

>  <SCORE.SYSTEM.CONST>
0

>  <SCORE.SYSTEM.DIHEDRAL>
0

>  <SCORE.SYSTEM.SOLV>
0

>  <SCORE.SYSTEM.norm>
0

>  <SCORE.heavy>
10

>  <SCORE.norm>
-1.71185

>  <RMSD>
0.994

$$$$
ligand
 OpenBabel11021811423D
libRbt.so/2013.1/901 2013/11/27
 10 11  0  0  0  0  0  0  0  0999 V2000
   11.6046   11.6762    8.6821 N   0  0  0  0  0  0  0  0  0  0  0  0
   11.3770   13.0340    8.5535 C   0  0  0  0  0  0  0  0  0  0  0  0
   11.1078   13.6034    7.3708 N   0  0  0  0  0  0  0  0  0  0  0  0
   11.0876   12.7184    6.3405 C   0  0  0  0  0  0  0  0  0  0  0  0
   11.3068   11.3535    6.3965 C   0  0  0  0  0  0  0  0  0  0  0  0
   11.5928   10.7347    7.6480 C   0  0  0  0  0  0  0  0  0  0  0  0
   11.8180    9.5484    7.9272 O   0  0  0  0  0  0  0  0  0  0  0  0
   11.1928   10.8474    5.1310 N   0  0  0  0  0  0  0  0  0  0  0  0
   10.9056   11.8969    4.3210 C   0  0  0  0  0  0  0  0  0  0  0  0
   10.8348   13.0642    5.0368 N   0  0  0  0  0  0  0  0  0  0  0  0
  1  2  1  0  0  0  0
  1  6  1  0  0  0  0
  2  3  2  0  0  0  0
  3  4  1  0  0  0  0
  4  5  2  0  0  0  0
  4 10  1  0  0  0  0
  5  6  1  0  0  0  0
  5  8  1  0  0  0  0
  6  7  2  0  0  0  0
  8  9  1  0  0  0  0
  9 10  2  0  0  0  0
M  END
>  <CHROM.1>
11.29302123,11.80547654,6.76535136,0.41553285,-1.35720804,0.79137906

>  <Name>
ligand

>  <RI>
0

>  <Rbt.Current_Directory>
/home/itssahil/PROJECTS/Mol_Feturizer/New_Systems/rnas/2EEW

>  <Rbt.Executable>
rbdock ($Id: //depot/dev/client3/rdock/2013.1/src/exe/rbdock.cxx#4 $)

>  <Rbt.Library>
libRbt.so (2013.1, Build901 2013/11/27)

>  <Rbt.Parameter_File>
/export/apps/rDock/src/rDock_2013.1_src/data/scripts/dock_solv.prm

>  <Rbt.Receptor>
prm/pocket_docking_6.prm

>  <SCORE>
-17.106

>  <SCORE.INTER>
-17.106

>  <SCORE.INTER.CONST>
1

>  <SCORE.INTER.POLAR>
0

>  <SCORE.INTER.ROT>
0

>  <SCORE.INTER.SOLV>
3.53234

>  <SCORE.INTER.VDW>
-16.1814

>  <SCORE.INTER.norm>
-1.7106

>  <SCORE.INTRA>
0

>  <SCORE.INTRA.DIHEDRAL>
0

>  <SCORE.INTRA.DIHEDRAL.0>
0

>  <SCORE.INTRA.POLAR>
0

>  <SCORE.INTRA.POLAR.0>
0

>  <SCORE.INTRA.REPUL>
0

>  <SCORE.INTRA.REPUL.0>
0

>  <SCORE.INTRA.SOLV>
0

>  <SCORE.INTRA.SOLV.lig_0>
-4.28901

>  <SCORE.INTRA.VDW>
0

>  <SCORE.INTRA.VDW.0>
0

>  <SCORE.INTRA.norm>
0

>  <SCORE.RESTR>
0

>  <SCORE.RESTR.CAVITY>
0

>  <SCORE.RESTR.norm>
0

>  <SCORE.SYSTEM>
0

>  <SCORE.SYSTEM.CONST>
0

>  <SCORE.SYSTEM.DIHEDRAL>
0

>  <SCORE.SYSTEM.SOLV>
0

>  <SCORE.SYSTEM.norm>
0

>  <SCORE.heavy>
10

>  <SCORE.norm>
-1.7106

>  <RMSD>
0.994

$$$$
ligand
 OpenBabel11021811423D
libRbt.so/2013.1/901 2013/11/27
 10 11  0  0  0  0  0  0  0  0999 V2000
   11.6434   11.6560    8.6572 N   0  0  0  0  0  0  0  0  0  0  0  0
   11.4217   13.0160    8.5422 C   0  0  0  0  0  0  0  0  0  0  0  0
   11.1379   13.5958    7.3679 N   0  0  0  0  0  0  0  0  0  0  0  0
   11.0971   12.7186    6.3315 C   0  0  0  0  0  0  0  0  0  0  0  0
   11.3093   11.3521    6.3741 C   0  0  0  0  0  0  0  0  0  0  0  0
   11.6106   10.7224    7.6164 C   0  0  0  0  0  0  0  0  0  0  0  0
   11.8332    9.5328    7.8834 O   0  0  0  0  0  0  0  0  0  0  0  0
   11.1733   10.8562    5.1067 N   0  0  0  0  0  0  0  0  0  0  0  0
   10.8799   11.9134    4.3090 C   0  0  0  0  0  0  0  0  0  0  0  0
   10.8266   13.0756    5.0344 N   0  0  0  0  0  0  0  0  0  0  0  0
  1  2  1  0  0  0  0
  1  6  1  0  0  0  0
  2  3  2  0  0  0  0
  3  4  1  0  0  0  0
  4  5  2  0  0  0  0
  4 10  1  0  0  0  0
  5  6  1  0  0  0  0
  5  8  1  0  0  0  0
  6  7  2  0  0  0  0
  8  9  1  0  0  0  0
  9 10  2  0  0  0  0
M  END
>  <CHROM.1>
11.30369374,11.80140469,6.74645155,0.34793127,-1.35017385,0.73282646

>  <Name>
ligand

>  <RI>
0

>  <Rbt.Current_Directory>
/home/itssahil/PROJECTS/Mol_Feturizer/New_Systems/rnas/2EEW

>  <Rbt.Executable>
rbdock ($Id: //depot/dev/client3/rdock/2013.1/src/exe/rbdock.cxx#4 $)

>  <Rbt.Library>
libRbt.so (2013.1, Build901 2013/11/27)

>  <Rbt.Parameter_File>
/export/apps/rDock/src/rDock_2013.1_src/data/scripts/dock_solv.prm

>  <Rbt.Receptor>
prm/pocket_docking_7.prm

>  <SCORE>
-17.1137

>  <SCORE.INTER>
-17.1137

>  <SCORE.INTER.CONST>
1

>  <SCORE.INTER.POLAR>
0

>  <SCORE.INTER.ROT>
0

>  <SCORE.INTER.SOLV>
3.49993

>  <SCORE.INTER.VDW>
-16.1758

>  <SCORE.INTER.norm>
-1.71137

>  <SCORE.INTRA>
0

>  <SCORE.INTRA.DIHEDRAL>
0

>  <SCORE.INTRA.DIHEDRAL.0>
0

>  <SCORE.INTRA.POLAR>
0

>  <SCORE.INTRA.POLAR.0>
0

>  <SCORE.INTRA.REPUL>
0

>  <SCORE.INTRA.REPUL.0>
0

>  <SCORE.INTRA.SOLV>
0

>  <SCORE.INTRA.SOLV.lig_0>
-4.28901

>  <SCORE.INTRA.VDW>
0

>  <SCORE.INTRA.VDW.0>
0

>  <SCORE.INTRA.norm>
0

>  <SCORE.RESTR>
0

>  <SCORE.RESTR.CAVITY>
0

>  <SCORE.RESTR.norm>
0

>  <SCORE.SYSTEM>
0

>  <SCORE.SYSTEM.CONST>
0

>  <SCORE.SYSTEM.DIHEDRAL>
0

>  <SCORE.SYSTEM.SOLV>
0

>  <SCORE.SYSTEM.norm>
0

>  <SCORE.heavy>
10

>  <SCORE.norm>
-1.71137

>  <RMSD>
0.994

$$$$
ligand
 OpenBabel11021811423D
libRbt.so/2013.1/901 2013/11/27
 10 11  0  0  0  0  0  0  0  0999 V2000
   11.6008   11.6746    8.6846 N   0  0  0  0  0  0  0  0  0  0  0  0
   11.3978   13.0366    8.5596 C   0  0  0  0  0  0  0  0  0  0  0  0
   11.1350   13.6134    7.3790 N   0  0  0  0  0  0  0  0  0  0  0  0
   11.0950   12.7311    6.3470 C   0  0  0  0  0  0  0  0  0  0  0  0
   11.2891   11.3622    6.3994 C   0  0  0  0  0  0  0  0  0  0  0  0
   11.5680   10.7356    7.6486 C   0  0  0  0  0  0  0  0  0  0  0  0
   11.7723    9.5448    7.9246 O   0  0  0  0  0  0  0  0  0  0  0  0
   11.1614   10.8610    5.1332 N   0  0  0  0  0  0  0  0  0  0  0  0
   10.8908   11.9174    4.3265 C   0  0  0  0  0  0  0  0  0  0  0  0
   10.8440   13.0842    5.0449 N   0  0  0  0  0  0  0  0  0  0  0  0
  1  2  1  0  0  0  0
  1  6  1  0  0  0  0
  2  3  2  0  0  0  0
  3  4  1  0  0  0  0
  4  5  2  0  0  0  0
  4 10  1  0  0  0  0
  5  6  1  0  0  0  0
  5  8  1  0  0  0  0
  6  7  2  0  0  0  0
  8  9  1  0  0  0  0
  9 10  2  0  0  0  0
M  END
>  <CHROM.1>
11.28498089,11.81362344,6.76922353,0.33900932,-1.36730040,0.71859215

>  <Name>
ligand

>  <RI>
0

>  <Rbt.Current_Directory>
/home/itssahil/PROJECTS/Mol_Feturizer/New_Systems/rnas/2EEW

>  <Rbt.Executable>
rbdock ($Id: //depot/dev/client3/rdock/2013.1/src/exe/rbdock.cxx#4 $)

>  <Rbt.Library>
libRbt.so (2013.1, Build901 2013/11/27)

>  <Rbt.Parameter_File>
/export/apps/rDock/src/rDock_2013.1_src/data/scripts/dock_solv.prm

>  <Rbt.Receptor>
prm/pocket_docking_7.prm

>  <SCORE>
-17.1355

>  <SCORE.INTER>
-17.1355

>  <SCORE.INTER.CONST>
1

>  <SCORE.INTER.POLAR>
0

>  <SCORE.INTER.ROT>
0

>  <SCORE.INTER.SOLV>
3.58011

>  <SCORE.INTER.VDW>
-16.217

>  <SCORE.INTER.norm>
-1.71355

>  <SCORE.INTRA>
0

>  <SCORE.INTRA.DIHEDRAL>
0

>  <SCORE.INTRA.DIHEDRAL.0>
0

>  <SCORE.INTRA.POLAR>
0

>  <SCORE.INTRA.POLAR.0>
0

>  <SCORE.INTRA.REPUL>
0

>  <SCORE.INTRA.REPUL.0>
0

>  <SCORE.INTRA.SOLV>
0

>  <SCORE.INTRA.SOLV.lig_0>
-4.28901

>  <SCORE.INTRA.VDW>
0

>  <SCORE.INTRA.VDW.0>
0

>  <SCORE.INTRA.norm>
0

>  <SCORE.RESTR>
0

>  <SCORE.RESTR.CAVITY>
0

>  <SCORE.RESTR.norm>
0

>  <SCORE.SYSTEM>
0

>  <SCORE.SYSTEM.CONST>
0

>  <SCORE.SYSTEM.DIHEDRAL>
0

>  <SCORE.SYSTEM.SOLV>
0

>  <SCORE.SYSTEM.norm>
0

>  <SCORE.heavy>
10

>  <SCORE.norm>
-1.71355

>  <RMSD>
0.994

$$$$
ligand
 OpenBabel11021811423D
libRbt.so/2013.1/901 2013/11/27
 10 11  0  0  0  0  0  0  0  0999 V2000
   11.6006   11.6745    8.6834 N   0  0  0  0  0  0  0  0  0  0  0  0
   11.3782   13.0333    8.5561 C   0  0  0  0  0  0  0  0  0  0  0  0
   11.1121   13.6050    7.3738 N   0  0  0  0  0  0  0  0  0  0  0  0
   11.0894   12.7211    6.3426 C   0  0  0  0  0  0  0  0  0  0  0  0
   11.3034   11.3553    6.3973 C   0  0  0  0  0  0  0  0  0  0  0  0
   11.5861   10.7342    7.6484 C   0  0  0  0  0  0  0  0  0  0  0  0
   11.8066    9.5468    7.9266 O   0  0  0  0  0  0  0  0  0  0  0  0
   11.1885   10.8510    5.1312 N   0  0  0  0  0  0  0  0  0  0  0  0
   10.9060   11.9024    4.3221 C   0  0  0  0  0  0  0  0  0  0  0  0
   10.8390   13.0692    5.0390 N   0  0  0  0  0  0  0  0  0  0  0  0
  1  2  1  0  0  0  0
  1  6  1  0  0  0  0
  2  3  2  0  0  0  0
  3  4  1  0  0  0  0
  4  5  2  0  0  0  0
  4 10  1  0  0  0  0
  5  6  1  0  0  0  0
  5  8  1  0  0  0  0
  6  7  2  0  0  0  0
  8  9  1  0  0  0  0
  9 10  2  0  0  0  0
M  END
>  <CHROM.1>
11.29105149,11.80699286,6.76662382,0.40563226,-1.36044330,0.78274114

>  <Name>
ligand

>  <RI>
0

>  <Rbt.Current_Directory>
/home/itssahil/PROJECTS/Mol_Feturizer/New_Systems/rnas/2EEW

>  <Rbt.Executable>
rbdock ($Id: //depot/dev/client3/rdock/2013.1/src/exe/rbdock.cxx#4 $)

>  <Rbt.Library>
libRbt.so (2013.1, Build901 2013/11/27)

>  <Rbt.Parameter_File>
/export/apps/rDock/src/rDock_2013.1_src/data/scripts/dock_solv.prm

>  <Rbt.Receptor>
prm/pocket_docking_7.prm

>  <SCORE>
-17.1129

>  <SCORE.INTER>
-17.1129

>  <SCORE.INTER.CONST>
1

>  <SCORE.INTER.POLAR>
0

>  <SCORE.INTER.ROT>
0

>  <SCORE.INTER.SOLV>
3.54454

>  <SCORE.INTER.VDW>
-16.1901

>  <SCORE.INTER.norm>
-1.71129

>  <SCORE.INTRA>
0

>  <SCORE.INTRA.DIHEDRAL>
0

>  <SCORE.INTRA.DIHEDRAL.0>
0

>  <SCORE.INTRA.POLAR>
0

>  <SCORE.INTRA.POLAR.0>
0

>  <SCORE.INTRA.REPUL>
0

>  <SCORE.INTRA.REPUL.0>
0

>  <SCORE.INTRA.SOLV>
0

>  <SCORE.INTRA.SOLV.lig_0>
-4.28901

>  <SCORE.INTRA.VDW>
0

>  <SCORE.INTRA.VDW.0>
0

>  <SCORE.INTRA.norm>
0

>  <SCORE.RESTR>
0

>  <SCORE.RESTR.CAVITY>
0

>  <SCORE.RESTR.norm>
0

>  <SCORE.SYSTEM>
0

>  <SCORE.SYSTEM.CONST>
0

>  <SCORE.SYSTEM.DIHEDRAL>
0

>  <SCORE.SYSTEM.SOLV>
0

>  <SCORE.SYSTEM.norm>
0

>  <SCORE.heavy>
10

>  <SCORE.norm>
-1.71129

>  <RMSD>
0.994

$$$$
ligand
 OpenBabel11021811423D
libRbt.so/2013.1/901 2013/11/27
 10 11  0  0  0  0  0  0  0  0999 V2000
   11.6337   11.6508    8.6583 N   0  0  0  0  0  0  0  0  0  0  0  0
   11.4003   13.0083    8.5372 C   0  0  0  0  0  0  0  0  0  0  0  0
   11.1225   13.5821    7.3586 N   0  0  0  0  0  0  0  0  0  0  0  0
   11.1001   12.7017    6.3244 C   0  0  0  0  0  0  0  0  0  0  0  0
   11.3246   11.3374    6.3730 C   0  0  0  0  0  0  0  0  0  0  0  0
   11.6198   10.7140    7.6200 C   0  0  0  0  0  0  0  0  0  0  0  0
   11.8509    9.5273    7.8927 O   0  0  0  0  0  0  0  0  0  0  0  0
   11.2057   10.8366    5.1058 N   0  0  0  0  0  0  0  0  0  0  0  0
   10.9102   11.8887    4.3022 C   0  0  0  0  0  0  0  0  0  0  0  0
   10.8389   13.0525    5.0237 N   0  0  0  0  0  0  0  0  0  0  0  0
  1  2  1  0  0  0  0
  1  6  1  0  0  0  0
  2  3  2  0  0  0  0
  3  4  1  0  0  0  0
  4  5  2  0  0  0  0
  4 10  1  0  0  0  0
  5  6  1  0  0  0  0
  5  8  1  0  0  0  0
  6  7  2  0  0  0  0
  8  9  1  0  0  0  0
  9 10  2  0  0  0  0
M  END
>  <CHROM.1>
11.31121623,11.78763982,6.74395426,0.40986017,-1.35073942,0.79038244

>  <Name>
ligand

>  <RI>
0

>  <Rbt.Current_Directory>
/home/itssahil/PROJECTS/Mol_Feturizer/New_Systems/rnas/2EEW

>  <Rbt.Executable>
rbdock ($Id: //depot/dev/client3/rdock/2013.1/src/exe/rbdock.cxx#4 $)

>  <Rbt.Library>
libRbt.so (2013.1, Build901 2013/11/27)

>  <Rbt.Parameter_File>
/export/apps/rDock/src/rDock_2013.1_src/data/scripts/dock_solv.prm

>  <Rbt.Receptor>
prm/pocket_docking_8.prm

>  <SCORE>
-17.0812

>  <SCORE.INTER>
-17.0812

>  <SCORE.INTER.CONST>
1

>  <SCORE.INTER.POLAR>
0

>  <SCORE.INTER.ROT>
0

>  <SCORE.INTER.SOLV>
3.49332

>  <SCORE.INTER.VDW>
-16.1519

>  <SCORE.INTER.norm>
-1.70812

>  <SCORE.INTRA>
0

>  <SCORE.INTRA.DIHEDRAL>
0

>  <SCORE.INTRA.DIHEDRAL.0>
0

>  <SCORE.INTRA.POLAR>
0

>  <SCORE.INTRA.POLAR.0>
0

>  <SCORE.INTRA.REPUL>
0

>  <SCORE.INTRA.REPUL.0>
0

>  <SCORE.INTRA.SOLV>
0

>  <SCORE.INTRA.SOLV.lig_0>
-4.28901

>  <SCORE.INTRA.VDW>
0

>  <SCORE.INTRA.VDW.0>
0

>  <SCORE.INTRA.norm>
0

>  <SCORE.RESTR>
0

>  <SCORE.RESTR.CAVITY>
0

>  <SCORE.RESTR.norm>
0

>  <SCORE.SYSTEM>
0

>  <SCORE.SYSTEM.CONST>
0

>  <SCORE.SYSTEM.DIHEDRAL>
0

>  <SCORE.SYSTEM.SOLV>
0

>  <SCORE.SYSTEM.norm>
0

>  <SCORE.heavy>
10

>  <SCORE.norm>
-1.70812

>  <RMSD>
0.994

$$$$
ligand
 OpenBabel11021811423D
libRbt.so/2013.1/901 2013/11/27
 10 11  0  0  0  0  0  0  0  0999 V2000
   11.6119   11.6487    8.6658 N   0  0  0  0  0  0  0  0  0  0  0  0
   11.4081   13.0113    8.5491 C   0  0  0  0  0  0  0  0  0  0  0  0
   11.1383   13.5942    7.3731 N   0  0  0  0  0  0  0  0  0  0  0  0
   11.0922   12.7173    6.3367 C   0  0  0  0  0  0  0  0  0  0  0  0
   11.2868   11.3482    6.3809 C   0  0  0  0  0  0  0  0  0  0  0  0
   11.5731   10.7152    7.6251 C   0  0  0  0  0  0  0  0  0  0  0  0
   11.7791    9.5229    7.8938 O   0  0  0  0  0  0  0  0  0  0  0  0
   11.1516   10.8536    5.1129 N   0  0  0  0  0  0  0  0  0  0  0  0
   10.8762   11.9141    4.3133 C   0  0  0  0  0  0  0  0  0  0  0  0
   10.8336   13.0772    5.0380 N   0  0  0  0  0  0  0  0  0  0  0  0
  1  2  1  0  0  0  0
  1  6  1  0  0  0  0
  2  3  2  0  0  0  0
  3  4  1  0  0  0  0
  4  5  2  0  0  0  0
  4 10  1  0  0  0  0
  5  6  1  0  0  0  0
  5  8  1  0  0  0  0
  6  7  2  0  0  0  0
  8  9  1  0  0  0  0
  9 10  2  0  0  0  0
M  END
>  <CHROM.1>
11.28479853,11.79769471,6.75309659,0.32051633,-1.36278072,0.70569153

>  <Name>
ligand

>  <RI>
0

>  <Rbt.Current_Directory>
/home/itssahil/PROJECTS/Mol_Feturizer/New_Systems/rnas/2EEW

>  <Rbt.Executable>
rbdock ($Id: //depot/dev/client3/rdock/2013.1/src/exe/rbdock.cxx#4 $)

>  <Rbt.Library>
libRbt.so (2013.1, Build901 2013/11/27)

>  <Rbt.Parameter_File>
/export/apps/rDock/src/rDock_2013.1_src/data/scripts/dock_solv.prm

>  <Rbt.Receptor>
prm/pocket_docking_4.prm

>  <SCORE>
-17.1195

>  <SCORE.INTER>
-17.1195

>  <SCORE.INTER.CONST>
1

>  <SCORE.INTER.POLAR>
0

>  <SCORE.INTER.ROT>
0

>  <SCORE.INTER.SOLV>
3.56217

>  <SCORE.INTER.VDW>
-16.2004

>  <SCORE.INTER.norm>
-1.71195

>  <SCORE.INTRA>
0

>  <SCORE.INTRA.DIHEDRAL>
0

>  <SCORE.INTRA.DIHEDRAL.0>
0

>  <SCORE.INTRA.POLAR>
0

>  <SCORE.INTRA.POLAR.0>
0

>  <SCORE.INTRA.REPUL>
0

>  <SCORE.INTRA.REPUL.0>
0

>  <SCORE.INTRA.SOLV>
0

>  <SCORE.INTRA.SOLV.lig_0>
-4.28901

>  <SCORE.INTRA.VDW>
0

>  <SCORE.INTRA.VDW.0>
0

>  <SCORE.INTRA.norm>
0

>  <SCORE.RESTR>
0

>  <SCORE.RESTR.CAVITY>
0

>  <SCORE.RESTR.norm>
0

>  <SCORE.SYSTEM>
0

>  <SCORE.SYSTEM.CONST>
0

>  <SCORE.SYSTEM.DIHEDRAL>
0

>  <SCORE.SYSTEM.SOLV>
0

>  <SCORE.SYSTEM.norm>
0

>  <SCORE.heavy>
10

>  <SCORE.norm>
-1.71195

>  <RMSD>
0.995

$$$$
ligand
 OpenBabel11021811423D
libRbt.so/2013.1/901 2013/11/27
 10 11  0  0  0  0  0  0  0  0999 V2000
   11.6106   11.6503    8.6683 N   0  0  0  0  0  0  0  0  0  0  0  0
   11.4033   13.0120    8.5475 C   0  0  0  0  0  0  0  0  0  0  0  0
   11.1358   13.5912    7.3692 N   0  0  0  0  0  0  0  0  0  0  0  0
   11.0957   12.7116    6.3349 C   0  0  0  0  0  0  0  0  0  0  0  0
   11.2939   11.3432    6.3831 C   0  0  0  0  0  0  0  0  0  0  0  0
   11.5779   10.7140    7.6298 C   0  0  0  0  0  0  0  0  0  0  0  0
   11.7863    9.5231    7.9021 O   0  0  0  0  0  0  0  0  0  0  0  0
   11.1644   10.8450    5.1159 N   0  0  0  0  0  0  0  0  0  0  0  0
   10.8886   11.9028    4.3127 C   0  0  0  0  0  0  0  0  0  0  0  0
   10.8404   13.0675    5.0344 N   0  0  0  0  0  0  0  0  0  0  0  0
  1  2  1  0  0  0  0
  1  6  1  0  0  0  0
  2  3  2  0  0  0  0
  3  4  1  0  0  0  0
  4  5  2  0  0  0  0
  4 10  1  0  0  0  0
  5  6  1  0  0  0  0
  5  8  1  0  0  0  0
  6  7  2  0  0  0  0
  8  9  1  0  0  0  0
  9 10  2  0  0  0  0
M  END
>  <CHROM.1>
11.28943793,11.79356530,6.75413804,0.34139895,-1.36344692,0.72363685

>  <Name>
ligand

>  <RI>
0

>  <Rbt.Current_Directory>
/home/itssahil/PROJECTS/Mol_Feturizer/New_Systems/rnas/2EEW

>  <Rbt.Executable>
rbdock ($Id: //depot/dev/client3/rdock/2013.1/src/exe/rbdock.cxx#4 $)

>  <Rbt.Library>
libRbt.so (2013.1, Build901 2013/11/27)

>  <Rbt.Parameter_File>
/export/apps/rDock/src/rDock_2013.1_src/data/scripts/dock_solv.prm

>  <Rbt.Receptor>
prm/pocket_docking_7.prm

>  <SCORE>
-17.1149

>  <SCORE.INTER>
-17.1149

>  <SCORE.INTER.CONST>
1

>  <SCORE.INTER.POLAR>
0

>  <SCORE.INTER.ROT>
0

>  <SCORE.INTER.SOLV>
3.56063

>  <SCORE.INTER.VDW>
-16.1968

>  <SCORE.INTER.norm>
-1.71149

>  <SCORE.INTRA>
0

>  <SCORE.INTRA.DIHEDRAL>
0

>  <SCORE.INTRA.DIHEDRAL.0>
0

>  <SCORE.INTRA.POLAR>
0

>  <SCORE.INTRA.POLAR.0>
0

>  <SCORE.INTRA.REPUL>
0

>  <SCORE.INTRA.REPUL.0>
0

>  <SCORE.INTRA.SOLV>
0

>  <SCORE.INTRA.SOLV.lig_0>
-4.28901

>  <SCORE.INTRA.VDW>
0

>  <SCORE.INTRA.VDW.0>
0

>  <SCORE.INTRA.norm>
0

>  <SCORE.RESTR>
0

>  <SCORE.RESTR.CAVITY>
0

>  <SCORE.RESTR.norm>
0

>  <SCORE.SYSTEM>
0

>  <SCORE.SYSTEM.CONST>
0

>  <SCORE.SYSTEM.DIHEDRAL>
0

>  <SCORE.SYSTEM.SOLV>
0

>  <SCORE.SYSTEM.norm>
0

>  <SCORE.heavy>
10

>  <SCORE.norm>
-1.71149

>  <RMSD>
0.995

$$$$
ligand
 OpenBabel11021811423D
libRbt.so/2013.1/901 2013/11/27
 10 11  0  0  0  0  0  0  0  0999 V2000
   11.6256   11.6559    8.6701 N   0  0  0  0  0  0  0  0  0  0  0  0
   11.4196   13.0163    8.5336 C   0  0  0  0  0  0  0  0  0  0  0  0
   11.1511   13.5819    7.3488 N   0  0  0  0  0  0  0  0  0  0  0  0
   11.1086   12.6902    6.3250 C   0  0  0  0  0  0  0  0  0  0  0  0
   11.3056   11.3222    6.3892 C   0  0  0  0  0  0  0  0  0  0  0  0
   11.5906   10.7075    7.6428 C   0  0  0  0  0  0  0  0  0  0  0  0
   11.7982    9.5196    7.9288 O   0  0  0  0  0  0  0  0  0  0  0  0
   11.1739   10.8093    5.1281 N   0  0  0  0  0  0  0  0  0  0  0  0
   10.8981   11.8577    4.3128 C   0  0  0  0  0  0  0  0  0  0  0  0
   10.8519   13.0310    5.0208 N   0  0  0  0  0  0  0  0  0  0  0  0
  1  2  1  0  0  0  0
  1  6  1  0  0  0  0
  2  3  2  0  0  0  0
  3  4  1  0  0  0  0
  4  5  2  0  0  0  0
  4 10  1  0  0  0  0
  5  6  1  0  0  0  0
  5  8  1  0  0  0  0
  6  7  2  0  0  0  0
  8  9  1  0  0  0  0
  9 10  2  0  0  0  0
M  END
>  <CHROM.1>
11.30206605,11.77694460,6.75484270,0.33349105,-1.36308857,0.70410769

>  <Name>
ligand

>  <RI>
0

>  <Rbt.Current_Directory>
/home/itssahil/PROJECTS/Mol_Feturizer/New_Systems/rnas/2EEW

>  <Rbt.Executable>
rbdock ($Id: //depot/dev/client3/rdock/2013.1/src/exe/rbdock.cxx#4 $)

>  <Rbt.Library>
libRbt.so (2013.1, Build901 2013/11/27)

>  <Rbt.Parameter_File>
/export/apps/rDock/src/rDock_2013.1_src/data/scripts/dock_solv.prm

>  <Rbt.Receptor>
prm/pocket_docking_7.prm

>  <SCORE>
-17.1171

>  <SCORE.INTER>
-17.1171

>  <SCORE.INTER.CONST>
1

>  <SCORE.INTER.POLAR>
0

>  <SCORE.INTER.ROT>
0

>  <SCORE.INTER.SOLV>
3.57295

>  <SCORE.INTER.VDW>
-16.2024

>  <SCORE.INTER.norm>
-1.71171

>  <SCORE.INTRA>
0

>  <SCORE.INTRA.DIHEDRAL>
0

>  <SCORE.INTRA.DIHEDRAL.0>
0

>  <SCORE.INTRA.POLAR>
0

>  <SCORE.INTRA.POLAR.0>
0

>  <SCORE.INTRA.REPUL>
0

>  <SCORE.INTRA.REPUL.0>
0

>  <SCORE.INTRA.SOLV>
0

>  <SCORE.INTRA.SOLV.lig_0>
-4.28901

>  <SCORE.INTRA.VDW>
0

>  <SCORE.INTRA.VDW.0>
0

>  <SCORE.INTRA.norm>
0

>  <SCORE.RESTR>
0

>  <SCORE.RESTR.CAVITY>
0

>  <SCORE.RESTR.norm>
0

>  <SCORE.SYSTEM>
0

>  <SCORE.SYSTEM.CONST>
0

>  <SCORE.SYSTEM.DIHEDRAL>
0

>  <SCORE.SYSTEM.SOLV>
0

>  <SCORE.SYSTEM.norm>
0

>  <SCORE.heavy>
10

>  <SCORE.norm>
-1.71171

>  <RMSD>
0.995

$$$$
ligand
 OpenBabel11021811423D
libRbt.so/2013.1/901 2013/11/27
 10 11  0  0  0  0  0  0  0  0999 V2000
   11.6188   11.6488    8.6651 N   0  0  0  0  0  0  0  0  0  0  0  0
   11.4093   13.0098    8.5397 C   0  0  0  0  0  0  0  0  0  0  0  0
   11.1400   13.5844    7.3595 N   0  0  0  0  0  0  0  0  0  0  0  0
   11.1005   12.7011    6.3283 C   0  0  0  0  0  0  0  0  0  0  0  0
   11.3010   11.3332    6.3813 C   0  0  0  0  0  0  0  0  0  0  0  0
   11.5869   10.7089    7.6300 C   0  0  0  0  0  0  0  0  0  0  0  0
   11.7974    9.5192    7.9063 O   0  0  0  0  0  0  0  0  0  0  0  0
   11.1714   10.8303    5.1159 N   0  0  0  0  0  0  0  0  0  0  0  0
   10.8933   11.8848    4.3092 C   0  0  0  0  0  0  0  0  0  0  0  0
   10.8437   13.0520    5.0268 N   0  0  0  0  0  0  0  0  0  0  0  0
  1  2  1  0  0  0  0
  1  6  1  0  0  0  0
  2  3  2  0  0  0  0
  3  4  1  0  0  0  0
  4  5  2  0  0  0  0
  4 10  1  0  0  0  0
  5  6  1  0  0  0  0
  5  8  1  0  0  0  0
  6  7  2  0  0  0  0
  8  9  1  0  0  0  0
  9 10  2  0  0  0  0
M  END
>  <CHROM.1>
11.29606304,11.78484150,6.75071131,0.34494105,-1.36183562,0.72356776

>  <Name>
ligand

>  <RI>
0

>  <Rbt.Current_Directory>
/home/itssahil/PROJECTS/Mol_Feturizer/New_Systems/rnas/2EEW

>  <Rbt.Executable>
rbdock ($Id: //depot/dev/client3/rdock/2013.1/src/exe/rbdock.cxx#4 $)

>  <Rbt.Library>
libRbt.so (2013.1, Build901 2013/11/27)

>  <Rbt.Parameter_File>
/export/apps/rDock/src/rDock_2013.1_src/data/scripts/dock_solv.prm

>  <Rbt.Receptor>
prm/pocket_docking_8.prm

>  <SCORE>
-17.1066

>  <SCORE.INTER>
-17.1066

>  <SCORE.INTER.CONST>
1

>  <SCORE.INTER.POLAR>
0

>  <SCORE.INTER.ROT>
0

>  <SCORE.INTER.SOLV>
3.55489

>  <SCORE.INTER.VDW>
-16.1894

>  <SCORE.INTER.norm>
-1.71066

>  <SCORE.INTRA>
0

>  <SCORE.INTRA.DIHEDRAL>
0

>  <SCORE.INTRA.DIHEDRAL.0>
0

>  <SCORE.INTRA.POLAR>
0

>  <SCORE.INTRA.POLAR.0>
0

>  <SCORE.INTRA.REPUL>
0

>  <SCORE.INTRA.REPUL.0>
0

>  <SCORE.INTRA.SOLV>
0

>  <SCORE.INTRA.SOLV.lig_0>
-4.28901

>  <SCORE.INTRA.VDW>
0

>  <SCORE.INTRA.VDW.0>
0

>  <SCORE.INTRA.norm>
0

>  <SCORE.RESTR>
0

>  <SCORE.RESTR.CAVITY>
0

>  <SCORE.RESTR.norm>
0

>  <SCORE.SYSTEM>
0

>  <SCORE.SYSTEM.CONST>
0

>  <SCORE.SYSTEM.DIHEDRAL>
0

>  <SCORE.SYSTEM.SOLV>
0

>  <SCORE.SYSTEM.norm>
0

>  <SCORE.heavy>
10

>  <SCORE.norm>
-1.71066

>  <RMSD>
0.995

$$$$
ligand
 OpenBabel11021811423D
libRbt.so/2013.1/901 2013/11/27
 10 11  0  0  0  0  0  0  0  0999 V2000
   11.6075   11.6495    8.6676 N   0  0  0  0  0  0  0  0  0  0  0  0
   11.4048   13.0120    8.5476 C   0  0  0  0  0  0  0  0  0  0  0  0
   11.1401   13.5929    7.3694 N   0  0  0  0  0  0  0  0  0  0  0  0
   11.0978   12.7140    6.3345 C   0  0  0  0  0  0  0  0  0  0  0  0
   11.2915   11.3450    6.3820 C   0  0  0  0  0  0  0  0  0  0  0  0
   11.5726   10.7141    7.6285 C   0  0  0  0  0  0  0  0  0  0  0  0
   11.7769    9.5223    7.9002 O   0  0  0  0  0  0  0  0  0  0  0  0
   11.1613   10.8480    5.1144 N   0  0  0  0  0  0  0  0  0  0  0  0
   10.8896   11.9072    4.3116 C   0  0  0  0  0  0  0  0  0  0  0  0
   10.8446   13.0716    5.0340 N   0  0  0  0  0  0  0  0  0  0  0  0
  1  2  1  0  0  0  0
  1  6  1  0  0  0  0
  2  3  2  0  0  0  0
  3  4  1  0  0  0  0
  4  5  2  0  0  0  0
  4 10  1  0  0  0  0
  5  6  1  0  0  0  0
  5  8  1  0  0  0  0
  6  7  2  0  0  0  0
  8  9  1  0  0  0  0
  9 10  2  0  0  0  0
M  END
>  <CHROM.1>
11.28826158,11.79511881,6.75331134,0.33177516,-1.36614767,0.71485317

>  <Name>
ligand

>  <RI>
0

>  <Rbt.Current_Directory>
/home/itssahil/PROJECTS/Mol_Feturizer/New_Systems/rnas/2EEW

>  <Rbt.Executable>
rbdock ($Id: //depot/dev/client3/rdock/2013.1/src/exe/rbdock.cxx#4 $)

>  <Rbt.Library>
libRbt.so (2013.1, Build901 2013/11/27)

>  <Rbt.Parameter_File>
/export/apps/rDock/src/rDock_2013.1_src/data/scripts/dock_solv.prm

>  <Rbt.Receptor>
prm/blind_docking_100.prm

>  <SCORE>
-17.1171

>  <SCORE.INTER>
-17.1171

>  <SCORE.INTER.CONST>
1

>  <SCORE.INTER.POLAR>
0

>  <SCORE.INTER.ROT>
0

>  <SCORE.INTER.SOLV>
3.57209

>  <SCORE.INTER.VDW>
-16.2021

>  <SCORE.INTER.norm>
-1.71171

>  <SCORE.INTRA>
0

>  <SCORE.INTRA.DIHEDRAL>
0

>  <SCORE.INTRA.DIHEDRAL.0>
0

>  <SCORE.INTRA.POLAR>
0

>  <SCORE.INTRA.POLAR.0>
0

>  <SCORE.INTRA.REPUL>
0

>  <SCORE.INTRA.REPUL.0>
0

>  <SCORE.INTRA.SOLV>
0

>  <SCORE.INTRA.SOLV.lig_0>
-4.28901

>  <SCORE.INTRA.VDW>
0

>  <SCORE.INTRA.VDW.0>
0

>  <SCORE.INTRA.norm>
0

>  <SCORE.RESTR>
0

>  <SCORE.RESTR.CAVITY>
0

>  <SCORE.RESTR.norm>
0

>  <SCORE.SYSTEM>
0

>  <SCORE.SYSTEM.CONST>
0

>  <SCORE.SYSTEM.DIHEDRAL>
0

>  <SCORE.SYSTEM.SOLV>
0

>  <SCORE.SYSTEM.norm>
0

>  <SCORE.heavy>
10

>  <SCORE.norm>
-1.71171

>  <RMSD>
0.996

$$$$
ligand
 OpenBabel11021811423D
libRbt.so/2013.1/901 2013/11/27
 10 11  0  0  0  0  0  0  0  0999 V2000
   11.6309   11.6048    8.6308 N   0  0  0  0  0  0  0  0  0  0  0  0
   11.4199   12.9685    8.5434 C   0  0  0  0  0  0  0  0  0  0  0  0
   11.1457   13.5750    7.3804 N   0  0  0  0  0  0  0  0  0  0  0  0
   11.1030   12.7201    6.3256 C   0  0  0  0  0  0  0  0  0  0  0  0
   11.3047   11.3515    6.3404 C   0  0  0  0  0  0  0  0  0  0  0  0
   11.5958   10.6935    7.5705 C   0  0  0  0  0  0  0  0  0  0  0  0
   11.8083    9.4969    7.8134 O   0  0  0  0  0  0  0  0  0  0  0  0
   11.1708   10.8833    5.0622 N   0  0  0  0  0  0  0  0  0  0  0  0
   10.8889   11.9591    4.2857 C   0  0  0  0  0  0  0  0  0  0  0  0
   10.8410   13.1063    5.0351 N   0  0  0  0  0  0  0  0  0  0  0  0
  1  2  1  0  0  0  0
  1  6  1  0  0  0  0
  2  3  2  0  0  0  0
  3  4  1  0  0  0  0
  4  5  2  0  0  0  0
  4 10  1  0  0  0  0
  5  6  1  0  0  0  0
  5  8  1  0  0  0  0
  6  7  2  0  0  0  0
  8  9  1  0  0  0  0
  9 10  2  0  0  0  0
M  END
>  <CHROM.1>
11.30087127,11.79285845,6.72203799,0.33585123,-1.35849889,0.74202862

>  <Name>
ligand

>  <RI>
0

>  <Rbt.Current_Directory>
/home/itssahil/PROJECTS/Mol_Feturizer/New_Systems/rnas/2EEW

>  <Rbt.Executable>
rbdock ($Id: //depot/dev/client3/rdock/2013.1/src/exe/rbdock.cxx#4 $)

>  <Rbt.Library>
libRbt.so (2013.1, Build901 2013/11/27)

>  <Rbt.Parameter_File>
/export/apps/rDock/src/rDock_2013.1_src/data/scripts/dock_solv.prm

>  <Rbt.Receptor>
prm/blind_docking_40.prm

>  <SCORE>
-17.0459

>  <SCORE.INTER>
-17.0459

>  <SCORE.INTER.CONST>
1

>  <SCORE.INTER.POLAR>
0

>  <SCORE.INTER.ROT>
0

>  <SCORE.INTER.SOLV>
3.50787

>  <SCORE.INTER.VDW>
-16.1332

>  <SCORE.INTER.norm>
-1.70459

>  <SCORE.INTRA>
0

>  <SCORE.INTRA.DIHEDRAL>
0

>  <SCORE.INTRA.DIHEDRAL.0>
0

>  <SCORE.INTRA.POLAR>
0

>  <SCORE.INTRA.POLAR.0>
0

>  <SCORE.INTRA.REPUL>
0

>  <SCORE.INTRA.REPUL.0>
0

>  <SCORE.INTRA.SOLV>
0

>  <SCORE.INTRA.SOLV.lig_0>
-4.28901

>  <SCORE.INTRA.VDW>
0

>  <SCORE.INTRA.VDW.0>
0

>  <SCORE.INTRA.norm>
0

>  <SCORE.RESTR>
0

>  <SCORE.RESTR.CAVITY>
0

>  <SCORE.RESTR.norm>
0

>  <SCORE.SYSTEM>
0

>  <SCORE.SYSTEM.CONST>
0

>  <SCORE.SYSTEM.DIHEDRAL>
0

>  <SCORE.SYSTEM.SOLV>
0

>  <SCORE.SYSTEM.norm>
0

>  <SCORE.heavy>
10

>  <SCORE.norm>
-1.70459

>  <RMSD>
0.996

$$$$
ligand
 OpenBabel11021811423D
libRbt.so/2013.1/901 2013/11/27
 10 11  0  0  0  0  0  0  0  0999 V2000
   11.6602   11.5651    8.6001 N   0  0  0  0  0  0  0  0  0  0  0  0
   11.4308   12.9268    8.5282 C   0  0  0  0  0  0  0  0  0  0  0  0
   11.1393   13.5412    7.3736 N   0  0  0  0  0  0  0  0  0  0  0  0
   11.0991   12.6964    6.3106 C   0  0  0  0  0  0  0  0  0  0  0  0
   11.3187   11.3304    6.3100 C   0  0  0  0  0  0  0  0  0  0  0  0
   11.6283   10.6641    7.5310 C   0  0  0  0  0  0  0  0  0  0  0  0
   11.8583    9.4680    7.7601 O   0  0  0  0  0  0  0  0  0  0  0  0
   11.1804   10.8733    5.0283 N   0  0  0  0  0  0  0  0  0  0  0  0
   10.8782   11.9531    4.2649 C   0  0  0  0  0  0  0  0  0  0  0  0
   10.8216   13.0920    5.0262 N   0  0  0  0  0  0  0  0  0  0  0  0
  1  2  1  0  0  0  0
  1  6  1  0  0  0  0
  2  3  2  0  0  0  0
  3  4  1  0  0  0  0
  4  5  2  0  0  0  0
  4 10  1  0  0  0  0
  5  6  1  0  0  0  0
  5  8  1  0  0  0  0
  6  7  2  0  0  0  0
  8  9  1  0  0  0  0
  9 10  2  0  0  0  0
M  END
>  <CHROM.1>
11.31218049,11.76788817,6.69607304,0.35387651,-1.34366126,0.76965250

>  <Name>
ligand

>  <RI>
0

>  <Rbt.Current_Directory>
/home/itssahil/PROJECTS/Mol_Feturizer/New_Systems/rnas/2EEW

>  <Rbt.Executable>
rbdock ($Id: //depot/dev/client3/rdock/2013.1/src/exe/rbdock.cxx#4 $)

>  <Rbt.Library>
libRbt.so (2013.1, Build901 2013/11/27)

>  <Rbt.Parameter_File>
/export/apps/rDock/src/rDock_2013.1_src/data/scripts/dock_solv.prm

>  <Rbt.Receptor>
prm/blind_docking_40.prm

>  <SCORE>
-17.0322

>  <SCORE.INTER>
-17.0322

>  <SCORE.INTER.CONST>
1

>  <SCORE.INTER.POLAR>
0

>  <SCORE.INTER.ROT>
0

>  <SCORE.INTER.SOLV>
3.43695

>  <SCORE.INTER.VDW>
-16.1005

>  <SCORE.INTER.norm>
-1.70322

>  <SCORE.INTRA>
0

>  <SCORE.INTRA.DIHEDRAL>
0

>  <SCORE.INTRA.DIHEDRAL.0>
0

>  <SCORE.INTRA.POLAR>
0

>  <SCORE.INTRA.POLAR.0>
0

>  <SCORE.INTRA.REPUL>
0

>  <SCORE.INTRA.REPUL.0>
0

>  <SCORE.INTRA.SOLV>
0

>  <SCORE.INTRA.SOLV.lig_0>
-4.28901

>  <SCORE.INTRA.VDW>
0

>  <SCORE.INTRA.VDW.0>
0

>  <SCORE.INTRA.norm>
0

>  <SCORE.RESTR>
0

>  <SCORE.RESTR.CAVITY>
0

>  <SCORE.RESTR.norm>
0

>  <SCORE.SYSTEM>
0

>  <SCORE.SYSTEM.CONST>
0

>  <SCORE.SYSTEM.DIHEDRAL>
0

>  <SCORE.SYSTEM.SOLV>
0

>  <SCORE.SYSTEM.norm>
0

>  <SCORE.heavy>
10

>  <SCORE.norm>
-1.70322

>  <RMSD>
0.996

$$$$
ligand
 OpenBabel11021811423D
libRbt.so/2013.1/901 2013/11/27
 10 11  0  0  0  0  0  0  0  0999 V2000
   11.6246   11.6572    8.6605 N   0  0  0  0  0  0  0  0  0  0  0  0
   11.3917   13.0151    8.5435 C   0  0  0  0  0  0  0  0  0  0  0  0
   11.1106   13.5920    7.3671 N   0  0  0  0  0  0  0  0  0  0  0  0
   11.0845   12.7143    6.3308 C   0  0  0  0  0  0  0  0  0  0  0  0
   11.3085   11.3497    6.3753 C   0  0  0  0  0  0  0  0  0  0  0  0
   11.6071   10.7230    7.6198 C   0  0  0  0  0  0  0  0  0  0  0  0
   11.8384    9.5355    7.8887 O   0  0  0  0  0  0  0  0  0  0  0  0
   11.1854   10.8522    5.1072 N   0  0  0  0  0  0  0  0  0  0  0  0
   10.8880   11.9065    4.3072 C   0  0  0  0  0  0  0  0  0  0  0  0
   10.8196   13.0684    5.0318 N   0  0  0  0  0  0  0  0  0  0  0  0
  1  2  1  0  0  0  0
  1  6  1  0  0  0  0
  2  3  2  0  0  0  0
  3  4  1  0  0  0  0
  4  5  2  0  0  0  0
  4 10  1  0  0  0  0
  5  6  1  0  0  0  0
  5  8  1  0  0  0  0
  6  7  2  0  0  0  0
  8  9  1  0  0  0  0
  9 10  2  0  0  0  0
M  END
>  <CHROM.1>
11.29643076,11.79901416,6.74741261,0.39824683,-1.34896446,0.78158539

>  <Name>
ligand

>  <RI>
0

>  <Rbt.Current_Directory>
/home/itssahil/PROJECTS/Mol_Feturizer/New_Systems/rnas/2EEW

>  <Rbt.Executable>
rbdock ($Id: //depot/dev/client3/rdock/2013.1/src/exe/rbdock.cxx#4 $)

>  <Rbt.Library>
libRbt.so (2013.1, Build901 2013/11/27)

>  <Rbt.Parameter_File>
/export/apps/rDock/src/rDock_2013.1_src/data/scripts/dock_solv.prm

>  <Rbt.Receptor>
prm/blind_docking_40.prm

>  <SCORE>
-17.0964

>  <SCORE.INTER>
-17.0964

>  <SCORE.INTER.CONST>
1

>  <SCORE.INTER.POLAR>
0

>  <SCORE.INTER.ROT>
0

>  <SCORE.INTER.SOLV>
3.49005

>  <SCORE.INTER.VDW>
-16.161

>  <SCORE.INTER.norm>
-1.70964

>  <SCORE.INTRA>
0

>  <SCORE.INTRA.DIHEDRAL>
0

>  <SCORE.INTRA.DIHEDRAL.0>
0

>  <SCORE.INTRA.POLAR>
0

>  <SCORE.INTRA.POLAR.0>
0

>  <SCORE.INTRA.REPUL>
0

>  <SCORE.INTRA.REPUL.0>
0

>  <SCORE.INTRA.SOLV>
0

>  <SCORE.INTRA.SOLV.lig_0>
-4.28901

>  <SCORE.INTRA.VDW>
0

>  <SCORE.INTRA.VDW.0>
0

>  <SCORE.INTRA.norm>
0

>  <SCORE.RESTR>
0

>  <SCORE.RESTR.CAVITY>
0

>  <SCORE.RESTR.norm>
0

>  <SCORE.SYSTEM>
0

>  <SCORE.SYSTEM.CONST>
0

>  <SCORE.SYSTEM.DIHEDRAL>
0

>  <SCORE.SYSTEM.SOLV>
0

>  <SCORE.SYSTEM.norm>
0

>  <SCORE.heavy>
10

>  <SCORE.norm>
-1.70964

>  <RMSD>
0.996

$$$$
ligand
 OpenBabel11021811423D
libRbt.so/2013.1/901 2013/11/27
 10 11  0  0  0  0  0  0  0  0999 V2000
   11.6684   11.5565    8.6033 N   0  0  0  0  0  0  0  0  0  0  0  0
   11.4418   12.9171    8.5071 C   0  0  0  0  0  0  0  0  0  0  0  0
   11.1497   13.5111    7.3420 N   0  0  0  0  0  0  0  0  0  0  0  0
   11.1057   12.6472    6.2946 C   0  0  0  0  0  0  0  0  0  0  0  0
   11.3223   11.2810    6.3184 C   0  0  0  0  0  0  0  0  0  0  0  0
   11.6326   10.6362    7.5508 C   0  0  0  0  0  0  0  0  0  0  0  0
   11.8603    9.4440    7.8012 O   0  0  0  0  0  0  0  0  0  0  0  0
   11.1807   10.8010    5.0455 N   0  0  0  0  0  0  0  0  0  0  0  0
   10.8796   11.8674    4.2631 C   0  0  0  0  0  0  0  0  0  0  0  0
   10.8269   13.0200    5.0037 N   0  0  0  0  0  0  0  0  0  0  0  0
  1  2  1  0  0  0  0
  1  6  1  0  0  0  0
  2  3  2  0  0  0  0
  3  4  1  0  0  0  0
  4  5  2  0  0  0  0
  4 10  1  0  0  0  0
  5  6  1  0  0  0  0
  5  8  1  0  0  0  0
  6  7  2  0  0  0  0
  8  9  1  0  0  0  0
  9 10  2  0  0  0  0
M  END
>  <CHROM.1>
11.31743494,11.72540513,6.69650104,0.34133494,-1.34394481,0.73925894

>  <Name>
ligand

>  <RI>
0

>  <Rbt.Current_Directory>
/home/itssahil/PROJECTS/Mol_Feturizer/New_Systems/rnas/2EEW

>  <Rbt.Executable>
rbdock ($Id: //depot/dev/client3/rdock/2013.1/src/exe/rbdock.cxx#4 $)

>  <Rbt.Library>
libRbt.so (2013.1, Build901 2013/11/27)

>  <Rbt.Parameter_File>
/export/apps/rDock/src/rDock_2013.1_src/data/scripts/dock_solv.prm

>  <Rbt.Receptor>
prm/blind_docking_60.prm

>  <SCORE>
-17.0852

>  <SCORE.INTER>
-17.0852

>  <SCORE.INTER.CONST>
1

>  <SCORE.INTER.POLAR>
0

>  <SCORE.INTER.ROT>
0

>  <SCORE.INTER.SOLV>
3.45828

>  <SCORE.INTER.VDW>
-16.1429

>  <SCORE.INTER.norm>
-1.70852

>  <SCORE.INTRA>
0

>  <SCORE.INTRA.DIHEDRAL>
0

>  <SCORE.INTRA.DIHEDRAL.0>
0

>  <SCORE.INTRA.POLAR>
0

>  <SCORE.INTRA.POLAR.0>
0

>  <SCORE.INTRA.REPUL>
0

>  <SCORE.INTRA.REPUL.0>
0

>  <SCORE.INTRA.SOLV>
0

>  <SCORE.INTRA.SOLV.lig_0>
-4.28901

>  <SCORE.INTRA.VDW>
0

>  <SCORE.INTRA.VDW.0>
0

>  <SCORE.INTRA.norm>
0

>  <SCORE.RESTR>
0

>  <SCORE.RESTR.CAVITY>
0

>  <SCORE.RESTR.norm>
0

>  <SCORE.SYSTEM>
0

>  <SCORE.SYSTEM.CONST>
0

>  <SCORE.SYSTEM.DIHEDRAL>
0

>  <SCORE.SYSTEM.SOLV>
0

>  <SCORE.SYSTEM.norm>
0

>  <SCORE.heavy>
10

>  <SCORE.norm>
-1.70852

>  <RMSD>
0.996

$$$$
ligand
 OpenBabel11021811423D
libRbt.so/2013.1/901 2013/11/27
 10 11  0  0  0  0  0  0  0  0999 V2000
   11.6418   11.6592    8.6656 N   0  0  0  0  0  0  0  0  0  0  0  0
   11.4283   13.0183    8.5267 C   0  0  0  0  0  0  0  0  0  0  0  0
   11.1459   13.5787    7.3427 N   0  0  0  0  0  0  0  0  0  0  0  0
   11.0977   12.6835    6.3223 C   0  0  0  0  0  0  0  0  0  0  0  0
   11.3015   11.3167    6.3889 C   0  0  0  0  0  0  0  0  0  0  0  0
   11.6013   10.7073    7.6417 C   0  0  0  0  0  0  0  0  0  0  0  0
   11.8170    9.5213    7.9296 O   0  0  0  0  0  0  0  0  0  0  0  0
   11.1600   10.7990    5.1308 N   0  0  0  0  0  0  0  0  0  0  0  0
   10.8717   11.8435    4.3149 C   0  0  0  0  0  0  0  0  0  0  0  0
   10.8270   13.0189    5.0194 N   0  0  0  0  0  0  0  0  0  0  0  0
  1  2  1  0  0  0  0
  1  6  1  0  0  0  0
  2  3  2  0  0  0  0
  3  4  1  0  0  0  0
  4  5  2  0  0  0  0
  4 10  1  0  0  0  0
  5  6  1  0  0  0  0
  5  8  1  0  0  0  0
  6  7  2  0  0  0  0
  8  9  1  0  0  0  0
  9 10  2  0  0  0  0
M  END
>  <CHROM.1>
11.29938647,11.77254715,6.75313753,0.32082530,-1.35283185,0.68848203

>  <Name>
ligand

>  <RI>
0

>  <Rbt.Current_Directory>
/home/itssahil/PROJECTS/Mol_Feturizer/New_Systems/rnas/2EEW

>  <Rbt.Executable>
rbdock ($Id: //depot/dev/client3/rdock/2013.1/src/exe/rbdock.cxx#4 $)

>  <Rbt.Library>
libRbt.so (2013.1, Build901 2013/11/27)

>  <Rbt.Parameter_File>
/export/apps/rDock/src/rDock_2013.1_src/data/scripts/dock_solv.prm

>  <Rbt.Receptor>
prm/pocket_docking_4.prm

>  <SCORE>
-17.1

>  <SCORE.INTER>
-17.1

>  <SCORE.INTER.CONST>
1

>  <SCORE.INTER.POLAR>
0

>  <SCORE.INTER.ROT>
0

>  <SCORE.INTER.SOLV>
3.54566

>  <SCORE.INTER.VDW>
-16.1819

>  <SCORE.INTER.norm>
-1.71

>  <SCORE.INTRA>
0

>  <SCORE.INTRA.DIHEDRAL>
0

>  <SCORE.INTRA.DIHEDRAL.0>
0

>  <SCORE.INTRA.POLAR>
0

>  <SCORE.INTRA.POLAR.0>
0

>  <SCORE.INTRA.REPUL>
0

>  <SCORE.INTRA.REPUL.0>
0

>  <SCORE.INTRA.SOLV>
0

>  <SCORE.INTRA.SOLV.lig_0>
-4.28901

>  <SCORE.INTRA.VDW>
0

>  <SCORE.INTRA.VDW.0>
0

>  <SCORE.INTRA.norm>
0

>  <SCORE.RESTR>
0

>  <SCORE.RESTR.CAVITY>
0

>  <SCORE.RESTR.norm>
0

>  <SCORE.SYSTEM>
0

>  <SCORE.SYSTEM.CONST>
0

>  <SCORE.SYSTEM.DIHEDRAL>
0

>  <SCORE.SYSTEM.SOLV>
0

>  <SCORE.SYSTEM.norm>
0

>  <SCORE.heavy>
10

>  <SCORE.norm>
-1.71

>  <RMSD>
0.996

$$$$
ligand
 OpenBabel11021811423D
libRbt.so/2013.1/901 2013/11/27
 10 11  0  0  0  0  0  0  0  0999 V2000
   11.5974   11.6729    8.6836 N   0  0  0  0  0  0  0  0  0  0  0  0
   11.3917   13.0343    8.5568 C   0  0  0  0  0  0  0  0  0  0  0  0
   11.1300   13.6093    7.3751 N   0  0  0  0  0  0  0  0  0  0  0  0
   11.0939   12.7258    6.3439 C   0  0  0  0  0  0  0  0  0  0  0  0
   11.2909   11.3575    6.3982 C   0  0  0  0  0  0  0  0  0  0  0  0
   11.5688   10.7328    7.6486 C   0  0  0  0  0  0  0  0  0  0  0  0
   11.7751    9.5427    7.9263 O   0  0  0  0  0  0  0  0  0  0  0  0
   11.1668   10.8546    5.1323 N   0  0  0  0  0  0  0  0  0  0  0  0
   10.8954   11.9095    4.3239 C   0  0  0  0  0  0  0  0  0  0  0  0
   10.8447   13.0770    5.0410 N   0  0  0  0  0  0  0  0  0  0  0  0
  1  2  1  0  0  0  0
  1  6  1  0  0  0  0
  2  3  2  0  0  0  0
  3  4  1  0  0  0  0
  4  5  2  0  0  0  0
  4 10  1  0  0  0  0
  5  6  1  0  0  0  0
  5  8  1  0  0  0  0
  6  7  2  0  0  0  0
  8  9  1  0  0  0  0
  9 10  2  0  0  0  0
M  END
>  <CHROM.1>
11.28507732,11.80922803,6.76754553,0.35363093,-1.36729807,0.73184996

>  <Name>
ligand

>  <RI>
0

>  <Rbt.Current_Directory>
/home/itssahil/PROJECTS/Mol_Feturizer/New_Systems/rnas/2EEW

>  <Rbt.Executable>
rbdock ($Id: //depot/dev/client3/rdock/2013.1/src/exe/rbdock.cxx#4 $)

>  <Rbt.Library>
libRbt.so (2013.1, Build901 2013/11/27)

>  <Rbt.Parameter_File>
/export/apps/rDock/src/rDock_2013.1_src/data/scripts/dock_solv.prm

>  <Rbt.Receptor>
prm/pocket_docking_6.prm

>  <SCORE>
-17.1327

>  <SCORE.INTER>
-17.1327

>  <SCORE.INTER.CONST>
1

>  <SCORE.INTER.POLAR>
0

>  <SCORE.INTER.ROT>
0

>  <SCORE.INTER.SOLV>
3.57786

>  <SCORE.INTER.VDW>
-16.2144

>  <SCORE.INTER.norm>
-1.71327

>  <SCORE.INTRA>
0

>  <SCORE.INTRA.DIHEDRAL>
0

>  <SCORE.INTRA.DIHEDRAL.0>
0

>  <SCORE.INTRA.POLAR>
0

>  <SCORE.INTRA.POLAR.0>
0

>  <SCORE.INTRA.REPUL>
0

>  <SCORE.INTRA.REPUL.0>
0

>  <SCORE.INTRA.SOLV>
0

>  <SCORE.INTRA.SOLV.lig_0>
-4.28901

>  <SCORE.INTRA.VDW>
0

>  <SCORE.INTRA.VDW.0>
0

>  <SCORE.INTRA.norm>
0

>  <SCORE.RESTR>
0

>  <SCORE.RESTR.CAVITY>
0

>  <SCORE.RESTR.norm>
0

>  <SCORE.SYSTEM>
0

>  <SCORE.SYSTEM.CONST>
0

>  <SCORE.SYSTEM.DIHEDRAL>
0

>  <SCORE.SYSTEM.SOLV>
0

>  <SCORE.SYSTEM.norm>
0

>  <SCORE.heavy>
10

>  <SCORE.norm>
-1.71327

>  <RMSD>
0.996

$$$$
ligand
 OpenBabel11021811423D
libRbt.so/2013.1/901 2013/11/27
 10 11  0  0  0  0  0  0  0  0999 V2000
   11.6350   11.6513    8.6540 N   0  0  0  0  0  0  0  0  0  0  0  0
   11.4051   13.0101    8.5411 C   0  0  0  0  0  0  0  0  0  0  0  0
   11.1196   13.5903    7.3674 N   0  0  0  0  0  0  0  0  0  0  0  0
   11.0859   12.7149    6.3294 C   0  0  0  0  0  0  0  0  0  0  0  0
   11.3063   11.3496    6.3698 C   0  0  0  0  0  0  0  0  0  0  0  0
   11.6096   10.7194    7.6114 C   0  0  0  0  0  0  0  0  0  0  0  0
   11.8391    9.5307    7.8766 O   0  0  0  0  0  0  0  0  0  0  0  0
   11.1754   10.8552    5.1013 N   0  0  0  0  0  0  0  0  0  0  0  0
   10.8768   11.9120    4.3050 C   0  0  0  0  0  0  0  0  0  0  0  0
   10.8153   13.0726    5.0325 N   0  0  0  0  0  0  0  0  0  0  0  0
  1  2  1  0  0  0  0
  1  6  1  0  0  0  0
  2  3  2  0  0  0  0
  3  4  1  0  0  0  0
  4  5  2  0  0  0  0
  4 10  1  0  0  0  0
  5  6  1  0  0  0  0
  5  8  1  0  0  0  0
  6  7  2  0  0  0  0
  8  9  1  0  0  0  0
  9 10  2  0  0  0  0
M  END
>  <CHROM.1>
11.29741569,11.79816993,6.74293714,0.37333856,-1.34717663,0.75944494

>  <Name>
ligand

>  <RI>
0

>  <Rbt.Current_Directory>
/home/itssahil/PROJECTS/Mol_Feturizer/New_Systems/rnas/2EEW

>  <Rbt.Executable>
rbdock ($Id: //depot/dev/client3/rdock/2013.1/src/exe/rbdock.cxx#4 $)

>  <Rbt.Library>
libRbt.so (2013.1, Build901 2013/11/27)

>  <Rbt.Parameter_File>
/export/apps/rDock/src/rDock_2013.1_src/data/scripts/dock_solv.prm

>  <Rbt.Receptor>
prm/pocket_docking_6.prm

>  <SCORE>
-17.1099

>  <SCORE.INTER>
-17.1099

>  <SCORE.INTER.CONST>
1

>  <SCORE.INTER.POLAR>
0

>  <SCORE.INTER.ROT>
0

>  <SCORE.INTER.SOLV>
3.48337

>  <SCORE.INTER.VDW>
-16.1677

>  <SCORE.INTER.norm>
-1.71099

>  <SCORE.INTRA>
0

>  <SCORE.INTRA.DIHEDRAL>
0

>  <SCORE.INTRA.DIHEDRAL.0>
0

>  <SCORE.INTRA.POLAR>
0

>  <SCORE.INTRA.POLAR.0>
0

>  <SCORE.INTRA.REPUL>
0

>  <SCORE.INTRA.REPUL.0>
0

>  <SCORE.INTRA.SOLV>
0

>  <SCORE.INTRA.SOLV.lig_0>
-4.28901

>  <SCORE.INTRA.VDW>
0

>  <SCORE.INTRA.VDW.0>
0

>  <SCORE.INTRA.norm>
0

>  <SCORE.RESTR>
0

>  <SCORE.RESTR.CAVITY>
0

>  <SCORE.RESTR.norm>
0

>  <SCORE.SYSTEM>
0

>  <SCORE.SYSTEM.CONST>
0

>  <SCORE.SYSTEM.DIHEDRAL>
0

>  <SCORE.SYSTEM.SOLV>
0

>  <SCORE.SYSTEM.norm>
0

>  <SCORE.heavy>
10

>  <SCORE.norm>
-1.71099

>  <RMSD>
0.996

$$$$
ligand
 OpenBabel11021811423D
libRbt.so/2013.1/901 2013/11/27
 10 11  0  0  0  0  0  0  0  0999 V2000
   11.6198   11.6528    8.6687 N   0  0  0  0  0  0  0  0  0  0  0  0
   11.4142   13.0133    8.5323 C   0  0  0  0  0  0  0  0  0  0  0  0
   11.1458   13.5790    7.3476 N   0  0  0  0  0  0  0  0  0  0  0  0
   11.1031   12.6874    6.3237 C   0  0  0  0  0  0  0  0  0  0  0  0
   11.2995   11.3194    6.3877 C   0  0  0  0  0  0  0  0  0  0  0  0
   11.5844   10.7045    7.6413 C   0  0  0  0  0  0  0  0  0  0  0  0
   11.7916    9.5165    7.9273 O   0  0  0  0  0  0  0  0  0  0  0  0
   11.1676   10.8066    5.1266 N   0  0  0  0  0  0  0  0  0  0  0  0
   10.8922   11.8552    4.3114 C   0  0  0  0  0  0  0  0  0  0  0  0
   10.8464   13.0284    5.0195 N   0  0  0  0  0  0  0  0  0  0  0  0
  1  2  1  0  0  0  0
  1  6  1  0  0  0  0
  2  3  2  0  0  0  0
  3  4  1  0  0  0  0
  4  5  2  0  0  0  0
  4 10  1  0  0  0  0
  5  6  1  0  0  0  0
  5  8  1  0  0  0  0
  6  7  2  0  0  0  0
  8  9  1  0  0  0  0
  9 10  2  0  0  0  0
M  END
>  <CHROM.1>
11.29617248,11.77409653,6.75345319,0.33208242,-1.36329377,0.70279197

>  <Name>
ligand

>  <RI>
0

>  <Rbt.Current_Directory>
/home/itssahil/PROJECTS/Mol_Feturizer/New_Systems/rnas/2EEW

>  <Rbt.Executable>
rbdock ($Id: //depot/dev/client3/rdock/2013.1/src/exe/rbdock.cxx#4 $)

>  <Rbt.Library>
libRbt.so (2013.1, Build901 2013/11/27)

>  <Rbt.Parameter_File>
/export/apps/rDock/src/rDock_2013.1_src/data/scripts/dock_solv.prm

>  <Rbt.Receptor>
prm/blind_docking_40.prm

>  <SCORE>
-17.1184

>  <SCORE.INTER>
-17.1184

>  <SCORE.INTER.CONST>
1

>  <SCORE.INTER.POLAR>
0

>  <SCORE.INTER.ROT>
0

>  <SCORE.INTER.SOLV>
3.57511

>  <SCORE.INTER.VDW>
-16.204

>  <SCORE.INTER.norm>
-1.71184

>  <SCORE.INTRA>
0

>  <SCORE.INTRA.DIHEDRAL>
0

>  <SCORE.INTRA.DIHEDRAL.0>
0

>  <SCORE.INTRA.POLAR>
0

>  <SCORE.INTRA.POLAR.0>
0

>  <SCORE.INTRA.REPUL>
0

>  <SCORE.INTRA.REPUL.0>
0

>  <SCORE.INTRA.SOLV>
0

>  <SCORE.INTRA.SOLV.lig_0>
-4.28901

>  <SCORE.INTRA.VDW>
0

>  <SCORE.INTRA.VDW.0>
0

>  <SCORE.INTRA.norm>
0

>  <SCORE.RESTR>
0

>  <SCORE.RESTR.CAVITY>
0

>  <SCORE.RESTR.norm>
0

>  <SCORE.SYSTEM>
0

>  <SCORE.SYSTEM.CONST>
0

>  <SCORE.SYSTEM.DIHEDRAL>
0

>  <SCORE.SYSTEM.SOLV>
0

>  <SCORE.SYSTEM.norm>
0

>  <SCORE.heavy>
10

>  <SCORE.norm>
-1.71184

>  <RMSD>
0.997

$$$$
ligand
 OpenBabel11021811423D
libRbt.so/2013.1/901 2013/11/27
 10 11  0  0  0  0  0  0  0  0999 V2000
   11.6735   11.5677    8.5956 N   0  0  0  0  0  0  0  0  0  0  0  0
   11.4394   12.9285    8.5235 C   0  0  0  0  0  0  0  0  0  0  0  0
   11.1418   13.5411    7.3694 N   0  0  0  0  0  0  0  0  0  0  0  0
   11.1007   12.6954    6.3072 C   0  0  0  0  0  0  0  0  0  0  0  0
   11.3247   11.3301    6.3068 C   0  0  0  0  0  0  0  0  0  0  0  0
   11.6408   10.6657    7.5272 C   0  0  0  0  0  0  0  0  0  0  0  0
   11.8755    9.4706    7.7564 O   0  0  0  0  0  0  0  0  0  0  0  0
   11.1834   10.8716    5.0260 N   0  0  0  0  0  0  0  0  0  0  0  0
   10.8750   11.9498    4.2629 C   0  0  0  0  0  0  0  0  0  0  0  0
   10.8174   13.0891    5.0235 N   0  0  0  0  0  0  0  0  0  0  0  0
  1  2  1  0  0  0  0
  1  6  1  0  0  0  0
  2  3  2  0  0  0  0
  3  4  1  0  0  0  0
  4  5  2  0  0  0  0
  4 10  1  0  0  0  0
  5  6  1  0  0  0  0
  5  8  1  0  0  0  0
  6  7  2  0  0  0  0
  8  9  1  0  0  0  0
  9 10  2  0  0  0  0
M  END
>  <CHROM.1>
11.31813026,11.76788815,6.69262343,0.35342942,-1.33888577,0.76846972

>  <Name>
ligand

>  <RI>
0

>  <Rbt.Current_Directory>
/home/itssahil/PROJECTS/Mol_Feturizer/New_Systems/rnas/2EEW

>  <Rbt.Executable>
rbdock ($Id: //depot/dev/client3/rdock/2013.1/src/exe/rbdock.cxx#4 $)

>  <Rbt.Library>
libRbt.so (2013.1, Build901 2013/11/27)

>  <Rbt.Parameter_File>
/export/apps/rDock/src/rDock_2013.1_src/data/scripts/dock_solv.prm

>  <Rbt.Receptor>
prm/pocket_docking_3.prm

>  <SCORE>
-17.0259

>  <SCORE.INTER>
-17.0259

>  <SCORE.INTER.CONST>
1

>  <SCORE.INTER.POLAR>
0

>  <SCORE.INTER.ROT>
0

>  <SCORE.INTER.SOLV>
3.41563

>  <SCORE.INTER.VDW>
-16.0892

>  <SCORE.INTER.norm>
-1.70259

>  <SCORE.INTRA>
0

>  <SCORE.INTRA.DIHEDRAL>
0

>  <SCORE.INTRA.DIHEDRAL.0>
0

>  <SCORE.INTRA.POLAR>
0

>  <SCORE.INTRA.POLAR.0>
0

>  <SCORE.INTRA.REPUL>
0

>  <SCORE.INTRA.REPUL.0>
0

>  <SCORE.INTRA.SOLV>
0

>  <SCORE.INTRA.SOLV.lig_0>
-4.28901

>  <SCORE.INTRA.VDW>
0

>  <SCORE.INTRA.VDW.0>
0

>  <SCORE.INTRA.norm>
0

>  <SCORE.RESTR>
0

>  <SCORE.RESTR.CAVITY>
0

>  <SCORE.RESTR.norm>
0

>  <SCORE.SYSTEM>
0

>  <SCORE.SYSTEM.CONST>
0

>  <SCORE.SYSTEM.DIHEDRAL>
0

>  <SCORE.SYSTEM.SOLV>
0

>  <SCORE.SYSTEM.norm>
0

>  <SCORE.heavy>
10

>  <SCORE.norm>
-1.70259

>  <RMSD>
0.997

$$$$
ligand
 OpenBabel11021811423D
libRbt.so/2013.1/901 2013/11/27
 10 11  0  0  0  0  0  0  0  0999 V2000
   11.6005   11.6732    8.6848 N   0  0  0  0  0  0  0  0  0  0  0  0
   11.3863   13.0317    8.5421 C   0  0  0  0  0  0  0  0  0  0  0  0
   11.1277   13.5922    7.3528 N   0  0  0  0  0  0  0  0  0  0  0  0
   11.1036   12.6975    6.3310 C   0  0  0  0  0  0  0  0  0  0  0  0
   11.3096   11.3312    6.4011 C   0  0  0  0  0  0  0  0  0  0  0  0
   11.5843   10.7218    7.6597 C   0  0  0  0  0  0  0  0  0  0  0  0
   11.7970    9.5362    7.9514 O   0  0  0  0  0  0  0  0  0  0  0  0
   11.1964   10.8140    5.1400 N   0  0  0  0  0  0  0  0  0  0  0  0
   10.9227   11.8582    4.3187 C   0  0  0  0  0  0  0  0  0  0  0  0
   10.8598   13.0330    5.0229 N   0  0  0  0  0  0  0  0  0  0  0  0
  1  2  1  0  0  0  0
  1  6  1  0  0  0  0
  2  3  2  0  0  0  0
  3  4  1  0  0  0  0
  4  5  2  0  0  0  0
  4 10  1  0  0  0  0
  5  6  1  0  0  0  0
  5  8  1  0  0  0  0
  6  7  2  0  0  0  0
  8  9  1  0  0  0  0
  9 10  2  0  0  0  0
M  END
>  <CHROM.1>
11.29854065,11.78681340,6.76551413,0.39801526,-1.36699148,0.76458342

>  <Name>
ligand

>  <RI>
0

>  <Rbt.Current_Directory>
/home/itssahil/PROJECTS/Mol_Feturizer/New_Systems/rnas/2EEW

>  <Rbt.Executable>
rbdock ($Id: //depot/dev/client3/rdock/2013.1/src/exe/rbdock.cxx#4 $)

>  <Rbt.Library>
libRbt.so (2013.1, Build901 2013/11/27)

>  <Rbt.Parameter_File>
/export/apps/rDock/src/rDock_2013.1_src/data/scripts/dock_solv.prm

>  <Rbt.Receptor>
prm/pocket_docking_4.prm

>  <SCORE>
-17.126

>  <SCORE.INTER>
-17.126

>  <SCORE.INTER.CONST>
1

>  <SCORE.INTER.POLAR>
0

>  <SCORE.INTER.ROT>
0

>  <SCORE.INTER.SOLV>
3.58109

>  <SCORE.INTER.VDW>
-16.211

>  <SCORE.INTER.norm>
-1.7126

>  <SCORE.INTRA>
0

>  <SCORE.INTRA.DIHEDRAL>
0

>  <SCORE.INTRA.DIHEDRAL.0>
0

>  <SCORE.INTRA.POLAR>
0

>  <SCORE.INTRA.POLAR.0>
0

>  <SCORE.INTRA.REPUL>
0

>  <SCORE.INTRA.REPUL.0>
0

>  <SCORE.INTRA.SOLV>
0

>  <SCORE.INTRA.SOLV.lig_0>
-4.28901

>  <SCORE.INTRA.VDW>
0

>  <SCORE.INTRA.VDW.0>
0

>  <SCORE.INTRA.norm>
0

>  <SCORE.RESTR>
0

>  <SCORE.RESTR.CAVITY>
0

>  <SCORE.RESTR.norm>
0

>  <SCORE.SYSTEM>
0

>  <SCORE.SYSTEM.CONST>
0

>  <SCORE.SYSTEM.DIHEDRAL>
0

>  <SCORE.SYSTEM.SOLV>
0

>  <SCORE.SYSTEM.norm>
0

>  <SCORE.heavy>
10

>  <SCORE.norm>
-1.7126

>  <RMSD>
0.997

$$$$
ligand
 OpenBabel11021811423D
libRbt.so/2013.1/901 2013/11/27
 10 11  0  0  0  0  0  0  0  0999 V2000
   11.6339   11.6510    8.6536 N   0  0  0  0  0  0  0  0  0  0  0  0
   11.4100   13.0108    8.5413 C   0  0  0  0  0  0  0  0  0  0  0  0
   11.1254   13.5925    7.3681 N   0  0  0  0  0  0  0  0  0  0  0  0
   11.0861   12.7174    6.3300 C   0  0  0  0  0  0  0  0  0  0  0  0
   11.3005   11.3511    6.3699 C   0  0  0  0  0  0  0  0  0  0  0  0
   11.6027   10.7194    7.6109 C   0  0  0  0  0  0  0  0  0  0  0  0
   11.8272    9.5296    7.8756 O   0  0  0  0  0  0  0  0  0  0  0  0
   11.1654   10.8575    5.1014 N   0  0  0  0  0  0  0  0  0  0  0  0
   10.8704   11.9158    4.3058 C   0  0  0  0  0  0  0  0  0  0  0  0
   10.8152   13.0765    5.0336 N   0  0  0  0  0  0  0  0  0  0  0  0
  1  2  1  0  0  0  0
  1  6  1  0  0  0  0
  2  3  2  0  0  0  0
  3  4  1  0  0  0  0
  4  5  2  0  0  0  0
  4 10  1  0  0  0  0
  5  6  1  0  0  0  0
  5  8  1  0  0  0  0
  6  7  2  0  0  0  0
  8  9  1  0  0  0  0
  9 10  2  0  0  0  0
M  END
>  <CHROM.1>
11.29412545,11.79964174,6.74308158,0.35378417,-1.34916120,0.74053534

>  <Name>
ligand

>  <RI>
0

>  <Rbt.Current_Directory>
/home/itssahil/PROJECTS/Mol_Feturizer/New_Systems/rnas/2EEW

>  <Rbt.Executable>
rbdock ($Id: //depot/dev/client3/rdock/2013.1/src/exe/rbdock.cxx#4 $)

>  <Rbt.Library>
libRbt.so (2013.1, Build901 2013/11/27)

>  <Rbt.Parameter_File>
/export/apps/rDock/src/rDock_2013.1_src/data/scripts/dock_solv.prm

>  <Rbt.Receptor>
prm/pocket_docking_6.prm

>  <SCORE>
-17.1153

>  <SCORE.INTER>
-17.1153

>  <SCORE.INTER.CONST>
1

>  <SCORE.INTER.POLAR>
0

>  <SCORE.INTER.ROT>
0

>  <SCORE.INTER.SOLV>
3.49444

>  <SCORE.INTER.VDW>
-16.175

>  <SCORE.INTER.norm>
-1.71153

>  <SCORE.INTRA>
0

>  <SCORE.INTRA.DIHEDRAL>
0

>  <SCORE.INTRA.DIHEDRAL.0>
0

>  <SCORE.INTRA.POLAR>
0

>  <SCORE.INTRA.POLAR.0>
0

>  <SCORE.INTRA.REPUL>
0

>  <SCORE.INTRA.REPUL.0>
0

>  <SCORE.INTRA.SOLV>
0

>  <SCORE.INTRA.SOLV.lig_0>
-4.28901

>  <SCORE.INTRA.VDW>
0

>  <SCORE.INTRA.VDW.0>
0

>  <SCORE.INTRA.norm>
0

>  <SCORE.RESTR>
0

>  <SCORE.RESTR.CAVITY>
0

>  <SCORE.RESTR.norm>
0

>  <SCORE.SYSTEM>
0

>  <SCORE.SYSTEM.CONST>
0

>  <SCORE.SYSTEM.DIHEDRAL>
0

>  <SCORE.SYSTEM.SOLV>
0

>  <SCORE.SYSTEM.norm>
0

>  <SCORE.heavy>
10

>  <SCORE.norm>
-1.71153

>  <RMSD>
0.997

$$$$
ligand
 OpenBabel11021811423D
libRbt.so/2013.1/901 2013/11/27
 10 11  0  0  0  0  0  0  0  0999 V2000
   11.6567   11.5262    8.5828 N   0  0  0  0  0  0  0  0  0  0  0  0
   11.4373   12.8901    8.5250 C   0  0  0  0  0  0  0  0  0  0  0  0
   11.1489   13.5184    7.3771 N   0  0  0  0  0  0  0  0  0  0  0  0
   11.1009   12.6848    6.3057 C   0  0  0  0  0  0  0  0  0  0  0  0
   11.3103   11.3173    6.2908 C   0  0  0  0  0  0  0  0  0  0  0  0
   11.6166   10.6363    7.5046 C   0  0  0  0  0  0  0  0  0  0  0  0
   11.8380    9.4362    7.7212 O   0  0  0  0  0  0  0  0  0  0  0  0
   11.1668   10.8743    5.0048 N   0  0  0  0  0  0  0  0  0  0  0  0
   10.8717   11.9640    4.2529 C   0  0  0  0  0  0  0  0  0  0  0  0
   10.8246   13.0955    5.0258 N   0  0  0  0  0  0  0  0  0  0  0  0
  1  2  1  0  0  0  0
  1  6  1  0  0  0  0
  2  3  2  0  0  0  0
  3  4  1  0  0  0  0
  4  5  2  0  0  0  0
  4 10  1  0  0  0  0
  5  6  1  0  0  0  0
  5  8  1  0  0  0  0
  6  7  2  0  0  0  0
  8  9  1  0  0  0  0
  9 10  2  0  0  0  0
M  END
>  <CHROM.1>
11.30760087,11.75086264,6.68139256,0.32532425,-1.34780750,0.75199833

>  <Name>
ligand

>  <RI>
0

>  <Rbt.Current_Directory>
/home/itssahil/PROJECTS/Mol_Feturizer/New_Systems/rnas/2EEW

>  <Rbt.Executable>
rbdock ($Id: //depot/dev/client3/rdock/2013.1/src/exe/rbdock.cxx#4 $)

>  <Rbt.Library>
libRbt.so (2013.1, Build901 2013/11/27)

>  <Rbt.Parameter_File>
/export/apps/rDock/src/rDock_2013.1_src/data/scripts/dock_solv.prm

>  <Rbt.Receptor>
prm/pocket_docking_6.prm

>  <SCORE>
-17.0309

>  <SCORE.INTER>
-17.0309

>  <SCORE.INTER.CONST>
1

>  <SCORE.INTER.POLAR>
0

>  <SCORE.INTER.ROT>
0

>  <SCORE.INTER.SOLV>
3.45458

>  <SCORE.INTER.VDW>
-16.1055

>  <SCORE.INTER.norm>
-1.70309

>  <SCORE.INTRA>
0

>  <SCORE.INTRA.DIHEDRAL>
0

>  <SCORE.INTRA.DIHEDRAL.0>
0

>  <SCORE.INTRA.POLAR>
0

>  <SCORE.INTRA.POLAR.0>
0

>  <SCORE.INTRA.REPUL>
0

>  <SCORE.INTRA.REPUL.0>
0

>  <SCORE.INTRA.SOLV>
0

>  <SCORE.INTRA.SOLV.lig_0>
-4.28901

>  <SCORE.INTRA.VDW>
0

>  <SCORE.INTRA.VDW.0>
0

>  <SCORE.INTRA.norm>
0

>  <SCORE.RESTR>
0

>  <SCORE.RESTR.CAVITY>
0

>  <SCORE.RESTR.norm>
0

>  <SCORE.SYSTEM>
0

>  <SCORE.SYSTEM.CONST>
0

>  <SCORE.SYSTEM.DIHEDRAL>
0

>  <SCORE.SYSTEM.SOLV>
0

>  <SCORE.SYSTEM.norm>
0

>  <SCORE.heavy>
10

>  <SCORE.norm>
-1.70309

>  <RMSD>
0.997

$$$$
ligand
 OpenBabel11021811423D
libRbt.so/2013.1/901 2013/11/27
 10 11  0  0  0  0  0  0  0  0999 V2000
   11.5997   11.6748    8.6792 N   0  0  0  0  0  0  0  0  0  0  0  0
   11.3727   13.0328    8.5513 C   0  0  0  0  0  0  0  0  0  0  0  0
   11.1046   13.6030    7.3686 N   0  0  0  0  0  0  0  0  0  0  0  0
   11.0849   12.7186    6.3378 C   0  0  0  0  0  0  0  0  0  0  0  0
   11.3034   11.3536    6.3932 C   0  0  0  0  0  0  0  0  0  0  0  0
   11.5883   10.7339    7.6445 C   0  0  0  0  0  0  0  0  0  0  0  0
   11.8128    9.5474    7.9232 O   0  0  0  0  0  0  0  0  0  0  0  0
   11.1902   10.8483    5.1273 N   0  0  0  0  0  0  0  0  0  0  0  0
   10.9040   11.8984    4.3177 C   0  0  0  0  0  0  0  0  0  0  0  0
   10.8332   13.0653    5.0341 N   0  0  0  0  0  0  0  0  0  0  0  0
  1  2  1  0  0  0  0
  1  6  1  0  0  0  0
  2  3  2  0  0  0  0
  3  4  1  0  0  0  0
  4  5  2  0  0  0  0
  4 10  1  0  0  0  0
  5  6  1  0  0  0  0
  5  8  1  0  0  0  0
  6  7  2  0  0  0  0
  8  9  1  0  0  0  0
  9 10  2  0  0  0  0
M  END
>  <CHROM.1>
11.28960789,11.80535196,6.76230111,0.41673012,-1.35801069,0.79312915

>  <Name>
ligand

>  <RI>
0

>  <Rbt.Current_Directory>
/home/itssahil/PROJECTS/Mol_Feturizer/New_Systems/rnas/2EEW

>  <Rbt.Executable>
rbdock ($Id: //depot/dev/client3/rdock/2013.1/src/exe/rbdock.cxx#4 $)

>  <Rbt.Library>
libRbt.so (2013.1, Build901 2013/11/27)

>  <Rbt.Parameter_File>
/export/apps/rDock/src/rDock_2013.1_src/data/scripts/dock_solv.prm

>  <Rbt.Receptor>
prm/pocket_docking_7.prm

>  <SCORE>
-17.1063

>  <SCORE.INTER>
-17.1063

>  <SCORE.INTER.CONST>
1

>  <SCORE.INTER.POLAR>
0

>  <SCORE.INTER.ROT>
0

>  <SCORE.INTER.SOLV>
3.5335

>  <SCORE.INTER.VDW>
-16.182

>  <SCORE.INTER.norm>
-1.71063

>  <SCORE.INTRA>
0

>  <SCORE.INTRA.DIHEDRAL>
0

>  <SCORE.INTRA.DIHEDRAL.0>
0

>  <SCORE.INTRA.POLAR>
0

>  <SCORE.INTRA.POLAR.0>
0

>  <SCORE.INTRA.REPUL>
0

>  <SCORE.INTRA.REPUL.0>
0

>  <SCORE.INTRA.SOLV>
0

>  <SCORE.INTRA.SOLV.lig_0>
-4.28901

>  <SCORE.INTRA.VDW>
0

>  <SCORE.INTRA.VDW.0>
0

>  <SCORE.INTRA.norm>
0

>  <SCORE.RESTR>
0

>  <SCORE.RESTR.CAVITY>
0

>  <SCORE.RESTR.norm>
0

>  <SCORE.SYSTEM>
0

>  <SCORE.SYSTEM.CONST>
0

>  <SCORE.SYSTEM.DIHEDRAL>
0

>  <SCORE.SYSTEM.SOLV>
0

>  <SCORE.SYSTEM.norm>
0

>  <SCORE.heavy>
10

>  <SCORE.norm>
-1.71063

>  <RMSD>
0.997

$$$$
ligand
 OpenBabel11021811423D
libRbt.so/2013.1/901 2013/11/27
 10 11  0  0  0  0  0  0  0  0999 V2000
   11.6116   11.6803    8.6798 N   0  0  0  0  0  0  0  0  0  0  0  0
   11.3822   13.0370    8.5432 C   0  0  0  0  0  0  0  0  0  0  0  0
   11.1030   13.5976    7.3586 N   0  0  0  0  0  0  0  0  0  0  0  0
   11.0749   12.7051    6.3350 C   0  0  0  0  0  0  0  0  0  0  0  0
   11.2952   11.3408    6.3992 C   0  0  0  0  0  0  0  0  0  0  0  0
   11.5919   10.7313    7.6527 C   0  0  0  0  0  0  0  0  0  0  0  0
   11.8200    9.5471    7.9387 O   0  0  0  0  0  0  0  0  0  0  0  0
   11.1712   10.8254    5.1383 N   0  0  0  0  0  0  0  0  0  0  0  0
   10.8768   11.8689    4.3231 C   0  0  0  0  0  0  0  0  0  0  0  0
   10.8112   13.0413    5.0310 N   0  0  0  0  0  0  0  0  0  0  0  0
  1  2  1  0  0  0  0
  1  6  1  0  0  0  0
  2  3  2  0  0  0  0
  3  4  1  0  0  0  0
  4  5  2  0  0  0  0
  4 10  1  0  0  0  0
  5  6  1  0  0  0  0
  5  8  1  0  0  0  0
  6  7  2  0  0  0  0
  8  9  1  0  0  0  0
  9 10  2  0  0  0  0
M  END
>  <CHROM.1>
11.28426525,11.79542172,6.76481131,0.39060154,-1.35097831,0.75974708

>  <Name>
ligand

>  <RI>
0

>  <Rbt.Current_Directory>
/home/itssahil/PROJECTS/Mol_Feturizer/New_Systems/rnas/2EEW

>  <Rbt.Executable>
rbdock ($Id: //depot/dev/client3/rdock/2013.1/src/exe/rbdock.cxx#4 $)

>  <Rbt.Library>
libRbt.so (2013.1, Build901 2013/11/27)

>  <Rbt.Parameter_File>
/export/apps/rDock/src/rDock_2013.1_src/data/scripts/dock_solv.prm

>  <Rbt.Receptor>
prm/pocket_docking_7.prm

>  <SCORE>
-17.0947

>  <SCORE.INTER>
-17.0947

>  <SCORE.INTER.CONST>
1

>  <SCORE.INTER.POLAR>
0

>  <SCORE.INTER.ROT>
0

>  <SCORE.INTER.SOLV>
3.52701

>  <SCORE.INTER.VDW>
-16.1722

>  <SCORE.INTER.norm>
-1.70947

>  <SCORE.INTRA>
0

>  <SCORE.INTRA.DIHEDRAL>
0

>  <SCORE.INTRA.DIHEDRAL.0>
0

>  <SCORE.INTRA.POLAR>
0

>  <SCORE.INTRA.POLAR.0>
0

>  <SCORE.INTRA.REPUL>
0

>  <SCORE.INTRA.REPUL.0>
0

>  <SCORE.INTRA.SOLV>
0

>  <SCORE.INTRA.SOLV.lig_0>
-4.28901

>  <SCORE.INTRA.VDW>
0

>  <SCORE.INTRA.VDW.0>
0

>  <SCORE.INTRA.norm>
0

>  <SCORE.RESTR>
0

>  <SCORE.RESTR.CAVITY>
0

>  <SCORE.RESTR.norm>
0

>  <SCORE.SYSTEM>
0

>  <SCORE.SYSTEM.CONST>
0

>  <SCORE.SYSTEM.DIHEDRAL>
0

>  <SCORE.SYSTEM.SOLV>
0

>  <SCORE.SYSTEM.norm>
0

>  <SCORE.heavy>
10

>  <SCORE.norm>
-1.70947

>  <RMSD>
0.997

$$$$
ligand
 OpenBabel11021811423D
libRbt.so/2013.1/901 2013/11/27
 10 11  0  0  0  0  0  0  0  0999 V2000
   11.6093   11.6483    8.6664 N   0  0  0  0  0  0  0  0  0  0  0  0
   11.3967   13.0082    8.5341 C   0  0  0  0  0  0  0  0  0  0  0  0
   11.1339   13.5773    7.3497 N   0  0  0  0  0  0  0  0  0  0  0  0
   11.1042   12.6897    6.3219 C   0  0  0  0  0  0  0  0  0  0  0  0
   11.3083   11.3226    6.3817 C   0  0  0  0  0  0  0  0  0  0  0  0
   11.5874   10.7042    7.6349 C   0  0  0  0  0  0  0  0  0  0  0  0
   11.7995    9.5163    7.9174 O   0  0  0  0  0  0  0  0  0  0  0  0
   11.1890   10.8143    5.1175 N   0  0  0  0  0  0  0  0  0  0  0  0
   10.9135   11.8647    4.3046 C   0  0  0  0  0  0  0  0  0  0  0  0
   10.8554   13.0346    5.0172 N   0  0  0  0  0  0  0  0  0  0  0  0
  1  2  1  0  0  0  0
  1  6  1  0  0  0  0
  2  3  2  0  0  0  0
  3  4  1  0  0  0  0
  4  5  2  0  0  0  0
  4 10  1  0  0  0  0
  5  6  1  0  0  0  0
  5  8  1  0  0  0  0
  6  7  2  0  0  0  0
  8  9  1  0  0  0  0
  9 10  2  0  0  0  0
M  END
>  <CHROM.1>
11.29950558,11.77574041,6.74926312,0.37834825,-1.36496883,0.75225310

>  <Name>
ligand

>  <RI>
0

>  <Rbt.Current_Directory>
/home/itssahil/PROJECTS/Mol_Feturizer/New_Systems/rnas/2EEW

>  <Rbt.Executable>
rbdock ($Id: //depot/dev/client3/rdock/2013.1/src/exe/rbdock.cxx#4 $)

>  <Rbt.Library>
libRbt.so (2013.1, Build901 2013/11/27)

>  <Rbt.Parameter_File>
/export/apps/rDock/src/rDock_2013.1_src/data/scripts/dock_solv.prm

>  <Rbt.Receptor>
prm/blind_docking_40.prm

>  <SCORE>
-17.1126

>  <SCORE.INTER>
-17.1126

>  <SCORE.INTER.CONST>
1

>  <SCORE.INTER.POLAR>
0

>  <SCORE.INTER.ROT>
0

>  <SCORE.INTER.SOLV>
3.56437

>  <SCORE.INTER.VDW>
-16.1965

>  <SCORE.INTER.norm>
-1.71126

>  <SCORE.INTRA>
0

>  <SCORE.INTRA.DIHEDRAL>
0

>  <SCORE.INTRA.DIHEDRAL.0>
0

>  <SCORE.INTRA.POLAR>
0

>  <SCORE.INTRA.POLAR.0>
0

>  <SCORE.INTRA.REPUL>
0

>  <SCORE.INTRA.REPUL.0>
0

>  <SCORE.INTRA.SOLV>
0

>  <SCORE.INTRA.SOLV.lig_0>
-4.28901

>  <SCORE.INTRA.VDW>
0

>  <SCORE.INTRA.VDW.0>
0

>  <SCORE.INTRA.norm>
0

>  <SCORE.RESTR>
0

>  <SCORE.RESTR.CAVITY>
0

>  <SCORE.RESTR.norm>
0

>  <SCORE.SYSTEM>
0

>  <SCORE.SYSTEM.CONST>
0

>  <SCORE.SYSTEM.DIHEDRAL>
0

>  <SCORE.SYSTEM.SOLV>
0

>  <SCORE.SYSTEM.norm>
0

>  <SCORE.heavy>
10

>  <SCORE.norm>
-1.71126

>  <RMSD>
0.998

$$$$
ligand
 OpenBabel11021811423D
libRbt.so/2013.1/901 2013/11/27
 10 11  0  0  0  0  0  0  0  0999 V2000
   11.6284   11.6598    8.6692 N   0  0  0  0  0  0  0  0  0  0  0  0
   11.4353   13.0220    8.5321 C   0  0  0  0  0  0  0  0  0  0  0  0
   11.1727   13.5896    7.3470 N   0  0  0  0  0  0  0  0  0  0  0  0
   11.1223   12.6980    6.3235 C   0  0  0  0  0  0  0  0  0  0  0  0
   11.3063   11.3282    6.3883 C   0  0  0  0  0  0  0  0  0  0  0  0
   11.5849   10.7114    7.6423 C   0  0  0  0  0  0  0  0  0  0  0  0
   11.7812    9.5217    7.9289 O   0  0  0  0  0  0  0  0  0  0  0  0
   11.1704   10.8161    5.1273 N   0  0  0  0  0  0  0  0  0  0  0  0
   10.9049   11.8668    4.3115 C   0  0  0  0  0  0  0  0  0  0  0  0
   10.8695   13.0407    5.0190 N   0  0  0  0  0  0  0  0  0  0  0  0
  1  2  1  0  0  0  0
  1  6  1  0  0  0  0
  2  3  2  0  0  0  0
  3  4  1  0  0  0  0
  4  5  2  0  0  0  0
  4 10  1  0  0  0  0
  5  6  1  0  0  0  0
  5  8  1  0  0  0  0
  6  7  2  0  0  0  0
  8  9  1  0  0  0  0
  9 10  2  0  0  0  0
M  END
>  <CHROM.1>
11.30691657,11.78311803,6.75378471,0.29901009,-1.36945707,0.66994891

>  <Name>
ligand

>  <RI>
0

>  <Rbt.Current_Directory>
/home/itssahil/PROJECTS/Mol_Feturizer/New_Systems/rnas/2EEW

>  <Rbt.Executable>
rbdock ($Id: //depot/dev/client3/rdock/2013.1/src/exe/rbdock.cxx#4 $)

>  <Rbt.Library>
libRbt.so (2013.1, Build901 2013/11/27)

>  <Rbt.Parameter_File>
/export/apps/rDock/src/rDock_2013.1_src/data/scripts/dock_solv.prm

>  <Rbt.Receptor>
prm/blind_docking_60.prm

>  <SCORE>
-17.0789

>  <SCORE.INTER>
-17.0789

>  <SCORE.INTER.CONST>
1

>  <SCORE.INTER.POLAR>
0

>  <SCORE.INTER.ROT>
0

>  <SCORE.INTER.SOLV>
3.59893

>  <SCORE.INTER.VDW>
-16.1856

>  <SCORE.INTER.norm>
-1.70789

>  <SCORE.INTRA>
0

>  <SCORE.INTRA.DIHEDRAL>
0

>  <SCORE.INTRA.DIHEDRAL.0>
0

>  <SCORE.INTRA.POLAR>
0

>  <SCORE.INTRA.POLAR.0>
0

>  <SCORE.INTRA.REPUL>
0

>  <SCORE.INTRA.REPUL.0>
0

>  <SCORE.INTRA.SOLV>
0

>  <SCORE.INTRA.SOLV.lig_0>
-4.28901

>  <SCORE.INTRA.VDW>
0

>  <SCORE.INTRA.VDW.0>
0

>  <SCORE.INTRA.norm>
0

>  <SCORE.RESTR>
0

>  <SCORE.RESTR.CAVITY>
0

>  <SCORE.RESTR.norm>
0

>  <SCORE.SYSTEM>
0

>  <SCORE.SYSTEM.CONST>
0

>  <SCORE.SYSTEM.DIHEDRAL>
0

>  <SCORE.SYSTEM.SOLV>
0

>  <SCORE.SYSTEM.norm>
0

>  <SCORE.heavy>
10

>  <SCORE.norm>
-1.70789

>  <RMSD>
0.998

$$$$
ligand
 OpenBabel11021811423D
libRbt.so/2013.1/901 2013/11/27
 10 11  0  0  0  0  0  0  0  0999 V2000
   11.6022   11.6478    8.6711 N   0  0  0  0  0  0  0  0  0  0  0  0
   11.3980   13.0087    8.5367 C   0  0  0  0  0  0  0  0  0  0  0  0
   11.1382   13.5776    7.3516 N   0  0  0  0  0  0  0  0  0  0  0  0
   11.1024   12.6886    6.3252 C   0  0  0  0  0  0  0  0  0  0  0  0
   11.2980   11.3203    6.3871 C   0  0  0  0  0  0  0  0  0  0  0  0
   11.5738   10.7021    7.6411 C   0  0  0  0  0  0  0  0  0  0  0  0
   11.7786    9.5134    7.9255 O   0  0  0  0  0  0  0  0  0  0  0  0
   11.1748   10.8108    5.1238 N   0  0  0  0  0  0  0  0  0  0  0  0
   10.9054   11.8616    4.3093 C   0  0  0  0  0  0  0  0  0  0  0  0
   10.8551   13.0330    5.0200 N   0  0  0  0  0  0  0  0  0  0  0  0
  1  2  1  0  0  0  0
  1  6  1  0  0  0  0
  2  3  2  0  0  0  0
  3  4  1  0  0  0  0
  4  5  2  0  0  0  0
  4 10  1  0  0  0  0
  5  6  1  0  0  0  0
  5  8  1  0  0  0  0
  6  7  2  0  0  0  0
  8  9  1  0  0  0  0
  9 10  2  0  0  0  0
M  END
>  <CHROM.1>
11.29216665,11.77408313,6.75392370,0.35365570,-1.36883945,0.72647150

>  <Name>
ligand

>  <RI>
0

>  <Rbt.Current_Directory>
/home/itssahil/PROJECTS/Mol_Feturizer/New_Systems/rnas/2EEW

>  <Rbt.Executable>
rbdock ($Id: //depot/dev/client3/rdock/2013.1/src/exe/rbdock.cxx#4 $)

>  <Rbt.Library>
libRbt.so (2013.1, Build901 2013/11/27)

>  <Rbt.Parameter_File>
/export/apps/rDock/src/rDock_2013.1_src/data/scripts/dock_solv.prm

>  <Rbt.Receptor>
prm/pocket_docking_5.prm

>  <SCORE>
-17.119

>  <SCORE.INTER>
-17.119

>  <SCORE.INTER.CONST>
1

>  <SCORE.INTER.POLAR>
0

>  <SCORE.INTER.ROT>
0

>  <SCORE.INTER.SOLV>
3.58799

>  <SCORE.INTER.VDW>
-16.2087

>  <SCORE.INTER.norm>
-1.7119

>  <SCORE.INTRA>
0

>  <SCORE.INTRA.DIHEDRAL>
0

>  <SCORE.INTRA.DIHEDRAL.0>
0

>  <SCORE.INTRA.POLAR>
0

>  <SCORE.INTRA.POLAR.0>
0

>  <SCORE.INTRA.REPUL>
0

>  <SCORE.INTRA.REPUL.0>
0

>  <SCORE.INTRA.SOLV>
0

>  <SCORE.INTRA.SOLV.lig_0>
-4.28901

>  <SCORE.INTRA.VDW>
0

>  <SCORE.INTRA.VDW.0>
0

>  <SCORE.INTRA.norm>
0

>  <SCORE.RESTR>
0

>  <SCORE.RESTR.CAVITY>
0

>  <SCORE.RESTR.norm>
0

>  <SCORE.SYSTEM>
0

>  <SCORE.SYSTEM.CONST>
0

>  <SCORE.SYSTEM.DIHEDRAL>
0

>  <SCORE.SYSTEM.SOLV>
0

>  <SCORE.SYSTEM.norm>
0

>  <SCORE.heavy>
10

>  <SCORE.norm>
-1.7119

>  <RMSD>
0.998

$$$$
ligand
 OpenBabel11021811423D
libRbt.so/2013.1/901 2013/11/27
 10 11  0  0  0  0  0  0  0  0999 V2000
   11.6045   11.6557    8.6734 N   0  0  0  0  0  0  0  0  0  0  0  0
   11.3944   13.0155    8.5369 C   0  0  0  0  0  0  0  0  0  0  0  0
   11.1329   13.5815    7.3508 N   0  0  0  0  0  0  0  0  0  0  0  0
   11.1018   12.6909    6.3256 C   0  0  0  0  0  0  0  0  0  0  0  0
   11.3034   11.3236    6.3896 C   0  0  0  0  0  0  0  0  0  0  0  0
   11.5810   10.7084    7.6447 C   0  0  0  0  0  0  0  0  0  0  0  0
   11.7909    9.5210    7.9309 O   0  0  0  0  0  0  0  0  0  0  0  0
   11.1834   10.8118    5.1269 N   0  0  0  0  0  0  0  0  0  0  0  0
   10.9100   11.8602    4.3108 C   0  0  0  0  0  0  0  0  0  0  0  0
   10.8539   13.0324    5.0199 N   0  0  0  0  0  0  0  0  0  0  0  0
  1  2  1  0  0  0  0
  1  6  1  0  0  0  0
  2  3  2  0  0  0  0
  3  4  1  0  0  0  0
  4  5  2  0  0  0  0
  4 10  1  0  0  0  0
  5  6  1  0  0  0  0
  5  8  1  0  0  0  0
  6  7  2  0  0  0  0
  8  9  1  0  0  0  0
  9 10  2  0  0  0  0
M  END
>  <CHROM.1>
11.29532231,11.77787755,6.75582070,0.37238368,-1.36639377,0.74341266

>  <Name>
ligand

>  <RI>
0

>  <Rbt.Current_Directory>
/home/itssahil/PROJECTS/Mol_Feturizer/New_Systems/rnas/2EEW

>  <Rbt.Executable>
rbdock ($Id: //depot/dev/client3/rdock/2013.1/src/exe/rbdock.cxx#4 $)

>  <Rbt.Library>
libRbt.so (2013.1, Build901 2013/11/27)

>  <Rbt.Parameter_File>
/export/apps/rDock/src/rDock_2013.1_src/data/scripts/dock_solv.prm

>  <Rbt.Receptor>
prm/pocket_docking_7.prm

>  <SCORE>
-17.111

>  <SCORE.INTER>
-17.111

>  <SCORE.INTER.CONST>
1

>  <SCORE.INTER.POLAR>
0

>  <SCORE.INTER.ROT>
0

>  <SCORE.INTER.SOLV>
3.57732

>  <SCORE.INTER.VDW>
-16.1998

>  <SCORE.INTER.norm>
-1.7111

>  <SCORE.INTRA>
0

>  <SCORE.INTRA.DIHEDRAL>
0

>  <SCORE.INTRA.DIHEDRAL.0>
0

>  <SCORE.INTRA.POLAR>
0

>  <SCORE.INTRA.POLAR.0>
0

>  <SCORE.INTRA.REPUL>
0

>  <SCORE.INTRA.REPUL.0>
0

>  <SCORE.INTRA.SOLV>
0

>  <SCORE.INTRA.SOLV.lig_0>
-4.28901

>  <SCORE.INTRA.VDW>
0

>  <SCORE.INTRA.VDW.0>
0

>  <SCORE.INTRA.norm>
0

>  <SCORE.RESTR>
0

>  <SCORE.RESTR.CAVITY>
0

>  <SCORE.RESTR.norm>
0

>  <SCORE.SYSTEM>
0

>  <SCORE.SYSTEM.CONST>
0

>  <SCORE.SYSTEM.DIHEDRAL>
0

>  <SCORE.SYSTEM.SOLV>
0

>  <SCORE.SYSTEM.norm>
0

>  <SCORE.heavy>
10

>  <SCORE.norm>
-1.7111

>  <RMSD>
0.998

$$$$
ligand
 OpenBabel11021811423D
libRbt.so/2013.1/901 2013/11/27
 10 11  0  0  0  0  0  0  0  0999 V2000
   11.5974   11.6743    8.6786 N   0  0  0  0  0  0  0  0  0  0  0  0
   11.3801   13.0341    8.5532 C   0  0  0  0  0  0  0  0  0  0  0  0
   11.1121   13.6079    7.3723 N   0  0  0  0  0  0  0  0  0  0  0  0
   11.0820   12.7250    6.3404 C   0  0  0  0  0  0  0  0  0  0  0  0
   11.2906   11.3583    6.3933 C   0  0  0  0  0  0  0  0  0  0  0  0
   11.5753   10.7349    7.6428 C   0  0  0  0  0  0  0  0  0  0  0  0
   11.7919    9.5464    7.9192 O   0  0  0  0  0  0  0  0  0  0  0  0
   11.1691   10.8555    5.1271 N   0  0  0  0  0  0  0  0  0  0  0  0
   10.8879   11.9087    4.3200 C   0  0  0  0  0  0  0  0  0  0  0  0
   10.8283   13.0752    5.0381 N   0  0  0  0  0  0  0  0  0  0  0  0
  1  2  1  0  0  0  0
  1  6  1  0  0  0  0
  2  3  2  0  0  0  0
  3  4  1  0  0  0  0
  4  5  2  0  0  0  0
  4 10  1  0  0  0  0
  5  6  1  0  0  0  0
  5  8  1  0  0  0  0
  6  7  2  0  0  0  0
  8  9  1  0  0  0  0
  9 10  2  0  0  0  0
M  END
>  <CHROM.1>
11.28143922,11.80965773,6.76300240,0.37938757,-1.36070655,0.75789803

>  <Name>
ligand

>  <RI>
0

>  <Rbt.Current_Directory>
/home/itssahil/PROJECTS/Mol_Feturizer/New_Systems/rnas/2EEW

>  <Rbt.Executable>
rbdock ($Id: //depot/dev/client3/rdock/2013.1/src/exe/rbdock.cxx#4 $)

>  <Rbt.Library>
libRbt.so (2013.1, Build901 2013/11/27)

>  <Rbt.Parameter_File>
/export/apps/rDock/src/rDock_2013.1_src/data/scripts/dock_solv.prm

>  <Rbt.Receptor>
prm/pocket_docking_8.prm

>  <SCORE>
-17.122

>  <SCORE.INTER>
-17.122

>  <SCORE.INTER.CONST>
1

>  <SCORE.INTER.POLAR>
0

>  <SCORE.INTER.ROT>
0

>  <SCORE.INTER.SOLV>
3.54847

>  <SCORE.INTER.VDW>
-16.1975

>  <SCORE.INTER.norm>
-1.7122

>  <SCORE.INTRA>
0

>  <SCORE.INTRA.DIHEDRAL>
0

>  <SCORE.INTRA.DIHEDRAL.0>
0

>  <SCORE.INTRA.POLAR>
0

>  <SCORE.INTRA.POLAR.0>
0

>  <SCORE.INTRA.REPUL>
0

>  <SCORE.INTRA.REPUL.0>
0

>  <SCORE.INTRA.SOLV>
0

>  <SCORE.INTRA.SOLV.lig_0>
-4.28901

>  <SCORE.INTRA.VDW>
0

>  <SCORE.INTRA.VDW.0>
0

>  <SCORE.INTRA.norm>
0

>  <SCORE.RESTR>
0

>  <SCORE.RESTR.CAVITY>
0

>  <SCORE.RESTR.norm>
0

>  <SCORE.SYSTEM>
0

>  <SCORE.SYSTEM.CONST>
0

>  <SCORE.SYSTEM.DIHEDRAL>
0

>  <SCORE.SYSTEM.SOLV>
0

>  <SCORE.SYSTEM.norm>
0

>  <SCORE.heavy>
10

>  <SCORE.norm>
-1.7122

>  <RMSD>
0.998

$$$$
ligand
 OpenBabel11021811423D
libRbt.so/2013.1/901 2013/11/27
 10 11  0  0  0  0  0  0  0  0999 V2000
   11.6152   11.6494    8.6650 N   0  0  0  0  0  0  0  0  0  0  0  0
   11.4035   13.0093    8.5313 C   0  0  0  0  0  0  0  0  0  0  0  0
   11.1362   13.5767    7.3472 N   0  0  0  0  0  0  0  0  0  0  0  0
   11.1008   12.6874    6.3210 C   0  0  0  0  0  0  0  0  0  0  0  0
   11.3036   11.3202    6.3823 C   0  0  0  0  0  0  0  0  0  0  0  0
   11.5875   10.7035    7.6353 C   0  0  0  0  0  0  0  0  0  0  0  0
   11.7995    9.5159    7.9189 O   0  0  0  0  0  0  0  0  0  0  0  0
   11.1781   10.8098    5.1195 N   0  0  0  0  0  0  0  0  0  0  0  0
   10.9002   11.8591    4.3061 C   0  0  0  0  0  0  0  0  0  0  0  0
   10.8466   13.0304    5.0168 N   0  0  0  0  0  0  0  0  0  0  0  0
  1  2  1  0  0  0  0
  1  6  1  0  0  0  0
  2  3  2  0  0  0  0
  3  4  1  0  0  0  0
  4  5  2  0  0  0  0
  4 10  1  0  0  0  0
  5  6  1  0  0  0  0
  5  8  1  0  0  0  0
  6  7  2  0  0  0  0
  8  9  1  0  0  0  0
  9 10  2  0  0  0  0
M  END
>  <CHROM.1>
11.29696891,11.77392133,6.74910566,0.35940742,-1.36250096,0.73199315

>  <Name>
ligand

>  <RI>
0

>  <Rbt.Current_Directory>
/home/itssahil/PROJECTS/Mol_Feturizer/New_Systems/rnas/2EEW

>  <Rbt.Executable>
rbdock ($Id: //depot/dev/client3/rdock/2013.1/src/exe/rbdock.cxx#4 $)

>  <Rbt.Library>
libRbt.so (2013.1, Build901 2013/11/27)

>  <Rbt.Parameter_File>
/export/apps/rDock/src/rDock_2013.1_src/data/scripts/dock_solv.prm

>  <Rbt.Receptor>
prm/blind_docking_40.prm

>  <SCORE>
-17.1178

>  <SCORE.INTER>
-17.1178

>  <SCORE.INTER.CONST>
1

>  <SCORE.INTER.POLAR>
0

>  <SCORE.INTER.ROT>
0

>  <SCORE.INTER.SOLV>
3.5621

>  <SCORE.INTER.VDW>
-16.1992

>  <SCORE.INTER.norm>
-1.71178

>  <SCORE.INTRA>
0

>  <SCORE.INTRA.DIHEDRAL>
0

>  <SCORE.INTRA.DIHEDRAL.0>
0

>  <SCORE.INTRA.POLAR>
0

>  <SCORE.INTRA.POLAR.0>
0

>  <SCORE.INTRA.REPUL>
0

>  <SCORE.INTRA.REPUL.0>
0

>  <SCORE.INTRA.SOLV>
0

>  <SCORE.INTRA.SOLV.lig_0>
-4.28901

>  <SCORE.INTRA.VDW>
0

>  <SCORE.INTRA.VDW.0>
0

>  <SCORE.INTRA.norm>
0

>  <SCORE.RESTR>
0

>  <SCORE.RESTR.CAVITY>
0

>  <SCORE.RESTR.norm>
0

>  <SCORE.SYSTEM>
0

>  <SCORE.SYSTEM.CONST>
0

>  <SCORE.SYSTEM.DIHEDRAL>
0

>  <SCORE.SYSTEM.SOLV>
0

>  <SCORE.SYSTEM.norm>
0

>  <SCORE.heavy>
10

>  <SCORE.norm>
-1.71178

>  <RMSD>
0.999

$$$$
ligand
 OpenBabel11021811423D
libRbt.so/2013.1/901 2013/11/27
 10 11  0  0  0  0  0  0  0  0999 V2000
   11.6288   11.6507    8.6532 N   0  0  0  0  0  0  0  0  0  0  0  0
   11.4056   13.0105    8.5393 C   0  0  0  0  0  0  0  0  0  0  0  0
   11.1232   13.5913    7.3652 N   0  0  0  0  0  0  0  0  0  0  0  0
   11.0853   12.7153    6.3277 C   0  0  0  0  0  0  0  0  0  0  0  0
   11.2991   11.3490    6.3692 C   0  0  0  0  0  0  0  0  0  0  0  0
   11.5991   10.7182    7.6113 C   0  0  0  0  0  0  0  0  0  0  0  0
   11.8227    9.5286    7.8774 O   0  0  0  0  0  0  0  0  0  0  0  0
   11.1660   10.8543    5.1009 N   0  0  0  0  0  0  0  0  0  0  0  0
   10.8728   11.9120    4.3039 C   0  0  0  0  0  0  0  0  0  0  0  0
   10.8167   13.0734    5.0306 N   0  0  0  0  0  0  0  0  0  0  0  0
  1  2  1  0  0  0  0
  1  6  1  0  0  0  0
  2  3  2  0  0  0  0
  3  4  1  0  0  0  0
  4  5  2  0  0  0  0
  4 10  1  0  0  0  0
  5  6  1  0  0  0  0
  5  8  1  0  0  0  0
  6  7  2  0  0  0  0
  8  9  1  0  0  0  0
  9 10  2  0  0  0  0
M  END
>  <CHROM.1>
11.29231703,11.79782550,6.74198220,0.35773522,-1.35064885,0.74352654

>  <Name>
ligand

>  <RI>
0

>  <Rbt.Current_Directory>
/home/itssahil/PROJECTS/Mol_Feturizer/New_Systems/rnas/2EEW

>  <Rbt.Executable>
rbdock ($Id: //depot/dev/client3/rdock/2013.1/src/exe/rbdock.cxx#4 $)

>  <Rbt.Library>
libRbt.so (2013.1, Build901 2013/11/27)

>  <Rbt.Parameter_File>
/export/apps/rDock/src/rDock_2013.1_src/data/scripts/dock_solv.prm

>  <Rbt.Receptor>
prm/pocket_docking_3.prm

>  <SCORE>
-17.1141

>  <SCORE.INTER>
-17.1141

>  <SCORE.INTER.CONST>
1

>  <SCORE.INTER.POLAR>
0

>  <SCORE.INTER.ROT>
0

>  <SCORE.INTER.SOLV>
3.50003

>  <SCORE.INTER.VDW>
-16.1761

>  <SCORE.INTER.norm>
-1.71141

>  <SCORE.INTRA>
0

>  <SCORE.INTRA.DIHEDRAL>
0

>  <SCORE.INTRA.DIHEDRAL.0>
0

>  <SCORE.INTRA.POLAR>
0

>  <SCORE.INTRA.POLAR.0>
0

>  <SCORE.INTRA.REPUL>
0

>  <SCORE.INTRA.REPUL.0>
0

>  <SCORE.INTRA.SOLV>
0

>  <SCORE.INTRA.SOLV.lig_0>
-4.28901

>  <SCORE.INTRA.VDW>
0

>  <SCORE.INTRA.VDW.0>
0

>  <SCORE.INTRA.norm>
0

>  <SCORE.RESTR>
0

>  <SCORE.RESTR.CAVITY>
0

>  <SCORE.RESTR.norm>
0

>  <SCORE.SYSTEM>
0

>  <SCORE.SYSTEM.CONST>
0

>  <SCORE.SYSTEM.DIHEDRAL>
0

>  <SCORE.SYSTEM.SOLV>
0

>  <SCORE.SYSTEM.norm>
0

>  <SCORE.heavy>
10

>  <SCORE.norm>
-1.71141

>  <RMSD>
0.999

$$$$
ligand
 OpenBabel11021811423D
libRbt.so/2013.1/901 2013/11/27
 10 11  0  0  0  0  0  0  0  0999 V2000
   11.6281   11.6473    8.6514 N   0  0  0  0  0  0  0  0  0  0  0  0
   11.4015   13.0065    8.5368 C   0  0  0  0  0  0  0  0  0  0  0  0
   11.1199   13.5862    7.3620 N   0  0  0  0  0  0  0  0  0  0  0  0
   11.0866   12.7099    6.3246 C   0  0  0  0  0  0  0  0  0  0  0  0
   11.3039   11.3442    6.3668 C   0  0  0  0  0  0  0  0  0  0  0  0
   11.6030   10.7145    7.6097 C   0  0  0  0  0  0  0  0  0  0  0  0
   11.8292    9.5255    7.8765 O   0  0  0  0  0  0  0  0  0  0  0  0
   11.1748   10.8489    5.0984 N   0  0  0  0  0  0  0  0  0  0  0  0
   10.8803   11.9056    4.3006 C   0  0  0  0  0  0  0  0  0  0  0  0
   10.8197   13.0670    5.0268 N   0  0  0  0  0  0  0  0  0  0  0  0
  1  2  1  0  0  0  0
  1  6  1  0  0  0  0
  2  3  2  0  0  0  0
  3  4  1  0  0  0  0
  4  5  2  0  0  0  0
  4 10  1  0  0  0  0
  5  6  1  0  0  0  0
  5  8  1  0  0  0  0
  6  7  2  0  0  0  0
  8  9  1  0  0  0  0
  9 10  2  0  0  0  0
M  END
>  <CHROM.1>
11.29514692,11.79308843,6.73951913,0.37309196,-1.35033285,0.75828084

>  <Name>
ligand

>  <RI>
0

>  <Rbt.Current_Directory>
/home/itssahil/PROJECTS/Mol_Feturizer/New_Systems/rnas/2EEW

>  <Rbt.Executable>
rbdock ($Id: //depot/dev/client3/rdock/2013.1/src/exe/rbdock.cxx#4 $)

>  <Rbt.Library>
libRbt.so (2013.1, Build901 2013/11/27)

>  <Rbt.Parameter_File>
/export/apps/rDock/src/rDock_2013.1_src/data/scripts/dock_solv.prm

>  <Rbt.Receptor>
prm/pocket_docking_3.prm

>  <SCORE>
-17.1113

>  <SCORE.INTER>
-17.1113

>  <SCORE.INTER.CONST>
1

>  <SCORE.INTER.POLAR>
0

>  <SCORE.INTER.ROT>
0

>  <SCORE.INTER.SOLV>
3.49521

>  <SCORE.INTER.VDW>
-16.1726

>  <SCORE.INTER.norm>
-1.71113

>  <SCORE.INTRA>
0

>  <SCORE.INTRA.DIHEDRAL>
0

>  <SCORE.INTRA.DIHEDRAL.0>
0

>  <SCORE.INTRA.POLAR>
0

>  <SCORE.INTRA.POLAR.0>
0

>  <SCORE.INTRA.REPUL>
0

>  <SCORE.INTRA.REPUL.0>
0

>  <SCORE.INTRA.SOLV>
0

>  <SCORE.INTRA.SOLV.lig_0>
-4.28901

>  <SCORE.INTRA.VDW>
0

>  <SCORE.INTRA.VDW.0>
0

>  <SCORE.INTRA.norm>
0

>  <SCORE.RESTR>
0

>  <SCORE.RESTR.CAVITY>
0

>  <SCORE.RESTR.norm>
0

>  <SCORE.SYSTEM>
0

>  <SCORE.SYSTEM.CONST>
0

>  <SCORE.SYSTEM.DIHEDRAL>
0

>  <SCORE.SYSTEM.SOLV>
0

>  <SCORE.SYSTEM.norm>
0

>  <SCORE.heavy>
10

>  <SCORE.norm>
-1.71113

>  <RMSD>
0.999

$$$$
ligand
 OpenBabel11021811423D
libRbt.so/2013.1/901 2013/11/27
 10 11  0  0  0  0  0  0  0  0999 V2000
   11.6014   11.6756    8.6801 N   0  0  0  0  0  0  0  0  0  0  0  0
   11.3874   13.0348    8.5435 C   0  0  0  0  0  0  0  0  0  0  0  0
   11.1229   13.5997    7.3575 N   0  0  0  0  0  0  0  0  0  0  0  0
   11.0928   12.7087    6.3327 C   0  0  0  0  0  0  0  0  0  0  0  0
   11.2982   11.3420    6.3968 C   0  0  0  0  0  0  0  0  0  0  0  0
   11.5792   10.7280    7.6517 C   0  0  0  0  0  0  0  0  0  0  0  0
   11.7926    9.5412    7.9380 O   0  0  0  0  0  0  0  0  0  0  0  0
   11.1779   10.8294    5.1345 N   0  0  0  0  0  0  0  0  0  0  0  0
   10.9006   11.8769    4.3184 C   0  0  0  0  0  0  0  0  0  0  0  0
   10.8423   13.0491    5.0271 N   0  0  0  0  0  0  0  0  0  0  0  0
  1  2  1  0  0  0  0
  1  6  1  0  0  0  0
  2  3  2  0  0  0  0
  3  4  1  0  0  0  0
  4  5  2  0  0  0  0
  4 10  1  0  0  0  0
  5  6  1  0  0  0  0
  5  8  1  0  0  0  0
  6  7  2  0  0  0  0
  8  9  1  0  0  0  0
  9 10  2  0  0  0  0
M  END
>  <CHROM.1>
11.28938529,11.79635076,6.76290535,0.37776270,-1.36359631,0.74836172

>  <Name>
ligand

>  <RI>
0

>  <Rbt.Current_Directory>
/home/itssahil/PROJECTS/Mol_Feturizer/New_Systems/rnas/2EEW

>  <Rbt.Executable>
rbdock ($Id: //depot/dev/client3/rdock/2013.1/src/exe/rbdock.cxx#4 $)

>  <Rbt.Library>
libRbt.so (2013.1, Build901 2013/11/27)

>  <Rbt.Parameter_File>
/export/apps/rDock/src/rDock_2013.1_src/data/scripts/dock_solv.prm

>  <Rbt.Receptor>
prm/pocket_docking_5.prm

>  <SCORE>
-17.1147

>  <SCORE.INTER>
-17.1147

>  <SCORE.INTER.CONST>
1

>  <SCORE.INTER.POLAR>
0

>  <SCORE.INTER.ROT>
0

>  <SCORE.INTER.SOLV>
3.56753

>  <SCORE.INTER.VDW>
-16.199

>  <SCORE.INTER.norm>
-1.71147

>  <SCORE.INTRA>
0

>  <SCORE.INTRA.DIHEDRAL>
0

>  <SCORE.INTRA.DIHEDRAL.0>
0

>  <SCORE.INTRA.POLAR>
0

>  <SCORE.INTRA.POLAR.0>
0

>  <SCORE.INTRA.REPUL>
0

>  <SCORE.INTRA.REPUL.0>
0

>  <SCORE.INTRA.SOLV>
0

>  <SCORE.INTRA.SOLV.lig_0>
-4.28901

>  <SCORE.INTRA.VDW>
0

>  <SCORE.INTRA.VDW.0>
0

>  <SCORE.INTRA.norm>
0

>  <SCORE.RESTR>
0

>  <SCORE.RESTR.CAVITY>
0

>  <SCORE.RESTR.norm>
0

>  <SCORE.SYSTEM>
0

>  <SCORE.SYSTEM.CONST>
0

>  <SCORE.SYSTEM.DIHEDRAL>
0

>  <SCORE.SYSTEM.SOLV>
0

>  <SCORE.SYSTEM.norm>
0

>  <SCORE.heavy>
10

>  <SCORE.norm>
-1.71147

>  <RMSD>
0.999

$$$$
ligand
 OpenBabel11021811423D
libRbt.so/2013.1/901 2013/11/27
 10 11  0  0  0  0  0  0  0  0999 V2000
   11.5892   11.6683    8.6834 N   0  0  0  0  0  0  0  0  0  0  0  0
   11.3886   13.0296    8.5472 C   0  0  0  0  0  0  0  0  0  0  0  0
   11.1359   13.5982    7.3604 N   0  0  0  0  0  0  0  0  0  0  0  0
   11.1032   12.7087    6.3344 C   0  0  0  0  0  0  0  0  0  0  0  0
   11.2955   11.3400    6.3982 C   0  0  0  0  0  0  0  0  0  0  0  0
   11.5638   10.7220    7.6539 C   0  0  0  0  0  0  0  0  0  0  0  0
   11.7646    9.5330    7.9400 O   0  0  0  0  0  0  0  0  0  0  0  0
   11.1774   10.8300    5.1346 N   0  0  0  0  0  0  0  0  0  0  0  0
   10.9144   11.8808    4.3182 C   0  0  0  0  0  0  0  0  0  0  0  0
   10.8631   13.0528    5.0279 N   0  0  0  0  0  0  0  0  0  0  0  0
  1  2  1  0  0  0  0
  1  6  1  0  0  0  0
  2  3  2  0  0  0  0
  3  4  1  0  0  0  0
  4  5  2  0  0  0  0
  4 10  1  0  0  0  0
  5  6  1  0  0  0  0
  5  8  1  0  0  0  0
  6  7  2  0  0  0  0
  8  9  1  0  0  0  0
  9 10  2  0  0  0  0
M  END
>  <CHROM.1>
11.28888476,11.79403763,6.76468561,0.36207095,-1.37396913,0.73409374

>  <Name>
ligand

>  <RI>
0

>  <Rbt.Current_Directory>
/home/itssahil/PROJECTS/Mol_Feturizer/New_Systems/rnas/2EEW

>  <Rbt.Executable>
rbdock ($Id: //depot/dev/client3/rdock/2013.1/src/exe/rbdock.cxx#4 $)

>  <Rbt.Library>
libRbt.so (2013.1, Build901 2013/11/27)

>  <Rbt.Parameter_File>
/export/apps/rDock/src/rDock_2013.1_src/data/scripts/dock_solv.prm

>  <Rbt.Receptor>
prm/pocket_docking_5.prm

>  <SCORE>
-17.1175

>  <SCORE.INTER>
-17.1175

>  <SCORE.INTER.CONST>
1

>  <SCORE.INTER.POLAR>
0

>  <SCORE.INTER.ROT>
0

>  <SCORE.INTER.SOLV>
3.60649

>  <SCORE.INTER.VDW>
-16.2138

>  <SCORE.INTER.norm>
-1.71175

>  <SCORE.INTRA>
0

>  <SCORE.INTRA.DIHEDRAL>
0

>  <SCORE.INTRA.DIHEDRAL.0>
0

>  <SCORE.INTRA.POLAR>
0

>  <SCORE.INTRA.POLAR.0>
0

>  <SCORE.INTRA.REPUL>
0

>  <SCORE.INTRA.REPUL.0>
0

>  <SCORE.INTRA.SOLV>
0

>  <SCORE.INTRA.SOLV.lig_0>
-4.28901

>  <SCORE.INTRA.VDW>
0

>  <SCORE.INTRA.VDW.0>
0

>  <SCORE.INTRA.norm>
0

>  <SCORE.RESTR>
0

>  <SCORE.RESTR.CAVITY>
0

>  <SCORE.RESTR.norm>
0

>  <SCORE.SYSTEM>
0

>  <SCORE.SYSTEM.CONST>
0

>  <SCORE.SYSTEM.DIHEDRAL>
0

>  <SCORE.SYSTEM.SOLV>
0

>  <SCORE.SYSTEM.norm>
0

>  <SCORE.heavy>
10

>  <SCORE.norm>
-1.71175

>  <RMSD>
0.999

$$$$
ligand
 OpenBabel11021811423D
libRbt.so/2013.1/901 2013/11/27
 10 11  0  0  0  0  0  0  0  0999 V2000
   11.6220   11.6673    8.6718 N   0  0  0  0  0  0  0  0  0  0  0  0
   11.4092   13.0261    8.5299 C   0  0  0  0  0  0  0  0  0  0  0  0
   11.1352   13.5852    7.3434 N   0  0  0  0  0  0  0  0  0  0  0  0
   11.0947   12.6889    6.3235 C   0  0  0  0  0  0  0  0  0  0  0  0
   11.2984   11.3222    6.3931 C   0  0  0  0  0  0  0  0  0  0  0  0
   11.5893   10.7143    7.6488 C   0  0  0  0  0  0  0  0  0  0  0  0
   11.8032    9.5287    7.9394 O   0  0  0  0  0  0  0  0  0  0  0  0
   11.1663   10.8032    5.1346 N   0  0  0  0  0  0  0  0  0  0  0  0
   10.8836   11.8468    4.3154 C   0  0  0  0  0  0  0  0  0  0  0  0
   10.8334   13.0228    5.0184 N   0  0  0  0  0  0  0  0  0  0  0  0
  1  2  1  0  0  0  0
  1  6  1  0  0  0  0
  2  3  2  0  0  0  0
  3  4  1  0  0  0  0
  4  5  2  0  0  0  0
  4 10  1  0  0  0  0
  5  6  1  0  0  0  0
  5  8  1  0  0  0  0
  6  7  2  0  0  0  0
  8  9  1  0  0  0  0
  9 10  2  0  0  0  0
M  END
>  <CHROM.1>
11.29352682,11.77847525,6.75684072,0.34384322,-1.35822943,0.70990874

>  <Name>
ligand

>  <RI>
0

>  <Rbt.Current_Directory>
/home/itssahil/PROJECTS/Mol_Feturizer/New_Systems/rnas/2EEW

>  <Rbt.Executable>
rbdock ($Id: //depot/dev/client3/rdock/2013.1/src/exe/rbdock.cxx#4 $)

>  <Rbt.Library>
libRbt.so (2013.1, Build901 2013/11/27)

>  <Rbt.Parameter_File>
/export/apps/rDock/src/rDock_2013.1_src/data/scripts/dock_solv.prm

>  <Rbt.Receptor>
prm/pocket_docking_5.prm

>  <SCORE>
-17.1043

>  <SCORE.INTER>
-17.1043

>  <SCORE.INTER.CONST>
1

>  <SCORE.INTER.POLAR>
0

>  <SCORE.INTER.ROT>
0

>  <SCORE.INTER.SOLV>
3.56164

>  <SCORE.INTER.VDW>
-16.1901

>  <SCORE.INTER.norm>
-1.71043

>  <SCORE.INTRA>
0

>  <SCORE.INTRA.DIHEDRAL>
0

>  <SCORE.INTRA.DIHEDRAL.0>
0

>  <SCORE.INTRA.POLAR>
0

>  <SCORE.INTRA.POLAR.0>
0

>  <SCORE.INTRA.REPUL>
0

>  <SCORE.INTRA.REPUL.0>
0

>  <SCORE.INTRA.SOLV>
0

>  <SCORE.INTRA.SOLV.lig_0>
-4.28901

>  <SCORE.INTRA.VDW>
0

>  <SCORE.INTRA.VDW.0>
0

>  <SCORE.INTRA.norm>
0

>  <SCORE.RESTR>
0

>  <SCORE.RESTR.CAVITY>
0

>  <SCORE.RESTR.norm>
0

>  <SCORE.SYSTEM>
0

>  <SCORE.SYSTEM.CONST>
0

>  <SCORE.SYSTEM.DIHEDRAL>
0

>  <SCORE.SYSTEM.SOLV>
0

>  <SCORE.SYSTEM.norm>
0

>  <SCORE.heavy>
10

>  <SCORE.norm>
-1.71043

>  <RMSD>
0.999

$$$$
ligand
 OpenBabel11021811423D
libRbt.so/2013.1/901 2013/11/27
 10 11  0  0  0  0  0  0  0  0999 V2000
   11.6003   11.6495    8.6704 N   0  0  0  0  0  0  0  0  0  0  0  0
   11.4052   13.0118    8.5358 C   0  0  0  0  0  0  0  0  0  0  0  0
   11.1506   13.5823    7.3504 N   0  0  0  0  0  0  0  0  0  0  0  0
   11.1102   12.6936    6.3239 C   0  0  0  0  0  0  0  0  0  0  0  0
   11.2968   11.3242    6.3860 C   0  0  0  0  0  0  0  0  0  0  0  0
   11.5670   10.7041    7.6403 C   0  0  0  0  0  0  0  0  0  0  0  0
   11.7637    9.5140    7.9249 O   0  0  0  0  0  0  0  0  0  0  0  0
   11.1719   10.8155    5.1225 N   0  0  0  0  0  0  0  0  0  0  0  0
   10.9104   11.8680    4.3078 C   0  0  0  0  0  0  0  0  0  0  0  0
   10.8668   13.0397    5.0185 N   0  0  0  0  0  0  0  0  0  0  0  0
  1  2  1  0  0  0  0
  1  6  1  0  0  0  0
  2  3  2  0  0  0  0
  3  4  1  0  0  0  0
  4  5  2  0  0  0  0
  4 10  1  0  0  0  0
  5  6  1  0  0  0  0
  5  8  1  0  0  0  0
  6  7  2  0  0  0  0
  8  9  1  0  0  0  0
  9 10  2  0  0  0  0
M  END
>  <CHROM.1>
11.29352416,11.77791769,6.75283212,0.33295127,-1.37406387,0.70622745

>  <Name>
ligand

>  <RI>
0

>  <Rbt.Current_Directory>
/home/itssahil/PROJECTS/Mol_Feturizer/New_Systems/rnas/2EEW

>  <Rbt.Executable>
rbdock ($Id: //depot/dev/client3/rdock/2013.1/src/exe/rbdock.cxx#4 $)

>  <Rbt.Library>
libRbt.so (2013.1, Build901 2013/11/27)

>  <Rbt.Parameter_File>
/export/apps/rDock/src/rDock_2013.1_src/data/scripts/dock_solv.prm

>  <Rbt.Receptor>
prm/blind_docking_40.prm

>  <SCORE>
-17.1203

>  <SCORE.INTER>
-17.1203

>  <SCORE.INTER.CONST>
1

>  <SCORE.INTER.POLAR>
0

>  <SCORE.INTER.ROT>
0

>  <SCORE.INTER.SOLV>
3.6101

>  <SCORE.INTER.VDW>
-16.2169

>  <SCORE.INTER.norm>
-1.71203

>  <SCORE.INTRA>
0

>  <SCORE.INTRA.DIHEDRAL>
0

>  <SCORE.INTRA.DIHEDRAL.0>
0

>  <SCORE.INTRA.POLAR>
0

>  <SCORE.INTRA.POLAR.0>
0

>  <SCORE.INTRA.REPUL>
0

>  <SCORE.INTRA.REPUL.0>
0

>  <SCORE.INTRA.SOLV>
0

>  <SCORE.INTRA.SOLV.lig_0>
-4.28901

>  <SCORE.INTRA.VDW>
0

>  <SCORE.INTRA.VDW.0>
0

>  <SCORE.INTRA.norm>
0

>  <SCORE.RESTR>
0

>  <SCORE.RESTR.CAVITY>
0

>  <SCORE.RESTR.norm>
0

>  <SCORE.SYSTEM>
0

>  <SCORE.SYSTEM.CONST>
0

>  <SCORE.SYSTEM.DIHEDRAL>
0

>  <SCORE.SYSTEM.SOLV>
0

>  <SCORE.SYSTEM.norm>
0

>  <SCORE.heavy>
10

>  <SCORE.norm>
-1.71203

>  <RMSD>
1.000

$$$$
ligand
 OpenBabel11021811423D
libRbt.so/2013.1/901 2013/11/27
 10 11  0  0  0  0  0  0  0  0999 V2000
   11.6006   11.6755    8.6789 N   0  0  0  0  0  0  0  0  0  0  0  0
   11.3956   13.0368    8.5501 C   0  0  0  0  0  0  0  0  0  0  0  0
   11.1286   13.6093    7.3683 N   0  0  0  0  0  0  0  0  0  0  0  0
   11.0866   12.7235    6.3394 C   0  0  0  0  0  0  0  0  0  0  0  0
   11.2826   11.3551    6.3958 C   0  0  0  0  0  0  0  0  0  0  0  0
   11.5660   10.7330    7.6462 C   0  0  0  0  0  0  0  0  0  0  0  0
   11.7726    9.5434    7.9256 O   0  0  0  0  0  0  0  0  0  0  0  0
   11.1518   10.8495    5.1317 N   0  0  0  0  0  0  0  0  0  0  0  0
   10.8775   11.9028    4.3222 C   0  0  0  0  0  0  0  0  0  0  0  0
   10.8314   13.0720    5.0368 N   0  0  0  0  0  0  0  0  0  0  0  0
  1  2  1  0  0  0  0
  1  6  1  0  0  0  0
  2  3  2  0  0  0  0
  3  4  1  0  0  0  0
  4  5  2  0  0  0  0
  4 10  1  0  0  0  0
  5  6  1  0  0  0  0
  5  8  1  0  0  0  0
  6  7  2  0  0  0  0
  8  9  1  0  0  0  0
  9 10  2  0  0  0  0
M  END
>  <CHROM.1>
11.27899764,11.80772331,6.76409531,0.33421730,-1.36424938,0.71056996

>  <Name>
ligand

>  <RI>
0

>  <Rbt.Current_Directory>
/home/itssahil/PROJECTS/Mol_Feturizer/New_Systems/rnas/2EEW

>  <Rbt.Executable>
rbdock ($Id: //depot/dev/client3/rdock/2013.1/src/exe/rbdock.cxx#4 $)

>  <Rbt.Library>
libRbt.so (2013.1, Build901 2013/11/27)

>  <Rbt.Parameter_File>
/export/apps/rDock/src/rDock_2013.1_src/data/scripts/dock_solv.prm

>  <Rbt.Receptor>
prm/pocket_docking_7.prm

>  <SCORE>
-17.1281

>  <SCORE.INTER>
-17.1281

>  <SCORE.INTER.CONST>
1

>  <SCORE.INTER.POLAR>
0

>  <SCORE.INTER.ROT>
0

>  <SCORE.INTER.SOLV>
3.57478

>  <SCORE.INTER.VDW>
-16.2103

>  <SCORE.INTER.norm>
-1.71281

>  <SCORE.INTRA>
0

>  <SCORE.INTRA.DIHEDRAL>
0

>  <SCORE.INTRA.DIHEDRAL.0>
0

>  <SCORE.INTRA.POLAR>
0

>  <SCORE.INTRA.POLAR.0>
0

>  <SCORE.INTRA.REPUL>
0

>  <SCORE.INTRA.REPUL.0>
0

>  <SCORE.INTRA.SOLV>
0

>  <SCORE.INTRA.SOLV.lig_0>
-4.28901

>  <SCORE.INTRA.VDW>
0

>  <SCORE.INTRA.VDW.0>
0

>  <SCORE.INTRA.norm>
0

>  <SCORE.RESTR>
0

>  <SCORE.RESTR.CAVITY>
0

>  <SCORE.RESTR.norm>
0

>  <SCORE.SYSTEM>
0

>  <SCORE.SYSTEM.CONST>
0

>  <SCORE.SYSTEM.DIHEDRAL>
0

>  <SCORE.SYSTEM.SOLV>
0

>  <SCORE.SYSTEM.norm>
0

>  <SCORE.heavy>
10

>  <SCORE.norm>
-1.71281

>  <RMSD>
1.000

$$$$
ligand
 OpenBabel11021811423D
libRbt.so/2013.1/901 2013/11/27
 10 11  0  0  0  0  0  0  0  0999 V2000
   11.6085   11.6480    8.6651 N   0  0  0  0  0  0  0  0  0  0  0  0
   11.4041   13.0090    8.5319 C   0  0  0  0  0  0  0  0  0  0  0  0
   11.1426   13.5786    7.3476 N   0  0  0  0  0  0  0  0  0  0  0  0
   11.1054   12.6904    6.3206 C   0  0  0  0  0  0  0  0  0  0  0  0
   11.3011   11.3221    6.3813 C   0  0  0  0  0  0  0  0  0  0  0  0
   11.5787   10.7030    7.6345 C   0  0  0  0  0  0  0  0  0  0  0  0
   11.7839    9.5141    7.9177 O   0  0  0  0  0  0  0  0  0  0  0  0
   11.1762   10.8134    5.1178 N   0  0  0  0  0  0  0  0  0  0  0  0
   10.9057   11.8647    4.3045 C   0  0  0  0  0  0  0  0  0  0  0  0
   10.8562   13.0357    5.0161 N   0  0  0  0  0  0  0  0  0  0  0  0
  1  2  1  0  0  0  0
  1  6  1  0  0  0  0
  2  3  2  0  0  0  0
  3  4  1  0  0  0  0
  4  5  2  0  0  0  0
  4 10  1  0  0  0  0
  5  6  1  0  0  0  0
  5  8  1  0  0  0  0
  6  7  2  0  0  0  0
  8  9  1  0  0  0  0
  9 10  2  0  0  0  0
M  END
>  <CHROM.1>
11.29581054,11.77558802,6.74844567,0.34916074,-1.36776485,0.72276347

>  <Name>
ligand

>  <RI>
0

>  <Rbt.Current_Directory>
/home/itssahil/PROJECTS/Mol_Feturizer/New_Systems/rnas/2EEW

>  <Rbt.Executable>
rbdock ($Id: //depot/dev/client3/rdock/2013.1/src/exe/rbdock.cxx#4 $)

>  <Rbt.Library>
libRbt.so (2013.1, Build901 2013/11/27)

>  <Rbt.Parameter_File>
/export/apps/rDock/src/rDock_2013.1_src/data/scripts/dock_solv.prm

>  <Rbt.Receptor>
prm/pocket_docking_8.prm

>  <SCORE>
-17.1217

>  <SCORE.INTER>
-17.1217

>  <SCORE.INTER.CONST>
1

>  <SCORE.INTER.POLAR>
0

>  <SCORE.INTER.ROT>
0

>  <SCORE.INTER.SOLV>
3.58043

>  <SCORE.INTER.VDW>
-16.2079

>  <SCORE.INTER.norm>
-1.71217

>  <SCORE.INTRA>
0

>  <SCORE.INTRA.DIHEDRAL>
0

>  <SCORE.INTRA.DIHEDRAL.0>
0

>  <SCORE.INTRA.POLAR>
0

>  <SCORE.INTRA.POLAR.0>
0

>  <SCORE.INTRA.REPUL>
0

>  <SCORE.INTRA.REPUL.0>
0

>  <SCORE.INTRA.SOLV>
0

>  <SCORE.INTRA.SOLV.lig_0>
-4.28901

>  <SCORE.INTRA.VDW>
0

>  <SCORE.INTRA.VDW.0>
0

>  <SCORE.INTRA.norm>
0

>  <SCORE.RESTR>
0

>  <SCORE.RESTR.CAVITY>
0

>  <SCORE.RESTR.norm>
0

>  <SCORE.SYSTEM>
0

>  <SCORE.SYSTEM.CONST>
0

>  <SCORE.SYSTEM.DIHEDRAL>
0

>  <SCORE.SYSTEM.SOLV>
0

>  <SCORE.SYSTEM.norm>
0

>  <SCORE.heavy>
10

>  <SCORE.norm>
-1.71217

>  <RMSD>
1.000

$$$$
ligand
 OpenBabel11021811423D
libRbt.so/2013.1/901 2013/11/27
 10 11  0  0  0  0  0  0  0  0999 V2000
   11.6105   11.6504    8.6636 N   0  0  0  0  0  0  0  0  0  0  0  0
   11.4017   13.0107    8.5297 C   0  0  0  0  0  0  0  0  0  0  0  0
   11.1371   13.5787    7.3452 N   0  0  0  0  0  0  0  0  0  0  0  0
   11.1016   12.6896    6.3189 C   0  0  0  0  0  0  0  0  0  0  0  0
   11.3017   11.3220    6.3803 C   0  0  0  0  0  0  0  0  0  0  0  0
   11.5826   10.7047    7.6336 C   0  0  0  0  0  0  0  0  0  0  0  0
   11.7919    9.5166    7.9175 O   0  0  0  0  0  0  0  0  0  0  0  0
   11.1771   10.8120    5.1173 N   0  0  0  0  0  0  0  0  0  0  0  0
   10.9024   11.8619    4.3035 C   0  0  0  0  0  0  0  0  0  0  0  0
   10.8500   13.0332    5.0144 N   0  0  0  0  0  0  0  0  0  0  0  0
  1  2  1  0  0  0  0
  1  6  1  0  0  0  0
  2  3  2  0  0  0  0
  3  4  1  0  0  0  0
  4  5  2  0  0  0  0
  4 10  1  0  0  0  0
  5  6  1  0  0  0  0
  5  8  1  0  0  0  0
  6  7  2  0  0  0  0
  8  9  1  0  0  0  0
  9 10  2  0  0  0  0
M  END
>  <CHROM.1>
11.29539115,11.77571290,6.74716902,0.35730757,-1.36487426,0.73003859

>  <Name>
ligand

>  <RI>
0

>  <Rbt.Current_Directory>
/home/itssahil/PROJECTS/Mol_Feturizer/New_Systems/rnas/2EEW

>  <Rbt.Executable>
rbdock ($Id: //depot/dev/client3/rdock/2013.1/src/exe/rbdock.cxx#4 $)

>  <Rbt.Library>
libRbt.so (2013.1, Build901 2013/11/27)

>  <Rbt.Parameter_File>
/export/apps/rDock/src/rDock_2013.1_src/data/scripts/dock_solv.prm

>  <Rbt.Receptor>
prm/blind_docking_80.prm

>  <SCORE>
-17.1191

>  <SCORE.INTER>
-17.1191

>  <SCORE.INTER.CONST>
1

>  <SCORE.INTER.POLAR>
0

>  <SCORE.INTER.ROT>
0

>  <SCORE.INTER.SOLV>
3.56925

>  <SCORE.INTER.VDW>
-16.2024

>  <SCORE.INTER.norm>
-1.71191

>  <SCORE.INTRA>
0

>  <SCORE.INTRA.DIHEDRAL>
0

>  <SCORE.INTRA.DIHEDRAL.0>
0

>  <SCORE.INTRA.POLAR>
0

>  <SCORE.INTRA.POLAR.0>
0

>  <SCORE.INTRA.REPUL>
0

>  <SCORE.INTRA.REPUL.0>
0

>  <SCORE.INTRA.SOLV>
0

>  <SCORE.INTRA.SOLV.lig_0>
-4.28901

>  <SCORE.INTRA.VDW>
0

>  <SCORE.INTRA.VDW.0>
0

>  <SCORE.INTRA.norm>
0

>  <SCORE.RESTR>
0

>  <SCORE.RESTR.CAVITY>
0

>  <SCORE.RESTR.norm>
0

>  <SCORE.SYSTEM>
0

>  <SCORE.SYSTEM.CONST>
0

>  <SCORE.SYSTEM.DIHEDRAL>
0

>  <SCORE.SYSTEM.SOLV>
0

>  <SCORE.SYSTEM.norm>
0

>  <SCORE.heavy>
10

>  <SCORE.norm>
-1.71191

>  <RMSD>
1.001

$$$$
ligand
 OpenBabel11021811423D
libRbt.so/2013.1/901 2013/11/27
 10 11  0  0  0  0  0  0  0  0999 V2000
   11.6984   11.6801    8.6541 N   0  0  0  0  0  0  0  0  0  0  0  0
   11.4356   13.0277    8.4906 C   0  0  0  0  0  0  0  0  0  0  0  0
   11.1237   13.5542    7.2986 N   0  0  0  0  0  0  0  0  0  0  0  0
   11.0988   12.6378    6.2962 C   0  0  0  0  0  0  0  0  0  0  0  0
   11.3515   11.2806    6.3877 C   0  0  0  0  0  0  0  0  0  0  0  0
   11.6831   10.7072    7.6495 C   0  0  0  0  0  0  0  0  0  0  0  0
   11.9432    9.5355    7.9585 O   0  0  0  0  0  0  0  0  0  0  0  0
   11.2180   10.7334    5.1413 N   0  0  0  0  0  0  0  0  0  0  0  0
   10.8861   11.7507    4.3077 C   0  0  0  0  0  0  0  0  0  0  0  0
   10.8055   12.9375    4.9896 N   0  0  0  0  0  0  0  0  0  0  0  0
  1  2  1  0  0  0  0
  1  6  1  0  0  0  0
  2  3  2  0  0  0  0
  3  4  1  0  0  0  0
  4  5  2  0  0  0  0
  4 10  1  0  0  0  0
  5  6  1  0  0  0  0
  5  8  1  0  0  0  0
  6  7  2  0  0  0  0
  8  9  1  0  0  0  0
  9 10  2  0  0  0  0
M  END
>  <CHROM.1>
11.33624855,11.74327662,6.74299464,0.41111137,-1.32289210,0.75665183

>  <Name>
ligand

>  <RI>
0

>  <Rbt.Current_Directory>
/home/itssahil/PROJECTS/Mol_Feturizer/New_Systems/rnas/2EEW

>  <Rbt.Executable>
rbdock ($Id: //depot/dev/client3/rdock/2013.1/src/exe/rbdock.cxx#4 $)

>  <Rbt.Library>
libRbt.so (2013.1, Build901 2013/11/27)

>  <Rbt.Parameter_File>
/export/apps/rDock/src/rDock_2013.1_src/data/scripts/dock_solv.prm

>  <Rbt.Receptor>
prm/pocket_docking_3.prm

>  <SCORE>
-17.053

>  <SCORE.INTER>
-17.053

>  <SCORE.INTER.CONST>
1

>  <SCORE.INTER.POLAR>
0

>  <SCORE.INTER.ROT>
0

>  <SCORE.INTER.SOLV>
3.42862

>  <SCORE.INTER.VDW>
-16.1115

>  <SCORE.INTER.norm>
-1.7053

>  <SCORE.INTRA>
0

>  <SCORE.INTRA.DIHEDRAL>
0

>  <SCORE.INTRA.DIHEDRAL.0>
0

>  <SCORE.INTRA.POLAR>
0

>  <SCORE.INTRA.POLAR.0>
0

>  <SCORE.INTRA.REPUL>
0

>  <SCORE.INTRA.REPUL.0>
0

>  <SCORE.INTRA.SOLV>
0

>  <SCORE.INTRA.SOLV.lig_0>
-4.28901

>  <SCORE.INTRA.VDW>
0

>  <SCORE.INTRA.VDW.0>
0

>  <SCORE.INTRA.norm>
0

>  <SCORE.RESTR>
0

>  <SCORE.RESTR.CAVITY>
0

>  <SCORE.RESTR.norm>
0

>  <SCORE.SYSTEM>
0

>  <SCORE.SYSTEM.CONST>
0

>  <SCORE.SYSTEM.DIHEDRAL>
0

>  <SCORE.SYSTEM.SOLV>
0

>  <SCORE.SYSTEM.norm>
0

>  <SCORE.heavy>
10

>  <SCORE.norm>
-1.7053

>  <RMSD>
1.001

$$$$
ligand
 OpenBabel11021811423D
libRbt.so/2013.1/901 2013/11/27
 10 11  0  0  0  0  0  0  0  0999 V2000
   11.6054   11.6781    8.6777 N   0  0  0  0  0  0  0  0  0  0  0  0
   11.4003   13.0391    8.5452 C   0  0  0  0  0  0  0  0  0  0  0  0
   11.1327   13.6083    7.3620 N   0  0  0  0  0  0  0  0  0  0  0  0
   11.0901   12.7197    6.3355 C   0  0  0  0  0  0  0  0  0  0  0  0
   11.2861   11.3515    6.3956 C   0  0  0  0  0  0  0  0  0  0  0  0
   11.5702   10.7328    7.6476 C   0  0  0  0  0  0  0  0  0  0  0  0
   11.7769    9.5440    7.9301 O   0  0  0  0  0  0  0  0  0  0  0  0
   11.1545   10.8424    5.1330 N   0  0  0  0  0  0  0  0  0  0  0  0
   10.8798   11.8935    4.3207 C   0  0  0  0  0  0  0  0  0  0  0  0
   10.8341   13.0646    5.0322 N   0  0  0  0  0  0  0  0  0  0  0  0
  1  2  1  0  0  0  0
  1  6  1  0  0  0  0
  2  3  2  0  0  0  0
  3  4  1  0  0  0  0
  4  5  2  0  0  0  0
  4 10  1  0  0  0  0
  5  6  1  0  0  0  0
  5  8  1  0  0  0  0
  6  7  2  0  0  0  0
  8  9  1  0  0  0  0
  9 10  2  0  0  0  0
M  END
>  <CHROM.1>
11.28269681,11.80508972,6.76267475,0.33234233,-1.36383686,0.70597217

>  <Name>
ligand

>  <RI>
0

>  <Rbt.Current_Directory>
/home/itssahil/PROJECTS/Mol_Feturizer/New_Systems/rnas/2EEW

>  <Rbt.Executable>
rbdock ($Id: //depot/dev/client3/rdock/2013.1/src/exe/rbdock.cxx#4 $)

>  <Rbt.Library>
libRbt.so (2013.1, Build901 2013/11/27)

>  <Rbt.Parameter_File>
/export/apps/rDock/src/rDock_2013.1_src/data/scripts/dock_solv.prm

>  <Rbt.Receptor>
prm/pocket_docking_3.prm

>  <SCORE>
-17.1268

>  <SCORE.INTER>
-17.1268

>  <SCORE.INTER.CONST>
1

>  <SCORE.INTER.POLAR>
0

>  <SCORE.INTER.ROT>
0

>  <SCORE.INTER.SOLV>
3.57427

>  <SCORE.INTER.VDW>
-16.2093

>  <SCORE.INTER.norm>
-1.71268

>  <SCORE.INTRA>
0

>  <SCORE.INTRA.DIHEDRAL>
0

>  <SCORE.INTRA.DIHEDRAL.0>
0

>  <SCORE.INTRA.POLAR>
0

>  <SCORE.INTRA.POLAR.0>
0

>  <SCORE.INTRA.REPUL>
0

>  <SCORE.INTRA.REPUL.0>
0

>  <SCORE.INTRA.SOLV>
0

>  <SCORE.INTRA.SOLV.lig_0>
-4.28901

>  <SCORE.INTRA.VDW>
0

>  <SCORE.INTRA.VDW.0>
0

>  <SCORE.INTRA.norm>
0

>  <SCORE.RESTR>
0

>  <SCORE.RESTR.CAVITY>
0

>  <SCORE.RESTR.norm>
0

>  <SCORE.SYSTEM>
0

>  <SCORE.SYSTEM.CONST>
0

>  <SCORE.SYSTEM.DIHEDRAL>
0

>  <SCORE.SYSTEM.SOLV>
0

>  <SCORE.SYSTEM.norm>
0

>  <SCORE.heavy>
10

>  <SCORE.norm>
-1.71268

>  <RMSD>
1.001

$$$$
ligand
 OpenBabel11021811423D
libRbt.so/2013.1/901 2013/11/27
 10 11  0  0  0  0  0  0  0  0999 V2000
   11.5902   11.6714    8.6776 N   0  0  0  0  0  0  0  0  0  0  0  0
   11.3799   13.0323    8.5518 C   0  0  0  0  0  0  0  0  0  0  0  0
   11.1187   13.6076    7.3700 N   0  0  0  0  0  0  0  0  0  0  0  0
   11.0881   12.7251    6.3379 C   0  0  0  0  0  0  0  0  0  0  0  0
   11.2898   11.3574    6.3912 C   0  0  0  0  0  0  0  0  0  0  0  0
   11.5672   10.7324    7.6414 C   0  0  0  0  0  0  0  0  0  0  0  0
   11.7771    9.5427    7.9183 O   0  0  0  0  0  0  0  0  0  0  0  0
   11.1703   10.8555    5.1244 N   0  0  0  0  0  0  0  0  0  0  0  0
   10.8971   11.9102    4.3165 C   0  0  0  0  0  0  0  0  0  0  0  0
   10.8406   13.0768    5.0347 N   0  0  0  0  0  0  0  0  0  0  0  0
  1  2  1  0  0  0  0
  1  6  1  0  0  0  0
  2  3  2  0  0  0  0
  3  4  1  0  0  0  0
  4  5  2  0  0  0  0
  4 10  1  0  0  0  0
  5  6  1  0  0  0  0
  5  8  1  0  0  0  0
  6  7  2  0  0  0  0
  8  9  1  0  0  0  0
  9 10  2  0  0  0  0
M  END
>  <CHROM.1>
11.28159440,11.80871932,6.76091830,0.37399199,-1.36655343,0.75285952

>  <Name>
ligand

>  <RI>
0

>  <Rbt.Current_Directory>
/home/itssahil/PROJECTS/Mol_Feturizer/New_Systems/rnas/2EEW

>  <Rbt.Executable>
rbdock ($Id: //depot/dev/client3/rdock/2013.1/src/exe/rbdock.cxx#4 $)

>  <Rbt.Library>
libRbt.so (2013.1, Build901 2013/11/27)

>  <Rbt.Parameter_File>
/export/apps/rDock/src/rDock_2013.1_src/data/scripts/dock_solv.prm

>  <Rbt.Receptor>
prm/pocket_docking_4.prm

>  <SCORE>
-17.1264

>  <SCORE.INTER>
-17.1264

>  <SCORE.INTER.CONST>
1

>  <SCORE.INTER.POLAR>
0

>  <SCORE.INTER.ROT>
0

>  <SCORE.INTER.SOLV>
3.56901

>  <SCORE.INTER.VDW>
-16.2073

>  <SCORE.INTER.norm>
-1.71264

>  <SCORE.INTRA>
0

>  <SCORE.INTRA.DIHEDRAL>
0

>  <SCORE.INTRA.DIHEDRAL.0>
0

>  <SCORE.INTRA.POLAR>
0

>  <SCORE.INTRA.POLAR.0>
0

>  <SCORE.INTRA.REPUL>
0

>  <SCORE.INTRA.REPUL.0>
0

>  <SCORE.INTRA.SOLV>
0

>  <SCORE.INTRA.SOLV.lig_0>
-4.28901

>  <SCORE.INTRA.VDW>
0

>  <SCORE.INTRA.VDW.0>
0

>  <SCORE.INTRA.norm>
0

>  <SCORE.RESTR>
0

>  <SCORE.RESTR.CAVITY>
0

>  <SCORE.RESTR.norm>
0

>  <SCORE.SYSTEM>
0

>  <SCORE.SYSTEM.CONST>
0

>  <SCORE.SYSTEM.DIHEDRAL>
0

>  <SCORE.SYSTEM.SOLV>
0

>  <SCORE.SYSTEM.norm>
0

>  <SCORE.heavy>
10

>  <SCORE.norm>
-1.71264

>  <RMSD>
1.001

$$$$
ligand
 OpenBabel11021811423D
libRbt.so/2013.1/901 2013/11/27
 10 11  0  0  0  0  0  0  0  0999 V2000
   11.6343   11.6486    8.6470 N   0  0  0  0  0  0  0  0  0  0  0  0
   11.4042   13.0073    8.5335 C   0  0  0  0  0  0  0  0  0  0  0  0
   11.1179   13.5868    7.3597 N   0  0  0  0  0  0  0  0  0  0  0  0
   11.0835   12.7107    6.3222 C   0  0  0  0  0  0  0  0  0  0  0  0
   11.3040   11.3455    6.3633 C   0  0  0  0  0  0  0  0  0  0  0  0
   11.6082   10.7161    7.6051 C   0  0  0  0  0  0  0  0  0  0  0  0
   11.8379    9.5275    7.8709 O   0  0  0  0  0  0  0  0  0  0  0  0
   11.1723   10.8503    5.0951 N   0  0  0  0  0  0  0  0  0  0  0  0
   10.8731   11.9066    4.2985 C   0  0  0  0  0  0  0  0  0  0  0  0
   10.8119   13.0676    5.0252 N   0  0  0  0  0  0  0  0  0  0  0  0
  1  2  1  0  0  0  0
  1  6  1  0  0  0  0
  2  3  2  0  0  0  0
  3  4  1  0  0  0  0
  4  5  2  0  0  0  0
  4 10  1  0  0  0  0
  5  6  1  0  0  0  0
  5  8  1  0  0  0  0
  6  7  2  0  0  0  0
  8  9  1  0  0  0  0
  9 10  2  0  0  0  0
M  END
>  <CHROM.1>
11.29535473,11.79424022,6.73615459,0.37142346,-1.34663900,0.75695997

>  <Name>
ligand

>  <RI>
0

>  <Rbt.Current_Directory>
/home/itssahil/PROJECTS/Mol_Feturizer/New_Systems/rnas/2EEW

>  <Rbt.Executable>
rbdock ($Id: //depot/dev/client3/rdock/2013.1/src/exe/rbdock.cxx#4 $)

>  <Rbt.Library>
libRbt.so (2013.1, Build901 2013/11/27)

>  <Rbt.Parameter_File>
/export/apps/rDock/src/rDock_2013.1_src/data/scripts/dock_solv.prm

>  <Rbt.Receptor>
prm/pocket_docking_7.prm

>  <SCORE>
-17.109

>  <SCORE.INTER>
-17.109

>  <SCORE.INTER.CONST>
1

>  <SCORE.INTER.POLAR>
0

>  <SCORE.INTER.ROT>
0

>  <SCORE.INTER.SOLV>
3.48034

>  <SCORE.INTER.VDW>
-16.1661

>  <SCORE.INTER.norm>
-1.7109

>  <SCORE.INTRA>
0

>  <SCORE.INTRA.DIHEDRAL>
0

>  <SCORE.INTRA.DIHEDRAL.0>
0

>  <SCORE.INTRA.POLAR>
0

>  <SCORE.INTRA.POLAR.0>
0

>  <SCORE.INTRA.REPUL>
0

>  <SCORE.INTRA.REPUL.0>
0

>  <SCORE.INTRA.SOLV>
0

>  <SCORE.INTRA.SOLV.lig_0>
-4.28901

>  <SCORE.INTRA.VDW>
0

>  <SCORE.INTRA.VDW.0>
0

>  <SCORE.INTRA.norm>
0

>  <SCORE.RESTR>
0

>  <SCORE.RESTR.CAVITY>
0

>  <SCORE.RESTR.norm>
0

>  <SCORE.SYSTEM>
0

>  <SCORE.SYSTEM.CONST>
0

>  <SCORE.SYSTEM.DIHEDRAL>
0

>  <SCORE.SYSTEM.SOLV>
0

>  <SCORE.SYSTEM.norm>
0

>  <SCORE.heavy>
10

>  <SCORE.norm>
-1.7109

>  <RMSD>
1.001

$$$$
ligand
 OpenBabel11021811423D
libRbt.so/2013.1/901 2013/11/27
 10 11  0  0  0  0  0  0  0  0999 V2000
   11.6106   11.6651    8.6721 N   0  0  0  0  0  0  0  0  0  0  0  0
   11.3988   13.0242    8.5315 C   0  0  0  0  0  0  0  0  0  0  0  0
   11.1311   13.5855    7.3445 N   0  0  0  0  0  0  0  0  0  0  0  0
   11.0957   12.6910    6.3229 C   0  0  0  0  0  0  0  0  0  0  0  0
   11.2987   11.3241    6.3911 C   0  0  0  0  0  0  0  0  0  0  0  0
   11.5829   10.7139    7.6472 C   0  0  0  0  0  0  0  0  0  0  0  0
   11.7951    9.5278    7.9369 O   0  0  0  0  0  0  0  0  0  0  0  0
   11.1729   10.8074    5.1310 N   0  0  0  0  0  0  0  0  0  0  0  0
   10.8947   11.8524    4.3123 C   0  0  0  0  0  0  0  0  0  0  0  0
   10.8412   13.0273    5.0171 N   0  0  0  0  0  0  0  0  0  0  0  0
  1  2  1  0  0  0  0
  1  6  1  0  0  0  0
  2  3  2  0  0  0  0
  3  4  1  0  0  0  0
  4  5  2  0  0  0  0
  4 10  1  0  0  0  0
  5  6  1  0  0  0  0
  5  8  1  0  0  0  0
  6  7  2  0  0  0  0
  8  9  1  0  0  0  0
  9 10  2  0  0  0  0
M  END
>  <CHROM.1>
11.29203005,11.77975286,6.75562816,0.35929639,-1.36225947,0.72678732

>  <Name>
ligand

>  <RI>
0

>  <Rbt.Current_Directory>
/home/itssahil/PROJECTS/Mol_Feturizer/New_Systems/rnas/2EEW

>  <Rbt.Executable>
rbdock ($Id: //depot/dev/client3/rdock/2013.1/src/exe/rbdock.cxx#4 $)

>  <Rbt.Library>
libRbt.so (2013.1, Build901 2013/11/27)

>  <Rbt.Parameter_File>
/export/apps/rDock/src/rDock_2013.1_src/data/scripts/dock_solv.prm

>  <Rbt.Receptor>
prm/pocket_docking_7.prm

>  <SCORE>
-17.1083

>  <SCORE.INTER>
-17.1083

>  <SCORE.INTER.CONST>
1

>  <SCORE.INTER.POLAR>
0

>  <SCORE.INTER.ROT>
0

>  <SCORE.INTER.SOLV>
3.56965

>  <SCORE.INTER.VDW>
-16.1954

>  <SCORE.INTER.norm>
-1.71083

>  <SCORE.INTRA>
0

>  <SCORE.INTRA.DIHEDRAL>
0

>  <SCORE.INTRA.DIHEDRAL.0>
0

>  <SCORE.INTRA.POLAR>
0

>  <SCORE.INTRA.POLAR.0>
0

>  <SCORE.INTRA.REPUL>
0

>  <SCORE.INTRA.REPUL.0>
0

>  <SCORE.INTRA.SOLV>
0

>  <SCORE.INTRA.SOLV.lig_0>
-4.28901

>  <SCORE.INTRA.VDW>
0

>  <SCORE.INTRA.VDW.0>
0

>  <SCORE.INTRA.norm>
0

>  <SCORE.RESTR>
0

>  <SCORE.RESTR.CAVITY>
0

>  <SCORE.RESTR.norm>
0

>  <SCORE.SYSTEM>
0

>  <SCORE.SYSTEM.CONST>
0

>  <SCORE.SYSTEM.DIHEDRAL>
0

>  <SCORE.SYSTEM.SOLV>
0

>  <SCORE.SYSTEM.norm>
0

>  <SCORE.heavy>
10

>  <SCORE.norm>
-1.71083

>  <RMSD>
1.001

$$$$
ligand
 OpenBabel11021811423D
libRbt.so/2013.1/901 2013/11/27
 10 11  0  0  0  0  0  0  0  0999 V2000
   11.6188   11.6518    8.6600 N   0  0  0  0  0  0  0  0  0  0  0  0
   11.4067   13.0116    8.5258 C   0  0  0  0  0  0  0  0  0  0  0  0
   11.1371   13.5781    7.3417 N   0  0  0  0  0  0  0  0  0  0  0  0
   11.1001   12.6882    6.3162 C   0  0  0  0  0  0  0  0  0  0  0  0
   11.3032   11.3210    6.3780 C   0  0  0  0  0  0  0  0  0  0  0  0
   11.5894   10.7052    7.6309 C   0  0  0  0  0  0  0  0  0  0  0  0
   11.8020    9.5178    7.9149 O   0  0  0  0  0  0  0  0  0  0  0  0
   11.1754   10.8099    5.1158 N   0  0  0  0  0  0  0  0  0  0  0  0
   10.8959   11.8586    4.3021 C   0  0  0  0  0  0  0  0  0  0  0  0
   10.8435   13.0303    5.0123 N   0  0  0  0  0  0  0  0  0  0  0  0
  1  2  1  0  0  0  0
  1  6  1  0  0  0  0
  2  3  2  0  0  0  0
  3  4  1  0  0  0  0
  4  5  2  0  0  0  0
  4 10  1  0  0  0  0
  5  6  1  0  0  0  0
  5  8  1  0  0  0  0
  6  7  2  0  0  0  0
  8  9  1  0  0  0  0
  9 10  2  0  0  0  0
M  END
>  <CHROM.1>
11.29710703,11.77501946,6.74453648,0.35415313,-1.36108056,0.72621163

>  <Name>
ligand

>  <RI>
0

>  <Rbt.Current_Directory>
/home/itssahil/PROJECTS/Mol_Feturizer/New_Systems/rnas/2EEW

>  <Rbt.Executable>
rbdock ($Id: //depot/dev/client3/rdock/2013.1/src/exe/rbdock.cxx#4 $)

>  <Rbt.Library>
libRbt.so (2013.1, Build901 2013/11/27)

>  <Rbt.Parameter_File>
/export/apps/rDock/src/rDock_2013.1_src/data/scripts/dock_solv.prm

>  <Rbt.Receptor>
prm/blind_docking_40.prm

>  <SCORE>
-17.1178

>  <SCORE.INTER>
-17.1178

>  <SCORE.INTER.CONST>
1

>  <SCORE.INTER.POLAR>
0

>  <SCORE.INTER.ROT>
0

>  <SCORE.INTER.SOLV>
3.5561

>  <SCORE.INTER.VDW>
-16.1972

>  <SCORE.INTER.norm>
-1.71178

>  <SCORE.INTRA>
0

>  <SCORE.INTRA.DIHEDRAL>
0

>  <SCORE.INTRA.DIHEDRAL.0>
0

>  <SCORE.INTRA.POLAR>
0

>  <SCORE.INTRA.POLAR.0>
0

>  <SCORE.INTRA.REPUL>
0

>  <SCORE.INTRA.REPUL.0>
0

>  <SCORE.INTRA.SOLV>
0

>  <SCORE.INTRA.SOLV.lig_0>
-4.28901

>  <SCORE.INTRA.VDW>
0

>  <SCORE.INTRA.VDW.0>
0

>  <SCORE.INTRA.norm>
0

>  <SCORE.RESTR>
0

>  <SCORE.RESTR.CAVITY>
0

>  <SCORE.RESTR.norm>
0

>  <SCORE.SYSTEM>
0

>  <SCORE.SYSTEM.CONST>
0

>  <SCORE.SYSTEM.DIHEDRAL>
0

>  <SCORE.SYSTEM.SOLV>
0

>  <SCORE.SYSTEM.norm>
0

>  <SCORE.heavy>
10

>  <SCORE.norm>
-1.71178

>  <RMSD>
1.002

$$$$
ligand
 OpenBabel11021811423D
libRbt.so/2013.1/901 2013/11/27
 10 11  0  0  0  0  0  0  0  0999 V2000
   11.6088   11.6477    8.6620 N   0  0  0  0  0  0  0  0  0  0  0  0
   11.3963   13.0075    8.5293 C   0  0  0  0  0  0  0  0  0  0  0  0
   11.1314   13.5760    7.3451 N   0  0  0  0  0  0  0  0  0  0  0  0
   11.0995   12.6879    6.3178 C   0  0  0  0  0  0  0  0  0  0  0  0
   11.3034   11.3208    6.3780 C   0  0  0  0  0  0  0  0  0  0  0  0
   11.5847   10.7030    7.6310 C   0  0  0  0  0  0  0  0  0  0  0  0
   11.7970    9.5151    7.9139 O   0  0  0  0  0  0  0  0  0  0  0  0
   11.1816   10.8118    5.1144 N   0  0  0  0  0  0  0  0  0  0  0  0
   10.9048   11.8618    4.3014 C   0  0  0  0  0  0  0  0  0  0  0  0
   10.8484   13.0322    5.0134 N   0  0  0  0  0  0  0  0  0  0  0  0
  1  2  1  0  0  0  0
  1  6  1  0  0  0  0
  2  3  2  0  0  0  0
  3  4  1  0  0  0  0
  4  5  2  0  0  0  0
  4 10  1  0  0  0  0
  5  6  1  0  0  0  0
  5  8  1  0  0  0  0
  6  7  2  0  0  0  0
  8  9  1  0  0  0  0
  9 10  2  0  0  0  0
M  END
>  <CHROM.1>
11.29542204,11.77410991,6.74536202,0.37112670,-1.36378861,0.74462378

>  <Name>
ligand

>  <RI>
0

>  <Rbt.Current_Directory>
/home/itssahil/PROJECTS/Mol_Feturizer/New_Systems/rnas/2EEW

>  <Rbt.Executable>
rbdock ($Id: //depot/dev/client3/rdock/2013.1/src/exe/rbdock.cxx#4 $)

>  <Rbt.Library>
libRbt.so (2013.1, Build901 2013/11/27)

>  <Rbt.Parameter_File>
/export/apps/rDock/src/rDock_2013.1_src/data/scripts/dock_solv.prm

>  <Rbt.Receptor>
prm/pocket_docking_4.prm

>  <SCORE>
-17.116

>  <SCORE.INTER>
-17.116

>  <SCORE.INTER.CONST>
1

>  <SCORE.INTER.POLAR>
0

>  <SCORE.INTER.ROT>
0

>  <SCORE.INTER.SOLV>
3.56135

>  <SCORE.INTER.VDW>
-16.1978

>  <SCORE.INTER.norm>
-1.7116

>  <SCORE.INTRA>
0

>  <SCORE.INTRA.DIHEDRAL>
0

>  <SCORE.INTRA.DIHEDRAL.0>
0

>  <SCORE.INTRA.POLAR>
0

>  <SCORE.INTRA.POLAR.0>
0

>  <SCORE.INTRA.REPUL>
0

>  <SCORE.INTRA.REPUL.0>
0

>  <SCORE.INTRA.SOLV>
0

>  <SCORE.INTRA.SOLV.lig_0>
-4.28901

>  <SCORE.INTRA.VDW>
0

>  <SCORE.INTRA.VDW.0>
0

>  <SCORE.INTRA.norm>
0

>  <SCORE.RESTR>
0

>  <SCORE.RESTR.CAVITY>
0

>  <SCORE.RESTR.norm>
0

>  <SCORE.SYSTEM>
0

>  <SCORE.SYSTEM.CONST>
0

>  <SCORE.SYSTEM.DIHEDRAL>
0

>  <SCORE.SYSTEM.SOLV>
0

>  <SCORE.SYSTEM.norm>
0

>  <SCORE.heavy>
10

>  <SCORE.norm>
-1.7116

>  <RMSD>
1.002

$$$$
ligand
 OpenBabel11021811423D
libRbt.so/2013.1/901 2013/11/27
 10 11  0  0  0  0  0  0  0  0999 V2000
   11.6241   11.6499    8.6610 N   0  0  0  0  0  0  0  0  0  0  0  0
   11.4087   13.0077    8.5135 C   0  0  0  0  0  0  0  0  0  0  0  0
   11.1377   13.5620    7.3240 N   0  0  0  0  0  0  0  0  0  0  0  0
   11.1029   12.6619    6.3072 C   0  0  0  0  0  0  0  0  0  0  0  0
   11.3093   11.2959    6.3824 C   0  0  0  0  0  0  0  0  0  0  0  0
   11.5971   10.6932    7.6413 C   0  0  0  0  0  0  0  0  0  0  0  0
   11.8126    9.5091    7.9370 O   0  0  0  0  0  0  0  0  0  0  0  0
   11.1828   10.7721    5.1253 N   0  0  0  0  0  0  0  0  0  0  0  0
   10.9007   11.8121    4.3014 C   0  0  0  0  0  0  0  0  0  0  0  0
   10.8454   12.9906    5.0000 N   0  0  0  0  0  0  0  0  0  0  0  0
  1  2  1  0  0  0  0
  1  6  1  0  0  0  0
  2  3  2  0  0  0  0
  3  4  1  0  0  0  0
  4  5  2  0  0  0  0
  4 10  1  0  0  0  0
  5  6  1  0  0  0  0
  5  8  1  0  0  0  0
  6  7  2  0  0  0  0
  8  9  1  0  0  0  0
  9 10  2  0  0  0  0
M  END
>  <CHROM.1>
11.30214405,11.75350666,6.74449742,0.36294968,-1.35942478,0.72499395

>  <Name>
ligand

>  <RI>
0

>  <Rbt.Current_Directory>
/home/itssahil/PROJECTS/Mol_Feturizer/New_Systems/rnas/2EEW

>  <Rbt.Executable>
rbdock ($Id: //depot/dev/client3/rdock/2013.1/src/exe/rbdock.cxx#4 $)

>  <Rbt.Library>
libRbt.so (2013.1, Build901 2013/11/27)

>  <Rbt.Parameter_File>
/export/apps/rDock/src/rDock_2013.1_src/data/scripts/dock_solv.prm

>  <Rbt.Receptor>
prm/pocket_docking_3.prm

>  <SCORE>
-17.0265

>  <SCORE.INTER>
-17.0265

>  <SCORE.INTER.CONST>
1

>  <SCORE.INTER.POLAR>
0

>  <SCORE.INTER.ROT>
0

>  <SCORE.INTER.SOLV>
3.56293

>  <SCORE.INTER.VDW>
-16.1387

>  <SCORE.INTER.norm>
-1.70265

>  <SCORE.INTRA>
0

>  <SCORE.INTRA.DIHEDRAL>
0

>  <SCORE.INTRA.DIHEDRAL.0>
0

>  <SCORE.INTRA.POLAR>
0

>  <SCORE.INTRA.POLAR.0>
0

>  <SCORE.INTRA.REPUL>
0

>  <SCORE.INTRA.REPUL.0>
0

>  <SCORE.INTRA.SOLV>
0

>  <SCORE.INTRA.SOLV.lig_0>
-4.28901

>  <SCORE.INTRA.VDW>
0

>  <SCORE.INTRA.VDW.0>
0

>  <SCORE.INTRA.norm>
0

>  <SCORE.RESTR>
0

>  <SCORE.RESTR.CAVITY>
0

>  <SCORE.RESTR.norm>
0

>  <SCORE.SYSTEM>
0

>  <SCORE.SYSTEM.CONST>
0

>  <SCORE.SYSTEM.DIHEDRAL>
0

>  <SCORE.SYSTEM.SOLV>
0

>  <SCORE.SYSTEM.norm>
0

>  <SCORE.heavy>
10

>  <SCORE.norm>
-1.70265

>  <RMSD>
1.003

$$$$
ligand
 OpenBabel11021811423D
libRbt.so/2013.1/901 2013/11/27
 10 11  0  0  0  0  0  0  0  0999 V2000
   11.5829   11.6682    8.6759 N   0  0  0  0  0  0  0  0  0  0  0  0
   11.3700   13.0286    8.5502 C   0  0  0  0  0  0  0  0  0  0  0  0
   11.1064   13.6032    7.3687 N   0  0  0  0  0  0  0  0  0  0  0  0
   11.0760   12.7205    6.3367 C   0  0  0  0  0  0  0  0  0  0  0  0
   11.2803   11.3532    6.3900 C   0  0  0  0  0  0  0  0  0  0  0  0
   11.5603   10.7289    7.6400 C   0  0  0  0  0  0  0  0  0  0  0  0
   11.7727    9.5397    7.9169 O   0  0  0  0  0  0  0  0  0  0  0  0
   11.1602   10.8508    5.1235 N   0  0  0  0  0  0  0  0  0  0  0  0
   10.8840   11.9050    4.3157 C   0  0  0  0  0  0  0  0  0  0  0  0
   10.8263   13.0715    5.0338 N   0  0  0  0  0  0  0  0  0  0  0  0
  1  2  1  0  0  0  0
  1  6  1  0  0  0  0
  2  3  2  0  0  0  0
  3  4  1  0  0  0  0
  4  5  2  0  0  0  0
  4 10  1  0  0  0  0
  5  6  1  0  0  0  0
  5  8  1  0  0  0  0
  6  7  2  0  0  0  0
  8  9  1  0  0  0  0
  9 10  2  0  0  0  0
M  END
>  <CHROM.1>
11.27172915,11.80457343,6.75966164,0.37639388,-1.36441749,0.75503152

>  <Name>
ligand

>  <RI>
0

>  <Rbt.Current_Directory>
/home/itssahil/PROJECTS/Mol_Feturizer/New_Systems/rnas/2EEW

>  <Rbt.Executable>
rbdock ($Id: //depot/dev/client3/rdock/2013.1/src/exe/rbdock.cxx#4 $)

>  <Rbt.Library>
libRbt.so (2013.1, Build901 2013/11/27)

>  <Rbt.Parameter_File>
/export/apps/rDock/src/rDock_2013.1_src/data/scripts/dock_solv.prm

>  <Rbt.Receptor>
prm/pocket_docking_5.prm

>  <SCORE>
-17.1174

>  <SCORE.INTER>
-17.1174

>  <SCORE.INTER.CONST>
1

>  <SCORE.INTER.POLAR>
0

>  <SCORE.INTER.ROT>
0

>  <SCORE.INTER.SOLV>
3.56569

>  <SCORE.INTER.VDW>
-16.2001

>  <SCORE.INTER.norm>
-1.71174

>  <SCORE.INTRA>
0

>  <SCORE.INTRA.DIHEDRAL>
0

>  <SCORE.INTRA.DIHEDRAL.0>
0

>  <SCORE.INTRA.POLAR>
0

>  <SCORE.INTRA.POLAR.0>
0

>  <SCORE.INTRA.REPUL>
0

>  <SCORE.INTRA.REPUL.0>
0

>  <SCORE.INTRA.SOLV>
0

>  <SCORE.INTRA.SOLV.lig_0>
-4.28901

>  <SCORE.INTRA.VDW>
0

>  <SCORE.INTRA.VDW.0>
0

>  <SCORE.INTRA.norm>
0

>  <SCORE.RESTR>
0

>  <SCORE.RESTR.CAVITY>
0

>  <SCORE.RESTR.norm>
0

>  <SCORE.SYSTEM>
0

>  <SCORE.SYSTEM.CONST>
0

>  <SCORE.SYSTEM.DIHEDRAL>
0

>  <SCORE.SYSTEM.SOLV>
0

>  <SCORE.SYSTEM.norm>
0

>  <SCORE.heavy>
10

>  <SCORE.norm>
-1.71174

>  <RMSD>
1.003

$$$$
ligand
 OpenBabel11021811423D
libRbt.so/2013.1/901 2013/11/27
 10 11  0  0  0  0  0  0  0  0999 V2000
   11.5837   11.6693    8.6770 N   0  0  0  0  0  0  0  0  0  0  0  0
   11.3719   13.0297    8.5485 C   0  0  0  0  0  0  0  0  0  0  0  0
   11.1099   13.6023    7.3657 N   0  0  0  0  0  0  0  0  0  0  0  0
   11.0799   12.7176    6.3353 C   0  0  0  0  0  0  0  0  0  0  0  0
   11.2831   11.3503    6.3914 C   0  0  0  0  0  0  0  0  0  0  0  0
   11.5614   10.7281    7.6429 C   0  0  0  0  0  0  0  0  0  0  0  0
   11.7726    9.5392    7.9222 O   0  0  0  0  0  0  0  0  0  0  0  0
   11.1639   10.8456    5.1257 N   0  0  0  0  0  0  0  0  0  0  0  0
   10.8893   11.8984    4.3157 C   0  0  0  0  0  0  0  0  0  0  0  0
   10.8318   13.0664    5.0315 N   0  0  0  0  0  0  0  0  0  0  0  0
  1  2  1  0  0  0  0
  1  6  1  0  0  0  0
  2  3  2  0  0  0  0
  3  4  1  0  0  0  0
  4  5  2  0  0  0  0
  4 10  1  0  0  0  0
  5  6  1  0  0  0  0
  5  8  1  0  0  0  0
  6  7  2  0  0  0  0
  8  9  1  0  0  0  0
  9 10  2  0  0  0  0
M  END
>  <CHROM.1>
11.27449698,11.80234858,6.76020584,0.37695441,-1.36566210,0.75370427

>  <Name>
ligand

>  <RI>
0

>  <Rbt.Current_Directory>
/home/itssahil/PROJECTS/Mol_Feturizer/New_Systems/rnas/2EEW

>  <Rbt.Executable>
rbdock ($Id: //depot/dev/client3/rdock/2013.1/src/exe/rbdock.cxx#4 $)

>  <Rbt.Library>
libRbt.so (2013.1, Build901 2013/11/27)

>  <Rbt.Parameter_File>
/export/apps/rDock/src/rDock_2013.1_src/data/scripts/dock_solv.prm

>  <Rbt.Receptor>
prm/pocket_docking_5.prm

>  <SCORE>
-17.1181

>  <SCORE.INTER>
-17.1181

>  <SCORE.INTER.CONST>
1

>  <SCORE.INTER.POLAR>
0

>  <SCORE.INTER.ROT>
0

>  <SCORE.INTER.SOLV>
3.57106

>  <SCORE.INTER.VDW>
-16.2024

>  <SCORE.INTER.norm>
-1.71181

>  <SCORE.INTRA>
0

>  <SCORE.INTRA.DIHEDRAL>
0

>  <SCORE.INTRA.DIHEDRAL.0>
0

>  <SCORE.INTRA.POLAR>
0

>  <SCORE.INTRA.POLAR.0>
0

>  <SCORE.INTRA.REPUL>
0

>  <SCORE.INTRA.REPUL.0>
0

>  <SCORE.INTRA.SOLV>
0

>  <SCORE.INTRA.SOLV.lig_0>
-4.28901

>  <SCORE.INTRA.VDW>
0

>  <SCORE.INTRA.VDW.0>
0

>  <SCORE.INTRA.norm>
0

>  <SCORE.RESTR>
0

>  <SCORE.RESTR.CAVITY>
0

>  <SCORE.RESTR.norm>
0

>  <SCORE.SYSTEM>
0

>  <SCORE.SYSTEM.CONST>
0

>  <SCORE.SYSTEM.DIHEDRAL>
0

>  <SCORE.SYSTEM.SOLV>
0

>  <SCORE.SYSTEM.norm>
0

>  <SCORE.heavy>
10

>  <SCORE.norm>
-1.71181

>  <RMSD>
1.003

$$$$
ligand
 OpenBabel11021811423D
libRbt.so/2013.1/901 2013/11/27
 10 11  0  0  0  0  0  0  0  0999 V2000
   11.5898   11.6701    8.6796 N   0  0  0  0  0  0  0  0  0  0  0  0
   11.3817   13.0297    8.5379 C   0  0  0  0  0  0  0  0  0  0  0  0
   11.1273   13.5924    7.3487 N   0  0  0  0  0  0  0  0  0  0  0  0
   11.1010   12.6988    6.3260 C   0  0  0  0  0  0  0  0  0  0  0  0
   11.3010   11.3315    6.3952 C   0  0  0  0  0  0  0  0  0  0  0  0
   11.5711   10.7198    7.6536 C   0  0  0  0  0  0  0  0  0  0  0  0
   11.7782    9.5330    7.9444 O   0  0  0  0  0  0  0  0  0  0  0  0
   11.1875   10.8160    5.1334 N   0  0  0  0  0  0  0  0  0  0  0  0
   10.9196   11.8623    4.3126 C   0  0  0  0  0  0  0  0  0  0  0  0
   10.8607   13.0366    5.0179 N   0  0  0  0  0  0  0  0  0  0  0  0
  1  2  1  0  0  0  0
  1  6  1  0  0  0  0
  2  3  2  0  0  0  0
  3  4  1  0  0  0  0
  4  5  2  0  0  0  0
  4 10  1  0  0  0  0
  5  6  1  0  0  0  0
  5  8  1  0  0  0  0
  6  7  2  0  0  0  0
  8  9  1  0  0  0  0
  9 10  2  0  0  0  0
M  END
>  <CHROM.1>
11.29132051,11.78687809,6.75996442,0.38780187,-1.37109755,0.75554628

>  <Name>
ligand

>  <RI>
0

>  <Rbt.Current_Directory>
/home/itssahil/PROJECTS/Mol_Feturizer/New_Systems/rnas/2EEW

>  <Rbt.Executable>
rbdock ($Id: //depot/dev/client3/rdock/2013.1/src/exe/rbdock.cxx#4 $)

>  <Rbt.Library>
libRbt.so (2013.1, Build901 2013/11/27)

>  <Rbt.Parameter_File>
/export/apps/rDock/src/rDock_2013.1_src/data/scripts/dock_solv.prm

>  <Rbt.Receptor>
prm/pocket_docking_5.prm

>  <SCORE>
-17.1328

>  <SCORE.INTER>
-17.1328

>  <SCORE.INTER.CONST>
1

>  <SCORE.INTER.POLAR>
0

>  <SCORE.INTER.ROT>
0

>  <SCORE.INTER.SOLV>
3.59443

>  <SCORE.INTER.VDW>
-16.22

>  <SCORE.INTER.norm>
-1.71328

>  <SCORE.INTRA>
0

>  <SCORE.INTRA.DIHEDRAL>
0

>  <SCORE.INTRA.DIHEDRAL.0>
0

>  <SCORE.INTRA.POLAR>
0

>  <SCORE.INTRA.POLAR.0>
0

>  <SCORE.INTRA.REPUL>
0

>  <SCORE.INTRA.REPUL.0>
0

>  <SCORE.INTRA.SOLV>
0

>  <SCORE.INTRA.SOLV.lig_0>
-4.28901

>  <SCORE.INTRA.VDW>
0

>  <SCORE.INTRA.VDW.0>
0

>  <SCORE.INTRA.norm>
0

>  <SCORE.RESTR>
0

>  <SCORE.RESTR.CAVITY>
0

>  <SCORE.RESTR.norm>
0

>  <SCORE.SYSTEM>
0

>  <SCORE.SYSTEM.CONST>
0

>  <SCORE.SYSTEM.DIHEDRAL>
0

>  <SCORE.SYSTEM.SOLV>
0

>  <SCORE.SYSTEM.norm>
0

>  <SCORE.heavy>
10

>  <SCORE.norm>
-1.71328

>  <RMSD>
1.003

$$$$
ligand
 OpenBabel11021811423D
libRbt.so/2013.1/901 2013/11/27
 10 11  0  0  0  0  0  0  0  0999 V2000
   11.6435   11.6285    8.6302 N   0  0  0  0  0  0  0  0  0  0  0  0
   11.4207   12.9892    8.5272 C   0  0  0  0  0  0  0  0  0  0  0  0
   11.1412   13.5798    7.3573 N   0  0  0  0  0  0  0  0  0  0  0  0
   11.1059   12.7126    6.3124 C   0  0  0  0  0  0  0  0  0  0  0  0
   11.3195   11.3460    6.3429 C   0  0  0  0  0  0  0  0  0  0  0  0
   11.6163   10.7048    7.5804 C   0  0  0  0  0  0  0  0  0  0  0  0
   11.8392    9.5129    7.8371 O   0  0  0  0  0  0  0  0  0  0  0  0
   11.1896   10.8620    5.0702 N   0  0  0  0  0  0  0  0  0  0  0  0
   10.8984   11.9264    4.2814 C   0  0  0  0  0  0  0  0  0  0  0  0
   10.8406   13.0816    5.0176 N   0  0  0  0  0  0  0  0  0  0  0  0
  1  2  1  0  0  0  0
  1  6  1  0  0  0  0
  2  3  2  0  0  0  0
  3  4  1  0  0  0  0
  4  5  2  0  0  0  0
  4 10  1  0  0  0  0
  5  6  1  0  0  0  0
  5  8  1  0  0  0  0
  6  7  2  0  0  0  0
  8  9  1  0  0  0  0
  9 10  2  0  0  0  0
M  END
>  <CHROM.1>
11.31183490,11.79169168,6.71944220,0.36534401,-1.35253468,0.75934399

>  <Name>
ligand

>  <RI>
0

>  <Rbt.Current_Directory>
/home/itssahil/PROJECTS/Mol_Feturizer/New_Systems/rnas/2EEW

>  <Rbt.Executable>
rbdock ($Id: //depot/dev/client3/rdock/2013.1/src/exe/rbdock.cxx#4 $)

>  <Rbt.Library>
libRbt.so (2013.1, Build901 2013/11/27)

>  <Rbt.Parameter_File>
/export/apps/rDock/src/rDock_2013.1_src/data/scripts/dock_solv.prm

>  <Rbt.Receptor>
prm/pocket_docking_6.prm

>  <SCORE>
-17.0503

>  <SCORE.INTER>
-17.0503

>  <SCORE.INTER.CONST>
1

>  <SCORE.INTER.POLAR>
0

>  <SCORE.INTER.ROT>
0

>  <SCORE.INTER.SOLV>
3.47916

>  <SCORE.INTER.VDW>
-16.1266

>  <SCORE.INTER.norm>
-1.70503

>  <SCORE.INTRA>
0

>  <SCORE.INTRA.DIHEDRAL>
0

>  <SCORE.INTRA.DIHEDRAL.0>
0

>  <SCORE.INTRA.POLAR>
0

>  <SCORE.INTRA.POLAR.0>
0

>  <SCORE.INTRA.REPUL>
0

>  <SCORE.INTRA.REPUL.0>
0

>  <SCORE.INTRA.SOLV>
0

>  <SCORE.INTRA.SOLV.lig_0>
-4.28901

>  <SCORE.INTRA.VDW>
0

>  <SCORE.INTRA.VDW.0>
0

>  <SCORE.INTRA.norm>
0

>  <SCORE.RESTR>
0

>  <SCORE.RESTR.CAVITY>
0

>  <SCORE.RESTR.norm>
0

>  <SCORE.SYSTEM>
0

>  <SCORE.SYSTEM.CONST>
0

>  <SCORE.SYSTEM.DIHEDRAL>
0

>  <SCORE.SYSTEM.SOLV>
0

>  <SCORE.SYSTEM.norm>
0

>  <SCORE.heavy>
10

>  <SCORE.norm>
-1.70503

>  <RMSD>
1.003

$$$$
ligand
 OpenBabel11021811423D
libRbt.so/2013.1/901 2013/11/27
 10 11  0  0  0  0  0  0  0  0999 V2000
   11.6013   11.6498    8.6639 N   0  0  0  0  0  0  0  0  0  0  0  0
   11.3901   13.0098    8.5305 C   0  0  0  0  0  0  0  0  0  0  0  0
   11.1285   13.5782    7.3456 N   0  0  0  0  0  0  0  0  0  0  0  0
   11.0984   12.6900    6.3184 C   0  0  0  0  0  0  0  0  0  0  0  0
   11.3011   11.3227    6.3793 C   0  0  0  0  0  0  0  0  0  0  0  0
   11.5789   10.7049    7.6331 C   0  0  0  0  0  0  0  0  0  0  0  0
   11.7896    9.5170    7.9167 O   0  0  0  0  0  0  0  0  0  0  0  0
   11.1819   10.8136    5.1155 N   0  0  0  0  0  0  0  0  0  0  0  0
   10.9079   11.8637    4.3017 C   0  0  0  0  0  0  0  0  0  0  0  0
   10.8506   13.0342    5.0133 N   0  0  0  0  0  0  0  0  0  0  0  0
  1  2  1  0  0  0  0
  1  6  1  0  0  0  0
  2  3  2  0  0  0  0
  3  4  1  0  0  0  0
  4  5  2  0  0  0  0
  4 10  1  0  0  0  0
  5  6  1  0  0  0  0
  5  8  1  0  0  0  0
  6  7  2  0  0  0  0
  8  9  1  0  0  0  0
  9 10  2  0  0  0  0
M  END
>  <CHROM.1>
11.29255381,11.77611785,6.74656366,0.37627097,-1.36606885,0.74948527

>  <Name>
ligand

>  <RI>
0

>  <Rbt.Current_Directory>
/home/itssahil/PROJECTS/Mol_Feturizer/New_Systems/rnas/2EEW

>  <Rbt.Executable>
rbdock ($Id: //depot/dev/client3/rdock/2013.1/src/exe/rbdock.cxx#4 $)

>  <Rbt.Library>
libRbt.so (2013.1, Build901 2013/11/27)

>  <Rbt.Parameter_File>
/export/apps/rDock/src/rDock_2013.1_src/data/scripts/dock_solv.prm

>  <Rbt.Receptor>
prm/pocket_docking_8.prm

>  <SCORE>
-17.114

>  <SCORE.INTER>
-17.114

>  <SCORE.INTER.CONST>
1

>  <SCORE.INTER.POLAR>
0

>  <SCORE.INTER.ROT>
0

>  <SCORE.INTER.SOLV>
3.56916

>  <SCORE.INTER.VDW>
-16.1991

>  <SCORE.INTER.norm>
-1.7114

>  <SCORE.INTRA>
0

>  <SCORE.INTRA.DIHEDRAL>
0

>  <SCORE.INTRA.DIHEDRAL.0>
0

>  <SCORE.INTRA.POLAR>
0

>  <SCORE.INTRA.POLAR.0>
0

>  <SCORE.INTRA.REPUL>
0

>  <SCORE.INTRA.REPUL.0>
0

>  <SCORE.INTRA.SOLV>
0

>  <SCORE.INTRA.SOLV.lig_0>
-4.28901

>  <SCORE.INTRA.VDW>
0

>  <SCORE.INTRA.VDW.0>
0

>  <SCORE.INTRA.norm>
0

>  <SCORE.RESTR>
0

>  <SCORE.RESTR.CAVITY>
0

>  <SCORE.RESTR.norm>
0

>  <SCORE.SYSTEM>
0

>  <SCORE.SYSTEM.CONST>
0

>  <SCORE.SYSTEM.DIHEDRAL>
0

>  <SCORE.SYSTEM.SOLV>
0

>  <SCORE.SYSTEM.norm>
0

>  <SCORE.heavy>
10

>  <SCORE.norm>
-1.7114

>  <RMSD>
1.003

$$$$
ligand
 OpenBabel11021811423D
libRbt.so/2013.1/901 2013/11/27
 10 11  0  0  0  0  0  0  0  0999 V2000
   11.6259   11.6482    8.6435 N   0  0  0  0  0  0  0  0  0  0  0  0
   11.4088   13.0100    8.5424 C   0  0  0  0  0  0  0  0  0  0  0  0
   11.1377   13.6044    7.3724 N   0  0  0  0  0  0  0  0  0  0  0  0
   11.1046   12.7396    6.3254 C   0  0  0  0  0  0  0  0  0  0  0  0
   11.3128   11.3721    6.3539 C   0  0  0  0  0  0  0  0  0  0  0  0
   11.6007   10.7270    7.5915 C   0  0  0  0  0  0  0  0  0  0  0  0
   11.8176    9.5337    7.8466 O   0  0  0  0  0  0  0  0  0  0  0  0
   11.1877   10.8915    5.0795 N   0  0  0  0  0  0  0  0  0  0  0  0
   10.9047   11.9588    4.2916 C   0  0  0  0  0  0  0  0  0  0  0  0
   10.8475   13.1126    5.0301 N   0  0  0  0  0  0  0  0  0  0  0  0
  1  2  1  0  0  0  0
  1  6  1  0  0  0  0
  2  3  2  0  0  0  0
  3  4  1  0  0  0  0
  4  5  2  0  0  0  0
  4 10  1  0  0  0  0
  5  6  1  0  0  0  0
  5  8  1  0  0  0  0
  6  7  2  0  0  0  0
  8  9  1  0  0  0  0
  9 10  2  0  0  0  0
M  END
>  <CHROM.1>
11.30485183,11.81702086,6.73143312,0.36934055,-1.35896944,0.76551635

>  <Name>
ligand

>  <RI>
0

>  <Rbt.Current_Directory>
/home/itssahil/PROJECTS/Mol_Feturizer/New_Systems/rnas/2EEW

>  <Rbt.Executable>
rbdock ($Id: //depot/dev/client3/rdock/2013.1/src/exe/rbdock.cxx#4 $)

>  <Rbt.Library>
libRbt.so (2013.1, Build901 2013/11/27)

>  <Rbt.Parameter_File>
/export/apps/rDock/src/rDock_2013.1_src/data/scripts/dock_solv.prm

>  <Rbt.Receptor>
prm/pocket_docking_5.prm

>  <SCORE>
-17.0857

>  <SCORE.INTER>
-17.0857

>  <SCORE.INTER.CONST>
1

>  <SCORE.INTER.POLAR>
0

>  <SCORE.INTER.ROT>
0

>  <SCORE.INTER.SOLV>
3.50314

>  <SCORE.INTER.VDW>
-16.1582

>  <SCORE.INTER.norm>
-1.70857

>  <SCORE.INTRA>
0

>  <SCORE.INTRA.DIHEDRAL>
0

>  <SCORE.INTRA.DIHEDRAL.0>
0

>  <SCORE.INTRA.POLAR>
0

>  <SCORE.INTRA.POLAR.0>
0

>  <SCORE.INTRA.REPUL>
0

>  <SCORE.INTRA.REPUL.0>
0

>  <SCORE.INTRA.SOLV>
0

>  <SCORE.INTRA.SOLV.lig_0>
-4.28901

>  <SCORE.INTRA.VDW>
0

>  <SCORE.INTRA.VDW.0>
0

>  <SCORE.INTRA.norm>
0

>  <SCORE.RESTR>
0

>  <SCORE.RESTR.CAVITY>
0

>  <SCORE.RESTR.norm>
0

>  <SCORE.SYSTEM>
0

>  <SCORE.SYSTEM.CONST>
0

>  <SCORE.SYSTEM.DIHEDRAL>
0

>  <SCORE.SYSTEM.SOLV>
0

>  <SCORE.SYSTEM.norm>
0

>  <SCORE.heavy>
10

>  <SCORE.norm>
-1.70857

>  <RMSD>
1.004

$$$$
ligand
 OpenBabel11021811423D
libRbt.so/2013.1/901 2013/11/27
 10 11  0  0  0  0  0  0  0  0999 V2000
   11.5995   11.6776    8.6738 N   0  0  0  0  0  0  0  0  0  0  0  0
   11.3870   13.0380    8.5466 C   0  0  0  0  0  0  0  0  0  0  0  0
   11.1166   13.6105    7.3656 N   0  0  0  0  0  0  0  0  0  0  0  0
   11.0791   12.7258    6.3356 C   0  0  0  0  0  0  0  0  0  0  0  0
   11.2826   11.3584    6.3903 C   0  0  0  0  0  0  0  0  0  0  0  0
   11.5698   10.7363    7.6399 C   0  0  0  0  0  0  0  0  0  0  0  0
   11.7829    9.5475    7.9177 O   0  0  0  0  0  0  0  0  0  0  0  0
   11.1542   10.8537    5.1256 N   0  0  0  0  0  0  0  0  0  0  0  0
   10.8740   11.9065    4.3175 C   0  0  0  0  0  0  0  0  0  0  0  0
   10.8217   13.0745    5.0336 N   0  0  0  0  0  0  0  0  0  0  0  0
  1  2  1  0  0  0  0
  1  6  1  0  0  0  0
  2  3  2  0  0  0  0
  3  4  1  0  0  0  0
  4  5  2  0  0  0  0
  4 10  1  0  0  0  0
  5  6  1  0  0  0  0
  5  8  1  0  0  0  0
  6  7  2  0  0  0  0
  8  9  1  0  0  0  0
  9 10  2  0  0  0  0
M  END
>  <CHROM.1>
11.27665930,11.81052503,6.75917387,0.35312457,-1.36045745,0.73030185

>  <Name>
ligand

>  <RI>
0

>  <Rbt.Current_Directory>
/home/itssahil/PROJECTS/Mol_Feturizer/New_Systems/rnas/2EEW

>  <Rbt.Executable>
rbdock ($Id: //depot/dev/client3/rdock/2013.1/src/exe/rbdock.cxx#4 $)

>  <Rbt.Library>
libRbt.so (2013.1, Build901 2013/11/27)

>  <Rbt.Parameter_File>
/export/apps/rDock/src/rDock_2013.1_src/data/scripts/dock_solv.prm

>  <Rbt.Receptor>
prm/pocket_docking_7.prm

>  <SCORE>
-17.1212

>  <SCORE.INTER>
-17.1212

>  <SCORE.INTER.CONST>
1

>  <SCORE.INTER.POLAR>
0

>  <SCORE.INTER.ROT>
0

>  <SCORE.INTER.SOLV>
3.55399

>  <SCORE.INTER.VDW>
-16.1988

>  <SCORE.INTER.norm>
-1.71212

>  <SCORE.INTRA>
0

>  <SCORE.INTRA.DIHEDRAL>
0

>  <SCORE.INTRA.DIHEDRAL.0>
0

>  <SCORE.INTRA.POLAR>
0

>  <SCORE.INTRA.POLAR.0>
0

>  <SCORE.INTRA.REPUL>
0

>  <SCORE.INTRA.REPUL.0>
0

>  <SCORE.INTRA.SOLV>
0

>  <SCORE.INTRA.SOLV.lig_0>
-4.28901

>  <SCORE.INTRA.VDW>
0

>  <SCORE.INTRA.VDW.0>
0

>  <SCORE.INTRA.norm>
0

>  <SCORE.RESTR>
0

>  <SCORE.RESTR.CAVITY>
0

>  <SCORE.RESTR.norm>
0

>  <SCORE.SYSTEM>
0

>  <SCORE.SYSTEM.CONST>
0

>  <SCORE.SYSTEM.DIHEDRAL>
0

>  <SCORE.SYSTEM.SOLV>
0

>  <SCORE.SYSTEM.norm>
0

>  <SCORE.heavy>
10

>  <SCORE.norm>
-1.71212

>  <RMSD>
1.004

$$$$
ligand
 OpenBabel11021811423D
libRbt.so/2013.1/901 2013/11/27
 10 11  0  0  0  0  0  0  0  0999 V2000
   11.6042   11.6525    8.6637 N   0  0  0  0  0  0  0  0  0  0  0  0
   11.3963   13.0128    8.5290 C   0  0  0  0  0  0  0  0  0  0  0  0
   11.1339   13.5805    7.3438 N   0  0  0  0  0  0  0  0  0  0  0  0
   11.0997   12.6910    6.3178 C   0  0  0  0  0  0  0  0  0  0  0  0
   11.2991   11.3233    6.3800 C   0  0  0  0  0  0  0  0  0  0  0  0
   11.5776   10.7064    7.6340 C   0  0  0  0  0  0  0  0  0  0  0  0
   11.7858    9.5183    7.9187 O   0  0  0  0  0  0  0  0  0  0  0  0
   11.1762   10.8130    5.1170 N   0  0  0  0  0  0  0  0  0  0  0  0
   10.9034   11.8628    4.3024 C   0  0  0  0  0  0  0  0  0  0  0  0
   10.8504   13.0343    5.0127 N   0  0  0  0  0  0  0  0  0  0  0  0
  1  2  1  0  0  0  0
  1  6  1  0  0  0  0
  2  3  2  0  0  0  0
  3  4  1  0  0  0  0
  4  5  2  0  0  0  0
  4 10  1  0  0  0  0
  5  6  1  0  0  0  0
  5  8  1  0  0  0  0
  6  7  2  0  0  0  0
  8  9  1  0  0  0  0
  9 10  2  0  0  0  0
M  END
>  <CHROM.1>
11.29233093,11.77721215,6.74670995,0.36102641,-1.36641910,0.73333368

>  <Name>
ligand

>  <RI>
0

>  <Rbt.Current_Directory>
/home/itssahil/PROJECTS/Mol_Feturizer/New_Systems/rnas/2EEW

>  <Rbt.Executable>
rbdock ($Id: //depot/dev/client3/rdock/2013.1/src/exe/rbdock.cxx#4 $)

>  <Rbt.Library>
libRbt.so (2013.1, Build901 2013/11/27)

>  <Rbt.Parameter_File>
/export/apps/rDock/src/rDock_2013.1_src/data/scripts/dock_solv.prm

>  <Rbt.Receptor>
prm/pocket_docking_7.prm

>  <SCORE>
-17.1176

>  <SCORE.INTER>
-17.1176

>  <SCORE.INTER.CONST>
1

>  <SCORE.INTER.POLAR>
0

>  <SCORE.INTER.ROT>
0

>  <SCORE.INTER.SOLV>
3.57417

>  <SCORE.INTER.VDW>
-16.2031

>  <SCORE.INTER.norm>
-1.71176

>  <SCORE.INTRA>
0

>  <SCORE.INTRA.DIHEDRAL>
0

>  <SCORE.INTRA.DIHEDRAL.0>
0

>  <SCORE.INTRA.POLAR>
0

>  <SCORE.INTRA.POLAR.0>
0

>  <SCORE.INTRA.REPUL>
0

>  <SCORE.INTRA.REPUL.0>
0

>  <SCORE.INTRA.SOLV>
0

>  <SCORE.INTRA.SOLV.lig_0>
-4.28901

>  <SCORE.INTRA.VDW>
0

>  <SCORE.INTRA.VDW.0>
0

>  <SCORE.INTRA.norm>
0

>  <SCORE.RESTR>
0

>  <SCORE.RESTR.CAVITY>
0

>  <SCORE.RESTR.norm>
0

>  <SCORE.SYSTEM>
0

>  <SCORE.SYSTEM.CONST>
0

>  <SCORE.SYSTEM.DIHEDRAL>
0

>  <SCORE.SYSTEM.SOLV>
0

>  <SCORE.SYSTEM.norm>
0

>  <SCORE.heavy>
10

>  <SCORE.norm>
-1.71176

>  <RMSD>
1.004

$$$$
ligand
 OpenBabel11021811423D
libRbt.so/2013.1/901 2013/11/27
 10 11  0  0  0  0  0  0  0  0999 V2000
   11.5947   11.6757    8.6724 N   0  0  0  0  0  0  0  0  0  0  0  0
   11.3795   13.0359    8.5490 C   0  0  0  0  0  0  0  0  0  0  0  0
   11.1113   13.6116    7.3690 N   0  0  0  0  0  0  0  0  0  0  0  0
   11.0789   12.7301    6.3361 C   0  0  0  0  0  0  0  0  0  0  0  0
   11.2853   11.3630    6.3870 C   0  0  0  0  0  0  0  0  0  0  0  0
   11.5701   10.7376    7.6355 C   0  0  0  0  0  0  0  0  0  0  0  0
   11.7851    9.5483    7.9102 O   0  0  0  0  0  0  0  0  0  0  0  0
   11.1618   10.8619    5.1204 N   0  0  0  0  0  0  0  0  0  0  0  0
   10.8816   11.9167    4.3148 C   0  0  0  0  0  0  0  0  0  0  0  0
   10.8246   13.0823    5.0344 N   0  0  0  0  0  0  0  0  0  0  0  0
  1  2  1  0  0  0  0
  1  6  1  0  0  0  0
  2  3  2  0  0  0  0
  3  4  1  0  0  0  0
  4  5  2  0  0  0  0
  4 10  1  0  0  0  0
  5  6  1  0  0  0  0
  5  8  1  0  0  0  0
  6  7  2  0  0  0  0
  8  9  1  0  0  0  0
  9 10  2  0  0  0  0
M  END
>  <CHROM.1>
11.27724045,11.81388931,6.75731296,0.37070944,-1.36115162,0.75066945

>  <Name>
ligand

>  <RI>
0

>  <Rbt.Current_Directory>
/home/itssahil/PROJECTS/Mol_Feturizer/New_Systems/rnas/2EEW

>  <Rbt.Executable>
rbdock ($Id: //depot/dev/client3/rdock/2013.1/src/exe/rbdock.cxx#4 $)

>  <Rbt.Library>
libRbt.so (2013.1, Build901 2013/11/27)

>  <Rbt.Parameter_File>
/export/apps/rDock/src/rDock_2013.1_src/data/scripts/dock_solv.prm

>  <Rbt.Receptor>
prm/pocket_docking_8.prm

>  <SCORE>
-17.1219

>  <SCORE.INTER>
-17.1219

>  <SCORE.INTER.CONST>
1

>  <SCORE.INTER.POLAR>
0

>  <SCORE.INTER.ROT>
0

>  <SCORE.INTER.SOLV>
3.54825

>  <SCORE.INTER.VDW>
-16.1974

>  <SCORE.INTER.norm>
-1.71219

>  <SCORE.INTRA>
0

>  <SCORE.INTRA.DIHEDRAL>
0

>  <SCORE.INTRA.DIHEDRAL.0>
0

>  <SCORE.INTRA.POLAR>
0

>  <SCORE.INTRA.POLAR.0>
0

>  <SCORE.INTRA.REPUL>
0

>  <SCORE.INTRA.REPUL.0>
0

>  <SCORE.INTRA.SOLV>
0

>  <SCORE.INTRA.SOLV.lig_0>
-4.28901

>  <SCORE.INTRA.VDW>
0

>  <SCORE.INTRA.VDW.0>
0

>  <SCORE.INTRA.norm>
0

>  <SCORE.RESTR>
0

>  <SCORE.RESTR.CAVITY>
0

>  <SCORE.RESTR.norm>
0

>  <SCORE.SYSTEM>
0

>  <SCORE.SYSTEM.CONST>
0

>  <SCORE.SYSTEM.DIHEDRAL>
0

>  <SCORE.SYSTEM.SOLV>
0

>  <SCORE.SYSTEM.norm>
0

>  <SCORE.heavy>
10

>  <SCORE.norm>
-1.71219

>  <RMSD>
1.004

$$$$
ligand
 OpenBabel11021811423D
libRbt.so/2013.1/901 2013/11/27
 10 11  0  0  0  0  0  0  0  0999 V2000
   11.6443   11.6392    8.6319 N   0  0  0  0  0  0  0  0  0  0  0  0
   11.4005   12.9958    8.5223 C   0  0  0  0  0  0  0  0  0  0  0  0
   11.1047   13.5751    7.3507 N   0  0  0  0  0  0  0  0  0  0  0  0
   11.0757   12.7012    6.3113 C   0  0  0  0  0  0  0  0  0  0  0  0
   11.3099   11.3381    6.3485 C   0  0  0  0  0  0  0  0  0  0  0  0
   11.6242   10.7089    7.5879 C   0  0  0  0  0  0  0  0  0  0  0  0
   11.8665    9.5220    7.8501 O   0  0  0  0  0  0  0  0  0  0  0  0
   11.1791   10.8446    5.0796 N   0  0  0  0  0  0  0  0  0  0  0  0
   10.8670   11.8997    4.2864 C   0  0  0  0  0  0  0  0  0  0  0  0
   10.7966   13.0583    5.0161 N   0  0  0  0  0  0  0  0  0  0  0  0
  1  2  1  0  0  0  0
  1  6  1  0  0  0  0
  2  3  2  0  0  0  0
  3  4  1  0  0  0  0
  4  5  2  0  0  0  0
  4 10  1  0  0  0  0
  5  6  1  0  0  0  0
  5  8  1  0  0  0  0
  6  7  2  0  0  0  0
  8  9  1  0  0  0  0
  9 10  2  0  0  0  0
M  END
>  <CHROM.1>
11.29798089,11.78589760,6.72243207,0.39319447,-1.33749914,0.78050706

>  <Name>
ligand

>  <RI>
0

>  <Rbt.Current_Directory>
/home/itssahil/PROJECTS/Mol_Feturizer/New_Systems/rnas/2EEW

>  <Rbt.Executable>
rbdock ($Id: //depot/dev/client3/rdock/2013.1/src/exe/rbdock.cxx#4 $)

>  <Rbt.Library>
libRbt.so (2013.1, Build901 2013/11/27)

>  <Rbt.Parameter_File>
/export/apps/rDock/src/rDock_2013.1_src/data/scripts/dock_solv.prm

>  <Rbt.Receptor>
prm/blind_docking_40.prm

>  <SCORE>
-17.0556

>  <SCORE.INTER>
-17.0556

>  <SCORE.INTER.CONST>
1

>  <SCORE.INTER.POLAR>
0

>  <SCORE.INTER.ROT>
0

>  <SCORE.INTER.SOLV>
3.43729

>  <SCORE.INTER.VDW>
-16.1162

>  <SCORE.INTER.norm>
-1.70556

>  <SCORE.INTRA>
0

>  <SCORE.INTRA.DIHEDRAL>
0

>  <SCORE.INTRA.DIHEDRAL.0>
0

>  <SCORE.INTRA.POLAR>
0

>  <SCORE.INTRA.POLAR.0>
0

>  <SCORE.INTRA.REPUL>
0

>  <SCORE.INTRA.REPUL.0>
0

>  <SCORE.INTRA.SOLV>
0

>  <SCORE.INTRA.SOLV.lig_0>
-4.28901

>  <SCORE.INTRA.VDW>
0

>  <SCORE.INTRA.VDW.0>
0

>  <SCORE.INTRA.norm>
0

>  <SCORE.RESTR>
0

>  <SCORE.RESTR.CAVITY>
0

>  <SCORE.RESTR.norm>
0

>  <SCORE.SYSTEM>
0

>  <SCORE.SYSTEM.CONST>
0

>  <SCORE.SYSTEM.DIHEDRAL>
0

>  <SCORE.SYSTEM.SOLV>
0

>  <SCORE.SYSTEM.norm>
0

>  <SCORE.heavy>
10

>  <SCORE.norm>
-1.70556

>  <RMSD>
1.005

$$$$
ligand
 OpenBabel11021811423D
libRbt.so/2013.1/901 2013/11/27
 10 11  0  0  0  0  0  0  0  0999 V2000
   11.6452   11.5666    8.6033 N   0  0  0  0  0  0  0  0  0  0  0  0
   11.4238   12.9280    8.5056 C   0  0  0  0  0  0  0  0  0  0  0  0
   11.1468   13.5238    7.3378 N   0  0  0  0  0  0  0  0  0  0  0  0
   11.1123   12.6609    6.2892 C   0  0  0  0  0  0  0  0  0  0  0  0
   11.3246   11.2940    6.3143 C   0  0  0  0  0  0  0  0  0  0  0  0
   11.6188   10.6474    7.5496 C   0  0  0  0  0  0  0  0  0  0  0  0
   11.8402    9.4542    7.8016 O   0  0  0  0  0  0  0  0  0  0  0  0
   11.1962   10.8155    5.0394 N   0  0  0  0  0  0  0  0  0  0  0  0
   10.9072   11.8834    4.2546 C   0  0  0  0  0  0  0  0  0  0  0  0
   10.8494   13.0356    4.9955 N   0  0  0  0  0  0  0  0  0  0  0  0
  1  2  1  0  0  0  0
  1  6  1  0  0  0  0
  2  3  2  0  0  0  0
  3  4  1  0  0  0  0
  4  5  2  0  0  0  0
  4 10  1  0  0  0  0
  5  6  1  0  0  0  0
  5  8  1  0  0  0  0
  6  7  2  0  0  0  0
  8  9  1  0  0  0  0
  9 10  2  0  0  0  0
M  END
>  <CHROM.1>
11.31670238,11.73815552,6.69271761,0.36720430,-1.35432330,0.76534603

>  <Name>
ligand

>  <RI>
0

>  <Rbt.Current_Directory>
/home/itssahil/PROJECTS/Mol_Feturizer/New_Systems/rnas/2EEW

>  <Rbt.Executable>
rbdock ($Id: //depot/dev/client3/rdock/2013.1/src/exe/rbdock.cxx#4 $)

>  <Rbt.Library>
libRbt.so (2013.1, Build901 2013/11/27)

>  <Rbt.Parameter_File>
/export/apps/rDock/src/rDock_2013.1_src/data/scripts/dock_solv.prm

>  <Rbt.Receptor>
prm/pocket_docking_4.prm

>  <SCORE>
-17.051

>  <SCORE.INTER>
-17.051

>  <SCORE.INTER.CONST>
1

>  <SCORE.INTER.POLAR>
0

>  <SCORE.INTER.ROT>
0

>  <SCORE.INTER.SOLV>
3.48505

>  <SCORE.INTER.VDW>
-16.129

>  <SCORE.INTER.norm>
-1.7051

>  <SCORE.INTRA>
0

>  <SCORE.INTRA.DIHEDRAL>
0

>  <SCORE.INTRA.DIHEDRAL.0>
0

>  <SCORE.INTRA.POLAR>
0

>  <SCORE.INTRA.POLAR.0>
0

>  <SCORE.INTRA.REPUL>
0

>  <SCORE.INTRA.REPUL.0>
0

>  <SCORE.INTRA.SOLV>
0

>  <SCORE.INTRA.SOLV.lig_0>
-4.28901

>  <SCORE.INTRA.VDW>
0

>  <SCORE.INTRA.VDW.0>
0

>  <SCORE.INTRA.norm>
0

>  <SCORE.RESTR>
0

>  <SCORE.RESTR.CAVITY>
0

>  <SCORE.RESTR.norm>
0

>  <SCORE.SYSTEM>
0

>  <SCORE.SYSTEM.CONST>
0

>  <SCORE.SYSTEM.DIHEDRAL>
0

>  <SCORE.SYSTEM.SOLV>
0

>  <SCORE.SYSTEM.norm>
0

>  <SCORE.heavy>
10

>  <SCORE.norm>
-1.7051

>  <RMSD>
1.005

$$$$
ligand
 OpenBabel11021811423D
libRbt.so/2013.1/901 2013/11/27
 10 11  0  0  0  0  0  0  0  0999 V2000
   11.6282   11.6440    8.6408 N   0  0  0  0  0  0  0  0  0  0  0  0
   11.3933   13.0020    8.5289 C   0  0  0  0  0  0  0  0  0  0  0  0
   11.1053   13.5819    7.3557 N   0  0  0  0  0  0  0  0  0  0  0  0
   11.0744   12.7070    6.3171 C   0  0  0  0  0  0  0  0  0  0  0  0
   11.3000   11.3426    6.3565 C   0  0  0  0  0  0  0  0  0  0  0  0
   11.6060   10.7127    7.5977 C   0  0  0  0  0  0  0  0  0  0  0  0
   11.8399    9.5247    7.8620 O   0  0  0  0  0  0  0  0  0  0  0  0
   11.1705   10.8485    5.0877 N   0  0  0  0  0  0  0  0  0  0  0  0
   10.8678   11.9047    4.2923 C   0  0  0  0  0  0  0  0  0  0  0  0
   10.8021   13.0646    5.0205 N   0  0  0  0  0  0  0  0  0  0  0  0
  1  2  1  0  0  0  0
  1  6  1  0  0  0  0
  2  3  2  0  0  0  0
  3  4  1  0  0  0  0
  4  5  2  0  0  0  0
  4 10  1  0  0  0  0
  5  6  1  0  0  0  0
  5  8  1  0  0  0  0
  6  7  2  0  0  0  0
  8  9  1  0  0  0  0
  9 10  2  0  0  0  0
M  END
>  <CHROM.1>
11.28951129,11.79085028,6.72997549,0.38439437,-1.34438733,0.77087537

>  <Name>
ligand

>  <RI>
0

>  <Rbt.Current_Directory>
/home/itssahil/PROJECTS/Mol_Feturizer/New_Systems/rnas/2EEW

>  <Rbt.Executable>
rbdock ($Id: //depot/dev/client3/rdock/2013.1/src/exe/rbdock.cxx#4 $)

>  <Rbt.Library>
libRbt.so (2013.1, Build901 2013/11/27)

>  <Rbt.Parameter_File>
/export/apps/rDock/src/rDock_2013.1_src/data/scripts/dock_solv.prm

>  <Rbt.Receptor>
prm/pocket_docking_5.prm

>  <SCORE>
-17.1026

>  <SCORE.INTER>
-17.1026

>  <SCORE.INTER.CONST>
1

>  <SCORE.INTER.POLAR>
0

>  <SCORE.INTER.ROT>
0

>  <SCORE.INTER.SOLV>
3.46763

>  <SCORE.INTER.VDW>
-16.1576

>  <SCORE.INTER.norm>
-1.71026

>  <SCORE.INTRA>
0

>  <SCORE.INTRA.DIHEDRAL>
0

>  <SCORE.INTRA.DIHEDRAL.0>
0

>  <SCORE.INTRA.POLAR>
0

>  <SCORE.INTRA.POLAR.0>
0

>  <SCORE.INTRA.REPUL>
0

>  <SCORE.INTRA.REPUL.0>
0

>  <SCORE.INTRA.SOLV>
0

>  <SCORE.INTRA.SOLV.lig_0>
-4.28901

>  <SCORE.INTRA.VDW>
0

>  <SCORE.INTRA.VDW.0>
0

>  <SCORE.INTRA.norm>
0

>  <SCORE.RESTR>
0

>  <SCORE.RESTR.CAVITY>
0

>  <SCORE.RESTR.norm>
0

>  <SCORE.SYSTEM>
0

>  <SCORE.SYSTEM.CONST>
0

>  <SCORE.SYSTEM.DIHEDRAL>
0

>  <SCORE.SYSTEM.SOLV>
0

>  <SCORE.SYSTEM.norm>
0

>  <SCORE.heavy>
10

>  <SCORE.norm>
-1.71026

>  <RMSD>
1.005

$$$$
ligand
 OpenBabel11021811423D
libRbt.so/2013.1/901 2013/11/27
 10 11  0  0  0  0  0  0  0  0999 V2000
   11.6522   11.5315    8.5748 N   0  0  0  0  0  0  0  0  0  0  0  0
   11.4309   12.8952    8.5173 C   0  0  0  0  0  0  0  0  0  0  0  0
   11.1440   13.5236    7.3690 N   0  0  0  0  0  0  0  0  0  0  0  0
   11.0996   12.6904    6.2971 C   0  0  0  0  0  0  0  0  0  0  0  0
   11.3110   11.3232    6.2821 C   0  0  0  0  0  0  0  0  0  0  0  0
   11.6157   10.6421    7.4962 C   0  0  0  0  0  0  0  0  0  0  0  0
   11.8384    9.4423    7.7127 O   0  0  0  0  0  0  0  0  0  0  0  0
   11.1710   10.8806    4.9955 N   0  0  0  0  0  0  0  0  0  0  0  0
   10.8759   11.9702    4.2434 C   0  0  0  0  0  0  0  0  0  0  0  0
   10.8255   13.1013    5.0168 N   0  0  0  0  0  0  0  0  0  0  0  0
  1  2  1  0  0  0  0
  1  6  1  0  0  0  0
  2  3  2  0  0  0  0
  3  4  1  0  0  0  0
  4  5  2  0  0  0  0
  4 10  1  0  0  0  0
  5  6  1  0  0  0  0
  5  8  1  0  0  0  0
  6  7  2  0  0  0  0
  8  9  1  0  0  0  0
  9 10  2  0  0  0  0
M  END
>  <CHROM.1>
11.30685802,11.75659119,6.67281382,0.33692844,-1.34835561,0.76377168

>  <Name>
ligand

>  <RI>
0

>  <Rbt.Current_Directory>
/home/itssahil/PROJECTS/Mol_Feturizer/New_Systems/rnas/2EEW

>  <Rbt.Executable>
rbdock ($Id: //depot/dev/client3/rdock/2013.1/src/exe/rbdock.cxx#4 $)

>  <Rbt.Library>
libRbt.so (2013.1, Build901 2013/11/27)

>  <Rbt.Parameter_File>
/export/apps/rDock/src/rDock_2013.1_src/data/scripts/dock_solv.prm

>  <Rbt.Receptor>
prm/pocket_docking_3.prm

>  <SCORE>
-17.0297

>  <SCORE.INTER>
-17.0297

>  <SCORE.INTER.CONST>
1

>  <SCORE.INTER.POLAR>
0

>  <SCORE.INTER.ROT>
0

>  <SCORE.INTER.SOLV>
3.44984

>  <SCORE.INTER.VDW>
-16.1031

>  <SCORE.INTER.norm>
-1.70297

>  <SCORE.INTRA>
0

>  <SCORE.INTRA.DIHEDRAL>
0

>  <SCORE.INTRA.DIHEDRAL.0>
0

>  <SCORE.INTRA.POLAR>
0

>  <SCORE.INTRA.POLAR.0>
0

>  <SCORE.INTRA.REPUL>
0

>  <SCORE.INTRA.REPUL.0>
0

>  <SCORE.INTRA.SOLV>
0

>  <SCORE.INTRA.SOLV.lig_0>
-4.28901

>  <SCORE.INTRA.VDW>
0

>  <SCORE.INTRA.VDW.0>
0

>  <SCORE.INTRA.norm>
0

>  <SCORE.RESTR>
0

>  <SCORE.RESTR.CAVITY>
0

>  <SCORE.RESTR.norm>
0

>  <SCORE.SYSTEM>
0

>  <SCORE.SYSTEM.CONST>
0

>  <SCORE.SYSTEM.DIHEDRAL>
0

>  <SCORE.SYSTEM.SOLV>
0

>  <SCORE.SYSTEM.norm>
0

>  <SCORE.heavy>
10

>  <SCORE.norm>
-1.70297

>  <RMSD>
1.006

$$$$
ligand
 OpenBabel11021811423D
libRbt.so/2013.1/901 2013/11/27
 10 11  0  0  0  0  0  0  0  0999 V2000
   11.6285   11.6336    8.6329 N   0  0  0  0  0  0  0  0  0  0  0  0
   11.4198   12.9970    8.5362 C   0  0  0  0  0  0  0  0  0  0  0  0
   11.1489   13.5962    7.3686 N   0  0  0  0  0  0  0  0  0  0  0  0
   11.1068   12.7345    6.3194 C   0  0  0  0  0  0  0  0  0  0  0  0
   11.3063   11.3656    6.3436 C   0  0  0  0  0  0  0  0  0  0  0  0
   11.5940   10.7153    7.5786 C   0  0  0  0  0  0  0  0  0  0  0  0
   11.8041    9.5200    7.8298 O   0  0  0  0  0  0  0  0  0  0  0  0
   11.1740   10.8892    5.0684 N   0  0  0  0  0  0  0  0  0  0  0  0
   10.8954   11.9604    4.2842 C   0  0  0  0  0  0  0  0  0  0  0  0
   10.8479   13.1125    5.0259 N   0  0  0  0  0  0  0  0  0  0  0  0
  1  2  1  0  0  0  0
  1  6  1  0  0  0  0
  2  3  2  0  0  0  0
  3  4  1  0  0  0  0
  4  5  2  0  0  0  0
  4 10  1  0  0  0  0
  5  6  1  0  0  0  0
  5  8  1  0  0  0  0
  6  7  2  0  0  0  0
  8  9  1  0  0  0  0
  9 10  2  0  0  0  0
M  END
>  <CHROM.1>
11.30241574,11.80952330,6.72234811,0.33639012,-1.36098927,0.73595355

>  <Name>
ligand

>  <RI>
0

>  <Rbt.Current_Directory>
/home/itssahil/PROJECTS/Mol_Feturizer/New_Systems/rnas/2EEW

>  <Rbt.Executable>
rbdock ($Id: //depot/dev/client3/rdock/2013.1/src/exe/rbdock.cxx#4 $)

>  <Rbt.Library>
libRbt.so (2013.1, Build901 2013/11/27)

>  <Rbt.Parameter_File>
/export/apps/rDock/src/rDock_2013.1_src/data/scripts/dock_solv.prm

>  <Rbt.Receptor>
prm/pocket_docking_4.prm

>  <SCORE>
-17.0638

>  <SCORE.INTER>
-17.0638

>  <SCORE.INTER.CONST>
1

>  <SCORE.INTER.POLAR>
0

>  <SCORE.INTER.ROT>
0

>  <SCORE.INTER.SOLV>
3.51674

>  <SCORE.INTER.VDW>
-16.1481

>  <SCORE.INTER.norm>
-1.70638

>  <SCORE.INTRA>
0

>  <SCORE.INTRA.DIHEDRAL>
0

>  <SCORE.INTRA.DIHEDRAL.0>
0

>  <SCORE.INTRA.POLAR>
0

>  <SCORE.INTRA.POLAR.0>
0

>  <SCORE.INTRA.REPUL>
0

>  <SCORE.INTRA.REPUL.0>
0

>  <SCORE.INTRA.SOLV>
0

>  <SCORE.INTRA.SOLV.lig_0>
-4.28901

>  <SCORE.INTRA.VDW>
0

>  <SCORE.INTRA.VDW.0>
0

>  <SCORE.INTRA.norm>
0

>  <SCORE.RESTR>
0

>  <SCORE.RESTR.CAVITY>
0

>  <SCORE.RESTR.norm>
0

>  <SCORE.SYSTEM>
0

>  <SCORE.SYSTEM.CONST>
0

>  <SCORE.SYSTEM.DIHEDRAL>
0

>  <SCORE.SYSTEM.SOLV>
0

>  <SCORE.SYSTEM.norm>
0

>  <SCORE.heavy>
10

>  <SCORE.norm>
-1.70638

>  <RMSD>
1.007

$$$$
ligand
 OpenBabel11021811423D
libRbt.so/2013.1/901 2013/11/27
 10 11  0  0  0  0  0  0  0  0999 V2000
   11.5867   11.6704    8.6756 N   0  0  0  0  0  0  0  0  0  0  0  0
   11.3755   13.0295    8.5334 C   0  0  0  0  0  0  0  0  0  0  0  0
   11.1189   13.5911    7.3442 N   0  0  0  0  0  0  0  0  0  0  0  0
   11.0936   12.6969    6.3219 C   0  0  0  0  0  0  0  0  0  0  0  0
   11.2965   11.3301    6.3916 C   0  0  0  0  0  0  0  0  0  0  0  0
   11.5691   10.7196    7.6501 C   0  0  0  0  0  0  0  0  0  0  0  0
   11.7791    9.5334    7.9414 O   0  0  0  0  0  0  0  0  0  0  0  0
   11.1830   10.8138    5.1302 N   0  0  0  0  0  0  0  0  0  0  0  0
   10.9121   11.8590    4.3092 C   0  0  0  0  0  0  0  0  0  0  0  0
   10.8513   13.0336    5.0139 N   0  0  0  0  0  0  0  0  0  0  0  0
  1  2  1  0  0  0  0
  1  6  1  0  0  0  0
  2  3  2  0  0  0  0
  3  4  1  0  0  0  0
  4  5  2  0  0  0  0
  4 10  1  0  0  0  0
  5  6  1  0  0  0  0
  5  8  1  0  0  0  0
  6  7  2  0  0  0  0
  8  9  1  0  0  0  0
  9 10  2  0  0  0  0
M  END
>  <CHROM.1>
11.28621795,11.78563412,6.75619514,0.39244280,-1.36893648,0.75958566

>  <Name>
ligand

>  <RI>
0

>  <Rbt.Current_Directory>
/home/itssahil/PROJECTS/Mol_Feturizer/New_Systems/rnas/2EEW

>  <Rbt.Executable>
rbdock ($Id: //depot/dev/client3/rdock/2013.1/src/exe/rbdock.cxx#4 $)

>  <Rbt.Library>
libRbt.so (2013.1, Build901 2013/11/27)

>  <Rbt.Parameter_File>
/export/apps/rDock/src/rDock_2013.1_src/data/scripts/dock_solv.prm

>  <Rbt.Receptor>
prm/pocket_docking_7.prm

>  <SCORE>
-17.1315

>  <SCORE.INTER>
-17.1315

>  <SCORE.INTER.CONST>
1

>  <SCORE.INTER.POLAR>
0

>  <SCORE.INTER.ROT>
0

>  <SCORE.INTER.SOLV>
3.58619

>  <SCORE.INTER.VDW>
-16.2164

>  <SCORE.INTER.norm>
-1.71315

>  <SCORE.INTRA>
0

>  <SCORE.INTRA.DIHEDRAL>
0

>  <SCORE.INTRA.DIHEDRAL.0>
0

>  <SCORE.INTRA.POLAR>
0

>  <SCORE.INTRA.POLAR.0>
0

>  <SCORE.INTRA.REPUL>
0

>  <SCORE.INTRA.REPUL.0>
0

>  <SCORE.INTRA.SOLV>
0

>  <SCORE.INTRA.SOLV.lig_0>
-4.28901

>  <SCORE.INTRA.VDW>
0

>  <SCORE.INTRA.VDW.0>
0

>  <SCORE.INTRA.norm>
0

>  <SCORE.RESTR>
0

>  <SCORE.RESTR.CAVITY>
0

>  <SCORE.RESTR.norm>
0

>  <SCORE.SYSTEM>
0

>  <SCORE.SYSTEM.CONST>
0

>  <SCORE.SYSTEM.DIHEDRAL>
0

>  <SCORE.SYSTEM.SOLV>
0

>  <SCORE.SYSTEM.norm>
0

>  <SCORE.heavy>
10

>  <SCORE.norm>
-1.71315

>  <RMSD>
1.007

$$$$
ligand
 OpenBabel11021811423D
libRbt.so/2013.1/901 2013/11/27
 10 11  0  0  0  0  0  0  0  0999 V2000
   11.5945   11.6740    8.6749 N   0  0  0  0  0  0  0  0  0  0  0  0
   11.4024   13.0359    8.5328 C   0  0  0  0  0  0  0  0  0  0  0  0
   11.1531   13.6010    7.3436 N   0  0  0  0  0  0  0  0  0  0  0  0
   11.1148   12.7072    6.3214 C   0  0  0  0  0  0  0  0  0  0  0  0
   11.2987   11.3377    6.3910 C   0  0  0  0  0  0  0  0  0  0  0  0
   11.5632   10.7235    7.6494 C   0  0  0  0  0  0  0  0  0  0  0  0
   11.7567    9.5345    7.9406 O   0  0  0  0  0  0  0  0  0  0  0  0
   11.1774   10.8230    5.1297 N   0  0  0  0  0  0  0  0  0  0  0  0
   10.9208   11.8719    4.3087 C   0  0  0  0  0  0  0  0  0  0  0  0
   10.8768   13.0472    5.0134 N   0  0  0  0  0  0  0  0  0  0  0  0
  1  2  1  0  0  0  0
  1  6  1  0  0  0  0
  2  3  2  0  0  0  0
  3  4  1  0  0  0  0
  4  5  2  0  0  0  0
  4 10  1  0  0  0  0
  5  6  1  0  0  0  0
  5  8  1  0  0  0  0
  6  7  2  0  0  0  0
  8  9  1  0  0  0  0
  9 10  2  0  0  0  0
M  END
>  <CHROM.1>
11.29490025,11.79333943,6.75559867,0.33790071,-1.37799603,0.70606800

>  <Name>
ligand

>  <RI>
0

>  <Rbt.Current_Directory>
/home/itssahil/PROJECTS/Mol_Feturizer/New_Systems/rnas/2EEW

>  <Rbt.Executable>
rbdock ($Id: //depot/dev/client3/rdock/2013.1/src/exe/rbdock.cxx#4 $)

>  <Rbt.Library>
libRbt.so (2013.1, Build901 2013/11/27)

>  <Rbt.Parameter_File>
/export/apps/rDock/src/rDock_2013.1_src/data/scripts/dock_solv.prm

>  <Rbt.Receptor>
prm/blind_docking_100.prm

>  <SCORE>
-17.1048

>  <SCORE.INTER>
-17.1048

>  <SCORE.INTER.CONST>
1

>  <SCORE.INTER.POLAR>
0

>  <SCORE.INTER.ROT>
0

>  <SCORE.INTER.SOLV>
3.62408

>  <SCORE.INTER.VDW>
-16.2112

>  <SCORE.INTER.norm>
-1.71048

>  <SCORE.INTRA>
0

>  <SCORE.INTRA.DIHEDRAL>
0

>  <SCORE.INTRA.DIHEDRAL.0>
0

>  <SCORE.INTRA.POLAR>
0

>  <SCORE.INTRA.POLAR.0>
0

>  <SCORE.INTRA.REPUL>
0

>  <SCORE.INTRA.REPUL.0>
0

>  <SCORE.INTRA.SOLV>
0

>  <SCORE.INTRA.SOLV.lig_0>
-4.28901

>  <SCORE.INTRA.VDW>
0

>  <SCORE.INTRA.VDW.0>
0

>  <SCORE.INTRA.norm>
0

>  <SCORE.RESTR>
0

>  <SCORE.RESTR.CAVITY>
0

>  <SCORE.RESTR.norm>
0

>  <SCORE.SYSTEM>
0

>  <SCORE.SYSTEM.CONST>
0

>  <SCORE.SYSTEM.DIHEDRAL>
0

>  <SCORE.SYSTEM.SOLV>
0

>  <SCORE.SYSTEM.norm>
0

>  <SCORE.heavy>
10

>  <SCORE.norm>
-1.71048

>  <RMSD>
1.008

$$$$
ligand
 OpenBabel11021811423D
libRbt.so/2013.1/901 2013/11/27
 10 11  0  0  0  0  0  0  0  0999 V2000
   11.5927   11.6745    8.6710 N   0  0  0  0  0  0  0  0  0  0  0  0
   11.3912   13.0365    8.5431 C   0  0  0  0  0  0  0  0  0  0  0  0
   11.1292   13.6110    7.3612 N   0  0  0  0  0  0  0  0  0  0  0  0
   11.0884   12.7266    6.3311 C   0  0  0  0  0  0  0  0  0  0  0  0
   11.2810   11.3576    6.3866 C   0  0  0  0  0  0  0  0  0  0  0  0
   11.5591   10.7334    7.6371 C   0  0  0  0  0  0  0  0  0  0  0  0
   11.7620    9.5430    7.9157 O   0  0  0  0  0  0  0  0  0  0  0  0
   11.1530   10.8538    5.1214 N   0  0  0  0  0  0  0  0  0  0  0  0
   10.8837   11.9087    4.3123 C   0  0  0  0  0  0  0  0  0  0  0  0
   10.8380   13.0772    5.0282 N   0  0  0  0  0  0  0  0  0  0  0  0
  1  2  1  0  0  0  0
  1  6  1  0  0  0  0
  2  3  2  0  0  0  0
  3  4  1  0  0  0  0
  4  5  2  0  0  0  0
  4 10  1  0  0  0  0
  5  6  1  0  0  0  0
  5  8  1  0  0  0  0
  6  7  2  0  0  0  0
  8  9  1  0  0  0  0
  9 10  2  0  0  0  0
M  END
>  <CHROM.1>
11.27733250,11.80980771,6.75536176,0.33550154,-1.36813870,0.71299684

>  <Name>
ligand

>  <RI>
0

>  <Rbt.Current_Directory>
/home/itssahil/PROJECTS/Mol_Feturizer/New_Systems/rnas/2EEW

>  <Rbt.Executable>
rbdock ($Id: //depot/dev/client3/rdock/2013.1/src/exe/rbdock.cxx#4 $)

>  <Rbt.Library>
libRbt.so (2013.1, Build901 2013/11/27)

>  <Rbt.Parameter_File>
/export/apps/rDock/src/rDock_2013.1_src/data/scripts/dock_solv.prm

>  <Rbt.Receptor>
prm/blind_docking_60.prm

>  <SCORE>
-17.1301

>  <SCORE.INTER>
-17.1301

>  <SCORE.INTER.CONST>
1

>  <SCORE.INTER.POLAR>
0

>  <SCORE.INTER.ROT>
0

>  <SCORE.INTER.SOLV>
3.58451

>  <SCORE.INTER.VDW>
-16.2149

>  <SCORE.INTER.norm>
-1.71301

>  <SCORE.INTRA>
0

>  <SCORE.INTRA.DIHEDRAL>
0

>  <SCORE.INTRA.DIHEDRAL.0>
0

>  <SCORE.INTRA.POLAR>
0

>  <SCORE.INTRA.POLAR.0>
0

>  <SCORE.INTRA.REPUL>
0

>  <SCORE.INTRA.REPUL.0>
0

>  <SCORE.INTRA.SOLV>
0

>  <SCORE.INTRA.SOLV.lig_0>
-4.28901

>  <SCORE.INTRA.VDW>
0

>  <SCORE.INTRA.VDW.0>
0

>  <SCORE.INTRA.norm>
0

>  <SCORE.RESTR>
0

>  <SCORE.RESTR.CAVITY>
0

>  <SCORE.RESTR.norm>
0

>  <SCORE.SYSTEM>
0

>  <SCORE.SYSTEM.CONST>
0

>  <SCORE.SYSTEM.DIHEDRAL>
0

>  <SCORE.SYSTEM.SOLV>
0

>  <SCORE.SYSTEM.norm>
0

>  <SCORE.heavy>
10

>  <SCORE.norm>
-1.71301

>  <RMSD>
1.008

$$$$
ligand
 OpenBabel11021811423D
libRbt.so/2013.1/901 2013/11/27
 10 11  0  0  0  0  0  0  0  0999 V2000
   11.6026   11.6803    8.6687 N   0  0  0  0  0  0  0  0  0  0  0  0
   11.3825   13.0390    8.5367 C   0  0  0  0  0  0  0  0  0  0  0  0
   11.1064   13.6053    7.3540 N   0  0  0  0  0  0  0  0  0  0  0  0
   11.0715   12.7164    6.3276 C   0  0  0  0  0  0  0  0  0  0  0  0
   11.2825   11.3503    6.3872 C   0  0  0  0  0  0  0  0  0  0  0  0
   11.5757   10.7347    7.6386 C   0  0  0  0  0  0  0  0  0  0  0  0
   11.7958    9.5482    7.9207 O   0  0  0  0  0  0  0  0  0  0  0  0
   11.1541   10.8399    5.1248 N   0  0  0  0  0  0  0  0  0  0  0  0
   10.8664   11.8880    4.3132 C   0  0  0  0  0  0  0  0  0  0  0  0
   10.8094   13.0585    5.0248 N   0  0  0  0  0  0  0  0  0  0  0  0
  1  2  1  0  0  0  0
  1  6  1  0  0  0  0
  2  3  2  0  0  0  0
  3  4  1  0  0  0  0
  4  5  2  0  0  0  0
  4 10  1  0  0  0  0
  5  6  1  0  0  0  0
  5  8  1  0  0  0  0
  6  7  2  0  0  0  0
  8  9  1  0  0  0  0
  9 10  2  0  0  0  0
M  END
>  <CHROM.1>
11.27490175,11.80385406,6.75430639,0.36515391,-1.35521653,0.73811592

>  <Name>
ligand

>  <RI>
0

>  <Rbt.Current_Directory>
/home/itssahil/PROJECTS/Mol_Feturizer/New_Systems/rnas/2EEW

>  <Rbt.Executable>
rbdock ($Id: //depot/dev/client3/rdock/2013.1/src/exe/rbdock.cxx#4 $)

>  <Rbt.Library>
libRbt.so (2013.1, Build901 2013/11/27)

>  <Rbt.Parameter_File>
/export/apps/rDock/src/rDock_2013.1_src/data/scripts/dock_solv.prm

>  <Rbt.Receptor>
prm/pocket_docking_4.prm

>  <SCORE>
-17.1049

>  <SCORE.INTER>
-17.1049

>  <SCORE.INTER.CONST>
1

>  <SCORE.INTER.POLAR>
0

>  <SCORE.INTER.ROT>
0

>  <SCORE.INTER.SOLV>
3.53749

>  <SCORE.INTER.VDW>
-16.1824

>  <SCORE.INTER.norm>
-1.71049

>  <SCORE.INTRA>
0

>  <SCORE.INTRA.DIHEDRAL>
0

>  <SCORE.INTRA.DIHEDRAL.0>
0

>  <SCORE.INTRA.POLAR>
0

>  <SCORE.INTRA.POLAR.0>
0

>  <SCORE.INTRA.REPUL>
0

>  <SCORE.INTRA.REPUL.0>
0

>  <SCORE.INTRA.SOLV>
0

>  <SCORE.INTRA.SOLV.lig_0>
-4.28901

>  <SCORE.INTRA.VDW>
0

>  <SCORE.INTRA.VDW.0>
0

>  <SCORE.INTRA.norm>
0

>  <SCORE.RESTR>
0

>  <SCORE.RESTR.CAVITY>
0

>  <SCORE.RESTR.norm>
0

>  <SCORE.SYSTEM>
0

>  <SCORE.SYSTEM.CONST>
0

>  <SCORE.SYSTEM.DIHEDRAL>
0

>  <SCORE.SYSTEM.SOLV>
0

>  <SCORE.SYSTEM.norm>
0

>  <SCORE.heavy>
10

>  <SCORE.norm>
-1.71049

>  <RMSD>
1.008

$$$$
ligand
 OpenBabel11021811423D
libRbt.so/2013.1/901 2013/11/27
 10 11  0  0  0  0  0  0  0  0999 V2000
   11.6665   11.5417    8.5748 N   0  0  0  0  0  0  0  0  0  0  0  0
   11.4673   12.9087    8.5159 C   0  0  0  0  0  0  0  0  0  0  0  0
   11.1836   13.5395    7.3682 N   0  0  0  0  0  0  0  0  0  0  0  0
   11.1189   12.7052    6.2982 C   0  0  0  0  0  0  0  0  0  0  0  0
   11.3077   11.3346    6.2846 C   0  0  0  0  0  0  0  0  0  0  0  0
   11.6087   10.6509    7.4982 C   0  0  0  0  0  0  0  0  0  0  0  0
   11.8130    9.4480    7.7157 O   0  0  0  0  0  0  0  0  0  0  0  0
   11.1524   10.8919    4.9998 N   0  0  0  0  0  0  0  0  0  0  0  0
   10.8706   11.9848    4.2474 C   0  0  0  0  0  0  0  0  0  0  0  0
   10.8435   13.1180    5.0188 N   0  0  0  0  0  0  0  0  0  0  0  0
  1  2  1  0  0  0  0
  1  6  1  0  0  0  0
  2  3  2  0  0  0  0
  3  4  1  0  0  0  0
  4  5  2  0  0  0  0
  4 10  1  0  0  0  0
  5  6  1  0  0  0  0
  5  8  1  0  0  0  0
  6  7  2  0  0  0  0
  8  9  1  0  0  0  0
  9 10  2  0  0  0  0
M  END
>  <CHROM.1>
11.31308286,11.76877477,6.67451032,0.26149893,-1.35462356,0.68818837

>  <Name>
ligand

>  <RI>
0

>  <Rbt.Current_Directory>
/home/itssahil/PROJECTS/Mol_Feturizer/New_Systems/rnas/2EEW

>  <Rbt.Executable>
rbdock ($Id: //depot/dev/client3/rdock/2013.1/src/exe/rbdock.cxx#4 $)

>  <Rbt.Library>
libRbt.so (2013.1, Build901 2013/11/27)

>  <Rbt.Parameter_File>
/export/apps/rDock/src/rDock_2013.1_src/data/scripts/dock_solv.prm

>  <Rbt.Receptor>
prm/pocket_docking_6.prm

>  <SCORE>
-17.0305

>  <SCORE.INTER>
-17.0305

>  <SCORE.INTER.CONST>
1

>  <SCORE.INTER.POLAR>
0

>  <SCORE.INTER.ROT>
0

>  <SCORE.INTER.SOLV>
3.49383

>  <SCORE.INTER.VDW>
-16.1183

>  <SCORE.INTER.norm>
-1.70305

>  <SCORE.INTRA>
0

>  <SCORE.INTRA.DIHEDRAL>
0

>  <SCORE.INTRA.DIHEDRAL.0>
0

>  <SCORE.INTRA.POLAR>
0

>  <SCORE.INTRA.POLAR.0>
0

>  <SCORE.INTRA.REPUL>
0

>  <SCORE.INTRA.REPUL.0>
0

>  <SCORE.INTRA.SOLV>
0

>  <SCORE.INTRA.SOLV.lig_0>
-4.28901

>  <SCORE.INTRA.VDW>
0

>  <SCORE.INTRA.VDW.0>
0

>  <SCORE.INTRA.norm>
0

>  <SCORE.RESTR>
0

>  <SCORE.RESTR.CAVITY>
0

>  <SCORE.RESTR.norm>
0

>  <SCORE.SYSTEM>
0

>  <SCORE.SYSTEM.CONST>
0

>  <SCORE.SYSTEM.DIHEDRAL>
0

>  <SCORE.SYSTEM.SOLV>
0

>  <SCORE.SYSTEM.norm>
0

>  <SCORE.heavy>
10

>  <SCORE.norm>
-1.70305

>  <RMSD>
1.008

$$$$
ligand
 OpenBabel11021811423D
libRbt.so/2013.1/901 2013/11/27
 10 11  0  0  0  0  0  0  0  0999 V2000
   11.5958   11.6754    8.6735 N   0  0  0  0  0  0  0  0  0  0  0  0
   11.3814   13.0337    8.5296 C   0  0  0  0  0  0  0  0  0  0  0  0
   11.1184   13.5925    7.3404 N   0  0  0  0  0  0  0  0  0  0  0  0
   11.0905   12.6963    6.3200 C   0  0  0  0  0  0  0  0  0  0  0  0
   11.2965   11.3301    6.3914 C   0  0  0  0  0  0  0  0  0  0  0  0
   11.5757   10.7225    7.6499 C   0  0  0  0  0  0  0  0  0  0  0  0
   11.7893    9.5373    7.9425 O   0  0  0  0  0  0  0  0  0  0  0  0
   11.1786   10.8110    5.1315 N   0  0  0  0  0  0  0  0  0  0  0  0
   10.9020   11.8542    4.3097 C   0  0  0  0  0  0  0  0  0  0  0  0
   10.8419   13.0300    5.0124 N   0  0  0  0  0  0  0  0  0  0  0  0
  1  2  1  0  0  0  0
  1  6  1  0  0  0  0
  2  3  2  0  0  0  0
  3  4  1  0  0  0  0
  4  5  2  0  0  0  0
  4 10  1  0  0  0  0
  5  6  1  0  0  0  0
  5  8  1  0  0  0  0
  6  7  2  0  0  0  0
  8  9  1  0  0  0  0
  9 10  2  0  0  0  0
M  END
>  <CHROM.1>
11.28685014,11.78624839,6.75518830,0.38501026,-1.36443325,0.75038590

>  <Name>
ligand

>  <RI>
0

>  <Rbt.Current_Directory>
/home/itssahil/PROJECTS/Mol_Feturizer/New_Systems/rnas/2EEW

>  <Rbt.Executable>
rbdock ($Id: //depot/dev/client3/rdock/2013.1/src/exe/rbdock.cxx#4 $)

>  <Rbt.Library>
libRbt.so (2013.1, Build901 2013/11/27)

>  <Rbt.Parameter_File>
/export/apps/rDock/src/rDock_2013.1_src/data/scripts/dock_solv.prm

>  <Rbt.Receptor>
prm/pocket_docking_8.prm

>  <SCORE>
-17.1325

>  <SCORE.INTER>
-17.1325

>  <SCORE.INTER.CONST>
1

>  <SCORE.INTER.POLAR>
0

>  <SCORE.INTER.ROT>
0

>  <SCORE.INTER.SOLV>
3.57309

>  <SCORE.INTER.VDW>
-16.2127

>  <SCORE.INTER.norm>
-1.71325

>  <SCORE.INTRA>
0

>  <SCORE.INTRA.DIHEDRAL>
0

>  <SCORE.INTRA.DIHEDRAL.0>
0

>  <SCORE.INTRA.POLAR>
0

>  <SCORE.INTRA.POLAR.0>
0

>  <SCORE.INTRA.REPUL>
0

>  <SCORE.INTRA.REPUL.0>
0

>  <SCORE.INTRA.SOLV>
0

>  <SCORE.INTRA.SOLV.lig_0>
-4.28901

>  <SCORE.INTRA.VDW>
0

>  <SCORE.INTRA.VDW.0>
0

>  <SCORE.INTRA.norm>
0

>  <SCORE.RESTR>
0

>  <SCORE.RESTR.CAVITY>
0

>  <SCORE.RESTR.norm>
0

>  <SCORE.SYSTEM>
0

>  <SCORE.SYSTEM.CONST>
0

>  <SCORE.SYSTEM.DIHEDRAL>
0

>  <SCORE.SYSTEM.SOLV>
0

>  <SCORE.SYSTEM.norm>
0

>  <SCORE.heavy>
10

>  <SCORE.norm>
-1.71325

>  <RMSD>
1.008

$$$$
ligand
 OpenBabel11021811423D
libRbt.so/2013.1/901 2013/11/27
 10 11  0  0  0  0  0  0  0  0999 V2000
   11.6174   11.6471    8.6412 N   0  0  0  0  0  0  0  0  0  0  0  0
   11.4088   13.0097    8.5328 C   0  0  0  0  0  0  0  0  0  0  0  0
   11.1370   13.5988    7.3604 N   0  0  0  0  0  0  0  0  0  0  0  0
   11.0941   12.7281    6.3187 C   0  0  0  0  0  0  0  0  0  0  0  0
   11.2935   11.3595    6.3545 C   0  0  0  0  0  0  0  0  0  0  0  0
   11.5820   10.7198    7.5949 C   0  0  0  0  0  0  0  0  0  0  0  0
   11.7921    9.5267    7.8562 O   0  0  0  0  0  0  0  0  0  0  0  0
   11.1602   10.8721    5.0835 N   0  0  0  0  0  0  0  0  0  0  0  0
   10.8811   11.9365    4.2903 C   0  0  0  0  0  0  0  0  0  0  0  0
   10.8344   13.0950    5.0221 N   0  0  0  0  0  0  0  0  0  0  0  0
  1  2  1  0  0  0  0
  1  6  1  0  0  0  0
  2  3  2  0  0  0  0
  3  4  1  0  0  0  0
  4  5  2  0  0  0  0
  4 10  1  0  0  0  0
  5  6  1  0  0  0  0
  5  8  1  0  0  0  0
  6  7  2  0  0  0  0
  8  9  1  0  0  0  0
  9 10  2  0  0  0  0
M  END
>  <CHROM.1>
11.28992247,11.80664180,6.72942820,0.33363466,-1.36053588,0.72462572

>  <Name>
ligand

>  <RI>
0

>  <Rbt.Current_Directory>
/home/itssahil/PROJECTS/Mol_Feturizer/New_Systems/rnas/2EEW

>  <Rbt.Executable>
rbdock ($Id: //depot/dev/client3/rdock/2013.1/src/exe/rbdock.cxx#4 $)

>  <Rbt.Library>
libRbt.so (2013.1, Build901 2013/11/27)

>  <Rbt.Parameter_File>
/export/apps/rDock/src/rDock_2013.1_src/data/scripts/dock_solv.prm

>  <Rbt.Receptor>
prm/blind_docking_100.prm

>  <SCORE>
-17.092

>  <SCORE.INTER>
-17.092

>  <SCORE.INTER.CONST>
1

>  <SCORE.INTER.POLAR>
0

>  <SCORE.INTER.ROT>
0

>  <SCORE.INTER.SOLV>
3.53242

>  <SCORE.INTER.VDW>
-16.1721

>  <SCORE.INTER.norm>
-1.7092

>  <SCORE.INTRA>
0

>  <SCORE.INTRA.DIHEDRAL>
0

>  <SCORE.INTRA.DIHEDRAL.0>
0

>  <SCORE.INTRA.POLAR>
0

>  <SCORE.INTRA.POLAR.0>
0

>  <SCORE.INTRA.REPUL>
0

>  <SCORE.INTRA.REPUL.0>
0

>  <SCORE.INTRA.SOLV>
0

>  <SCORE.INTRA.SOLV.lig_0>
-4.28901

>  <SCORE.INTRA.VDW>
0

>  <SCORE.INTRA.VDW.0>
0

>  <SCORE.INTRA.norm>
0

>  <SCORE.RESTR>
0

>  <SCORE.RESTR.CAVITY>
0

>  <SCORE.RESTR.norm>
0

>  <SCORE.SYSTEM>
0

>  <SCORE.SYSTEM.CONST>
0

>  <SCORE.SYSTEM.DIHEDRAL>
0

>  <SCORE.SYSTEM.SOLV>
0

>  <SCORE.SYSTEM.norm>
0

>  <SCORE.heavy>
10

>  <SCORE.norm>
-1.7092

>  <RMSD>
1.010

$$$$
ligand
 OpenBabel11021811423D
libRbt.so/2013.1/901 2013/11/27
 10 11  0  0  0  0  0  0  0  0999 V2000
   11.5789   11.6692    8.6687 N   0  0  0  0  0  0  0  0  0  0  0  0
   11.3588   13.0281    8.5399 C   0  0  0  0  0  0  0  0  0  0  0  0
   11.0973   13.5995    7.3563 N   0  0  0  0  0  0  0  0  0  0  0  0
   11.0770   12.7151    6.3255 C   0  0  0  0  0  0  0  0  0  0  0  0
   11.2889   11.3490    6.3818 C   0  0  0  0  0  0  0  0  0  0  0  0
   11.5667   10.7282    7.6341 C   0  0  0  0  0  0  0  0  0  0  0  0
   11.7847    9.5407    7.9137 O   0  0  0  0  0  0  0  0  0  0  0  0
   11.1777   10.8441    5.1155 N   0  0  0  0  0  0  0  0  0  0  0  0
   10.8992   11.8954    4.3049 C   0  0  0  0  0  0  0  0  0  0  0  0
   10.8313   13.0627    5.0209 N   0  0  0  0  0  0  0  0  0  0  0  0
  1  2  1  0  0  0  0
  1  6  1  0  0  0  0
  2  3  2  0  0  0  0
  3  4  1  0  0  0  0
  4  5  2  0  0  0  0
  4 10  1  0  0  0  0
  5  6  1  0  0  0  0
  5  8  1  0  0  0  0
  6  7  2  0  0  0  0
  8  9  1  0  0  0  0
  9 10  2  0  0  0  0
M  END
>  <CHROM.1>
11.27598590,11.80089657,6.75078027,0.41252281,-1.36373069,0.78890522

>  <Name>
ligand

>  <RI>
0

>  <Rbt.Current_Directory>
/home/itssahil/PROJECTS/Mol_Feturizer/New_Systems/rnas/2EEW

>  <Rbt.Executable>
rbdock ($Id: //depot/dev/client3/rdock/2013.1/src/exe/rbdock.cxx#4 $)

>  <Rbt.Library>
libRbt.so (2013.1, Build901 2013/11/27)

>  <Rbt.Parameter_File>
/export/apps/rDock/src/rDock_2013.1_src/data/scripts/dock_solv.prm

>  <Rbt.Receptor>
prm/blind_docking_100.prm

>  <SCORE>
-17.1043

>  <SCORE.INTER>
-17.1043

>  <SCORE.INTER.CONST>
1

>  <SCORE.INTER.POLAR>
0

>  <SCORE.INTER.ROT>
0

>  <SCORE.INTER.SOLV>
3.55225

>  <SCORE.INTER.VDW>
-16.1869

>  <SCORE.INTER.norm>
-1.71043

>  <SCORE.INTRA>
0

>  <SCORE.INTRA.DIHEDRAL>
0

>  <SCORE.INTRA.DIHEDRAL.0>
0

>  <SCORE.INTRA.POLAR>
0

>  <SCORE.INTRA.POLAR.0>
0

>  <SCORE.INTRA.REPUL>
0

>  <SCORE.INTRA.REPUL.0>
0

>  <SCORE.INTRA.SOLV>
0

>  <SCORE.INTRA.SOLV.lig_0>
-4.28901

>  <SCORE.INTRA.VDW>
0

>  <SCORE.INTRA.VDW.0>
0

>  <SCORE.INTRA.norm>
0

>  <SCORE.RESTR>
0

>  <SCORE.RESTR.CAVITY>
0

>  <SCORE.RESTR.norm>
0

>  <SCORE.SYSTEM>
0

>  <SCORE.SYSTEM.CONST>
0

>  <SCORE.SYSTEM.DIHEDRAL>
0

>  <SCORE.SYSTEM.SOLV>
0

>  <SCORE.SYSTEM.norm>
0

>  <SCORE.heavy>
10

>  <SCORE.norm>
-1.71043

>  <RMSD>
1.010

$$$$
ligand
 OpenBabel11021811423D
libRbt.so/2013.1/901 2013/11/27
 10 11  0  0  0  0  0  0  0  0999 V2000
   11.6486   11.6077    8.6126 N   0  0  0  0  0  0  0  0  0  0  0  0
   11.4359   12.9699    8.5072 C   0  0  0  0  0  0  0  0  0  0  0  0
   11.1465   13.5584    7.3386 N   0  0  0  0  0  0  0  0  0  0  0  0
   11.0905   12.6876    6.2977 C   0  0  0  0  0  0  0  0  0  0  0  0
   11.2929   11.3193    6.3307 C   0  0  0  0  0  0  0  0  0  0  0  0
   11.6002   10.6803    7.5669 C   0  0  0  0  0  0  0  0  0  0  0  0
   11.8162    9.4876    7.8252 O   0  0  0  0  0  0  0  0  0  0  0  0
   11.1427   10.8317    5.0617 N   0  0  0  0  0  0  0  0  0  0  0  0
   10.8504   11.8955    4.2725 C   0  0  0  0  0  0  0  0  0  0  0  0
   10.8117   13.0539    5.0049 N   0  0  0  0  0  0  0  0  0  0  0  0
  1  2  1  0  0  0  0
  1  6  1  0  0  0  0
  2  3  2  0  0  0  0
  3  4  1  0  0  0  0
  4  5  2  0  0  0  0
  4 10  1  0  0  0  0
  5  6  1  0  0  0  0
  5  8  1  0  0  0  0
  6  7  2  0  0  0  0
  8  9  1  0  0  0  0
  9 10  2  0  0  0  0
M  END
>  <CHROM.1>
11.29381855,11.76650856,6.70561713,0.29761339,-1.34855520,0.68942618

>  <Name>
ligand

>  <RI>
0

>  <Rbt.Current_Directory>
/home/itssahil/PROJECTS/Mol_Feturizer/New_Systems/rnas/2EEW

>  <Rbt.Executable>
rbdock ($Id: //depot/dev/client3/rdock/2013.1/src/exe/rbdock.cxx#4 $)

>  <Rbt.Library>
libRbt.so (2013.1, Build901 2013/11/27)

>  <Rbt.Parameter_File>
/export/apps/rDock/src/rDock_2013.1_src/data/scripts/dock_solv.prm

>  <Rbt.Receptor>
prm/pocket_docking_3.prm

>  <SCORE>
-17.0767

>  <SCORE.INTER>
-17.0767

>  <SCORE.INTER.CONST>
1

>  <SCORE.INTER.POLAR>
0

>  <SCORE.INTER.ROT>
0

>  <SCORE.INTER.SOLV>
3.49568

>  <SCORE.INTER.VDW>
-16.1497

>  <SCORE.INTER.norm>
-1.70767

>  <SCORE.INTRA>
0

>  <SCORE.INTRA.DIHEDRAL>
0

>  <SCORE.INTRA.DIHEDRAL.0>
0

>  <SCORE.INTRA.POLAR>
0

>  <SCORE.INTRA.POLAR.0>
0

>  <SCORE.INTRA.REPUL>
0

>  <SCORE.INTRA.REPUL.0>
0

>  <SCORE.INTRA.SOLV>
0

>  <SCORE.INTRA.SOLV.lig_0>
-4.28901

>  <SCORE.INTRA.VDW>
0

>  <SCORE.INTRA.VDW.0>
0

>  <SCORE.INTRA.norm>
0

>  <SCORE.RESTR>
0

>  <SCORE.RESTR.CAVITY>
0

>  <SCORE.RESTR.norm>
0

>  <SCORE.SYSTEM>
0

>  <SCORE.SYSTEM.CONST>
0

>  <SCORE.SYSTEM.DIHEDRAL>
0

>  <SCORE.SYSTEM.SOLV>
0

>  <SCORE.SYSTEM.norm>
0

>  <SCORE.heavy>
10

>  <SCORE.norm>
-1.70767

>  <RMSD>
1.011

$$$$
ligand
 OpenBabel11021811423D
libRbt.so/2013.1/901 2013/11/27
 10 11  0  0  0  0  0  0  0  0999 V2000
   11.5942   11.6770    8.6667 N   0  0  0  0  0  0  0  0  0  0  0  0
   11.3743   13.0355    8.5333 C   0  0  0  0  0  0  0  0  0  0  0  0
   11.1049   13.6017    7.3490 N   0  0  0  0  0  0  0  0  0  0  0  0
   11.0764   12.7126    6.3224 C   0  0  0  0  0  0  0  0  0  0  0  0
   11.2876   11.3467    6.3834 C   0  0  0  0  0  0  0  0  0  0  0  0
   11.5737   10.7313    7.6365 C   0  0  0  0  0  0  0  0  0  0  0  0
   11.7927    9.5449    7.9200 O   0  0  0  0  0  0  0  0  0  0  0  0
   11.1668   10.8361    5.1203 N   0  0  0  0  0  0  0  0  0  0  0  0
   10.8834   11.8839    4.3069 C   0  0  0  0  0  0  0  0  0  0  0  0
   10.8217   13.0545    5.0181 N   0  0  0  0  0  0  0  0  0  0  0  0
  1  2  1  0  0  0  0
  1  6  1  0  0  0  0
  2  3  2  0  0  0  0
  3  4  1  0  0  0  0
  4  5  2  0  0  0  0
  4 10  1  0  0  0  0
  5  6  1  0  0  0  0
  5  8  1  0  0  0  0
  6  7  2  0  0  0  0
  8  9  1  0  0  0  0
  9 10  2  0  0  0  0
M  END
>  <CHROM.1>
11.27763453,11.80022210,6.75043492,0.38546882,-1.35922039,0.75787662

>  <Name>
ligand

>  <RI>
0

>  <Rbt.Current_Directory>
/home/itssahil/PROJECTS/Mol_Feturizer/New_Systems/rnas/2EEW

>  <Rbt.Executable>
rbdock ($Id: //depot/dev/client3/rdock/2013.1/src/exe/rbdock.cxx#4 $)

>  <Rbt.Library>
libRbt.so (2013.1, Build901 2013/11/27)

>  <Rbt.Parameter_File>
/export/apps/rDock/src/rDock_2013.1_src/data/scripts/dock_solv.prm

>  <Rbt.Receptor>
prm/pocket_docking_3.prm

>  <SCORE>
-17.1082

>  <SCORE.INTER>
-17.1082

>  <SCORE.INTER.CONST>
1

>  <SCORE.INTER.POLAR>
0

>  <SCORE.INTER.ROT>
0

>  <SCORE.INTER.SOLV>
3.54524

>  <SCORE.INTER.VDW>
-16.1872

>  <SCORE.INTER.norm>
-1.71082

>  <SCORE.INTRA>
0

>  <SCORE.INTRA.DIHEDRAL>
0

>  <SCORE.INTRA.DIHEDRAL.0>
0

>  <SCORE.INTRA.POLAR>
0

>  <SCORE.INTRA.POLAR.0>
0

>  <SCORE.INTRA.REPUL>
0

>  <SCORE.INTRA.REPUL.0>
0

>  <SCORE.INTRA.SOLV>
0

>  <SCORE.INTRA.SOLV.lig_0>
-4.28901

>  <SCORE.INTRA.VDW>
0

>  <SCORE.INTRA.VDW.0>
0

>  <SCORE.INTRA.norm>
0

>  <SCORE.RESTR>
0

>  <SCORE.RESTR.CAVITY>
0

>  <SCORE.RESTR.norm>
0

>  <SCORE.SYSTEM>
0

>  <SCORE.SYSTEM.CONST>
0

>  <SCORE.SYSTEM.DIHEDRAL>
0

>  <SCORE.SYSTEM.SOLV>
0

>  <SCORE.SYSTEM.norm>
0

>  <SCORE.heavy>
10

>  <SCORE.norm>
-1.71082

>  <RMSD>
1.011

$$$$
ligand
 OpenBabel11021811423D
libRbt.so/2013.1/901 2013/11/27
 10 11  0  0  0  0  0  0  0  0999 V2000
   11.6236   11.6449    8.6331 N   0  0  0  0  0  0  0  0  0  0  0  0
   11.4009   13.0061    8.5349 C   0  0  0  0  0  0  0  0  0  0  0  0
   11.1287   13.6020    7.3659 N   0  0  0  0  0  0  0  0  0  0  0  0
   11.1004   12.7395    6.3169 C   0  0  0  0  0  0  0  0  0  0  0  0
   11.3142   11.3729    6.3425 C   0  0  0  0  0  0  0  0  0  0  0  0
   11.6033   10.7260    7.5789 C   0  0  0  0  0  0  0  0  0  0  0  0
   11.8249    9.5331    7.8315 O   0  0  0  0  0  0  0  0  0  0  0  0
   11.1925   10.8947    5.0668 N   0  0  0  0  0  0  0  0  0  0  0  0
   10.9060   11.9626    4.2810 C   0  0  0  0  0  0  0  0  0  0  0  0
   10.8432   13.1144    5.0221 N   0  0  0  0  0  0  0  0  0  0  0  0
  1  2  1  0  0  0  0
  1  6  1  0  0  0  0
  2  3  2  0  0  0  0
  3  4  1  0  0  0  0
  4  5  2  0  0  0  0
  4 10  1  0  0  0  0
  5  6  1  0  0  0  0
  5  8  1  0  0  0  0
  6  7  2  0  0  0  0
  8  9  1  0  0  0  0
  9 10  2  0  0  0  0
M  END
>  <CHROM.1>
11.30396398,11.81682177,6.72101739,0.38705741,-1.35688387,0.78513895

>  <Name>
ligand

>  <RI>
0

>  <Rbt.Current_Directory>
/home/itssahil/PROJECTS/Mol_Feturizer/New_Systems/rnas/2EEW

>  <Rbt.Executable>
rbdock ($Id: //depot/dev/client3/rdock/2013.1/src/exe/rbdock.cxx#4 $)

>  <Rbt.Library>
libRbt.so (2013.1, Build901 2013/11/27)

>  <Rbt.Parameter_File>
/export/apps/rDock/src/rDock_2013.1_src/data/scripts/dock_solv.prm

>  <Rbt.Receptor>
prm/pocket_docking_8.prm

>  <SCORE>
-17.0805

>  <SCORE.INTER>
-17.0805

>  <SCORE.INTER.CONST>
1

>  <SCORE.INTER.POLAR>
0

>  <SCORE.INTER.ROT>
0

>  <SCORE.INTER.SOLV>
3.48652

>  <SCORE.INTER.VDW>
-16.1492

>  <SCORE.INTER.norm>
-1.70805

>  <SCORE.INTRA>
0

>  <SCORE.INTRA.DIHEDRAL>
0

>  <SCORE.INTRA.DIHEDRAL.0>
0

>  <SCORE.INTRA.POLAR>
0

>  <SCORE.INTRA.POLAR.0>
0

>  <SCORE.INTRA.REPUL>
0

>  <SCORE.INTRA.REPUL.0>
0

>  <SCORE.INTRA.SOLV>
0

>  <SCORE.INTRA.SOLV.lig_0>
-4.28901

>  <SCORE.INTRA.VDW>
0

>  <SCORE.INTRA.VDW.0>
0

>  <SCORE.INTRA.norm>
0

>  <SCORE.RESTR>
0

>  <SCORE.RESTR.CAVITY>
0

>  <SCORE.RESTR.norm>
0

>  <SCORE.SYSTEM>
0

>  <SCORE.SYSTEM.CONST>
0

>  <SCORE.SYSTEM.DIHEDRAL>
0

>  <SCORE.SYSTEM.SOLV>
0

>  <SCORE.SYSTEM.norm>
0

>  <SCORE.heavy>
10

>  <SCORE.norm>
-1.70805

>  <RMSD>
1.011

$$$$
ligand
 OpenBabel11021811423D
libRbt.so/2013.1/901 2013/11/27
 10 11  0  0  0  0  0  0  0  0999 V2000
   11.5828   11.6715    8.6696 N   0  0  0  0  0  0  0  0  0  0  0  0
   11.3583   13.0284    8.5267 C   0  0  0  0  0  0  0  0  0  0  0  0
   11.0933   13.5863    7.3375 N   0  0  0  0  0  0  0  0  0  0  0  0
   11.0741   12.6909    6.3162 C   0  0  0  0  0  0  0  0  0  0  0  0
   11.2903   11.3262    6.3867 C   0  0  0  0  0  0  0  0  0  0  0  0
   11.5719   10.7196    7.6451 C   0  0  0  0  0  0  0  0  0  0  0  0
   11.7940    9.5358    7.9371 O   0  0  0  0  0  0  0  0  0  0  0  0
   11.1787   10.8075    5.1261 N   0  0  0  0  0  0  0  0  0  0  0  0
   10.8957   11.8492    4.3048 C   0  0  0  0  0  0  0  0  0  0  0  0
   10.8253   13.0239    5.0084 N   0  0  0  0  0  0  0  0  0  0  0  0
  1  2  1  0  0  0  0
  1  6  1  0  0  0  0
  2  3  2  0  0  0  0
  3  4  1  0  0  0  0
  4  5  2  0  0  0  0
  4 10  1  0  0  0  0
  5  6  1  0  0  0  0
  5  8  1  0  0  0  0
  6  7  2  0  0  0  0
  8  9  1  0  0  0  0
  9 10  2  0  0  0  0
M  END
>  <CHROM.1>
11.27652948,11.78190728,6.75090307,0.41773298,-1.36046393,0.78335204

>  <Name>
ligand

>  <RI>
0

>  <Rbt.Current_Directory>
/home/itssahil/PROJECTS/Mol_Feturizer/New_Systems/rnas/2EEW

>  <Rbt.Executable>
rbdock ($Id: //depot/dev/client3/rdock/2013.1/src/exe/rbdock.cxx#4 $)

>  <Rbt.Library>
libRbt.so (2013.1, Build901 2013/11/27)

>  <Rbt.Parameter_File>
/export/apps/rDock/src/rDock_2013.1_src/data/scripts/dock_solv.prm

>  <Rbt.Receptor>
prm/pocket_docking_3.prm

>  <SCORE>
-17.1119

>  <SCORE.INTER>
-17.1119

>  <SCORE.INTER.CONST>
1

>  <SCORE.INTER.POLAR>
0

>  <SCORE.INTER.ROT>
0

>  <SCORE.INTER.SOLV>
3.5552

>  <SCORE.INTER.VDW>
-16.193

>  <SCORE.INTER.norm>
-1.71119

>  <SCORE.INTRA>
0

>  <SCORE.INTRA.DIHEDRAL>
0

>  <SCORE.INTRA.DIHEDRAL.0>
0

>  <SCORE.INTRA.POLAR>
0

>  <SCORE.INTRA.POLAR.0>
0

>  <SCORE.INTRA.REPUL>
0

>  <SCORE.INTRA.REPUL.0>
0

>  <SCORE.INTRA.SOLV>
0

>  <SCORE.INTRA.SOLV.lig_0>
-4.28901

>  <SCORE.INTRA.VDW>
0

>  <SCORE.INTRA.VDW.0>
0

>  <SCORE.INTRA.norm>
0

>  <SCORE.RESTR>
0

>  <SCORE.RESTR.CAVITY>
0

>  <SCORE.RESTR.norm>
0

>  <SCORE.SYSTEM>
0

>  <SCORE.SYSTEM.CONST>
0

>  <SCORE.SYSTEM.DIHEDRAL>
0

>  <SCORE.SYSTEM.SOLV>
0

>  <SCORE.SYSTEM.norm>
0

>  <SCORE.heavy>
10

>  <SCORE.norm>
-1.71119

>  <RMSD>
1.012

$$$$
ligand
 OpenBabel11021811423D
libRbt.so/2013.1/901 2013/11/27
 10 11  0  0  0  0  0  0  0  0999 V2000
   11.6481   11.6059    8.6108 N   0  0  0  0  0  0  0  0  0  0  0  0
   11.4291   12.9665    8.4984 C   0  0  0  0  0  0  0  0  0  0  0  0
   11.1440   13.5487    7.3256 N   0  0  0  0  0  0  0  0  0  0  0  0
   11.0990   12.6733    6.2880 C   0  0  0  0  0  0  0  0  0  0  0  0
   11.3083   11.3063    6.3280 C   0  0  0  0  0  0  0  0  0  0  0  0
   11.6110   10.6739    7.5686 C   0  0  0  0  0  0  0  0  0  0  0  0
   11.8316    9.4834    7.8333 O   0  0  0  0  0  0  0  0  0  0  0  0
   11.1685   10.8126    5.0601 N   0  0  0  0  0  0  0  0  0  0  0  0
   10.8757   11.8717    4.2647 C   0  0  0  0  0  0  0  0  0  0  0  0
   10.8265   13.0329    4.9920 N   0  0  0  0  0  0  0  0  0  0  0  0
  1  2  1  0  0  0  0
  1  6  1  0  0  0  0
  2  3  2  0  0  0  0
  3  4  1  0  0  0  0
  4  5  2  0  0  0  0
  4 10  1  0  0  0  0
  5  6  1  0  0  0  0
  5  8  1  0  0  0  0
  6  7  2  0  0  0  0
  8  9  1  0  0  0  0
  9 10  2  0  0  0  0
M  END
>  <CHROM.1>
11.30452253,11.75498666,6.70100336,0.33395789,-1.34999352,0.72075093

>  <Name>
ligand

>  <RI>
0

>  <Rbt.Current_Directory>
/home/itssahil/PROJECTS/Mol_Feturizer/New_Systems/rnas/2EEW

>  <Rbt.Executable>
rbdock ($Id: //depot/dev/client3/rdock/2013.1/src/exe/rbdock.cxx#4 $)

>  <Rbt.Library>
libRbt.so (2013.1, Build901 2013/11/27)

>  <Rbt.Parameter_File>
/export/apps/rDock/src/rDock_2013.1_src/data/scripts/dock_solv.prm

>  <Rbt.Receptor>
prm/blind_docking_100.prm

>  <SCORE>
-17.0919

>  <SCORE.INTER>
-17.0919

>  <SCORE.INTER.CONST>
1

>  <SCORE.INTER.POLAR>
0

>  <SCORE.INTER.ROT>
0

>  <SCORE.INTER.SOLV>
3.48764

>  <SCORE.INTER.VDW>
-16.1571

>  <SCORE.INTER.norm>
-1.70919

>  <SCORE.INTRA>
0

>  <SCORE.INTRA.DIHEDRAL>
0

>  <SCORE.INTRA.DIHEDRAL.0>
0

>  <SCORE.INTRA.POLAR>
0

>  <SCORE.INTRA.POLAR.0>
0

>  <SCORE.INTRA.REPUL>
0

>  <SCORE.INTRA.REPUL.0>
0

>  <SCORE.INTRA.SOLV>
0

>  <SCORE.INTRA.SOLV.lig_0>
-4.28901

>  <SCORE.INTRA.VDW>
0

>  <SCORE.INTRA.VDW.0>
0

>  <SCORE.INTRA.norm>
0

>  <SCORE.RESTR>
0

>  <SCORE.RESTR.CAVITY>
0

>  <SCORE.RESTR.norm>
0

>  <SCORE.SYSTEM>
0

>  <SCORE.SYSTEM.CONST>
0

>  <SCORE.SYSTEM.DIHEDRAL>
0

>  <SCORE.SYSTEM.SOLV>
0

>  <SCORE.SYSTEM.norm>
0

>  <SCORE.heavy>
10

>  <SCORE.norm>
-1.70919

>  <RMSD>
1.013

$$$$
ligand
 OpenBabel11021811423D
libRbt.so/2013.1/901 2013/11/27
 10 11  0  0  0  0  0  0  0  0999 V2000
   11.6157   11.6431    8.6328 N   0  0  0  0  0  0  0  0  0  0  0  0
   11.3997   13.0051    8.5321 C   0  0  0  0  0  0  0  0  0  0  0  0
   11.1277   13.5998    7.3625 N   0  0  0  0  0  0  0  0  0  0  0  0
   11.0925   12.7351    6.3155 C   0  0  0  0  0  0  0  0  0  0  0  0
   11.2995   11.3675    6.3436 C   0  0  0  0  0  0  0  0  0  0  0  0
   11.5883   10.7220    7.5808 C   0  0  0  0  0  0  0  0  0  0  0  0
   11.8045    9.5285    7.8355 O   0  0  0  0  0  0  0  0  0  0  0  0
   11.1723   10.8871    5.0693 N   0  0  0  0  0  0  0  0  0  0  0  0
   10.8893   11.9546    4.2818 C   0  0  0  0  0  0  0  0  0  0  0  0
   10.8341   13.1084    5.0205 N   0  0  0  0  0  0  0  0  0  0  0  0
  1  2  1  0  0  0  0
  1  6  1  0  0  0  0
  2  3  2  0  0  0  0
  3  4  1  0  0  0  0
  4  5  2  0  0  0  0
  4 10  1  0  0  0  0
  5  6  1  0  0  0  0
  5  8  1  0  0  0  0
  6  7  2  0  0  0  0
  8  9  1  0  0  0  0
  9 10  2  0  0  0  0
M  END
>  <CHROM.1>
11.29239802,11.81232145,6.72116923,0.36208974,-1.35869037,0.75849629

>  <Name>
ligand

>  <RI>
0

>  <Rbt.Current_Directory>
/home/itssahil/PROJECTS/Mol_Feturizer/New_Systems/rnas/2EEW

>  <Rbt.Executable>
rbdock ($Id: //depot/dev/client3/rdock/2013.1/src/exe/rbdock.cxx#4 $)

>  <Rbt.Library>
libRbt.so (2013.1, Build901 2013/11/27)

>  <Rbt.Parameter_File>
/export/apps/rDock/src/rDock_2013.1_src/data/scripts/dock_solv.prm

>  <Rbt.Receptor>
prm/blind_docking_40.prm

>  <SCORE>
-17.0922

>  <SCORE.INTER>
-17.0922

>  <SCORE.INTER.CONST>
1

>  <SCORE.INTER.POLAR>
0

>  <SCORE.INTER.ROT>
0

>  <SCORE.INTER.SOLV>
3.50752

>  <SCORE.INTER.VDW>
-16.164

>  <SCORE.INTER.norm>
-1.70922

>  <SCORE.INTRA>
0

>  <SCORE.INTRA.DIHEDRAL>
0

>  <SCORE.INTRA.DIHEDRAL.0>
0

>  <SCORE.INTRA.POLAR>
0

>  <SCORE.INTRA.POLAR.0>
0

>  <SCORE.INTRA.REPUL>
0

>  <SCORE.INTRA.REPUL.0>
0

>  <SCORE.INTRA.SOLV>
0

>  <SCORE.INTRA.SOLV.lig_0>
-4.28901

>  <SCORE.INTRA.VDW>
0

>  <SCORE.INTRA.VDW.0>
0

>  <SCORE.INTRA.norm>
0

>  <SCORE.RESTR>
0

>  <SCORE.RESTR.CAVITY>
0

>  <SCORE.RESTR.norm>
0

>  <SCORE.SYSTEM>
0

>  <SCORE.SYSTEM.CONST>
0

>  <SCORE.SYSTEM.DIHEDRAL>
0

>  <SCORE.SYSTEM.SOLV>
0

>  <SCORE.SYSTEM.norm>
0

>  <SCORE.heavy>
10

>  <SCORE.norm>
-1.70922

>  <RMSD>
1.013

$$$$
ligand
 OpenBabel11021811423D
libRbt.so/2013.1/901 2013/11/27
 10 11  0  0  0  0  0  0  0  0999 V2000
   11.5885   11.6804    8.6711 N   0  0  0  0  0  0  0  0  0  0  0  0
   11.3733   13.0385    8.5262 C   0  0  0  0  0  0  0  0  0  0  0  0
   11.1127   13.5966    7.3361 N   0  0  0  0  0  0  0  0  0  0  0  0
   11.0878   12.6999    6.3160 C   0  0  0  0  0  0  0  0  0  0  0  0
   11.2947   11.3339    6.3885 C   0  0  0  0  0  0  0  0  0  0  0  0
   11.5715   10.7271    7.6479 C   0  0  0  0  0  0  0  0  0  0  0  0
   11.7853    9.5422    7.9415 O   0  0  0  0  0  0  0  0  0  0  0  0
   11.1800   10.8142    5.1285 N   0  0  0  0  0  0  0  0  0  0  0  0
   10.9045   11.8567    4.3056 C   0  0  0  0  0  0  0  0  0  0  0  0
   10.8420   13.0328    5.0077 N   0  0  0  0  0  0  0  0  0  0  0  0
  1  2  1  0  0  0  0
  1  6  1  0  0  0  0
  2  3  2  0  0  0  0
  3  4  1  0  0  0  0
  4  5  2  0  0  0  0
  4 10  1  0  0  0  0
  5  6  1  0  0  0  0
  5  8  1  0  0  0  0
  6  7  2  0  0  0  0
  8  9  1  0  0  0  0
  9 10  2  0  0  0  0
M  END
>  <CHROM.1>
11.28384251,11.79018078,6.75203726,0.39538113,-1.36556777,0.76010109

>  <Name>
ligand

>  <RI>
0

>  <Rbt.Current_Directory>
/home/itssahil/PROJECTS/Mol_Feturizer/New_Systems/rnas/2EEW

>  <Rbt.Executable>
rbdock ($Id: //depot/dev/client3/rdock/2013.1/src/exe/rbdock.cxx#4 $)

>  <Rbt.Library>
libRbt.so (2013.1, Build901 2013/11/27)

>  <Rbt.Parameter_File>
/export/apps/rDock/src/rDock_2013.1_src/data/scripts/dock_solv.prm

>  <Rbt.Receptor>
prm/pocket_docking_4.prm

>  <SCORE>
-17.1261

>  <SCORE.INTER>
-17.1261

>  <SCORE.INTER.CONST>
1

>  <SCORE.INTER.POLAR>
0

>  <SCORE.INTER.ROT>
0

>  <SCORE.INTER.SOLV>
3.57347

>  <SCORE.INTER.VDW>
-16.2085

>  <SCORE.INTER.norm>
-1.71261

>  <SCORE.INTRA>
0

>  <SCORE.INTRA.DIHEDRAL>
0

>  <SCORE.INTRA.DIHEDRAL.0>
0

>  <SCORE.INTRA.POLAR>
0

>  <SCORE.INTRA.POLAR.0>
0

>  <SCORE.INTRA.REPUL>
0

>  <SCORE.INTRA.REPUL.0>
0

>  <SCORE.INTRA.SOLV>
0

>  <SCORE.INTRA.SOLV.lig_0>
-4.28901

>  <SCORE.INTRA.VDW>
0

>  <SCORE.INTRA.VDW.0>
0

>  <SCORE.INTRA.norm>
0

>  <SCORE.RESTR>
0

>  <SCORE.RESTR.CAVITY>
0

>  <SCORE.RESTR.norm>
0

>  <SCORE.SYSTEM>
0

>  <SCORE.SYSTEM.CONST>
0

>  <SCORE.SYSTEM.DIHEDRAL>
0

>  <SCORE.SYSTEM.SOLV>
0

>  <SCORE.SYSTEM.norm>
0

>  <SCORE.heavy>
10

>  <SCORE.norm>
-1.71261

>  <RMSD>
1.013

$$$$
ligand
 OpenBabel11021811423D
libRbt.so/2013.1/901 2013/11/27
 10 11  0  0  0  0  0  0  0  0999 V2000
   11.5901   11.6751    8.6669 N   0  0  0  0  0  0  0  0  0  0  0  0
   11.3651   13.0320    8.5250 C   0  0  0  0  0  0  0  0  0  0  0  0
   11.1013   13.5910    7.3360 N   0  0  0  0  0  0  0  0  0  0  0  0
   11.0837   12.6965    6.3139 C   0  0  0  0  0  0  0  0  0  0  0  0
   11.3004   11.3319    6.3833 C   0  0  0  0  0  0  0  0  0  0  0  0
   11.5807   10.7242    7.6414 C   0  0  0  0  0  0  0  0  0  0  0  0
   11.8030    9.5402    7.9325 O   0  0  0  0  0  0  0  0  0  0  0  0
   11.1905   10.8143    5.1220 N   0  0  0  0  0  0  0  0  0  0  0  0
   10.9080   11.8568    4.3014 C   0  0  0  0  0  0  0  0  0  0  0  0
   10.8363   13.0307    5.0061 N   0  0  0  0  0  0  0  0  0  0  0  0
  1  2  1  0  0  0  0
  1  6  1  0  0  0  0
  2  3  2  0  0  0  0
  3  4  1  0  0  0  0
  4  5  2  0  0  0  0
  4 10  1  0  0  0  0
  5  6  1  0  0  0  0
  5  8  1  0  0  0  0
  6  7  2  0  0  0  0
  8  9  1  0  0  0  0
  9 10  2  0  0  0  0
M  END
>  <CHROM.1>
11.28600162,11.78723628,6.74787645,0.42316945,-1.36100033,0.78963354

>  <Name>
ligand

>  <RI>
0

>  <Rbt.Current_Directory>
/home/itssahil/PROJECTS/Mol_Feturizer/New_Systems/rnas/2EEW

>  <Rbt.Executable>
rbdock ($Id: //depot/dev/client3/rdock/2013.1/src/exe/rbdock.cxx#4 $)

>  <Rbt.Library>
libRbt.so (2013.1, Build901 2013/11/27)

>  <Rbt.Parameter_File>
/export/apps/rDock/src/rDock_2013.1_src/data/scripts/dock_solv.prm

>  <Rbt.Receptor>
prm/pocket_docking_4.prm

>  <SCORE>
-17.1164

>  <SCORE.INTER>
-17.1164

>  <SCORE.INTER.CONST>
1

>  <SCORE.INTER.POLAR>
0

>  <SCORE.INTER.ROT>
0

>  <SCORE.INTER.SOLV>
3.54947

>  <SCORE.INTER.VDW>
-16.1941

>  <SCORE.INTER.norm>
-1.71164

>  <SCORE.INTRA>
0

>  <SCORE.INTRA.DIHEDRAL>
0

>  <SCORE.INTRA.DIHEDRAL.0>
0

>  <SCORE.INTRA.POLAR>
0

>  <SCORE.INTRA.POLAR.0>
0

>  <SCORE.INTRA.REPUL>
0

>  <SCORE.INTRA.REPUL.0>
0

>  <SCORE.INTRA.SOLV>
0

>  <SCORE.INTRA.SOLV.lig_0>
-4.28901

>  <SCORE.INTRA.VDW>
0

>  <SCORE.INTRA.VDW.0>
0

>  <SCORE.INTRA.norm>
0

>  <SCORE.RESTR>
0

>  <SCORE.RESTR.CAVITY>
0

>  <SCORE.RESTR.norm>
0

>  <SCORE.SYSTEM>
0

>  <SCORE.SYSTEM.CONST>
0

>  <SCORE.SYSTEM.DIHEDRAL>
0

>  <SCORE.SYSTEM.SOLV>
0

>  <SCORE.SYSTEM.norm>
0

>  <SCORE.heavy>
10

>  <SCORE.norm>
-1.71164

>  <RMSD>
1.013

$$$$
ligand
 OpenBabel11021811423D
libRbt.so/2013.1/901 2013/11/27
 10 11  0  0  0  0  0  0  0  0999 V2000
   11.5923   11.6763    8.6670 N   0  0  0  0  0  0  0  0  0  0  0  0
   11.3793   13.0349    8.5225 C   0  0  0  0  0  0  0  0  0  0  0  0
   11.1148   13.5930    7.3333 N   0  0  0  0  0  0  0  0  0  0  0  0
   11.0837   12.6960    6.3137 C   0  0  0  0  0  0  0  0  0  0  0  0
   11.2881   11.3296    6.3859 C   0  0  0  0  0  0  0  0  0  0  0  0
   11.5690   10.7227    7.6443 C   0  0  0  0  0  0  0  0  0  0  0  0
   11.7816    9.5375    7.9375 O   0  0  0  0  0  0  0  0  0  0  0  0
   11.1671   10.8097    5.1266 N   0  0  0  0  0  0  0  0  0  0  0  0
   10.8903   11.8525    4.3045 C   0  0  0  0  0  0  0  0  0  0  0  0
   10.8331   13.0289    5.0063 N   0  0  0  0  0  0  0  0  0  0  0  0
  1  2  1  0  0  0  0
  1  6  1  0  0  0  0
  2  3  2  0  0  0  0
  3  4  1  0  0  0  0
  4  5  2  0  0  0  0
  4 10  1  0  0  0  0
  5  6  1  0  0  0  0
  5  8  1  0  0  0  0
  6  7  2  0  0  0  0
  8  9  1  0  0  0  0
  9 10  2  0  0  0  0
M  END
>  <CHROM.1>
11.27973563,11.78605737,6.74926488,0.37400950,-1.36389931,0.73880691

>  <Name>
ligand

>  <RI>
0

>  <Rbt.Current_Directory>
/home/itssahil/PROJECTS/Mol_Feturizer/New_Systems/rnas/2EEW

>  <Rbt.Executable>
rbdock ($Id: //depot/dev/client3/rdock/2013.1/src/exe/rbdock.cxx#4 $)

>  <Rbt.Library>
libRbt.so (2013.1, Build901 2013/11/27)

>  <Rbt.Parameter_File>
/export/apps/rDock/src/rDock_2013.1_src/data/scripts/dock_solv.prm

>  <Rbt.Receptor>
prm/blind_docking_80.prm

>  <SCORE>
-17.1317

>  <SCORE.INTER>
-17.1317

>  <SCORE.INTER.CONST>
1

>  <SCORE.INTER.POLAR>
0

>  <SCORE.INTER.ROT>
0

>  <SCORE.INTER.SOLV>
3.5727

>  <SCORE.INTER.VDW>
-16.2121

>  <SCORE.INTER.norm>
-1.71317

>  <SCORE.INTRA>
0

>  <SCORE.INTRA.DIHEDRAL>
0

>  <SCORE.INTRA.DIHEDRAL.0>
0

>  <SCORE.INTRA.POLAR>
0

>  <SCORE.INTRA.POLAR.0>
0

>  <SCORE.INTRA.REPUL>
0

>  <SCORE.INTRA.REPUL.0>
0

>  <SCORE.INTRA.SOLV>
0

>  <SCORE.INTRA.SOLV.lig_0>
-4.28901

>  <SCORE.INTRA.VDW>
0

>  <SCORE.INTRA.VDW.0>
0

>  <SCORE.INTRA.norm>
0

>  <SCORE.RESTR>
0

>  <SCORE.RESTR.CAVITY>
0

>  <SCORE.RESTR.norm>
0

>  <SCORE.SYSTEM>
0

>  <SCORE.SYSTEM.CONST>
0

>  <SCORE.SYSTEM.DIHEDRAL>
0

>  <SCORE.SYSTEM.SOLV>
0

>  <SCORE.SYSTEM.norm>
0

>  <SCORE.heavy>
10

>  <SCORE.norm>
-1.71317

>  <RMSD>
1.014

$$$$
ligand
 OpenBabel11021811423D
libRbt.so/2013.1/901 2013/11/27
 10 11  0  0  0  0  0  0  0  0999 V2000
   11.6958   11.4447    8.5136 N   0  0  0  0  0  0  0  0  0  0  0  0
   11.4705   12.8088    8.4956 C   0  0  0  0  0  0  0  0  0  0  0  0
   11.1624   13.4663    7.3693 N   0  0  0  0  0  0  0  0  0  0  0  0
   11.1013   12.6613    6.2769 C   0  0  0  0  0  0  0  0  0  0  0  0
   11.3155   11.2956    6.2224 C   0  0  0  0  0  0  0  0  0  0  0  0
   11.6427   10.5837    7.4128 C   0  0  0  0  0  0  0  0  0  0  0  0
   11.8717    9.3793    7.5939 O   0  0  0  0  0  0  0  0  0  0  0  0
   11.1542   10.8864    4.9273 N   0  0  0  0  0  0  0  0  0  0  0  0
   10.8437   11.9945    4.2092 C   0  0  0  0  0  0  0  0  0  0  0  0
   10.8042   13.1048    5.0127 N   0  0  0  0  0  0  0  0  0  0  0  0
  1  2  1  0  0  0  0
  1  6  1  0  0  0  0
  2  3  2  0  0  0  0
  3  4  1  0  0  0  0
  4  5  2  0  0  0  0
  4 10  1  0  0  0  0
  5  6  1  0  0  0  0
  5  8  1  0  0  0  0
  6  7  2  0  0  0  0
  8  9  1  0  0  0  0
  9 10  2  0  0  0  0
M  END
>  <CHROM.1>
11.31711341,11.71854611,6.62435497,0.29271657,-1.33410591,0.74691181

>  <Name>
ligand

>  <RI>
0

>  <Rbt.Current_Directory>
/home/itssahil/PROJECTS/Mol_Feturizer/New_Systems/rnas/2EEW

>  <Rbt.Executable>
rbdock ($Id: //depot/dev/client3/rdock/2013.1/src/exe/rbdock.cxx#4 $)

>  <Rbt.Library>
libRbt.so (2013.1, Build901 2013/11/27)

>  <Rbt.Parameter_File>
/export/apps/rDock/src/rDock_2013.1_src/data/scripts/dock_solv.prm

>  <Rbt.Receptor>
prm/pocket_docking_6.prm

>  <SCORE>
-17.0583

>  <SCORE.INTER>
-17.0583

>  <SCORE.INTER.CONST>
1

>  <SCORE.INTER.POLAR>
0

>  <SCORE.INTER.ROT>
0

>  <SCORE.INTER.SOLV>
3.42136

>  <SCORE.INTER.VDW>
-16.1127

>  <SCORE.INTER.norm>
-1.70583

>  <SCORE.INTRA>
0

>  <SCORE.INTRA.DIHEDRAL>
0

>  <SCORE.INTRA.DIHEDRAL.0>
0

>  <SCORE.INTRA.POLAR>
0

>  <SCORE.INTRA.POLAR.0>
0

>  <SCORE.INTRA.REPUL>
0

>  <SCORE.INTRA.REPUL.0>
0

>  <SCORE.INTRA.SOLV>
0

>  <SCORE.INTRA.SOLV.lig_0>
-4.28901

>  <SCORE.INTRA.VDW>
0

>  <SCORE.INTRA.VDW.0>
0

>  <SCORE.INTRA.norm>
0

>  <SCORE.RESTR>
0

>  <SCORE.RESTR.CAVITY>
0

>  <SCORE.RESTR.norm>
0

>  <SCORE.SYSTEM>
0

>  <SCORE.SYSTEM.CONST>
0

>  <SCORE.SYSTEM.DIHEDRAL>
0

>  <SCORE.SYSTEM.SOLV>
0

>  <SCORE.SYSTEM.norm>
0

>  <SCORE.heavy>
10

>  <SCORE.norm>
-1.70583

>  <RMSD>
1.014

$$$$
ligand
 OpenBabel11021811423D
libRbt.so/2013.1/901 2013/11/27
 10 11  0  0  0  0  0  0  0  0999 V2000
   11.6238   11.6420    8.6268 N   0  0  0  0  0  0  0  0  0  0  0  0
   11.3943   13.0020    8.5285 C   0  0  0  0  0  0  0  0  0  0  0  0
   11.1171   13.5961    7.3598 N   0  0  0  0  0  0  0  0  0  0  0  0
   11.0911   12.7331    6.3112 C   0  0  0  0  0  0  0  0  0  0  0  0
   11.3117   11.3675    6.3369 C   0  0  0  0  0  0  0  0  0  0  0  0
   11.6062   10.7226    7.5731 C   0  0  0  0  0  0  0  0  0  0  0  0
   11.8341    9.5309    7.8258 O   0  0  0  0  0  0  0  0  0  0  0  0
   11.1901   10.8882    5.0617 N   0  0  0  0  0  0  0  0  0  0  0  0
   10.8969   11.9543    4.2760 C   0  0  0  0  0  0  0  0  0  0  0  0
   10.8298   13.1061    5.0167 N   0  0  0  0  0  0  0  0  0  0  0  0
  1  2  1  0  0  0  0
  1  6  1  0  0  0  0
  2  3  2  0  0  0  0
  3  4  1  0  0  0  0
  4  5  2  0  0  0  0
  4 10  1  0  0  0  0
  5  6  1  0  0  0  0
  5  8  1  0  0  0  0
  6  7  2  0  0  0  0
  8  9  1  0  0  0  0
  9 10  2  0  0  0  0
M  END
>  <CHROM.1>
11.29997771,11.81155697,6.71530753,0.39723966,-1.35213513,0.79467138

>  <Name>
ligand

>  <RI>
0

>  <Rbt.Current_Directory>
/home/itssahil/PROJECTS/Mol_Feturizer/New_Systems/rnas/2EEW

>  <Rbt.Executable>
rbdock ($Id: //depot/dev/client3/rdock/2013.1/src/exe/rbdock.cxx#4 $)

>  <Rbt.Library>
libRbt.so (2013.1, Build901 2013/11/27)

>  <Rbt.Parameter_File>
/export/apps/rDock/src/rDock_2013.1_src/data/scripts/dock_solv.prm

>  <Rbt.Receptor>
prm/pocket_docking_6.prm

>  <SCORE>
-17.0806

>  <SCORE.INTER>
-17.0806

>  <SCORE.INTER.CONST>
1

>  <SCORE.INTER.POLAR>
0

>  <SCORE.INTER.ROT>
0

>  <SCORE.INTER.SOLV>
3.46777

>  <SCORE.INTER.VDW>
-16.143

>  <SCORE.INTER.norm>
-1.70806

>  <SCORE.INTRA>
0

>  <SCORE.INTRA.DIHEDRAL>
0

>  <SCORE.INTRA.DIHEDRAL.0>
0

>  <SCORE.INTRA.POLAR>
0

>  <SCORE.INTRA.POLAR.0>
0

>  <SCORE.INTRA.REPUL>
0

>  <SCORE.INTRA.REPUL.0>
0

>  <SCORE.INTRA.SOLV>
0

>  <SCORE.INTRA.SOLV.lig_0>
-4.28901

>  <SCORE.INTRA.VDW>
0

>  <SCORE.INTRA.VDW.0>
0

>  <SCORE.INTRA.norm>
0

>  <SCORE.RESTR>
0

>  <SCORE.RESTR.CAVITY>
0

>  <SCORE.RESTR.norm>
0

>  <SCORE.SYSTEM>
0

>  <SCORE.SYSTEM.CONST>
0

>  <SCORE.SYSTEM.DIHEDRAL>
0

>  <SCORE.SYSTEM.SOLV>
0

>  <SCORE.SYSTEM.norm>
0

>  <SCORE.heavy>
10

>  <SCORE.norm>
-1.70806

>  <RMSD>
1.014

$$$$
ligand
 OpenBabel11021811423D
libRbt.so/2013.1/901 2013/11/27
 10 11  0  0  0  0  0  0  0  0999 V2000
   11.6119   11.6417    8.6328 N   0  0  0  0  0  0  0  0  0  0  0  0
   11.3974   13.0039    8.5319 C   0  0  0  0  0  0  0  0  0  0  0  0
   11.1284   13.5990    7.3618 N   0  0  0  0  0  0  0  0  0  0  0  0
   11.0945   12.7346    6.3146 C   0  0  0  0  0  0  0  0  0  0  0  0
   11.3001   11.3667    6.3429 C   0  0  0  0  0  0  0  0  0  0  0  0
   11.5858   10.7208    7.5806 C   0  0  0  0  0  0  0  0  0  0  0  0
   11.8003    9.5270    7.8356 O   0  0  0  0  0  0  0  0  0  0  0  0
   11.1751   10.8866    5.0683 N   0  0  0  0  0  0  0  0  0  0  0  0
   10.8947   11.9546    4.2804 C   0  0  0  0  0  0  0  0  0  0  0  0
   10.8391   13.1083    5.0191 N   0  0  0  0  0  0  0  0  0  0  0  0
  1  2  1  0  0  0  0
  1  6  1  0  0  0  0
  2  3  2  0  0  0  0
  3  4  1  0  0  0  0
  4  5  2  0  0  0  0
  4 10  1  0  0  0  0
  5  6  1  0  0  0  0
  5  8  1  0  0  0  0
  6  7  2  0  0  0  0
  8  9  1  0  0  0  0
  9 10  2  0  0  0  0
M  END
>  <CHROM.1>
11.29267910,11.81152423,6.72055751,0.36544778,-1.36083260,0.76193063

>  <Name>
ligand

>  <RI>
0

>  <Rbt.Current_Directory>
/home/itssahil/PROJECTS/Mol_Feturizer/New_Systems/rnas/2EEW

>  <Rbt.Executable>
rbdock ($Id: //depot/dev/client3/rdock/2013.1/src/exe/rbdock.cxx#4 $)

>  <Rbt.Library>
libRbt.so (2013.1, Build901 2013/11/27)

>  <Rbt.Parameter_File>
/export/apps/rDock/src/rDock_2013.1_src/data/scripts/dock_solv.prm

>  <Rbt.Receptor>
prm/pocket_docking_8.prm

>  <SCORE>
-17.0904

>  <SCORE.INTER>
-17.0904

>  <SCORE.INTER.CONST>
1

>  <SCORE.INTER.POLAR>
0

>  <SCORE.INTER.ROT>
0

>  <SCORE.INTER.SOLV>
3.51475

>  <SCORE.INTER.VDW>
-16.1652

>  <SCORE.INTER.norm>
-1.70904

>  <SCORE.INTRA>
0

>  <SCORE.INTRA.DIHEDRAL>
0

>  <SCORE.INTRA.DIHEDRAL.0>
0

>  <SCORE.INTRA.POLAR>
0

>  <SCORE.INTRA.POLAR.0>
0

>  <SCORE.INTRA.REPUL>
0

>  <SCORE.INTRA.REPUL.0>
0

>  <SCORE.INTRA.SOLV>
0

>  <SCORE.INTRA.SOLV.lig_0>
-4.28901

>  <SCORE.INTRA.VDW>
0

>  <SCORE.INTRA.VDW.0>
0

>  <SCORE.INTRA.norm>
0

>  <SCORE.RESTR>
0

>  <SCORE.RESTR.CAVITY>
0

>  <SCORE.RESTR.norm>
0

>  <SCORE.SYSTEM>
0

>  <SCORE.SYSTEM.CONST>
0

>  <SCORE.SYSTEM.DIHEDRAL>
0

>  <SCORE.SYSTEM.SOLV>
0

>  <SCORE.SYSTEM.norm>
0

>  <SCORE.heavy>
10

>  <SCORE.norm>
-1.70904

>  <RMSD>
1.014

$$$$
ligand
 OpenBabel11021811423D
libRbt.so/2013.1/901 2013/11/27
 10 11  0  0  0  0  0  0  0  0999 V2000
   11.6255   11.6437    8.6256 N   0  0  0  0  0  0  0  0  0  0  0  0
   11.3874   13.0020    8.5251 C   0  0  0  0  0  0  0  0  0  0  0  0
   11.1057   13.5923    7.3556 N   0  0  0  0  0  0  0  0  0  0  0  0
   11.0845   12.7274    6.3084 C   0  0  0  0  0  0  0  0  0  0  0  0
   11.3137   11.3633    6.3363 C   0  0  0  0  0  0  0  0  0  0  0  0
   11.6131   10.7224    7.5734 C   0  0  0  0  0  0  0  0  0  0  0  0
   11.8487    9.5325    7.8280 O   0  0  0  0  0  0  0  0  0  0  0  0
   11.1943   10.8810    5.0620 N   0  0  0  0  0  0  0  0  0  0  0  0
   10.8939   11.9440    4.2747 C   0  0  0  0  0  0  0  0  0  0  0  0
   10.8199   13.0966    5.0135 N   0  0  0  0  0  0  0  0  0  0  0  0
  1  2  1  0  0  0  0
  1  6  1  0  0  0  0
  2  3  2  0  0  0  0
  3  4  1  0  0  0  0
  4  5  2  0  0  0  0
  4 10  1  0  0  0  0
  5  6  1  0  0  0  0
  5  8  1  0  0  0  0
  6  7  2  0  0  0  0
  8  9  1  0  0  0  0
  9 10  2  0  0  0  0
M  END
>  <CHROM.1>
11.29938716,11.80789055,6.71396637,0.41520013,-1.34713937,0.81050327

>  <Name>
ligand

>  <RI>
0

>  <Rbt.Current_Directory>
/home/itssahil/PROJECTS/Mol_Feturizer/New_Systems/rnas/2EEW

>  <Rbt.Executable>
rbdock ($Id: //depot/dev/client3/rdock/2013.1/src/exe/rbdock.cxx#4 $)

>  <Rbt.Library>
libRbt.so (2013.1, Build901 2013/11/27)

>  <Rbt.Parameter_File>
/export/apps/rDock/src/rDock_2013.1_src/data/scripts/dock_solv.prm

>  <Rbt.Receptor>
prm/blind_docking_60.prm

>  <SCORE>
-17.0697

>  <SCORE.INTER>
-17.0697

>  <SCORE.INTER.CONST>
1

>  <SCORE.INTER.POLAR>
0

>  <SCORE.INTER.ROT>
0

>  <SCORE.INTER.SOLV>
3.44743

>  <SCORE.INTER.VDW>
-16.129

>  <SCORE.INTER.norm>
-1.70697

>  <SCORE.INTRA>
0

>  <SCORE.INTRA.DIHEDRAL>
0

>  <SCORE.INTRA.DIHEDRAL.0>
0

>  <SCORE.INTRA.POLAR>
0

>  <SCORE.INTRA.POLAR.0>
0

>  <SCORE.INTRA.REPUL>
0

>  <SCORE.INTRA.REPUL.0>
0

>  <SCORE.INTRA.SOLV>
0

>  <SCORE.INTRA.SOLV.lig_0>
-4.28901

>  <SCORE.INTRA.VDW>
0

>  <SCORE.INTRA.VDW.0>
0

>  <SCORE.INTRA.norm>
0

>  <SCORE.RESTR>
0

>  <SCORE.RESTR.CAVITY>
0

>  <SCORE.RESTR.norm>
0

>  <SCORE.SYSTEM>
0

>  <SCORE.SYSTEM.CONST>
0

>  <SCORE.SYSTEM.DIHEDRAL>
0

>  <SCORE.SYSTEM.SOLV>
0

>  <SCORE.SYSTEM.norm>
0

>  <SCORE.heavy>
10

>  <SCORE.norm>
-1.70697

>  <RMSD>
1.015

$$$$
ligand
 OpenBabel11021811423D
libRbt.so/2013.1/901 2013/11/27
 10 11  0  0  0  0  0  0  0  0999 V2000
   11.6269   11.4484    8.5392 N   0  0  0  0  0  0  0  0  0  0  0  0
   11.4282   12.8166    8.5144 C   0  0  0  0  0  0  0  0  0  0  0  0
   11.1573   13.4778    7.3808 N   0  0  0  0  0  0  0  0  0  0  0  0
   11.1047   12.6722    6.2884 C   0  0  0  0  0  0  0  0  0  0  0  0
   11.2939   11.3025    6.2404 C   0  0  0  0  0  0  0  0  0  0  0  0
   11.5814   10.5867    7.4386 C   0  0  0  0  0  0  0  0  0  0  0  0
   11.7833    9.3784    7.6263 O   0  0  0  0  0  0  0  0  0  0  0  0
   11.1531   10.8942    4.9426 N   0  0  0  0  0  0  0  0  0  0  0  0
   10.8796   12.0068    4.2165 C   0  0  0  0  0  0  0  0  0  0  0  0
   10.8438   13.1191    5.0174 N   0  0  0  0  0  0  0  0  0  0  0  0
  1  2  1  0  0  0  0
  1  6  1  0  0  0  0
  2  3  2  0  0  0  0
  3  4  1  0  0  0  0
  4  5  2  0  0  0  0
  4 10  1  0  0  0  0
  5  6  1  0  0  0  0
  5  8  1  0  0  0  0
  6  7  2  0  0  0  0
  8  9  1  0  0  0  0
  9 10  2  0  0  0  0
M  END
>  <CHROM.1>
11.29483984,11.72611640,6.64173641,0.29663817,-1.36310502,0.74919032

>  <Name>
ligand

>  <RI>
0

>  <Rbt.Current_Directory>
/home/itssahil/PROJECTS/Mol_Feturizer/New_Systems/rnas/2EEW

>  <Rbt.Executable>
rbdock ($Id: //depot/dev/client3/rdock/2013.1/src/exe/rbdock.cxx#4 $)

>  <Rbt.Library>
libRbt.so (2013.1, Build901 2013/11/27)

>  <Rbt.Parameter_File>
/export/apps/rDock/src/rDock_2013.1_src/data/scripts/dock_solv.prm

>  <Rbt.Receptor>
prm/pocket_docking_8.prm

>  <SCORE>
-17.06

>  <SCORE.INTER>
-17.06

>  <SCORE.INTER.CONST>
1

>  <SCORE.INTER.POLAR>
0

>  <SCORE.INTER.ROT>
0

>  <SCORE.INTER.SOLV>
3.53926

>  <SCORE.INTER.VDW>
-16.1531

>  <SCORE.INTER.norm>
-1.706

>  <SCORE.INTRA>
0

>  <SCORE.INTRA.DIHEDRAL>
0

>  <SCORE.INTRA.DIHEDRAL.0>
0

>  <SCORE.INTRA.POLAR>
0

>  <SCORE.INTRA.POLAR.0>
0

>  <SCORE.INTRA.REPUL>
0

>  <SCORE.INTRA.REPUL.0>
0

>  <SCORE.INTRA.SOLV>
0

>  <SCORE.INTRA.SOLV.lig_0>
-4.28901

>  <SCORE.INTRA.VDW>
0

>  <SCORE.INTRA.VDW.0>
0

>  <SCORE.INTRA.norm>
0

>  <SCORE.RESTR>
0

>  <SCORE.RESTR.CAVITY>
0

>  <SCORE.RESTR.norm>
0

>  <SCORE.SYSTEM>
0

>  <SCORE.SYSTEM.CONST>
0

>  <SCORE.SYSTEM.DIHEDRAL>
0

>  <SCORE.SYSTEM.SOLV>
0

>  <SCORE.SYSTEM.norm>
0

>  <SCORE.heavy>
10

>  <SCORE.norm>
-1.706

>  <RMSD>
1.015

$$$$
ligand
 OpenBabel11021811423D
libRbt.so/2013.1/901 2013/11/27
 10 11  0  0  0  0  0  0  0  0999 V2000
   11.6918   11.4464    8.5201 N   0  0  0  0  0  0  0  0  0  0  0  0
   11.5180   12.8179    8.4993 C   0  0  0  0  0  0  0  0  0  0  0  0
   11.2319   13.4838    7.3722 N   0  0  0  0  0  0  0  0  0  0  0  0
   11.1378   12.6792    6.2819 C   0  0  0  0  0  0  0  0  0  0  0  0
   11.3003   11.3062    6.2302 C   0  0  0  0  0  0  0  0  0  0  0  0
   11.6035   10.5854    7.4215 C   0  0  0  0  0  0  0  0  0  0  0  0
   11.7875    9.3736    7.6051 O   0  0  0  0  0  0  0  0  0  0  0  0
   11.1204   10.9003    4.9365 N   0  0  0  0  0  0  0  0  0  0  0  0
   10.8500   12.0176    4.2165 C   0  0  0  0  0  0  0  0  0  0  0  0
   10.8543   13.1305    5.0173 N   0  0  0  0  0  0  0  0  0  0  0  0
  1  2  1  0  0  0  0
  1  6  1  0  0  0  0
  2  3  2  0  0  0  0
  3  4  1  0  0  0  0
  4  5  2  0  0  0  0
  4 10  1  0  0  0  0
  5  6  1  0  0  0  0
  5  8  1  0  0  0  0
  6  7  2  0  0  0  0
  8  9  1  0  0  0  0
  9 10  2  0  0  0  0
M  END
>  <CHROM.1>
11.31884772,11.72976879,6.63111421,0.15470656,-1.35580387,0.60996770

>  <Name>
ligand

>  <RI>
0

>  <Rbt.Current_Directory>
/home/itssahil/PROJECTS/Mol_Feturizer/New_Systems/rnas/2EEW

>  <Rbt.Executable>
rbdock ($Id: //depot/dev/client3/rdock/2013.1/src/exe/rbdock.cxx#4 $)

>  <Rbt.Library>
libRbt.so (2013.1, Build901 2013/11/27)

>  <Rbt.Parameter_File>
/export/apps/rDock/src/rDock_2013.1_src/data/scripts/dock_solv.prm

>  <Rbt.Receptor>
prm/blind_docking_40.prm

>  <SCORE>
-17.0638

>  <SCORE.INTER>
-17.0638

>  <SCORE.INTER.CONST>
1

>  <SCORE.INTER.POLAR>
0

>  <SCORE.INTER.ROT>
0

>  <SCORE.INTER.SOLV>
3.54315

>  <SCORE.INTER.VDW>
-16.1569

>  <SCORE.INTER.norm>
-1.70638

>  <SCORE.INTRA>
0

>  <SCORE.INTRA.DIHEDRAL>
0

>  <SCORE.INTRA.DIHEDRAL.0>
0

>  <SCORE.INTRA.POLAR>
0

>  <SCORE.INTRA.POLAR.0>
0

>  <SCORE.INTRA.REPUL>
0

>  <SCORE.INTRA.REPUL.0>
0

>  <SCORE.INTRA.SOLV>
0

>  <SCORE.INTRA.SOLV.lig_0>
-4.28901

>  <SCORE.INTRA.VDW>
0

>  <SCORE.INTRA.VDW.0>
0

>  <SCORE.INTRA.norm>
0

>  <SCORE.RESTR>
0

>  <SCORE.RESTR.CAVITY>
0

>  <SCORE.RESTR.norm>
0

>  <SCORE.SYSTEM>
0

>  <SCORE.SYSTEM.CONST>
0

>  <SCORE.SYSTEM.DIHEDRAL>
0

>  <SCORE.SYSTEM.SOLV>
0

>  <SCORE.SYSTEM.norm>
0

>  <SCORE.heavy>
10

>  <SCORE.norm>
-1.70638

>  <RMSD>
1.016

$$$$
ligand
 OpenBabel11021811423D
libRbt.so/2013.1/901 2013/11/27
 10 11  0  0  0  0  0  0  0  0999 V2000
   11.6165   11.6423    8.6283 N   0  0  0  0  0  0  0  0  0  0  0  0
   11.3981   13.0041    8.5296 C   0  0  0  0  0  0  0  0  0  0  0  0
   11.1264   13.6001    7.3606 N   0  0  0  0  0  0  0  0  0  0  0  0
   11.0941   12.7371    6.3121 C   0  0  0  0  0  0  0  0  0  0  0  0
   11.3037   11.3698    6.3383 C   0  0  0  0  0  0  0  0  0  0  0  0
   11.5922   10.7228    7.5748 C   0  0  0  0  0  0  0  0  0  0  0  0
   11.8103    9.5293    7.8278 O   0  0  0  0  0  0  0  0  0  0  0  0
   11.1790   10.8912    5.0630 N   0  0  0  0  0  0  0  0  0  0  0  0
   10.8949   11.9595    4.2769 C   0  0  0  0  0  0  0  0  0  0  0  0
   10.8366   13.1120    5.0174 N   0  0  0  0  0  0  0  0  0  0  0  0
  1  2  1  0  0  0  0
  1  6  1  0  0  0  0
  2  3  2  0  0  0  0
  3  4  1  0  0  0  0
  4  5  2  0  0  0  0
  4 10  1  0  0  0  0
  5  6  1  0  0  0  0
  5  8  1  0  0  0  0
  6  7  2  0  0  0  0
  8  9  1  0  0  0  0
  9 10  2  0  0  0  0
M  END
>  <CHROM.1>
11.29525998,11.81400377,6.71654100,0.37260485,-1.35826510,0.77039870

>  <Name>
ligand

>  <RI>
0

>  <Rbt.Current_Directory>
/home/itssahil/PROJECTS/Mol_Feturizer/New_Systems/rnas/2EEW

>  <Rbt.Executable>
rbdock ($Id: //depot/dev/client3/rdock/2013.1/src/exe/rbdock.cxx#4 $)

>  <Rbt.Library>
libRbt.so (2013.1, Build901 2013/11/27)

>  <Rbt.Parameter_File>
/export/apps/rDock/src/rDock_2013.1_src/data/scripts/dock_solv.prm

>  <Rbt.Receptor>
prm/pocket_docking_6.prm

>  <SCORE>
-17.089

>  <SCORE.INTER>
-17.089

>  <SCORE.INTER.CONST>
1

>  <SCORE.INTER.POLAR>
0

>  <SCORE.INTER.ROT>
0

>  <SCORE.INTER.SOLV>
3.49859

>  <SCORE.INTER.VDW>
-16.1589

>  <SCORE.INTER.norm>
-1.7089

>  <SCORE.INTRA>
0

>  <SCORE.INTRA.DIHEDRAL>
0

>  <SCORE.INTRA.DIHEDRAL.0>
0

>  <SCORE.INTRA.POLAR>
0

>  <SCORE.INTRA.POLAR.0>
0

>  <SCORE.INTRA.REPUL>
0

>  <SCORE.INTRA.REPUL.0>
0

>  <SCORE.INTRA.SOLV>
0

>  <SCORE.INTRA.SOLV.lig_0>
-4.28901

>  <SCORE.INTRA.VDW>
0

>  <SCORE.INTRA.VDW.0>
0

>  <SCORE.INTRA.norm>
0

>  <SCORE.RESTR>
0

>  <SCORE.RESTR.CAVITY>
0

>  <SCORE.RESTR.norm>
0

>  <SCORE.SYSTEM>
0

>  <SCORE.SYSTEM.CONST>
0

>  <SCORE.SYSTEM.DIHEDRAL>
0

>  <SCORE.SYSTEM.SOLV>
0

>  <SCORE.SYSTEM.norm>
0

>  <SCORE.heavy>
10

>  <SCORE.norm>
-1.7089

>  <RMSD>
1.016

$$$$
ligand
 OpenBabel11021811423D
libRbt.so/2013.1/901 2013/11/27
 10 11  0  0  0  0  0  0  0  0999 V2000
   11.5662   11.6648    8.6646 N   0  0  0  0  0  0  0  0  0  0  0  0
   11.3470   13.0235    8.5310 C   0  0  0  0  0  0  0  0  0  0  0  0
   11.0924   13.5918    7.3445 N   0  0  0  0  0  0  0  0  0  0  0  0
   11.0776   12.7047    6.3159 C   0  0  0  0  0  0  0  0  0  0  0  0
   11.2890   11.3387    6.3769 C   0  0  0  0  0  0  0  0  0  0  0  0
   11.5595   10.7211    7.6324 C   0  0  0  0  0  0  0  0  0  0  0  0
   11.7757    9.5343    7.9163 O   0  0  0  0  0  0  0  0  0  0  0  0
   11.1847   10.8305    5.1114 N   0  0  0  0  0  0  0  0  0  0  0  0
   10.9110   11.8798    4.2965 C   0  0  0  0  0  0  0  0  0  0  0  0
   10.8394   13.0490    5.0091 N   0  0  0  0  0  0  0  0  0  0  0  0
  1  2  1  0  0  0  0
  1  6  1  0  0  0  0
  2  3  2  0  0  0  0
  3  4  1  0  0  0  0
  4  5  2  0  0  0  0
  4 10  1  0  0  0  0
  5  6  1  0  0  0  0
  5  8  1  0  0  0  0
  6  7  2  0  0  0  0
  8  9  1  0  0  0  0
  9 10  2  0  0  0  0
M  END
>  <CHROM.1>
11.27402531,11.79157998,6.74465355,0.43155228,-1.36781129,0.80492518

>  <Name>
ligand

>  <RI>
0

>  <Rbt.Current_Directory>
/home/itssahil/PROJECTS/Mol_Feturizer/New_Systems/rnas/2EEW

>  <Rbt.Executable>
rbdock ($Id: //depot/dev/client3/rdock/2013.1/src/exe/rbdock.cxx#4 $)

>  <Rbt.Library>
libRbt.so (2013.1, Build901 2013/11/27)

>  <Rbt.Parameter_File>
/export/apps/rDock/src/rDock_2013.1_src/data/scripts/dock_solv.prm

>  <Rbt.Receptor>
prm/pocket_docking_8.prm

>  <SCORE>
-17.0837

>  <SCORE.INTER>
-17.0837

>  <SCORE.INTER.CONST>
1

>  <SCORE.INTER.POLAR>
0

>  <SCORE.INTER.ROT>
0

>  <SCORE.INTER.SOLV>
3.56684

>  <SCORE.INTER.VDW>
-16.1781

>  <SCORE.INTER.norm>
-1.70837

>  <SCORE.INTRA>
0

>  <SCORE.INTRA.DIHEDRAL>
0

>  <SCORE.INTRA.DIHEDRAL.0>
0

>  <SCORE.INTRA.POLAR>
0

>  <SCORE.INTRA.POLAR.0>
0

>  <SCORE.INTRA.REPUL>
0

>  <SCORE.INTRA.REPUL.0>
0

>  <SCORE.INTRA.SOLV>
0

>  <SCORE.INTRA.SOLV.lig_0>
-4.28901

>  <SCORE.INTRA.VDW>
0

>  <SCORE.INTRA.VDW.0>
0

>  <SCORE.INTRA.norm>
0

>  <SCORE.RESTR>
0

>  <SCORE.RESTR.CAVITY>
0

>  <SCORE.RESTR.norm>
0

>  <SCORE.SYSTEM>
0

>  <SCORE.SYSTEM.CONST>
0

>  <SCORE.SYSTEM.DIHEDRAL>
0

>  <SCORE.SYSTEM.SOLV>
0

>  <SCORE.SYSTEM.norm>
0

>  <SCORE.heavy>
10

>  <SCORE.norm>
-1.70837

>  <RMSD>
1.016

$$$$
ligand
 OpenBabel11021811423D
libRbt.so/2013.1/901 2013/11/27
 10 11  0  0  0  0  0  0  0  0999 V2000
   11.6085   11.6402    8.6320 N   0  0  0  0  0  0  0  0  0  0  0  0
   11.3947   13.0020    8.5239 C   0  0  0  0  0  0  0  0  0  0  0  0
   11.1283   13.5914    7.3504 N   0  0  0  0  0  0  0  0  0  0  0  0
   11.0962   12.7219    6.3074 C   0  0  0  0  0  0  0  0  0  0  0  0
   11.3013   11.3541    6.3428 C   0  0  0  0  0  0  0  0  0  0  0  0
   11.5842   10.7141    7.5843 C   0  0  0  0  0  0  0  0  0  0  0  0
   11.7978    9.5216    7.8456 O   0  0  0  0  0  0  0  0  0  0  0  0
   11.1787   10.8678    5.0703 N   0  0  0  0  0  0  0  0  0  0  0  0
   10.9003   11.9320    4.2766 C   0  0  0  0  0  0  0  0  0  0  0  0
   10.8435   13.0893    5.0096 N   0  0  0  0  0  0  0  0  0  0  0  0
  1  2  1  0  0  0  0
  1  6  1  0  0  0  0
  2  3  2  0  0  0  0
  3  4  1  0  0  0  0
  4  5  2  0  0  0  0
  4 10  1  0  0  0  0
  5  6  1  0  0  0  0
  5  8  1  0  0  0  0
  6  7  2  0  0  0  0
  8  9  1  0  0  0  0
  9 10  2  0  0  0  0
M  END
>  <CHROM.1>
11.29324837,11.80075107,6.71825797,0.37106678,-1.36253502,0.76251948

>  <Name>
ligand

>  <RI>
0

>  <Rbt.Current_Directory>
/home/itssahil/PROJECTS/Mol_Feturizer/New_Systems/rnas/2EEW

>  <Rbt.Executable>
rbdock ($Id: //depot/dev/client3/rdock/2013.1/src/exe/rbdock.cxx#4 $)

>  <Rbt.Library>
libRbt.so (2013.1, Build901 2013/11/27)

>  <Rbt.Parameter_File>
/export/apps/rDock/src/rDock_2013.1_src/data/scripts/dock_solv.prm

>  <Rbt.Receptor>
prm/pocket_docking_6.prm

>  <SCORE>
-17.0825

>  <SCORE.INTER>
-17.0825

>  <SCORE.INTER.CONST>
1

>  <SCORE.INTER.POLAR>
0

>  <SCORE.INTER.ROT>
0

>  <SCORE.INTER.SOLV>
3.52509

>  <SCORE.INTER.VDW>
-16.1634

>  <SCORE.INTER.norm>
-1.70825

>  <SCORE.INTRA>
0

>  <SCORE.INTRA.DIHEDRAL>
0

>  <SCORE.INTRA.DIHEDRAL.0>
0

>  <SCORE.INTRA.POLAR>
0

>  <SCORE.INTRA.POLAR.0>
0

>  <SCORE.INTRA.REPUL>
0

>  <SCORE.INTRA.REPUL.0>
0

>  <SCORE.INTRA.SOLV>
0

>  <SCORE.INTRA.SOLV.lig_0>
-4.28901

>  <SCORE.INTRA.VDW>
0

>  <SCORE.INTRA.VDW.0>
0

>  <SCORE.INTRA.norm>
0

>  <SCORE.RESTR>
0

>  <SCORE.RESTR.CAVITY>
0

>  <SCORE.RESTR.norm>
0

>  <SCORE.SYSTEM>
0

>  <SCORE.SYSTEM.CONST>
0

>  <SCORE.SYSTEM.DIHEDRAL>
0

>  <SCORE.SYSTEM.SOLV>
0

>  <SCORE.SYSTEM.norm>
0

>  <SCORE.heavy>
10

>  <SCORE.norm>
-1.70825

>  <RMSD>
1.017

$$$$
ligand
 OpenBabel11021811423D
libRbt.so/2013.1/901 2013/11/27
 10 11  0  0  0  0  0  0  0  0999 V2000
   11.6865   11.4505    8.5193 N   0  0  0  0  0  0  0  0  0  0  0  0
   11.4855   12.8182    8.4902 C   0  0  0  0  0  0  0  0  0  0  0  0
   11.1969   13.4729    7.3572 N   0  0  0  0  0  0  0  0  0  0  0  0
   11.1294   12.6614    6.2700 C   0  0  0  0  0  0  0  0  0  0  0  0
   11.3199   11.2918    6.2266 C   0  0  0  0  0  0  0  0  0  0  0  0
   11.6260   10.5828    7.4242 C   0  0  0  0  0  0  0  0  0  0  0  0
   11.8325    9.3758    7.6154 O   0  0  0  0  0  0  0  0  0  0  0  0
   11.1605   10.8763    4.9332 N   0  0  0  0  0  0  0  0  0  0  0  0
   10.8747   11.9846    4.2052 C   0  0  0  0  0  0  0  0  0  0  0  0
   10.8490   13.1011    5.0007 N   0  0  0  0  0  0  0  0  0  0  0  0
  1  2  1  0  0  0  0
  1  6  1  0  0  0  0
  2  3  2  0  0  0  0
  3  4  1  0  0  0  0
  4  5  2  0  0  0  0
  4 10  1  0  0  0  0
  5  6  1  0  0  0  0
  5  8  1  0  0  0  0
  6  7  2  0  0  0  0
  8  9  1  0  0  0  0
  9 10  2  0  0  0  0
M  END
>  <CHROM.1>
11.32607657,11.71751097,6.62558324,0.25543436,-1.35111378,0.70355685

>  <Name>
ligand

>  <RI>
0

>  <Rbt.Current_Directory>
/home/itssahil/PROJECTS/Mol_Feturizer/New_Systems/rnas/2EEW

>  <Rbt.Executable>
rbdock ($Id: //depot/dev/client3/rdock/2013.1/src/exe/rbdock.cxx#4 $)

>  <Rbt.Library>
libRbt.so (2013.1, Build901 2013/11/27)

>  <Rbt.Parameter_File>
/export/apps/rDock/src/rDock_2013.1_src/data/scripts/dock_solv.prm

>  <Rbt.Receptor>
prm/blind_docking_100.prm

>  <SCORE>
-17.0719

>  <SCORE.INTER>
-17.0719

>  <SCORE.INTER.CONST>
1

>  <SCORE.INTER.POLAR>
0

>  <SCORE.INTER.ROT>
0

>  <SCORE.INTER.SOLV>
3.48717

>  <SCORE.INTER.VDW>
-16.1436

>  <SCORE.INTER.norm>
-1.70719

>  <SCORE.INTRA>
0

>  <SCORE.INTRA.DIHEDRAL>
0

>  <SCORE.INTRA.DIHEDRAL.0>
0

>  <SCORE.INTRA.POLAR>
0

>  <SCORE.INTRA.POLAR.0>
0

>  <SCORE.INTRA.REPUL>
0

>  <SCORE.INTRA.REPUL.0>
0

>  <SCORE.INTRA.SOLV>
0

>  <SCORE.INTRA.SOLV.lig_0>
-4.28901

>  <SCORE.INTRA.VDW>
0

>  <SCORE.INTRA.VDW.0>
0

>  <SCORE.INTRA.norm>
0

>  <SCORE.RESTR>
0

>  <SCORE.RESTR.CAVITY>
0

>  <SCORE.RESTR.norm>
0

>  <SCORE.SYSTEM>
0

>  <SCORE.SYSTEM.CONST>
0

>  <SCORE.SYSTEM.DIHEDRAL>
0

>  <SCORE.SYSTEM.SOLV>
0

>  <SCORE.SYSTEM.norm>
0

>  <SCORE.heavy>
10

>  <SCORE.norm>
-1.70719

>  <RMSD>
1.018

$$$$
ligand
 OpenBabel11021811423D
libRbt.so/2013.1/901 2013/11/27
 10 11  0  0  0  0  0  0  0  0999 V2000
   11.6794   11.5091    8.5429 N   0  0  0  0  0  0  0  0  0  0  0  0
   11.4637   12.8740    8.4926 C   0  0  0  0  0  0  0  0  0  0  0  0
   11.1703   13.5082    7.3492 N   0  0  0  0  0  0  0  0  0  0  0  0
   11.1136   12.6796    6.2744 C   0  0  0  0  0  0  0  0  0  0  0  0
   11.3189   11.3116    6.2521 C   0  0  0  0  0  0  0  0  0  0  0  0
   11.6303   10.6242    7.4610 C   0  0  0  0  0  0  0  0  0  0  0  0
   11.8494    9.4226    7.6709 O   0  0  0  0  0  0  0  0  0  0  0  0
   11.1665   10.8748    4.9650 N   0  0  0  0  0  0  0  0  0  0  0  0
   10.8702   11.9687    4.2197 C   0  0  0  0  0  0  0  0  0  0  0  0
   10.8310   13.0968    4.9980 N   0  0  0  0  0  0  0  0  0  0  0  0
  1  2  1  0  0  0  0
  1  6  1  0  0  0  0
  2  3  2  0  0  0  0
  3  4  1  0  0  0  0
  4  5  2  0  0  0  0
  4 10  1  0  0  0  0
  5  6  1  0  0  0  0
  5  8  1  0  0  0  0
  6  7  2  0  0  0  0
  8  9  1  0  0  0  0
  9 10  2  0  0  0  0
M  END
>  <CHROM.1>
11.31974093,11.74338747,6.64462785,0.29778319,-1.34542119,0.72963694

>  <Name>
ligand

>  <RI>
0

>  <Rbt.Current_Directory>
/home/itssahil/PROJECTS/Mol_Feturizer/New_Systems/rnas/2EEW

>  <Rbt.Executable>
rbdock ($Id: //depot/dev/client3/rdock/2013.1/src/exe/rbdock.cxx#4 $)

>  <Rbt.Library>
libRbt.so (2013.1, Build901 2013/11/27)

>  <Rbt.Parameter_File>
/export/apps/rDock/src/rDock_2013.1_src/data/scripts/dock_solv.prm

>  <Rbt.Receptor>
prm/blind_docking_100.prm

>  <SCORE>
-17.0483

>  <SCORE.INTER>
-17.0483

>  <SCORE.INTER.CONST>
1

>  <SCORE.INTER.POLAR>
0

>  <SCORE.INTER.ROT>
0

>  <SCORE.INTER.SOLV>
3.446

>  <SCORE.INTER.VDW>
-16.1142

>  <SCORE.INTER.norm>
-1.70483

>  <SCORE.INTRA>
0

>  <SCORE.INTRA.DIHEDRAL>
0

>  <SCORE.INTRA.DIHEDRAL.0>
0

>  <SCORE.INTRA.POLAR>
0

>  <SCORE.INTRA.POLAR.0>
0

>  <SCORE.INTRA.REPUL>
0

>  <SCORE.INTRA.REPUL.0>
0

>  <SCORE.INTRA.SOLV>
0

>  <SCORE.INTRA.SOLV.lig_0>
-4.28901

>  <SCORE.INTRA.VDW>
0

>  <SCORE.INTRA.VDW.0>
0

>  <SCORE.INTRA.norm>
0

>  <SCORE.RESTR>
0

>  <SCORE.RESTR.CAVITY>
0

>  <SCORE.RESTR.norm>
0

>  <SCORE.SYSTEM>
0

>  <SCORE.SYSTEM.CONST>
0

>  <SCORE.SYSTEM.DIHEDRAL>
0

>  <SCORE.SYSTEM.SOLV>
0

>  <SCORE.SYSTEM.norm>
0

>  <SCORE.heavy>
10

>  <SCORE.norm>
-1.70483

>  <RMSD>
1.019

$$$$
ligand
 OpenBabel11021811423D
libRbt.so/2013.1/901 2013/11/27
 10 11  0  0  0  0  0  0  0  0999 V2000
   11.6311   11.6467    8.6225 N   0  0  0  0  0  0  0  0  0  0  0  0
   11.4067   13.0071    8.5184 C   0  0  0  0  0  0  0  0  0  0  0  0
   11.1260   13.5964    7.3482 N   0  0  0  0  0  0  0  0  0  0  0  0
   11.0911   12.7283    6.3041 C   0  0  0  0  0  0  0  0  0  0  0  0
   11.3061   11.3619    6.3356 C   0  0  0  0  0  0  0  0  0  0  0  0
   11.6043   10.7221    7.5735 C   0  0  0  0  0  0  0  0  0  0  0  0
   11.8285    9.5307    7.8311 O   0  0  0  0  0  0  0  0  0  0  0  0
   11.1760   10.8767    5.0634 N   0  0  0  0  0  0  0  0  0  0  0  0
   10.8832   11.9401    4.2738 C   0  0  0  0  0  0  0  0  0  0  0  0
   10.8246   13.0959    5.0091 N   0  0  0  0  0  0  0  0  0  0  0  0
  1  2  1  0  0  0  0
  1  6  1  0  0  0  0
  2  3  2  0  0  0  0
  3  4  1  0  0  0  0
  4  5  2  0  0  0  0
  4 10  1  0  0  0  0
  5  6  1  0  0  0  0
  5  8  1  0  0  0  0
  6  7  2  0  0  0  0
  8  9  1  0  0  0  0
  9 10  2  0  0  0  0
M  END
>  <CHROM.1>
11.29816970,11.80792825,6.71178525,0.36713465,-1.35140853,0.76022821

>  <Name>
ligand

>  <RI>
0

>  <Rbt.Current_Directory>
/home/itssahil/PROJECTS/Mol_Feturizer/New_Systems/rnas/2EEW

>  <Rbt.Executable>
rbdock ($Id: //depot/dev/client3/rdock/2013.1/src/exe/rbdock.cxx#4 $)

>  <Rbt.Library>
libRbt.so (2013.1, Build901 2013/11/27)

>  <Rbt.Parameter_File>
/export/apps/rDock/src/rDock_2013.1_src/data/scripts/dock_solv.prm

>  <Rbt.Receptor>
prm/pocket_docking_6.prm

>  <SCORE>
-17.0868

>  <SCORE.INTER>
-17.0868

>  <SCORE.INTER.CONST>
1

>  <SCORE.INTER.POLAR>
0

>  <SCORE.INTER.ROT>
0

>  <SCORE.INTER.SOLV>
3.4757

>  <SCORE.INTER.VDW>
-16.1497

>  <SCORE.INTER.norm>
-1.70868

>  <SCORE.INTRA>
0

>  <SCORE.INTRA.DIHEDRAL>
0

>  <SCORE.INTRA.DIHEDRAL.0>
0

>  <SCORE.INTRA.POLAR>
0

>  <SCORE.INTRA.POLAR.0>
0

>  <SCORE.INTRA.REPUL>
0

>  <SCORE.INTRA.REPUL.0>
0

>  <SCORE.INTRA.SOLV>
0

>  <SCORE.INTRA.SOLV.lig_0>
-4.28901

>  <SCORE.INTRA.VDW>
0

>  <SCORE.INTRA.VDW.0>
0

>  <SCORE.INTRA.norm>
0

>  <SCORE.RESTR>
0

>  <SCORE.RESTR.CAVITY>
0

>  <SCORE.RESTR.norm>
0

>  <SCORE.SYSTEM>
0

>  <SCORE.SYSTEM.CONST>
0

>  <SCORE.SYSTEM.DIHEDRAL>
0

>  <SCORE.SYSTEM.SOLV>
0

>  <SCORE.SYSTEM.norm>
0

>  <SCORE.heavy>
10

>  <SCORE.norm>
-1.70868

>  <RMSD>
1.019

$$$$
ligand
 OpenBabel11021811423D
libRbt.so/2013.1/901 2013/11/27
 10 11  0  0  0  0  0  0  0  0999 V2000
   11.7374   11.4497    8.4991 N   0  0  0  0  0  0  0  0  0  0  0  0
   11.4942   12.8106    8.4759 C   0  0  0  0  0  0  0  0  0  0  0  0
   11.1718   13.4587    7.3483 N   0  0  0  0  0  0  0  0  0  0  0  0
   11.1157   12.6479    6.2598 C   0  0  0  0  0  0  0  0  0  0  0  0
   11.3474   11.2848    6.2106 C   0  0  0  0  0  0  0  0  0  0  0  0
   11.6899   10.5829    7.4025 C   0  0  0  0  0  0  0  0  0  0  0  0
   11.9356    9.3824    7.5880 O   0  0  0  0  0  0  0  0  0  0  0  0
   11.1849   10.8675    4.9182 N   0  0  0  0  0  0  0  0  0  0  0  0
   10.8563   11.9681    4.1966 C   0  0  0  0  0  0  0  0  0  0  0  0
   10.8064   13.0816    4.9952 N   0  0  0  0  0  0  0  0  0  0  0  0
  1  2  1  0  0  0  0
  1  6  1  0  0  0  0
  2  3  2  0  0  0  0
  3  4  1  0  0  0  0
  4  5  2  0  0  0  0
  4 10  1  0  0  0  0
  5  6  1  0  0  0  0
  5  8  1  0  0  0  0
  6  7  2  0  0  0  0
  8  9  1  0  0  0  0
  9 10  2  0  0  0  0
M  END
>  <CHROM.1>
11.34556209,11.70968873,6.61055625,0.31761644,-1.32141857,0.76642940

>  <Name>
ligand

>  <RI>
0

>  <Rbt.Current_Directory>
/home/itssahil/PROJECTS/Mol_Feturizer/New_Systems/rnas/2EEW

>  <Rbt.Executable>
rbdock ($Id: //depot/dev/client3/rdock/2013.1/src/exe/rbdock.cxx#4 $)

>  <Rbt.Library>
libRbt.so (2013.1, Build901 2013/11/27)

>  <Rbt.Parameter_File>
/export/apps/rDock/src/rDock_2013.1_src/data/scripts/dock_solv.prm

>  <Rbt.Receptor>
prm/pocket_docking_6.prm

>  <SCORE>
-17.0587

>  <SCORE.INTER>
-17.0587

>  <SCORE.INTER.CONST>
1

>  <SCORE.INTER.POLAR>
0

>  <SCORE.INTER.ROT>
0

>  <SCORE.INTER.SOLV>
3.36482

>  <SCORE.INTER.VDW>
-16.0941

>  <SCORE.INTER.norm>
-1.70587

>  <SCORE.INTRA>
0

>  <SCORE.INTRA.DIHEDRAL>
0

>  <SCORE.INTRA.DIHEDRAL.0>
0

>  <SCORE.INTRA.POLAR>
0

>  <SCORE.INTRA.POLAR.0>
0

>  <SCORE.INTRA.REPUL>
0

>  <SCORE.INTRA.REPUL.0>
0

>  <SCORE.INTRA.SOLV>
0

>  <SCORE.INTRA.SOLV.lig_0>
-4.28901

>  <SCORE.INTRA.VDW>
0

>  <SCORE.INTRA.VDW.0>
0

>  <SCORE.INTRA.norm>
0

>  <SCORE.RESTR>
0

>  <SCORE.RESTR.CAVITY>
0

>  <SCORE.RESTR.norm>
0

>  <SCORE.SYSTEM>
0

>  <SCORE.SYSTEM.CONST>
0

>  <SCORE.SYSTEM.DIHEDRAL>
0

>  <SCORE.SYSTEM.SOLV>
0

>  <SCORE.SYSTEM.norm>
0

>  <SCORE.heavy>
10

>  <SCORE.norm>
-1.70587

>  <RMSD>
1.019

$$$$
ligand
 OpenBabel11021811423D
libRbt.so/2013.1/901 2013/11/27
 10 11  0  0  0  0  0  0  0  0999 V2000
   11.6166   11.6407    8.6228 N   0  0  0  0  0  0  0  0  0  0  0  0
   11.3945   13.0021    8.5265 C   0  0  0  0  0  0  0  0  0  0  0  0
   11.1233   13.5998    7.3582 N   0  0  0  0  0  0  0  0  0  0  0  0
   11.0952   12.7389    6.3079 C   0  0  0  0  0  0  0  0  0  0  0  0
   11.3084   11.3721    6.3316 C   0  0  0  0  0  0  0  0  0  0  0  0
   11.5966   10.7234    7.5673 C   0  0  0  0  0  0  0  0  0  0  0  0
   11.8175    9.5300    7.8183 O   0  0  0  0  0  0  0  0  0  0  0  0
   11.1873   10.8958    5.0552 N   0  0  0  0  0  0  0  0  0  0  0  0
   10.9017   11.9649    4.2708 C   0  0  0  0  0  0  0  0  0  0  0  0
   10.8389   13.1157    5.0135 N   0  0  0  0  0  0  0  0  0  0  0  0
  1  2  1  0  0  0  0
  1  6  1  0  0  0  0
  2  3  2  0  0  0  0
  3  4  1  0  0  0  0
  4  5  2  0  0  0  0
  4 10  1  0  0  0  0
  5  6  1  0  0  0  0
  5  8  1  0  0  0  0
  6  7  2  0  0  0  0
  8  9  1  0  0  0  0
  9 10  2  0  0  0  0
M  END
>  <CHROM.1>
11.29816898,11.81551109,6.71082142,0.38764028,-1.35759614,0.78715281

>  <Name>
ligand

>  <RI>
0

>  <Rbt.Current_Directory>
/home/itssahil/PROJECTS/Mol_Feturizer/New_Systems/rnas/2EEW

>  <Rbt.Executable>
rbdock ($Id: //depot/dev/client3/rdock/2013.1/src/exe/rbdock.cxx#4 $)

>  <Rbt.Library>
libRbt.so (2013.1, Build901 2013/11/27)

>  <Rbt.Parameter_File>
/export/apps/rDock/src/rDock_2013.1_src/data/scripts/dock_solv.prm

>  <Rbt.Receptor>
prm/pocket_docking_7.prm

>  <SCORE>
-17.0815

>  <SCORE.INTER>
-17.0815

>  <SCORE.INTER.CONST>
1

>  <SCORE.INTER.POLAR>
0

>  <SCORE.INTER.ROT>
0

>  <SCORE.INTER.SOLV>
3.48815

>  <SCORE.INTER.VDW>
-16.1504

>  <SCORE.INTER.norm>
-1.70815

>  <SCORE.INTRA>
0

>  <SCORE.INTRA.DIHEDRAL>
0

>  <SCORE.INTRA.DIHEDRAL.0>
0

>  <SCORE.INTRA.POLAR>
0

>  <SCORE.INTRA.POLAR.0>
0

>  <SCORE.INTRA.REPUL>
0

>  <SCORE.INTRA.REPUL.0>
0

>  <SCORE.INTRA.SOLV>
0

>  <SCORE.INTRA.SOLV.lig_0>
-4.28901

>  <SCORE.INTRA.VDW>
0

>  <SCORE.INTRA.VDW.0>
0

>  <SCORE.INTRA.norm>
0

>  <SCORE.RESTR>
0

>  <SCORE.RESTR.CAVITY>
0

>  <SCORE.RESTR.norm>
0

>  <SCORE.SYSTEM>
0

>  <SCORE.SYSTEM.CONST>
0

>  <SCORE.SYSTEM.DIHEDRAL>
0

>  <SCORE.SYSTEM.SOLV>
0

>  <SCORE.SYSTEM.norm>
0

>  <SCORE.heavy>
10

>  <SCORE.norm>
-1.70815

>  <RMSD>
1.019

$$$$
ligand
 OpenBabel11021811423D
libRbt.so/2013.1/901 2013/11/27
 10 11  0  0  0  0  0  0  0  0999 V2000
   11.6401   11.6146    8.6038 N   0  0  0  0  0  0  0  0  0  0  0  0
   11.4219   12.9768    8.5104 C   0  0  0  0  0  0  0  0  0  0  0  0
   11.1366   13.5754    7.3459 N   0  0  0  0  0  0  0  0  0  0  0  0
   11.0906   12.7144    6.2963 C   0  0  0  0  0  0  0  0  0  0  0  0
   11.2990   11.3469    6.3173 C   0  0  0  0  0  0  0  0  0  0  0  0
   11.6019   10.6972    7.5489 C   0  0  0  0  0  0  0  0  0  0  0  0
   11.8218    9.5030    7.7970 O   0  0  0  0  0  0  0  0  0  0  0  0
   11.1583   10.8709    5.0427 N   0  0  0  0  0  0  0  0  0  0  0  0
   10.8658   11.9410    4.2622 C   0  0  0  0  0  0  0  0  0  0  0  0
   10.8177   13.0921    5.0055 N   0  0  0  0  0  0  0  0  0  0  0  0
  1  2  1  0  0  0  0
  1  6  1  0  0  0  0
  2  3  2  0  0  0  0
  3  4  1  0  0  0  0
  4  5  2  0  0  0  0
  4 10  1  0  0  0  0
  5  6  1  0  0  0  0
  5  8  1  0  0  0  0
  6  7  2  0  0  0  0
  8  9  1  0  0  0  0
  9 10  2  0  0  0  0
M  END
>  <CHROM.1>
11.29569779,11.79036859,6.69646687,0.33030142,-1.35005659,0.73100260

>  <Name>
ligand

>  <RI>
0

>  <Rbt.Current_Directory>
/home/itssahil/PROJECTS/Mol_Feturizer/New_Systems/rnas/2EEW

>  <Rbt.Executable>
rbdock ($Id: //depot/dev/client3/rdock/2013.1/src/exe/rbdock.cxx#4 $)

>  <Rbt.Library>
libRbt.so (2013.1, Build901 2013/11/27)

>  <Rbt.Parameter_File>
/export/apps/rDock/src/rDock_2013.1_src/data/scripts/dock_solv.prm

>  <Rbt.Receptor>
prm/pocket_docking_8.prm

>  <SCORE>
-17.0678

>  <SCORE.INTER>
-17.0678

>  <SCORE.INTER.CONST>
1

>  <SCORE.INTER.POLAR>
0

>  <SCORE.INTER.ROT>
0

>  <SCORE.INTER.SOLV>
3.47643

>  <SCORE.INTER.VDW>
-16.1373

>  <SCORE.INTER.norm>
-1.70678

>  <SCORE.INTRA>
0

>  <SCORE.INTRA.DIHEDRAL>
0

>  <SCORE.INTRA.DIHEDRAL.0>
0

>  <SCORE.INTRA.POLAR>
0

>  <SCORE.INTRA.POLAR.0>
0

>  <SCORE.INTRA.REPUL>
0

>  <SCORE.INTRA.REPUL.0>
0

>  <SCORE.INTRA.SOLV>
0

>  <SCORE.INTRA.SOLV.lig_0>
-4.28901

>  <SCORE.INTRA.VDW>
0

>  <SCORE.INTRA.VDW.0>
0

>  <SCORE.INTRA.norm>
0

>  <SCORE.RESTR>
0

>  <SCORE.RESTR.CAVITY>
0

>  <SCORE.RESTR.norm>
0

>  <SCORE.SYSTEM>
0

>  <SCORE.SYSTEM.CONST>
0

>  <SCORE.SYSTEM.DIHEDRAL>
0

>  <SCORE.SYSTEM.SOLV>
0

>  <SCORE.SYSTEM.norm>
0

>  <SCORE.heavy>
10

>  <SCORE.norm>
-1.70678

>  <RMSD>
1.019

$$$$
ligand
 OpenBabel11021811423D
libRbt.so/2013.1/901 2013/11/27
 10 11  0  0  0  0  0  0  0  0999 V2000
   11.6693   11.4687    8.5282 N   0  0  0  0  0  0  0  0  0  0  0  0
   11.4608   12.8352    8.4943 C   0  0  0  0  0  0  0  0  0  0  0  0
   11.1680   13.4842    7.3591 N   0  0  0  0  0  0  0  0  0  0  0  0
   11.1041   12.6684    6.2749 C   0  0  0  0  0  0  0  0  0  0  0  0
   11.3021   11.2996    6.2363 C   0  0  0  0  0  0  0  0  0  0  0  0
   11.6128   10.5967    7.4363 C   0  0  0  0  0  0  0  0  0  0  0  0
   11.8260    9.3915    7.6317 O   0  0  0  0  0  0  0  0  0  0  0  0
   11.1442   10.8786    4.9446 N   0  0  0  0  0  0  0  0  0  0  0  0
   10.8518   11.9827    4.2127 C   0  0  0  0  0  0  0  0  0  0  0  0
   10.8206   13.1019    5.0041 N   0  0  0  0  0  0  0  0  0  0  0  0
  1  2  1  0  0  0  0
  1  6  1  0  0  0  0
  2  3  2  0  0  0  0
  3  4  1  0  0  0  0
  4  5  2  0  0  0  0
  4 10  1  0  0  0  0
  5  6  1  0  0  0  0
  5  8  1  0  0  0  0
  6  7  2  0  0  0  0
  8  9  1  0  0  0  0
  9 10  2  0  0  0  0
M  END
>  <CHROM.1>
11.30621120,11.72683786,6.63375372,0.27229052,-1.34705766,0.71636392

>  <Name>
ligand

>  <RI>
0

>  <Rbt.Current_Directory>
/home/itssahil/PROJECTS/Mol_Feturizer/New_Systems/rnas/2EEW

>  <Rbt.Executable>
rbdock ($Id: //depot/dev/client3/rdock/2013.1/src/exe/rbdock.cxx#4 $)

>  <Rbt.Library>
libRbt.so (2013.1, Build901 2013/11/27)

>  <Rbt.Parameter_File>
/export/apps/rDock/src/rDock_2013.1_src/data/scripts/dock_solv.prm

>  <Rbt.Receptor>
prm/blind_docking_100.prm

>  <SCORE>
-17.0831

>  <SCORE.INTER>
-17.0831

>  <SCORE.INTER.CONST>
1

>  <SCORE.INTER.POLAR>
0

>  <SCORE.INTER.ROT>
0

>  <SCORE.INTER.SOLV>
3.47515

>  <SCORE.INTER.VDW>
-16.1471

>  <SCORE.INTER.norm>
-1.70831

>  <SCORE.INTRA>
0

>  <SCORE.INTRA.DIHEDRAL>
0

>  <SCORE.INTRA.DIHEDRAL.0>
0

>  <SCORE.INTRA.POLAR>
0

>  <SCORE.INTRA.POLAR.0>
0

>  <SCORE.INTRA.REPUL>
0

>  <SCORE.INTRA.REPUL.0>
0

>  <SCORE.INTRA.SOLV>
0

>  <SCORE.INTRA.SOLV.lig_0>
-4.28901

>  <SCORE.INTRA.VDW>
0

>  <SCORE.INTRA.VDW.0>
0

>  <SCORE.INTRA.norm>
0

>  <SCORE.RESTR>
0

>  <SCORE.RESTR.CAVITY>
0

>  <SCORE.RESTR.norm>
0

>  <SCORE.SYSTEM>
0

>  <SCORE.SYSTEM.CONST>
0

>  <SCORE.SYSTEM.DIHEDRAL>
0

>  <SCORE.SYSTEM.SOLV>
0

>  <SCORE.SYSTEM.norm>
0

>  <SCORE.heavy>
10

>  <SCORE.norm>
-1.70831

>  <RMSD>
1.020

$$$$
ligand
 OpenBabel11021811423D
libRbt.so/2013.1/901 2013/11/27
 10 11  0  0  0  0  0  0  0  0999 V2000
   11.6845   11.4350    8.5015 N   0  0  0  0  0  0  0  0  0  0  0  0
   11.4560   12.7987    8.5029 C   0  0  0  0  0  0  0  0  0  0  0  0
   11.1488   13.4718    7.3857 N   0  0  0  0  0  0  0  0  0  0  0  0
   11.0922   12.6828    6.2815 C   0  0  0  0  0  0  0  0  0  0  0  0
   11.3098   11.3185    6.2075 C   0  0  0  0  0  0  0  0  0  0  0  0
   11.6359   10.5900    7.3881 C   0  0  0  0  0  0  0  0  0  0  0  0
   11.8674    9.3836    7.5521 O   0  0  0  0  0  0  0  0  0  0  0  0
   11.1524   10.9279    4.9061 N   0  0  0  0  0  0  0  0  0  0  0  0
   10.8409   12.0457    4.2037 C   0  0  0  0  0  0  0  0  0  0  0  0
   10.7969   13.1440    5.0232 N   0  0  0  0  0  0  0  0  0  0  0  0
  1  2  1  0  0  0  0
  1  6  1  0  0  0  0
  2  3  2  0  0  0  0
  3  4  1  0  0  0  0
  4  5  2  0  0  0  0
  4 10  1  0  0  0  0
  5  6  1  0  0  0  0
  5  8  1  0  0  0  0
  6  7  2  0  0  0  0
  8  9  1  0  0  0  0
  9 10  2  0  0  0  0
M  END
>  <CHROM.1>
11.30945056,11.73551911,6.61559633,0.30683932,-1.33412030,0.77527654

>  <Name>
ligand

>  <RI>
0

>  <Rbt.Current_Directory>
/home/itssahil/PROJECTS/Mol_Feturizer/New_Systems/rnas/2EEW

>  <Rbt.Executable>
rbdock ($Id: //depot/dev/client3/rdock/2013.1/src/exe/rbdock.cxx#4 $)

>  <Rbt.Library>
libRbt.so (2013.1, Build901 2013/11/27)

>  <Rbt.Parameter_File>
/export/apps/rDock/src/rDock_2013.1_src/data/scripts/dock_solv.prm

>  <Rbt.Receptor>
prm/pocket_docking_6.prm

>  <SCORE>
-17.0592

>  <SCORE.INTER>
-17.0592

>  <SCORE.INTER.CONST>
1

>  <SCORE.INTER.POLAR>
0

>  <SCORE.INTER.ROT>
0

>  <SCORE.INTER.SOLV>
3.425

>  <SCORE.INTER.VDW>
-16.1145

>  <SCORE.INTER.norm>
-1.70592

>  <SCORE.INTRA>
0

>  <SCORE.INTRA.DIHEDRAL>
0

>  <SCORE.INTRA.DIHEDRAL.0>
0

>  <SCORE.INTRA.POLAR>
0

>  <SCORE.INTRA.POLAR.0>
0

>  <SCORE.INTRA.REPUL>
0

>  <SCORE.INTRA.REPUL.0>
0

>  <SCORE.INTRA.SOLV>
0

>  <SCORE.INTRA.SOLV.lig_0>
-4.28901

>  <SCORE.INTRA.VDW>
0

>  <SCORE.INTRA.VDW.0>
0

>  <SCORE.INTRA.norm>
0

>  <SCORE.RESTR>
0

>  <SCORE.RESTR.CAVITY>
0

>  <SCORE.RESTR.norm>
0

>  <SCORE.SYSTEM>
0

>  <SCORE.SYSTEM.CONST>
0

>  <SCORE.SYSTEM.DIHEDRAL>
0

>  <SCORE.SYSTEM.SOLV>
0

>  <SCORE.SYSTEM.norm>
0

>  <SCORE.heavy>
10

>  <SCORE.norm>
-1.70592

>  <RMSD>
1.020

$$$$
ligand
 OpenBabel11021811423D
libRbt.so/2013.1/901 2013/11/27
 10 11  0  0  0  0  0  0  0  0999 V2000
   11.6362   11.6170    8.6029 N   0  0  0  0  0  0  0  0  0  0  0  0
   11.4160   12.9788    8.5088 C   0  0  0  0  0  0  0  0  0  0  0  0
   11.1348   13.5772    7.3433 N   0  0  0  0  0  0  0  0  0  0  0  0
   11.0949   12.7164    6.2932 C   0  0  0  0  0  0  0  0  0  0  0  0
   11.3056   11.3492    6.3148 C   0  0  0  0  0  0  0  0  0  0  0  0
   11.6043   10.6998    7.5476 C   0  0  0  0  0  0  0  0  0  0  0  0
   11.8253    9.5059    7.7964 O   0  0  0  0  0  0  0  0  0  0  0  0
   11.1713   10.8733    5.0395 N   0  0  0  0  0  0  0  0  0  0  0  0
   10.8804   11.9431    4.2580 C   0  0  0  0  0  0  0  0  0  0  0  0
   10.8270   13.0939    5.0014 N   0  0  0  0  0  0  0  0  0  0  0  0
  1  2  1  0  0  0  0
  1  6  1  0  0  0  0
  2  3  2  0  0  0  0
  3  4  1  0  0  0  0
  4  5  2  0  0  0  0
  4 10  1  0  0  0  0
  5  6  1  0  0  0  0
  5  8  1  0  0  0  0
  6  7  2  0  0  0  0
  8  9  1  0  0  0  0
  9 10  2  0  0  0  0
M  END
>  <CHROM.1>
11.29986603,11.79258950,6.69407946,0.34991543,-1.35209135,0.75039287

>  <Name>
ligand

>  <RI>
0

>  <Rbt.Current_Directory>
/home/itssahil/PROJECTS/Mol_Feturizer/New_Systems/rnas/2EEW

>  <Rbt.Executable>
rbdock ($Id: //depot/dev/client3/rdock/2013.1/src/exe/rbdock.cxx#4 $)

>  <Rbt.Library>
libRbt.so (2013.1, Build901 2013/11/27)

>  <Rbt.Parameter_File>
/export/apps/rDock/src/rDock_2013.1_src/data/scripts/dock_solv.prm

>  <Rbt.Receptor>
prm/pocket_docking_5.prm

>  <SCORE>
-17.0643

>  <SCORE.INTER>
-17.0643

>  <SCORE.INTER.CONST>
1

>  <SCORE.INTER.POLAR>
0

>  <SCORE.INTER.ROT>
0

>  <SCORE.INTER.SOLV>
3.47546

>  <SCORE.INTER.VDW>
-16.1347

>  <SCORE.INTER.norm>
-1.70643

>  <SCORE.INTRA>
0

>  <SCORE.INTRA.DIHEDRAL>
0

>  <SCORE.INTRA.DIHEDRAL.0>
0

>  <SCORE.INTRA.POLAR>
0

>  <SCORE.INTRA.POLAR.0>
0

>  <SCORE.INTRA.REPUL>
0

>  <SCORE.INTRA.REPUL.0>
0

>  <SCORE.INTRA.SOLV>
0

>  <SCORE.INTRA.SOLV.lig_0>
-4.28901

>  <SCORE.INTRA.VDW>
0

>  <SCORE.INTRA.VDW.0>
0

>  <SCORE.INTRA.norm>
0

>  <SCORE.RESTR>
0

>  <SCORE.RESTR.CAVITY>
0

>  <SCORE.RESTR.norm>
0

>  <SCORE.SYSTEM>
0

>  <SCORE.SYSTEM.CONST>
0

>  <SCORE.SYSTEM.DIHEDRAL>
0

>  <SCORE.SYSTEM.SOLV>
0

>  <SCORE.SYSTEM.norm>
0

>  <SCORE.heavy>
10

>  <SCORE.norm>
-1.70643

>  <RMSD>
1.021

$$$$
ligand
 OpenBabel11021811423D
libRbt.so/2013.1/901 2013/11/27
 10 11  0  0  0  0  0  0  0  0999 V2000
   11.6114   11.6389    8.6220 N   0  0  0  0  0  0  0  0  0  0  0  0
   11.3829   12.9987    8.5190 C   0  0  0  0  0  0  0  0  0  0  0  0
   11.1123   13.5899    7.3473 N   0  0  0  0  0  0  0  0  0  0  0  0
   11.0917   12.7242    6.3007 C   0  0  0  0  0  0  0  0  0  0  0  0
   11.3117   11.3586    6.3311 C   0  0  0  0  0  0  0  0  0  0  0  0
   11.5992   10.7168    7.5705 C   0  0  0  0  0  0  0  0  0  0  0  0
   11.8253    9.5256    7.8275 O   0  0  0  0  0  0  0  0  0  0  0  0
   11.1968   10.8761    5.0565 N   0  0  0  0  0  0  0  0  0  0  0  0
   10.9083   11.9404    4.2665 C   0  0  0  0  0  0  0  0  0  0  0  0
   10.8375   13.0941    5.0039 N   0  0  0  0  0  0  0  0  0  0  0  0
  1  2  1  0  0  0  0
  1  6  1  0  0  0  0
  2  3  2  0  0  0  0
  3  4  1  0  0  0  0
  4  5  2  0  0  0  0
  4 10  1  0  0  0  0
  5  6  1  0  0  0  0
  5  8  1  0  0  0  0
  6  7  2  0  0  0  0
  8  9  1  0  0  0  0
  9 10  2  0  0  0  0
M  END
>  <CHROM.1>
11.29799952,11.80365366,6.70830747,0.41439222,-1.35615222,0.80889010

>  <Name>
ligand

>  <RI>
0

>  <Rbt.Current_Directory>
/home/itssahil/PROJECTS/Mol_Feturizer/New_Systems/rnas/2EEW

>  <Rbt.Executable>
rbdock ($Id: //depot/dev/client3/rdock/2013.1/src/exe/rbdock.cxx#4 $)

>  <Rbt.Library>
libRbt.so (2013.1, Build901 2013/11/27)

>  <Rbt.Parameter_File>
/export/apps/rDock/src/rDock_2013.1_src/data/scripts/dock_solv.prm

>  <Rbt.Receptor>
prm/pocket_docking_5.prm

>  <SCORE>
-17.0655

>  <SCORE.INTER>
-17.0655

>  <SCORE.INTER.CONST>
1

>  <SCORE.INTER.POLAR>
0

>  <SCORE.INTER.ROT>
0

>  <SCORE.INTER.SOLV>
3.48138

>  <SCORE.INTER.VDW>
-16.1375

>  <SCORE.INTER.norm>
-1.70655

>  <SCORE.INTRA>
0

>  <SCORE.INTRA.DIHEDRAL>
0

>  <SCORE.INTRA.DIHEDRAL.0>
0

>  <SCORE.INTRA.POLAR>
0

>  <SCORE.INTRA.POLAR.0>
0

>  <SCORE.INTRA.REPUL>
0

>  <SCORE.INTRA.REPUL.0>
0

>  <SCORE.INTRA.SOLV>
0

>  <SCORE.INTRA.SOLV.lig_0>
-4.28901

>  <SCORE.INTRA.VDW>
0

>  <SCORE.INTRA.VDW.0>
0

>  <SCORE.INTRA.norm>
0

>  <SCORE.RESTR>
0

>  <SCORE.RESTR.CAVITY>
0

>  <SCORE.RESTR.norm>
0

>  <SCORE.SYSTEM>
0

>  <SCORE.SYSTEM.CONST>
0

>  <SCORE.SYSTEM.DIHEDRAL>
0

>  <SCORE.SYSTEM.SOLV>
0

>  <SCORE.SYSTEM.norm>
0

>  <SCORE.heavy>
10

>  <SCORE.norm>
-1.70655

>  <RMSD>
1.021

$$$$
ligand
 OpenBabel11021811423D
libRbt.so/2013.1/901 2013/11/27
 10 11  0  0  0  0  0  0  0  0999 V2000
   11.6656   11.5215    8.5513 N   0  0  0  0  0  0  0  0  0  0  0  0
   11.4624   12.8878    8.4898 C   0  0  0  0  0  0  0  0  0  0  0  0
   11.1751   13.5154    7.3412 N   0  0  0  0  0  0  0  0  0  0  0  0
   11.1111   12.6786    6.2731 C   0  0  0  0  0  0  0  0  0  0  0  0
   11.3039   11.3086    6.2621 C   0  0  0  0  0  0  0  0  0  0  0  0
   11.6088   10.6283    7.4766 C   0  0  0  0  0  0  0  0  0  0  0  0
   11.8168    9.4265    7.6964 O   0  0  0  0  0  0  0  0  0  0  0  0
   11.1478   10.8627    4.9785 N   0  0  0  0  0  0  0  0  0  0  0  0
   10.8617   11.9532    4.2243 C   0  0  0  0  0  0  0  0  0  0  0  0
   10.8326   13.0879    4.9933 N   0  0  0  0  0  0  0  0  0  0  0  0
  1  2  1  0  0  0  0
  1  6  1  0  0  0  0
  2  3  2  0  0  0  0
  3  4  1  0  0  0  0
  4  5  2  0  0  0  0
  4 10  1  0  0  0  0
  5  6  1  0  0  0  0
  5  8  1  0  0  0  0
  6  7  2  0  0  0  0
  8  9  1  0  0  0  0
  9 10  2  0  0  0  0
M  END
>  <CHROM.1>
11.30858425,11.74355259,6.65109687,0.26717932,-1.35158170,0.69163220

>  <Name>
ligand

>  <RI>
0

>  <Rbt.Current_Directory>
/home/itssahil/PROJECTS/Mol_Feturizer/New_Systems/rnas/2EEW

>  <Rbt.Executable>
rbdock ($Id: //depot/dev/client3/rdock/2013.1/src/exe/rbdock.cxx#4 $)

>  <Rbt.Library>
libRbt.so (2013.1, Build901 2013/11/27)

>  <Rbt.Parameter_File>
/export/apps/rDock/src/rDock_2013.1_src/data/scripts/dock_solv.prm

>  <Rbt.Receptor>
prm/pocket_docking_4.prm

>  <SCORE>
-17.0451

>  <SCORE.INTER>
-17.0451

>  <SCORE.INTER.CONST>
1

>  <SCORE.INTER.POLAR>
0

>  <SCORE.INTER.ROT>
0

>  <SCORE.INTER.SOLV>
3.48443

>  <SCORE.INTER.VDW>
-16.1249

>  <SCORE.INTER.norm>
-1.70451

>  <SCORE.INTRA>
0

>  <SCORE.INTRA.DIHEDRAL>
0

>  <SCORE.INTRA.DIHEDRAL.0>
0

>  <SCORE.INTRA.POLAR>
0

>  <SCORE.INTRA.POLAR.0>
0

>  <SCORE.INTRA.REPUL>
0

>  <SCORE.INTRA.REPUL.0>
0

>  <SCORE.INTRA.SOLV>
0

>  <SCORE.INTRA.SOLV.lig_0>
-4.28901

>  <SCORE.INTRA.VDW>
0

>  <SCORE.INTRA.VDW.0>
0

>  <SCORE.INTRA.norm>
0

>  <SCORE.RESTR>
0

>  <SCORE.RESTR.CAVITY>
0

>  <SCORE.RESTR.norm>
0

>  <SCORE.SYSTEM>
0

>  <SCORE.SYSTEM.CONST>
0

>  <SCORE.SYSTEM.DIHEDRAL>
0

>  <SCORE.SYSTEM.SOLV>
0

>  <SCORE.SYSTEM.norm>
0

>  <SCORE.heavy>
10

>  <SCORE.norm>
-1.70451

>  <RMSD>
1.022

$$$$
ligand
 OpenBabel11021811423D
libRbt.so/2013.1/901 2013/11/27
 10 11  0  0  0  0  0  0  0  0999 V2000
   11.6385   11.6107    8.6047 N   0  0  0  0  0  0  0  0  0  0  0  0
   11.4213   12.9715    8.4917 C   0  0  0  0  0  0  0  0  0  0  0  0
   11.1405   13.5542    7.3182 N   0  0  0  0  0  0  0  0  0  0  0  0
   11.0976   12.6789    6.2803 C   0  0  0  0  0  0  0  0  0  0  0  0
   11.3052   11.3116    6.3208 C   0  0  0  0  0  0  0  0  0  0  0  0
   11.6034   10.6788    7.5624 C   0  0  0  0  0  0  0  0  0  0  0  0
   11.8218    9.4881    7.8276 O   0  0  0  0  0  0  0  0  0  0  0  0
   11.1686   10.8182    5.0525 N   0  0  0  0  0  0  0  0  0  0  0  0
   10.8794   11.8776    4.2563 C   0  0  0  0  0  0  0  0  0  0  0  0
   10.8294   13.0389    4.9836 N   0  0  0  0  0  0  0  0  0  0  0  0
  1  2  1  0  0  0  0
  1  6  1  0  0  0  0
  2  3  2  0  0  0  0
  3  4  1  0  0  0  0
  4  5  2  0  0  0  0
  4 10  1  0  0  0  0
  5  6  1  0  0  0  0
  5  8  1  0  0  0  0
  6  7  2  0  0  0  0
  8  9  1  0  0  0  0
  9 10  2  0  0  0  0
M  END
>  <CHROM.1>
11.30079134,11.76029787,6.69389473,0.33910713,-1.35300190,0.72584151

>  <Name>
ligand

>  <RI>
0

>  <Rbt.Current_Directory>
/home/itssahil/PROJECTS/Mol_Feturizer/New_Systems/rnas/2EEW

>  <Rbt.Executable>
rbdock ($Id: //depot/dev/client3/rdock/2013.1/src/exe/rbdock.cxx#4 $)

>  <Rbt.Library>
libRbt.so (2013.1, Build901 2013/11/27)

>  <Rbt.Parameter_File>
/export/apps/rDock/src/rDock_2013.1_src/data/scripts/dock_solv.prm

>  <Rbt.Receptor>
prm/pocket_docking_5.prm

>  <SCORE>
-17.0574

>  <SCORE.INTER>
-17.0574

>  <SCORE.INTER.CONST>
1

>  <SCORE.INTER.POLAR>
0

>  <SCORE.INTER.ROT>
0

>  <SCORE.INTER.SOLV>
3.49586

>  <SCORE.INTER.VDW>
-16.1369

>  <SCORE.INTER.norm>
-1.70574

>  <SCORE.INTRA>
0

>  <SCORE.INTRA.DIHEDRAL>
0

>  <SCORE.INTRA.DIHEDRAL.0>
0

>  <SCORE.INTRA.POLAR>
0

>  <SCORE.INTRA.POLAR.0>
0

>  <SCORE.INTRA.REPUL>
0

>  <SCORE.INTRA.REPUL.0>
0

>  <SCORE.INTRA.SOLV>
0

>  <SCORE.INTRA.SOLV.lig_0>
-4.28901

>  <SCORE.INTRA.VDW>
0

>  <SCORE.INTRA.VDW.0>
0

>  <SCORE.INTRA.norm>
0

>  <SCORE.RESTR>
0

>  <SCORE.RESTR.CAVITY>
0

>  <SCORE.RESTR.norm>
0

>  <SCORE.SYSTEM>
0

>  <SCORE.SYSTEM.CONST>
0

>  <SCORE.SYSTEM.DIHEDRAL>
0

>  <SCORE.SYSTEM.SOLV>
0

>  <SCORE.SYSTEM.norm>
0

>  <SCORE.heavy>
10

>  <SCORE.norm>
-1.70574

>  <RMSD>
1.022

$$$$
ligand
 OpenBabel11021811423D
libRbt.so/2013.1/901 2013/11/27
 10 11  0  0  0  0  0  0  0  0999 V2000
   11.7087   11.4336    8.4917 N   0  0  0  0  0  0  0  0  0  0  0  0
   11.4783   12.7970    8.4897 C   0  0  0  0  0  0  0  0  0  0  0  0
   11.1646   13.4659    7.3717 N   0  0  0  0  0  0  0  0  0  0  0  0
   11.1033   12.6730    6.2705 C   0  0  0  0  0  0  0  0  0  0  0  0
   11.3224   11.3088    6.2001 C   0  0  0  0  0  0  0  0  0  0  0  0
   11.6556   10.5848    7.3815 C   0  0  0  0  0  0  0  0  0  0  0  0
   11.8896    9.3793    7.5485 O   0  0  0  0  0  0  0  0  0  0  0  0
   11.1590   10.9135    4.9009 N   0  0  0  0  0  0  0  0  0  0  0  0
   10.8423   12.0285    4.1962 C   0  0  0  0  0  0  0  0  0  0  0  0
   10.8010   13.1295    5.0122 N   0  0  0  0  0  0  0  0  0  0  0  0
  1  2  1  0  0  0  0
  1  6  1  0  0  0  0
  2  3  2  0  0  0  0
  3  4  1  0  0  0  0
  4  5  2  0  0  0  0
  4 10  1  0  0  0  0
  5  6  1  0  0  0  0
  5  8  1  0  0  0  0
  6  7  2  0  0  0  0
  8  9  1  0  0  0  0
  9 10  2  0  0  0  0
M  END
>  <CHROM.1>
11.32360139,11.72721209,6.60675904,0.29598441,-1.32950948,0.76129527

>  <Name>
ligand

>  <RI>
0

>  <Rbt.Current_Directory>
/home/itssahil/PROJECTS/Mol_Feturizer/New_Systems/rnas/2EEW

>  <Rbt.Executable>
rbdock ($Id: //depot/dev/client3/rdock/2013.1/src/exe/rbdock.cxx#4 $)

>  <Rbt.Library>
libRbt.so (2013.1, Build901 2013/11/27)

>  <Rbt.Parameter_File>
/export/apps/rDock/src/rDock_2013.1_src/data/scripts/dock_solv.prm

>  <Rbt.Receptor>
prm/blind_docking_40.prm

>  <SCORE>
-17.1252

>  <SCORE.INTER>
-17.1252

>  <SCORE.INTER.CONST>
1

>  <SCORE.INTER.POLAR>
0

>  <SCORE.INTER.ROT>
0

>  <SCORE.INTER.SOLV>
3.40617

>  <SCORE.INTER.VDW>
-16.1522

>  <SCORE.INTER.norm>
-1.71252

>  <SCORE.INTRA>
0

>  <SCORE.INTRA.DIHEDRAL>
0

>  <SCORE.INTRA.DIHEDRAL.0>
0

>  <SCORE.INTRA.POLAR>
0

>  <SCORE.INTRA.POLAR.0>
0

>  <SCORE.INTRA.REPUL>
0

>  <SCORE.INTRA.REPUL.0>
0

>  <SCORE.INTRA.SOLV>
0

>  <SCORE.INTRA.SOLV.lig_0>
-4.28901

>  <SCORE.INTRA.VDW>
0

>  <SCORE.INTRA.VDW.0>
0

>  <SCORE.INTRA.norm>
0

>  <SCORE.RESTR>
0

>  <SCORE.RESTR.CAVITY>
0

>  <SCORE.RESTR.norm>
0

>  <SCORE.SYSTEM>
0

>  <SCORE.SYSTEM.CONST>
0

>  <SCORE.SYSTEM.DIHEDRAL>
0

>  <SCORE.SYSTEM.SOLV>
0

>  <SCORE.SYSTEM.norm>
0

>  <SCORE.heavy>
10

>  <SCORE.norm>
-1.71252

>  <RMSD>
1.023

$$$$
ligand
 OpenBabel11021811423D
libRbt.so/2013.1/901 2013/11/27
 10 11  0  0  0  0  0  0  0  0999 V2000
   11.7107   11.4374    8.4928 N   0  0  0  0  0  0  0  0  0  0  0  0
   11.4793   12.8006    8.4898 C   0  0  0  0  0  0  0  0  0  0  0  0
   11.1654   13.4685    7.3713 N   0  0  0  0  0  0  0  0  0  0  0  0
   11.1053   12.6749    6.2705 C   0  0  0  0  0  0  0  0  0  0  0  0
   11.3254   11.3108    6.2010 C   0  0  0  0  0  0  0  0  0  0  0  0
   11.6587   10.5879    7.3830 C   0  0  0  0  0  0  0  0  0  0  0  0
   11.8936    9.3826    7.5509 O   0  0  0  0  0  0  0  0  0  0  0  0
   11.1628   10.9146    4.9021 N   0  0  0  0  0  0  0  0  0  0  0  0
   10.8455   12.0288    4.1965 C   0  0  0  0  0  0  0  0  0  0  0  0
   10.8030   13.1304    5.0118 N   0  0  0  0  0  0  0  0  0  0  0  0
  1  2  1  0  0  0  0
  1  6  1  0  0  0  0
  2  3  2  0  0  0  0
  3  4  1  0  0  0  0
  4  5  2  0  0  0  0
  4 10  1  0  0  0  0
  5  6  1  0  0  0  0
  5  8  1  0  0  0  0
  6  7  2  0  0  0  0
  8  9  1  0  0  0  0
  9 10  2  0  0  0  0
M  END
>  <CHROM.1>
11.32612304,11.72948498,6.60745939,0.29945485,-1.32924436,0.76403739

>  <Name>
ligand

>  <RI>
0

>  <Rbt.Current_Directory>
/home/itssahil/PROJECTS/Mol_Feturizer/New_Systems/rnas/2EEW

>  <Rbt.Executable>
rbdock ($Id: //depot/dev/client3/rdock/2013.1/src/exe/rbdock.cxx#4 $)

>  <Rbt.Library>
libRbt.so (2013.1, Build901 2013/11/27)

>  <Rbt.Parameter_File>
/export/apps/rDock/src/rDock_2013.1_src/data/scripts/dock_solv.prm

>  <Rbt.Receptor>
prm/pocket_docking_3.prm

>  <SCORE>
-17.125

>  <SCORE.INTER>
-17.125

>  <SCORE.INTER.CONST>
1

>  <SCORE.INTER.POLAR>
0

>  <SCORE.INTER.ROT>
0

>  <SCORE.INTER.SOLV>
3.40203

>  <SCORE.INTER.VDW>
-16.1507

>  <SCORE.INTER.norm>
-1.7125

>  <SCORE.INTRA>
0

>  <SCORE.INTRA.DIHEDRAL>
0

>  <SCORE.INTRA.DIHEDRAL.0>
0

>  <SCORE.INTRA.POLAR>
0

>  <SCORE.INTRA.POLAR.0>
0

>  <SCORE.INTRA.REPUL>
0

>  <SCORE.INTRA.REPUL.0>
0

>  <SCORE.INTRA.SOLV>
0

>  <SCORE.INTRA.SOLV.lig_0>
-4.28901

>  <SCORE.INTRA.VDW>
0

>  <SCORE.INTRA.VDW.0>
0

>  <SCORE.INTRA.norm>
0

>  <SCORE.RESTR>
0

>  <SCORE.RESTR.CAVITY>
0

>  <SCORE.RESTR.norm>
0

>  <SCORE.SYSTEM>
0

>  <SCORE.SYSTEM.CONST>
0

>  <SCORE.SYSTEM.DIHEDRAL>
0

>  <SCORE.SYSTEM.SOLV>
0

>  <SCORE.SYSTEM.norm>
0

>  <SCORE.heavy>
10

>  <SCORE.norm>
-1.7125

>  <RMSD>
1.023

$$$$
ligand
 OpenBabel11021811423D
libRbt.so/2013.1/901 2013/11/27
 10 11  0  0  0  0  0  0  0  0999 V2000
   11.6602   11.4718    8.5287 N   0  0  0  0  0  0  0  0  0  0  0  0
   11.4446   12.8371    8.4923 C   0  0  0  0  0  0  0  0  0  0  0  0
   11.1532   13.4833    7.3552 N   0  0  0  0  0  0  0  0  0  0  0  0
   11.0984   12.6661    6.2716 C   0  0  0  0  0  0  0  0  0  0  0  0
   11.3037   11.2983    6.2354 C   0  0  0  0  0  0  0  0  0  0  0  0
   11.6130   10.5983    7.4375 C   0  0  0  0  0  0  0  0  0  0  0  0
   11.8318    9.3945    7.6352 O   0  0  0  0  0  0  0  0  0  0  0  0
   11.1536   10.8751    4.9434 N   0  0  0  0  0  0  0  0  0  0  0  0
   10.8585   11.9768    4.2091 C   0  0  0  0  0  0  0  0  0  0  0  0
   10.8180   13.0966    4.9991 N   0  0  0  0  0  0  0  0  0  0  0  0
  1  2  1  0  0  0  0
  1  6  1  0  0  0  0
  2  3  2  0  0  0  0
  3  4  1  0  0  0  0
  4  5  2  0  0  0  0
  4 10  1  0  0  0  0
  5  6  1  0  0  0  0
  5  8  1  0  0  0  0
  6  7  2  0  0  0  0
  8  9  1  0  0  0  0
  9 10  2  0  0  0  0
M  END
>  <CHROM.1>
11.30387828,11.72598547,6.63236349,0.30293336,-1.34672160,0.74513793

>  <Name>
ligand

>  <RI>
0

>  <Rbt.Current_Directory>
/home/itssahil/PROJECTS/Mol_Feturizer/New_Systems/rnas/2EEW

>  <Rbt.Executable>
rbdock ($Id: //depot/dev/client3/rdock/2013.1/src/exe/rbdock.cxx#4 $)

>  <Rbt.Library>
libRbt.so (2013.1, Build901 2013/11/27)

>  <Rbt.Parameter_File>
/export/apps/rDock/src/rDock_2013.1_src/data/scripts/dock_solv.prm

>  <Rbt.Receptor>
prm/pocket_docking_7.prm

>  <SCORE>
-17.0775

>  <SCORE.INTER>
-17.0775

>  <SCORE.INTER.CONST>
1

>  <SCORE.INTER.POLAR>
0

>  <SCORE.INTER.ROT>
0

>  <SCORE.INTER.SOLV>
3.46616

>  <SCORE.INTER.VDW>
-16.1404

>  <SCORE.INTER.norm>
-1.70775

>  <SCORE.INTRA>
0

>  <SCORE.INTRA.DIHEDRAL>
0

>  <SCORE.INTRA.DIHEDRAL.0>
0

>  <SCORE.INTRA.POLAR>
0

>  <SCORE.INTRA.POLAR.0>
0

>  <SCORE.INTRA.REPUL>
0

>  <SCORE.INTRA.REPUL.0>
0

>  <SCORE.INTRA.SOLV>
0

>  <SCORE.INTRA.SOLV.lig_0>
-4.28901

>  <SCORE.INTRA.VDW>
0

>  <SCORE.INTRA.VDW.0>
0

>  <SCORE.INTRA.norm>
0

>  <SCORE.RESTR>
0

>  <SCORE.RESTR.CAVITY>
0

>  <SCORE.RESTR.norm>
0

>  <SCORE.SYSTEM>
0

>  <SCORE.SYSTEM.CONST>
0

>  <SCORE.SYSTEM.DIHEDRAL>
0

>  <SCORE.SYSTEM.SOLV>
0

>  <SCORE.SYSTEM.norm>
0

>  <SCORE.heavy>
10

>  <SCORE.norm>
-1.70775

>  <RMSD>
1.023

$$$$
ligand
 OpenBabel11021811423D
libRbt.so/2013.1/901 2013/11/27
 10 11  0  0  0  0  0  0  0  0999 V2000
   11.6565   11.4638    8.5250 N   0  0  0  0  0  0  0  0  0  0  0  0
   11.4476   12.8303    8.4941 C   0  0  0  0  0  0  0  0  0  0  0  0
   11.1604   13.4825    7.3593 N   0  0  0  0  0  0  0  0  0  0  0  0
   11.1026   12.6700    6.2724 C   0  0  0  0  0  0  0  0  0  0  0  0
   11.3013   11.3014    6.2307 C   0  0  0  0  0  0  0  0  0  0  0  0
   11.6061   10.5950    7.4302 C   0  0  0  0  0  0  0  0  0  0  0  0
   11.8188    9.3894    7.6232 O   0  0  0  0  0  0  0  0  0  0  0  0
   11.1504   10.8842    4.9369 N   0  0  0  0  0  0  0  0  0  0  0  0
   10.8613   11.9903    4.2069 C   0  0  0  0  0  0  0  0  0  0  0  0
   10.8255   13.1071    5.0014 N   0  0  0  0  0  0  0  0  0  0  0  0
  1  2  1  0  0  0  0
  1  6  1  0  0  0  0
  2  3  2  0  0  0  0
  3  4  1  0  0  0  0
  4  5  2  0  0  0  0
  4 10  1  0  0  0  0
  5  6  1  0  0  0  0
  5  8  1  0  0  0  0
  6  7  2  0  0  0  0
  8  9  1  0  0  0  0
  9 10  2  0  0  0  0
M  END
>  <CHROM.1>
11.30319785,11.72744741,6.62947473,0.28952632,-1.35067287,0.73615887

>  <Name>
ligand

>  <RI>
0

>  <Rbt.Current_Directory>
/home/itssahil/PROJECTS/Mol_Feturizer/New_Systems/rnas/2EEW

>  <Rbt.Executable>
rbdock ($Id: //depot/dev/client3/rdock/2013.1/src/exe/rbdock.cxx#4 $)

>  <Rbt.Library>
libRbt.so (2013.1, Build901 2013/11/27)

>  <Rbt.Parameter_File>
/export/apps/rDock/src/rDock_2013.1_src/data/scripts/dock_solv.prm

>  <Rbt.Receptor>
prm/blind_docking_40.prm

>  <SCORE>
-17.1157

>  <SCORE.INTER>
-17.1157

>  <SCORE.INTER.CONST>
1

>  <SCORE.INTER.POLAR>
0

>  <SCORE.INTER.ROT>
0

>  <SCORE.INTER.SOLV>
3.4862

>  <SCORE.INTER.VDW>
-16.1725

>  <SCORE.INTER.norm>
-1.71157

>  <SCORE.INTRA>
0

>  <SCORE.INTRA.DIHEDRAL>
0

>  <SCORE.INTRA.DIHEDRAL.0>
0

>  <SCORE.INTRA.POLAR>
0

>  <SCORE.INTRA.POLAR.0>
0

>  <SCORE.INTRA.REPUL>
0

>  <SCORE.INTRA.REPUL.0>
0

>  <SCORE.INTRA.SOLV>
0

>  <SCORE.INTRA.SOLV.lig_0>
-4.28901

>  <SCORE.INTRA.VDW>
0

>  <SCORE.INTRA.VDW.0>
0

>  <SCORE.INTRA.norm>
0

>  <SCORE.RESTR>
0

>  <SCORE.RESTR.CAVITY>
0

>  <SCORE.RESTR.norm>
0

>  <SCORE.SYSTEM>
0

>  <SCORE.SYSTEM.CONST>
0

>  <SCORE.SYSTEM.DIHEDRAL>
0

>  <SCORE.SYSTEM.SOLV>
0

>  <SCORE.SYSTEM.norm>
0

>  <SCORE.heavy>
10

>  <SCORE.norm>
-1.71157

>  <RMSD>
1.024

$$$$
ligand
 OpenBabel11021811423D
libRbt.so/2013.1/901 2013/11/27
 10 11  0  0  0  0  0  0  0  0999 V2000
   11.6782   11.5118    8.5396 N   0  0  0  0  0  0  0  0  0  0  0  0
   11.4785   12.8791    8.4877 C   0  0  0  0  0  0  0  0  0  0  0  0
   11.1872   13.5147    7.3445 N   0  0  0  0  0  0  0  0  0  0  0  0
   11.1154   12.6848    6.2716 C   0  0  0  0  0  0  0  0  0  0  0  0
   11.3042   11.3144    6.2510 C   0  0  0  0  0  0  0  0  0  0  0  0
   11.6133   10.6256    7.4596 C   0  0  0  0  0  0  0  0  0  0  0  0
   11.8191    9.4218    7.6708 O   0  0  0  0  0  0  0  0  0  0  0  0
   11.1404   10.8770    4.9654 N   0  0  0  0  0  0  0  0  0  0  0  0
   10.8535   11.9730    4.2195 C   0  0  0  0  0  0  0  0  0  0  0  0
   10.8315   13.1030    4.9958 N   0  0  0  0  0  0  0  0  0  0  0  0
  1  2  1  0  0  0  0
  1  6  1  0  0  0  0
  2  3  2  0  0  0  0
  3  4  1  0  0  0  0
  4  5  2  0  0  0  0
  4 10  1  0  0  0  0
  5  6  1  0  0  0  0
  5  8  1  0  0  0  0
  6  7  2  0  0  0  0
  8  9  1  0  0  0  0
  9 10  2  0  0  0  0
M  END
>  <CHROM.1>
11.31212219,11.74684671,6.64263966,0.24244301,-1.34942623,0.67377028

>  <Name>
ligand

>  <RI>
0

>  <Rbt.Current_Directory>
/home/itssahil/PROJECTS/Mol_Feturizer/New_Systems/rnas/2EEW

>  <Rbt.Executable>
rbdock ($Id: //depot/dev/client3/rdock/2013.1/src/exe/rbdock.cxx#4 $)

>  <Rbt.Library>
libRbt.so (2013.1, Build901 2013/11/27)

>  <Rbt.Parameter_File>
/export/apps/rDock/src/rDock_2013.1_src/data/scripts/dock_solv.prm

>  <Rbt.Receptor>
prm/blind_docking_40.prm

>  <SCORE>
-17.0475

>  <SCORE.INTER>
-17.0475

>  <SCORE.INTER.CONST>
1

>  <SCORE.INTER.POLAR>
0

>  <SCORE.INTER.ROT>
0

>  <SCORE.INTER.SOLV>
3.48183

>  <SCORE.INTER.VDW>
-16.1256

>  <SCORE.INTER.norm>
-1.70475

>  <SCORE.INTRA>
0

>  <SCORE.INTRA.DIHEDRAL>
0

>  <SCORE.INTRA.DIHEDRAL.0>
0

>  <SCORE.INTRA.POLAR>
0

>  <SCORE.INTRA.POLAR.0>
0

>  <SCORE.INTRA.REPUL>
0

>  <SCORE.INTRA.REPUL.0>
0

>  <SCORE.INTRA.SOLV>
0

>  <SCORE.INTRA.SOLV.lig_0>
-4.28901

>  <SCORE.INTRA.VDW>
0

>  <SCORE.INTRA.VDW.0>
0

>  <SCORE.INTRA.norm>
0

>  <SCORE.RESTR>
0

>  <SCORE.RESTR.CAVITY>
0

>  <SCORE.RESTR.norm>
0

>  <SCORE.SYSTEM>
0

>  <SCORE.SYSTEM.CONST>
0

>  <SCORE.SYSTEM.DIHEDRAL>
0

>  <SCORE.SYSTEM.SOLV>
0

>  <SCORE.SYSTEM.norm>
0

>  <SCORE.heavy>
10

>  <SCORE.norm>
-1.70475

>  <RMSD>
1.025

$$$$
ligand
 OpenBabel11021811423D
libRbt.so/2013.1/901 2013/11/27
 10 11  0  0  0  0  0  0  0  0999 V2000
   11.6617   11.4783    8.5280 N   0  0  0  0  0  0  0  0  0  0  0  0
   11.4488   12.8440    8.4890 C   0  0  0  0  0  0  0  0  0  0  0  0
   11.1565   13.4882    7.3509 N   0  0  0  0  0  0  0  0  0  0  0  0
   11.0980   12.6686    6.2693 C   0  0  0  0  0  0  0  0  0  0  0  0
   11.3005   11.3004    6.2358 C   0  0  0  0  0  0  0  0  0  0  0  0
   11.6107   10.6025    7.4389 C   0  0  0  0  0  0  0  0  0  0  0  0
   11.8273    9.3987    7.6389 O   0  0  0  0  0  0  0  0  0  0  0  0
   11.1470   10.8745    4.9451 N   0  0  0  0  0  0  0  0  0  0  0  0
   10.8528   11.9751    4.2089 C   0  0  0  0  0  0  0  0  0  0  0  0
   10.8161   13.0969    4.9964 N   0  0  0  0  0  0  0  0  0  0  0  0
  1  2  1  0  0  0  0
  1  6  1  0  0  0  0
  2  3  2  0  0  0  0
  3  4  1  0  0  0  0
  4  5  2  0  0  0  0
  4 10  1  0  0  0  0
  5  6  1  0  0  0  0
  5  8  1  0  0  0  0
  6  7  2  0  0  0  0
  8  9  1  0  0  0  0
  9 10  2  0  0  0  0
M  END
>  <CHROM.1>
11.30227271,11.72894243,6.63185174,0.29042329,-1.34668393,0.73067950

>  <Name>
ligand

>  <RI>
0

>  <Rbt.Current_Directory>
/home/itssahil/PROJECTS/Mol_Feturizer/New_Systems/rnas/2EEW

>  <Rbt.Executable>
rbdock ($Id: //depot/dev/client3/rdock/2013.1/src/exe/rbdock.cxx#4 $)

>  <Rbt.Library>
libRbt.so (2013.1, Build901 2013/11/27)

>  <Rbt.Parameter_File>
/export/apps/rDock/src/rDock_2013.1_src/data/scripts/dock_solv.prm

>  <Rbt.Receptor>
prm/pocket_docking_3.prm

>  <SCORE>
-17.0798

>  <SCORE.INTER>
-17.0798

>  <SCORE.INTER.CONST>
1

>  <SCORE.INTER.POLAR>
0

>  <SCORE.INTER.ROT>
0

>  <SCORE.INTER.SOLV>
3.46939

>  <SCORE.INTER.VDW>
-16.143

>  <SCORE.INTER.norm>
-1.70798

>  <SCORE.INTRA>
0

>  <SCORE.INTRA.DIHEDRAL>
0

>  <SCORE.INTRA.DIHEDRAL.0>
0

>  <SCORE.INTRA.POLAR>
0

>  <SCORE.INTRA.POLAR.0>
0

>  <SCORE.INTRA.REPUL>
0

>  <SCORE.INTRA.REPUL.0>
0

>  <SCORE.INTRA.SOLV>
0

>  <SCORE.INTRA.SOLV.lig_0>
-4.28901

>  <SCORE.INTRA.VDW>
0

>  <SCORE.INTRA.VDW.0>
0

>  <SCORE.INTRA.norm>
0

>  <SCORE.RESTR>
0

>  <SCORE.RESTR.CAVITY>
0

>  <SCORE.RESTR.norm>
0

>  <SCORE.SYSTEM>
0

>  <SCORE.SYSTEM.CONST>
0

>  <SCORE.SYSTEM.DIHEDRAL>
0

>  <SCORE.SYSTEM.SOLV>
0

>  <SCORE.SYSTEM.norm>
0

>  <SCORE.heavy>
10

>  <SCORE.norm>
-1.70798

>  <RMSD>
1.025

$$$$
ligand
 OpenBabel11021811423D
libRbt.so/2013.1/901 2013/11/27
 10 11  0  0  0  0  0  0  0  0999 V2000
   11.6928   11.4329    8.4983 N   0  0  0  0  0  0  0  0  0  0  0  0
   11.4659   12.7968    8.4830 C   0  0  0  0  0  0  0  0  0  0  0  0
   11.1643   13.4573    7.3568 N   0  0  0  0  0  0  0  0  0  0  0  0
   11.1115   12.6557    6.2615 C   0  0  0  0  0  0  0  0  0  0  0  0
   11.3279   11.2904    6.2042 C   0  0  0  0  0  0  0  0  0  0  0  0
   11.6481   10.5753    7.3945 C   0  0  0  0  0  0  0  0  0  0  0  0
   11.8775    9.3706    7.5734 O   0  0  0  0  0  0  0  0  0  0  0  0
   11.1757   10.8850    4.9067 N   0  0  0  0  0  0  0  0  0  0  0  0
   10.8685   11.9950    4.1901 C   0  0  0  0  0  0  0  0  0  0  0  0
   10.8222   13.1027    4.9967 N   0  0  0  0  0  0  0  0  0  0  0  0
  1  2  1  0  0  0  0
  1  6  1  0  0  0  0
  2  3  2  0  0  0  0
  3  4  1  0  0  0  0
  4  5  2  0  0  0  0
  4 10  1  0  0  0  0
  5  6  1  0  0  0  0
  5  8  1  0  0  0  0
  6  7  2  0  0  0  0
  8  9  1  0  0  0  0
  9 10  2  0  0  0  0
M  END
>  <CHROM.1>
11.32628204,11.71212464,6.60743712,0.31637813,-1.33798898,0.77301644

>  <Name>
ligand

>  <RI>
0

>  <Rbt.Current_Directory>
/home/itssahil/PROJECTS/Mol_Feturizer/New_Systems/rnas/2EEW

>  <Rbt.Executable>
rbdock ($Id: //depot/dev/client3/rdock/2013.1/src/exe/rbdock.cxx#4 $)

>  <Rbt.Library>
libRbt.so (2013.1, Build901 2013/11/27)

>  <Rbt.Parameter_File>
/export/apps/rDock/src/rDock_2013.1_src/data/scripts/dock_solv.prm

>  <Rbt.Receptor>
prm/pocket_docking_8.prm

>  <SCORE>
-17.1021

>  <SCORE.INTER>
-17.1021

>  <SCORE.INTER.CONST>
1

>  <SCORE.INTER.POLAR>
0

>  <SCORE.INTER.ROT>
0

>  <SCORE.INTER.SOLV>
3.4277

>  <SCORE.INTER.VDW>
-16.144

>  <SCORE.INTER.norm>
-1.71021

>  <SCORE.INTRA>
0

>  <SCORE.INTRA.DIHEDRAL>
0

>  <SCORE.INTRA.DIHEDRAL.0>
0

>  <SCORE.INTRA.POLAR>
0

>  <SCORE.INTRA.POLAR.0>
0

>  <SCORE.INTRA.REPUL>
0

>  <SCORE.INTRA.REPUL.0>
0

>  <SCORE.INTRA.SOLV>
0

>  <SCORE.INTRA.SOLV.lig_0>
-4.28901

>  <SCORE.INTRA.VDW>
0

>  <SCORE.INTRA.VDW.0>
0

>  <SCORE.INTRA.norm>
0

>  <SCORE.RESTR>
0

>  <SCORE.RESTR.CAVITY>
0

>  <SCORE.RESTR.norm>
0

>  <SCORE.SYSTEM>
0

>  <SCORE.SYSTEM.CONST>
0

>  <SCORE.SYSTEM.DIHEDRAL>
0

>  <SCORE.SYSTEM.SOLV>
0

>  <SCORE.SYSTEM.norm>
0

>  <SCORE.heavy>
10

>  <SCORE.norm>
-1.71021

>  <RMSD>
1.025

$$$$
ligand
 OpenBabel11021811423D
libRbt.so/2013.1/901 2013/11/27
 10 11  0  0  0  0  0  0  0  0999 V2000
   11.6551   11.4673    8.5250 N   0  0  0  0  0  0  0  0  0  0  0  0
   11.4592   12.8357    8.4932 C   0  0  0  0  0  0  0  0  0  0  0  0
   11.1766   13.4897    7.3583 N   0  0  0  0  0  0  0  0  0  0  0  0
   11.1095   12.6769    6.2721 C   0  0  0  0  0  0  0  0  0  0  0  0
   11.2950   11.3064    6.2313 C   0  0  0  0  0  0  0  0  0  0  0  0
   11.5948   10.5981    7.4310 C   0  0  0  0  0  0  0  0  0  0  0  0
   11.7962    9.3907    7.6247 O   0  0  0  0  0  0  0  0  0  0  0  0
   11.1382   10.8896    4.9381 N   0  0  0  0  0  0  0  0  0  0  0  0
   10.8588   11.9978    4.2076 C   0  0  0  0  0  0  0  0  0  0  0  0
   10.8348   13.1156    5.0012 N   0  0  0  0  0  0  0  0  0  0  0  0
  1  2  1  0  0  0  0
  1  6  1  0  0  0  0
  2  3  2  0  0  0  0
  3  4  1  0  0  0  0
  4  5  2  0  0  0  0
  4 10  1  0  0  0  0
  5  6  1  0  0  0  0
  5  8  1  0  0  0  0
  6  7  2  0  0  0  0
  8  9  1  0  0  0  0
  9 10  2  0  0  0  0
M  END
>  <CHROM.1>
11.30157215,11.73275628,6.62973048,0.25170822,-1.35589836,0.69840630

>  <Name>
ligand

>  <RI>
0

>  <Rbt.Current_Directory>
/home/itssahil/PROJECTS/Mol_Feturizer/New_Systems/rnas/2EEW

>  <Rbt.Executable>
rbdock ($Id: //depot/dev/client3/rdock/2013.1/src/exe/rbdock.cxx#4 $)

>  <Rbt.Library>
libRbt.so (2013.1, Build901 2013/11/27)

>  <Rbt.Parameter_File>
/export/apps/rDock/src/rDock_2013.1_src/data/scripts/dock_solv.prm

>  <Rbt.Receptor>
prm/blind_docking_100.prm

>  <SCORE>
-17.1153

>  <SCORE.INTER>
-17.1153

>  <SCORE.INTER.CONST>
1

>  <SCORE.INTER.POLAR>
0

>  <SCORE.INTER.ROT>
0

>  <SCORE.INTER.SOLV>
3.51811

>  <SCORE.INTER.VDW>
-16.1829

>  <SCORE.INTER.norm>
-1.71153

>  <SCORE.INTRA>
0

>  <SCORE.INTRA.DIHEDRAL>
0

>  <SCORE.INTRA.DIHEDRAL.0>
0

>  <SCORE.INTRA.POLAR>
0

>  <SCORE.INTRA.POLAR.0>
0

>  <SCORE.INTRA.REPUL>
0

>  <SCORE.INTRA.REPUL.0>
0

>  <SCORE.INTRA.SOLV>
0

>  <SCORE.INTRA.SOLV.lig_0>
-4.28901

>  <SCORE.INTRA.VDW>
0

>  <SCORE.INTRA.VDW.0>
0

>  <SCORE.INTRA.norm>
0

>  <SCORE.RESTR>
0

>  <SCORE.RESTR.CAVITY>
0

>  <SCORE.RESTR.norm>
0

>  <SCORE.SYSTEM>
0

>  <SCORE.SYSTEM.CONST>
0

>  <SCORE.SYSTEM.DIHEDRAL>
0

>  <SCORE.SYSTEM.SOLV>
0

>  <SCORE.SYSTEM.norm>
0

>  <SCORE.heavy>
10

>  <SCORE.norm>
-1.71153

>  <RMSD>
1.026

$$$$
ligand
 OpenBabel11021811423D
libRbt.so/2013.1/901 2013/11/27
 10 11  0  0  0  0  0  0  0  0999 V2000
   11.7039   11.4434    8.4944 N   0  0  0  0  0  0  0  0  0  0  0  0
   11.4783   12.8075    8.4873 C   0  0  0  0  0  0  0  0  0  0  0  0
   11.1696   13.4738    7.3665 N   0  0  0  0  0  0  0  0  0  0  0  0
   11.1083   12.6776    6.2677 C   0  0  0  0  0  0  0  0  0  0  0  0
   11.3227   11.3123    6.2022 C   0  0  0  0  0  0  0  0  0  0  0  0
   11.6505   10.5911    7.3868 C   0  0  0  0  0  0  0  0  0  0  0  0
   11.8798    9.3853    7.5583 O   0  0  0  0  0  0  0  0  0  0  0  0
   11.1610   10.9134    4.9040 N   0  0  0  0  0  0  0  0  0  0  0  0
   10.8500   12.0272    4.1949 C   0  0  0  0  0  0  0  0  0  0  0  0
   10.8105   13.1310    5.0072 N   0  0  0  0  0  0  0  0  0  0  0  0
  1  2  1  0  0  0  0
  1  6  1  0  0  0  0
  2  3  2  0  0  0  0
  3  4  1  0  0  0  0
  4  5  2  0  0  0  0
  4 10  1  0  0  0  0
  5  6  1  0  0  0  0
  5  8  1  0  0  0  0
  6  7  2  0  0  0  0
  8  9  1  0  0  0  0
  9 10  2  0  0  0  0
M  END
>  <CHROM.1>
11.32437201,11.73212271,6.60754762,0.29216759,-1.33367941,0.75432055

>  <Name>
ligand

>  <RI>
0

>  <Rbt.Current_Directory>
/home/itssahil/PROJECTS/Mol_Feturizer/New_Systems/rnas/2EEW

>  <Rbt.Executable>
rbdock ($Id: //depot/dev/client3/rdock/2013.1/src/exe/rbdock.cxx#4 $)

>  <Rbt.Library>
libRbt.so (2013.1, Build901 2013/11/27)

>  <Rbt.Parameter_File>
/export/apps/rDock/src/rDock_2013.1_src/data/scripts/dock_solv.prm

>  <Rbt.Receptor>
prm/blind_docking_40.prm

>  <SCORE>
-17.127

>  <SCORE.INTER>
-17.127

>  <SCORE.INTER.CONST>
1

>  <SCORE.INTER.POLAR>
0

>  <SCORE.INTER.ROT>
0

>  <SCORE.INTER.SOLV>
3.41957

>  <SCORE.INTER.VDW>
-16.1579

>  <SCORE.INTER.norm>
-1.7127

>  <SCORE.INTRA>
0

>  <SCORE.INTRA.DIHEDRAL>
0

>  <SCORE.INTRA.DIHEDRAL.0>
0

>  <SCORE.INTRA.POLAR>
0

>  <SCORE.INTRA.POLAR.0>
0

>  <SCORE.INTRA.REPUL>
0

>  <SCORE.INTRA.REPUL.0>
0

>  <SCORE.INTRA.SOLV>
0

>  <SCORE.INTRA.SOLV.lig_0>
-4.28901

>  <SCORE.INTRA.VDW>
0

>  <SCORE.INTRA.VDW.0>
0

>  <SCORE.INTRA.norm>
0

>  <SCORE.RESTR>
0

>  <SCORE.RESTR.CAVITY>
0

>  <SCORE.RESTR.norm>
0

>  <SCORE.SYSTEM>
0

>  <SCORE.SYSTEM.CONST>
0

>  <SCORE.SYSTEM.DIHEDRAL>
0

>  <SCORE.SYSTEM.SOLV>
0

>  <SCORE.SYSTEM.norm>
0

>  <SCORE.heavy>
10

>  <SCORE.norm>
-1.7127

>  <RMSD>
1.026

$$$$
ligand
 OpenBabel11021811423D
libRbt.so/2013.1/901 2013/11/27
 10 11  0  0  0  0  0  0  0  0999 V2000
   11.6479   11.4644    8.5251 N   0  0  0  0  0  0  0  0  0  0  0  0
   11.4384   12.8309    8.4946 C   0  0  0  0  0  0  0  0  0  0  0  0
   11.1566   13.4843    7.3592 N   0  0  0  0  0  0  0  0  0  0  0  0
   11.1046   12.6729    6.2710 C   0  0  0  0  0  0  0  0  0  0  0  0
   11.3042   11.3045    6.2288 C   0  0  0  0  0  0  0  0  0  0  0  0
   11.6034   10.5969    7.4290 C   0  0  0  0  0  0  0  0  0  0  0  0
   11.8157    9.3912    7.6217 O   0  0  0  0  0  0  0  0  0  0  0  0
   11.1599   10.8887    4.9338 N   0  0  0  0  0  0  0  0  0  0  0  0
   10.8740   11.9955    4.2036 C   0  0  0  0  0  0  0  0  0  0  0  0
   10.8336   13.1114    4.9992 N   0  0  0  0  0  0  0  0  0  0  0  0
  1  2  1  0  0  0  0
  1  6  1  0  0  0  0
  2  3  2  0  0  0  0
  3  4  1  0  0  0  0
  4  5  2  0  0  0  0
  4 10  1  0  0  0  0
  5  6  1  0  0  0  0
  5  8  1  0  0  0  0
  6  7  2  0  0  0  0
  8  9  1  0  0  0  0
  9 10  2  0  0  0  0
M  END
>  <CHROM.1>
11.30387363,11.73010040,6.62804529,0.30679541,-1.35401838,0.75415997

>  <Name>
ligand

>  <RI>
0

>  <Rbt.Current_Directory>
/home/itssahil/PROJECTS/Mol_Feturizer/New_Systems/rnas/2EEW

>  <Rbt.Executable>
rbdock ($Id: //depot/dev/client3/rdock/2013.1/src/exe/rbdock.cxx#4 $)

>  <Rbt.Library>
libRbt.so (2013.1, Build901 2013/11/27)

>  <Rbt.Parameter_File>
/export/apps/rDock/src/rDock_2013.1_src/data/scripts/dock_solv.prm

>  <Rbt.Receptor>
prm/blind_docking_40.prm

>  <SCORE>
-17.109

>  <SCORE.INTER>
-17.109

>  <SCORE.INTER.CONST>
1

>  <SCORE.INTER.POLAR>
0

>  <SCORE.INTER.ROT>
0

>  <SCORE.INTER.SOLV>
3.4933

>  <SCORE.INTER.VDW>
-16.1704

>  <SCORE.INTER.norm>
-1.7109

>  <SCORE.INTRA>
0

>  <SCORE.INTRA.DIHEDRAL>
0

>  <SCORE.INTRA.DIHEDRAL.0>
0

>  <SCORE.INTRA.POLAR>
0

>  <SCORE.INTRA.POLAR.0>
0

>  <SCORE.INTRA.REPUL>
0

>  <SCORE.INTRA.REPUL.0>
0

>  <SCORE.INTRA.SOLV>
0

>  <SCORE.INTRA.SOLV.lig_0>
-4.28901

>  <SCORE.INTRA.VDW>
0

>  <SCORE.INTRA.VDW.0>
0

>  <SCORE.INTRA.norm>
0

>  <SCORE.RESTR>
0

>  <SCORE.RESTR.CAVITY>
0

>  <SCORE.RESTR.norm>
0

>  <SCORE.SYSTEM>
0

>  <SCORE.SYSTEM.CONST>
0

>  <SCORE.SYSTEM.DIHEDRAL>
0

>  <SCORE.SYSTEM.SOLV>
0

>  <SCORE.SYSTEM.norm>
0

>  <SCORE.heavy>
10

>  <SCORE.norm>
-1.7109

>  <RMSD>
1.026

$$$$
ligand
 OpenBabel11021811423D
libRbt.so/2013.1/901 2013/11/27
 10 11  0  0  0  0  0  0  0  0999 V2000
   11.6928   11.4522    8.5049 N   0  0  0  0  0  0  0  0  0  0  0  0
   11.4769   12.8178    8.4843 C   0  0  0  0  0  0  0  0  0  0  0  0
   11.1776   13.4759    7.3560 N   0  0  0  0  0  0  0  0  0  0  0  0
   11.1154   12.6700    6.2643 C   0  0  0  0  0  0  0  0  0  0  0  0
   11.3204   11.3027    6.2124 C   0  0  0  0  0  0  0  0  0  0  0  0
   11.6381   10.5902    7.4049 C   0  0  0  0  0  0  0  0  0  0  0  0
   11.8582    9.3844    7.5885 O   0  0  0  0  0  0  0  0  0  0  0  0
   11.1614   10.8930    4.9171 N   0  0  0  0  0  0  0  0  0  0  0  0
   10.8613   12.0023    4.1965 C   0  0  0  0  0  0  0  0  0  0  0  0
   10.8262   13.1139    4.9985 N   0  0  0  0  0  0  0  0  0  0  0  0
  1  2  1  0  0  0  0
  1  6  1  0  0  0  0
  2  3  2  0  0  0  0
  3  4  1  0  0  0  0
  4  5  2  0  0  0  0
  4 10  1  0  0  0  0
  5  6  1  0  0  0  0
  5  8  1  0  0  0  0
  6  7  2  0  0  0  0
  8  9  1  0  0  0  0
  9 10  2  0  0  0  0
M  END
>  <CHROM.1>
11.32335265,11.72620898,6.61382270,0.28241263,-1.34159869,0.73563485

>  <Name>
ligand

>  <RI>
0

>  <Rbt.Current_Directory>
/home/itssahil/PROJECTS/Mol_Feturizer/New_Systems/rnas/2EEW

>  <Rbt.Executable>
rbdock ($Id: //depot/dev/client3/rdock/2013.1/src/exe/rbdock.cxx#4 $)

>  <Rbt.Library>
libRbt.so (2013.1, Build901 2013/11/27)

>  <Rbt.Parameter_File>
/export/apps/rDock/src/rDock_2013.1_src/data/scripts/dock_solv.prm

>  <Rbt.Receptor>
prm/pocket_docking_4.prm

>  <SCORE>
-17.1258

>  <SCORE.INTER>
-17.1258

>  <SCORE.INTER.CONST>
1

>  <SCORE.INTER.POLAR>
0

>  <SCORE.INTER.ROT>
0

>  <SCORE.INTER.SOLV>
3.44836

>  <SCORE.INTER.VDW>
-16.1667

>  <SCORE.INTER.norm>
-1.71258

>  <SCORE.INTRA>
0

>  <SCORE.INTRA.DIHEDRAL>
0

>  <SCORE.INTRA.DIHEDRAL.0>
0

>  <SCORE.INTRA.POLAR>
0

>  <SCORE.INTRA.POLAR.0>
0

>  <SCORE.INTRA.REPUL>
0

>  <SCORE.INTRA.REPUL.0>
0

>  <SCORE.INTRA.SOLV>
0

>  <SCORE.INTRA.SOLV.lig_0>
-4.28901

>  <SCORE.INTRA.VDW>
0

>  <SCORE.INTRA.VDW.0>
0

>  <SCORE.INTRA.norm>
0

>  <SCORE.RESTR>
0

>  <SCORE.RESTR.CAVITY>
0

>  <SCORE.RESTR.norm>
0

>  <SCORE.SYSTEM>
0

>  <SCORE.SYSTEM.CONST>
0

>  <SCORE.SYSTEM.DIHEDRAL>
0

>  <SCORE.SYSTEM.SOLV>
0

>  <SCORE.SYSTEM.norm>
0

>  <SCORE.heavy>
10

>  <SCORE.norm>
-1.71258

>  <RMSD>
1.026

$$$$
ligand
 OpenBabel11021811423D
libRbt.so/2013.1/901 2013/11/27
 10 11  0  0  0  0  0  0  0  0999 V2000
   11.6709   11.4985    8.5332 N   0  0  0  0  0  0  0  0  0  0  0  0
   11.4681   12.8656    8.4907 C   0  0  0  0  0  0  0  0  0  0  0  0
   11.1813   13.5092    7.3510 N   0  0  0  0  0  0  0  0  0  0  0  0
   11.1173   12.6875    6.2713 C   0  0  0  0  0  0  0  0  0  0  0  0
   11.3097   11.3177    6.2412 C   0  0  0  0  0  0  0  0  0  0  0  0
   11.6140   10.6204    7.4461 C   0  0  0  0  0  0  0  0  0  0  0  0
   11.8216    9.4155    7.6492 O   0  0  0  0  0  0  0  0  0  0  0  0
   11.1538   10.8899    4.9514 N   0  0  0  0  0  0  0  0  0  0  0  0
   10.8682   11.9909    4.2124 C   0  0  0  0  0  0  0  0  0  0  0  0
   10.8393   13.1147    4.9972 N   0  0  0  0  0  0  0  0  0  0  0  0
  1  2  1  0  0  0  0
  1  6  1  0  0  0  0
  2  3  2  0  0  0  0
  3  4  1  0  0  0  0
  4  5  2  0  0  0  0
  4 10  1  0  0  0  0
  5  6  1  0  0  0  0
  5  8  1  0  0  0  0
  6  7  2  0  0  0  0
  8  9  1  0  0  0  0
  9 10  2  0  0  0  0
M  END
>  <CHROM.1>
11.31441756,11.74717072,6.63618265,0.26676211,-1.35199907,0.70519522

>  <Name>
ligand

>  <RI>
0

>  <Rbt.Current_Directory>
/home/itssahil/PROJECTS/Mol_Feturizer/New_Systems/rnas/2EEW

>  <Rbt.Executable>
rbdock ($Id: //depot/dev/client3/rdock/2013.1/src/exe/rbdock.cxx#4 $)

>  <Rbt.Library>
libRbt.so (2013.1, Build901 2013/11/27)

>  <Rbt.Parameter_File>
/export/apps/rDock/src/rDock_2013.1_src/data/scripts/dock_solv.prm

>  <Rbt.Receptor>
prm/pocket_docking_8.prm

>  <SCORE>
-17.0519

>  <SCORE.INTER>
-17.0519

>  <SCORE.INTER.CONST>
1

>  <SCORE.INTER.POLAR>
0

>  <SCORE.INTER.ROT>
0

>  <SCORE.INTER.SOLV>
3.4842

>  <SCORE.INTER.VDW>
-16.1294

>  <SCORE.INTER.norm>
-1.70519

>  <SCORE.INTRA>
0

>  <SCORE.INTRA.DIHEDRAL>
0

>  <SCORE.INTRA.DIHEDRAL.0>
0

>  <SCORE.INTRA.POLAR>
0

>  <SCORE.INTRA.POLAR.0>
0

>  <SCORE.INTRA.REPUL>
0

>  <SCORE.INTRA.REPUL.0>
0

>  <SCORE.INTRA.SOLV>
0

>  <SCORE.INTRA.SOLV.lig_0>
-4.28901

>  <SCORE.INTRA.VDW>
0

>  <SCORE.INTRA.VDW.0>
0

>  <SCORE.INTRA.norm>
0

>  <SCORE.RESTR>
0

>  <SCORE.RESTR.CAVITY>
0

>  <SCORE.RESTR.norm>
0

>  <SCORE.SYSTEM>
0

>  <SCORE.SYSTEM.CONST>
0

>  <SCORE.SYSTEM.DIHEDRAL>
0

>  <SCORE.SYSTEM.SOLV>
0

>  <SCORE.SYSTEM.norm>
0

>  <SCORE.heavy>
10

>  <SCORE.norm>
-1.70519

>  <RMSD>
1.026

$$$$
ligand
 OpenBabel11021811423D
libRbt.so/2013.1/901 2013/11/27
 10 11  0  0  0  0  0  0  0  0999 V2000
   11.6467   11.4713    8.5281 N   0  0  0  0  0  0  0  0  0  0  0  0
   11.4256   12.8356    8.4874 C   0  0  0  0  0  0  0  0  0  0  0  0
   11.1437   13.4789    7.3462 N   0  0  0  0  0  0  0  0  0  0  0  0
   11.1040   12.6599    6.2633 C   0  0  0  0  0  0  0  0  0  0  0  0
   11.3156   11.2930    6.2313 C   0  0  0  0  0  0  0  0  0  0  0  0
   11.6150   10.5961    7.4377 C   0  0  0  0  0  0  0  0  0  0  0  0
   11.8368    9.3935    7.6395 O   0  0  0  0  0  0  0  0  0  0  0  0
   11.1812   10.8673    4.9385 N   0  0  0  0  0  0  0  0  0  0  0  0
   10.8893   11.9667    4.1994 C   0  0  0  0  0  0  0  0  0  0  0  0
   10.8355   13.0875    4.9873 N   0  0  0  0  0  0  0  0  0  0  0  0
  1  2  1  0  0  0  0
  1  6  1  0  0  0  0
  2  3  2  0  0  0  0
  3  4  1  0  0  0  0
  4  5  2  0  0  0  0
  4 10  1  0  0  0  0
  5  6  1  0  0  0  0
  5  8  1  0  0  0  0
  6  7  2  0  0  0  0
  8  9  1  0  0  0  0
  9 10  2  0  0  0  0
M  END
>  <CHROM.1>
11.30969192,11.72124293,6.62767140,0.35097812,-1.35145756,0.79057324

>  <Name>
ligand

>  <RI>
0

>  <Rbt.Current_Directory>
/home/itssahil/PROJECTS/Mol_Feturizer/New_Systems/rnas/2EEW

>  <Rbt.Executable>
rbdock ($Id: //depot/dev/client3/rdock/2013.1/src/exe/rbdock.cxx#4 $)

>  <Rbt.Library>
libRbt.so (2013.1, Build901 2013/11/27)

>  <Rbt.Parameter_File>
/export/apps/rDock/src/rDock_2013.1_src/data/scripts/dock_solv.prm

>  <Rbt.Receptor>
prm/blind_docking_80.prm

>  <SCORE>
-17.0744

>  <SCORE.INTER>
-17.0744

>  <SCORE.INTER.CONST>
1

>  <SCORE.INTER.POLAR>
0

>  <SCORE.INTER.ROT>
0

>  <SCORE.INTER.SOLV>
3.46849

>  <SCORE.INTER.VDW>
-16.1391

>  <SCORE.INTER.norm>
-1.70744

>  <SCORE.INTRA>
0

>  <SCORE.INTRA.DIHEDRAL>
0

>  <SCORE.INTRA.DIHEDRAL.0>
0

>  <SCORE.INTRA.POLAR>
0

>  <SCORE.INTRA.POLAR.0>
0

>  <SCORE.INTRA.REPUL>
0

>  <SCORE.INTRA.REPUL.0>
0

>  <SCORE.INTRA.SOLV>
0

>  <SCORE.INTRA.SOLV.lig_0>
-4.28901

>  <SCORE.INTRA.VDW>
0

>  <SCORE.INTRA.VDW.0>
0

>  <SCORE.INTRA.norm>
0

>  <SCORE.RESTR>
0

>  <SCORE.RESTR.CAVITY>
0

>  <SCORE.RESTR.norm>
0

>  <SCORE.SYSTEM>
0

>  <SCORE.SYSTEM.CONST>
0

>  <SCORE.SYSTEM.DIHEDRAL>
0

>  <SCORE.SYSTEM.SOLV>
0

>  <SCORE.SYSTEM.norm>
0

>  <SCORE.heavy>
10

>  <SCORE.norm>
-1.70744

>  <RMSD>
1.027

$$$$
ligand
 OpenBabel11021811423D
libRbt.so/2013.1/901 2013/11/27
 10 11  0  0  0  0  0  0  0  0999 V2000
   11.6415   11.4588    8.5238 N   0  0  0  0  0  0  0  0  0  0  0  0
   11.4271   12.8244    8.4941 C   0  0  0  0  0  0  0  0  0  0  0  0
   11.1447   13.4777    7.3587 N   0  0  0  0  0  0  0  0  0  0  0  0
   11.0975   12.6670    6.2698 C   0  0  0  0  0  0  0  0  0  0  0  0
   11.3021   11.2994    6.2269 C   0  0  0  0  0  0  0  0  0  0  0  0
   11.6019   10.5919    7.4270 C   0  0  0  0  0  0  0  0  0  0  0  0
   11.8183    9.3868    7.6191 O   0  0  0  0  0  0  0  0  0  0  0  0
   11.1615   10.8841    4.9313 N   0  0  0  0  0  0  0  0  0  0  0  0
   10.8728   11.9904    4.2015 C   0  0  0  0  0  0  0  0  0  0  0  0
   10.8270   13.1055    4.9979 N   0  0  0  0  0  0  0  0  0  0  0  0
  1  2  1  0  0  0  0
  1  6  1  0  0  0  0
  2  3  2  0  0  0  0
  3  4  1  0  0  0  0
  4  5  2  0  0  0  0
  4 10  1  0  0  0  0
  5  6  1  0  0  0  0
  5  8  1  0  0  0  0
  6  7  2  0  0  0  0
  8  9  1  0  0  0  0
  9 10  2  0  0  0  0
M  END
>  <CHROM.1>
11.29963269,11.72466286,6.62644329,0.32426014,-1.35268028,0.77199280

>  <Name>
ligand

>  <RI>
0

>  <Rbt.Current_Directory>
/home/itssahil/PROJECTS/Mol_Feturizer/New_Systems/rnas/2EEW

>  <Rbt.Executable>
rbdock ($Id: //depot/dev/client3/rdock/2013.1/src/exe/rbdock.cxx#4 $)

>  <Rbt.Library>
libRbt.so (2013.1, Build901 2013/11/27)

>  <Rbt.Parameter_File>
/export/apps/rDock/src/rDock_2013.1_src/data/scripts/dock_solv.prm

>  <Rbt.Receptor>
prm/pocket_docking_3.prm

>  <SCORE>
-17.0998

>  <SCORE.INTER>
-17.0998

>  <SCORE.INTER.CONST>
1

>  <SCORE.INTER.POLAR>
0

>  <SCORE.INTER.ROT>
0

>  <SCORE.INTER.SOLV>
3.4874

>  <SCORE.INTER.VDW>
-16.1624

>  <SCORE.INTER.norm>
-1.70998

>  <SCORE.INTRA>
0

>  <SCORE.INTRA.DIHEDRAL>
0

>  <SCORE.INTRA.DIHEDRAL.0>
0

>  <SCORE.INTRA.POLAR>
0

>  <SCORE.INTRA.POLAR.0>
0

>  <SCORE.INTRA.REPUL>
0

>  <SCORE.INTRA.REPUL.0>
0

>  <SCORE.INTRA.SOLV>
0

>  <SCORE.INTRA.SOLV.lig_0>
-4.28901

>  <SCORE.INTRA.VDW>
0

>  <SCORE.INTRA.VDW.0>
0

>  <SCORE.INTRA.norm>
0

>  <SCORE.RESTR>
0

>  <SCORE.RESTR.CAVITY>
0

>  <SCORE.RESTR.norm>
0

>  <SCORE.SYSTEM>
0

>  <SCORE.SYSTEM.CONST>
0

>  <SCORE.SYSTEM.DIHEDRAL>
0

>  <SCORE.SYSTEM.SOLV>
0

>  <SCORE.SYSTEM.norm>
0

>  <SCORE.heavy>
10

>  <SCORE.norm>
-1.70998

>  <RMSD>
1.027

$$$$
ligand
 OpenBabel11021811423D
libRbt.so/2013.1/901 2013/11/27
 10 11  0  0  0  0  0  0  0  0999 V2000
   11.6472   11.4665    8.5246 N   0  0  0  0  0  0  0  0  0  0  0  0
   11.4400   12.8332    8.4937 C   0  0  0  0  0  0  0  0  0  0  0  0
   11.1587   13.4866    7.3581 N   0  0  0  0  0  0  0  0  0  0  0  0
   11.1049   12.6749    6.2703 C   0  0  0  0  0  0  0  0  0  0  0  0
   11.3023   11.3062    6.2285 C   0  0  0  0  0  0  0  0  0  0  0  0
   11.6008   10.5985    7.4289 C   0  0  0  0  0  0  0  0  0  0  0  0
   11.8112    9.3925    7.6219 O   0  0  0  0  0  0  0  0  0  0  0  0
   11.1567   10.8901    4.9338 N   0  0  0  0  0  0  0  0  0  0  0  0
   10.8723   11.9971    4.2032 C   0  0  0  0  0  0  0  0  0  0  0  0
   10.8341   13.1134    4.9984 N   0  0  0  0  0  0  0  0  0  0  0  0
  1  2  1  0  0  0  0
  1  6  1  0  0  0  0
  2  3  2  0  0  0  0
  3  4  1  0  0  0  0
  4  5  2  0  0  0  0
  4 10  1  0  0  0  0
  5  6  1  0  0  0  0
  5  8  1  0  0  0  0
  6  7  2  0  0  0  0
  8  9  1  0  0  0  0
  9 10  2  0  0  0  0
M  END
>  <CHROM.1>
11.30282093,11.73192703,6.62760247,0.29982190,-1.35481267,0.74695431

>  <Name>
ligand

>  <RI>
0

>  <Rbt.Current_Directory>
/home/itssahil/PROJECTS/Mol_Feturizer/New_Systems/rnas/2EEW

>  <Rbt.Executable>
rbdock ($Id: //depot/dev/client3/rdock/2013.1/src/exe/rbdock.cxx#4 $)

>  <Rbt.Library>
libRbt.so (2013.1, Build901 2013/11/27)

>  <Rbt.Parameter_File>
/export/apps/rDock/src/rDock_2013.1_src/data/scripts/dock_solv.prm

>  <Rbt.Receptor>
prm/pocket_docking_4.prm

>  <SCORE>
-17.1108

>  <SCORE.INTER>
-17.1108

>  <SCORE.INTER.CONST>
1

>  <SCORE.INTER.POLAR>
0

>  <SCORE.INTER.ROT>
0

>  <SCORE.INTER.SOLV>
3.49867

>  <SCORE.INTER.VDW>
-16.1734

>  <SCORE.INTER.norm>
-1.71108

>  <SCORE.INTRA>
0

>  <SCORE.INTRA.DIHEDRAL>
0

>  <SCORE.INTRA.DIHEDRAL.0>
0

>  <SCORE.INTRA.POLAR>
0

>  <SCORE.INTRA.POLAR.0>
0

>  <SCORE.INTRA.REPUL>
0

>  <SCORE.INTRA.REPUL.0>
0

>  <SCORE.INTRA.SOLV>
0

>  <SCORE.INTRA.SOLV.lig_0>
-4.28901

>  <SCORE.INTRA.VDW>
0

>  <SCORE.INTRA.VDW.0>
0

>  <SCORE.INTRA.norm>
0

>  <SCORE.RESTR>
0

>  <SCORE.RESTR.CAVITY>
0

>  <SCORE.RESTR.norm>
0

>  <SCORE.SYSTEM>
0

>  <SCORE.SYSTEM.CONST>
0

>  <SCORE.SYSTEM.DIHEDRAL>
0

>  <SCORE.SYSTEM.SOLV>
0

>  <SCORE.SYSTEM.norm>
0

>  <SCORE.heavy>
10

>  <SCORE.norm>
-1.71108

>  <RMSD>
1.027

$$$$
ligand
 OpenBabel11021811423D
libRbt.so/2013.1/901 2013/11/27
 10 11  0  0  0  0  0  0  0  0999 V2000
   11.6599   11.4653    8.5205 N   0  0  0  0  0  0  0  0  0  0  0  0
   11.4601   12.8332    8.4919 C   0  0  0  0  0  0  0  0  0  0  0  0
   11.1752   13.4890    7.3586 N   0  0  0  0  0  0  0  0  0  0  0  0
   11.1099   12.6784    6.2705 C   0  0  0  0  0  0  0  0  0  0  0  0
   11.2993   11.3086    6.2266 C   0  0  0  0  0  0  0  0  0  0  0  0
   11.6016   10.5985    7.4245 C   0  0  0  0  0  0  0  0  0  0  0  0
   11.8065    9.3912    7.6154 O   0  0  0  0  0  0  0  0  0  0  0  0
   11.1431   10.8943    4.9325 N   0  0  0  0  0  0  0  0  0  0  0  0
   10.8602   12.0034    4.2046 C   0  0  0  0  0  0  0  0  0  0  0  0
   10.8334   13.1193    5.0008 N   0  0  0  0  0  0  0  0  0  0  0  0
  1  2  1  0  0  0  0
  1  6  1  0  0  0  0
  2  3  2  0  0  0  0
  3  4  1  0  0  0  0
  4  5  2  0  0  0  0
  4 10  1  0  0  0  0
  5  6  1  0  0  0  0
  5  8  1  0  0  0  0
  6  7  2  0  0  0  0
  8  9  1  0  0  0  0
  9 10  2  0  0  0  0
M  END
>  <CHROM.1>
11.30479499,11.73407323,6.62594697,0.26041187,-1.35373083,0.70917285

>  <Name>
ligand

>  <RI>
0

>  <Rbt.Current_Directory>
/home/itssahil/PROJECTS/Mol_Feturizer/New_Systems/rnas/2EEW

>  <Rbt.Executable>
rbdock ($Id: //depot/dev/client3/rdock/2013.1/src/exe/rbdock.cxx#4 $)

>  <Rbt.Library>
libRbt.so (2013.1, Build901 2013/11/27)

>  <Rbt.Parameter_File>
/export/apps/rDock/src/rDock_2013.1_src/data/scripts/dock_solv.prm

>  <Rbt.Receptor>
prm/pocket_docking_7.prm

>  <SCORE>
-17.1183

>  <SCORE.INTER>
-17.1183

>  <SCORE.INTER.CONST>
1

>  <SCORE.INTER.POLAR>
0

>  <SCORE.INTER.ROT>
0

>  <SCORE.INTER.SOLV>
3.50503

>  <SCORE.INTER.VDW>
-16.1805

>  <SCORE.INTER.norm>
-1.71183

>  <SCORE.INTRA>
0

>  <SCORE.INTRA.DIHEDRAL>
0

>  <SCORE.INTRA.DIHEDRAL.0>
0

>  <SCORE.INTRA.POLAR>
0

>  <SCORE.INTRA.POLAR.0>
0

>  <SCORE.INTRA.REPUL>
0

>  <SCORE.INTRA.REPUL.0>
0

>  <SCORE.INTRA.SOLV>
0

>  <SCORE.INTRA.SOLV.lig_0>
-4.28901

>  <SCORE.INTRA.VDW>
0

>  <SCORE.INTRA.VDW.0>
0

>  <SCORE.INTRA.norm>
0

>  <SCORE.RESTR>
0

>  <SCORE.RESTR.CAVITY>
0

>  <SCORE.RESTR.norm>
0

>  <SCORE.SYSTEM>
0

>  <SCORE.SYSTEM.CONST>
0

>  <SCORE.SYSTEM.DIHEDRAL>
0

>  <SCORE.SYSTEM.SOLV>
0

>  <SCORE.SYSTEM.norm>
0

>  <SCORE.heavy>
10

>  <SCORE.norm>
-1.71183

>  <RMSD>
1.027

$$$$
ligand
 OpenBabel11021811423D
libRbt.so/2013.1/901 2013/11/27
 10 11  0  0  0  0  0  0  0  0999 V2000
   11.7010   11.4978    8.5187 N   0  0  0  0  0  0  0  0  0  0  0  0
   11.4815   12.8624    8.4795 C   0  0  0  0  0  0  0  0  0  0  0  0
   11.1765   13.5036    7.3431 N   0  0  0  0  0  0  0  0  0  0  0  0
   11.1123   12.6821    6.2632 C   0  0  0  0  0  0  0  0  0  0  0  0
   11.3207   11.3148    6.2300 C   0  0  0  0  0  0  0  0  0  0  0  0
   11.6445   10.6201    7.4313 C   0  0  0  0  0  0  0  0  0  0  0  0
   11.8683    9.4176    7.6312 O   0  0  0  0  0  0  0  0  0  0  0  0
   11.1581   10.8863    4.9413 N   0  0  0  0  0  0  0  0  0  0  0  0
   10.8525   11.9845    4.2060 C   0  0  0  0  0  0  0  0  0  0  0  0
   10.8174   13.1072    4.9922 N   0  0  0  0  0  0  0  0  0  0  0  0
  1  2  1  0  0  0  0
  1  6  1  0  0  0  0
  2  3  2  0  0  0  0
  3  4  1  0  0  0  0
  4  5  2  0  0  0  0
  4 10  1  0  0  0  0
  5  6  1  0  0  0  0
  5  8  1  0  0  0  0
  6  7  2  0  0  0  0
  8  9  1  0  0  0  0
  9 10  2  0  0  0  0
M  END
>  <CHROM.1>
11.32401514,11.74394684,6.62533723,0.28007144,-1.33719151,0.71912852

>  <Name>
ligand

>  <RI>
0

>  <Rbt.Current_Directory>
/home/itssahil/PROJECTS/Mol_Feturizer/New_Systems/rnas/2EEW

>  <Rbt.Executable>
rbdock ($Id: //depot/dev/client3/rdock/2013.1/src/exe/rbdock.cxx#4 $)

>  <Rbt.Library>
libRbt.so (2013.1, Build901 2013/11/27)

>  <Rbt.Parameter_File>
/export/apps/rDock/src/rDock_2013.1_src/data/scripts/dock_solv.prm

>  <Rbt.Receptor>
prm/blind_docking_100.prm

>  <SCORE>
-17.0599

>  <SCORE.INTER>
-17.0599

>  <SCORE.INTER.CONST>
1

>  <SCORE.INTER.POLAR>
0

>  <SCORE.INTER.ROT>
0

>  <SCORE.INTER.SOLV>
3.4237

>  <SCORE.INTER.VDW>
-16.1145

>  <SCORE.INTER.norm>
-1.70599

>  <SCORE.INTRA>
0

>  <SCORE.INTRA.DIHEDRAL>
0

>  <SCORE.INTRA.DIHEDRAL.0>
0

>  <SCORE.INTRA.POLAR>
0

>  <SCORE.INTRA.POLAR.0>
0

>  <SCORE.INTRA.REPUL>
0

>  <SCORE.INTRA.REPUL.0>
0

>  <SCORE.INTRA.SOLV>
0

>  <SCORE.INTRA.SOLV.lig_0>
-4.28901

>  <SCORE.INTRA.VDW>
0

>  <SCORE.INTRA.VDW.0>
0

>  <SCORE.INTRA.norm>
0

>  <SCORE.RESTR>
0

>  <SCORE.RESTR.CAVITY>
0

>  <SCORE.RESTR.norm>
0

>  <SCORE.SYSTEM>
0

>  <SCORE.SYSTEM.CONST>
0

>  <SCORE.SYSTEM.DIHEDRAL>
0

>  <SCORE.SYSTEM.SOLV>
0

>  <SCORE.SYSTEM.norm>
0

>  <SCORE.heavy>
10

>  <SCORE.norm>
-1.70599

>  <RMSD>
1.028

$$$$
ligand
 OpenBabel11021811423D
libRbt.so/2013.1/901 2013/11/27
 10 11  0  0  0  0  0  0  0  0999 V2000
   11.6096   11.4814    8.5416 N   0  0  0  0  0  0  0  0  0  0  0  0
   11.3829   12.8447    8.4995 C   0  0  0  0  0  0  0  0  0  0  0  0
   11.1047   13.4867    7.3566 N   0  0  0  0  0  0  0  0  0  0  0  0
   11.0746   12.6673    6.2736 C   0  0  0  0  0  0  0  0  0  0  0  0
   11.2922   11.3013    6.2431 C   0  0  0  0  0  0  0  0  0  0  0  0
   11.5878   10.6058    7.4513 C   0  0  0  0  0  0  0  0  0  0  0  0
   11.8136    9.4043    7.6545 O   0  0  0  0  0  0  0  0  0  0  0  0
   11.1669   10.8748    4.9496 N   0  0  0  0  0  0  0  0  0  0  0  0
   10.8745   11.9728    4.2087 C   0  0  0  0  0  0  0  0  0  0  0  0
   10.8114   13.0935    4.9961 N   0  0  0  0  0  0  0  0  0  0  0  0
  1  2  1  0  0  0  0
  1  6  1  0  0  0  0
  2  3  2  0  0  0  0
  3  4  1  0  0  0  0
  4  5  2  0  0  0  0
  4 10  1  0  0  0  0
  5  6  1  0  0  0  0
  5  8  1  0  0  0  0
  6  7  2  0  0  0  0
  8  9  1  0  0  0  0
  9 10  2  0  0  0  0
M  END
>  <CHROM.1>
11.28221471,11.72955918,6.63932948,0.38331458,-1.35224667,0.82195462

>  <Name>
ligand

>  <RI>
0

>  <Rbt.Current_Directory>
/home/itssahil/PROJECTS/Mol_Feturizer/New_Systems/rnas/2EEW

>  <Rbt.Executable>
rbdock ($Id: //depot/dev/client3/rdock/2013.1/src/exe/rbdock.cxx#4 $)

>  <Rbt.Library>
libRbt.so (2013.1, Build901 2013/11/27)

>  <Rbt.Parameter_File>
/export/apps/rDock/src/rDock_2013.1_src/data/scripts/dock_solv.prm

>  <Rbt.Receptor>
prm/blind_docking_60.prm

>  <SCORE>
-17.0374

>  <SCORE.INTER>
-17.0374

>  <SCORE.INTER.CONST>
1

>  <SCORE.INTER.POLAR>
0

>  <SCORE.INTER.ROT>
0

>  <SCORE.INTER.SOLV>
3.47934

>  <SCORE.INTER.VDW>
-16.118

>  <SCORE.INTER.norm>
-1.70374

>  <SCORE.INTRA>
0

>  <SCORE.INTRA.DIHEDRAL>
0

>  <SCORE.INTRA.DIHEDRAL.0>
0

>  <SCORE.INTRA.POLAR>
0

>  <SCORE.INTRA.POLAR.0>
0

>  <SCORE.INTRA.REPUL>
0

>  <SCORE.INTRA.REPUL.0>
0

>  <SCORE.INTRA.SOLV>
0

>  <SCORE.INTRA.SOLV.lig_0>
-4.28901

>  <SCORE.INTRA.VDW>
0

>  <SCORE.INTRA.VDW.0>
0

>  <SCORE.INTRA.norm>
0

>  <SCORE.RESTR>
0

>  <SCORE.RESTR.CAVITY>
0

>  <SCORE.RESTR.norm>
0

>  <SCORE.SYSTEM>
0

>  <SCORE.SYSTEM.CONST>
0

>  <SCORE.SYSTEM.DIHEDRAL>
0

>  <SCORE.SYSTEM.SOLV>
0

>  <SCORE.SYSTEM.norm>
0

>  <SCORE.heavy>
10

>  <SCORE.norm>
-1.70374

>  <RMSD>
1.028

$$$$
ligand
 OpenBabel11021811423D
libRbt.so/2013.1/901 2013/11/27
 10 11  0  0  0  0  0  0  0  0999 V2000
   11.6458   11.4668    8.5211 N   0  0  0  0  0  0  0  0  0  0  0  0
   11.4193   12.8305    8.4899 C   0  0  0  0  0  0  0  0  0  0  0  0
   11.1322   13.4802    7.3536 N   0  0  0  0  0  0  0  0  0  0  0  0
   11.0932   12.6681    6.2654 C   0  0  0  0  0  0  0  0  0  0  0  0
   11.3101   11.3023    6.2240 C   0  0  0  0  0  0  0  0  0  0  0  0
   11.6151   10.5986    7.4251 C   0  0  0  0  0  0  0  0  0  0  0  0
   11.8421    9.3957    7.6185 O   0  0  0  0  0  0  0  0  0  0  0  0
   11.1744   10.8845    4.9287 N   0  0  0  0  0  0  0  0  0  0  0  0
   10.8765   11.9875    4.1975 C   0  0  0  0  0  0  0  0  0  0  0  0
   10.8201   13.1030    4.9929 N   0  0  0  0  0  0  0  0  0  0  0  0
  1  2  1  0  0  0  0
  1  6  1  0  0  0  0
  2  3  2  0  0  0  0
  3  4  1  0  0  0  0
  4  5  2  0  0  0  0
  4 10  1  0  0  0  0
  5  6  1  0  0  0  0
  5  8  1  0  0  0  0
  6  7  2  0  0  0  0
  8  9  1  0  0  0  0
  9 10  2  0  0  0  0
M  END
>  <CHROM.1>
11.30344585,11.72789568,6.62314038,0.35611132,-1.34702350,0.80213369

>  <Name>
ligand

>  <RI>
0

>  <Rbt.Current_Directory>
/home/itssahil/PROJECTS/Mol_Feturizer/New_Systems/rnas/2EEW

>  <Rbt.Executable>
rbdock ($Id: //depot/dev/client3/rdock/2013.1/src/exe/rbdock.cxx#4 $)

>  <Rbt.Library>
libRbt.so (2013.1, Build901 2013/11/27)

>  <Rbt.Parameter_File>
/export/apps/rDock/src/rDock_2013.1_src/data/scripts/dock_solv.prm

>  <Rbt.Receptor>
prm/blind_docking_80.prm

>  <SCORE>
-17.0711

>  <SCORE.INTER>
-17.0711

>  <SCORE.INTER.CONST>
1

>  <SCORE.INTER.POLAR>
0

>  <SCORE.INTER.ROT>
0

>  <SCORE.INTER.SOLV>
3.45664

>  <SCORE.INTER.VDW>
-16.133

>  <SCORE.INTER.norm>
-1.70711

>  <SCORE.INTRA>
0

>  <SCORE.INTRA.DIHEDRAL>
0

>  <SCORE.INTRA.DIHEDRAL.0>
0

>  <SCORE.INTRA.POLAR>
0

>  <SCORE.INTRA.POLAR.0>
0

>  <SCORE.INTRA.REPUL>
0

>  <SCORE.INTRA.REPUL.0>
0

>  <SCORE.INTRA.SOLV>
0

>  <SCORE.INTRA.SOLV.lig_0>
-4.28901

>  <SCORE.INTRA.VDW>
0

>  <SCORE.INTRA.VDW.0>
0

>  <SCORE.INTRA.norm>
0

>  <SCORE.RESTR>
0

>  <SCORE.RESTR.CAVITY>
0

>  <SCORE.RESTR.norm>
0

>  <SCORE.SYSTEM>
0

>  <SCORE.SYSTEM.CONST>
0

>  <SCORE.SYSTEM.DIHEDRAL>
0

>  <SCORE.SYSTEM.SOLV>
0

>  <SCORE.SYSTEM.norm>
0

>  <SCORE.heavy>
10

>  <SCORE.norm>
-1.70711

>  <RMSD>
1.029

$$$$
ligand
 OpenBabel11021811423D
libRbt.so/2013.1/901 2013/11/27
 10 11  0  0  0  0  0  0  0  0999 V2000
   11.6923   11.4469    8.4987 N   0  0  0  0  0  0  0  0  0  0  0  0
   11.4703   12.8116    8.4828 C   0  0  0  0  0  0  0  0  0  0  0  0
   11.1722   13.4728    7.3560 N   0  0  0  0  0  0  0  0  0  0  0  0
   11.1176   12.6710    6.2609 C   0  0  0  0  0  0  0  0  0  0  0  0
   11.3292   11.3049    6.2043 C   0  0  0  0  0  0  0  0  0  0  0  0
   11.6457   10.5890    7.3952 C   0  0  0  0  0  0  0  0  0  0  0  0
   11.8706    9.3836    7.5748 O   0  0  0  0  0  0  0  0  0  0  0  0
   11.1768   10.8996    4.9069 N   0  0  0  0  0  0  0  0  0  0  0  0
   10.8743   12.0104    4.1895 C   0  0  0  0  0  0  0  0  0  0  0  0
   10.8311   13.1185    4.9957 N   0  0  0  0  0  0  0  0  0  0  0  0
  1  2  1  0  0  0  0
  1  6  1  0  0  0  0
  2  3  2  0  0  0  0
  3  4  1  0  0  0  0
  4  5  2  0  0  0  0
  4 10  1  0  0  0  0
  5  6  1  0  0  0  0
  5  8  1  0  0  0  0
  6  7  2  0  0  0  0
  8  9  1  0  0  0  0
  9 10  2  0  0  0  0
M  END
>  <CHROM.1>
11.32865607,11.72675362,6.60743036,0.30817243,-1.34118502,0.76467408

>  <Name>
ligand

>  <RI>
0

>  <Rbt.Current_Directory>
/home/itssahil/PROJECTS/Mol_Feturizer/New_Systems/rnas/2EEW

>  <Rbt.Executable>
rbdock ($Id: //depot/dev/client3/rdock/2013.1/src/exe/rbdock.cxx#4 $)

>  <Rbt.Library>
libRbt.so (2013.1, Build901 2013/11/27)

>  <Rbt.Parameter_File>
/export/apps/rDock/src/rDock_2013.1_src/data/scripts/dock_solv.prm

>  <Rbt.Receptor>
prm/pocket_docking_4.prm

>  <SCORE>
-17.1118

>  <SCORE.INTER>
-17.1118

>  <SCORE.INTER.CONST>
1

>  <SCORE.INTER.POLAR>
0

>  <SCORE.INTER.ROT>
0

>  <SCORE.INTER.SOLV>
3.43777

>  <SCORE.INTER.VDW>
-16.1538

>  <SCORE.INTER.norm>
-1.71118

>  <SCORE.INTRA>
0

>  <SCORE.INTRA.DIHEDRAL>
0

>  <SCORE.INTRA.DIHEDRAL.0>
0

>  <SCORE.INTRA.POLAR>
0

>  <SCORE.INTRA.POLAR.0>
0

>  <SCORE.INTRA.REPUL>
0

>  <SCORE.INTRA.REPUL.0>
0

>  <SCORE.INTRA.SOLV>
0

>  <SCORE.INTRA.SOLV.lig_0>
-4.28901

>  <SCORE.INTRA.VDW>
0

>  <SCORE.INTRA.VDW.0>
0

>  <SCORE.INTRA.norm>
0

>  <SCORE.RESTR>
0

>  <SCORE.RESTR.CAVITY>
0

>  <SCORE.RESTR.norm>
0

>  <SCORE.SYSTEM>
0

>  <SCORE.SYSTEM.CONST>
0

>  <SCORE.SYSTEM.DIHEDRAL>
0

>  <SCORE.SYSTEM.SOLV>
0

>  <SCORE.SYSTEM.norm>
0

>  <SCORE.heavy>
10

>  <SCORE.norm>
-1.71118

>  <RMSD>
1.029

$$$$
ligand
 OpenBabel11021811423D
libRbt.so/2013.1/901 2013/11/27
 10 11  0  0  0  0  0  0  0  0999 V2000
   11.6554   11.4665    8.5183 N   0  0  0  0  0  0  0  0  0  0  0  0
   11.4223   12.8291    8.4882 C   0  0  0  0  0  0  0  0  0  0  0  0
   11.1286   13.4778    7.3530 N   0  0  0  0  0  0  0  0  0  0  0  0
   11.0902   12.6658    6.2647 C   0  0  0  0  0  0  0  0  0  0  0  0
   11.3134   11.3011    6.2222 C   0  0  0  0  0  0  0  0  0  0  0  0
   11.6254   10.5985    7.4221 C   0  0  0  0  0  0  0  0  0  0  0  0
   11.8586    9.3966    7.6145 O   0  0  0  0  0  0  0  0  0  0  0  0
   11.1757   10.8830    4.9272 N   0  0  0  0  0  0  0  0  0  0  0  0
   10.8704   11.9848    4.1973 C   0  0  0  0  0  0  0  0  0  0  0  0
   10.8111   13.0997    4.9931 N   0  0  0  0  0  0  0  0  0  0  0  0
  1  2  1  0  0  0  0
  1  6  1  0  0  0  0
  2  3  2  0  0  0  0
  3  4  1  0  0  0  0
  4  5  2  0  0  0  0
  4 10  1  0  0  0  0
  5  6  1  0  0  0  0
  5  8  1  0  0  0  0
  6  7  2  0  0  0  0
  8  9  1  0  0  0  0
  9 10  2  0  0  0  0
M  END
>  <CHROM.1>
11.30593455,11.72650691,6.62147910,0.36085747,-1.34149074,0.80704809

>  <Name>
ligand

>  <RI>
0

>  <Rbt.Current_Directory>
/home/itssahil/PROJECTS/Mol_Feturizer/New_Systems/rnas/2EEW

>  <Rbt.Executable>
rbdock ($Id: //depot/dev/client3/rdock/2013.1/src/exe/rbdock.cxx#4 $)

>  <Rbt.Library>
libRbt.so (2013.1, Build901 2013/11/27)

>  <Rbt.Parameter_File>
/export/apps/rDock/src/rDock_2013.1_src/data/scripts/dock_solv.prm

>  <Rbt.Receptor>
prm/pocket_docking_6.prm

>  <SCORE>
-17.0715

>  <SCORE.INTER>
-17.0715

>  <SCORE.INTER.CONST>
1

>  <SCORE.INTER.POLAR>
0

>  <SCORE.INTER.ROT>
0

>  <SCORE.INTER.SOLV>
3.43408

>  <SCORE.INTER.VDW>
-16.1257

>  <SCORE.INTER.norm>
-1.70715

>  <SCORE.INTRA>
0

>  <SCORE.INTRA.DIHEDRAL>
0

>  <SCORE.INTRA.DIHEDRAL.0>
0

>  <SCORE.INTRA.POLAR>
0

>  <SCORE.INTRA.POLAR.0>
0

>  <SCORE.INTRA.REPUL>
0

>  <SCORE.INTRA.REPUL.0>
0

>  <SCORE.INTRA.SOLV>
0

>  <SCORE.INTRA.SOLV.lig_0>
-4.28901

>  <SCORE.INTRA.VDW>
0

>  <SCORE.INTRA.VDW.0>
0

>  <SCORE.INTRA.norm>
0

>  <SCORE.RESTR>
0

>  <SCORE.RESTR.CAVITY>
0

>  <SCORE.RESTR.norm>
0

>  <SCORE.SYSTEM>
0

>  <SCORE.SYSTEM.CONST>
0

>  <SCORE.SYSTEM.DIHEDRAL>
0

>  <SCORE.SYSTEM.SOLV>
0

>  <SCORE.SYSTEM.norm>
0

>  <SCORE.heavy>
10

>  <SCORE.norm>
-1.70715

>  <RMSD>
1.029

$$$$
ligand
 OpenBabel11021811423D
libRbt.so/2013.1/901 2013/11/27
 10 11  0  0  0  0  0  0  0  0999 V2000
   11.6698   11.4440    8.5109 N   0  0  0  0  0  0  0  0  0  0  0  0
   11.4611   12.8104    8.4776 C   0  0  0  0  0  0  0  0  0  0  0  0
   11.1713   13.4604    7.3422 N   0  0  0  0  0  0  0  0  0  0  0  0
   11.1106   12.6456    6.2571 C   0  0  0  0  0  0  0  0  0  0  0  0
   11.3089   11.2769    6.2178 C   0  0  0  0  0  0  0  0  0  0  0  0
   11.6165   10.5729    7.4180 C   0  0  0  0  0  0  0  0  0  0  0  0
   11.8294    9.3677    7.6129 O   0  0  0  0  0  0  0  0  0  0  0  0
   11.1547   10.8571    4.9252 N   0  0  0  0  0  0  0  0  0  0  0  0
   10.8641   11.9617    4.1936 C   0  0  0  0  0  0  0  0  0  0  0  0
   10.8305   13.0802    4.9859 N   0  0  0  0  0  0  0  0  0  0  0  0
  1  2  1  0  0  0  0
  1  6  1  0  0  0  0
  2  3  2  0  0  0  0
  3  4  1  0  0  0  0
  4  5  2  0  0  0  0
  4 10  1  0  0  0  0
  5  6  1  0  0  0  0
  5  8  1  0  0  0  0
  6  7  2  0  0  0  0
  8  9  1  0  0  0  0
  9 10  2  0  0  0  0
M  END
>  <CHROM.1>
11.31188595,11.70379756,6.61564091,0.28119209,-1.34899601,0.72595415

>  <Name>
ligand

>  <RI>
0

>  <Rbt.Current_Directory>
/home/itssahil/PROJECTS/Mol_Feturizer/New_Systems/rnas/2EEW

>  <Rbt.Executable>
rbdock ($Id: //depot/dev/client3/rdock/2013.1/src/exe/rbdock.cxx#4 $)

>  <Rbt.Library>
libRbt.so (2013.1, Build901 2013/11/27)

>  <Rbt.Parameter_File>
/export/apps/rDock/src/rDock_2013.1_src/data/scripts/dock_solv.prm

>  <Rbt.Receptor>
prm/pocket_docking_8.prm

>  <SCORE>
-17.0734

>  <SCORE.INTER>
-17.0734

>  <SCORE.INTER.CONST>
1

>  <SCORE.INTER.POLAR>
0

>  <SCORE.INTER.ROT>
0

>  <SCORE.INTER.SOLV>
3.48187

>  <SCORE.INTER.VDW>
-16.1429

>  <SCORE.INTER.norm>
-1.70734

>  <SCORE.INTRA>
0

>  <SCORE.INTRA.DIHEDRAL>
0

>  <SCORE.INTRA.DIHEDRAL.0>
0

>  <SCORE.INTRA.POLAR>
0

>  <SCORE.INTRA.POLAR.0>
0

>  <SCORE.INTRA.REPUL>
0

>  <SCORE.INTRA.REPUL.0>
0

>  <SCORE.INTRA.SOLV>
0

>  <SCORE.INTRA.SOLV.lig_0>
-4.28901

>  <SCORE.INTRA.VDW>
0

>  <SCORE.INTRA.VDW.0>
0

>  <SCORE.INTRA.norm>
0

>  <SCORE.RESTR>
0

>  <SCORE.RESTR.CAVITY>
0

>  <SCORE.RESTR.norm>
0

>  <SCORE.SYSTEM>
0

>  <SCORE.SYSTEM.CONST>
0

>  <SCORE.SYSTEM.DIHEDRAL>
0

>  <SCORE.SYSTEM.SOLV>
0

>  <SCORE.SYSTEM.norm>
0

>  <SCORE.heavy>
10

>  <SCORE.norm>
-1.70734

>  <RMSD>
1.029

$$$$
ligand
 OpenBabel11021811423D
libRbt.so/2013.1/901 2013/11/27
 10 11  0  0  0  0  0  0  0  0999 V2000
   11.6489   11.4626    8.5181 N   0  0  0  0  0  0  0  0  0  0  0  0
   11.4493   12.8306    8.4924 C   0  0  0  0  0  0  0  0  0  0  0  0
   11.1704   13.4898    7.3596 N   0  0  0  0  0  0  0  0  0  0  0  0
   11.1108   12.6824    6.2689 C   0  0  0  0  0  0  0  0  0  0  0  0
   11.3003   11.3127    6.2219 C   0  0  0  0  0  0  0  0  0  0  0  0
   11.5963   10.5990    7.4193 C   0  0  0  0  0  0  0  0  0  0  0  0
   11.8002    9.3911    7.6076 O   0  0  0  0  0  0  0  0  0  0  0  0
   11.1509   10.9022    4.9258 N   0  0  0  0  0  0  0  0  0  0  0  0
   10.8719   12.0134    4.1997 C   0  0  0  0  0  0  0  0  0  0  0  0
   10.8409   13.1270    4.9990 N   0  0  0  0  0  0  0  0  0  0  0  0
  1  2  1  0  0  0  0
  1  6  1  0  0  0  0
  2  3  2  0  0  0  0
  3  4  1  0  0  0  0
  4  5  2  0  0  0  0
  4 10  1  0  0  0  0
  5  6  1  0  0  0  0
  5  8  1  0  0  0  0
  6  7  2  0  0  0  0
  8  9  1  0  0  0  0
  9 10  2  0  0  0  0
M  END
>  <CHROM.1>
11.30376856,11.73697823,6.62252292,0.27651352,-1.35769798,0.72784705

>  <Name>
ligand

>  <RI>
0

>  <Rbt.Current_Directory>
/home/itssahil/PROJECTS/Mol_Feturizer/New_Systems/rnas/2EEW

>  <Rbt.Executable>
rbdock ($Id: //depot/dev/client3/rdock/2013.1/src/exe/rbdock.cxx#4 $)

>  <Rbt.Library>
libRbt.so (2013.1, Build901 2013/11/27)

>  <Rbt.Parameter_File>
/export/apps/rDock/src/rDock_2013.1_src/data/scripts/dock_solv.prm

>  <Rbt.Receptor>
prm/pocket_docking_4.prm

>  <SCORE>
-17.1114

>  <SCORE.INTER>
-17.1114

>  <SCORE.INTER.CONST>
1

>  <SCORE.INTER.POLAR>
0

>  <SCORE.INTER.ROT>
0

>  <SCORE.INTER.SOLV>
3.51592

>  <SCORE.INTER.VDW>
-16.1796

>  <SCORE.INTER.norm>
-1.71114

>  <SCORE.INTRA>
0

>  <SCORE.INTRA.DIHEDRAL>
0

>  <SCORE.INTRA.DIHEDRAL.0>
0

>  <SCORE.INTRA.POLAR>
0

>  <SCORE.INTRA.POLAR.0>
0

>  <SCORE.INTRA.REPUL>
0

>  <SCORE.INTRA.REPUL.0>
0

>  <SCORE.INTRA.SOLV>
0

>  <SCORE.INTRA.SOLV.lig_0>
-4.28901

>  <SCORE.INTRA.VDW>
0

>  <SCORE.INTRA.VDW.0>
0

>  <SCORE.INTRA.norm>
0

>  <SCORE.RESTR>
0

>  <SCORE.RESTR.CAVITY>
0

>  <SCORE.RESTR.norm>
0

>  <SCORE.SYSTEM>
0

>  <SCORE.SYSTEM.CONST>
0

>  <SCORE.SYSTEM.DIHEDRAL>
0

>  <SCORE.SYSTEM.SOLV>
0

>  <SCORE.SYSTEM.norm>
0

>  <SCORE.heavy>
10

>  <SCORE.norm>
-1.71114

>  <RMSD>
1.031

$$$$
ligand
 OpenBabel11021811423D
libRbt.so/2013.1/901 2013/11/27
 10 11  0  0  0  0  0  0  0  0999 V2000
   11.6000   11.6336    8.6157 N   0  0  0  0  0  0  0  0  0  0  0  0
   11.3800   12.9936    8.4985 C   0  0  0  0  0  0  0  0  0  0  0  0
   11.1009   13.5724    7.3226 N   0  0  0  0  0  0  0  0  0  0  0  0
   11.0629   12.6942    6.2870 C   0  0  0  0  0  0  0  0  0  0  0  0
   11.2737   11.3275    6.3318 C   0  0  0  0  0  0  0  0  0  0  0  0
   11.5701   10.6988    7.5759 C   0  0  0  0  0  0  0  0  0  0  0  0
   11.7906    9.5093    7.8450 O   0  0  0  0  0  0  0  0  0  0  0  0
   11.1417   10.8303    5.0645 N   0  0  0  0  0  0  0  0  0  0  0  0
   10.8522   11.8869    4.2646 C   0  0  0  0  0  0  0  0  0  0  0  0
   10.7974   13.0500    4.9885 N   0  0  0  0  0  0  0  0  0  0  0  0
  1  2  1  0  0  0  0
  1  6  1  0  0  0  0
  2  3  2  0  0  0  0
  3  4  1  0  0  0  0
  4  5  2  0  0  0  0
  4 10  1  0  0  0  0
  5  6  1  0  0  0  0
  5  8  1  0  0  0  0
  6  7  2  0  0  0  0
  8  9  1  0  0  0  0
  9 10  2  0  0  0  0
M  END
>  <CHROM.1>
11.26721064,11.77720902,6.70363154,0.35580481,-1.35341170,0.73942242

>  <Name>
ligand

>  <RI>
0

>  <Rbt.Current_Directory>
/home/itssahil/PROJECTS/Mol_Feturizer/New_Systems/rnas/2EEW

>  <Rbt.Executable>
rbdock ($Id: //depot/dev/client3/rdock/2013.1/src/exe/rbdock.cxx#4 $)

>  <Rbt.Library>
libRbt.so (2013.1, Build901 2013/11/27)

>  <Rbt.Parameter_File>
/export/apps/rDock/src/rDock_2013.1_src/data/scripts/dock_solv.prm

>  <Rbt.Receptor>
prm/pocket_docking_8.prm

>  <SCORE>
-17.0808

>  <SCORE.INTER>
-17.0808

>  <SCORE.INTER.CONST>
1

>  <SCORE.INTER.POLAR>
0

>  <SCORE.INTER.ROT>
0

>  <SCORE.INTER.SOLV>
3.51512

>  <SCORE.INTER.VDW>
-16.1589

>  <SCORE.INTER.norm>
-1.70808

>  <SCORE.INTRA>
0

>  <SCORE.INTRA.DIHEDRAL>
0

>  <SCORE.INTRA.DIHEDRAL.0>
0

>  <SCORE.INTRA.POLAR>
0

>  <SCORE.INTRA.POLAR.0>
0

>  <SCORE.INTRA.REPUL>
0

>  <SCORE.INTRA.REPUL.0>
0

>  <SCORE.INTRA.SOLV>
0

>  <SCORE.INTRA.SOLV.lig_0>
-4.28901

>  <SCORE.INTRA.VDW>
0

>  <SCORE.INTRA.VDW.0>
0

>  <SCORE.INTRA.norm>
0

>  <SCORE.RESTR>
0

>  <SCORE.RESTR.CAVITY>
0

>  <SCORE.RESTR.norm>
0

>  <SCORE.SYSTEM>
0

>  <SCORE.SYSTEM.CONST>
0

>  <SCORE.SYSTEM.DIHEDRAL>
0

>  <SCORE.SYSTEM.SOLV>
0

>  <SCORE.SYSTEM.norm>
0

>  <SCORE.heavy>
10

>  <SCORE.norm>
-1.70808

>  <RMSD>
1.031

$$$$
ligand
 OpenBabel11021811423D
libRbt.so/2013.1/901 2013/11/27
 10 11  0  0  0  0  0  0  0  0999 V2000
   11.6460   11.4703    8.5206 N   0  0  0  0  0  0  0  0  0  0  0  0
   11.4349   12.8364    8.4877 C   0  0  0  0  0  0  0  0  0  0  0  0
   11.1504   13.4871    7.3514 N   0  0  0  0  0  0  0  0  0  0  0  0
   11.0977   12.6735    6.2650 C   0  0  0  0  0  0  0  0  0  0  0  0
   11.2989   11.3052    6.2253 C   0  0  0  0  0  0  0  0  0  0  0  0
   11.6008   10.6004    7.4265 C   0  0  0  0  0  0  0  0  0  0  0  0
   11.8149    9.3953    7.6213 O   0  0  0  0  0  0  0  0  0  0  0  0
   11.1530   10.8865    4.9314 N   0  0  0  0  0  0  0  0  0  0  0  0
   10.8646   11.9915    4.1993 C   0  0  0  0  0  0  0  0  0  0  0  0
   10.8242   13.1090    4.9927 N   0  0  0  0  0  0  0  0  0  0  0  0
  1  2  1  0  0  0  0
  1  6  1  0  0  0  0
  2  3  2  0  0  0  0
  3  4  1  0  0  0  0
  4  5  2  0  0  0  0
  4 10  1  0  0  0  0
  5  6  1  0  0  0  0
  5  8  1  0  0  0  0
  6  7  2  0  0  0  0
  8  9  1  0  0  0  0
  9 10  2  0  0  0  0
M  END
>  <CHROM.1>
11.29867675,11.73160179,6.62363477,0.30578311,-1.35203174,0.75109766

>  <Name>
ligand

>  <RI>
0

>  <Rbt.Current_Directory>
/home/itssahil/PROJECTS/Mol_Feturizer/New_Systems/rnas/2EEW

>  <Rbt.Executable>
rbdock ($Id: //depot/dev/client3/rdock/2013.1/src/exe/rbdock.cxx#4 $)

>  <Rbt.Library>
libRbt.so (2013.1, Build901 2013/11/27)

>  <Rbt.Parameter_File>
/export/apps/rDock/src/rDock_2013.1_src/data/scripts/dock_solv.prm

>  <Rbt.Receptor>
prm/blind_docking_40.prm

>  <SCORE>
-17.1096

>  <SCORE.INTER>
-17.1096

>  <SCORE.INTER.CONST>
1

>  <SCORE.INTER.POLAR>
0

>  <SCORE.INTER.ROT>
0

>  <SCORE.INTER.SOLV>
3.48906

>  <SCORE.INTER.VDW>
-16.1694

>  <SCORE.INTER.norm>
-1.71096

>  <SCORE.INTRA>
0

>  <SCORE.INTRA.DIHEDRAL>
0

>  <SCORE.INTRA.DIHEDRAL.0>
0

>  <SCORE.INTRA.POLAR>
0

>  <SCORE.INTRA.POLAR.0>
0

>  <SCORE.INTRA.REPUL>
0

>  <SCORE.INTRA.REPUL.0>
0

>  <SCORE.INTRA.SOLV>
0

>  <SCORE.INTRA.SOLV.lig_0>
-4.28901

>  <SCORE.INTRA.VDW>
0

>  <SCORE.INTRA.VDW.0>
0

>  <SCORE.INTRA.norm>
0

>  <SCORE.RESTR>
0

>  <SCORE.RESTR.CAVITY>
0

>  <SCORE.RESTR.norm>
0

>  <SCORE.SYSTEM>
0

>  <SCORE.SYSTEM.CONST>
0

>  <SCORE.SYSTEM.DIHEDRAL>
0

>  <SCORE.SYSTEM.SOLV>
0

>  <SCORE.SYSTEM.norm>
0

>  <SCORE.heavy>
10

>  <SCORE.norm>
-1.71096

>  <RMSD>
1.032

$$$$
ligand
 OpenBabel11021811423D
libRbt.so/2013.1/901 2013/11/27
 10 11  0  0  0  0  0  0  0  0999 V2000
   11.5992   11.6322    8.6170 N   0  0  0  0  0  0  0  0  0  0  0  0
   11.3749   12.9908    8.4912 C   0  0  0  0  0  0  0  0  0  0  0  0
   11.1025   13.5625    7.3103 N   0  0  0  0  0  0  0  0  0  0  0  0
   11.0756   12.6789    6.2790 C   0  0  0  0  0  0  0  0  0  0  0  0
   11.2911   11.3133    6.3323 C   0  0  0  0  0  0  0  0  0  0  0  0
   11.5805   10.6921    7.5818 C   0  0  0  0  0  0  0  0  0  0  0  0
   11.8034    9.5048    7.8586 O   0  0  0  0  0  0  0  0  0  0  0  0
   11.1705   10.8092    5.0666 N   0  0  0  0  0  0  0  0  0  0  0  0
   10.8830   11.8605    4.2592 C   0  0  0  0  0  0  0  0  0  0  0  0
   10.8185   13.0271    4.9767 N   0  0  0  0  0  0  0  0  0  0  0  0
  1  2  1  0  0  0  0
  1  6  1  0  0  0  0
  2  3  2  0  0  0  0
  3  4  1  0  0  0  0
  4  5  2  0  0  0  0
  4 10  1  0  0  0  0
  5  6  1  0  0  0  0
  5  8  1  0  0  0  0
  6  7  2  0  0  0  0
  8  9  1  0  0  0  0
  9 10  2  0  0  0  0
M  END
>  <CHROM.1>
11.28014749,11.76483652,6.70179280,0.39239521,-1.35631332,0.77005599

>  <Name>
ligand

>  <RI>
0

>  <Rbt.Current_Directory>
/home/itssahil/PROJECTS/Mol_Feturizer/New_Systems/rnas/2EEW

>  <Rbt.Executable>
rbdock ($Id: //depot/dev/client3/rdock/2013.1/src/exe/rbdock.cxx#4 $)

>  <Rbt.Library>
libRbt.so (2013.1, Build901 2013/11/27)

>  <Rbt.Parameter_File>
/export/apps/rDock/src/rDock_2013.1_src/data/scripts/dock_solv.prm

>  <Rbt.Receptor>
prm/blind_docking_60.prm

>  <SCORE>
-17.1009

>  <SCORE.INTER>
-17.1009

>  <SCORE.INTER.CONST>
1

>  <SCORE.INTER.POLAR>
0

>  <SCORE.INTER.ROT>
0

>  <SCORE.INTER.SOLV>
3.51493

>  <SCORE.INTER.VDW>
-16.1722

>  <SCORE.INTER.norm>
-1.71009

>  <SCORE.INTRA>
0

>  <SCORE.INTRA.DIHEDRAL>
0

>  <SCORE.INTRA.DIHEDRAL.0>
0

>  <SCORE.INTRA.POLAR>
0

>  <SCORE.INTRA.POLAR.0>
0

>  <SCORE.INTRA.REPUL>
0

>  <SCORE.INTRA.REPUL.0>
0

>  <SCORE.INTRA.SOLV>
0

>  <SCORE.INTRA.SOLV.lig_0>
-4.28901

>  <SCORE.INTRA.VDW>
0

>  <SCORE.INTRA.VDW.0>
0

>  <SCORE.INTRA.norm>
0

>  <SCORE.RESTR>
0

>  <SCORE.RESTR.CAVITY>
0

>  <SCORE.RESTR.norm>
0

>  <SCORE.SYSTEM>
0

>  <SCORE.SYSTEM.CONST>
0

>  <SCORE.SYSTEM.DIHEDRAL>
0

>  <SCORE.SYSTEM.SOLV>
0

>  <SCORE.SYSTEM.norm>
0

>  <SCORE.heavy>
10

>  <SCORE.norm>
-1.71009

>  <RMSD>
1.032

$$$$
ligand
 OpenBabel11021811423D
libRbt.so/2013.1/901 2013/11/27
 10 11  0  0  0  0  0  0  0  0999 V2000
   11.6213   11.6346    8.5999 N   0  0  0  0  0  0  0  0  0  0  0  0
   11.3752   12.9917    8.5023 C   0  0  0  0  0  0  0  0  0  0  0  0
   11.0906   13.5829    7.3340 N   0  0  0  0  0  0  0  0  0  0  0  0
   11.0750   12.7202    6.2849 C   0  0  0  0  0  0  0  0  0  0  0  0
   11.3123   11.3574    6.3099 C   0  0  0  0  0  0  0  0  0  0  0  0
   11.6149   10.7155    7.5458 C   0  0  0  0  0  0  0  0  0  0  0  0
   11.8574    9.5266    7.7978 O   0  0  0  0  0  0  0  0  0  0  0  0
   11.1964   10.8773    5.0345 N   0  0  0  0  0  0  0  0  0  0  0  0
   10.8901   11.9401    4.2493 C   0  0  0  0  0  0  0  0  0  0  0  0
   10.8089   13.0906    4.9906 N   0  0  0  0  0  0  0  0  0  0  0  0
  1  2  1  0  0  0  0
  1  6  1  0  0  0  0
  2  3  2  0  0  0  0
  3  4  1  0  0  0  0
  4  5  2  0  0  0  0
  4 10  1  0  0  0  0
  5  6  1  0  0  0  0
  5  8  1  0  0  0  0
  6  7  2  0  0  0  0
  8  9  1  0  0  0  0
  9 10  2  0  0  0  0
M  END
>  <CHROM.1>
11.29517813,11.80106740,6.68852395,0.43485393,-1.34314436,0.83185617

>  <Name>
ligand

>  <RI>
0

>  <Rbt.Current_Directory>
/home/itssahil/PROJECTS/Mol_Feturizer/New_Systems/rnas/2EEW

>  <Rbt.Executable>
rbdock ($Id: //depot/dev/client3/rdock/2013.1/src/exe/rbdock.cxx#4 $)

>  <Rbt.Library>
libRbt.so (2013.1, Build901 2013/11/27)

>  <Rbt.Parameter_File>
/export/apps/rDock/src/rDock_2013.1_src/data/scripts/dock_solv.prm

>  <Rbt.Receptor>
prm/pocket_docking_4.prm

>  <SCORE>
-17.0532

>  <SCORE.INTER>
-17.0532

>  <SCORE.INTER.CONST>
1

>  <SCORE.INTER.POLAR>
0

>  <SCORE.INTER.ROT>
0

>  <SCORE.INTER.SOLV>
3.42382

>  <SCORE.INTER.VDW>
-16.1101

>  <SCORE.INTER.norm>
-1.70532

>  <SCORE.INTRA>
0

>  <SCORE.INTRA.DIHEDRAL>
0

>  <SCORE.INTRA.DIHEDRAL.0>
0

>  <SCORE.INTRA.POLAR>
0

>  <SCORE.INTRA.POLAR.0>
0

>  <SCORE.INTRA.REPUL>
0

>  <SCORE.INTRA.REPUL.0>
0

>  <SCORE.INTRA.SOLV>
0

>  <SCORE.INTRA.SOLV.lig_0>
-4.28901

>  <SCORE.INTRA.VDW>
0

>  <SCORE.INTRA.VDW.0>
0

>  <SCORE.INTRA.norm>
0

>  <SCORE.RESTR>
0

>  <SCORE.RESTR.CAVITY>
0

>  <SCORE.RESTR.norm>
0

>  <SCORE.SYSTEM>
0

>  <SCORE.SYSTEM.CONST>
0

>  <SCORE.SYSTEM.DIHEDRAL>
0

>  <SCORE.SYSTEM.SOLV>
0

>  <SCORE.SYSTEM.norm>
0

>  <SCORE.heavy>
10

>  <SCORE.norm>
-1.70532

>  <RMSD>
1.032

$$$$
ligand
 OpenBabel11021811423D
libRbt.so/2013.1/901 2013/11/27
 10 11  0  0  0  0  0  0  0  0999 V2000
   11.6035   11.6348    8.6083 N   0  0  0  0  0  0  0  0  0  0  0  0
   11.3853   12.9965    8.5070 C   0  0  0  0  0  0  0  0  0  0  0  0
   11.1115   13.5900    7.3372 N   0  0  0  0  0  0  0  0  0  0  0  0
   11.0768   12.7247    6.2907 C   0  0  0  0  0  0  0  0  0  0  0  0
   11.2860   11.3574    6.3195 C   0  0  0  0  0  0  0  0  0  0  0  0
   11.5767   10.7131    7.5569 C   0  0  0  0  0  0  0  0  0  0  0  0
   11.7950    9.5201    7.8121 O   0  0  0  0  0  0  0  0  0  0  0  0
   11.1586   10.8760    5.0456 N   0  0  0  0  0  0  0  0  0  0  0  0
   10.8733   11.9427    4.2577 C   0  0  0  0  0  0  0  0  0  0  0  0
   10.8168   13.0968    4.9957 N   0  0  0  0  0  0  0  0  0  0  0  0
  1  2  1  0  0  0  0
  1  6  1  0  0  0  0
  2  3  2  0  0  0  0
  3  4  1  0  0  0  0
  4  5  2  0  0  0  0
  4 10  1  0  0  0  0
  5  6  1  0  0  0  0
  5  8  1  0  0  0  0
  6  7  2  0  0  0  0
  8  9  1  0  0  0  0
  9 10  2  0  0  0  0
M  END
>  <CHROM.1>
11.27847094,11.80243293,6.69681795,0.36485531,-1.35705474,0.76060780

>  <Name>
ligand

>  <RI>
0

>  <Rbt.Current_Directory>
/home/itssahil/PROJECTS/Mol_Feturizer/New_Systems/rnas/2EEW

>  <Rbt.Executable>
rbdock ($Id: //depot/dev/client3/rdock/2013.1/src/exe/rbdock.cxx#4 $)

>  <Rbt.Library>
libRbt.so (2013.1, Build901 2013/11/27)

>  <Rbt.Parameter_File>
/export/apps/rDock/src/rDock_2013.1_src/data/scripts/dock_solv.prm

>  <Rbt.Receptor>
prm/blind_docking_40.prm

>  <SCORE>
-17.0814

>  <SCORE.INTER>
-17.0814

>  <SCORE.INTER.CONST>
1

>  <SCORE.INTER.POLAR>
0

>  <SCORE.INTER.ROT>
0

>  <SCORE.INTER.SOLV>
3.50564

>  <SCORE.INTER.VDW>
-16.1561

>  <SCORE.INTER.norm>
-1.70814

>  <SCORE.INTRA>
0

>  <SCORE.INTRA.DIHEDRAL>
0

>  <SCORE.INTRA.DIHEDRAL.0>
0

>  <SCORE.INTRA.POLAR>
0

>  <SCORE.INTRA.POLAR.0>
0

>  <SCORE.INTRA.REPUL>
0

>  <SCORE.INTRA.REPUL.0>
0

>  <SCORE.INTRA.SOLV>
0

>  <SCORE.INTRA.SOLV.lig_0>
-4.28901

>  <SCORE.INTRA.VDW>
0

>  <SCORE.INTRA.VDW.0>
0

>  <SCORE.INTRA.norm>
0

>  <SCORE.RESTR>
0

>  <SCORE.RESTR.CAVITY>
0

>  <SCORE.RESTR.norm>
0

>  <SCORE.SYSTEM>
0

>  <SCORE.SYSTEM.CONST>
0

>  <SCORE.SYSTEM.DIHEDRAL>
0

>  <SCORE.SYSTEM.SOLV>
0

>  <SCORE.SYSTEM.norm>
0

>  <SCORE.heavy>
10

>  <SCORE.norm>
-1.70814

>  <RMSD>
1.033

$$$$
ligand
 OpenBabel11021811423D
libRbt.so/2013.1/901 2013/11/27
 10 11  0  0  0  0  0  0  0  0999 V2000
   11.6409   11.6047    8.5855 N   0  0  0  0  0  0  0  0  0  0  0  0
   11.4110   12.9639    8.4785 C   0  0  0  0  0  0  0  0  0  0  0  0
   11.1308   13.5500    7.3065 N   0  0  0  0  0  0  0  0  0  0  0  0
   11.1021   12.6799    6.2638 C   0  0  0  0  0  0  0  0  0  0  0  0
   11.3229   11.3145    6.2983 C   0  0  0  0  0  0  0  0  0  0  0  0
   11.6207   10.6781    7.5381 C   0  0  0  0  0  0  0  0  0  0  0  0
   11.8493    9.4881    7.7983 O   0  0  0  0  0  0  0  0  0  0  0  0
   11.1980   10.8265    5.0267 N   0  0  0  0  0  0  0  0  0  0  0  0
   10.9027   11.8873    4.2345 C   0  0  0  0  0  0  0  0  0  0  0  0
   10.8374   13.0441    4.9675 N   0  0  0  0  0  0  0  0  0  0  0  0
  1  2  1  0  0  0  0
  1  6  1  0  0  0  0
  2  3  2  0  0  0  0
  3  4  1  0  0  0  0
  4  5  2  0  0  0  0
  4 10  1  0  0  0  0
  5  6  1  0  0  0  0
  5  8  1  0  0  0  0
  6  7  2  0  0  0  0
  8  9  1  0  0  0  0
  9 10  2  0  0  0  0
M  END
>  <CHROM.1>
11.31210346,11.76112678,6.67367319,0.38910872,-1.35025083,0.77992478

>  <Name>
ligand

>  <RI>
0

>  <Rbt.Current_Directory>
/home/itssahil/PROJECTS/Mol_Feturizer/New_Systems/rnas/2EEW

>  <Rbt.Executable>
rbdock ($Id: //depot/dev/client3/rdock/2013.1/src/exe/rbdock.cxx#4 $)

>  <Rbt.Library>
libRbt.so (2013.1, Build901 2013/11/27)

>  <Rbt.Parameter_File>
/export/apps/rDock/src/rDock_2013.1_src/data/scripts/dock_solv.prm

>  <Rbt.Receptor>
prm/pocket_docking_3.prm

>  <SCORE>
-17.0831

>  <SCORE.INTER>
-17.0831

>  <SCORE.INTER.CONST>
1

>  <SCORE.INTER.POLAR>
0

>  <SCORE.INTER.ROT>
0

>  <SCORE.INTER.SOLV>
3.45796

>  <SCORE.INTER.VDW>
-16.1414

>  <SCORE.INTER.norm>
-1.70831

>  <SCORE.INTRA>
0

>  <SCORE.INTRA.DIHEDRAL>
0

>  <SCORE.INTRA.DIHEDRAL.0>
0

>  <SCORE.INTRA.POLAR>
0

>  <SCORE.INTRA.POLAR.0>
0

>  <SCORE.INTRA.REPUL>
0

>  <SCORE.INTRA.REPUL.0>
0

>  <SCORE.INTRA.SOLV>
0

>  <SCORE.INTRA.SOLV.lig_0>
-4.28901

>  <SCORE.INTRA.VDW>
0

>  <SCORE.INTRA.VDW.0>
0

>  <SCORE.INTRA.norm>
0

>  <SCORE.RESTR>
0

>  <SCORE.RESTR.CAVITY>
0

>  <SCORE.RESTR.norm>
0

>  <SCORE.SYSTEM>
0

>  <SCORE.SYSTEM.CONST>
0

>  <SCORE.SYSTEM.DIHEDRAL>
0

>  <SCORE.SYSTEM.SOLV>
0

>  <SCORE.SYSTEM.norm>
0

>  <SCORE.heavy>
10

>  <SCORE.norm>
-1.70831

>  <RMSD>
1.033

$$$$
ligand
 OpenBabel11021811423D
libRbt.so/2013.1/901 2013/11/27
 10 11  0  0  0  0  0  0  0  0999 V2000
   11.6737   11.4828    8.5171 N   0  0  0  0  0  0  0  0  0  0  0  0
   11.4730   12.8503    8.4768 C   0  0  0  0  0  0  0  0  0  0  0  0
   11.1829   13.4955    7.3388 N   0  0  0  0  0  0  0  0  0  0  0  0
   11.1135   12.6750    6.2585 C   0  0  0  0  0  0  0  0  0  0  0  0
   11.3035   11.3049    6.2263 C   0  0  0  0  0  0  0  0  0  0  0  0
   11.6113   10.6059    7.4294 C   0  0  0  0  0  0  0  0  0  0  0  0
   11.8177    9.4005    7.6304 O   0  0  0  0  0  0  0  0  0  0  0  0
   11.1421   10.8787    4.9368 N   0  0  0  0  0  0  0  0  0  0  0  0
   10.8554   11.9809    4.1999 C   0  0  0  0  0  0  0  0  0  0  0  0
   10.8313   13.1040    4.9860 N   0  0  0  0  0  0  0  0  0  0  0  0
  1  2  1  0  0  0  0
  1  6  1  0  0  0  0
  2  3  2  0  0  0  0
  3  4  1  0  0  0  0
  4  5  2  0  0  0  0
  4 10  1  0  0  0  0
  5  6  1  0  0  0  0
  5  8  1  0  0  0  0
  6  7  2  0  0  0  0
  8  9  1  0  0  0  0
  9 10  2  0  0  0  0
M  END
>  <CHROM.1>
11.31042809,11.73399811,6.62175216,0.24992237,-1.35012178,0.68977393

>  <Name>
ligand

>  <RI>
0

>  <Rbt.Current_Directory>
/home/itssahil/PROJECTS/Mol_Feturizer/New_Systems/rnas/2EEW

>  <Rbt.Executable>
rbdock ($Id: //depot/dev/client3/rdock/2013.1/src/exe/rbdock.cxx#4 $)

>  <Rbt.Library>
libRbt.so (2013.1, Build901 2013/11/27)

>  <Rbt.Parameter_File>
/export/apps/rDock/src/rDock_2013.1_src/data/scripts/dock_solv.prm

>  <Rbt.Receptor>
prm/pocket_docking_4.prm

>  <SCORE>
-17.1124

>  <SCORE.INTER>
-17.1124

>  <SCORE.INTER.CONST>
1

>  <SCORE.INTER.POLAR>
0

>  <SCORE.INTER.ROT>
0

>  <SCORE.INTER.SOLV>
3.48923

>  <SCORE.INTER.VDW>
-16.1713

>  <SCORE.INTER.norm>
-1.71124

>  <SCORE.INTRA>
0

>  <SCORE.INTRA.DIHEDRAL>
0

>  <SCORE.INTRA.DIHEDRAL.0>
0

>  <SCORE.INTRA.POLAR>
0

>  <SCORE.INTRA.POLAR.0>
0

>  <SCORE.INTRA.REPUL>
0

>  <SCORE.INTRA.REPUL.0>
0

>  <SCORE.INTRA.SOLV>
0

>  <SCORE.INTRA.SOLV.lig_0>
-4.28901

>  <SCORE.INTRA.VDW>
0

>  <SCORE.INTRA.VDW.0>
0

>  <SCORE.INTRA.norm>
0

>  <SCORE.RESTR>
0

>  <SCORE.RESTR.CAVITY>
0

>  <SCORE.RESTR.norm>
0

>  <SCORE.SYSTEM>
0

>  <SCORE.SYSTEM.CONST>
0

>  <SCORE.SYSTEM.DIHEDRAL>
0

>  <SCORE.SYSTEM.SOLV>
0

>  <SCORE.SYSTEM.norm>
0

>  <SCORE.heavy>
10

>  <SCORE.norm>
-1.71124

>  <RMSD>
1.034

$$$$
ligand
 OpenBabel11021811423D
libRbt.so/2013.1/901 2013/11/27
 10 11  0  0  0  0  0  0  0  0999 V2000
   11.6931   11.4387    8.4879 N   0  0  0  0  0  0  0  0  0  0  0  0
   11.4583   12.8013    8.4778 C   0  0  0  0  0  0  0  0  0  0  0  0
   11.1485   13.4636    7.3549 N   0  0  0  0  0  0  0  0  0  0  0  0
   11.0959   12.6651    6.2572 C   0  0  0  0  0  0  0  0  0  0  0  0
   11.3199   11.3012    6.1948 C   0  0  0  0  0  0  0  0  0  0  0  0
   11.6490   10.5843    7.3816 C   0  0  0  0  0  0  0  0  0  0  0  0
   11.8860    9.3803    7.5558 O   0  0  0  0  0  0  0  0  0  0  0  0
   11.1649   10.8991    4.8967 N   0  0  0  0  0  0  0  0  0  0  0  0
   10.8485   12.0094    4.1848 C   0  0  0  0  0  0  0  0  0  0  0  0
   10.7990   13.1144    4.9950 N   0  0  0  0  0  0  0  0  0  0  0  0
  1  2  1  0  0  0  0
  1  6  1  0  0  0  0
  2  3  2  0  0  0  0
  3  4  1  0  0  0  0
  4  5  2  0  0  0  0
  4 10  1  0  0  0  0
  5  6  1  0  0  0  0
  5  8  1  0  0  0  0
  6  7  2  0  0  0  0
  8  9  1  0  0  0  0
  9 10  2  0  0  0  0
M  END
>  <CHROM.1>
11.31747843,11.72169872,6.59938520,0.32208733,-1.33113573,0.78170581

>  <Name>
ligand

>  <RI>
0

>  <Rbt.Current_Directory>
/home/itssahil/PROJECTS/Mol_Feturizer/New_Systems/rnas/2EEW

>  <Rbt.Executable>
rbdock ($Id: //depot/dev/client3/rdock/2013.1/src/exe/rbdock.cxx#4 $)

>  <Rbt.Library>
libRbt.so (2013.1, Build901 2013/11/27)

>  <Rbt.Parameter_File>
/export/apps/rDock/src/rDock_2013.1_src/data/scripts/dock_solv.prm

>  <Rbt.Receptor>
prm/pocket_docking_5.prm

>  <SCORE>
-17.1082

>  <SCORE.INTER>
-17.1082

>  <SCORE.INTER.CONST>
1

>  <SCORE.INTER.POLAR>
0

>  <SCORE.INTER.ROT>
0

>  <SCORE.INTER.SOLV>
3.40873

>  <SCORE.INTER.VDW>
-16.1417

>  <SCORE.INTER.norm>
-1.71082

>  <SCORE.INTRA>
0

>  <SCORE.INTRA.DIHEDRAL>
0

>  <SCORE.INTRA.DIHEDRAL.0>
0

>  <SCORE.INTRA.POLAR>
0

>  <SCORE.INTRA.POLAR.0>
0

>  <SCORE.INTRA.REPUL>
0

>  <SCORE.INTRA.REPUL.0>
0

>  <SCORE.INTRA.SOLV>
0

>  <SCORE.INTRA.SOLV.lig_0>
-4.28901

>  <SCORE.INTRA.VDW>
0

>  <SCORE.INTRA.VDW.0>
0

>  <SCORE.INTRA.norm>
0

>  <SCORE.RESTR>
0

>  <SCORE.RESTR.CAVITY>
0

>  <SCORE.RESTR.norm>
0

>  <SCORE.SYSTEM>
0

>  <SCORE.SYSTEM.CONST>
0

>  <SCORE.SYSTEM.DIHEDRAL>
0

>  <SCORE.SYSTEM.SOLV>
0

>  <SCORE.SYSTEM.norm>
0

>  <SCORE.heavy>
10

>  <SCORE.norm>
-1.71082

>  <RMSD>
1.034

$$$$
ligand
 OpenBabel11021811423D
libRbt.so/2013.1/901 2013/11/27
 10 11  0  0  0  0  0  0  0  0999 V2000
   11.7023   11.4506    8.4884 N   0  0  0  0  0  0  0  0  0  0  0  0
   11.4606   12.8120    8.4773 C   0  0  0  0  0  0  0  0  0  0  0  0
   11.1446   13.4713    7.3543 N   0  0  0  0  0  0  0  0  0  0  0  0
   11.0932   12.6712    6.2578 C   0  0  0  0  0  0  0  0  0  0  0  0
   11.3239   11.3084    6.1965 C   0  0  0  0  0  0  0  0  0  0  0  0
   11.6596   10.5946    7.3833 C   0  0  0  0  0  0  0  0  0  0  0  0
   11.9032    9.3921    7.5584 O   0  0  0  0  0  0  0  0  0  0  0  0
   11.1675   10.9038    4.8993 N   0  0  0  0  0  0  0  0  0  0  0  0
   10.8437   12.0117    4.1868 C   0  0  0  0  0  0  0  0  0  0  0  0
   10.7908   13.1174    4.9959 N   0  0  0  0  0  0  0  0  0  0  0  0
  1  2  1  0  0  0  0
  1  6  1  0  0  0  0
  2  3  2  0  0  0  0
  3  4  1  0  0  0  0
  4  5  2  0  0  0  0
  4 10  1  0  0  0  0
  5  6  1  0  0  0  0
  5  8  1  0  0  0  0
  6  7  2  0  0  0  0
  8  9  1  0  0  0  0
  9 10  2  0  0  0  0
M  END
>  <CHROM.1>
11.32038733,11.72932875,6.60055426,0.32924591,-1.32574772,0.78741274

>  <Name>
ligand

>  <RI>
0

>  <Rbt.Current_Directory>
/home/itssahil/PROJECTS/Mol_Feturizer/New_Systems/rnas/2EEW

>  <Rbt.Executable>
rbdock ($Id: //depot/dev/client3/rdock/2013.1/src/exe/rbdock.cxx#4 $)

>  <Rbt.Library>
libRbt.so (2013.1, Build901 2013/11/27)

>  <Rbt.Parameter_File>
/export/apps/rDock/src/rDock_2013.1_src/data/scripts/dock_solv.prm

>  <Rbt.Receptor>
prm/pocket_docking_8.prm

>  <SCORE>
-17.1096

>  <SCORE.INTER>
-17.1096

>  <SCORE.INTER.CONST>
1

>  <SCORE.INTER.POLAR>
0

>  <SCORE.INTER.ROT>
0

>  <SCORE.INTER.SOLV>
3.38389

>  <SCORE.INTER.VDW>
-16.1344

>  <SCORE.INTER.norm>
-1.71096

>  <SCORE.INTRA>
0

>  <SCORE.INTRA.DIHEDRAL>
0

>  <SCORE.INTRA.DIHEDRAL.0>
0

>  <SCORE.INTRA.POLAR>
0

>  <SCORE.INTRA.POLAR.0>
0

>  <SCORE.INTRA.REPUL>
0

>  <SCORE.INTRA.REPUL.0>
0

>  <SCORE.INTRA.SOLV>
0

>  <SCORE.INTRA.SOLV.lig_0>
-4.28901

>  <SCORE.INTRA.VDW>
0

>  <SCORE.INTRA.VDW.0>
0

>  <SCORE.INTRA.norm>
0

>  <SCORE.RESTR>
0

>  <SCORE.RESTR.CAVITY>
0

>  <SCORE.RESTR.norm>
0

>  <SCORE.SYSTEM>
0

>  <SCORE.SYSTEM.CONST>
0

>  <SCORE.SYSTEM.DIHEDRAL>
0

>  <SCORE.SYSTEM.SOLV>
0

>  <SCORE.SYSTEM.norm>
0

>  <SCORE.heavy>
10

>  <SCORE.norm>
-1.71096

>  <RMSD>
1.034

$$$$
ligand
 OpenBabel11021811423D
libRbt.so/2013.1/901 2013/11/27
 10 11  0  0  0  0  0  0  0  0999 V2000
   11.6965   11.4532    8.4919 N   0  0  0  0  0  0  0  0  0  0  0  0
   11.4575   12.8150    8.4713 C   0  0  0  0  0  0  0  0  0  0  0  0
   11.1488   13.4681    7.3427 N   0  0  0  0  0  0  0  0  0  0  0  0
   11.1018   12.6615    6.2507 C   0  0  0  0  0  0  0  0  0  0  0  0
   11.3301   11.2980    6.1988 C   0  0  0  0  0  0  0  0  0  0  0  0
   11.6581   10.5906    7.3917 C   0  0  0  0  0  0  0  0  0  0  0  0
   11.8983    9.3888    7.5753 O   0  0  0  0  0  0  0  0  0  0  0  0
   11.1800   10.8859    4.9032 N   0  0  0  0  0  0  0  0  0  0  0  0
   10.8622   11.9901    4.1824 C   0  0  0  0  0  0  0  0  0  0  0  0
   10.8070   13.1007    4.9845 N   0  0  0  0  0  0  0  0  0  0  0  0
  1  2  1  0  0  0  0
  1  6  1  0  0  0  0
  2  3  2  0  0  0  0
  3  4  1  0  0  0  0
  4  5  2  0  0  0  0
  4 10  1  0  0  0  0
  5  6  1  0  0  0  0
  5  8  1  0  0  0  0
  6  7  2  0  0  0  0
  8  9  1  0  0  0  0
  9 10  2  0  0  0  0
M  END
>  <CHROM.1>
11.32526987,11.72133963,6.60033695,0.33963878,-1.33092062,0.79150611

>  <Name>
ligand

>  <RI>
0

>  <Rbt.Current_Directory>
/home/itssahil/PROJECTS/Mol_Feturizer/New_Systems/rnas/2EEW

>  <Rbt.Executable>
rbdock ($Id: //depot/dev/client3/rdock/2013.1/src/exe/rbdock.cxx#4 $)

>  <Rbt.Library>
libRbt.so (2013.1, Build901 2013/11/27)

>  <Rbt.Parameter_File>
/export/apps/rDock/src/rDock_2013.1_src/data/scripts/dock_solv.prm

>  <Rbt.Receptor>
prm/pocket_docking_4.prm

>  <SCORE>
-17.1252

>  <SCORE.INTER>
-17.1252

>  <SCORE.INTER.CONST>
1

>  <SCORE.INTER.POLAR>
0

>  <SCORE.INTER.ROT>
0

>  <SCORE.INTER.SOLV>
3.39527

>  <SCORE.INTER.VDW>
-16.1485

>  <SCORE.INTER.norm>
-1.71252

>  <SCORE.INTRA>
0

>  <SCORE.INTRA.DIHEDRAL>
0

>  <SCORE.INTRA.DIHEDRAL.0>
0

>  <SCORE.INTRA.POLAR>
0

>  <SCORE.INTRA.POLAR.0>
0

>  <SCORE.INTRA.REPUL>
0

>  <SCORE.INTRA.REPUL.0>
0

>  <SCORE.INTRA.SOLV>
0

>  <SCORE.INTRA.SOLV.lig_0>
-4.28901

>  <SCORE.INTRA.VDW>
0

>  <SCORE.INTRA.VDW.0>
0

>  <SCORE.INTRA.norm>
0

>  <SCORE.RESTR>
0

>  <SCORE.RESTR.CAVITY>
0

>  <SCORE.RESTR.norm>
0

>  <SCORE.SYSTEM>
0

>  <SCORE.SYSTEM.CONST>
0

>  <SCORE.SYSTEM.DIHEDRAL>
0

>  <SCORE.SYSTEM.SOLV>
0

>  <SCORE.SYSTEM.norm>
0

>  <SCORE.heavy>
10

>  <SCORE.norm>
-1.71252

>  <RMSD>
1.035

$$$$
ligand
 OpenBabel11021811423D
libRbt.so/2013.1/901 2013/11/27
 10 11  0  0  0  0  0  0  0  0999 V2000
   11.6786   11.4738    8.5069 N   0  0  0  0  0  0  0  0  0  0  0  0
   11.4722   12.8407    8.4777 C   0  0  0  0  0  0  0  0  0  0  0  0
   11.1783   13.4938    7.3451 N   0  0  0  0  0  0  0  0  0  0  0  0
   11.1113   12.6816    6.2584 C   0  0  0  0  0  0  0  0  0  0  0  0
   11.3070   11.3127    6.2151 C   0  0  0  0  0  0  0  0  0  0  0  0
   11.6189   10.6054    7.4122 C   0  0  0  0  0  0  0  0  0  0  0  0
   11.8306    9.3993    7.6034 O   0  0  0  0  0  0  0  0  0  0  0  0
   11.1462   10.8961    4.9223 N   0  0  0  0  0  0  0  0  0  0  0  0
   10.8542   12.0029    4.1945 C   0  0  0  0  0  0  0  0  0  0  0  0
   10.8261   13.1196    4.9896 N   0  0  0  0  0  0  0  0  0  0  0  0
  1  2  1  0  0  0  0
  1  6  1  0  0  0  0
  2  3  2  0  0  0  0
  3  4  1  0  0  0  0
  4  5  2  0  0  0  0
  4 10  1  0  0  0  0
  5  6  1  0  0  0  0
  5  8  1  0  0  0  0
  6  7  2  0  0  0  0
  8  9  1  0  0  0  0
  9 10  2  0  0  0  0
M  END
>  <CHROM.1>
11.31254869,11.73863146,6.61388337,0.26180763,-1.34670890,0.70935919

>  <Name>
ligand

>  <RI>
0

>  <Rbt.Current_Directory>
/home/itssahil/PROJECTS/Mol_Feturizer/New_Systems/rnas/2EEW

>  <Rbt.Executable>
rbdock ($Id: //depot/dev/client3/rdock/2013.1/src/exe/rbdock.cxx#4 $)

>  <Rbt.Library>
libRbt.so (2013.1, Build901 2013/11/27)

>  <Rbt.Parameter_File>
/export/apps/rDock/src/rDock_2013.1_src/data/scripts/dock_solv.prm

>  <Rbt.Receptor>
prm/blind_docking_100.prm

>  <SCORE>
-17.0973

>  <SCORE.INTER>
-17.0973

>  <SCORE.INTER.CONST>
1

>  <SCORE.INTER.POLAR>
0

>  <SCORE.INTER.ROT>
0

>  <SCORE.INTER.SOLV>
3.47609

>  <SCORE.INTER.VDW>
-16.1569

>  <SCORE.INTER.norm>
-1.70973

>  <SCORE.INTRA>
0

>  <SCORE.INTRA.DIHEDRAL>
0

>  <SCORE.INTRA.DIHEDRAL.0>
0

>  <SCORE.INTRA.POLAR>
0

>  <SCORE.INTRA.POLAR.0>
0

>  <SCORE.INTRA.REPUL>
0

>  <SCORE.INTRA.REPUL.0>
0

>  <SCORE.INTRA.SOLV>
0

>  <SCORE.INTRA.SOLV.lig_0>
-4.28901

>  <SCORE.INTRA.VDW>
0

>  <SCORE.INTRA.VDW.0>
0

>  <SCORE.INTRA.norm>
0

>  <SCORE.RESTR>
0

>  <SCORE.RESTR.CAVITY>
0

>  <SCORE.RESTR.norm>
0

>  <SCORE.SYSTEM>
0

>  <SCORE.SYSTEM.CONST>
0

>  <SCORE.SYSTEM.DIHEDRAL>
0

>  <SCORE.SYSTEM.SOLV>
0

>  <SCORE.SYSTEM.norm>
0

>  <SCORE.heavy>
10

>  <SCORE.norm>
-1.70973

>  <RMSD>
1.036

$$$$
ligand
 OpenBabel11021811423D
libRbt.so/2013.1/901 2013/11/27
 10 11  0  0  0  0  0  0  0  0999 V2000
   11.6892   11.4548    8.4955 N   0  0  0  0  0  0  0  0  0  0  0  0
   11.4682   12.8196    8.4734 C   0  0  0  0  0  0  0  0  0  0  0  0
   11.1661   13.4751    7.3444 N   0  0  0  0  0  0  0  0  0  0  0  0
   11.1065   12.6676    6.2537 C   0  0  0  0  0  0  0  0  0  0  0  0
   11.3168   11.3011    6.2033 C   0  0  0  0  0  0  0  0  0  0  0  0
   11.6375   10.5912    7.3967 C   0  0  0  0  0  0  0  0  0  0  0  0
   11.8622    9.3865    7.5816 O   0  0  0  0  0  0  0  0  0  0  0  0
   11.1589   10.8892    4.9087 N   0  0  0  0  0  0  0  0  0  0  0  0
   10.8544   11.9965    4.1868 C   0  0  0  0  0  0  0  0  0  0  0  0
   10.8153   13.1089    4.9873 N   0  0  0  0  0  0  0  0  0  0  0  0
  1  2  1  0  0  0  0
  1  6  1  0  0  0  0
  2  3  2  0  0  0  0
  3  4  1  0  0  0  0
  4  5  2  0  0  0  0
  4 10  1  0  0  0  0
  5  6  1  0  0  0  0
  5  8  1  0  0  0  0
  6  7  2  0  0  0  0
  8  9  1  0  0  0  0
  9 10  2  0  0  0  0
M  END
>  <CHROM.1>
11.31819418,11.72507879,6.60427189,0.29369426,-1.33881132,0.74537696

>  <Name>
ligand

>  <RI>
0

>  <Rbt.Current_Directory>
/home/itssahil/PROJECTS/Mol_Feturizer/New_Systems/rnas/2EEW

>  <Rbt.Executable>
rbdock ($Id: //depot/dev/client3/rdock/2013.1/src/exe/rbdock.cxx#4 $)

>  <Rbt.Library>
libRbt.so (2013.1, Build901 2013/11/27)

>  <Rbt.Parameter_File>
/export/apps/rDock/src/rDock_2013.1_src/data/scripts/dock_solv.prm

>  <Rbt.Receptor>
prm/blind_docking_40.prm

>  <SCORE>
-17.119

>  <SCORE.INTER>
-17.119

>  <SCORE.INTER.CONST>
1

>  <SCORE.INTER.POLAR>
0

>  <SCORE.INTER.ROT>
0

>  <SCORE.INTER.SOLV>
3.43949

>  <SCORE.INTER.VDW>
-16.1592

>  <SCORE.INTER.norm>
-1.7119

>  <SCORE.INTRA>
0

>  <SCORE.INTRA.DIHEDRAL>
0

>  <SCORE.INTRA.DIHEDRAL.0>
0

>  <SCORE.INTRA.POLAR>
0

>  <SCORE.INTRA.POLAR.0>
0

>  <SCORE.INTRA.REPUL>
0

>  <SCORE.INTRA.REPUL.0>
0

>  <SCORE.INTRA.SOLV>
0

>  <SCORE.INTRA.SOLV.lig_0>
-4.28901

>  <SCORE.INTRA.VDW>
0

>  <SCORE.INTRA.VDW.0>
0

>  <SCORE.INTRA.norm>
0

>  <SCORE.RESTR>
0

>  <SCORE.RESTR.CAVITY>
0

>  <SCORE.RESTR.norm>
0

>  <SCORE.SYSTEM>
0

>  <SCORE.SYSTEM.CONST>
0

>  <SCORE.SYSTEM.DIHEDRAL>
0

>  <SCORE.SYSTEM.SOLV>
0

>  <SCORE.SYSTEM.norm>
0

>  <SCORE.heavy>
10

>  <SCORE.norm>
-1.7119

>  <RMSD>
1.036

$$$$
ligand
 OpenBabel11021811423D
libRbt.so/2013.1/901 2013/11/27
 10 11  0  0  0  0  0  0  0  0999 V2000
   11.6808   11.4475    8.4952 N   0  0  0  0  0  0  0  0  0  0  0  0
   11.4595   12.8123    8.4765 C   0  0  0  0  0  0  0  0  0  0  0  0
   11.1613   13.4713    7.3485 N   0  0  0  0  0  0  0  0  0  0  0  0
   11.1057   12.6672    6.2551 C   0  0  0  0  0  0  0  0  0  0  0  0
   11.3164   11.3009    6.2012 C   0  0  0  0  0  0  0  0  0  0  0  0
   11.6330   10.5874    7.3934 C   0  0  0  0  0  0  0  0  0  0  0  0
   11.8573    9.3821    7.5754 O   0  0  0  0  0  0  0  0  0  0  0  0
   11.1632   10.8930    4.9047 N   0  0  0  0  0  0  0  0  0  0  0  0
   10.8610   12.0025    4.1852 C   0  0  0  0  0  0  0  0  0  0  0  0
   10.8188   13.1124    4.9891 N   0  0  0  0  0  0  0  0  0  0  0  0
  1  2  1  0  0  0  0
  1  6  1  0  0  0  0
  2  3  2  0  0  0  0
  3  4  1  0  0  0  0
  4  5  2  0  0  0  0
  4 10  1  0  0  0  0
  5  6  1  0  0  0  0
  5  8  1  0  0  0  0
  6  7  2  0  0  0  0
  8  9  1  0  0  0  0
  9 10  2  0  0  0  0
M  END
>  <CHROM.1>
11.31633827,11.72362525,6.60348466,0.30480476,-1.34125298,0.75933542

>  <Name>
ligand

>  <RI>
0

>  <Rbt.Current_Directory>
/home/itssahil/PROJECTS/Mol_Feturizer/New_Systems/rnas/2EEW

>  <Rbt.Executable>
rbdock ($Id: //depot/dev/client3/rdock/2013.1/src/exe/rbdock.cxx#4 $)

>  <Rbt.Library>
libRbt.so (2013.1, Build901 2013/11/27)

>  <Rbt.Parameter_File>
/export/apps/rDock/src/rDock_2013.1_src/data/scripts/dock_solv.prm

>  <Rbt.Receptor>
prm/pocket_docking_8.prm

>  <SCORE>
-17.1168

>  <SCORE.INTER>
-17.1168

>  <SCORE.INTER.CONST>
1

>  <SCORE.INTER.POLAR>
0

>  <SCORE.INTER.ROT>
0

>  <SCORE.INTER.SOLV>
3.44739

>  <SCORE.INTER.VDW>
-16.1603

>  <SCORE.INTER.norm>
-1.71168

>  <SCORE.INTRA>
0

>  <SCORE.INTRA.DIHEDRAL>
0

>  <SCORE.INTRA.DIHEDRAL.0>
0

>  <SCORE.INTRA.POLAR>
0

>  <SCORE.INTRA.POLAR.0>
0

>  <SCORE.INTRA.REPUL>
0

>  <SCORE.INTRA.REPUL.0>
0

>  <SCORE.INTRA.SOLV>
0

>  <SCORE.INTRA.SOLV.lig_0>
-4.28901

>  <SCORE.INTRA.VDW>
0

>  <SCORE.INTRA.VDW.0>
0

>  <SCORE.INTRA.norm>
0

>  <SCORE.RESTR>
0

>  <SCORE.RESTR.CAVITY>
0

>  <SCORE.RESTR.norm>
0

>  <SCORE.SYSTEM>
0

>  <SCORE.SYSTEM.CONST>
0

>  <SCORE.SYSTEM.DIHEDRAL>
0

>  <SCORE.SYSTEM.SOLV>
0

>  <SCORE.SYSTEM.norm>
0

>  <SCORE.heavy>
10

>  <SCORE.norm>
-1.71168

>  <RMSD>
1.036

$$$$
ligand
 OpenBabel11021811423D
libRbt.so/2013.1/901 2013/11/27
 10 11  0  0  0  0  0  0  0  0999 V2000
   11.6792   11.4620    8.4988 N   0  0  0  0  0  0  0  0  0  0  0  0
   11.4608   12.8271    8.4743 C   0  0  0  0  0  0  0  0  0  0  0  0
   11.1631   13.4818    7.3437 N   0  0  0  0  0  0  0  0  0  0  0  0
   11.1050   12.6731    6.2538 C   0  0  0  0  0  0  0  0  0  0  0  0
   11.3128   11.3061    6.2058 C   0  0  0  0  0  0  0  0  0  0  0  0
   11.6289   10.5971    7.4009 C   0  0  0  0  0  0  0  0  0  0  0  0
   11.8508    9.3923    7.5880 O   0  0  0  0  0  0  0  0  0  0  0  0
   11.1578   10.8929    4.9112 N   0  0  0  0  0  0  0  0  0  0  0  0
   10.8573   11.9998    4.1871 C   0  0  0  0  0  0  0  0  0  0  0  0
   10.8182   13.1133    4.9861 N   0  0  0  0  0  0  0  0  0  0  0  0
  1  2  1  0  0  0  0
  1  6  1  0  0  0  0
  2  3  2  0  0  0  0
  3  4  1  0  0  0  0
  4  5  2  0  0  0  0
  4 10  1  0  0  0  0
  5  6  1  0  0  0  0
  5  8  1  0  0  0  0
  6  7  2  0  0  0  0
  8  9  1  0  0  0  0
  9 10  2  0  0  0  0
M  END
>  <CHROM.1>
11.31394996,11.73059508,6.60620475,0.29581632,-1.34214157,0.74618330

>  <Name>
ligand

>  <RI>
0

>  <Rbt.Current_Directory>
/home/itssahil/PROJECTS/Mol_Feturizer/New_Systems/rnas/2EEW

>  <Rbt.Executable>
rbdock ($Id: //depot/dev/client3/rdock/2013.1/src/exe/rbdock.cxx#4 $)

>  <Rbt.Library>
libRbt.so (2013.1, Build901 2013/11/27)

>  <Rbt.Parameter_File>
/export/apps/rDock/src/rDock_2013.1_src/data/scripts/dock_solv.prm

>  <Rbt.Receptor>
prm/pocket_docking_5.prm

>  <SCORE>
-17.1239

>  <SCORE.INTER>
-17.1239

>  <SCORE.INTER.CONST>
1

>  <SCORE.INTER.POLAR>
0

>  <SCORE.INTER.ROT>
0

>  <SCORE.INTER.SOLV>
3.45223

>  <SCORE.INTER.VDW>
-16.1666

>  <SCORE.INTER.norm>
-1.71239

>  <SCORE.INTRA>
0

>  <SCORE.INTRA.DIHEDRAL>
0

>  <SCORE.INTRA.DIHEDRAL.0>
0

>  <SCORE.INTRA.POLAR>
0

>  <SCORE.INTRA.POLAR.0>
0

>  <SCORE.INTRA.REPUL>
0

>  <SCORE.INTRA.REPUL.0>
0

>  <SCORE.INTRA.SOLV>
0

>  <SCORE.INTRA.SOLV.lig_0>
-4.28901

>  <SCORE.INTRA.VDW>
0

>  <SCORE.INTRA.VDW.0>
0

>  <SCORE.INTRA.norm>
0

>  <SCORE.RESTR>
0

>  <SCORE.RESTR.CAVITY>
0

>  <SCORE.RESTR.norm>
0

>  <SCORE.SYSTEM>
0

>  <SCORE.SYSTEM.CONST>
0

>  <SCORE.SYSTEM.DIHEDRAL>
0

>  <SCORE.SYSTEM.SOLV>
0

>  <SCORE.SYSTEM.norm>
0

>  <SCORE.heavy>
10

>  <SCORE.norm>
-1.71239

>  <RMSD>
1.038

$$$$
ligand
 OpenBabel11021811423D
libRbt.so/2013.1/901 2013/11/27
 10 11  0  0  0  0  0  0  0  0999 V2000
   11.6641   11.4648    8.5086 N   0  0  0  0  0  0  0  0  0  0  0  0
   11.4675   12.8331    8.4774 C   0  0  0  0  0  0  0  0  0  0  0  0
   11.1830   13.4873    7.3431 N   0  0  0  0  0  0  0  0  0  0  0  0
   11.1148   12.6748    6.2568 C   0  0  0  0  0  0  0  0  0  0  0  0
   11.3010   11.3045    6.2153 C   0  0  0  0  0  0  0  0  0  0  0  0
   11.6028   10.5959    7.4144 C   0  0  0  0  0  0  0  0  0  0  0  0
   11.8051    9.3885    7.6074 O   0  0  0  0  0  0  0  0  0  0  0  0
   11.1426   10.8879    4.9222 N   0  0  0  0  0  0  0  0  0  0  0  0
   10.8616   11.9962    4.1924 C   0  0  0  0  0  0  0  0  0  0  0  0
   10.8381   13.1138    4.9864 N   0  0  0  0  0  0  0  0  0  0  0  0
  1  2  1  0  0  0  0
  1  6  1  0  0  0  0
  2  3  2  0  0  0  0
  3  4  1  0  0  0  0
  4  5  2  0  0  0  0
  4 10  1  0  0  0  0
  5  6  1  0  0  0  0
  5  8  1  0  0  0  0
  6  7  2  0  0  0  0
  8  9  1  0  0  0  0
  9 10  2  0  0  0  0
M  END
>  <CHROM.1>
11.30787064,11.73065086,6.61383513,0.24937369,-1.35451197,0.69642665

>  <Name>
ligand

>  <RI>
0

>  <Rbt.Current_Directory>
/home/itssahil/PROJECTS/Mol_Feturizer/New_Systems/rnas/2EEW

>  <Rbt.Executable>
rbdock ($Id: //depot/dev/client3/rdock/2013.1/src/exe/rbdock.cxx#4 $)

>  <Rbt.Library>
libRbt.so (2013.1, Build901 2013/11/27)

>  <Rbt.Parameter_File>
/export/apps/rDock/src/rDock_2013.1_src/data/scripts/dock_solv.prm

>  <Rbt.Receptor>
prm/pocket_docking_7.prm

>  <SCORE>
-17.1422

>  <SCORE.INTER>
-17.1422

>  <SCORE.INTER.CONST>
1

>  <SCORE.INTER.POLAR>
0

>  <SCORE.INTER.ROT>
0

>  <SCORE.INTER.SOLV>
3.51102

>  <SCORE.INTER.VDW>
-16.1985

>  <SCORE.INTER.norm>
-1.71422

>  <SCORE.INTRA>
0

>  <SCORE.INTRA.DIHEDRAL>
0

>  <SCORE.INTRA.DIHEDRAL.0>
0

>  <SCORE.INTRA.POLAR>
0

>  <SCORE.INTRA.POLAR.0>
0

>  <SCORE.INTRA.REPUL>
0

>  <SCORE.INTRA.REPUL.0>
0

>  <SCORE.INTRA.SOLV>
0

>  <SCORE.INTRA.SOLV.lig_0>
-4.28901

>  <SCORE.INTRA.VDW>
0

>  <SCORE.INTRA.VDW.0>
0

>  <SCORE.INTRA.norm>
0

>  <SCORE.RESTR>
0

>  <SCORE.RESTR.CAVITY>
0

>  <SCORE.RESTR.norm>
0

>  <SCORE.SYSTEM>
0

>  <SCORE.SYSTEM.CONST>
0

>  <SCORE.SYSTEM.DIHEDRAL>
0

>  <SCORE.SYSTEM.SOLV>
0

>  <SCORE.SYSTEM.norm>
0

>  <SCORE.heavy>
10

>  <SCORE.norm>
-1.71422

>  <RMSD>
1.038

$$$$
ligand
 OpenBabel11021811423D
libRbt.so/2013.1/901 2013/11/27
 10 11  0  0  0  0  0  0  0  0999 V2000
   11.7046   11.4810    8.4959 N   0  0  0  0  0  0  0  0  0  0  0  0
   11.4708   12.8436    8.4679 C   0  0  0  0  0  0  0  0  0  0  0  0
   11.1622   13.4914    7.3363 N   0  0  0  0  0  0  0  0  0  0  0  0
   11.1097   12.6787    6.2491 C   0  0  0  0  0  0  0  0  0  0  0  0
   11.3327   11.3140    6.2046 C   0  0  0  0  0  0  0  0  0  0  0  0
   11.6605   10.6123    7.4008 C   0  0  0  0  0  0  0  0  0  0  0  0
   11.8965    9.4106    7.5909 O   0  0  0  0  0  0  0  0  0  0  0  0
   11.1782   10.8950    4.9118 N   0  0  0  0  0  0  0  0  0  0  0  0
   10.8630   11.9963    4.1852 C   0  0  0  0  0  0  0  0  0  0  0  0
   10.8138   13.1117    4.9810 N   0  0  0  0  0  0  0  0  0  0  0  0
  1  2  1  0  0  0  0
  1  6  1  0  0  0  0
  2  3  2  0  0  0  0
  3  4  1  0  0  0  0
  4  5  2  0  0  0  0
  4 10  1  0  0  0  0
  5  6  1  0  0  0  0
  5  8  1  0  0  0  0
  6  7  2  0  0  0  0
  8  9  1  0  0  0  0
  9 10  2  0  0  0  0
M  END
>  <CHROM.1>
11.33032546,11.73966693,6.60366591,0.32159004,-1.33208296,0.76819090

>  <Name>
ligand

>  <RI>
0

>  <Rbt.Current_Directory>
/home/itssahil/PROJECTS/Mol_Feturizer/New_Systems/rnas/2EEW

>  <Rbt.Executable>
rbdock ($Id: //depot/dev/client3/rdock/2013.1/src/exe/rbdock.cxx#4 $)

>  <Rbt.Library>
libRbt.so (2013.1, Build901 2013/11/27)

>  <Rbt.Parameter_File>
/export/apps/rDock/src/rDock_2013.1_src/data/scripts/dock_solv.prm

>  <Rbt.Receptor>
prm/blind_docking_60.prm

>  <SCORE>
-17.0647

>  <SCORE.INTER>
-17.0647

>  <SCORE.INTER.CONST>
1

>  <SCORE.INTER.POLAR>
0

>  <SCORE.INTER.ROT>
0

>  <SCORE.INTER.SOLV>
3.39532

>  <SCORE.INTER.VDW>
-16.1082

>  <SCORE.INTER.norm>
-1.70647

>  <SCORE.INTRA>
0

>  <SCORE.INTRA.DIHEDRAL>
0

>  <SCORE.INTRA.DIHEDRAL.0>
0

>  <SCORE.INTRA.POLAR>
0

>  <SCORE.INTRA.POLAR.0>
0

>  <SCORE.INTRA.REPUL>
0

>  <SCORE.INTRA.REPUL.0>
0

>  <SCORE.INTRA.SOLV>
0

>  <SCORE.INTRA.SOLV.lig_0>
-4.28901

>  <SCORE.INTRA.VDW>
0

>  <SCORE.INTRA.VDW.0>
0

>  <SCORE.INTRA.norm>
0

>  <SCORE.RESTR>
0

>  <SCORE.RESTR.CAVITY>
0

>  <SCORE.RESTR.norm>
0

>  <SCORE.SYSTEM>
0

>  <SCORE.SYSTEM.CONST>
0

>  <SCORE.SYSTEM.DIHEDRAL>
0

>  <SCORE.SYSTEM.SOLV>
0

>  <SCORE.SYSTEM.norm>
0

>  <SCORE.heavy>
10

>  <SCORE.norm>
-1.70647

>  <RMSD>
1.039

$$$$
ligand
 OpenBabel11021811423D
libRbt.so/2013.1/901 2013/11/27
 10 11  0  0  0  0  0  0  0  0999 V2000
   11.6703   11.4930    8.5144 N   0  0  0  0  0  0  0  0  0  0  0  0
   11.4697   12.8605    8.4730 C   0  0  0  0  0  0  0  0  0  0  0  0
   11.1782   13.5046    7.3346 N   0  0  0  0  0  0  0  0  0  0  0  0
   11.1074   12.6829    6.2553 C   0  0  0  0  0  0  0  0  0  0  0  0
   11.2973   11.3129    6.2242 C   0  0  0  0  0  0  0  0  0  0  0  0
   11.6065   10.6150    7.4276 C   0  0  0  0  0  0  0  0  0  0  0  0
   11.8131    9.4098    7.6296 O   0  0  0  0  0  0  0  0  0  0  0  0
   11.1343   10.8853    4.9353 N   0  0  0  0  0  0  0  0  0  0  0  0
   10.8468   11.9868    4.1977 C   0  0  0  0  0  0  0  0  0  0  0  0
   10.8237   13.1107    4.9826 N   0  0  0  0  0  0  0  0  0  0  0  0
  1  2  1  0  0  0  0
  1  6  1  0  0  0  0
  2  3  2  0  0  0  0
  3  4  1  0  0  0  0
  4  5  2  0  0  0  0
  4 10  1  0  0  0  0
  5  6  1  0  0  0  0
  5  8  1  0  0  0  0
  6  7  2  0  0  0  0
  8  9  1  0  0  0  0
  9 10  2  0  0  0  0
M  END
>  <CHROM.1>
11.30476416,11.74233719,6.61920160,0.24612793,-1.34920863,0.68505917

>  <Name>
ligand

>  <RI>
0

>  <Rbt.Current_Directory>
/home/itssahil/PROJECTS/Mol_Feturizer/New_Systems/rnas/2EEW

>  <Rbt.Executable>
rbdock ($Id: //depot/dev/client3/rdock/2013.1/src/exe/rbdock.cxx#4 $)

>  <Rbt.Library>
libRbt.so (2013.1, Build901 2013/11/27)

>  <Rbt.Parameter_File>
/export/apps/rDock/src/rDock_2013.1_src/data/scripts/dock_solv.prm

>  <Rbt.Receptor>
prm/blind_docking_80.prm

>  <SCORE>
-17.1164

>  <SCORE.INTER>
-17.1164

>  <SCORE.INTER.CONST>
1

>  <SCORE.INTER.POLAR>
0

>  <SCORE.INTER.ROT>
0

>  <SCORE.INTER.SOLV>
3.48953

>  <SCORE.INTER.VDW>
-16.1741

>  <SCORE.INTER.norm>
-1.71164

>  <SCORE.INTRA>
0

>  <SCORE.INTRA.DIHEDRAL>
0

>  <SCORE.INTRA.DIHEDRAL.0>
0

>  <SCORE.INTRA.POLAR>
0

>  <SCORE.INTRA.POLAR.0>
0

>  <SCORE.INTRA.REPUL>
0

>  <SCORE.INTRA.REPUL.0>
0

>  <SCORE.INTRA.SOLV>
0

>  <SCORE.INTRA.SOLV.lig_0>
-4.28901

>  <SCORE.INTRA.VDW>
0

>  <SCORE.INTRA.VDW.0>
0

>  <SCORE.INTRA.norm>
0

>  <SCORE.RESTR>
0

>  <SCORE.RESTR.CAVITY>
0

>  <SCORE.RESTR.norm>
0

>  <SCORE.SYSTEM>
0

>  <SCORE.SYSTEM.CONST>
0

>  <SCORE.SYSTEM.DIHEDRAL>
0

>  <SCORE.SYSTEM.SOLV>
0

>  <SCORE.SYSTEM.norm>
0

>  <SCORE.heavy>
10

>  <SCORE.norm>
-1.71164

>  <RMSD>
1.040

$$$$
ligand
 OpenBabel11021811423D
libRbt.so/2013.1/901 2013/11/27
 10 11  0  0  0  0  0  0  0  0999 V2000
   11.6837   11.4608    8.4929 N   0  0  0  0  0  0  0  0  0  0  0  0
   11.4576   12.8247    8.4719 C   0  0  0  0  0  0  0  0  0  0  0  0
   11.1585   13.4810    7.3426 N   0  0  0  0  0  0  0  0  0  0  0  0
   11.1073   12.6751    6.2503 C   0  0  0  0  0  0  0  0  0  0  0  0
   11.3229   11.3095    6.1987 C   0  0  0  0  0  0  0  0  0  0  0  0
   11.6405   10.5988    7.3924 C   0  0  0  0  0  0  0  0  0  0  0  0
   11.8689    9.3947    7.5765 O   0  0  0  0  0  0  0  0  0  0  0  0
   11.1729   10.8991    4.9026 N   0  0  0  0  0  0  0  0  0  0  0  0
   10.8677   12.0064    4.1811 C   0  0  0  0  0  0  0  0  0  0  0  0
   10.8205   13.1173    4.9833 N   0  0  0  0  0  0  0  0  0  0  0  0
  1  2  1  0  0  0  0
  1  6  1  0  0  0  0
  2  3  2  0  0  0  0
  3  4  1  0  0  0  0
  4  5  2  0  0  0  0
  4 10  1  0  0  0  0
  5  6  1  0  0  0  0
  5  8  1  0  0  0  0
  6  7  2  0  0  0  0
  8  9  1  0  0  0  0
  9 10  2  0  0  0  0
M  END
>  <CHROM.1>
11.32080354,11.73277517,6.60034994,0.32013905,-1.33973077,0.77276062

>  <Name>
ligand

>  <RI>
0

>  <Rbt.Current_Directory>
/home/itssahil/PROJECTS/Mol_Feturizer/New_Systems/rnas/2EEW

>  <Rbt.Executable>
rbdock ($Id: //depot/dev/client3/rdock/2013.1/src/exe/rbdock.cxx#4 $)

>  <Rbt.Library>
libRbt.so (2013.1, Build901 2013/11/27)

>  <Rbt.Parameter_File>
/export/apps/rDock/src/rDock_2013.1_src/data/scripts/dock_solv.prm

>  <Rbt.Receptor>
prm/pocket_docking_7.prm

>  <SCORE>
-17.1124

>  <SCORE.INTER>
-17.1124

>  <SCORE.INTER.CONST>
1

>  <SCORE.INTER.POLAR>
0

>  <SCORE.INTER.ROT>
0

>  <SCORE.INTER.SOLV>
3.4336

>  <SCORE.INTER.VDW>
-16.1528

>  <SCORE.INTER.norm>
-1.71124

>  <SCORE.INTRA>
0

>  <SCORE.INTRA.DIHEDRAL>
0

>  <SCORE.INTRA.DIHEDRAL.0>
0

>  <SCORE.INTRA.POLAR>
0

>  <SCORE.INTRA.POLAR.0>
0

>  <SCORE.INTRA.REPUL>
0

>  <SCORE.INTRA.REPUL.0>
0

>  <SCORE.INTRA.SOLV>
0

>  <SCORE.INTRA.SOLV.lig_0>
-4.28901

>  <SCORE.INTRA.VDW>
0

>  <SCORE.INTRA.VDW.0>
0

>  <SCORE.INTRA.norm>
0

>  <SCORE.RESTR>
0

>  <SCORE.RESTR.CAVITY>
0

>  <SCORE.RESTR.norm>
0

>  <SCORE.SYSTEM>
0

>  <SCORE.SYSTEM.CONST>
0

>  <SCORE.SYSTEM.DIHEDRAL>
0

>  <SCORE.SYSTEM.SOLV>
0

>  <SCORE.SYSTEM.norm>
0

>  <SCORE.heavy>
10

>  <SCORE.norm>
-1.71124

>  <RMSD>
1.040

$$$$
ligand
 OpenBabel11021811423D
libRbt.so/2013.1/901 2013/11/27
 10 11  0  0  0  0  0  0  0  0999 V2000
   11.6803   11.4624    8.4953 N   0  0  0  0  0  0  0  0  0  0  0  0
   11.4533   12.8261    8.4704 C   0  0  0  0  0  0  0  0  0  0  0  0
   11.1520   13.4787    7.3395 N   0  0  0  0  0  0  0  0  0  0  0  0
   11.0995   12.6694    6.2498 C   0  0  0  0  0  0  0  0  0  0  0  0
   11.3160   11.3038    6.2021 C   0  0  0  0  0  0  0  0  0  0  0  0
   11.6359   10.5970    7.3975 C   0  0  0  0  0  0  0  0  0  0  0  0
   11.8654    9.3936    7.5849 O   0  0  0  0  0  0  0  0  0  0  0  0
   11.1642   10.8893    4.9075 N   0  0  0  0  0  0  0  0  0  0  0  0
   10.8571   11.9942    4.1830 C   0  0  0  0  0  0  0  0  0  0  0  0
   10.8105   13.1075    4.9819 N   0  0  0  0  0  0  0  0  0  0  0  0
  1  2  1  0  0  0  0
  1  6  1  0  0  0  0
  2  3  2  0  0  0  0
  3  4  1  0  0  0  0
  4  5  2  0  0  0  0
  4 10  1  0  0  0  0
  5  6  1  0  0  0  0
  5  8  1  0  0  0  0
  6  7  2  0  0  0  0
  8  9  1  0  0  0  0
  9 10  2  0  0  0  0
M  END
>  <CHROM.1>
11.31423366,11.72830238,6.60243336,0.31746521,-1.33813691,0.76708799

>  <Name>
ligand

>  <RI>
0

>  <Rbt.Current_Directory>
/home/itssahil/PROJECTS/Mol_Feturizer/New_Systems/rnas/2EEW

>  <Rbt.Executable>
rbdock ($Id: //depot/dev/client3/rdock/2013.1/src/exe/rbdock.cxx#4 $)

>  <Rbt.Library>
libRbt.so (2013.1, Build901 2013/11/27)

>  <Rbt.Parameter_File>
/export/apps/rDock/src/rDock_2013.1_src/data/scripts/dock_solv.prm

>  <Rbt.Receptor>
prm/pocket_docking_8.prm

>  <SCORE>
-17.1151

>  <SCORE.INTER>
-17.1151

>  <SCORE.INTER.CONST>
1

>  <SCORE.INTER.POLAR>
0

>  <SCORE.INTER.ROT>
0

>  <SCORE.INTER.SOLV>
3.43202

>  <SCORE.INTER.VDW>
-16.1541

>  <SCORE.INTER.norm>
-1.71151

>  <SCORE.INTRA>
0

>  <SCORE.INTRA.DIHEDRAL>
0

>  <SCORE.INTRA.DIHEDRAL.0>
0

>  <SCORE.INTRA.POLAR>
0

>  <SCORE.INTRA.POLAR.0>
0

>  <SCORE.INTRA.REPUL>
0

>  <SCORE.INTRA.REPUL.0>
0

>  <SCORE.INTRA.SOLV>
0

>  <SCORE.INTRA.SOLV.lig_0>
-4.28901

>  <SCORE.INTRA.VDW>
0

>  <SCORE.INTRA.VDW.0>
0

>  <SCORE.INTRA.norm>
0

>  <SCORE.RESTR>
0

>  <SCORE.RESTR.CAVITY>
0

>  <SCORE.RESTR.norm>
0

>  <SCORE.SYSTEM>
0

>  <SCORE.SYSTEM.CONST>
0

>  <SCORE.SYSTEM.DIHEDRAL>
0

>  <SCORE.SYSTEM.SOLV>
0

>  <SCORE.SYSTEM.norm>
0

>  <SCORE.heavy>
10

>  <SCORE.norm>
-1.71151

>  <RMSD>
1.040

$$$$
ligand
 OpenBabel11021811423D
libRbt.so/2013.1/901 2013/11/27
 10 11  0  0  0  0  0  0  0  0999 V2000
   11.6707   11.4871    8.5098 N   0  0  0  0  0  0  0  0  0  0  0  0
   11.4697   12.8546    8.4742 C   0  0  0  0  0  0  0  0  0  0  0  0
   11.1790   13.5036    7.3384 N   0  0  0  0  0  0  0  0  0  0  0  0
   11.1093   12.6866    6.2554 C   0  0  0  0  0  0  0  0  0  0  0  0
   11.2996   11.3167    6.2186 C   0  0  0  0  0  0  0  0  0  0  0  0
   11.6080   10.6138    7.4193 C   0  0  0  0  0  0  0  0  0  0  0  0
   11.8148    9.4078    7.6162 O   0  0  0  0  0  0  0  0  0  0  0  0
   11.1377   10.8947    4.9277 N   0  0  0  0  0  0  0  0  0  0  0  0
   10.8505   11.9993    4.1947 C   0  0  0  0  0  0  0  0  0  0  0  0
   10.8265   13.1198    4.9844 N   0  0  0  0  0  0  0  0  0  0  0  0
  1  2  1  0  0  0  0
  1  6  1  0  0  0  0
  2  3  2  0  0  0  0
  3  4  1  0  0  0  0
  4  5  2  0  0  0  0
  4 10  1  0  0  0  0
  5  6  1  0  0  0  0
  5  8  1  0  0  0  0
  6  7  2  0  0  0  0
  8  9  1  0  0  0  0
  9 10  2  0  0  0  0
M  END
>  <CHROM.1>
11.30658030,11.74447157,6.61545392,0.24942240,-1.34966041,0.69259347

>  <Name>
ligand

>  <RI>
0

>  <Rbt.Current_Directory>
/home/itssahil/PROJECTS/Mol_Feturizer/New_Systems/rnas/2EEW

>  <Rbt.Executable>
rbdock ($Id: //depot/dev/client3/rdock/2013.1/src/exe/rbdock.cxx#4 $)

>  <Rbt.Library>
libRbt.so (2013.1, Build901 2013/11/27)

>  <Rbt.Parameter_File>
/export/apps/rDock/src/rDock_2013.1_src/data/scripts/dock_solv.prm

>  <Rbt.Receptor>
prm/pocket_docking_4.prm

>  <SCORE>
-17.0973

>  <SCORE.INTER>
-17.0973

>  <SCORE.INTER.CONST>
1

>  <SCORE.INTER.POLAR>
0

>  <SCORE.INTER.ROT>
0

>  <SCORE.INTER.SOLV>
3.49115

>  <SCORE.INTER.VDW>
-16.1619

>  <SCORE.INTER.norm>
-1.70973

>  <SCORE.INTRA>
0

>  <SCORE.INTRA.DIHEDRAL>
0

>  <SCORE.INTRA.DIHEDRAL.0>
0

>  <SCORE.INTRA.POLAR>
0

>  <SCORE.INTRA.POLAR.0>
0

>  <SCORE.INTRA.REPUL>
0

>  <SCORE.INTRA.REPUL.0>
0

>  <SCORE.INTRA.SOLV>
0

>  <SCORE.INTRA.SOLV.lig_0>
-4.28901

>  <SCORE.INTRA.VDW>
0

>  <SCORE.INTRA.VDW.0>
0

>  <SCORE.INTRA.norm>
0

>  <SCORE.RESTR>
0

>  <SCORE.RESTR.CAVITY>
0

>  <SCORE.RESTR.norm>
0

>  <SCORE.SYSTEM>
0

>  <SCORE.SYSTEM.CONST>
0

>  <SCORE.SYSTEM.DIHEDRAL>
0

>  <SCORE.SYSTEM.SOLV>
0

>  <SCORE.SYSTEM.norm>
0

>  <SCORE.heavy>
10

>  <SCORE.norm>
-1.70973

>  <RMSD>
1.041

$$$$
ligand
 OpenBabel11021811423D
libRbt.so/2013.1/901 2013/11/27
 10 11  0  0  0  0  0  0  0  0999 V2000
   11.6624   11.4669    8.5064 N   0  0  0  0  0  0  0  0  0  0  0  0
   11.4664   12.8353    8.4747 C   0  0  0  0  0  0  0  0  0  0  0  0
   11.1806   13.4889    7.3404 N   0  0  0  0  0  0  0  0  0  0  0  0
   11.1104   12.6757    6.2546 C   0  0  0  0  0  0  0  0  0  0  0  0
   11.2959   11.3052    6.2138 C   0  0  0  0  0  0  0  0  0  0  0  0
   11.5991   10.5973    7.4129 C   0  0  0  0  0  0  0  0  0  0  0  0
   11.8011    9.3900    7.6064 O   0  0  0  0  0  0  0  0  0  0  0  0
   11.1354   10.8879    4.9212 N   0  0  0  0  0  0  0  0  0  0  0  0
   10.8539   11.9959    4.1910 C   0  0  0  0  0  0  0  0  0  0  0  0
   10.8320   13.1140    4.9844 N   0  0  0  0  0  0  0  0  0  0  0  0
  1  2  1  0  0  0  0
  1  6  1  0  0  0  0
  2  3  2  0  0  0  0
  3  4  1  0  0  0  0
  4  5  2  0  0  0  0
  4 10  1  0  0  0  0
  5  6  1  0  0  0  0
  5  8  1  0  0  0  0
  6  7  2  0  0  0  0
  8  9  1  0  0  0  0
  9 10  2  0  0  0  0
M  END
>  <CHROM.1>
11.30352622,11.73168822,6.61202574,0.24339234,-1.35369453,0.68993233

>  <Name>
ligand

>  <RI>
0

>  <Rbt.Current_Directory>
/home/itssahil/PROJECTS/Mol_Feturizer/New_Systems/rnas/2EEW

>  <Rbt.Executable>
rbdock ($Id: //depot/dev/client3/rdock/2013.1/src/exe/rbdock.cxx#4 $)

>  <Rbt.Library>
libRbt.so (2013.1, Build901 2013/11/27)

>  <Rbt.Parameter_File>
/export/apps/rDock/src/rDock_2013.1_src/data/scripts/dock_solv.prm

>  <Rbt.Receptor>
prm/pocket_docking_5.prm

>  <SCORE>
-17.1427

>  <SCORE.INTER>
-17.1427

>  <SCORE.INTER.CONST>
1

>  <SCORE.INTER.POLAR>
0

>  <SCORE.INTER.ROT>
0

>  <SCORE.INTER.SOLV>
3.51284

>  <SCORE.INTER.VDW>
-16.1994

>  <SCORE.INTER.norm>
-1.71427

>  <SCORE.INTRA>
0

>  <SCORE.INTRA.DIHEDRAL>
0

>  <SCORE.INTRA.DIHEDRAL.0>
0

>  <SCORE.INTRA.POLAR>
0

>  <SCORE.INTRA.POLAR.0>
0

>  <SCORE.INTRA.REPUL>
0

>  <SCORE.INTRA.REPUL.0>
0

>  <SCORE.INTRA.SOLV>
0

>  <SCORE.INTRA.SOLV.lig_0>
-4.28901

>  <SCORE.INTRA.VDW>
0

>  <SCORE.INTRA.VDW.0>
0

>  <SCORE.INTRA.norm>
0

>  <SCORE.RESTR>
0

>  <SCORE.RESTR.CAVITY>
0

>  <SCORE.RESTR.norm>
0

>  <SCORE.SYSTEM>
0

>  <SCORE.SYSTEM.CONST>
0

>  <SCORE.SYSTEM.DIHEDRAL>
0

>  <SCORE.SYSTEM.SOLV>
0

>  <SCORE.SYSTEM.norm>
0

>  <SCORE.heavy>
10

>  <SCORE.norm>
-1.71427

>  <RMSD>
1.041

$$$$
ligand
 OpenBabel11021811423D
libRbt.so/2013.1/901 2013/11/27
 10 11  0  0  0  0  0  0  0  0999 V2000
   11.6643   11.4846    8.5145 N   0  0  0  0  0  0  0  0  0  0  0  0
   11.4585   12.8512    8.4689 C   0  0  0  0  0  0  0  0  0  0  0  0
   11.1777   13.4926    7.3264 N   0  0  0  0  0  0  0  0  0  0  0  0
   11.1227   12.6692    6.2474 C   0  0  0  0  0  0  0  0  0  0  0  0
   11.3185   11.2999    6.2205 C   0  0  0  0  0  0  0  0  0  0  0  0
   11.6166   10.6049    7.4283 C   0  0  0  0  0  0  0  0  0  0  0  0
   11.8258    9.4008    7.6344 O   0  0  0  0  0  0  0  0  0  0  0  0
   11.1722   10.8699    4.9303 N   0  0  0  0  0  0  0  0  0  0  0  0
   10.8888   11.9692    4.1879 C   0  0  0  0  0  0  0  0  0  0  0  0
   10.8520   13.0941    4.9710 N   0  0  0  0  0  0  0  0  0  0  0  0
  1  2  1  0  0  0  0
  1  6  1  0  0  0  0
  2  3  2  0  0  0  0
  3  4  1  0  0  0  0
  4  5  2  0  0  0  0
  4 10  1  0  0  0  0
  5  6  1  0  0  0  0
  5  8  1  0  0  0  0
  6  7  2  0  0  0  0
  8  9  1  0  0  0  0
  9 10  2  0  0  0  0
M  END
>  <CHROM.1>
11.31967481,11.72987595,6.61489079,0.29520504,-1.35535529,0.73161054

>  <Name>
ligand

>  <RI>
0

>  <Rbt.Current_Directory>
/home/itssahil/PROJECTS/Mol_Feturizer/New_Systems/rnas/2EEW

>  <Rbt.Executable>
rbdock ($Id: //depot/dev/client3/rdock/2013.1/src/exe/rbdock.cxx#4 $)

>  <Rbt.Library>
libRbt.so (2013.1, Build901 2013/11/27)

>  <Rbt.Parameter_File>
/export/apps/rDock/src/rDock_2013.1_src/data/scripts/dock_solv.prm

>  <Rbt.Receptor>
prm/pocket_docking_6.prm

>  <SCORE>
-17.0751

>  <SCORE.INTER>
-17.0751

>  <SCORE.INTER.CONST>
1

>  <SCORE.INTER.POLAR>
0

>  <SCORE.INTER.ROT>
0

>  <SCORE.INTER.SOLV>
3.49001

>  <SCORE.INTER.VDW>
-16.1468

>  <SCORE.INTER.norm>
-1.70751

>  <SCORE.INTRA>
0

>  <SCORE.INTRA.DIHEDRAL>
0

>  <SCORE.INTRA.DIHEDRAL.0>
0

>  <SCORE.INTRA.POLAR>
0

>  <SCORE.INTRA.POLAR.0>
0

>  <SCORE.INTRA.REPUL>
0

>  <SCORE.INTRA.REPUL.0>
0

>  <SCORE.INTRA.SOLV>
0

>  <SCORE.INTRA.SOLV.lig_0>
-4.28901

>  <SCORE.INTRA.VDW>
0

>  <SCORE.INTRA.VDW.0>
0

>  <SCORE.INTRA.norm>
0

>  <SCORE.RESTR>
0

>  <SCORE.RESTR.CAVITY>
0

>  <SCORE.RESTR.norm>
0

>  <SCORE.SYSTEM>
0

>  <SCORE.SYSTEM.CONST>
0

>  <SCORE.SYSTEM.DIHEDRAL>
0

>  <SCORE.SYSTEM.SOLV>
0

>  <SCORE.SYSTEM.norm>
0

>  <SCORE.heavy>
10

>  <SCORE.norm>
-1.70751

>  <RMSD>
1.041

$$$$
ligand
 OpenBabel11021811423D
libRbt.so/2013.1/901 2013/11/27
 10 11  0  0  0  0  0  0  0  0999 V2000
   11.6601   11.4563    8.4967 N   0  0  0  0  0  0  0  0  0  0  0  0
   11.4563   12.8237    8.4727 C   0  0  0  0  0  0  0  0  0  0  0  0
   11.1695   13.4825    7.3416 N   0  0  0  0  0  0  0  0  0  0  0  0
   11.1068   12.6754    6.2508 C   0  0  0  0  0  0  0  0  0  0  0  0
   11.3003   11.3063    6.2022 C   0  0  0  0  0  0  0  0  0  0  0  0
   11.6046   10.5930    7.3978 C   0  0  0  0  0  0  0  0  0  0  0  0
   11.8130    9.3857    7.5845 O   0  0  0  0  0  0  0  0  0  0  0  0
   11.1455   10.8959    4.9067 N   0  0  0  0  0  0  0  0  0  0  0  0
   10.8593   12.0066    4.1825 C   0  0  0  0  0  0  0  0  0  0  0  0
   10.8291   13.1197    4.9825 N   0  0  0  0  0  0  0  0  0  0  0  0
  1  2  1  0  0  0  0
  1  6  1  0  0  0  0
  2  3  2  0  0  0  0
  3  4  1  0  0  0  0
  4  5  2  0  0  0  0
  4 10  1  0  0  0  0
  5  6  1  0  0  0  0
  5  8  1  0  0  0  0
  6  7  2  0  0  0  0
  8  9  1  0  0  0  0
  9 10  2  0  0  0  0
M  END
>  <CHROM.1>
11.30445956,11.73042111,6.60300788,0.27121483,-1.35185735,0.72311332

>  <Name>
ligand

>  <RI>
0

>  <Rbt.Current_Directory>
/home/itssahil/PROJECTS/Mol_Feturizer/New_Systems/rnas/2EEW

>  <Rbt.Executable>
rbdock ($Id: //depot/dev/client3/rdock/2013.1/src/exe/rbdock.cxx#4 $)

>  <Rbt.Library>
libRbt.so (2013.1, Build901 2013/11/27)

>  <Rbt.Parameter_File>
/export/apps/rDock/src/rDock_2013.1_src/data/scripts/dock_solv.prm

>  <Rbt.Receptor>
prm/pocket_docking_5.prm

>  <SCORE>
-17.1183

>  <SCORE.INTER>
-17.1183

>  <SCORE.INTER.CONST>
1

>  <SCORE.INTER.POLAR>
0

>  <SCORE.INTER.ROT>
0

>  <SCORE.INTER.SOLV>
3.50087

>  <SCORE.INTER.VDW>
-16.1792

>  <SCORE.INTER.norm>
-1.71183

>  <SCORE.INTRA>
0

>  <SCORE.INTRA.DIHEDRAL>
0

>  <SCORE.INTRA.DIHEDRAL.0>
0

>  <SCORE.INTRA.POLAR>
0

>  <SCORE.INTRA.POLAR.0>
0

>  <SCORE.INTRA.REPUL>
0

>  <SCORE.INTRA.REPUL.0>
0

>  <SCORE.INTRA.SOLV>
0

>  <SCORE.INTRA.SOLV.lig_0>
-4.28901

>  <SCORE.INTRA.VDW>
0

>  <SCORE.INTRA.VDW.0>
0

>  <SCORE.INTRA.norm>
0

>  <SCORE.RESTR>
0

>  <SCORE.RESTR.CAVITY>
0

>  <SCORE.RESTR.norm>
0

>  <SCORE.SYSTEM>
0

>  <SCORE.SYSTEM.CONST>
0

>  <SCORE.SYSTEM.DIHEDRAL>
0

>  <SCORE.SYSTEM.SOLV>
0

>  <SCORE.SYSTEM.norm>
0

>  <SCORE.heavy>
10

>  <SCORE.norm>
-1.71183

>  <RMSD>
1.044

$$$$
ligand
 OpenBabel11021811423D
libRbt.so/2013.1/901 2013/11/27
 10 11  0  0  0  0  0  0  0  0999 V2000
   11.6651   11.5068    8.5193 N   0  0  0  0  0  0  0  0  0  0  0  0
   11.4585   12.8728    8.4628 C   0  0  0  0  0  0  0  0  0  0  0  0
   11.1714   13.5041    7.3162 N   0  0  0  0  0  0  0  0  0  0  0  0
   11.1112   12.6713    6.2448 C   0  0  0  0  0  0  0  0  0  0  0  0
   11.3074   11.3018    6.2288 C   0  0  0  0  0  0  0  0  0  0  0  0
   11.6121   10.6176    7.4411 C   0  0  0  0  0  0  0  0  0  0  0  0
   11.8228    9.4155    7.6566 O   0  0  0  0  0  0  0  0  0  0  0  0
   11.1545   10.8606    4.9432 N   0  0  0  0  0  0  0  0  0  0  0  0
   10.8667   11.9532    4.1927 C   0  0  0  0  0  0  0  0  0  0  0  0
   10.8336   13.0849    4.9661 N   0  0  0  0  0  0  0  0  0  0  0  0
  1  2  1  0  0  0  0
  1  6  1  0  0  0  0
  2  3  2  0  0  0  0
  3  4  1  0  0  0  0
  4  5  2  0  0  0  0
  4 10  1  0  0  0  0
  5  6  1  0  0  0  0
  5  8  1  0  0  0  0
  6  7  2  0  0  0  0
  8  9  1  0  0  0  0
  9 10  2  0  0  0  0
M  END
>  <CHROM.1>
11.31041499,11.73530699,6.61941302,0.28049182,-1.35117296,0.70848330

>  <Name>
ligand

>  <RI>
0

>  <Rbt.Current_Directory>
/home/itssahil/PROJECTS/Mol_Feturizer/New_Systems/rnas/2EEW

>  <Rbt.Executable>
rbdock ($Id: //depot/dev/client3/rdock/2013.1/src/exe/rbdock.cxx#4 $)

>  <Rbt.Library>
libRbt.so (2013.1, Build901 2013/11/27)

>  <Rbt.Parameter_File>
/export/apps/rDock/src/rDock_2013.1_src/data/scripts/dock_solv.prm

>  <Rbt.Receptor>
prm/pocket_docking_6.prm

>  <SCORE>
-17.0946

>  <SCORE.INTER>
-17.0946

>  <SCORE.INTER.CONST>
1

>  <SCORE.INTER.POLAR>
0

>  <SCORE.INTER.ROT>
0

>  <SCORE.INTER.SOLV>
3.48059

>  <SCORE.INTER.VDW>
-16.1566

>  <SCORE.INTER.norm>
-1.70946

>  <SCORE.INTRA>
0

>  <SCORE.INTRA.DIHEDRAL>
0

>  <SCORE.INTRA.DIHEDRAL.0>
0

>  <SCORE.INTRA.POLAR>
0

>  <SCORE.INTRA.POLAR.0>
0

>  <SCORE.INTRA.REPUL>
0

>  <SCORE.INTRA.REPUL.0>
0

>  <SCORE.INTRA.SOLV>
0

>  <SCORE.INTRA.SOLV.lig_0>
-4.28901

>  <SCORE.INTRA.VDW>
0

>  <SCORE.INTRA.VDW.0>
0

>  <SCORE.INTRA.norm>
0

>  <SCORE.RESTR>
0

>  <SCORE.RESTR.CAVITY>
0

>  <SCORE.RESTR.norm>
0

>  <SCORE.SYSTEM>
0

>  <SCORE.SYSTEM.CONST>
0

>  <SCORE.SYSTEM.DIHEDRAL>
0

>  <SCORE.SYSTEM.SOLV>
0

>  <SCORE.SYSTEM.norm>
0

>  <SCORE.heavy>
10

>  <SCORE.norm>
-1.70946

>  <RMSD>
1.044

$$$$
ligand
 OpenBabel11021811423D
libRbt.so/2013.1/901 2013/11/27
 10 11  0  0  0  0  0  0  0  0999 V2000
   11.6609   11.4925    8.5123 N   0  0  0  0  0  0  0  0  0  0  0  0
   11.4660   12.8608    8.4713 C   0  0  0  0  0  0  0  0  0  0  0  0
   11.1811   13.5070    7.3325 N   0  0  0  0  0  0  0  0  0  0  0  0
   11.1106   12.6865    6.2523 C   0  0  0  0  0  0  0  0  0  0  0  0
   11.2950   11.3156    6.2208 C   0  0  0  0  0  0  0  0  0  0  0  0
   11.5972   10.6156    7.4247 C   0  0  0  0  0  0  0  0  0  0  0  0
   11.7982    9.4094    7.6264 O   0  0  0  0  0  0  0  0  0  0  0  0
   11.1346   10.8897    4.9309 N   0  0  0  0  0  0  0  0  0  0  0  0
   10.8541   11.9930    4.1933 C   0  0  0  0  0  0  0  0  0  0  0  0
   10.8330   13.1164    4.9790 N   0  0  0  0  0  0  0  0  0  0  0  0
  1  2  1  0  0  0  0
  1  6  1  0  0  0  0
  2  3  2  0  0  0  0
  3  4  1  0  0  0  0
  4  5  2  0  0  0  0
  4 10  1  0  0  0  0
  5  6  1  0  0  0  0
  5  8  1  0  0  0  0
  6  7  2  0  0  0  0
  8  9  1  0  0  0  0
  9 10  2  0  0  0  0
M  END
>  <CHROM.1>
11.30284267,11.74475429,6.61610840,0.24138027,-1.35443844,0.68121544

>  <Name>
ligand

>  <RI>
0

>  <Rbt.Current_Directory>
/home/itssahil/PROJECTS/Mol_Feturizer/New_Systems/rnas/2EEW

>  <Rbt.Executable>
rbdock ($Id: //depot/dev/client3/rdock/2013.1/src/exe/rbdock.cxx#4 $)

>  <Rbt.Library>
libRbt.so (2013.1, Build901 2013/11/27)

>  <Rbt.Parameter_File>
/export/apps/rDock/src/rDock_2013.1_src/data/scripts/dock_solv.prm

>  <Rbt.Receptor>
prm/blind_docking_80.prm

>  <SCORE>
-17.1124

>  <SCORE.INTER>
-17.1124

>  <SCORE.INTER.CONST>
1

>  <SCORE.INTER.POLAR>
0

>  <SCORE.INTER.ROT>
0

>  <SCORE.INTER.SOLV>
3.51196

>  <SCORE.INTER.VDW>
-16.1789

>  <SCORE.INTER.norm>
-1.71124

>  <SCORE.INTRA>
0

>  <SCORE.INTRA.DIHEDRAL>
0

>  <SCORE.INTRA.DIHEDRAL.0>
0

>  <SCORE.INTRA.POLAR>
0

>  <SCORE.INTRA.POLAR.0>
0

>  <SCORE.INTRA.REPUL>
0

>  <SCORE.INTRA.REPUL.0>
0

>  <SCORE.INTRA.SOLV>
0

>  <SCORE.INTRA.SOLV.lig_0>
-4.28901

>  <SCORE.INTRA.VDW>
0

>  <SCORE.INTRA.VDW.0>
0

>  <SCORE.INTRA.norm>
0

>  <SCORE.RESTR>
0

>  <SCORE.RESTR.CAVITY>
0

>  <SCORE.RESTR.norm>
0

>  <SCORE.SYSTEM>
0

>  <SCORE.SYSTEM.CONST>
0

>  <SCORE.SYSTEM.DIHEDRAL>
0

>  <SCORE.SYSTEM.SOLV>
0

>  <SCORE.SYSTEM.norm>
0

>  <SCORE.heavy>
10

>  <SCORE.norm>
-1.71124

>  <RMSD>
1.045

$$$$
ligand
 OpenBabel11021811423D
libRbt.so/2013.1/901 2013/11/27
 10 11  0  0  0  0  0  0  0  0999 V2000
   11.6670   11.4544    8.4913 N   0  0  0  0  0  0  0  0  0  0  0  0
   11.4416   12.8184    8.4650 C   0  0  0  0  0  0  0  0  0  0  0  0
   11.1491   13.4714    7.3320 N   0  0  0  0  0  0  0  0  0  0  0  0
   11.1037   12.6624    6.2418 C   0  0  0  0  0  0  0  0  0  0  0  0
   11.3191   11.2965    6.1955 C   0  0  0  0  0  0  0  0  0  0  0  0
   11.6297   10.5893    7.3931 C   0  0  0  0  0  0  0  0  0  0  0  0
   11.8565    9.3856    7.5820 O   0  0  0  0  0  0  0  0  0  0  0  0
   11.1762   10.8824    4.8998 N   0  0  0  0  0  0  0  0  0  0  0  0
   10.8755   11.9877    4.1733 C   0  0  0  0  0  0  0  0  0  0  0  0
   10.8243   13.1010    4.9719 N   0  0  0  0  0  0  0  0  0  0  0  0
  1  2  1  0  0  0  0
  1  6  1  0  0  0  0
  2  3  2  0  0  0  0
  3  4  1  0  0  0  0
  4  5  2  0  0  0  0
  4 10  1  0  0  0  0
  5  6  1  0  0  0  0
  5  8  1  0  0  0  0
  6  7  2  0  0  0  0
  8  9  1  0  0  0  0
  9 10  2  0  0  0  0
M  END
>  <CHROM.1>
11.31490657,11.72101878,6.59586960,0.33647135,-1.34401603,0.78573894

>  <Name>
ligand

>  <RI>
0

>  <Rbt.Current_Directory>
/home/itssahil/PROJECTS/Mol_Feturizer/New_Systems/rnas/2EEW

>  <Rbt.Executable>
rbdock ($Id: //depot/dev/client3/rdock/2013.1/src/exe/rbdock.cxx#4 $)

>  <Rbt.Library>
libRbt.so (2013.1, Build901 2013/11/27)

>  <Rbt.Parameter_File>
/export/apps/rDock/src/rDock_2013.1_src/data/scripts/dock_solv.prm

>  <Rbt.Receptor>
prm/pocket_docking_3.prm

>  <SCORE>
-17.0866

>  <SCORE.INTER>
-17.0866

>  <SCORE.INTER.CONST>
1

>  <SCORE.INTER.POLAR>
0

>  <SCORE.INTER.ROT>
0

>  <SCORE.INTER.SOLV>
3.44996

>  <SCORE.INTER.VDW>
-16.1411

>  <SCORE.INTER.norm>
-1.70866

>  <SCORE.INTRA>
0

>  <SCORE.INTRA.DIHEDRAL>
0

>  <SCORE.INTRA.DIHEDRAL.0>
0

>  <SCORE.INTRA.POLAR>
0

>  <SCORE.INTRA.POLAR.0>
0

>  <SCORE.INTRA.REPUL>
0

>  <SCORE.INTRA.REPUL.0>
0

>  <SCORE.INTRA.SOLV>
0

>  <SCORE.INTRA.SOLV.lig_0>
-4.28901

>  <SCORE.INTRA.VDW>
0

>  <SCORE.INTRA.VDW.0>
0

>  <SCORE.INTRA.norm>
0

>  <SCORE.RESTR>
0

>  <SCORE.RESTR.CAVITY>
0

>  <SCORE.RESTR.norm>
0

>  <SCORE.SYSTEM>
0

>  <SCORE.SYSTEM.CONST>
0

>  <SCORE.SYSTEM.DIHEDRAL>
0

>  <SCORE.SYSTEM.SOLV>
0

>  <SCORE.SYSTEM.norm>
0

>  <SCORE.heavy>
10

>  <SCORE.norm>
-1.70866

>  <RMSD>
1.046

$$$$
ligand
 OpenBabel11021811423D
libRbt.so/2013.1/901 2013/11/27
 10 11  0  0  0  0  0  0  0  0999 V2000
   11.6832   11.4518    8.4789 N   0  0  0  0  0  0  0  0  0  0  0  0
   11.4545   12.8154    8.4725 C   0  0  0  0  0  0  0  0  0  0  0  0
   11.1498   13.4825    7.3510 N   0  0  0  0  0  0  0  0  0  0  0  0
   11.0957   12.6875    6.2508 C   0  0  0  0  0  0  0  0  0  0  0  0
   11.3136   11.3229    6.1847 C   0  0  0  0  0  0  0  0  0  0  0  0
   11.6372   10.6009    7.3699 C   0  0  0  0  0  0  0  0  0  0  0  0
   11.8685    9.3954    7.5409 O   0  0  0  0  0  0  0  0  0  0  0  0
   11.1592   10.9253    4.8851 N   0  0  0  0  0  0  0  0  0  0  0  0
   10.8491   12.0393    4.1760 C   0  0  0  0  0  0  0  0  0  0  0  0
   10.8031   13.1419    4.9895 N   0  0  0  0  0  0  0  0  0  0  0  0
  1  2  1  0  0  0  0
  1  6  1  0  0  0  0
  2  3  2  0  0  0  0
  3  4  1  0  0  0  0
  4  5  2  0  0  0  0
  4 10  1  0  0  0  0
  5  6  1  0  0  0  0
  5  8  1  0  0  0  0
  6  7  2  0  0  0  0
  8  9  1  0  0  0  0
  9 10  2  0  0  0  0
M  END
>  <CHROM.1>
11.31231594,11.74212508,6.59055905,0.31391279,-1.33560167,0.77677664

>  <Name>
ligand

>  <RI>
0

>  <Rbt.Current_Directory>
/home/itssahil/PROJECTS/Mol_Feturizer/New_Systems/rnas/2EEW

>  <Rbt.Executable>
rbdock ($Id: //depot/dev/client3/rdock/2013.1/src/exe/rbdock.cxx#4 $)

>  <Rbt.Library>
libRbt.so (2013.1, Build901 2013/11/27)

>  <Rbt.Parameter_File>
/export/apps/rDock/src/rDock_2013.1_src/data/scripts/dock_solv.prm

>  <Rbt.Receptor>
prm/pocket_docking_8.prm

>  <SCORE>
-17.075

>  <SCORE.INTER>
-17.075

>  <SCORE.INTER.CONST>
1

>  <SCORE.INTER.POLAR>
0

>  <SCORE.INTER.ROT>
0

>  <SCORE.INTER.SOLV>
3.43039

>  <SCORE.INTER.VDW>
-16.1268

>  <SCORE.INTER.norm>
-1.7075

>  <SCORE.INTRA>
0

>  <SCORE.INTRA.DIHEDRAL>
0

>  <SCORE.INTRA.DIHEDRAL.0>
0

>  <SCORE.INTRA.POLAR>
0

>  <SCORE.INTRA.POLAR.0>
0

>  <SCORE.INTRA.REPUL>
0

>  <SCORE.INTRA.REPUL.0>
0

>  <SCORE.INTRA.SOLV>
0

>  <SCORE.INTRA.SOLV.lig_0>
-4.28901

>  <SCORE.INTRA.VDW>
0

>  <SCORE.INTRA.VDW.0>
0

>  <SCORE.INTRA.norm>
0

>  <SCORE.RESTR>
0

>  <SCORE.RESTR.CAVITY>
0

>  <SCORE.RESTR.norm>
0

>  <SCORE.SYSTEM>
0

>  <SCORE.SYSTEM.CONST>
0

>  <SCORE.SYSTEM.DIHEDRAL>
0

>  <SCORE.SYSTEM.SOLV>
0

>  <SCORE.SYSTEM.norm>
0

>  <SCORE.heavy>
10

>  <SCORE.norm>
-1.7075

>  <RMSD>
1.047

$$$$
ligand
 OpenBabel11021811423D
libRbt.so/2013.1/901 2013/11/27
 10 11  0  0  0  0  0  0  0  0999 V2000
   11.6364   11.5048    8.5227 N   0  0  0  0  0  0  0  0  0  0  0  0
   11.4346   12.8716    8.4682 C   0  0  0  0  0  0  0  0  0  0  0  0
   11.1609   13.5072    7.3207 N   0  0  0  0  0  0  0  0  0  0  0  0
   11.1088   12.6778    6.2463 C   0  0  0  0  0  0  0  0  0  0  0  0
   11.3009   11.3078    6.2281 C   0  0  0  0  0  0  0  0  0  0  0  0
   11.5914   10.6190    7.4414 C   0  0  0  0  0  0  0  0  0  0  0  0
   11.7963    9.4156    7.6554 O   0  0  0  0  0  0  0  0  0  0  0  0
   11.1595   10.8708    4.9398 N   0  0  0  0  0  0  0  0  0  0  0  0
   10.8827   11.9665    4.1897 C   0  0  0  0  0  0  0  0  0  0  0  0
   10.8453   13.0960    4.9661 N   0  0  0  0  0  0  0  0  0  0  0  0
  1  2  1  0  0  0  0
  1  6  1  0  0  0  0
  2  3  2  0  0  0  0
  3  4  1  0  0  0  0
  4  5  2  0  0  0  0
  4 10  1  0  0  0  0
  5  6  1  0  0  0  0
  5  8  1  0  0  0  0
  6  7  2  0  0  0  0
  8  9  1  0  0  0  0
  9 10  2  0  0  0  0
M  END
>  <CHROM.1>
11.30140603,11.74005024,6.62008201,0.30041499,-1.36071737,0.73092858

>  <Name>
ligand

>  <RI>
0

>  <Rbt.Current_Directory>
/home/itssahil/PROJECTS/Mol_Feturizer/New_Systems/rnas/2EEW

>  <Rbt.Executable>
rbdock ($Id: //depot/dev/client3/rdock/2013.1/src/exe/rbdock.cxx#4 $)

>  <Rbt.Library>
libRbt.so (2013.1, Build901 2013/11/27)

>  <Rbt.Parameter_File>
/export/apps/rDock/src/rDock_2013.1_src/data/scripts/dock_solv.prm

>  <Rbt.Receptor>
prm/pocket_docking_5.prm

>  <SCORE>
-17.0488

>  <SCORE.INTER>
-17.0488

>  <SCORE.INTER.CONST>
1

>  <SCORE.INTER.POLAR>
0

>  <SCORE.INTER.ROT>
0

>  <SCORE.INTER.SOLV>
3.51746

>  <SCORE.INTER.VDW>
-16.1384

>  <SCORE.INTER.norm>
-1.70488

>  <SCORE.INTRA>
0

>  <SCORE.INTRA.DIHEDRAL>
0

>  <SCORE.INTRA.DIHEDRAL.0>
0

>  <SCORE.INTRA.POLAR>
0

>  <SCORE.INTRA.POLAR.0>
0

>  <SCORE.INTRA.REPUL>
0

>  <SCORE.INTRA.REPUL.0>
0

>  <SCORE.INTRA.SOLV>
0

>  <SCORE.INTRA.SOLV.lig_0>
-4.28901

>  <SCORE.INTRA.VDW>
0

>  <SCORE.INTRA.VDW.0>
0

>  <SCORE.INTRA.norm>
0

>  <SCORE.RESTR>
0

>  <SCORE.RESTR.CAVITY>
0

>  <SCORE.RESTR.norm>
0

>  <SCORE.SYSTEM>
0

>  <SCORE.SYSTEM.CONST>
0

>  <SCORE.SYSTEM.DIHEDRAL>
0

>  <SCORE.SYSTEM.SOLV>
0

>  <SCORE.SYSTEM.norm>
0

>  <SCORE.heavy>
10

>  <SCORE.norm>
-1.70488

>  <RMSD>
1.048

$$$$
ligand
 OpenBabel11021811423D
libRbt.so/2013.1/901 2013/11/27
 10 11  0  0  0  0  0  0  0  0999 V2000
   11.6541   11.4768    8.5038 N   0  0  0  0  0  0  0  0  0  0  0  0
   11.4478   12.8434    8.4637 C   0  0  0  0  0  0  0  0  0  0  0  0
   11.1634   13.4888    7.3243 N   0  0  0  0  0  0  0  0  0  0  0  0
   11.1056   12.6693    6.2426 C   0  0  0  0  0  0  0  0  0  0  0  0
   11.3018   11.3002    6.2101 C   0  0  0  0  0  0  0  0  0  0  0  0
   11.6036   10.6010    7.4146 C   0  0  0  0  0  0  0  0  0  0  0  0
   11.8137    9.3963    7.6157 O   0  0  0  0  0  0  0  0  0  0  0  0
   11.1518   10.8748    4.9188 N   0  0  0  0  0  0  0  0  0  0  0  0
   10.8659   11.9767    4.1812 C   0  0  0  0  0  0  0  0  0  0  0  0
   10.8311   13.0987    4.9684 N   0  0  0  0  0  0  0  0  0  0  0  0
  1  2  1  0  0  0  0
  1  6  1  0  0  0  0
  2  3  2  0  0  0  0
  3  4  1  0  0  0  0
  4  5  2  0  0  0  0
  4 10  1  0  0  0  0
  5  6  1  0  0  0  0
  5  8  1  0  0  0  0
  6  7  2  0  0  0  0
  8  9  1  0  0  0  0
  9 10  2  0  0  0  0
M  END
>  <CHROM.1>
11.30391068,11.72878104,6.60608258,0.28731085,-1.35297791,0.72749457

>  <Name>
ligand

>  <RI>
0

>  <Rbt.Current_Directory>
/home/itssahil/PROJECTS/Mol_Feturizer/New_Systems/rnas/2EEW

>  <Rbt.Executable>
rbdock ($Id: //depot/dev/client3/rdock/2013.1/src/exe/rbdock.cxx#4 $)

>  <Rbt.Library>
libRbt.so (2013.1, Build901 2013/11/27)

>  <Rbt.Parameter_File>
/export/apps/rDock/src/rDock_2013.1_src/data/scripts/dock_solv.prm

>  <Rbt.Receptor>
prm/pocket_docking_3.prm

>  <SCORE>
-17.1062

>  <SCORE.INTER>
-17.1062

>  <SCORE.INTER.CONST>
1

>  <SCORE.INTER.POLAR>
0

>  <SCORE.INTER.ROT>
0

>  <SCORE.INTER.SOLV>
3.49627

>  <SCORE.INTER.VDW>
-16.1695

>  <SCORE.INTER.norm>
-1.71062

>  <SCORE.INTRA>
0

>  <SCORE.INTRA.DIHEDRAL>
0

>  <SCORE.INTRA.DIHEDRAL.0>
0

>  <SCORE.INTRA.POLAR>
0

>  <SCORE.INTRA.POLAR.0>
0

>  <SCORE.INTRA.REPUL>
0

>  <SCORE.INTRA.REPUL.0>
0

>  <SCORE.INTRA.SOLV>
0

>  <SCORE.INTRA.SOLV.lig_0>
-4.28901

>  <SCORE.INTRA.VDW>
0

>  <SCORE.INTRA.VDW.0>
0

>  <SCORE.INTRA.norm>
0

>  <SCORE.RESTR>
0

>  <SCORE.RESTR.CAVITY>
0

>  <SCORE.RESTR.norm>
0

>  <SCORE.SYSTEM>
0

>  <SCORE.SYSTEM.CONST>
0

>  <SCORE.SYSTEM.DIHEDRAL>
0

>  <SCORE.SYSTEM.SOLV>
0

>  <SCORE.SYSTEM.norm>
0

>  <SCORE.heavy>
10

>  <SCORE.norm>
-1.71062

>  <RMSD>
1.049

$$$$
ligand
 OpenBabel11021811423D
libRbt.so/2013.1/901 2013/11/27
 10 11  0  0  0  0  0  0  0  0999 V2000
   11.6713   11.4944    8.5025 N   0  0  0  0  0  0  0  0  0  0  0  0
   11.4549   12.8595    8.4642 C   0  0  0  0  0  0  0  0  0  0  0  0
   11.1602   13.5035    7.3266 N   0  0  0  0  0  0  0  0  0  0  0  0
   11.1029   12.6842    6.2447 C   0  0  0  0  0  0  0  0  0  0  0  0
   11.3088   11.3165    6.2105 C   0  0  0  0  0  0  0  0  0  0  0  0
   11.6217   10.6189    7.4131 C   0  0  0  0  0  0  0  0  0  0  0  0
   11.8415    9.4156    7.6124 O   0  0  0  0  0  0  0  0  0  0  0  0
   11.1555   10.8908    4.9197 N   0  0  0  0  0  0  0  0  0  0  0  0
   10.8580   11.9910    4.1842 C   0  0  0  0  0  0  0  0  0  0  0  0
   10.8189   13.1123    4.9722 N   0  0  0  0  0  0  0  0  0  0  0  0
  1  2  1  0  0  0  0
  1  6  1  0  0  0  0
  2  3  2  0  0  0  0
  3  4  1  0  0  0  0
  4  5  2  0  0  0  0
  4 10  1  0  0  0  0
  5  6  1  0  0  0  0
  5  8  1  0  0  0  0
  6  7  2  0  0  0  0
  8  9  1  0  0  0  0
  9 10  2  0  0  0  0
M  END
>  <CHROM.1>
11.30981355,11.74489678,6.60669270,0.29661550,-1.34444099,0.73714183

>  <Name>
ligand

>  <RI>
0

>  <Rbt.Current_Directory>
/home/itssahil/PROJECTS/Mol_Feturizer/New_Systems/rnas/2EEW

>  <Rbt.Executable>
rbdock ($Id: //depot/dev/client3/rdock/2013.1/src/exe/rbdock.cxx#4 $)

>  <Rbt.Library>
libRbt.so (2013.1, Build901 2013/11/27)

>  <Rbt.Parameter_File>
/export/apps/rDock/src/rDock_2013.1_src/data/scripts/dock_solv.prm

>  <Rbt.Receptor>
prm/pocket_docking_4.prm

>  <SCORE>
-17.0886

>  <SCORE.INTER>
-17.0886

>  <SCORE.INTER.CONST>
1

>  <SCORE.INTER.POLAR>
0

>  <SCORE.INTER.ROT>
0

>  <SCORE.INTER.SOLV>
3.45737

>  <SCORE.INTER.VDW>
-16.1449

>  <SCORE.INTER.norm>
-1.70886

>  <SCORE.INTRA>
0

>  <SCORE.INTRA.DIHEDRAL>
0

>  <SCORE.INTRA.DIHEDRAL.0>
0

>  <SCORE.INTRA.POLAR>
0

>  <SCORE.INTRA.POLAR.0>
0

>  <SCORE.INTRA.REPUL>
0

>  <SCORE.INTRA.REPUL.0>
0

>  <SCORE.INTRA.SOLV>
0

>  <SCORE.INTRA.SOLV.lig_0>
-4.28901

>  <SCORE.INTRA.VDW>
0

>  <SCORE.INTRA.VDW.0>
0

>  <SCORE.INTRA.norm>
0

>  <SCORE.RESTR>
0

>  <SCORE.RESTR.CAVITY>
0

>  <SCORE.RESTR.norm>
0

>  <SCORE.SYSTEM>
0

>  <SCORE.SYSTEM.CONST>
0

>  <SCORE.SYSTEM.DIHEDRAL>
0

>  <SCORE.SYSTEM.SOLV>
0

>  <SCORE.SYSTEM.norm>
0

>  <SCORE.heavy>
10

>  <SCORE.norm>
-1.70886

>  <RMSD>
1.049

$$$$
ligand
 OpenBabel11021811423D
libRbt.so/2013.1/901 2013/11/27
 10 11  0  0  0  0  0  0  0  0999 V2000
   11.4164   11.6061    8.6486 N   0  0  0  0  0  0  0  0  0  0  0  0
   11.0863   12.9422    8.5159 C   0  0  0  0  0  0  0  0  0  0  0  0
   10.8383   13.5008    7.3233 N   0  0  0  0  0  0  0  0  0  0  0  0
   10.9483   12.6283    6.2880 C   0  0  0  0  0  0  0  0  0  0  0  0
   11.2746   11.2852    6.3478 C   0  0  0  0  0  0  0  0  0  0  0  0
   11.5396   10.6781    7.6096 C   0  0  0  0  0  0  0  0  0  0  0  0
   11.8448    9.5110    7.8937 O   0  0  0  0  0  0  0  0  0  0  0  0
   11.2736   10.7853    5.0747 N   0  0  0  0  0  0  0  0  0  0  0  0
   10.9476   11.8168    4.2563 C   0  0  0  0  0  0  0  0  0  0  0  0
   10.7416   12.9666    4.9743 N   0  0  0  0  0  0  0  0  0  0  0  0
  1  2  1  0  0  0  0
  1  6  1  0  0  0  0
  2  3  2  0  0  0  0
  3  4  1  0  0  0  0
  4  5  2  0  0  0  0
  4 10  1  0  0  0  0
  5  6  1  0  0  0  0
  5  8  1  0  0  0  0
  6  7  2  0  0  0  0
  8  9  1  0  0  0  0
  9 10  2  0  0  0  0
M  END
>  <CHROM.1>
11.20337239,11.73051556,6.71811652,0.81711159,-1.31920739,1.19109569

>  <Name>
ligand

>  <RI>
0

>  <Rbt.Current_Directory>
/home/itssahil/PROJECTS/Mol_Feturizer/New_Systems/rnas/2EEW

>  <Rbt.Executable>
rbdock ($Id: //depot/dev/client3/rdock/2013.1/src/exe/rbdock.cxx#4 $)

>  <Rbt.Library>
libRbt.so (2013.1, Build901 2013/11/27)

>  <Rbt.Parameter_File>
/export/apps/rDock/src/rDock_2013.1_src/data/scripts/dock_solv.prm

>  <Rbt.Receptor>
prm/blind_docking_20.prm

>  <SCORE>
-16.253

>  <SCORE.INTER>
-16.2534

>  <SCORE.INTER.CONST>
1

>  <SCORE.INTER.POLAR>
0

>  <SCORE.INTER.ROT>
0

>  <SCORE.INTER.SOLV>
3.45275

>  <SCORE.INTER.VDW>
-15.5865

>  <SCORE.INTER.norm>
-1.62534

>  <SCORE.INTRA>
0

>  <SCORE.INTRA.DIHEDRAL>
0

>  <SCORE.INTRA.DIHEDRAL.0>
0

>  <SCORE.INTRA.POLAR>
0

>  <SCORE.INTRA.POLAR.0>
0

>  <SCORE.INTRA.REPUL>
0

>  <SCORE.INTRA.REPUL.0>
0

>  <SCORE.INTRA.SOLV>
0

>  <SCORE.INTRA.SOLV.lig_0>
-4.28901

>  <SCORE.INTRA.VDW>
0

>  <SCORE.INTRA.VDW.0>
0

>  <SCORE.INTRA.norm>
0

>  <SCORE.RESTR>
0.000387331

>  <SCORE.RESTR.CAVITY>
0.000387331

>  <SCORE.RESTR.norm>
3.87331e-05

>  <SCORE.SYSTEM>
0

>  <SCORE.SYSTEM.CONST>
0

>  <SCORE.SYSTEM.DIHEDRAL>
0

>  <SCORE.SYSTEM.SOLV>
0

>  <SCORE.SYSTEM.norm>
0

>  <SCORE.heavy>
10

>  <SCORE.norm>
-1.6253

>  <RMSD>
1.050

$$$$
ligand
 OpenBabel11021811423D
libRbt.so/2013.1/901 2013/11/27
 10 11  0  0  0  0  0  0  0  0999 V2000
   11.6682   11.4611    8.4883 N   0  0  0  0  0  0  0  0  0  0  0  0
   11.4332   12.8234    8.4592 C   0  0  0  0  0  0  0  0  0  0  0  0
   11.1365   13.4721    7.3249 N   0  0  0  0  0  0  0  0  0  0  0  0
   11.0970   12.6605    6.2363 C   0  0  0  0  0  0  0  0  0  0  0  0
   11.3219   11.2961    6.1928 C   0  0  0  0  0  0  0  0  0  0  0  0
   11.6371   10.5935    7.3919 C   0  0  0  0  0  0  0  0  0  0  0  0
   11.8723    9.3918    7.5833 O   0  0  0  0  0  0  0  0  0  0  0  0
   11.1822   10.8784    4.8979 N   0  0  0  0  0  0  0  0  0  0  0  0
   10.8739   11.9801    4.1691 C   0  0  0  0  0  0  0  0  0  0  0  0
   10.8148   13.0946    4.9655 N   0  0  0  0  0  0  0  0  0  0  0  0
  1  2  1  0  0  0  0
  1  6  1  0  0  0  0
  2  3  2  0  0  0  0
  3  4  1  0  0  0  0
  4  5  2  0  0  0  0
  4 10  1  0  0  0  0
  5  6  1  0  0  0  0
  5  8  1  0  0  0  0
  6  7  2  0  0  0  0
  8  9  1  0  0  0  0
  9 10  2  0  0  0  0
M  END
>  <CHROM.1>
11.31463377,11.72136101,6.59233178,0.35855953,-1.33918503,0.80521707

>  <Name>
ligand

>  <RI>
0

>  <Rbt.Current_Directory>
/home/itssahil/PROJECTS/Mol_Feturizer/New_Systems/rnas/2EEW

>  <Rbt.Executable>
rbdock ($Id: //depot/dev/client3/rdock/2013.1/src/exe/rbdock.cxx#4 $)

>  <Rbt.Library>
libRbt.so (2013.1, Build901 2013/11/27)

>  <Rbt.Parameter_File>
/export/apps/rDock/src/rDock_2013.1_src/data/scripts/dock_solv.prm

>  <Rbt.Receptor>
prm/pocket_docking_4.prm

>  <SCORE>
-17.0748

>  <SCORE.INTER>
-17.0748

>  <SCORE.INTER.CONST>
1

>  <SCORE.INTER.POLAR>
0

>  <SCORE.INTER.ROT>
0

>  <SCORE.INTER.SOLV>
3.42635

>  <SCORE.INTER.VDW>
-16.1253

>  <SCORE.INTER.norm>
-1.70748

>  <SCORE.INTRA>
0

>  <SCORE.INTRA.DIHEDRAL>
0

>  <SCORE.INTRA.DIHEDRAL.0>
0

>  <SCORE.INTRA.POLAR>
0

>  <SCORE.INTRA.POLAR.0>
0

>  <SCORE.INTRA.REPUL>
0

>  <SCORE.INTRA.REPUL.0>
0

>  <SCORE.INTRA.SOLV>
0

>  <SCORE.INTRA.SOLV.lig_0>
-4.28901

>  <SCORE.INTRA.VDW>
0

>  <SCORE.INTRA.VDW.0>
0

>  <SCORE.INTRA.norm>
0

>  <SCORE.RESTR>
0

>  <SCORE.RESTR.CAVITY>
0

>  <SCORE.RESTR.norm>
0

>  <SCORE.SYSTEM>
0

>  <SCORE.SYSTEM.CONST>
0

>  <SCORE.SYSTEM.DIHEDRAL>
0

>  <SCORE.SYSTEM.SOLV>
0

>  <SCORE.SYSTEM.norm>
0

>  <SCORE.heavy>
10

>  <SCORE.norm>
-1.70748

>  <RMSD>
1.050

$$$$
ligand
 OpenBabel11021811423D
libRbt.so/2013.1/901 2013/11/27
 10 11  0  0  0  0  0  0  0  0999 V2000
   11.4352   11.5539    8.6178 N   0  0  0  0  0  0  0  0  0  0  0  0
   11.1294   12.8972    8.5004 C   0  0  0  0  0  0  0  0  0  0  0  0
   10.8763   13.4704    7.3159 N   0  0  0  0  0  0  0  0  0  0  0  0
   10.9554   12.6047    6.2722 C   0  0  0  0  0  0  0  0  0  0  0  0
   11.2563   11.2551    6.3166 C   0  0  0  0  0  0  0  0  0  0  0  0
   11.5263   10.6324    7.5697 C   0  0  0  0  0  0  0  0  0  0  0  0
   11.8125    9.4573    7.8402 O   0  0  0  0  0  0  0  0  0  0  0  0
   11.2284   10.7660    5.0396 N   0  0  0  0  0  0  0  0  0  0  0  0
   10.9116   11.8104    4.2342 C   0  0  0  0  0  0  0  0  0  0  0  0
   10.7378   12.9580    4.9641 N   0  0  0  0  0  0  0  0  0  0  0  0
  1  2  1  0  0  0  0
  1  6  1  0  0  0  0
  2  3  2  0  0  0  0
  3  4  1  0  0  0  0
  4  5  2  0  0  0  0
  4 10  1  0  0  0  0
  5  6  1  0  0  0  0
  5  8  1  0  0  0  0
  6  7  2  0  0  0  0
  8  9  1  0  0  0  0
  9 10  2  0  0  0  0
M  END
>  <CHROM.1>
11.19869949,11.69857440,6.69145009,0.73389656,-1.33153903,1.11861376

>  <Name>
ligand

>  <RI>
0

>  <Rbt.Current_Directory>
/home/itssahil/PROJECTS/Mol_Feturizer/New_Systems/rnas/2EEW

>  <Rbt.Executable>
rbdock ($Id: //depot/dev/client3/rdock/2013.1/src/exe/rbdock.cxx#4 $)

>  <Rbt.Library>
libRbt.so (2013.1, Build901 2013/11/27)

>  <Rbt.Parameter_File>
/export/apps/rDock/src/rDock_2013.1_src/data/scripts/dock_solv.prm

>  <Rbt.Receptor>
prm/blind_docking_20.prm

>  <SCORE>
-16.4229

>  <SCORE.INTER>
-16.4526

>  <SCORE.INTER.CONST>
1

>  <SCORE.INTER.POLAR>
0

>  <SCORE.INTER.ROT>
0

>  <SCORE.INTER.SOLV>
3.47461

>  <SCORE.INTER.VDW>
-15.7266

>  <SCORE.INTER.norm>
-1.64526

>  <SCORE.INTRA>
0

>  <SCORE.INTRA.DIHEDRAL>
0

>  <SCORE.INTRA.DIHEDRAL.0>
0

>  <SCORE.INTRA.POLAR>
0

>  <SCORE.INTRA.POLAR.0>
0

>  <SCORE.INTRA.REPUL>
0

>  <SCORE.INTRA.REPUL.0>
0

>  <SCORE.INTRA.SOLV>
0

>  <SCORE.INTRA.SOLV.lig_0>
-4.28901

>  <SCORE.INTRA.VDW>
0

>  <SCORE.INTRA.VDW.0>
0

>  <SCORE.INTRA.norm>
0

>  <SCORE.RESTR>
0.0297039

>  <SCORE.RESTR.CAVITY>
0.0297039

>  <SCORE.RESTR.norm>
0.00297039

>  <SCORE.SYSTEM>
0

>  <SCORE.SYSTEM.CONST>
0

>  <SCORE.SYSTEM.DIHEDRAL>
0

>  <SCORE.SYSTEM.SOLV>
0

>  <SCORE.SYSTEM.norm>
0

>  <SCORE.heavy>
10

>  <SCORE.norm>
-1.64229

>  <RMSD>
1.051

$$$$
ligand
 OpenBabel11021811423D
libRbt.so/2013.1/901 2013/11/27
 10 11  0  0  0  0  0  0  0  0999 V2000
   11.8790   10.7578    8.2427 N   0  0  0  0  0  0  0  0  0  0  0  0
   11.6579   12.0930    8.5262 C   0  0  0  0  0  0  0  0  0  0  0  0
   11.2897   12.9711    7.5833 N   0  0  0  0  0  0  0  0  0  0  0  0
   11.1650   12.4149    6.3504 C   0  0  0  0  0  0  0  0  0  0  0  0
   11.3711   11.0934    5.9964 C   0  0  0  0  0  0  0  0  0  0  0  0
   11.7616   10.1487    6.9892 C   0  0  0  0  0  0  0  0  0  0  0  0
   11.9962    8.9351    6.8985 O   0  0  0  0  0  0  0  0  0  0  0  0
   11.1364   10.9660    4.6549 N   0  0  0  0  0  0  0  0  0  0  0  0
   10.7902   12.1982    4.2059 C   0  0  0  0  0  0  0  0  0  0  0  0
   10.7994   13.1131    5.2270 N   0  0  0  0  0  0  0  0  0  0  0  0
  1  2  1  0  0  0  0
  1  6  1  0  0  0  0
  2  3  2  0  0  0  0
  3  4  1  0  0  0  0
  4  5  2  0  0  0  0
  4 10  1  0  0  0  0
  5  6  1  0  0  0  0
  5  8  1  0  0  0  0
  6  7  2  0  0  0  0
  8  9  1  0  0  0  0
  9 10  2  0  0  0  0
M  END
>  <CHROM.1>
11.39657060,11.42176959,6.47802706,0.14496988,-1.29263436,0.81729498

>  <Name>
ligand

>  <RI>
0

>  <Rbt.Current_Directory>
/home/itssahil/PROJECTS/Mol_Feturizer/New_Systems/rnas/2EEW

>  <Rbt.Executable>
rbdock ($Id: //depot/dev/client3/rdock/2013.1/src/exe/rbdock.cxx#4 $)

>  <Rbt.Library>
libRbt.so (2013.1, Build901 2013/11/27)

>  <Rbt.Parameter_File>
/export/apps/rDock/src/rDock_2013.1_src/data/scripts/dock_solv.prm

>  <Rbt.Receptor>
prm/blind_docking_20.prm

>  <SCORE>
-16.2619

>  <SCORE.INTER>
-16.2622

>  <SCORE.INTER.CONST>
1

>  <SCORE.INTER.POLAR>
0

>  <SCORE.INTER.ROT>
0

>  <SCORE.INTER.SOLV>
3.45941

>  <SCORE.INTER.VDW>
-15.5946

>  <SCORE.INTER.norm>
-1.62622

>  <SCORE.INTRA>
0

>  <SCORE.INTRA.DIHEDRAL>
0

>  <SCORE.INTRA.DIHEDRAL.0>
0

>  <SCORE.INTRA.POLAR>
0

>  <SCORE.INTRA.POLAR.0>
0

>  <SCORE.INTRA.REPUL>
0

>  <SCORE.INTRA.REPUL.0>
0

>  <SCORE.INTRA.SOLV>
0

>  <SCORE.INTRA.SOLV.lig_0>
-4.28901

>  <SCORE.INTRA.VDW>
0

>  <SCORE.INTRA.VDW.0>
0

>  <SCORE.INTRA.norm>
0

>  <SCORE.RESTR>
0.000334475

>  <SCORE.RESTR.CAVITY>
0.000334475

>  <SCORE.RESTR.norm>
3.34475e-05

>  <SCORE.SYSTEM>
0

>  <SCORE.SYSTEM.CONST>
0

>  <SCORE.SYSTEM.DIHEDRAL>
0

>  <SCORE.SYSTEM.SOLV>
0

>  <SCORE.SYSTEM.norm>
0

>  <SCORE.heavy>
10

>  <SCORE.norm>
-1.62619

>  <RMSD>
1.052

$$$$
ligand
 OpenBabel11021811423D
libRbt.so/2013.1/901 2013/11/27
 10 11  0  0  0  0  0  0  0  0999 V2000
   11.4335   11.5624    8.6198 N   0  0  0  0  0  0  0  0  0  0  0  0
   11.1147   12.9025    8.5004 C   0  0  0  0  0  0  0  0  0  0  0  0
   10.8541   13.4710    7.3153 N   0  0  0  0  0  0  0  0  0  0  0  0
   10.9395   12.6040    6.2731 C   0  0  0  0  0  0  0  0  0  0  0  0
   11.2533   11.2574    6.3196 C   0  0  0  0  0  0  0  0  0  0  0  0
   11.5315   10.6397    7.5734 C   0  0  0  0  0  0  0  0  0  0  0  0
   11.8294    9.4679    7.8457 O   0  0  0  0  0  0  0  0  0  0  0  0
   11.2278   10.7655    5.0436 N   0  0  0  0  0  0  0  0  0  0  0  0
   10.8996   11.8053    4.2367 C   0  0  0  0  0  0  0  0  0  0  0  0
   10.7162   12.9526    4.9647 N   0  0  0  0  0  0  0  0  0  0  0  0
  1  2  1  0  0  0  0
  1  6  1  0  0  0  0
  2  3  2  0  0  0  0
  3  4  1  0  0  0  0
  4  5  2  0  0  0  0
  4 10  1  0  0  0  0
  5  6  1  0  0  0  0
  5  8  1  0  0  0  0
  6  7  2  0  0  0  0
  8  9  1  0  0  0  0
  9 10  2  0  0  0  0
M  END
>  <CHROM.1>
11.19219568,11.70103507,6.69367881,0.74431242,-1.32217504,1.12676106

>  <Name>
ligand

>  <RI>
0

>  <Rbt.Current_Directory>
/home/itssahil/PROJECTS/Mol_Feturizer/New_Systems/rnas/2EEW

>  <Rbt.Executable>
rbdock ($Id: //depot/dev/client3/rdock/2013.1/src/exe/rbdock.cxx#4 $)

>  <Rbt.Library>
libRbt.so (2013.1, Build901 2013/11/27)

>  <Rbt.Parameter_File>
/export/apps/rDock/src/rDock_2013.1_src/data/scripts/dock_solv.prm

>  <Rbt.Receptor>
prm/blind_docking_20.prm

>  <SCORE>
-16.3285

>  <SCORE.INTER>
-16.3435

>  <SCORE.INTER.CONST>
1

>  <SCORE.INTER.POLAR>
0

>  <SCORE.INTER.ROT>
0

>  <SCORE.INTER.SOLV>
3.44719

>  <SCORE.INTER.VDW>
-15.6448

>  <SCORE.INTER.norm>
-1.63435

>  <SCORE.INTRA>
0

>  <SCORE.INTRA.DIHEDRAL>
0

>  <SCORE.INTRA.DIHEDRAL.0>
0

>  <SCORE.INTRA.POLAR>
0

>  <SCORE.INTRA.POLAR.0>
0

>  <SCORE.INTRA.REPUL>
0

>  <SCORE.INTRA.REPUL.0>
0

>  <SCORE.INTRA.SOLV>
0

>  <SCORE.INTRA.SOLV.lig_0>
-4.28901

>  <SCORE.INTRA.VDW>
0

>  <SCORE.INTRA.VDW.0>
0

>  <SCORE.INTRA.norm>
0

>  <SCORE.RESTR>
0.0150138

>  <SCORE.RESTR.CAVITY>
0.0150138

>  <SCORE.RESTR.norm>
0.00150138

>  <SCORE.SYSTEM>
0

>  <SCORE.SYSTEM.CONST>
0

>  <SCORE.SYSTEM.DIHEDRAL>
0

>  <SCORE.SYSTEM.SOLV>
0

>  <SCORE.SYSTEM.norm>
0

>  <SCORE.heavy>
10

>  <SCORE.norm>
-1.63285

>  <RMSD>
1.053

$$$$
ligand
 OpenBabel11021811423D
libRbt.so/2013.1/901 2013/11/27
 10 11  0  0  0  0  0  0  0  0999 V2000
   11.4439   11.5758    8.6202 N   0  0  0  0  0  0  0  0  0  0  0  0
   11.1291   12.9168    8.4994 C   0  0  0  0  0  0  0  0  0  0  0  0
   10.8615   13.4829    7.3147 N   0  0  0  0  0  0  0  0  0  0  0  0
   10.9358   12.6128    6.2743 C   0  0  0  0  0  0  0  0  0  0  0  0
   11.2451   11.2651    6.3223 C   0  0  0  0  0  0  0  0  0  0  0  0
   11.5306   10.6499    7.5756 C   0  0  0  0  0  0  0  0  0  0  0  0
   11.8263    9.4778    7.8489 O   0  0  0  0  0  0  0  0  0  0  0  0
   11.2080   10.7698    5.0479 N   0  0  0  0  0  0  0  0  0  0  0  0
   10.8774   11.8086    4.2406 C   0  0  0  0  0  0  0  0  0  0  0  0
   10.7037   12.9585    4.9668 N   0  0  0  0  0  0  0  0  0  0  0  0
  1  2  1  0  0  0  0
  1  6  1  0  0  0  0
  2  3  2  0  0  0  0
  3  4  1  0  0  0  0
  4  5  2  0  0  0  0
  4 10  1  0  0  0  0
  5  6  1  0  0  0  0
  5  8  1  0  0  0  0
  6  7  2  0  0  0  0
  8  9  1  0  0  0  0
  9 10  2  0  0  0  0
M  END
>  <CHROM.1>
11.18840843,11.71002378,6.69551795,0.70983668,-1.32202194,1.09056592

>  <Name>
ligand

>  <RI>
0

>  <Rbt.Current_Directory>
/home/itssahil/PROJECTS/Mol_Feturizer/New_Systems/rnas/2EEW

>  <Rbt.Executable>
rbdock ($Id: //depot/dev/client3/rdock/2013.1/src/exe/rbdock.cxx#4 $)

>  <Rbt.Library>
libRbt.so (2013.1, Build901 2013/11/27)

>  <Rbt.Parameter_File>
/export/apps/rDock/src/rDock_2013.1_src/data/scripts/dock_solv.prm

>  <Rbt.Receptor>
prm/blind_docking_20.prm

>  <SCORE>
-16.3765

>  <SCORE.INTER>
-16.4056

>  <SCORE.INTER.CONST>
1

>  <SCORE.INTER.POLAR>
0

>  <SCORE.INTER.ROT>
0

>  <SCORE.INTER.SOLV>
3.44663

>  <SCORE.INTER.VDW>
-15.6859

>  <SCORE.INTER.norm>
-1.64056

>  <SCORE.INTRA>
0

>  <SCORE.INTRA.DIHEDRAL>
0

>  <SCORE.INTRA.DIHEDRAL.0>
0

>  <SCORE.INTRA.POLAR>
0

>  <SCORE.INTRA.POLAR.0>
0

>  <SCORE.INTRA.REPUL>
0

>  <SCORE.INTRA.REPUL.0>
0

>  <SCORE.INTRA.SOLV>
0

>  <SCORE.INTRA.SOLV.lig_0>
-4.28901

>  <SCORE.INTRA.VDW>
0

>  <SCORE.INTRA.VDW.0>
0

>  <SCORE.INTRA.norm>
0

>  <SCORE.RESTR>
0.0291218

>  <SCORE.RESTR.CAVITY>
0.0291218

>  <SCORE.RESTR.norm>
0.00291218

>  <SCORE.SYSTEM>
0

>  <SCORE.SYSTEM.CONST>
0

>  <SCORE.SYSTEM.DIHEDRAL>
0

>  <SCORE.SYSTEM.SOLV>
0

>  <SCORE.SYSTEM.norm>
0

>  <SCORE.heavy>
10

>  <SCORE.norm>
-1.63765

>  <RMSD>
1.054

$$$$
ligand
 OpenBabel11021811423D
libRbt.so/2013.1/901 2013/11/27
 10 11  0  0  0  0  0  0  0  0999 V2000
   11.4472   11.5857    8.6160 N   0  0  0  0  0  0  0  0  0  0  0  0
   11.0959   12.9184    8.5051 C   0  0  0  0  0  0  0  0  0  0  0  0
   10.8305   13.4902    7.3226 N   0  0  0  0  0  0  0  0  0  0  0  0
   10.9459   12.6345    6.2740 C   0  0  0  0  0  0  0  0  0  0  0  0
   11.2930   11.2958    6.3119 C   0  0  0  0  0  0  0  0  0  0  0  0
   11.5766   10.6747    7.5628 C   0  0  0  0  0  0  0  0  0  0  0  0
   11.9016    9.5084    7.8277 O   0  0  0  0  0  0  0  0  0  0  0  0
   11.2900   10.8143    5.0317 N   0  0  0  0  0  0  0  0  0  0  0  0
   10.9423   11.8524    4.2308 C   0  0  0  0  0  0  0  0  0  0  0  0
   10.7244   12.9885    4.9668 N   0  0  0  0  0  0  0  0  0  0  0  0
  1  2  1  0  0  0  0
  1  6  1  0  0  0  0
  2  3  2  0  0  0  0
  3  4  1  0  0  0  0
  4  5  2  0  0  0  0
  4 10  1  0  0  0  0
  5  6  1  0  0  0  0
  5  8  1  0  0  0  0
  6  7  2  0  0  0  0
  8  9  1  0  0  0  0
  9 10  2  0  0  0  0
M  END
>  <CHROM.1>
11.21782585,11.73458509,6.68913370,0.81203340,-1.30236275,1.20063582

>  <Name>
ligand

>  <RI>
0

>  <Rbt.Current_Directory>
/home/itssahil/PROJECTS/Mol_Feturizer/New_Systems/rnas/2EEW

>  <Rbt.Executable>
rbdock ($Id: //depot/dev/client3/rdock/2013.1/src/exe/rbdock.cxx#4 $)

>  <Rbt.Library>
libRbt.so (2013.1, Build901 2013/11/27)

>  <Rbt.Parameter_File>
/export/apps/rDock/src/rDock_2013.1_src/data/scripts/dock_solv.prm

>  <Rbt.Receptor>
prm/blind_docking_20.prm

>  <SCORE>
-16.2262

>  <SCORE.INTER>
-16.2264

>  <SCORE.INTER.CONST>
1

>  <SCORE.INTER.POLAR>
0

>  <SCORE.INTER.ROT>
0

>  <SCORE.INTER.SOLV>
3.36216

>  <SCORE.INTER.VDW>
-15.5384

>  <SCORE.INTER.norm>
-1.62264

>  <SCORE.INTRA>
0

>  <SCORE.INTRA.DIHEDRAL>
0

>  <SCORE.INTRA.DIHEDRAL.0>
0

>  <SCORE.INTRA.POLAR>
0

>  <SCORE.INTRA.POLAR.0>
0

>  <SCORE.INTRA.REPUL>
0

>  <SCORE.INTRA.REPUL.0>
0

>  <SCORE.INTRA.SOLV>
0

>  <SCORE.INTRA.SOLV.lig_0>
-4.28901

>  <SCORE.INTRA.VDW>
0

>  <SCORE.INTRA.VDW.0>
0

>  <SCORE.INTRA.norm>
0

>  <SCORE.RESTR>
0.000284315

>  <SCORE.RESTR.CAVITY>
0.000284315

>  <SCORE.RESTR.norm>
2.84315e-05

>  <SCORE.SYSTEM>
0

>  <SCORE.SYSTEM.CONST>
0

>  <SCORE.SYSTEM.DIHEDRAL>
0

>  <SCORE.SYSTEM.SOLV>
0

>  <SCORE.SYSTEM.norm>
0

>  <SCORE.heavy>
10

>  <SCORE.norm>
-1.62262

>  <RMSD>
1.054

$$$$
ligand
 OpenBabel11021811423D
libRbt.so/2013.1/901 2013/11/27
 10 11  0  0  0  0  0  0  0  0999 V2000
   11.4194   11.5844    8.6325 N   0  0  0  0  0  0  0  0  0  0  0  0
   11.0935   12.9223    8.5067 C   0  0  0  0  0  0  0  0  0  0  0  0
   10.8410   13.4863    7.3177 N   0  0  0  0  0  0  0  0  0  0  0  0
   10.9420   12.6174    6.2785 C   0  0  0  0  0  0  0  0  0  0  0  0
   11.2637   11.2728    6.3314 C   0  0  0  0  0  0  0  0  0  0  0  0
   11.5333   10.6599    7.5893 C   0  0  0  0  0  0  0  0  0  0  0  0
   11.8358    9.4906    7.8673 O   0  0  0  0  0  0  0  0  0  0  0  0
   11.2537   10.7779    5.0564 N   0  0  0  0  0  0  0  0  0  0  0  0
   10.9270   11.8137    4.2438 C   0  0  0  0  0  0  0  0  0  0  0  0
   10.7294   12.9615    4.9672 N   0  0  0  0  0  0  0  0  0  0  0  0
  1  2  1  0  0  0  0
  1  6  1  0  0  0  0
  2  3  2  0  0  0  0
  3  4  1  0  0  0  0
  4  5  2  0  0  0  0
  4 10  1  0  0  0  0
  5  6  1  0  0  0  0
  5  8  1  0  0  0  0
  6  7  2  0  0  0  0
  8  9  1  0  0  0  0
  9 10  2  0  0  0  0
M  END
>  <CHROM.1>
11.19613460,11.71701973,6.70372701,0.79072482,-1.32054968,1.16934113

>  <Name>
ligand

>  <RI>
0

>  <Rbt.Current_Directory>
/home/itssahil/PROJECTS/Mol_Feturizer/New_Systems/rnas/2EEW

>  <Rbt.Executable>
rbdock ($Id: //depot/dev/client3/rdock/2013.1/src/exe/rbdock.cxx#4 $)

>  <Rbt.Library>
libRbt.so (2013.1, Build901 2013/11/27)

>  <Rbt.Parameter_File>
/export/apps/rDock/src/rDock_2013.1_src/data/scripts/dock_solv.prm

>  <Rbt.Receptor>
prm/blind_docking_20.prm

>  <SCORE>
-16.2566

>  <SCORE.INTER>
-16.2566

>  <SCORE.INTER.CONST>
1

>  <SCORE.INTER.POLAR>
0

>  <SCORE.INTER.ROT>
0

>  <SCORE.INTER.SOLV>
3.44652

>  <SCORE.INTER.VDW>
-15.5865

>  <SCORE.INTER.norm>
-1.62566

>  <SCORE.INTRA>
0

>  <SCORE.INTRA.DIHEDRAL>
0

>  <SCORE.INTRA.DIHEDRAL.0>
0

>  <SCORE.INTRA.POLAR>
0

>  <SCORE.INTRA.POLAR.0>
0

>  <SCORE.INTRA.REPUL>
0

>  <SCORE.INTRA.REPUL.0>
0

>  <SCORE.INTRA.SOLV>
0

>  <SCORE.INTRA.SOLV.lig_0>
-4.28901

>  <SCORE.INTRA.VDW>
0

>  <SCORE.INTRA.VDW.0>
0

>  <SCORE.INTRA.norm>
0

>  <SCORE.RESTR>
0

>  <SCORE.RESTR.CAVITY>
0

>  <SCORE.RESTR.norm>
0

>  <SCORE.SYSTEM>
0

>  <SCORE.SYSTEM.CONST>
0

>  <SCORE.SYSTEM.DIHEDRAL>
0

>  <SCORE.SYSTEM.SOLV>
0

>  <SCORE.SYSTEM.norm>
0

>  <SCORE.heavy>
10

>  <SCORE.norm>
-1.62566

>  <RMSD>
1.054

$$$$
ligand
 OpenBabel11021811423D
libRbt.so/2013.1/901 2013/11/27
 10 11  0  0  0  0  0  0  0  0999 V2000
   11.4423   11.5793    8.6228 N   0  0  0  0  0  0  0  0  0  0  0  0
   11.1275   12.9200    8.4990 C   0  0  0  0  0  0  0  0  0  0  0  0
   10.8595   13.4834    7.3131 N   0  0  0  0  0  0  0  0  0  0  0  0
   10.9334   12.6109    6.2747 C   0  0  0  0  0  0  0  0  0  0  0  0
   11.2427   11.2633    6.3256 C   0  0  0  0  0  0  0  0  0  0  0  0
   11.5286   10.6510    7.5803 C   0  0  0  0  0  0  0  0  0  0  0  0
   11.8243    9.4795    7.8561 O   0  0  0  0  0  0  0  0  0  0  0  0
   11.2052   10.7651    5.0524 N   0  0  0  0  0  0  0  0  0  0  0  0
   10.8744   11.8020    4.2428 C   0  0  0  0  0  0  0  0  0  0  0  0
   10.7010   12.9536    4.9664 N   0  0  0  0  0  0  0  0  0  0  0  0
  1  2  1  0  0  0  0
  1  6  1  0  0  0  0
  2  3  2  0  0  0  0
  3  4  1  0  0  0  0
  4  5  2  0  0  0  0
  4 10  1  0  0  0  0
  5  6  1  0  0  0  0
  5  8  1  0  0  0  0
  6  7  2  0  0  0  0
  8  9  1  0  0  0  0
  9 10  2  0  0  0  0
M  END
>  <CHROM.1>
11.18616049,11.70908531,6.69789628,0.70862851,-1.32190396,1.08710071

>  <Name>
ligand

>  <RI>
0

>  <Rbt.Current_Directory>
/home/itssahil/PROJECTS/Mol_Feturizer/New_Systems/rnas/2EEW

>  <Rbt.Executable>
rbdock ($Id: //depot/dev/client3/rdock/2013.1/src/exe/rbdock.cxx#4 $)

>  <Rbt.Library>
libRbt.so (2013.1, Build901 2013/11/27)

>  <Rbt.Parameter_File>
/export/apps/rDock/src/rDock_2013.1_src/data/scripts/dock_solv.prm

>  <Rbt.Receptor>
prm/blind_docking_20.prm

>  <SCORE>
-16.3655

>  <SCORE.INTER>
-16.393

>  <SCORE.INTER.CONST>
1

>  <SCORE.INTER.POLAR>
0

>  <SCORE.INTER.ROT>
0

>  <SCORE.INTER.SOLV>
3.45074

>  <SCORE.INTER.VDW>
-15.6789

>  <SCORE.INTER.norm>
-1.6393

>  <SCORE.INTRA>
0

>  <SCORE.INTRA.DIHEDRAL>
0

>  <SCORE.INTRA.DIHEDRAL.0>
0

>  <SCORE.INTRA.POLAR>
0

>  <SCORE.INTRA.POLAR.0>
0

>  <SCORE.INTRA.REPUL>
0

>  <SCORE.INTRA.REPUL.0>
0

>  <SCORE.INTRA.SOLV>
0

>  <SCORE.INTRA.SOLV.lig_0>
-4.28901

>  <SCORE.INTRA.VDW>
0

>  <SCORE.INTRA.VDW.0>
0

>  <SCORE.INTRA.norm>
0

>  <SCORE.RESTR>
0.0274881

>  <SCORE.RESTR.CAVITY>
0.0274881

>  <SCORE.RESTR.norm>
0.00274881

>  <SCORE.SYSTEM>
0

>  <SCORE.SYSTEM.CONST>
0

>  <SCORE.SYSTEM.DIHEDRAL>
0

>  <SCORE.SYSTEM.SOLV>
0

>  <SCORE.SYSTEM.norm>
0

>  <SCORE.heavy>
10

>  <SCORE.norm>
-1.63655

>  <RMSD>
1.055

$$$$
ligand
 OpenBabel11021811423D
libRbt.so/2013.1/901 2013/11/27
 10 11  0  0  0  0  0  0  0  0999 V2000
   11.8939   10.7582    8.2372 N   0  0  0  0  0  0  0  0  0  0  0  0
   11.6733   12.0938    8.5193 C   0  0  0  0  0  0  0  0  0  0  0  0
   11.3016   12.9702    7.5762 N   0  0  0  0  0  0  0  0  0  0  0  0
   11.1728   12.4118    6.3446 C   0  0  0  0  0  0  0  0  0  0  0  0
   11.3780   11.0898    5.9921 C   0  0  0  0  0  0  0  0  0  0  0  0
   11.7723   10.1469    6.9852 C   0  0  0  0  0  0  0  0  0  0  0  0
   12.0070    8.9333    6.8957 O   0  0  0  0  0  0  0  0  0  0  0  0
   11.1387   10.9601    4.6517 N   0  0  0  0  0  0  0  0  0  0  0  0
   10.7906   12.1915    4.2018 C   0  0  0  0  0  0  0  0  0  0  0  0
   10.8030   13.1081    5.2214 N   0  0  0  0  0  0  0  0  0  0  0  0
  1  2  1  0  0  0  0
  1  6  1  0  0  0  0
  2  3  2  0  0  0  0
  3  4  1  0  0  0  0
  4  5  2  0  0  0  0
  4 10  1  0  0  0  0
  5  6  1  0  0  0  0
  5  8  1  0  0  0  0
  6  7  2  0  0  0  0
  8  9  1  0  0  0  0
  9 10  2  0  0  0  0
M  END
>  <CHROM.1>
11.40509516,11.41905015,6.47315828,0.13659088,-1.29001593,0.80756672

>  <Name>
ligand

>  <RI>
0

>  <Rbt.Current_Directory>
/home/itssahil/PROJECTS/Mol_Feturizer/New_Systems/rnas/2EEW

>  <Rbt.Executable>
rbdock ($Id: //depot/dev/client3/rdock/2013.1/src/exe/rbdock.cxx#4 $)

>  <Rbt.Library>
libRbt.so (2013.1, Build901 2013/11/27)

>  <Rbt.Parameter_File>
/export/apps/rDock/src/rDock_2013.1_src/data/scripts/dock_solv.prm

>  <Rbt.Receptor>
prm/blind_docking_20.prm

>  <SCORE>
-16.2619

>  <SCORE.INTER>
-16.2619

>  <SCORE.INTER.CONST>
1

>  <SCORE.INTER.POLAR>
0

>  <SCORE.INTER.ROT>
0

>  <SCORE.INTER.SOLV>
3.45167

>  <SCORE.INTER.VDW>
-15.5918

>  <SCORE.INTER.norm>
-1.62619

>  <SCORE.INTRA>
0

>  <SCORE.INTRA.DIHEDRAL>
0

>  <SCORE.INTRA.DIHEDRAL.0>
0

>  <SCORE.INTRA.POLAR>
0

>  <SCORE.INTRA.POLAR.0>
0

>  <SCORE.INTRA.REPUL>
0

>  <SCORE.INTRA.REPUL.0>
0

>  <SCORE.INTRA.SOLV>
0

>  <SCORE.INTRA.SOLV.lig_0>
-4.28901

>  <SCORE.INTRA.VDW>
0

>  <SCORE.INTRA.VDW.0>
0

>  <SCORE.INTRA.norm>
0

>  <SCORE.RESTR>
0

>  <SCORE.RESTR.CAVITY>
0

>  <SCORE.RESTR.norm>
0

>  <SCORE.SYSTEM>
0

>  <SCORE.SYSTEM.CONST>
0

>  <SCORE.SYSTEM.DIHEDRAL>
0

>  <SCORE.SYSTEM.SOLV>
0

>  <SCORE.SYSTEM.norm>
0

>  <SCORE.heavy>
10

>  <SCORE.norm>
-1.62619

>  <RMSD>
1.055

$$$$
ligand
 OpenBabel11021811423D
libRbt.so/2013.1/901 2013/11/27
 10 11  0  0  0  0  0  0  0  0999 V2000
   11.8925   10.7586    8.2341 N   0  0  0  0  0  0  0  0  0  0  0  0
   11.6736   12.0933    8.5216 C   0  0  0  0  0  0  0  0  0  0  0  0
   11.3007   12.9736    7.5826 N   0  0  0  0  0  0  0  0  0  0  0  0
   11.1690   12.4200    6.3492 C   0  0  0  0  0  0  0  0  0  0  0  0
   11.3724   11.0992    5.9913 C   0  0  0  0  0  0  0  0  0  0  0  0
   11.7679   10.1522    6.9800 C   0  0  0  0  0  0  0  0  0  0  0  0
   12.0013    8.9387    6.8854 O   0  0  0  0  0  0  0  0  0  0  0  0
   11.1303   10.9747    4.6509 N   0  0  0  0  0  0  0  0  0  0  0  0
   10.7823   12.2081    4.2064 C   0  0  0  0  0  0  0  0  0  0  0  0
   10.7975   13.1209    5.2294 N   0  0  0  0  0  0  0  0  0  0  0  0
  1  2  1  0  0  0  0
  1  6  1  0  0  0  0
  2  3  2  0  0  0  0
  3  4  1  0  0  0  0
  4  5  2  0  0  0  0
  4 10  1  0  0  0  0
  5  6  1  0  0  0  0
  5  8  1  0  0  0  0
  6  7  2  0  0  0  0
  8  9  1  0  0  0  0
  9 10  2  0  0  0  0
M  END
>  <CHROM.1>
11.40067485,11.42655298,6.47349360,0.12922617,-1.28923497,0.80427905

>  <Name>
ligand

>  <RI>
0

>  <Rbt.Current_Directory>
/home/itssahil/PROJECTS/Mol_Feturizer/New_Systems/rnas/2EEW

>  <Rbt.Executable>
rbdock ($Id: //depot/dev/client3/rdock/2013.1/src/exe/rbdock.cxx#4 $)

>  <Rbt.Library>
libRbt.so (2013.1, Build901 2013/11/27)

>  <Rbt.Parameter_File>
/export/apps/rDock/src/rDock_2013.1_src/data/scripts/dock_solv.prm

>  <Rbt.Receptor>
prm/blind_docking_20.prm

>  <SCORE>
-16.2617

>  <SCORE.INTER>
-16.2617

>  <SCORE.INTER.CONST>
1

>  <SCORE.INTER.POLAR>
0

>  <SCORE.INTER.ROT>
0

>  <SCORE.INTER.SOLV>
3.4564

>  <SCORE.INTER.VDW>
-15.5933

>  <SCORE.INTER.norm>
-1.62617

>  <SCORE.INTRA>
0

>  <SCORE.INTRA.DIHEDRAL>
0

>  <SCORE.INTRA.DIHEDRAL.0>
0

>  <SCORE.INTRA.POLAR>
0

>  <SCORE.INTRA.POLAR.0>
0

>  <SCORE.INTRA.REPUL>
0

>  <SCORE.INTRA.REPUL.0>
0

>  <SCORE.INTRA.SOLV>
0

>  <SCORE.INTRA.SOLV.lig_0>
-4.28901

>  <SCORE.INTRA.VDW>
0

>  <SCORE.INTRA.VDW.0>
0

>  <SCORE.INTRA.norm>
0

>  <SCORE.RESTR>
0

>  <SCORE.RESTR.CAVITY>
0

>  <SCORE.RESTR.norm>
0

>  <SCORE.SYSTEM>
0

>  <SCORE.SYSTEM.CONST>
0

>  <SCORE.SYSTEM.DIHEDRAL>
0

>  <SCORE.SYSTEM.SOLV>
0

>  <SCORE.SYSTEM.norm>
0

>  <SCORE.heavy>
10

>  <SCORE.norm>
-1.62617

>  <RMSD>
1.056

$$$$
ligand
 OpenBabel11021811423D
libRbt.so/2013.1/901 2013/11/27
 10 11  0  0  0  0  0  0  0  0999 V2000
   11.6713   11.4584    8.4770 N   0  0  0  0  0  0  0  0  0  0  0  0
   11.4427   12.8220    8.4577 C   0  0  0  0  0  0  0  0  0  0  0  0
   11.1449   13.4795    7.3287 N   0  0  0  0  0  0  0  0  0  0  0  0
   11.0976   12.6753    6.2350 C   0  0  0  0  0  0  0  0  0  0  0  0
   11.3160   11.3102    6.1817 C   0  0  0  0  0  0  0  0  0  0  0  0
   11.6322   10.5982    7.3750 C   0  0  0  0  0  0  0  0  0  0  0  0
   11.8624    9.3942    7.5576 O   0  0  0  0  0  0  0  0  0  0  0  0
   11.1696   10.9017    4.8846 N   0  0  0  0  0  0  0  0  0  0  0  0
   10.8640   12.0096    4.1642 C   0  0  0  0  0  0  0  0  0  0  0  0
   10.8129   13.1191    4.9681 N   0  0  0  0  0  0  0  0  0  0  0  0
  1  2  1  0  0  0  0
  1  6  1  0  0  0  0
  2  3  2  0  0  0  0
  3  4  1  0  0  0  0
  4  5  2  0  0  0  0
  4 10  1  0  0  0  0
  5  6  1  0  0  0  0
  5  8  1  0  0  0  0
  6  7  2  0  0  0  0
  8  9  1  0  0  0  0
  9 10  2  0  0  0  0
M  END
>  <CHROM.1>
11.31215849,11.73284098,6.58401654,0.33291602,-1.34001428,0.78683348

>  <Name>
ligand

>  <RI>
0

>  <Rbt.Current_Directory>
/home/itssahil/PROJECTS/Mol_Feturizer/New_Systems/rnas/2EEW

>  <Rbt.Executable>
rbdock ($Id: //depot/dev/client3/rdock/2013.1/src/exe/rbdock.cxx#4 $)

>  <Rbt.Library>
libRbt.so (2013.1, Build901 2013/11/27)

>  <Rbt.Parameter_File>
/export/apps/rDock/src/rDock_2013.1_src/data/scripts/dock_solv.prm

>  <Rbt.Receptor>
prm/pocket_docking_5.prm

>  <SCORE>
-17.0847

>  <SCORE.INTER>
-17.0847

>  <SCORE.INTER.CONST>
1

>  <SCORE.INTER.POLAR>
0

>  <SCORE.INTER.ROT>
0

>  <SCORE.INTER.SOLV>
3.43961

>  <SCORE.INTER.VDW>
-16.1364

>  <SCORE.INTER.norm>
-1.70847

>  <SCORE.INTRA>
0

>  <SCORE.INTRA.DIHEDRAL>
0

>  <SCORE.INTRA.DIHEDRAL.0>
0

>  <SCORE.INTRA.POLAR>
0

>  <SCORE.INTRA.POLAR.0>
0

>  <SCORE.INTRA.REPUL>
0

>  <SCORE.INTRA.REPUL.0>
0

>  <SCORE.INTRA.SOLV>
0

>  <SCORE.INTRA.SOLV.lig_0>
-4.28901

>  <SCORE.INTRA.VDW>
0

>  <SCORE.INTRA.VDW.0>
0

>  <SCORE.INTRA.norm>
0

>  <SCORE.RESTR>
0

>  <SCORE.RESTR.CAVITY>
0

>  <SCORE.RESTR.norm>
0

>  <SCORE.SYSTEM>
0

>  <SCORE.SYSTEM.CONST>
0

>  <SCORE.SYSTEM.DIHEDRAL>
0

>  <SCORE.SYSTEM.SOLV>
0

>  <SCORE.SYSTEM.norm>
0

>  <SCORE.heavy>
10

>  <SCORE.norm>
-1.70847

>  <RMSD>
1.056

$$$$
ligand
 OpenBabel11021811423D
libRbt.so/2013.1/901 2013/11/27
 10 11  0  0  0  0  0  0  0  0999 V2000
   11.4269   11.5818    8.6247 N   0  0  0  0  0  0  0  0  0  0  0  0
   11.0990   12.9194    8.5007 C   0  0  0  0  0  0  0  0  0  0  0  0
   10.8394   13.4831    7.3131 N   0  0  0  0  0  0  0  0  0  0  0  0
   10.9356   12.6144    6.2733 C   0  0  0  0  0  0  0  0  0  0  0  0
   11.2589   11.2701    6.3244 C   0  0  0  0  0  0  0  0  0  0  0  0
   11.5361   10.6574    7.5809 C   0  0  0  0  0  0  0  0  0  0  0  0
   11.8412    9.4885    7.8572 O   0  0  0  0  0  0  0  0  0  0  0  0
   11.2425   10.7751    5.0495 N   0  0  0  0  0  0  0  0  0  0  0  0
   10.9103   11.8106    4.2387 C   0  0  0  0  0  0  0  0  0  0  0  0
   10.7155   12.9582    4.9632 N   0  0  0  0  0  0  0  0  0  0  0  0
  1  2  1  0  0  0  0
  1  6  1  0  0  0  0
  2  3  2  0  0  0  0
  3  4  1  0  0  0  0
  4  5  2  0  0  0  0
  4 10  1  0  0  0  0
  5  6  1  0  0  0  0
  5  8  1  0  0  0  0
  6  7  2  0  0  0  0
  8  9  1  0  0  0  0
  9 10  2  0  0  0  0
M  END
>  <CHROM.1>
11.19296911,11.71420715,6.69716751,0.77226365,-1.31744627,1.15148018

>  <Name>
ligand

>  <RI>
0

>  <Rbt.Current_Directory>
/home/itssahil/PROJECTS/Mol_Feturizer/New_Systems/rnas/2EEW

>  <Rbt.Executable>
rbdock ($Id: //depot/dev/client3/rdock/2013.1/src/exe/rbdock.cxx#4 $)

>  <Rbt.Library>
libRbt.so (2013.1, Build901 2013/11/27)

>  <Rbt.Parameter_File>
/export/apps/rDock/src/rDock_2013.1_src/data/scripts/dock_solv.prm

>  <Rbt.Receptor>
prm/blind_docking_20.prm

>  <SCORE>
-16.277

>  <SCORE.INTER>
-16.277

>  <SCORE.INTER.CONST>
1

>  <SCORE.INTER.POLAR>
0

>  <SCORE.INTER.ROT>
0

>  <SCORE.INTER.SOLV>
3.43351

>  <SCORE.INTER.VDW>
-15.5958

>  <SCORE.INTER.norm>
-1.6277

>  <SCORE.INTRA>
0

>  <SCORE.INTRA.DIHEDRAL>
0

>  <SCORE.INTRA.DIHEDRAL.0>
0

>  <SCORE.INTRA.POLAR>
0

>  <SCORE.INTRA.POLAR.0>
0

>  <SCORE.INTRA.REPUL>
0

>  <SCORE.INTRA.REPUL.0>
0

>  <SCORE.INTRA.SOLV>
0

>  <SCORE.INTRA.SOLV.lig_0>
-4.28901

>  <SCORE.INTRA.VDW>
0

>  <SCORE.INTRA.VDW.0>
0

>  <SCORE.INTRA.norm>
0

>  <SCORE.RESTR>
0

>  <SCORE.RESTR.CAVITY>
0

>  <SCORE.RESTR.norm>
0

>  <SCORE.SYSTEM>
0

>  <SCORE.SYSTEM.CONST>
0

>  <SCORE.SYSTEM.DIHEDRAL>
0

>  <SCORE.SYSTEM.SOLV>
0

>  <SCORE.SYSTEM.norm>
0

>  <SCORE.heavy>
10

>  <SCORE.norm>
-1.6277

>  <RMSD>
1.057

$$$$
ligand
 OpenBabel11021811423D
libRbt.so/2013.1/901 2013/11/27
 10 11  0  0  0  0  0  0  0  0999 V2000
   11.4195   11.5621    8.6190 N   0  0  0  0  0  0  0  0  0  0  0  0
   11.1416   12.9114    8.5001 C   0  0  0  0  0  0  0  0  0  0  0  0
   10.9001   13.4883    7.3150 N   0  0  0  0  0  0  0  0  0  0  0  0
   10.9609   12.6200    6.2723 C   0  0  0  0  0  0  0  0  0  0  0  0
   11.2338   11.2644    6.3183 C   0  0  0  0  0  0  0  0  0  0  0  0
   11.4912   10.6377    7.5720 C   0  0  0  0  0  0  0  0  0  0  0  0
   11.7531    9.4572    7.8438 O   0  0  0  0  0  0  0  0  0  0  0  0
   11.1954   10.7745    5.0418 N   0  0  0  0  0  0  0  0  0  0  0  0
   10.9000   11.8244    4.2352 C   0  0  0  0  0  0  0  0  0  0  0  0
   10.7503   12.9761    4.9639 N   0  0  0  0  0  0  0  0  0  0  0  0
  1  2  1  0  0  0  0
  1  6  1  0  0  0  0
  2  3  2  0  0  0  0
  3  4  1  0  0  0  0
  4  5  2  0  0  0  0
  4 10  1  0  0  0  0
  5  6  1  0  0  0  0
  5  8  1  0  0  0  0
  6  7  2  0  0  0  0
  8  9  1  0  0  0  0
  9 10  2  0  0  0  0
M  END
>  <CHROM.1>
11.18549734,11.70944308,6.69256075,0.69139366,-1.34985864,1.07606192

>  <Name>
ligand

>  <RI>
0

>  <Rbt.Current_Directory>
/home/itssahil/PROJECTS/Mol_Feturizer/New_Systems/rnas/2EEW

>  <Rbt.Executable>
rbdock ($Id: //depot/dev/client3/rdock/2013.1/src/exe/rbdock.cxx#4 $)

>  <Rbt.Library>
libRbt.so (2013.1, Build901 2013/11/27)

>  <Rbt.Parameter_File>
/export/apps/rDock/src/rDock_2013.1_src/data/scripts/dock_solv.prm

>  <Rbt.Receptor>
prm/blind_docking_20.prm

>  <SCORE>
-16.4071

>  <SCORE.INTER>
-16.4488

>  <SCORE.INTER.CONST>
1

>  <SCORE.INTER.POLAR>
0

>  <SCORE.INTER.ROT>
0

>  <SCORE.INTER.SOLV>
3.56145

>  <SCORE.INTER.VDW>
-15.753

>  <SCORE.INTER.norm>
-1.64488

>  <SCORE.INTRA>
0

>  <SCORE.INTRA.DIHEDRAL>
0

>  <SCORE.INTRA.DIHEDRAL.0>
0

>  <SCORE.INTRA.POLAR>
0

>  <SCORE.INTRA.POLAR.0>
0

>  <SCORE.INTRA.REPUL>
0

>  <SCORE.INTRA.REPUL.0>
0

>  <SCORE.INTRA.SOLV>
0

>  <SCORE.INTRA.SOLV.lig_0>
-4.28901

>  <SCORE.INTRA.VDW>
0

>  <SCORE.INTRA.VDW.0>
0

>  <SCORE.INTRA.norm>
0

>  <SCORE.RESTR>
0.0416437

>  <SCORE.RESTR.CAVITY>
0.0416437

>  <SCORE.RESTR.norm>
0.00416437

>  <SCORE.SYSTEM>
0

>  <SCORE.SYSTEM.CONST>
0

>  <SCORE.SYSTEM.DIHEDRAL>
0

>  <SCORE.SYSTEM.SOLV>
0

>  <SCORE.SYSTEM.norm>
0

>  <SCORE.heavy>
10

>  <SCORE.norm>
-1.64071

>  <RMSD>
1.058

$$$$
ligand
 OpenBabel11021811423D
libRbt.so/2013.1/901 2013/11/27
 10 11  0  0  0  0  0  0  0  0999 V2000
   11.4407   11.5834    8.6201 N   0  0  0  0  0  0  0  0  0  0  0  0
   11.1197   12.9226    8.4966 C   0  0  0  0  0  0  0  0  0  0  0  0
   10.8499   13.4852    7.3107 N   0  0  0  0  0  0  0  0  0  0  0  0
   10.9287   12.6134    6.2720 C   0  0  0  0  0  0  0  0  0  0  0  0
   11.2443   11.2673    6.3227 C   0  0  0  0  0  0  0  0  0  0  0  0
   11.5321   10.6559    7.5773 C   0  0  0  0  0  0  0  0  0  0  0  0
   11.8332    9.4857    7.8529 O   0  0  0  0  0  0  0  0  0  0  0  0
   11.2100   10.7694    5.0492 N   0  0  0  0  0  0  0  0  0  0  0  0
   10.8750   11.8051    4.2398 C   0  0  0  0  0  0  0  0  0  0  0  0
   10.6956   12.9556    4.9637 N   0  0  0  0  0  0  0  0  0  0  0  0
  1  2  1  0  0  0  0
  1  6  1  0  0  0  0
  2  3  2  0  0  0  0
  3  4  1  0  0  0  0
  4  5  2  0  0  0  0
  4 10  1  0  0  0  0
  5  6  1  0  0  0  0
  5  8  1  0  0  0  0
  6  7  2  0  0  0  0
  8  9  1  0  0  0  0
  9 10  2  0  0  0  0
M  END
>  <CHROM.1>
11.18537659,11.71266848,6.69504873,0.71998973,-1.31805886,1.09848862

>  <Name>
ligand

>  <RI>
0

>  <Rbt.Current_Directory>
/home/itssahil/PROJECTS/Mol_Feturizer/New_Systems/rnas/2EEW

>  <Rbt.Executable>
rbdock ($Id: //depot/dev/client3/rdock/2013.1/src/exe/rbdock.cxx#4 $)

>  <Rbt.Library>
libRbt.so (2013.1, Build901 2013/11/27)

>  <Rbt.Parameter_File>
/export/apps/rDock/src/rDock_2013.1_src/data/scripts/dock_solv.prm

>  <Rbt.Receptor>
prm/blind_docking_20.prm

>  <SCORE>
-16.3494

>  <SCORE.INTER>
-16.3691

>  <SCORE.INTER.CONST>
1

>  <SCORE.INTER.POLAR>
0

>  <SCORE.INTER.ROT>
0

>  <SCORE.INTER.SOLV>
3.43581

>  <SCORE.INTER.VDW>
-15.658

>  <SCORE.INTER.norm>
-1.63691

>  <SCORE.INTRA>
0

>  <SCORE.INTRA.DIHEDRAL>
0

>  <SCORE.INTRA.DIHEDRAL.0>
0

>  <SCORE.INTRA.POLAR>
0

>  <SCORE.INTRA.POLAR.0>
0

>  <SCORE.INTRA.REPUL>
0

>  <SCORE.INTRA.REPUL.0>
0

>  <SCORE.INTRA.SOLV>
0

>  <SCORE.INTRA.SOLV.lig_0>
-4.28901

>  <SCORE.INTRA.VDW>
0

>  <SCORE.INTRA.VDW.0>
0

>  <SCORE.INTRA.norm>
0

>  <SCORE.RESTR>
0.0196777

>  <SCORE.RESTR.CAVITY>
0.0196777

>  <SCORE.RESTR.norm>
0.00196777

>  <SCORE.SYSTEM>
0

>  <SCORE.SYSTEM.CONST>
0

>  <SCORE.SYSTEM.DIHEDRAL>
0

>  <SCORE.SYSTEM.SOLV>
0

>  <SCORE.SYSTEM.norm>
0

>  <SCORE.heavy>
10

>  <SCORE.norm>
-1.63494

>  <RMSD>
1.058

$$$$
ligand
 OpenBabel11021811423D
libRbt.so/2013.1/901 2013/11/27
 10 11  0  0  0  0  0  0  0  0999 V2000
   11.8808   10.7567    8.2366 N   0  0  0  0  0  0  0  0  0  0  0  0
   11.6692   12.0936    8.5190 C   0  0  0  0  0  0  0  0  0  0  0  0
   11.3015   12.9724    7.5765 N   0  0  0  0  0  0  0  0  0  0  0  0
   11.1672   12.4149    6.3452 C   0  0  0  0  0  0  0  0  0  0  0  0
   11.3635   11.0916    5.9924 C   0  0  0  0  0  0  0  0  0  0  0  0
   11.7534   10.1462    6.9848 C   0  0  0  0  0  0  0  0  0  0  0  0
   11.9802    8.9311    6.8950 O   0  0  0  0  0  0  0  0  0  0  0  0
   11.1213   10.9634    4.6523 N   0  0  0  0  0  0  0  0  0  0  0  0
   10.7803   12.1970    4.2030 C   0  0  0  0  0  0  0  0  0  0  0  0
   10.8001   13.1135    5.2225 N   0  0  0  0  0  0  0  0  0  0  0  0
  1  2  1  0  0  0  0
  1  6  1  0  0  0  0
  2  3  2  0  0  0  0
  3  4  1  0  0  0  0
  4  5  2  0  0  0  0
  4 10  1  0  0  0  0
  5  6  1  0  0  0  0
  5  8  1  0  0  0  0
  6  7  2  0  0  0  0
  8  9  1  0  0  0  0
  9 10  2  0  0  0  0
M  END
>  <CHROM.1>
11.39343260,11.42064156,6.47332072,0.11640160,-1.29344306,0.78814638

>  <Name>
ligand

>  <RI>
0

>  <Rbt.Current_Directory>
/home/itssahil/PROJECTS/Mol_Feturizer/New_Systems/rnas/2EEW

>  <Rbt.Executable>
rbdock ($Id: //depot/dev/client3/rdock/2013.1/src/exe/rbdock.cxx#4 $)

>  <Rbt.Library>
libRbt.so (2013.1, Build901 2013/11/27)

>  <Rbt.Parameter_File>
/export/apps/rDock/src/rDock_2013.1_src/data/scripts/dock_solv.prm

>  <Rbt.Receptor>
prm/blind_docking_20.prm

>  <SCORE>
-16.2656

>  <SCORE.INTER>
-16.2656

>  <SCORE.INTER.CONST>
1

>  <SCORE.INTER.POLAR>
0

>  <SCORE.INTER.ROT>
0

>  <SCORE.INTER.SOLV>
3.47813

>  <SCORE.INTER.VDW>
-15.6031

>  <SCORE.INTER.norm>
-1.62656

>  <SCORE.INTRA>
0

>  <SCORE.INTRA.DIHEDRAL>
0

>  <SCORE.INTRA.DIHEDRAL.0>
0

>  <SCORE.INTRA.POLAR>
0

>  <SCORE.INTRA.POLAR.0>
0

>  <SCORE.INTRA.REPUL>
0

>  <SCORE.INTRA.REPUL.0>
0

>  <SCORE.INTRA.SOLV>
0

>  <SCORE.INTRA.SOLV.lig_0>
-4.28901

>  <SCORE.INTRA.VDW>
0

>  <SCORE.INTRA.VDW.0>
0

>  <SCORE.INTRA.norm>
0

>  <SCORE.RESTR>
0

>  <SCORE.RESTR.CAVITY>
0

>  <SCORE.RESTR.norm>
0

>  <SCORE.SYSTEM>
0

>  <SCORE.SYSTEM.CONST>
0

>  <SCORE.SYSTEM.DIHEDRAL>
0

>  <SCORE.SYSTEM.SOLV>
0

>  <SCORE.SYSTEM.norm>
0

>  <SCORE.heavy>
10

>  <SCORE.norm>
-1.62656

>  <RMSD>
1.058

$$$$
ligand
 OpenBabel11021811423D
libRbt.so/2013.1/901 2013/11/27
 10 11  0  0  0  0  0  0  0  0999 V2000
   11.8913   10.7579    8.2359 N   0  0  0  0  0  0  0  0  0  0  0  0
   11.6807   12.0960    8.5132 C   0  0  0  0  0  0  0  0  0  0  0  0
   11.3116   12.9710    7.5679 N   0  0  0  0  0  0  0  0  0  0  0  0
   11.1747   12.4086    6.3390 C   0  0  0  0  0  0  0  0  0  0  0  0
   11.3698   11.0838    5.9912 C   0  0  0  0  0  0  0  0  0  0  0  0
   11.7612   10.1423    6.9868 C   0  0  0  0  0  0  0  0  0  0  0  0
   11.9873    8.9267    6.9015 O   0  0  0  0  0  0  0  0  0  0  0  0
   11.1249   10.9502    4.6522 N   0  0  0  0  0  0  0  0  0  0  0  0
   10.7835   12.1821    4.1985 C   0  0  0  0  0  0  0  0  0  0  0  0
   10.8057   13.1028    5.2143 N   0  0  0  0  0  0  0  0  0  0  0  0
  1  2  1  0  0  0  0
  1  6  1  0  0  0  0
  2  3  2  0  0  0  0
  3  4  1  0  0  0  0
  4  5  2  0  0  0  0
  4 10  1  0  0  0  0
  5  6  1  0  0  0  0
  5  8  1  0  0  0  0
  6  7  2  0  0  0  0
  8  9  1  0  0  0  0
  9 10  2  0  0  0  0
M  END
>  <CHROM.1>
11.40074537,11.41477869,6.47081119,0.11039892,-1.29237045,0.77830319

>  <Name>
ligand

>  <RI>
0

>  <Rbt.Current_Directory>
/home/itssahil/PROJECTS/Mol_Feturizer/New_Systems/rnas/2EEW

>  <Rbt.Executable>
rbdock ($Id: //depot/dev/client3/rdock/2013.1/src/exe/rbdock.cxx#4 $)

>  <Rbt.Library>
libRbt.so (2013.1, Build901 2013/11/27)

>  <Rbt.Parameter_File>
/export/apps/rDock/src/rDock_2013.1_src/data/scripts/dock_solv.prm

>  <Rbt.Receptor>
prm/blind_docking_20.prm

>  <SCORE>
-16.2694

>  <SCORE.INTER>
-16.2697

>  <SCORE.INTER.CONST>
1

>  <SCORE.INTER.POLAR>
0

>  <SCORE.INTER.ROT>
0

>  <SCORE.INTER.SOLV>
3.47145

>  <SCORE.INTER.VDW>
-15.6036

>  <SCORE.INTER.norm>
-1.62697

>  <SCORE.INTRA>
0

>  <SCORE.INTRA.DIHEDRAL>
0

>  <SCORE.INTRA.DIHEDRAL.0>
0

>  <SCORE.INTRA.POLAR>
0

>  <SCORE.INTRA.POLAR.0>
0

>  <SCORE.INTRA.REPUL>
0

>  <SCORE.INTRA.REPUL.0>
0

>  <SCORE.INTRA.SOLV>
0

>  <SCORE.INTRA.SOLV.lig_0>
-4.28901

>  <SCORE.INTRA.VDW>
0

>  <SCORE.INTRA.VDW.0>
0

>  <SCORE.INTRA.norm>
0

>  <SCORE.RESTR>
0.000226488

>  <SCORE.RESTR.CAVITY>
0.000226488

>  <SCORE.RESTR.norm>
2.26488e-05

>  <SCORE.SYSTEM>
0

>  <SCORE.SYSTEM.CONST>
0

>  <SCORE.SYSTEM.DIHEDRAL>
0

>  <SCORE.SYSTEM.SOLV>
0

>  <SCORE.SYSTEM.norm>
0

>  <SCORE.heavy>
10

>  <SCORE.norm>
-1.62694

>  <RMSD>
1.059

$$$$
ligand
 OpenBabel11021811423D
libRbt.so/2013.1/901 2013/11/27
 10 11  0  0  0  0  0  0  0  0999 V2000
   11.8905   10.7566    8.2345 N   0  0  0  0  0  0  0  0  0  0  0  0
   11.6805   12.0942    8.5149 C   0  0  0  0  0  0  0  0  0  0  0  0
   11.3119   12.9716    7.5715 N   0  0  0  0  0  0  0  0  0  0  0  0
   11.1750   12.4120    6.3413 C   0  0  0  0  0  0  0  0  0  0  0  0
   11.3696   11.0879    5.9905 C   0  0  0  0  0  0  0  0  0  0  0  0
   11.7604   10.1440    6.9841 C   0  0  0  0  0  0  0  0  0  0  0  0
   11.9860    8.9285    6.8960 O   0  0  0  0  0  0  0  0  0  0  0  0
   11.1250   10.9575    4.6512 N   0  0  0  0  0  0  0  0  0  0  0  0
   10.7842   12.1906    4.2002 C   0  0  0  0  0  0  0  0  0  0  0  0
   10.8066   13.1089    5.2181 N   0  0  0  0  0  0  0  0  0  0  0  0
  1  2  1  0  0  0  0
  1  6  1  0  0  0  0
  2  3  2  0  0  0  0
  3  4  1  0  0  0  0
  4  5  2  0  0  0  0
  4 10  1  0  0  0  0
  5  6  1  0  0  0  0
  5  8  1  0  0  0  0
  6  7  2  0  0  0  0
  8  9  1  0  0  0  0
  9 10  2  0  0  0  0
M  END
>  <CHROM.1>
11.40063266,11.41779803,6.47087198,0.10975607,-1.29282009,0.77996134

>  <Name>
ligand

>  <RI>
0

>  <Rbt.Current_Directory>
/home/itssahil/PROJECTS/Mol_Feturizer/New_Systems/rnas/2EEW

>  <Rbt.Executable>
rbdock ($Id: //depot/dev/client3/rdock/2013.1/src/exe/rbdock.cxx#4 $)

>  <Rbt.Library>
libRbt.so (2013.1, Build901 2013/11/27)

>  <Rbt.Parameter_File>
/export/apps/rDock/src/rDock_2013.1_src/data/scripts/dock_solv.prm

>  <Rbt.Receptor>
prm/blind_docking_20.prm

>  <SCORE>
-16.2674

>  <SCORE.INTER>
-16.2674

>  <SCORE.INTER.CONST>
1

>  <SCORE.INTER.POLAR>
0

>  <SCORE.INTER.ROT>
0

>  <SCORE.INTER.SOLV>
3.47486

>  <SCORE.INTER.VDW>
-15.6032

>  <SCORE.INTER.norm>
-1.62674

>  <SCORE.INTRA>
0

>  <SCORE.INTRA.DIHEDRAL>
0

>  <SCORE.INTRA.DIHEDRAL.0>
0

>  <SCORE.INTRA.POLAR>
0

>  <SCORE.INTRA.POLAR.0>
0

>  <SCORE.INTRA.REPUL>
0

>  <SCORE.INTRA.REPUL.0>
0

>  <SCORE.INTRA.SOLV>
0

>  <SCORE.INTRA.SOLV.lig_0>
-4.28901

>  <SCORE.INTRA.VDW>
0

>  <SCORE.INTRA.VDW.0>
0

>  <SCORE.INTRA.norm>
0

>  <SCORE.RESTR>
0

>  <SCORE.RESTR.CAVITY>
0

>  <SCORE.RESTR.norm>
0

>  <SCORE.SYSTEM>
0

>  <SCORE.SYSTEM.CONST>
0

>  <SCORE.SYSTEM.DIHEDRAL>
0

>  <SCORE.SYSTEM.SOLV>
0

>  <SCORE.SYSTEM.norm>
0

>  <SCORE.heavy>
10

>  <SCORE.norm>
-1.62674

>  <RMSD>
1.059

$$$$
ligand
 OpenBabel11021811423D
libRbt.so/2013.1/901 2013/11/27
 10 11  0  0  0  0  0  0  0  0999 V2000
   11.4486   11.5989    8.6133 N   0  0  0  0  0  0  0  0  0  0  0  0
   11.1017   12.9323    8.4968 C   0  0  0  0  0  0  0  0  0  0  0  0
   10.8324   13.4986    7.3126 N   0  0  0  0  0  0  0  0  0  0  0  0
   10.9393   12.6367    6.2681 C   0  0  0  0  0  0  0  0  0  0  0  0
   11.2817   11.2969    6.3117 C   0  0  0  0  0  0  0  0  0  0  0  0
   11.5693   10.6817    7.5645 C   0  0  0  0  0  0  0  0  0  0  0  0
   11.8914    9.5157    7.8343 O   0  0  0  0  0  0  0  0  0  0  0  0
   11.2703   10.8085    5.0342 N   0  0  0  0  0  0  0  0  0  0  0  0
   10.9224   11.8434    4.2294 C   0  0  0  0  0  0  0  0  0  0  0  0
   10.7124   12.9843    4.9602 N   0  0  0  0  0  0  0  0  0  0  0  0
  1  2  1  0  0  0  0
  1  6  1  0  0  0  0
  2  3  2  0  0  0  0
  3  4  1  0  0  0  0
  4  5  2  0  0  0  0
  4 10  1  0  0  0  0
  5  6  1  0  0  0  0
  5  8  1  0  0  0  0
  6  7  2  0  0  0  0
  8  9  1  0  0  0  0
  9 10  2  0  0  0  0
M  END
>  <CHROM.1>
11.21000386,11.73810338,6.68688093,0.78895854,-1.30387605,1.17287846

>  <Name>
ligand

>  <RI>
0

>  <Rbt.Current_Directory>
/home/itssahil/PROJECTS/Mol_Feturizer/New_Systems/rnas/2EEW

>  <Rbt.Executable>
rbdock ($Id: //depot/dev/client3/rdock/2013.1/src/exe/rbdock.cxx#4 $)

>  <Rbt.Library>
libRbt.so (2013.1, Build901 2013/11/27)

>  <Rbt.Parameter_File>
/export/apps/rDock/src/rDock_2013.1_src/data/scripts/dock_solv.prm

>  <Rbt.Receptor>
prm/blind_docking_20.prm

>  <SCORE>
-16.2689

>  <SCORE.INTER>
-16.2706

>  <SCORE.INTER.CONST>
1

>  <SCORE.INTER.POLAR>
0

>  <SCORE.INTER.ROT>
0

>  <SCORE.INTER.SOLV>
3.36798

>  <SCORE.INTER.VDW>
-15.5697

>  <SCORE.INTER.norm>
-1.62706

>  <SCORE.INTRA>
0

>  <SCORE.INTRA.DIHEDRAL>
0

>  <SCORE.INTRA.DIHEDRAL.0>
0

>  <SCORE.INTRA.POLAR>
0

>  <SCORE.INTRA.POLAR.0>
0

>  <SCORE.INTRA.REPUL>
0

>  <SCORE.INTRA.REPUL.0>
0

>  <SCORE.INTRA.SOLV>
0

>  <SCORE.INTRA.SOLV.lig_0>
-4.28901

>  <SCORE.INTRA.VDW>
0

>  <SCORE.INTRA.VDW.0>
0

>  <SCORE.INTRA.norm>
0

>  <SCORE.RESTR>
0.00165417

>  <SCORE.RESTR.CAVITY>
0.00165417

>  <SCORE.RESTR.norm>
0.000165417

>  <SCORE.SYSTEM>
0

>  <SCORE.SYSTEM.CONST>
0

>  <SCORE.SYSTEM.DIHEDRAL>
0

>  <SCORE.SYSTEM.SOLV>
0

>  <SCORE.SYSTEM.norm>
0

>  <SCORE.heavy>
10

>  <SCORE.norm>
-1.62689

>  <RMSD>
1.061

$$$$
ligand
 OpenBabel11021811423D
libRbt.so/2013.1/901 2013/11/27
 10 11  0  0  0  0  0  0  0  0999 V2000
   11.4038   11.5658    8.6239 N   0  0  0  0  0  0  0  0  0  0  0  0
   11.0986   12.9089    8.5022 C   0  0  0  0  0  0  0  0  0  0  0  0
   10.8526   13.4799    7.3152 N   0  0  0  0  0  0  0  0  0  0  0  0
   10.9379   12.6122    6.2735 C   0  0  0  0  0  0  0  0  0  0  0  0
   11.2386   11.2627    6.3223 C   0  0  0  0  0  0  0  0  0  0  0  0
   11.5012   10.6423    7.5781 C   0  0  0  0  0  0  0  0  0  0  0  0
   11.7859    9.4677    7.8525 O   0  0  0  0  0  0  0  0  0  0  0  0
   11.2183   10.7713    5.0460 N   0  0  0  0  0  0  0  0  0  0  0  0
   10.9063   11.8142    4.2368 C   0  0  0  0  0  0  0  0  0  0  0  0
   10.7280   12.9630    4.9636 N   0  0  0  0  0  0  0  0  0  0  0  0
  1  2  1  0  0  0  0
  1  6  1  0  0  0  0
  2  3  2  0  0  0  0
  3  4  1  0  0  0  0
  4  5  2  0  0  0  0
  4 10  1  0  0  0  0
  5  6  1  0  0  0  0
  5  8  1  0  0  0  0
  6  7  2  0  0  0  0
  8  9  1  0  0  0  0
  9 10  2  0  0  0  0
M  END
>  <CHROM.1>
11.17877561,11.70688365,6.69594779,0.75682877,-1.33401017,1.13904948

>  <Name>
ligand

>  <RI>
0

>  <Rbt.Current_Directory>
/home/itssahil/PROJECTS/Mol_Feturizer/New_Systems/rnas/2EEW

>  <Rbt.Executable>
rbdock ($Id: //depot/dev/client3/rdock/2013.1/src/exe/rbdock.cxx#4 $)

>  <Rbt.Library>
libRbt.so (2013.1, Build901 2013/11/27)

>  <Rbt.Parameter_File>
/export/apps/rDock/src/rDock_2013.1_src/data/scripts/dock_solv.prm

>  <Rbt.Receptor>
prm/blind_docking_20.prm

>  <SCORE>
-16.314

>  <SCORE.INTER>
-16.3145

>  <SCORE.INTER.CONST>
1

>  <SCORE.INTER.POLAR>
0

>  <SCORE.INTER.ROT>
0

>  <SCORE.INTER.SOLV>
3.50606

>  <SCORE.INTER.VDW>
-15.645

>  <SCORE.INTER.norm>
-1.63145

>  <SCORE.INTRA>
0

>  <SCORE.INTRA.DIHEDRAL>
0

>  <SCORE.INTRA.DIHEDRAL.0>
0

>  <SCORE.INTRA.POLAR>
0

>  <SCORE.INTRA.POLAR.0>
0

>  <SCORE.INTRA.REPUL>
0

>  <SCORE.INTRA.REPUL.0>
0

>  <SCORE.INTRA.SOLV>
0

>  <SCORE.INTRA.SOLV.lig_0>
-4.28901

>  <SCORE.INTRA.VDW>
0

>  <SCORE.INTRA.VDW.0>
0

>  <SCORE.INTRA.norm>
0

>  <SCORE.RESTR>
0.000550669

>  <SCORE.RESTR.CAVITY>
0.000550669

>  <SCORE.RESTR.norm>
5.50669e-05

>  <SCORE.SYSTEM>
0

>  <SCORE.SYSTEM.CONST>
0

>  <SCORE.SYSTEM.DIHEDRAL>
0

>  <SCORE.SYSTEM.SOLV>
0

>  <SCORE.SYSTEM.norm>
0

>  <SCORE.heavy>
10

>  <SCORE.norm>
-1.6314

>  <RMSD>
1.061

$$$$
ligand
 OpenBabel11021811423D
libRbt.so/2013.1/901 2013/11/27
 10 11  0  0  0  0  0  0  0  0999 V2000
   11.8794   10.7667    8.2227 N   0  0  0  0  0  0  0  0  0  0  0  0
   11.6362   12.0955    8.5179 C   0  0  0  0  0  0  0  0  0  0  0  0
   11.2561   12.9762    7.5823 N   0  0  0  0  0  0  0  0  0  0  0  0
   11.1431   12.4294    6.3440 C   0  0  0  0  0  0  0  0  0  0  0  0
   11.3712   11.1147    5.9784 C   0  0  0  0  0  0  0  0  0  0  0  0
   11.7746   10.1673    6.9635 C   0  0  0  0  0  0  0  0  0  0  0  0
   12.0289    8.9585    6.8622 O   0  0  0  0  0  0  0  0  0  0  0  0
   11.1416   10.9958    4.6353 N   0  0  0  0  0  0  0  0  0  0  0  0
   10.7766   12.2265    4.1967 C   0  0  0  0  0  0  0  0  0  0  0  0
   10.7688   13.1320    5.2262 N   0  0  0  0  0  0  0  0  0  0  0  0
  1  2  1  0  0  0  0
  1  6  1  0  0  0  0
  2  3  2  0  0  0  0
  3  4  1  0  0  0  0
  4  5  2  0  0  0  0
  4 10  1  0  0  0  0
  5  6  1  0  0  0  0
  5  8  1  0  0  0  0
  6  7  2  0  0  0  0
  8  9  1  0  0  0  0
  9 10  2  0  0  0  0
M  END
>  <CHROM.1>
11.39028275,11.43900004,6.46308523,0.18932836,-1.28217656,0.86905468

>  <Name>
ligand

>  <RI>
0

>  <Rbt.Current_Directory>
/home/itssahil/PROJECTS/Mol_Feturizer/New_Systems/rnas/2EEW

>  <Rbt.Executable>
rbdock ($Id: //depot/dev/client3/rdock/2013.1/src/exe/rbdock.cxx#4 $)

>  <Rbt.Library>
libRbt.so (2013.1, Build901 2013/11/27)

>  <Rbt.Parameter_File>
/export/apps/rDock/src/rDock_2013.1_src/data/scripts/dock_solv.prm

>  <Rbt.Receptor>
prm/blind_docking_20.prm

>  <SCORE>
-16.2586

>  <SCORE.INTER>
-16.2586

>  <SCORE.INTER.CONST>
1

>  <SCORE.INTER.POLAR>
0

>  <SCORE.INTER.ROT>
0

>  <SCORE.INTER.SOLV>
3.42802

>  <SCORE.INTER.VDW>
-15.5817

>  <SCORE.INTER.norm>
-1.62586

>  <SCORE.INTRA>
0

>  <SCORE.INTRA.DIHEDRAL>
0

>  <SCORE.INTRA.DIHEDRAL.0>
0

>  <SCORE.INTRA.POLAR>
0

>  <SCORE.INTRA.POLAR.0>
0

>  <SCORE.INTRA.REPUL>
0

>  <SCORE.INTRA.REPUL.0>
0

>  <SCORE.INTRA.SOLV>
0

>  <SCORE.INTRA.SOLV.lig_0>
-4.28901

>  <SCORE.INTRA.VDW>
0

>  <SCORE.INTRA.VDW.0>
0

>  <SCORE.INTRA.norm>
0

>  <SCORE.RESTR>
0

>  <SCORE.RESTR.CAVITY>
0

>  <SCORE.RESTR.norm>
0

>  <SCORE.SYSTEM>
0

>  <SCORE.SYSTEM.CONST>
0

>  <SCORE.SYSTEM.DIHEDRAL>
0

>  <SCORE.SYSTEM.SOLV>
0

>  <SCORE.SYSTEM.norm>
0

>  <SCORE.heavy>
10

>  <SCORE.norm>
-1.62586

>  <RMSD>
1.066

$$$$
ligand
 OpenBabel11021811423D
libRbt.so/2013.1/901 2013/11/27
 10 11  0  0  0  0  0  0  0  0999 V2000
   11.3929   11.5666    8.6236 N   0  0  0  0  0  0  0  0  0  0  0  0
   11.1057   12.9130    8.4947 C   0  0  0  0  0  0  0  0  0  0  0  0
   10.8752   13.4825    7.3038 N   0  0  0  0  0  0  0  0  0  0  0  0
   10.9567   12.6097    6.2661 C   0  0  0  0  0  0  0  0  0  0  0  0
   11.2398   11.2566    6.3221 C   0  0  0  0  0  0  0  0  0  0  0  0
   11.4857   10.6379    7.5821 C   0  0  0  0  0  0  0  0  0  0  0  0
   11.7535    9.4609    7.8629 O   0  0  0  0  0  0  0  0  0  0  0  0
   11.2220   10.7605    5.0476 N   0  0  0  0  0  0  0  0  0  0  0  0
   10.9289   11.8042    4.2323 C   0  0  0  0  0  0  0  0  0  0  0  0
   10.7604   12.9581    4.9534 N   0  0  0  0  0  0  0  0  0  0  0  0
  1  2  1  0  0  0  0
  1  6  1  0  0  0  0
  2  3  2  0  0  0  0
  3  4  1  0  0  0  0
  4  5  2  0  0  0  0
  4 10  1  0  0  0  0
  5  6  1  0  0  0  0
  5  8  1  0  0  0  0
  6  7  2  0  0  0  0
  8  9  1  0  0  0  0
  9 10  2  0  0  0  0
M  END
>  <CHROM.1>
11.18301840,11.70303265,6.69364273,0.76109014,-1.34851409,1.13933846

>  <Name>
ligand

>  <RI>
0

>  <Rbt.Current_Directory>
/home/itssahil/PROJECTS/Mol_Feturizer/New_Systems/rnas/2EEW

>  <Rbt.Executable>
rbdock ($Id: //depot/dev/client3/rdock/2013.1/src/exe/rbdock.cxx#4 $)

>  <Rbt.Library>
libRbt.so (2013.1, Build901 2013/11/27)

>  <Rbt.Parameter_File>
/export/apps/rDock/src/rDock_2013.1_src/data/scripts/dock_solv.prm

>  <Rbt.Receptor>
prm/blind_docking_20.prm

>  <SCORE>
-16.2823

>  <SCORE.INTER>
-16.288

>  <SCORE.INTER.CONST>
1

>  <SCORE.INTER.POLAR>
0

>  <SCORE.INTER.ROT>
0

>  <SCORE.INTER.SOLV>
3.5672

>  <SCORE.INTER.VDW>
-15.6478

>  <SCORE.INTER.norm>
-1.6288

>  <SCORE.INTRA>
0

>  <SCORE.INTRA.DIHEDRAL>
0

>  <SCORE.INTRA.DIHEDRAL.0>
0

>  <SCORE.INTRA.POLAR>
0

>  <SCORE.INTRA.POLAR.0>
0

>  <SCORE.INTRA.REPUL>
0

>  <SCORE.INTRA.REPUL.0>
0

>  <SCORE.INTRA.SOLV>
0

>  <SCORE.INTRA.SOLV.lig_0>
-4.28901

>  <SCORE.INTRA.VDW>
0

>  <SCORE.INTRA.VDW.0>
0

>  <SCORE.INTRA.norm>
0

>  <SCORE.RESTR>
0.00573319

>  <SCORE.RESTR.CAVITY>
0.00573319

>  <SCORE.RESTR.norm>
0.000573319

>  <SCORE.SYSTEM>
0

>  <SCORE.SYSTEM.CONST>
0

>  <SCORE.SYSTEM.DIHEDRAL>
0

>  <SCORE.SYSTEM.SOLV>
0

>  <SCORE.SYSTEM.norm>
0

>  <SCORE.heavy>
10

>  <SCORE.norm>
-1.62823

>  <RMSD>
1.066

$$$$
ligand
 OpenBabel11021811423D
libRbt.so/2013.1/901 2013/11/27
 10 11  0  0  0  0  0  0  0  0999 V2000
   11.8938   10.7610    8.2270 N   0  0  0  0  0  0  0  0  0  0  0  0
   11.6756   12.0983    8.5029 C   0  0  0  0  0  0  0  0  0  0  0  0
   11.3004   12.9699    7.5569 N   0  0  0  0  0  0  0  0  0  0  0  0
   11.1655   12.4052    6.3289 C   0  0  0  0  0  0  0  0  0  0  0  0
   11.3680   11.0811    5.9825 C   0  0  0  0  0  0  0  0  0  0  0  0
   11.7660   10.1432    6.9788 C   0  0  0  0  0  0  0  0  0  0  0  0
   11.9992    8.9289    6.8948 O   0  0  0  0  0  0  0  0  0  0  0  0
   11.1225   10.9444    4.6439 N   0  0  0  0  0  0  0  0  0  0  0  0
   10.7734   12.1737    4.1890 C   0  0  0  0  0  0  0  0  0  0  0  0
   10.7912   13.0957    5.2036 N   0  0  0  0  0  0  0  0  0  0  0  0
  1  2  1  0  0  0  0
  1  6  1  0  0  0  0
  2  3  2  0  0  0  0
  3  4  1  0  0  0  0
  4  5  2  0  0  0  0
  4 10  1  0  0  0  0
  5  6  1  0  0  0  0
  5  8  1  0  0  0  0
  6  7  2  0  0  0  0
  8  9  1  0  0  0  0
  9 10  2  0  0  0  0
M  END
>  <CHROM.1>
11.39752980,11.41285664,6.46163949,0.12274732,-1.28746107,0.78891806

>  <Name>
ligand

>  <RI>
0

>  <Rbt.Current_Directory>
/home/itssahil/PROJECTS/Mol_Feturizer/New_Systems/rnas/2EEW

>  <Rbt.Executable>
rbdock ($Id: //depot/dev/client3/rdock/2013.1/src/exe/rbdock.cxx#4 $)

>  <Rbt.Library>
libRbt.so (2013.1, Build901 2013/11/27)

>  <Rbt.Parameter_File>
/export/apps/rDock/src/rDock_2013.1_src/data/scripts/dock_solv.prm

>  <Rbt.Receptor>
prm/blind_docking_20.prm

>  <SCORE>
-16.2651

>  <SCORE.INTER>
-16.2651

>  <SCORE.INTER.CONST>
1

>  <SCORE.INTER.POLAR>
0

>  <SCORE.INTER.ROT>
0

>  <SCORE.INTER.SOLV>
3.45742

>  <SCORE.INTER.VDW>
-15.5959

>  <SCORE.INTER.norm>
-1.62651

>  <SCORE.INTRA>
0

>  <SCORE.INTRA.DIHEDRAL>
0

>  <SCORE.INTRA.DIHEDRAL.0>
0

>  <SCORE.INTRA.POLAR>
0

>  <SCORE.INTRA.POLAR.0>
0

>  <SCORE.INTRA.REPUL>
0

>  <SCORE.INTRA.REPUL.0>
0

>  <SCORE.INTRA.SOLV>
0

>  <SCORE.INTRA.SOLV.lig_0>
-4.28901

>  <SCORE.INTRA.VDW>
0

>  <SCORE.INTRA.VDW.0>
0

>  <SCORE.INTRA.norm>
0

>  <SCORE.RESTR>
0

>  <SCORE.RESTR.CAVITY>
0

>  <SCORE.RESTR.norm>
0

>  <SCORE.SYSTEM>
0

>  <SCORE.SYSTEM.CONST>
0

>  <SCORE.SYSTEM.DIHEDRAL>
0

>  <SCORE.SYSTEM.SOLV>
0

>  <SCORE.SYSTEM.norm>
0

>  <SCORE.heavy>
10

>  <SCORE.norm>
-1.62651

>  <RMSD>
1.067

$$$$
ligand
 OpenBabel11021811423D
libRbt.so/2013.1/901 2013/11/27
 10 11  0  0  0  0  0  0  0  0999 V2000
   11.9007   10.7607    8.2252 N   0  0  0  0  0  0  0  0  0  0  0  0
   11.6897   12.0990    8.5015 C   0  0  0  0  0  0  0  0  0  0  0  0
   11.3163   12.9724    7.5563 N   0  0  0  0  0  0  0  0  0  0  0  0
   11.1755   12.4081    6.3288 C   0  0  0  0  0  0  0  0  0  0  0  0
   11.3707   11.0830    5.9821 C   0  0  0  0  0  0  0  0  0  0  0  0
   11.7667   10.1433    6.9775 C   0  0  0  0  0  0  0  0  0  0  0  0
   11.9937    8.9279    6.8930 O   0  0  0  0  0  0  0  0  0  0  0  0
   11.1211   10.9474    4.6442 N   0  0  0  0  0  0  0  0  0  0  0  0
   10.7768   12.1783    4.1900 C   0  0  0  0  0  0  0  0  0  0  0  0
   10.8017   13.1003    5.2044 N   0  0  0  0  0  0  0  0  0  0  0  0
  1  2  1  0  0  0  0
  1  6  1  0  0  0  0
  2  3  2  0  0  0  0
  3  4  1  0  0  0  0
  4  5  2  0  0  0  0
  4 10  1  0  0  0  0
  5  6  1  0  0  0  0
  5  8  1  0  0  0  0
  6  7  2  0  0  0  0
  8  9  1  0  0  0  0
  9 10  2  0  0  0  0
M  END
>  <CHROM.1>
11.40304599,11.41471809,6.46109334,0.10384361,-1.28905627,0.77062440

>  <Name>
ligand

>  <RI>
0

>  <Rbt.Current_Directory>
/home/itssahil/PROJECTS/Mol_Feturizer/New_Systems/rnas/2EEW

>  <Rbt.Executable>
rbdock ($Id: //depot/dev/client3/rdock/2013.1/src/exe/rbdock.cxx#4 $)

>  <Rbt.Library>
libRbt.so (2013.1, Build901 2013/11/27)

>  <Rbt.Parameter_File>
/export/apps/rDock/src/rDock_2013.1_src/data/scripts/dock_solv.prm

>  <Rbt.Receptor>
prm/blind_docking_20.prm

>  <SCORE>
-16.269

>  <SCORE.INTER>
-16.269

>  <SCORE.INTER.CONST>
1

>  <SCORE.INTER.POLAR>
0

>  <SCORE.INTER.ROT>
0

>  <SCORE.INTER.SOLV>
3.46756

>  <SCORE.INTER.VDW>
-15.6019

>  <SCORE.INTER.norm>
-1.6269

>  <SCORE.INTRA>
0

>  <SCORE.INTRA.DIHEDRAL>
0

>  <SCORE.INTRA.DIHEDRAL.0>
0

>  <SCORE.INTRA.POLAR>
0

>  <SCORE.INTRA.POLAR.0>
0

>  <SCORE.INTRA.REPUL>
0

>  <SCORE.INTRA.REPUL.0>
0

>  <SCORE.INTRA.SOLV>
0

>  <SCORE.INTRA.SOLV.lig_0>
-4.28901

>  <SCORE.INTRA.VDW>
0

>  <SCORE.INTRA.VDW.0>
0

>  <SCORE.INTRA.norm>
0

>  <SCORE.RESTR>
0

>  <SCORE.RESTR.CAVITY>
0

>  <SCORE.RESTR.norm>
0

>  <SCORE.SYSTEM>
0

>  <SCORE.SYSTEM.CONST>
0

>  <SCORE.SYSTEM.DIHEDRAL>
0

>  <SCORE.SYSTEM.SOLV>
0

>  <SCORE.SYSTEM.norm>
0

>  <SCORE.heavy>
10

>  <SCORE.norm>
-1.6269

>  <RMSD>
1.068

$$$$
ligand
 OpenBabel11021811423D
libRbt.so/2013.1/901 2013/11/27
 10 11  0  0  0  0  0  0  0  0999 V2000
   11.8546   10.7668    8.2245 N   0  0  0  0  0  0  0  0  0  0  0  0
   11.6166   12.0971    8.5170 C   0  0  0  0  0  0  0  0  0  0  0  0
   11.2477   12.9791    7.5780 N   0  0  0  0  0  0  0  0  0  0  0  0
   11.1402   12.4319    6.3394 C   0  0  0  0  0  0  0  0  0  0  0  0
   11.3636   11.1156    5.9765 C   0  0  0  0  0  0  0  0  0  0  0  0
   11.7552   10.1669    6.9651 C   0  0  0  0  0  0  0  0  0  0  0  0
   12.0035    8.9567    6.8665 O   0  0  0  0  0  0  0  0  0  0  0  0
   11.1426   10.9969    4.6319 N   0  0  0  0  0  0  0  0  0  0  0  0
   10.7874   12.2292    4.1898 C   0  0  0  0  0  0  0  0  0  0  0  0
   10.7774   13.1355    5.2185 N   0  0  0  0  0  0  0  0  0  0  0  0
  1  2  1  0  0  0  0
  1  6  1  0  0  0  0
  2  3  2  0  0  0  0
  3  4  1  0  0  0  0
  4  5  2  0  0  0  0
  4 10  1  0  0  0  0
  5  6  1  0  0  0  0
  5  8  1  0  0  0  0
  6  7  2  0  0  0  0
  8  9  1  0  0  0  0
  9 10  2  0  0  0  0
M  END
>  <CHROM.1>
11.38119292,11.44026532,6.46102697,0.19559577,-1.29075513,0.87425043

>  <Name>
ligand

>  <RI>
0

>  <Rbt.Current_Directory>
/home/itssahil/PROJECTS/Mol_Feturizer/New_Systems/rnas/2EEW

>  <Rbt.Executable>
rbdock ($Id: //depot/dev/client3/rdock/2013.1/src/exe/rbdock.cxx#4 $)

>  <Rbt.Library>
libRbt.so (2013.1, Build901 2013/11/27)

>  <Rbt.Parameter_File>
/export/apps/rDock/src/rDock_2013.1_src/data/scripts/dock_solv.prm

>  <Rbt.Receptor>
prm/blind_docking_20.prm

>  <SCORE>
-16.2581

>  <SCORE.INTER>
-16.2587

>  <SCORE.INTER.CONST>
1

>  <SCORE.INTER.POLAR>
0

>  <SCORE.INTER.ROT>
0

>  <SCORE.INTER.SOLV>
3.45922

>  <SCORE.INTER.VDW>
-15.5922

>  <SCORE.INTER.norm>
-1.62587

>  <SCORE.INTRA>
0

>  <SCORE.INTRA.DIHEDRAL>
0

>  <SCORE.INTRA.DIHEDRAL.0>
0

>  <SCORE.INTRA.POLAR>
0

>  <SCORE.INTRA.POLAR.0>
0

>  <SCORE.INTRA.REPUL>
0

>  <SCORE.INTRA.REPUL.0>
0

>  <SCORE.INTRA.SOLV>
0

>  <SCORE.INTRA.SOLV.lig_0>
-4.28901

>  <SCORE.INTRA.VDW>
0

>  <SCORE.INTRA.VDW.0>
0

>  <SCORE.INTRA.norm>
0

>  <SCORE.RESTR>
0.000605479

>  <SCORE.RESTR.CAVITY>
0.000605479

>  <SCORE.RESTR.norm>
6.05479e-05

>  <SCORE.SYSTEM>
0

>  <SCORE.SYSTEM.CONST>
0

>  <SCORE.SYSTEM.DIHEDRAL>
0

>  <SCORE.SYSTEM.SOLV>
0

>  <SCORE.SYSTEM.norm>
0

>  <SCORE.heavy>
10

>  <SCORE.norm>
-1.62581

>  <RMSD>
1.070

$$$$
ligand
 OpenBabel11021811423D
libRbt.so/2013.1/901 2013/11/27
 10 11  0  0  0  0  0  0  0  0999 V2000
   11.8760   10.7626    8.2213 N   0  0  0  0  0  0  0  0  0  0  0  0
   11.6562   12.0965    8.5121 C   0  0  0  0  0  0  0  0  0  0  0  0
   11.2858   12.9793    7.5745 N   0  0  0  0  0  0  0  0  0  0  0  0
   11.1574   12.4293    6.3392 C   0  0  0  0  0  0  0  0  0  0  0  0
   11.3619   11.1094    5.9781 C   0  0  0  0  0  0  0  0  0  0  0  0
   11.7547   10.1597    6.9653 C   0  0  0  0  0  0  0  0  0  0  0  0
   11.9885    8.9465    6.8679 O   0  0  0  0  0  0  0  0  0  0  0  0
   11.1234   10.9887    4.6368 N   0  0  0  0  0  0  0  0  0  0  0  0
   10.7765   12.2234    4.1947 C   0  0  0  0  0  0  0  0  0  0  0  0
   10.7890   13.1332    5.2204 N   0  0  0  0  0  0  0  0  0  0  0  0
  1  2  1  0  0  0  0
  1  6  1  0  0  0  0
  2  3  2  0  0  0  0
  3  4  1  0  0  0  0
  4  5  2  0  0  0  0
  4 10  1  0  0  0  0
  5  6  1  0  0  0  0
  5  8  1  0  0  0  0
  6  7  2  0  0  0  0
  8  9  1  0  0  0  0
  9 10  2  0  0  0  0
M  END
>  <CHROM.1>
11.38886226,11.43546682,6.46133802,0.13637744,-1.29105592,0.81394909

>  <Name>
ligand

>  <RI>
0

>  <Rbt.Current_Directory>
/home/itssahil/PROJECTS/Mol_Feturizer/New_Systems/rnas/2EEW

>  <Rbt.Executable>
rbdock ($Id: //depot/dev/client3/rdock/2013.1/src/exe/rbdock.cxx#4 $)

>  <Rbt.Library>
libRbt.so (2013.1, Build901 2013/11/27)

>  <Rbt.Parameter_File>
/export/apps/rDock/src/rDock_2013.1_src/data/scripts/dock_solv.prm

>  <Rbt.Receptor>
prm/blind_docking_20.prm

>  <SCORE>
-16.2836

>  <SCORE.INTER>
-16.2836

>  <SCORE.INTER.CONST>
1

>  <SCORE.INTER.POLAR>
0

>  <SCORE.INTER.ROT>
0

>  <SCORE.INTER.SOLV>
3.47541

>  <SCORE.INTER.VDW>
-15.6142

>  <SCORE.INTER.norm>
-1.62836

>  <SCORE.INTRA>
0

>  <SCORE.INTRA.DIHEDRAL>
0

>  <SCORE.INTRA.DIHEDRAL.0>
0

>  <SCORE.INTRA.POLAR>
0

>  <SCORE.INTRA.POLAR.0>
0

>  <SCORE.INTRA.REPUL>
0

>  <SCORE.INTRA.REPUL.0>
0

>  <SCORE.INTRA.SOLV>
0

>  <SCORE.INTRA.SOLV.lig_0>
-4.28901

>  <SCORE.INTRA.VDW>
0

>  <SCORE.INTRA.VDW.0>
0

>  <SCORE.INTRA.norm>
0

>  <SCORE.RESTR>
0

>  <SCORE.RESTR.CAVITY>
0

>  <SCORE.RESTR.norm>
0

>  <SCORE.SYSTEM>
0

>  <SCORE.SYSTEM.CONST>
0

>  <SCORE.SYSTEM.DIHEDRAL>
0

>  <SCORE.SYSTEM.SOLV>
0

>  <SCORE.SYSTEM.norm>
0

>  <SCORE.heavy>
10

>  <SCORE.norm>
-1.62836

>  <RMSD>
1.070

$$$$
ligand
 OpenBabel11021811423D
libRbt.so/2013.1/901 2013/11/27
 10 11  0  0  0  0  0  0  0  0999 V2000
   11.8891   10.7655    8.2146 N   0  0  0  0  0  0  0  0  0  0  0  0
   11.6607   12.0977    8.5062 C   0  0  0  0  0  0  0  0  0  0  0  0
   11.2797   12.9777    7.5703 N   0  0  0  0  0  0  0  0  0  0  0  0
   11.1502   12.4266    6.3355 C   0  0  0  0  0  0  0  0  0  0  0  0
   11.3629   11.1083    5.9736 C   0  0  0  0  0  0  0  0  0  0  0  0
   11.7671   10.1616    6.9591 C   0  0  0  0  0  0  0  0  0  0  0  0
   12.0095    8.9501    6.8608 O   0  0  0  0  0  0  0  0  0  0  0  0
   11.1197   10.9857    4.6333 N   0  0  0  0  0  0  0  0  0  0  0  0
   10.7617   12.2177    4.1927 C   0  0  0  0  0  0  0  0  0  0  0  0
   10.7718   13.1277    5.2182 N   0  0  0  0  0  0  0  0  0  0  0  0
  1  2  1  0  0  0  0
  1  6  1  0  0  0  0
  2  3  2  0  0  0  0
  3  4  1  0  0  0  0
  4  5  2  0  0  0  0
  4 10  1  0  0  0  0
  5  6  1  0  0  0  0
  5  8  1  0  0  0  0
  6  7  2  0  0  0  0
  8  9  1  0  0  0  0
  9 10  2  0  0  0  0
M  END
>  <CHROM.1>
11.38955401,11.43453811,6.45669975,0.14355124,-1.28270733,0.82076896

>  <Name>
ligand

>  <RI>
0

>  <Rbt.Current_Directory>
/home/itssahil/PROJECTS/Mol_Feturizer/New_Systems/rnas/2EEW

>  <Rbt.Executable>
rbdock ($Id: //depot/dev/client3/rdock/2013.1/src/exe/rbdock.cxx#4 $)

>  <Rbt.Library>
libRbt.so (2013.1, Build901 2013/11/27)

>  <Rbt.Parameter_File>
/export/apps/rDock/src/rDock_2013.1_src/data/scripts/dock_solv.prm

>  <Rbt.Receptor>
prm/blind_docking_20.prm

>  <SCORE>
-16.2761

>  <SCORE.INTER>
-16.2761

>  <SCORE.INTER.CONST>
1

>  <SCORE.INTER.POLAR>
0

>  <SCORE.INTER.ROT>
0

>  <SCORE.INTER.SOLV>
3.4472

>  <SCORE.INTER.VDW>
-15.5998

>  <SCORE.INTER.norm>
-1.62761

>  <SCORE.INTRA>
0

>  <SCORE.INTRA.DIHEDRAL>
0

>  <SCORE.INTRA.DIHEDRAL.0>
0

>  <SCORE.INTRA.POLAR>
0

>  <SCORE.INTRA.POLAR.0>
0

>  <SCORE.INTRA.REPUL>
0

>  <SCORE.INTRA.REPUL.0>
0

>  <SCORE.INTRA.SOLV>
0

>  <SCORE.INTRA.SOLV.lig_0>
-4.28901

>  <SCORE.INTRA.VDW>
0

>  <SCORE.INTRA.VDW.0>
0

>  <SCORE.INTRA.norm>
0

>  <SCORE.RESTR>
0

>  <SCORE.RESTR.CAVITY>
0

>  <SCORE.RESTR.norm>
0

>  <SCORE.SYSTEM>
0

>  <SCORE.SYSTEM.CONST>
0

>  <SCORE.SYSTEM.DIHEDRAL>
0

>  <SCORE.SYSTEM.SOLV>
0

>  <SCORE.SYSTEM.norm>
0

>  <SCORE.heavy>
10

>  <SCORE.norm>
-1.62761

>  <RMSD>
1.073

$$$$
ligand
 OpenBabel11021811423D
libRbt.so/2013.1/901 2013/11/27
 10 11  0  0  0  0  0  0  0  0999 V2000
   11.8770   10.7652    8.2166 N   0  0  0  0  0  0  0  0  0  0  0  0
   11.6516   12.0981    8.5069 C   0  0  0  0  0  0  0  0  0  0  0  0
   11.2786   12.9794    7.5689 N   0  0  0  0  0  0  0  0  0  0  0  0
   11.1536   12.4286    6.3335 C   0  0  0  0  0  0  0  0  0  0  0  0
   11.3637   11.1096    5.9729 C   0  0  0  0  0  0  0  0  0  0  0  0
   11.7594   10.1616    6.9605 C   0  0  0  0  0  0  0  0  0  0  0  0
   11.9981    8.9493    6.8636 O   0  0  0  0  0  0  0  0  0  0  0  0
   11.1271   10.9877    4.6313 N   0  0  0  0  0  0  0  0  0  0  0  0
   10.7757   12.2209    4.1887 C   0  0  0  0  0  0  0  0  0  0  0  0
   10.7835   13.1309    5.2142 N   0  0  0  0  0  0  0  0  0  0  0  0
  1  2  1  0  0  0  0
  1  6  1  0  0  0  0
  2  3  2  0  0  0  0
  3  4  1  0  0  0  0
  4  5  2  0  0  0  0
  4 10  1  0  0  0  0
  5  6  1  0  0  0  0
  5  8  1  0  0  0  0
  6  7  2  0  0  0  0
  8  9  1  0  0  0  0
  9 10  2  0  0  0  0
M  END
>  <CHROM.1>
11.38892763,11.43578188,6.45603067,0.14889335,-1.28880348,0.82582698

>  <Name>
ligand

>  <RI>
0

>  <Rbt.Current_Directory>
/home/itssahil/PROJECTS/Mol_Feturizer/New_Systems/rnas/2EEW

>  <Rbt.Executable>
rbdock ($Id: //depot/dev/client3/rdock/2013.1/src/exe/rbdock.cxx#4 $)

>  <Rbt.Library>
libRbt.so (2013.1, Build901 2013/11/27)

>  <Rbt.Parameter_File>
/export/apps/rDock/src/rDock_2013.1_src/data/scripts/dock_solv.prm

>  <Rbt.Receptor>
prm/blind_docking_20.prm

>  <SCORE>
-16.2795

>  <SCORE.INTER>
-16.2795

>  <SCORE.INTER.CONST>
1

>  <SCORE.INTER.POLAR>
0

>  <SCORE.INTER.ROT>
0

>  <SCORE.INTER.SOLV>
3.46542

>  <SCORE.INTER.VDW>
-15.6082

>  <SCORE.INTER.norm>
-1.62795

>  <SCORE.INTRA>
0

>  <SCORE.INTRA.DIHEDRAL>
0

>  <SCORE.INTRA.DIHEDRAL.0>
0

>  <SCORE.INTRA.POLAR>
0

>  <SCORE.INTRA.POLAR.0>
0

>  <SCORE.INTRA.REPUL>
0

>  <SCORE.INTRA.REPUL.0>
0

>  <SCORE.INTRA.SOLV>
0

>  <SCORE.INTRA.SOLV.lig_0>
-4.28901

>  <SCORE.INTRA.VDW>
0

>  <SCORE.INTRA.VDW.0>
0

>  <SCORE.INTRA.norm>
0

>  <SCORE.RESTR>
0

>  <SCORE.RESTR.CAVITY>
0

>  <SCORE.RESTR.norm>
0

>  <SCORE.SYSTEM>
0

>  <SCORE.SYSTEM.CONST>
0

>  <SCORE.SYSTEM.DIHEDRAL>
0

>  <SCORE.SYSTEM.SOLV>
0

>  <SCORE.SYSTEM.norm>
0

>  <SCORE.heavy>
10

>  <SCORE.norm>
-1.62795

>  <RMSD>
1.074

$$$$
ligand
 OpenBabel11021811423D
libRbt.so/2013.1/901 2013/11/27
 10 11  0  0  0  0  0  0  0  0999 V2000
   11.8900   10.7663    8.2127 N   0  0  0  0  0  0  0  0  0  0  0  0
   11.6537   12.0967    8.5057 C   0  0  0  0  0  0  0  0  0  0  0  0
   11.2703   12.9761    7.5701 N   0  0  0  0  0  0  0  0  0  0  0  0
   11.1468   12.4261    6.3342 C   0  0  0  0  0  0  0  0  0  0  0  0
   11.3675   11.1095    5.9709 C   0  0  0  0  0  0  0  0  0  0  0  0
   11.7743   10.1636    6.9560 C   0  0  0  0  0  0  0  0  0  0  0  0
   12.0235    8.9536    6.8565 O   0  0  0  0  0  0  0  0  0  0  0  0
   11.1282   10.9877    4.6298 N   0  0  0  0  0  0  0  0  0  0  0  0
   10.7648   12.2183    4.1901 C   0  0  0  0  0  0  0  0  0  0  0  0
   10.7674   13.1268    5.2170 N   0  0  0  0  0  0  0  0  0  0  0  0
  1  2  1  0  0  0  0
  1  6  1  0  0  0  0
  2  3  2  0  0  0  0
  3  4  1  0  0  0  0
  4  5  2  0  0  0  0
  4 10  1  0  0  0  0
  5  6  1  0  0  0  0
  5  8  1  0  0  0  0
  6  7  2  0  0  0  0
  8  9  1  0  0  0  0
  9 10  2  0  0  0  0
M  END
>  <CHROM.1>
11.39119332,11.43522112,6.45454007,0.16268169,-1.28040419,0.84059424

>  <Name>
ligand

>  <RI>
0

>  <Rbt.Current_Directory>
/home/itssahil/PROJECTS/Mol_Feturizer/New_Systems/rnas/2EEW

>  <Rbt.Executable>
rbdock ($Id: //depot/dev/client3/rdock/2013.1/src/exe/rbdock.cxx#4 $)

>  <Rbt.Library>
libRbt.so (2013.1, Build901 2013/11/27)

>  <Rbt.Parameter_File>
/export/apps/rDock/src/rDock_2013.1_src/data/scripts/dock_solv.prm

>  <Rbt.Receptor>
prm/blind_docking_20.prm

>  <SCORE>
-16.265

>  <SCORE.INTER>
-16.265

>  <SCORE.INTER.CONST>
1

>  <SCORE.INTER.POLAR>
0

>  <SCORE.INTER.ROT>
0

>  <SCORE.INTER.SOLV>
3.43469

>  <SCORE.INTER.VDW>
-15.5882

>  <SCORE.INTER.norm>
-1.6265

>  <SCORE.INTRA>
0

>  <SCORE.INTRA.DIHEDRAL>
0

>  <SCORE.INTRA.DIHEDRAL.0>
0

>  <SCORE.INTRA.POLAR>
0

>  <SCORE.INTRA.POLAR.0>
0

>  <SCORE.INTRA.REPUL>
0

>  <SCORE.INTRA.REPUL.0>
0

>  <SCORE.INTRA.SOLV>
0

>  <SCORE.INTRA.SOLV.lig_0>
-4.28901

>  <SCORE.INTRA.VDW>
0

>  <SCORE.INTRA.VDW.0>
0

>  <SCORE.INTRA.norm>
0

>  <SCORE.RESTR>
0

>  <SCORE.RESTR.CAVITY>
0

>  <SCORE.RESTR.norm>
0

>  <SCORE.SYSTEM>
0

>  <SCORE.SYSTEM.CONST>
0

>  <SCORE.SYSTEM.DIHEDRAL>
0

>  <SCORE.SYSTEM.SOLV>
0

>  <SCORE.SYSTEM.norm>
0

>  <SCORE.heavy>
10

>  <SCORE.norm>
-1.6265

>  <RMSD>
1.074

$$$$
ligand
 OpenBabel11021811423D
libRbt.so/2013.1/901 2013/11/27
 10 11  0  0  0  0  0  0  0  0999 V2000
   11.8901   10.7622    8.2131 N   0  0  0  0  0  0  0  0  0  0  0  0
   11.6888   12.0999    8.4997 C   0  0  0  0  0  0  0  0  0  0  0  0
   11.3207   12.9830    7.5615 N   0  0  0  0  0  0  0  0  0  0  0  0
   11.1749   12.4290    6.3298 C   0  0  0  0  0  0  0  0  0  0  0  0
   11.3604   11.1053    5.9729 C   0  0  0  0  0  0  0  0  0  0  0  0
   11.7506   10.1553    6.9609 C   0  0  0  0  0  0  0  0  0  0  0  0
   11.9690    8.9389    6.8669 O   0  0  0  0  0  0  0  0  0  0  0  0
   11.1086   10.9815    4.6342 N   0  0  0  0  0  0  0  0  0  0  0  0
   10.7726   12.2182    4.1897 C   0  0  0  0  0  0  0  0  0  0  0  0
   10.8050   13.1324    5.2111 N   0  0  0  0  0  0  0  0  0  0  0  0
  1  2  1  0  0  0  0
  1  6  1  0  0  0  0
  2  3  2  0  0  0  0
  3  4  1  0  0  0  0
  4  5  2  0  0  0  0
  4 10  1  0  0  0  0
  5  6  1  0  0  0  0
  5  8  1  0  0  0  0
  6  7  2  0  0  0  0
  8  9  1  0  0  0  0
  9 10  2  0  0  0  0
M  END
>  <CHROM.1>
11.39552522,11.43307808,6.45439329,0.08307349,-1.29327206,0.75823468

>  <Name>
ligand

>  <RI>
0

>  <Rbt.Current_Directory>
/home/itssahil/PROJECTS/Mol_Feturizer/New_Systems/rnas/2EEW

>  <Rbt.Executable>
rbdock ($Id: //depot/dev/client3/rdock/2013.1/src/exe/rbdock.cxx#4 $)

>  <Rbt.Library>
libRbt.so (2013.1, Build901 2013/11/27)

>  <Rbt.Parameter_File>
/export/apps/rDock/src/rDock_2013.1_src/data/scripts/dock_solv.prm

>  <Rbt.Receptor>
prm/blind_docking_20.prm

>  <SCORE>
-16.2911

>  <SCORE.INTER>
-16.2911

>  <SCORE.INTER.CONST>
1

>  <SCORE.INTER.POLAR>
0

>  <SCORE.INTER.ROT>
0

>  <SCORE.INTER.SOLV>
3.50599

>  <SCORE.INTER.VDW>
-15.6294

>  <SCORE.INTER.norm>
-1.62911

>  <SCORE.INTRA>
0

>  <SCORE.INTRA.DIHEDRAL>
0

>  <SCORE.INTRA.DIHEDRAL.0>
0

>  <SCORE.INTRA.POLAR>
0

>  <SCORE.INTRA.POLAR.0>
0

>  <SCORE.INTRA.REPUL>
0

>  <SCORE.INTRA.REPUL.0>
0

>  <SCORE.INTRA.SOLV>
0

>  <SCORE.INTRA.SOLV.lig_0>
-4.28901

>  <SCORE.INTRA.VDW>
0

>  <SCORE.INTRA.VDW.0>
0

>  <SCORE.INTRA.norm>
0

>  <SCORE.RESTR>
0

>  <SCORE.RESTR.CAVITY>
0

>  <SCORE.RESTR.norm>
0

>  <SCORE.SYSTEM>
0

>  <SCORE.SYSTEM.CONST>
0

>  <SCORE.SYSTEM.DIHEDRAL>
0

>  <SCORE.SYSTEM.SOLV>
0

>  <SCORE.SYSTEM.norm>
0

>  <SCORE.heavy>
10

>  <SCORE.norm>
-1.62911

>  <RMSD>
1.077

$$$$
ligand
 OpenBabel11021811423D
libRbt.so/2013.1/901 2013/11/27
 10 11  0  0  0  0  0  0  0  0999 V2000
   11.8722   10.7652    8.2110 N   0  0  0  0  0  0  0  0  0  0  0  0
   11.6540   12.1000    8.4984 C   0  0  0  0  0  0  0  0  0  0  0  0
   11.2857   12.9811    7.5584 N   0  0  0  0  0  0  0  0  0  0  0  0
   11.1577   12.4283    6.3243 C   0  0  0  0  0  0  0  0  0  0  0  0
   11.3607   11.1073    5.9666 C   0  0  0  0  0  0  0  0  0  0  0  0
   11.7513   10.1594    6.9563 C   0  0  0  0  0  0  0  0  0  0  0  0
   11.9835    8.9456    6.8621 O   0  0  0  0  0  0  0  0  0  0  0  0
   11.1232   10.9837    4.6252 N   0  0  0  0  0  0  0  0  0  0  0  0
   10.7785   12.2177    4.1800 C   0  0  0  0  0  0  0  0  0  0  0  0
   10.7912   13.1300    5.2034 N   0  0  0  0  0  0  0  0  0  0  0  0
  1  2  1  0  0  0  0
  1  6  1  0  0  0  0
  2  3  2  0  0  0  0
  3  4  1  0  0  0  0
  4  5  2  0  0  0  0
  4 10  1  0  0  0  0
  5  6  1  0  0  0  0
  5  8  1  0  0  0  0
  6  7  2  0  0  0  0
  8  9  1  0  0  0  0
  9 10  2  0  0  0  0
M  END
>  <CHROM.1>
11.38764838,11.43445752,6.44899162,0.13539271,-1.29266972,0.81060809

>  <Name>
ligand

>  <RI>
0

>  <Rbt.Current_Directory>
/home/itssahil/PROJECTS/Mol_Feturizer/New_Systems/rnas/2EEW

>  <Rbt.Executable>
rbdock ($Id: //depot/dev/client3/rdock/2013.1/src/exe/rbdock.cxx#4 $)

>  <Rbt.Library>
libRbt.so (2013.1, Build901 2013/11/27)

>  <Rbt.Parameter_File>
/export/apps/rDock/src/rDock_2013.1_src/data/scripts/dock_solv.prm

>  <Rbt.Receptor>
prm/blind_docking_20.prm

>  <SCORE>
-16.281

>  <SCORE.INTER>
-16.281

>  <SCORE.INTER.CONST>
1

>  <SCORE.INTER.POLAR>
0

>  <SCORE.INTER.ROT>
0

>  <SCORE.INTER.SOLV>
3.4891

>  <SCORE.INTER.VDW>
-15.617

>  <SCORE.INTER.norm>
-1.6281

>  <SCORE.INTRA>
0

>  <SCORE.INTRA.DIHEDRAL>
0

>  <SCORE.INTRA.DIHEDRAL.0>
0

>  <SCORE.INTRA.POLAR>
0

>  <SCORE.INTRA.POLAR.0>
0

>  <SCORE.INTRA.REPUL>
0

>  <SCORE.INTRA.REPUL.0>
0

>  <SCORE.INTRA.SOLV>
0

>  <SCORE.INTRA.SOLV.lig_0>
-4.28901

>  <SCORE.INTRA.VDW>
0

>  <SCORE.INTRA.VDW.0>
0

>  <SCORE.INTRA.norm>
0

>  <SCORE.RESTR>
0

>  <SCORE.RESTR.CAVITY>
0

>  <SCORE.RESTR.norm>
0

>  <SCORE.SYSTEM>
0

>  <SCORE.SYSTEM.CONST>
0

>  <SCORE.SYSTEM.DIHEDRAL>
0

>  <SCORE.SYSTEM.SOLV>
0

>  <SCORE.SYSTEM.norm>
0

>  <SCORE.heavy>
10

>  <SCORE.norm>
-1.6281

>  <RMSD>
1.082

$$$$
ligand
 OpenBabel11021811423D
libRbt.so/2013.1/901 2013/11/27
 10 11  0  0  0  0  0  0  0  0999 V2000
   11.4142   11.6433    8.6052 N   0  0  0  0  0  0  0  0  0  0  0  0
   11.1004   12.9809    8.4498 C   0  0  0  0  0  0  0  0  0  0  0  0
   10.8415   13.5182    7.2499 N   0  0  0  0  0  0  0  0  0  0  0  0
   10.9234   12.6232    6.2314 C   0  0  0  0  0  0  0  0  0  0  0  0
   11.2322   11.2772    6.3141 C   0  0  0  0  0  0  0  0  0  0  0  0
   11.5085   10.6924    7.5839 C   0  0  0  0  0  0  0  0  0  0  0  0
   11.8021    9.5273    7.8875 O   0  0  0  0  0  0  0  0  0  0  0  0
   11.2045   10.7513    5.0517 N   0  0  0  0  0  0  0  0  0  0  0  0
   10.8800   11.7703    4.2172 C   0  0  0  0  0  0  0  0  0  0  0  0
   10.7010   12.9374    4.9142 N   0  0  0  0  0  0  0  0  0  0  0  0
  1  2  1  0  0  0  0
  1  6  1  0  0  0  0
  2  3  2  0  0  0  0
  3  4  1  0  0  0  0
  4  5  2  0  0  0  0
  4 10  1  0  0  0  0
  5  6  1  0  0  0  0
  5  8  1  0  0  0  0
  6  7  2  0  0  0  0
  8  9  1  0  0  0  0
  9 10  2  0  0  0  0
M  END
>  <CHROM.1>
11.17286178,11.73097136,6.67604983,0.73661706,-1.32539922,1.09241605

>  <Name>
ligand

>  <RI>
0

>  <Rbt.Current_Directory>
/home/itssahil/PROJECTS/Mol_Feturizer/New_Systems/rnas/2EEW

>  <Rbt.Executable>
rbdock ($Id: //depot/dev/client3/rdock/2013.1/src/exe/rbdock.cxx#4 $)

>  <Rbt.Library>
libRbt.so (2013.1, Build901 2013/11/27)

>  <Rbt.Parameter_File>
/export/apps/rDock/src/rDock_2013.1_src/data/scripts/dock_solv.prm

>  <Rbt.Receptor>
prm/blind_docking_20.prm

>  <SCORE>
-16.2205

>  <SCORE.INTER>
-16.2208

>  <SCORE.INTER.CONST>
1

>  <SCORE.INTER.POLAR>
0

>  <SCORE.INTER.ROT>
0

>  <SCORE.INTER.SOLV>
3.47637

>  <SCORE.INTER.VDW>
-15.5727

>  <SCORE.INTER.norm>
-1.62208

>  <SCORE.INTRA>
0

>  <SCORE.INTRA.DIHEDRAL>
0

>  <SCORE.INTRA.DIHEDRAL.0>
0

>  <SCORE.INTRA.POLAR>
0

>  <SCORE.INTRA.POLAR.0>
0

>  <SCORE.INTRA.REPUL>
0

>  <SCORE.INTRA.REPUL.0>
0

>  <SCORE.INTRA.SOLV>
0

>  <SCORE.INTRA.SOLV.lig_0>
-4.28901

>  <SCORE.INTRA.VDW>
0

>  <SCORE.INTRA.VDW.0>
0

>  <SCORE.INTRA.norm>
0

>  <SCORE.RESTR>
0.000362678

>  <SCORE.RESTR.CAVITY>
0.000362678

>  <SCORE.RESTR.norm>
3.62678e-05

>  <SCORE.SYSTEM>
0

>  <SCORE.SYSTEM.CONST>
0

>  <SCORE.SYSTEM.DIHEDRAL>
0

>  <SCORE.SYSTEM.SOLV>
0

>  <SCORE.SYSTEM.norm>
0

>  <SCORE.heavy>
10

>  <SCORE.norm>
-1.62205

>  <RMSD>
1.102

$$$$
ligand
 OpenBabel11021811423D
libRbt.so/2013.1/901 2013/11/27
 10 11  0  0  0  0  0  0  0  0999 V2000
   11.4066   11.6308    8.5989 N   0  0  0  0  0  0  0  0  0  0  0  0
   11.1028   12.9706    8.4425 C   0  0  0  0  0  0  0  0  0  0  0  0
   10.8536   13.5102    7.2415 N   0  0  0  0  0  0  0  0  0  0  0  0
   10.9344   12.6150    6.2231 C   0  0  0  0  0  0  0  0  0  0  0  0
   11.2334   11.2668    6.3068 C   0  0  0  0  0  0  0  0  0  0  0  0
   11.4993   10.6797    7.5778 C   0  0  0  0  0  0  0  0  0  0  0  0
   11.7834    9.5124    7.8824 O   0  0  0  0  0  0  0  0  0  0  0  0
   11.2083   10.7416    5.0441 N   0  0  0  0  0  0  0  0  0  0  0  0
   10.8950   11.7631    4.2084 C   0  0  0  0  0  0  0  0  0  0  0  0
   10.7207   12.9311    4.9049 N   0  0  0  0  0  0  0  0  0  0  0  0
  1  2  1  0  0  0  0
  1  6  1  0  0  0  0
  2  3  2  0  0  0  0
  3  4  1  0  0  0  0
  4  5  2  0  0  0  0
  4 10  1  0  0  0  0
  5  6  1  0  0  0  0
  5  8  1  0  0  0  0
  6  7  2  0  0  0  0
  8  9  1  0  0  0  0
  9 10  2  0  0  0  0
M  END
>  <CHROM.1>
11.17541446,11.72085455,6.66864023,0.74177503,-1.33381995,1.09780150

>  <Name>
ligand

>  <RI>
0

>  <Rbt.Current_Directory>
/home/itssahil/PROJECTS/Mol_Feturizer/New_Systems/rnas/2EEW

>  <Rbt.Executable>
rbdock ($Id: //depot/dev/client3/rdock/2013.1/src/exe/rbdock.cxx#4 $)

>  <Rbt.Library>
libRbt.so (2013.1, Build901 2013/11/27)

>  <Rbt.Parameter_File>
/export/apps/rDock/src/rDock_2013.1_src/data/scripts/dock_solv.prm

>  <Rbt.Receptor>
prm/blind_docking_20.prm

>  <SCORE>
-16.2779

>  <SCORE.INTER>
-16.2807

>  <SCORE.INTER.CONST>
1

>  <SCORE.INTER.POLAR>
0

>  <SCORE.INTER.ROT>
0

>  <SCORE.INTER.SOLV>
3.50659

>  <SCORE.INTER.VDW>
-15.6227

>  <SCORE.INTER.norm>
-1.62807

>  <SCORE.INTRA>
0

>  <SCORE.INTRA.DIHEDRAL>
0

>  <SCORE.INTRA.DIHEDRAL.0>
0

>  <SCORE.INTRA.POLAR>
0

>  <SCORE.INTRA.POLAR.0>
0

>  <SCORE.INTRA.REPUL>
0

>  <SCORE.INTRA.REPUL.0>
0

>  <SCORE.INTRA.SOLV>
0

>  <SCORE.INTRA.SOLV.lig_0>
-4.28901

>  <SCORE.INTRA.VDW>
0

>  <SCORE.INTRA.VDW.0>
0

>  <SCORE.INTRA.norm>
0

>  <SCORE.RESTR>
0.00278313

>  <SCORE.RESTR.CAVITY>
0.00278313

>  <SCORE.RESTR.norm>
0.000278313

>  <SCORE.SYSTEM>
0

>  <SCORE.SYSTEM.CONST>
0

>  <SCORE.SYSTEM.DIHEDRAL>
0

>  <SCORE.SYSTEM.SOLV>
0

>  <SCORE.SYSTEM.norm>
0

>  <SCORE.heavy>
10

>  <SCORE.norm>
-1.62779

>  <RMSD>
1.106

$$$$
ligand
 OpenBabel11021811423D
libRbt.so/2013.1/901 2013/11/27
 10 11  0  0  0  0  0  0  0  0999 V2000
   11.4145   11.6530    8.6034 N   0  0  0  0  0  0  0  0  0  0  0  0
   11.1227   12.9951    8.4437 C   0  0  0  0  0  0  0  0  0  0  0  0
   10.8703   13.5323    7.2423 N   0  0  0  0  0  0  0  0  0  0  0  0
   10.9351   12.6323    6.2269 C   0  0  0  0  0  0  0  0  0  0  0  0
   11.2216   11.2816    6.3140 C   0  0  0  0  0  0  0  0  0  0  0  0
   11.4908   10.6970    7.5854 C   0  0  0  0  0  0  0  0  0  0  0  0
   11.7656    9.5283    7.8928 O   0  0  0  0  0  0  0  0  0  0  0  0
   11.1825   10.7517    5.0537 N   0  0  0  0  0  0  0  0  0  0  0  0
   10.8732   11.7728    4.2161 C   0  0  0  0  0  0  0  0  0  0  0  0
   10.7151   12.9453    4.9091 N   0  0  0  0  0  0  0  0  0  0  0  0
  1  2  1  0  0  0  0
  1  6  1  0  0  0  0
  2  3  2  0  0  0  0
  3  4  1  0  0  0  0
  4  5  2  0  0  0  0
  4 10  1  0  0  0  0
  5  6  1  0  0  0  0
  5  8  1  0  0  0  0
  6  7  2  0  0  0  0
  8  9  1  0  0  0  0
  9 10  2  0  0  0  0
M  END
>  <CHROM.1>
11.17059906,11.73767788,6.67441362,0.69500670,-1.33900584,1.04829600

>  <Name>
ligand

>  <RI>
0

>  <Rbt.Current_Directory>
/home/itssahil/PROJECTS/Mol_Feturizer/New_Systems/rnas/2EEW

>  <Rbt.Executable>
rbdock ($Id: //depot/dev/client3/rdock/2013.1/src/exe/rbdock.cxx#4 $)

>  <Rbt.Library>
libRbt.so (2013.1, Build901 2013/11/27)

>  <Rbt.Parameter_File>
/export/apps/rDock/src/rDock_2013.1_src/data/scripts/dock_solv.prm

>  <Rbt.Receptor>
prm/blind_docking_20.prm

>  <SCORE>
-16.3044

>  <SCORE.INTER>
-16.3271

>  <SCORE.INTER.CONST>
1

>  <SCORE.INTER.POLAR>
0

>  <SCORE.INTER.ROT>
0

>  <SCORE.INTER.SOLV>
3.52477

>  <SCORE.INTER.VDW>
-15.6596

>  <SCORE.INTER.norm>
-1.63271

>  <SCORE.INTRA>
0

>  <SCORE.INTRA.DIHEDRAL>
0

>  <SCORE.INTRA.DIHEDRAL.0>
0

>  <SCORE.INTRA.POLAR>
0

>  <SCORE.INTRA.POLAR.0>
0

>  <SCORE.INTRA.REPUL>
0

>  <SCORE.INTRA.REPUL.0>
0

>  <SCORE.INTRA.SOLV>
0

>  <SCORE.INTRA.SOLV.lig_0>
-4.28901

>  <SCORE.INTRA.VDW>
0

>  <SCORE.INTRA.VDW.0>
0

>  <SCORE.INTRA.norm>
0

>  <SCORE.RESTR>
0.0227

>  <SCORE.RESTR.CAVITY>
0.0227

>  <SCORE.RESTR.norm>
0.00227

>  <SCORE.SYSTEM>
0

>  <SCORE.SYSTEM.CONST>
0

>  <SCORE.SYSTEM.DIHEDRAL>
0

>  <SCORE.SYSTEM.SOLV>
0

>  <SCORE.SYSTEM.norm>
0

>  <SCORE.heavy>
10

>  <SCORE.norm>
-1.63044

>  <RMSD>
1.108

$$$$
ligand
 OpenBabel11021811423D
libRbt.so/2013.1/901 2013/11/27
 10 11  0  0  0  0  0  0  0  0999 V2000
   11.4045   11.6333    8.5970 N   0  0  0  0  0  0  0  0  0  0  0  0
   11.1016   12.9732    8.4396 C   0  0  0  0  0  0  0  0  0  0  0  0
   10.8524   13.5119    7.2382 N   0  0  0  0  0  0  0  0  0  0  0  0
   10.9322   12.6158    6.2205 C   0  0  0  0  0  0  0  0  0  0  0  0
   11.2304   11.2675    6.3052 C   0  0  0  0  0  0  0  0  0  0  0  0
   11.4963   10.6813    7.5766 C   0  0  0  0  0  0  0  0  0  0  0  0
   11.7797    9.5141    7.8821 O   0  0  0  0  0  0  0  0  0  0  0  0
   11.2046   10.7413    5.0430 N   0  0  0  0  0  0  0  0  0  0  0  0
   10.8916   11.7622    4.2065 C   0  0  0  0  0  0  0  0  0  0  0  0
   10.7183   12.9310    4.9021 N   0  0  0  0  0  0  0  0  0  0  0  0
  1  2  1  0  0  0  0
  1  6  1  0  0  0  0
  2  3  2  0  0  0  0
  3  4  1  0  0  0  0
  4  5  2  0  0  0  0
  4 10  1  0  0  0  0
  5  6  1  0  0  0  0
  5  8  1  0  0  0  0
  6  7  2  0  0  0  0
  8  9  1  0  0  0  0
  9 10  2  0  0  0  0
M  END
>  <CHROM.1>
11.17280933,11.72190065,6.66672391,0.73926348,-1.33427259,1.09452502

>  <Name>
ligand

>  <RI>
0

>  <Rbt.Current_Directory>
/home/itssahil/PROJECTS/Mol_Feturizer/New_Systems/rnas/2EEW

>  <Rbt.Executable>
rbdock ($Id: //depot/dev/client3/rdock/2013.1/src/exe/rbdock.cxx#4 $)

>  <Rbt.Library>
libRbt.so (2013.1, Build901 2013/11/27)

>  <Rbt.Parameter_File>
/export/apps/rDock/src/rDock_2013.1_src/data/scripts/dock_solv.prm

>  <Rbt.Receptor>
prm/blind_docking_20.prm

>  <SCORE>
-16.2727

>  <SCORE.INTER>
-16.2743

>  <SCORE.INTER.CONST>
1

>  <SCORE.INTER.POLAR>
0

>  <SCORE.INTER.ROT>
0

>  <SCORE.INTER.SOLV>
3.51002

>  <SCORE.INTER.VDW>
-15.6195

>  <SCORE.INTER.norm>
-1.62743

>  <SCORE.INTRA>
0

>  <SCORE.INTRA.DIHEDRAL>
0

>  <SCORE.INTRA.DIHEDRAL.0>
0

>  <SCORE.INTRA.POLAR>
0

>  <SCORE.INTRA.POLAR.0>
0

>  <SCORE.INTRA.REPUL>
0

>  <SCORE.INTRA.REPUL.0>
0

>  <SCORE.INTRA.SOLV>
0

>  <SCORE.INTRA.SOLV.lig_0>
-4.28901

>  <SCORE.INTRA.VDW>
0

>  <SCORE.INTRA.VDW.0>
0

>  <SCORE.INTRA.norm>
0

>  <SCORE.RESTR>
0.00158044

>  <SCORE.RESTR.CAVITY>
0.00158044

>  <SCORE.RESTR.norm>
0.000158044

>  <SCORE.SYSTEM>
0

>  <SCORE.SYSTEM.CONST>
0

>  <SCORE.SYSTEM.DIHEDRAL>
0

>  <SCORE.SYSTEM.SOLV>
0

>  <SCORE.SYSTEM.norm>
0

>  <SCORE.heavy>
10

>  <SCORE.norm>
-1.62727

>  <RMSD>
1.110

$$$$
ligand
 OpenBabel11021811423D
libRbt.so/2013.1/901 2013/11/27
 10 11  0  0  0  0  0  0  0  0999 V2000
   11.6412   11.7678    8.5792 N   0  0  0  0  0  0  0  0  0  0  0  0
   11.4234   13.1193    8.3844 C   0  0  0  0  0  0  0  0  0  0  0  0
   11.1276   13.6280    7.1805 N   0  0  0  0  0  0  0  0  0  0  0  0
   11.0707   12.6897    6.1999 C   0  0  0  0  0  0  0  0  0  0  0  0
   11.2780   11.3274    6.3230 C   0  0  0  0  0  0  0  0  0  0  0  0
   11.5920   10.7728    7.5976 C   0  0  0  0  0  0  0  0  0  0  0  0
   11.8131    9.6006    7.9338 O   0  0  0  0  0  0  0  0  0  0  0  0
   11.1246   10.7560    5.0898 N   0  0  0  0  0  0  0  0  0  0  0  0
   10.8257   11.7641    4.2328 C   0  0  0  0  0  0  0  0  0  0  0  0
   10.7858   12.9685    4.8868 N   0  0  0  0  0  0  0  0  0  0  0  0
  1  2  1  0  0  0  0
  1  6  1  0  0  0  0
  2  3  2  0  0  0  0
  3  4  1  0  0  0  0
  4  5  2  0  0  0  0
  4 10  1  0  0  0  0
  5  6  1  0  0  0  0
  5  8  1  0  0  0  0
  6  7  2  0  0  0  0
  8  9  1  0  0  0  0
  9 10  2  0  0  0  0
M  END
>  <CHROM.1>
11.27870956,11.79845543,6.66733596,0.29870809,-1.34348589,0.62400538

>  <Name>
ligand

>  <RI>
0

>  <Rbt.Current_Directory>
/home/itssahil/PROJECTS/Mol_Feturizer/New_Systems/rnas/2EEW

>  <Rbt.Executable>
rbdock ($Id: //depot/dev/client3/rdock/2013.1/src/exe/rbdock.cxx#4 $)

>  <Rbt.Library>
libRbt.so (2013.1, Build901 2013/11/27)

>  <Rbt.Parameter_File>
/export/apps/rDock/src/rDock_2013.1_src/data/scripts/dock_solv.prm

>  <Rbt.Receptor>
prm/pocket_docking_5.prm

>  <SCORE>
-17.0432

>  <SCORE.INTER>
-17.0432

>  <SCORE.INTER.CONST>
1

>  <SCORE.INTER.POLAR>
0

>  <SCORE.INTER.ROT>
0

>  <SCORE.INTER.SOLV>
3.51468

>  <SCORE.INTER.VDW>
-16.1337

>  <SCORE.INTER.norm>
-1.70432

>  <SCORE.INTRA>
0

>  <SCORE.INTRA.DIHEDRAL>
0

>  <SCORE.INTRA.DIHEDRAL.0>
0

>  <SCORE.INTRA.POLAR>
0

>  <SCORE.INTRA.POLAR.0>
0

>  <SCORE.INTRA.REPUL>
0

>  <SCORE.INTRA.REPUL.0>
0

>  <SCORE.INTRA.SOLV>
0

>  <SCORE.INTRA.SOLV.lig_0>
-4.28901

>  <SCORE.INTRA.VDW>
0

>  <SCORE.INTRA.VDW.0>
0

>  <SCORE.INTRA.norm>
0

>  <SCORE.RESTR>
0

>  <SCORE.RESTR.CAVITY>
0

>  <SCORE.RESTR.norm>
0

>  <SCORE.SYSTEM>
0

>  <SCORE.SYSTEM.CONST>
0

>  <SCORE.SYSTEM.DIHEDRAL>
0

>  <SCORE.SYSTEM.SOLV>
0

>  <SCORE.SYSTEM.norm>
0

>  <SCORE.heavy>
10

>  <SCORE.norm>
-1.70432

>  <RMSD>
1.110

$$$$
ligand
 OpenBabel11021811423D
libRbt.so/2013.1/901 2013/11/27
 10 11  0  0  0  0  0  0  0  0999 V2000
   11.4143   11.6719    8.6016 N   0  0  0  0  0  0  0  0  0  0  0  0
   11.1275   13.0142    8.4348 C   0  0  0  0  0  0  0  0  0  0  0  0
   10.8785   13.5462    7.2304 N   0  0  0  0  0  0  0  0  0  0  0  0
   10.9412   12.6409    6.2196 C   0  0  0  0  0  0  0  0  0  0  0  0
   11.2227   11.2896    6.3139 C   0  0  0  0  0  0  0  0  0  0  0  0
   11.4882   10.7104    7.5886 C   0  0  0  0  0  0  0  0  0  0  0  0
   11.7584    9.5422    7.9022 O   0  0  0  0  0  0  0  0  0  0  0  0
   11.1831   10.7534    5.0562 N   0  0  0  0  0  0  0  0  0  0  0  0
   10.8785   11.7714    4.2131 C   0  0  0  0  0  0  0  0  0  0  0  0
   10.7240   12.9479    4.8999 N   0  0  0  0  0  0  0  0  0  0  0  0
  1  2  1  0  0  0  0
  1  6  1  0  0  0  0
  2  3  2  0  0  0  0
  3  4  1  0  0  0  0
  4  5  2  0  0  0  0
  4 10  1  0  0  0  0
  5  6  1  0  0  0  0
  5  8  1  0  0  0  0
  6  7  2  0  0  0  0
  8  9  1  0  0  0  0
  9 10  2  0  0  0  0
M  END
>  <CHROM.1>
11.17291864,11.74761475,6.67192304,0.69144524,-1.34278216,1.03976382

>  <Name>
ligand

>  <RI>
0

>  <Rbt.Current_Directory>
/home/itssahil/PROJECTS/Mol_Feturizer/New_Systems/rnas/2EEW

>  <Rbt.Executable>
rbdock ($Id: //depot/dev/client3/rdock/2013.1/src/exe/rbdock.cxx#4 $)

>  <Rbt.Library>
libRbt.so (2013.1, Build901 2013/11/27)

>  <Rbt.Parameter_File>
/export/apps/rDock/src/rDock_2013.1_src/data/scripts/dock_solv.prm

>  <Rbt.Receptor>
prm/blind_docking_20.prm

>  <SCORE>
-16.3169

>  <SCORE.INTER>
-16.3445

>  <SCORE.INTER.CONST>
1

>  <SCORE.INTER.POLAR>
0

>  <SCORE.INTER.ROT>
0

>  <SCORE.INTER.SOLV>
3.53421

>  <SCORE.INTER.VDW>
-15.6744

>  <SCORE.INTER.norm>
-1.63445

>  <SCORE.INTRA>
0

>  <SCORE.INTRA.DIHEDRAL>
0

>  <SCORE.INTRA.DIHEDRAL.0>
0

>  <SCORE.INTRA.POLAR>
0

>  <SCORE.INTRA.POLAR.0>
0

>  <SCORE.INTRA.REPUL>
0

>  <SCORE.INTRA.REPUL.0>
0

>  <SCORE.INTRA.SOLV>
0

>  <SCORE.INTRA.SOLV.lig_0>
-4.28901

>  <SCORE.INTRA.VDW>
0

>  <SCORE.INTRA.VDW.0>
0

>  <SCORE.INTRA.norm>
0

>  <SCORE.RESTR>
0.0275403

>  <SCORE.RESTR.CAVITY>
0.0275403

>  <SCORE.RESTR.norm>
0.00275403

>  <SCORE.SYSTEM>
0

>  <SCORE.SYSTEM.CONST>
0

>  <SCORE.SYSTEM.DIHEDRAL>
0

>  <SCORE.SYSTEM.SOLV>
0

>  <SCORE.SYSTEM.norm>
0

>  <SCORE.heavy>
10

>  <SCORE.norm>
-1.63169

>  <RMSD>
1.116

$$$$
ligand
 OpenBabel11021811423D
libRbt.so/2013.1/901 2013/11/27
 10 11  0  0  0  0  0  0  0  0999 V2000
   11.4243   11.6723    8.5831 N   0  0  0  0  0  0  0  0  0  0  0  0
   11.1001   13.0068    8.4220 C   0  0  0  0  0  0  0  0  0  0  0  0
   10.8344   13.5363    7.2201 N   0  0  0  0  0  0  0  0  0  0  0  0
   10.9206   12.6370    6.2057 C   0  0  0  0  0  0  0  0  0  0  0  0
   11.2397   11.2937    6.2943 C   0  0  0  0  0  0  0  0  0  0  0  0
   11.5232   10.7172    7.5663 C   0  0  0  0  0  0  0  0  0  0  0  0
   11.8263    9.5558    7.8749 O   0  0  0  0  0  0  0  0  0  0  0  0
   11.2129   10.7615    5.0346 N   0  0  0  0  0  0  0  0  0  0  0  0
   10.8787   11.7739    4.1959 C   0  0  0  0  0  0  0  0  0  0  0  0
   10.6927   12.9430    4.8876 N   0  0  0  0  0  0  0  0  0  0  0  0
  1  2  1  0  0  0  0
  1  6  1  0  0  0  0
  2  3  2  0  0  0  0
  3  4  1  0  0  0  0
  4  5  2  0  0  0  0
  4 10  1  0  0  0  0
  5  6  1  0  0  0  0
  5  8  1  0  0  0  0
  6  7  2  0  0  0  0
  8  9  1  0  0  0  0
  9 10  2  0  0  0  0
M  END
>  <CHROM.1>
11.17773600,11.74878221,6.65417504,0.74199087,-1.31767251,1.09274871

>  <Name>
ligand

>  <RI>
0

>  <Rbt.Current_Directory>
/home/itssahil/PROJECTS/Mol_Feturizer/New_Systems/rnas/2EEW

>  <Rbt.Executable>
rbdock ($Id: //depot/dev/client3/rdock/2013.1/src/exe/rbdock.cxx#4 $)

>  <Rbt.Library>
libRbt.so (2013.1, Build901 2013/11/27)

>  <Rbt.Parameter_File>
/export/apps/rDock/src/rDock_2013.1_src/data/scripts/dock_solv.prm

>  <Rbt.Receptor>
prm/blind_docking_20.prm

>  <SCORE>
-16.1991

>  <SCORE.INTER>
-16.1992

>  <SCORE.INTER.CONST>
1

>  <SCORE.INTER.POLAR>
0

>  <SCORE.INTER.ROT>
0

>  <SCORE.INTER.SOLV>
3.43325

>  <SCORE.INTER.VDW>
-15.5439

>  <SCORE.INTER.norm>
-1.61992

>  <SCORE.INTRA>
0

>  <SCORE.INTRA.DIHEDRAL>
0

>  <SCORE.INTRA.DIHEDRAL.0>
0

>  <SCORE.INTRA.POLAR>
0

>  <SCORE.INTRA.POLAR.0>
0

>  <SCORE.INTRA.REPUL>
0

>  <SCORE.INTRA.REPUL.0>
0

>  <SCORE.INTRA.SOLV>
0

>  <SCORE.INTRA.SOLV.lig_0>
-4.28901

>  <SCORE.INTRA.VDW>
0

>  <SCORE.INTRA.VDW.0>
0

>  <SCORE.INTRA.norm>
0

>  <SCORE.RESTR>
8.23517e-05

>  <SCORE.RESTR.CAVITY>
8.23517e-05

>  <SCORE.RESTR.norm>
8.23517e-06

>  <SCORE.SYSTEM>
0

>  <SCORE.SYSTEM.CONST>
0

>  <SCORE.SYSTEM.DIHEDRAL>
0

>  <SCORE.SYSTEM.SOLV>
0

>  <SCORE.SYSTEM.norm>
0

>  <SCORE.heavy>
10

>  <SCORE.norm>
-1.61991

>  <RMSD>
1.125

$$$$
ligand
 OpenBabel11021811423D
libRbt.so/2013.1/901 2013/11/27
 10 11  0  0  0  0  0  0  0  0999 V2000
   11.4123   11.7212    8.5964 N   0  0  0  0  0  0  0  0  0  0  0  0
   11.1020   13.0575    8.4236 C   0  0  0  0  0  0  0  0  0  0  0  0
   10.8497   13.5810    7.2161 N   0  0  0  0  0  0  0  0  0  0  0  0
   10.9343   12.6736    6.2088 C   0  0  0  0  0  0  0  0  0  0  0  0
   11.2399   11.3280    6.3091 C   0  0  0  0  0  0  0  0  0  0  0  0
   11.5091   10.7580    7.5871 C   0  0  0  0  0  0  0  0  0  0  0  0
   11.7989    9.5960    7.9060 O   0  0  0  0  0  0  0  0  0  0  0  0
   11.2167   10.7871    5.0530 N   0  0  0  0  0  0  0  0  0  0  0  0
   10.8981   11.7966    4.2049 C   0  0  0  0  0  0  0  0  0  0  0  0
   10.7185   12.9723    4.8869 N   0  0  0  0  0  0  0  0  0  0  0  0
  1  2  1  0  0  0  0
  1  6  1  0  0  0  0
  2  3  2  0  0  0  0
  3  4  1  0  0  0  0
  4  5  2  0  0  0  0
  4 10  1  0  0  0  0
  5  6  1  0  0  0  0
  5  8  1  0  0  0  0
  6  7  2  0  0  0  0
  8  9  1  0  0  0  0
  9 10  2  0  0  0  0
M  END
>  <CHROM.1>
11.17982492,11.78624335,6.66529203,0.74928800,-1.32933929,1.09269282

>  <Name>
ligand

>  <RI>
0

>  <Rbt.Current_Directory>
/home/itssahil/PROJECTS/Mol_Feturizer/New_Systems/rnas/2EEW

>  <Rbt.Executable>
rbdock ($Id: //depot/dev/client3/rdock/2013.1/src/exe/rbdock.cxx#4 $)

>  <Rbt.Library>
libRbt.so (2013.1, Build901 2013/11/27)

>  <Rbt.Parameter_File>
/export/apps/rDock/src/rDock_2013.1_src/data/scripts/dock_solv.prm

>  <Rbt.Receptor>
prm/blind_docking_20.prm

>  <SCORE>
-16.2039

>  <SCORE.INTER>
-16.2059

>  <SCORE.INTER.CONST>
1

>  <SCORE.INTER.POLAR>
0

>  <SCORE.INTER.ROT>
0

>  <SCORE.INTER.SOLV>
3.46577

>  <SCORE.INTER.VDW>
-15.5592

>  <SCORE.INTER.norm>
-1.62059

>  <SCORE.INTRA>
0

>  <SCORE.INTRA.DIHEDRAL>
0

>  <SCORE.INTRA.DIHEDRAL.0>
0

>  <SCORE.INTRA.POLAR>
0

>  <SCORE.INTRA.POLAR.0>
0

>  <SCORE.INTRA.REPUL>
0

>  <SCORE.INTRA.REPUL.0>
0

>  <SCORE.INTRA.SOLV>
0

>  <SCORE.INTRA.SOLV.lig_0>
-4.28901

>  <SCORE.INTRA.VDW>
0

>  <SCORE.INTRA.VDW.0>
0

>  <SCORE.INTRA.norm>
0

>  <SCORE.RESTR>
0.00197273

>  <SCORE.RESTR.CAVITY>
0.00197273

>  <SCORE.RESTR.norm>
0.000197273

>  <SCORE.SYSTEM>
0

>  <SCORE.SYSTEM.CONST>
0

>  <SCORE.SYSTEM.DIHEDRAL>
0

>  <SCORE.SYSTEM.SOLV>
0

>  <SCORE.SYSTEM.norm>
0

>  <SCORE.heavy>
10

>  <SCORE.norm>
-1.62039

>  <RMSD>
1.134

$$$$
ligand
 OpenBabel11021811423D
libRbt.so/2013.1/901 2013/11/27
 10 11  0  0  0  0  0  0  0  0999 V2000
   11.3777   11.7120    8.6070 N   0  0  0  0  0  0  0  0  0  0  0  0
   11.1025   13.0524    8.4083 C   0  0  0  0  0  0  0  0  0  0  0  0
   10.8760   13.5611    7.1895 N   0  0  0  0  0  0  0  0  0  0  0  0
   10.9487   12.6349    6.1986 C   0  0  0  0  0  0  0  0  0  0  0  0
   11.2197   11.2841    6.3248 C   0  0  0  0  0  0  0  0  0  0  0  0
   11.4613   10.7295    7.6152 C   0  0  0  0  0  0  0  0  0  0  0  0
   11.7188    9.5664    7.9567 O   0  0  0  0  0  0  0  0  0  0  0  0
   11.1964   10.7225    5.0779 N   0  0  0  0  0  0  0  0  0  0  0  0
   10.9119   11.7249    4.2094 C   0  0  0  0  0  0  0  0  0  0  0  0
   10.7544   12.9162    4.8696 N   0  0  0  0  0  0  0  0  0  0  0  0
  1  2  1  0  0  0  0
  1  6  1  0  0  0  0
  2  3  2  0  0  0  0
  3  4  1  0  0  0  0
  4  5  2  0  0  0  0
  4 10  1  0  0  0  0
  5  6  1  0  0  0  0
  5  8  1  0  0  0  0
  6  7  2  0  0  0  0
  8  9  1  0  0  0  0
  9 10  2  0  0  0  0
M  END
>  <CHROM.1>
11.16733249,11.74967847,6.67263427,0.73962390,-1.35621994,1.06631873

>  <Name>
ligand

>  <RI>
0

>  <Rbt.Current_Directory>
/home/itssahil/PROJECTS/Mol_Feturizer/New_Systems/rnas/2EEW

>  <Rbt.Executable>
rbdock ($Id: //depot/dev/client3/rdock/2013.1/src/exe/rbdock.cxx#4 $)

>  <Rbt.Library>
libRbt.so (2013.1, Build901 2013/11/27)

>  <Rbt.Parameter_File>
/export/apps/rDock/src/rDock_2013.1_src/data/scripts/dock_solv.prm

>  <Rbt.Receptor>
prm/blind_docking_20.prm

>  <SCORE>
-16.2243

>  <SCORE.INTER>
-16.2268

>  <SCORE.INTER.CONST>
1

>  <SCORE.INTER.POLAR>
0

>  <SCORE.INTER.ROT>
0

>  <SCORE.INTER.SOLV>
3.60102

>  <SCORE.INTER.VDW>
-15.6182

>  <SCORE.INTER.norm>
-1.62268

>  <SCORE.INTRA>
0

>  <SCORE.INTRA.DIHEDRAL>
0

>  <SCORE.INTRA.DIHEDRAL.0>
0

>  <SCORE.INTRA.POLAR>
0

>  <SCORE.INTRA.POLAR.0>
0

>  <SCORE.INTRA.REPUL>
0

>  <SCORE.INTRA.REPUL.0>
0

>  <SCORE.INTRA.SOLV>
0

>  <SCORE.INTRA.SOLV.lig_0>
-4.28901

>  <SCORE.INTRA.VDW>
0

>  <SCORE.INTRA.VDW.0>
0

>  <SCORE.INTRA.norm>
0

>  <SCORE.RESTR>
0.00252244

>  <SCORE.RESTR.CAVITY>
0.00252244

>  <SCORE.RESTR.norm>
0.000252244

>  <SCORE.SYSTEM>
0

>  <SCORE.SYSTEM.CONST>
0

>  <SCORE.SYSTEM.DIHEDRAL>
0

>  <SCORE.SYSTEM.SOLV>
0

>  <SCORE.SYSTEM.norm>
0

>  <SCORE.heavy>
10

>  <SCORE.norm>
-1.62243

>  <RMSD>
1.142

$$$$
ligand
 OpenBabel11021811423D
libRbt.so/2013.1/901 2013/11/27
 10 11  0  0  0  0  0  0  0  0999 V2000
   11.4248   11.6836    8.5607 N   0  0  0  0  0  0  0  0  0  0  0  0
   11.1147   13.0189    8.3799 C   0  0  0  0  0  0  0  0  0  0  0  0
   10.8652   13.5357    7.1690 N   0  0  0  0  0  0  0  0  0  0  0  0
   10.9525   12.6230    6.1668 C   0  0  0  0  0  0  0  0  0  0  0  0
   11.2581   11.2779    6.2751 C   0  0  0  0  0  0  0  0  0  0  0  0
   11.5243   10.7149    7.5569 C   0  0  0  0  0  0  0  0  0  0  0  0
   11.8135    9.5547    7.8828 O   0  0  0  0  0  0  0  0  0  0  0  0
   11.2381   10.7302    5.0219 N   0  0  0  0  0  0  0  0  0  0  0  0
   10.9214   11.7351    4.1676 C   0  0  0  0  0  0  0  0  0  0  0  0
   10.7399   12.9145    4.8428 N   0  0  0  0  0  0  0  0  0  0  0  0
  1  2  1  0  0  0  0
  1  6  1  0  0  0  0
  2  3  2  0  0  0  0
  3  4  1  0  0  0  0
  4  5  2  0  0  0  0
  4 10  1  0  0  0  0
  5  6  1  0  0  0  0
  5  8  1  0  0  0  0
  6  7  2  0  0  0  0
  8  9  1  0  0  0  0
  9 10  2  0  0  0  0
M  END
>  <CHROM.1>
11.19705776,11.73809564,6.62869996,0.75874739,-1.33030975,1.09647288

>  <Name>
ligand

>  <RI>
0

>  <Rbt.Current_Directory>
/home/itssahil/PROJECTS/Mol_Feturizer/New_Systems/rnas/2EEW

>  <Rbt.Executable>
rbdock ($Id: //depot/dev/client3/rdock/2013.1/src/exe/rbdock.cxx#4 $)

>  <Rbt.Library>
libRbt.so (2013.1, Build901 2013/11/27)

>  <Rbt.Parameter_File>
/export/apps/rDock/src/rDock_2013.1_src/data/scripts/dock_solv.prm

>  <Rbt.Receptor>
prm/blind_docking_20.prm

>  <SCORE>
-16.2763

>  <SCORE.INTER>
-16.291

>  <SCORE.INTER.CONST>
1

>  <SCORE.INTER.POLAR>
0

>  <SCORE.INTER.ROT>
0

>  <SCORE.INTER.SOLV>
3.46229

>  <SCORE.INTER.VDW>
-15.6148

>  <SCORE.INTER.norm>
-1.6291

>  <SCORE.INTRA>
0

>  <SCORE.INTRA.DIHEDRAL>
0

>  <SCORE.INTRA.DIHEDRAL.0>
0

>  <SCORE.INTRA.POLAR>
0

>  <SCORE.INTRA.POLAR.0>
0

>  <SCORE.INTRA.REPUL>
0

>  <SCORE.INTRA.REPUL.0>
0

>  <SCORE.INTRA.SOLV>
0

>  <SCORE.INTRA.SOLV.lig_0>
-4.28901

>  <SCORE.INTRA.VDW>
0

>  <SCORE.INTRA.VDW.0>
0

>  <SCORE.INTRA.norm>
0

>  <SCORE.RESTR>
0.0146845

>  <SCORE.RESTR.CAVITY>
0.0146845

>  <SCORE.RESTR.norm>
0.00146845

>  <SCORE.SYSTEM>
0

>  <SCORE.SYSTEM.CONST>
0

>  <SCORE.SYSTEM.DIHEDRAL>
0

>  <SCORE.SYSTEM.SOLV>
0

>  <SCORE.SYSTEM.norm>
0

>  <SCORE.heavy>
10

>  <SCORE.norm>
-1.62763

>  <RMSD>
1.150

$$$$
ligand
 OpenBabel11021811423D
libRbt.so/2013.1/901 2013/11/27
 10 11  0  0  0  0  0  0  0  0999 V2000
   11.4177   11.6549    8.5397 N   0  0  0  0  0  0  0  0  0  0  0  0
   11.1026   12.9939    8.3989 C   0  0  0  0  0  0  0  0  0  0  0  0
   10.8511   13.5457    7.2040 N   0  0  0  0  0  0  0  0  0  0  0  0
   10.9415   12.6636    6.1750 C   0  0  0  0  0  0  0  0  0  0  0  0
   11.2520   11.3171    6.2430 C   0  0  0  0  0  0  0  0  0  0  0  0
   11.5206   10.7170    7.5074 C   0  0  0  0  0  0  0  0  0  0  0  0
   11.8141    9.5487    7.7985 O   0  0  0  0  0  0  0  0  0  0  0  0
   11.2338   10.8070    4.9741 N   0  0  0  0  0  0  0  0  0  0  0  0
   10.9132   11.8357    4.1501 C   0  0  0  0  0  0  0  0  0  0  0  0
   10.7275   12.9937    4.8603 N   0  0  0  0  0  0  0  0  0  0  0  0
  1  2  1  0  0  0  0
  1  6  1  0  0  0  0
  2  3  2  0  0  0  0
  3  4  1  0  0  0  0
  4  5  2  0  0  0  0
  4 10  1  0  0  0  0
  5  6  1  0  0  0  0
  5  8  1  0  0  0  0
  6  7  2  0  0  0  0
  8  9  1  0  0  0  0
  9 10  2  0  0  0  0
M  END
>  <CHROM.1>
11.18939834,11.76626349,6.61020028,0.76500625,-1.32693129,1.13241643

>  <Name>
ligand

>  <RI>
0

>  <Rbt.Current_Directory>
/home/itssahil/PROJECTS/Mol_Feturizer/New_Systems/rnas/2EEW

>  <Rbt.Executable>
rbdock ($Id: //depot/dev/client3/rdock/2013.1/src/exe/rbdock.cxx#4 $)

>  <Rbt.Library>
libRbt.so (2013.1, Build901 2013/11/27)

>  <Rbt.Parameter_File>
/export/apps/rDock/src/rDock_2013.1_src/data/scripts/dock_solv.prm

>  <Rbt.Receptor>
prm/blind_docking_20.prm

>  <SCORE>
-16.1729

>  <SCORE.INTER>
-16.1755

>  <SCORE.INTER.CONST>
1

>  <SCORE.INTER.POLAR>
0

>  <SCORE.INTER.ROT>
0

>  <SCORE.INTER.SOLV>
3.43279

>  <SCORE.INTER.VDW>
-15.5279

>  <SCORE.INTER.norm>
-1.61755

>  <SCORE.INTRA>
0

>  <SCORE.INTRA.DIHEDRAL>
0

>  <SCORE.INTRA.DIHEDRAL.0>
0

>  <SCORE.INTRA.POLAR>
0

>  <SCORE.INTRA.POLAR.0>
0

>  <SCORE.INTRA.REPUL>
0

>  <SCORE.INTRA.REPUL.0>
0

>  <SCORE.INTRA.SOLV>
0

>  <SCORE.INTRA.SOLV.lig_0>
-4.28901

>  <SCORE.INTRA.VDW>
0

>  <SCORE.INTRA.VDW.0>
0

>  <SCORE.INTRA.norm>
0

>  <SCORE.RESTR>
0.00264171

>  <SCORE.RESTR.CAVITY>
0.00264171

>  <SCORE.RESTR.norm>
0.000264171

>  <SCORE.SYSTEM>
0

>  <SCORE.SYSTEM.CONST>
0

>  <SCORE.SYSTEM.DIHEDRAL>
0

>  <SCORE.SYSTEM.SOLV>
0

>  <SCORE.SYSTEM.norm>
0

>  <SCORE.heavy>
10

>  <SCORE.norm>
-1.61729

>  <RMSD>
1.150

$$$$
ligand
 OpenBabel11021811423D
libRbt.so/2013.1/901 2013/11/27
 10 11  0  0  0  0  0  0  0  0999 V2000
   11.4060   11.6999    8.5726 N   0  0  0  0  0  0  0  0  0  0  0  0
   11.1024   13.0374    8.3974 C   0  0  0  0  0  0  0  0  0  0  0  0
   10.8530   13.5600    7.1889 N   0  0  0  0  0  0  0  0  0  0  0  0
   10.9335   12.6505    6.1832 C   0  0  0  0  0  0  0  0  0  0  0  0
   11.2325   11.3036    6.2858 C   0  0  0  0  0  0  0  0  0  0  0  0
   11.4985   10.7345    7.5650 C   0  0  0  0  0  0  0  0  0  0  0  0
   11.7825    9.5716    7.8860 O   0  0  0  0  0  0  0  0  0  0  0  0
   11.2071   10.7606    5.0307 N   0  0  0  0  0  0  0  0  0  0  0  0
   10.8937   11.7702    4.1807 C   0  0  0  0  0  0  0  0  0  0  0  0
   10.7197   12.9480    4.8607 N   0  0  0  0  0  0  0  0  0  0  0  0
  1  2  1  0  0  0  0
  1  6  1  0  0  0  0
  2  3  2  0  0  0  0
  3  4  1  0  0  0  0
  4  5  2  0  0  0  0
  4 10  1  0  0  0  0
  5  6  1  0  0  0  0
  5  8  1  0  0  0  0
  6  7  2  0  0  0  0
  8  9  1  0  0  0  0
  9 10  2  0  0  0  0
M  END
>  <CHROM.1>
11.17455874,11.76270908,6.64127624,0.74094028,-1.33384681,1.08286735

>  <Name>
ligand

>  <RI>
0

>  <Rbt.Current_Directory>
/home/itssahil/PROJECTS/Mol_Feturizer/New_Systems/rnas/2EEW

>  <Rbt.Executable>
rbdock ($Id: //depot/dev/client3/rdock/2013.1/src/exe/rbdock.cxx#4 $)

>  <Rbt.Library>
libRbt.so (2013.1, Build901 2013/11/27)

>  <Rbt.Parameter_File>
/export/apps/rDock/src/rDock_2013.1_src/data/scripts/dock_solv.prm

>  <Rbt.Receptor>
prm/blind_docking_20.prm

>  <SCORE>
-16.2576

>  <SCORE.INTER>
-16.26

>  <SCORE.INTER.CONST>
1

>  <SCORE.INTER.POLAR>
0

>  <SCORE.INTER.ROT>
0

>  <SCORE.INTER.SOLV>
3.48551

>  <SCORE.INTER.VDW>
-15.6018

>  <SCORE.INTER.norm>
-1.626

>  <SCORE.INTRA>
0

>  <SCORE.INTRA.DIHEDRAL>
0

>  <SCORE.INTRA.DIHEDRAL.0>
0

>  <SCORE.INTRA.POLAR>
0

>  <SCORE.INTRA.POLAR.0>
0

>  <SCORE.INTRA.REPUL>
0

>  <SCORE.INTRA.REPUL.0>
0

>  <SCORE.INTRA.SOLV>
0

>  <SCORE.INTRA.SOLV.lig_0>
-4.28901

>  <SCORE.INTRA.VDW>
0

>  <SCORE.INTRA.VDW.0>
0

>  <SCORE.INTRA.norm>
0

>  <SCORE.RESTR>
0.0023566

>  <SCORE.RESTR.CAVITY>
0.0023566

>  <SCORE.RESTR.norm>
0.00023566

>  <SCORE.SYSTEM>
0

>  <SCORE.SYSTEM.CONST>
0

>  <SCORE.SYSTEM.DIHEDRAL>
0

>  <SCORE.SYSTEM.SOLV>
0

>  <SCORE.SYSTEM.norm>
0

>  <SCORE.heavy>
10

>  <SCORE.norm>
-1.62576

>  <RMSD>
1.150

$$$$
ligand
 OpenBabel11021811423D
libRbt.so/2013.1/901 2013/11/27
 10 11  0  0  0  0  0  0  0  0999 V2000
   11.7890   10.9706    9.2442 N   0  0  0  0  0  0  0  0  0  0  0  0
   11.8236    9.8735    8.4033 C   0  0  0  0  0  0  0  0  0  0  0  0
   11.6434    9.9829    7.0800 N   0  0  0  0  0  0  0  0  0  0  0  0
   11.4260   11.2598    6.6711 C   0  0  0  0  0  0  0  0  0  0  0  0
   11.3772   12.3995    7.4539 C   0  0  0  0  0  0  0  0  0  0  0  0
   11.5683   12.2978    8.8624 C   0  0  0  0  0  0  0  0  0  0  0  0
   11.5663   13.1721    9.7409 O   0  0  0  0  0  0  0  0  0  0  0  0
   11.1346   13.4709    6.6390 N   0  0  0  0  0  0  0  0  0  0  0  0
   11.0406   12.9815    5.3774 C   0  0  0  0  0  0  0  0  0  0  0  0
   11.2149   11.6216    5.3643 N   0  0  0  0  0  0  0  0  0  0  0  0
  1  2  1  0  0  0  0
  1  6  1  0  0  0  0
  2  3  2  0  0  0  0
  3  4  1  0  0  0  0
  4  5  2  0  0  0  0
  4 10  1  0  0  0  0
  5  6  1  0  0  0  0
  5  8  1  0  0  0  0
  6  7  2  0  0  0  0
  8  9  1  0  0  0  0
  9 10  2  0  0  0  0
M  END
>  <CHROM.1>
11.46086928,11.82674514,7.52753663,-0.62795475,1.39186476,-2.34316207

>  <Name>
ligand

>  <RI>
0

>  <Rbt.Current_Directory>
/home/itssahil/PROJECTS/Mol_Feturizer/New_Systems/rnas/2EEW

>  <Rbt.Executable>
rbdock ($Id: //depot/dev/client3/rdock/2013.1/src/exe/rbdock.cxx#4 $)

>  <Rbt.Library>
libRbt.so (2013.1, Build901 2013/11/27)

>  <Rbt.Parameter_File>
/export/apps/rDock/src/rDock_2013.1_src/data/scripts/dock_solv.prm

>  <Rbt.Receptor>
prm/blind_docking_100.prm

>  <SCORE>
-16.1961

>  <SCORE.INTER>
-16.1963

>  <SCORE.INTER.CONST>
1

>  <SCORE.INTER.POLAR>
0

>  <SCORE.INTER.ROT>
0

>  <SCORE.INTER.SOLV>
4.05579

>  <SCORE.INTER.VDW>
-15.7494

>  <SCORE.INTER.norm>
-1.61963

>  <SCORE.INTRA>
0

>  <SCORE.INTRA.DIHEDRAL>
0

>  <SCORE.INTRA.DIHEDRAL.0>
0

>  <SCORE.INTRA.POLAR>
0

>  <SCORE.INTRA.POLAR.0>
0

>  <SCORE.INTRA.REPUL>
0

>  <SCORE.INTRA.REPUL.0>
0

>  <SCORE.INTRA.SOLV>
0

>  <SCORE.INTRA.SOLV.lig_0>
-4.28901

>  <SCORE.INTRA.VDW>
0

>  <SCORE.INTRA.VDW.0>
0

>  <SCORE.INTRA.norm>
0

>  <SCORE.RESTR>
0.00017548

>  <SCORE.RESTR.CAVITY>
0.00017548

>  <SCORE.RESTR.norm>
1.7548e-05

>  <SCORE.SYSTEM>
0

>  <SCORE.SYSTEM.CONST>
0

>  <SCORE.SYSTEM.DIHEDRAL>
0

>  <SCORE.SYSTEM.SOLV>
0

>  <SCORE.SYSTEM.norm>
0

>  <SCORE.heavy>
10

>  <SCORE.norm>
-1.61961

>  <RMSD>
2.428

$$$$
ligand
 OpenBabel11021811423D
libRbt.so/2013.1/901 2013/11/27
 10 11  0  0  0  0  0  0  0  0999 V2000
   11.7991   10.9558    9.2049 N   0  0  0  0  0  0  0  0  0  0  0  0
   11.8466    9.8704    8.3497 C   0  0  0  0  0  0  0  0  0  0  0  0
   11.6617    9.9946    7.0283 N   0  0  0  0  0  0  0  0  0  0  0  0
   11.4258   11.2736    6.6366 C   0  0  0  0  0  0  0  0  0  0  0  0
   11.3632   12.4022    7.4344 C   0  0  0  0  0  0  0  0  0  0  0  0
   11.5592   12.2848    8.8411 C   0  0  0  0  0  0  0  0  0  0  0  0
   11.5474   13.1474    9.7309 O   0  0  0  0  0  0  0  0  0  0  0  0
   11.1040   13.4807    6.6341 N   0  0  0  0  0  0  0  0  0  0  0  0
   11.0135   13.0066    5.3665 C   0  0  0  0  0  0  0  0  0  0  0  0
   11.2065   11.6495    5.3352 N   0  0  0  0  0  0  0  0  0  0  0  0
  1  2  1  0  0  0  0
  1  6  1  0  0  0  0
  2  3  2  0  0  0  0
  3  4  1  0  0  0  0
  4  5  2  0  0  0  0
  4 10  1  0  0  0  0
  5  6  1  0  0  0  0
  5  8  1  0  0  0  0
  6  7  2  0  0  0  0
  8  9  1  0  0  0  0
  9 10  2  0  0  0  0
M  END
>  <CHROM.1>
11.45495336,11.82974258,7.50033886,-0.66921375,1.38014943,-2.28952902

>  <Name>
ligand

>  <RI>
0

>  <Rbt.Current_Directory>
/home/itssahil/PROJECTS/Mol_Feturizer/New_Systems/rnas/2EEW

>  <Rbt.Executable>
rbdock ($Id: //depot/dev/client3/rdock/2013.1/src/exe/rbdock.cxx#4 $)

>  <Rbt.Library>
libRbt.so (2013.1, Build901 2013/11/27)

>  <Rbt.Parameter_File>
/export/apps/rDock/src/rDock_2013.1_src/data/scripts/dock_solv.prm

>  <Rbt.Receptor>
prm/blind_docking_80.prm

>  <SCORE>
-16.1676

>  <SCORE.INTER>
-16.1676

>  <SCORE.INTER.CONST>
1

>  <SCORE.INTER.POLAR>
0

>  <SCORE.INTER.ROT>
0

>  <SCORE.INTER.SOLV>
4.01589

>  <SCORE.INTER.VDW>
-15.7171

>  <SCORE.INTER.norm>
-1.61676

>  <SCORE.INTRA>
0

>  <SCORE.INTRA.DIHEDRAL>
0

>  <SCORE.INTRA.DIHEDRAL.0>
0

>  <SCORE.INTRA.POLAR>
0

>  <SCORE.INTRA.POLAR.0>
0

>  <SCORE.INTRA.REPUL>
0

>  <SCORE.INTRA.REPUL.0>
0

>  <SCORE.INTRA.SOLV>
0

>  <SCORE.INTRA.SOLV.lig_0>
-4.28901

>  <SCORE.INTRA.VDW>
0

>  <SCORE.INTRA.VDW.0>
0

>  <SCORE.INTRA.norm>
0

>  <SCORE.RESTR>
0

>  <SCORE.RESTR.CAVITY>
0

>  <SCORE.RESTR.norm>
0

>  <SCORE.SYSTEM>
0

>  <SCORE.SYSTEM.CONST>
0

>  <SCORE.SYSTEM.DIHEDRAL>
0

>  <SCORE.SYSTEM.SOLV>
0

>  <SCORE.SYSTEM.norm>
0

>  <SCORE.heavy>
10

>  <SCORE.norm>
-1.61676

>  <RMSD>
2.429

$$$$
ligand
 OpenBabel11021811423D
libRbt.so/2013.1/901 2013/11/27
 10 11  0  0  0  0  0  0  0  0999 V2000
   11.8116   10.9700    9.2153 N   0  0  0  0  0  0  0  0  0  0  0  0
   11.8334    9.8844    8.3592 C   0  0  0  0  0  0  0  0  0  0  0  0
   11.6355   10.0120    7.0400 N   0  0  0  0  0  0  0  0  0  0  0  0
   11.4141   11.2947    6.6515 C   0  0  0  0  0  0  0  0  0  0  0  0
   11.3772   12.4236    7.4504 C   0  0  0  0  0  0  0  0  0  0  0  0
   11.5873   12.3025    8.8546 C   0  0  0  0  0  0  0  0  0  0  0  0
   11.5983   13.1648    9.7448 O   0  0  0  0  0  0  0  0  0  0  0  0
   11.1250   13.5062    6.6534 N   0  0  0  0  0  0  0  0  0  0  0  0
   11.0132   13.0342    5.3867 C   0  0  0  0  0  0  0  0  0  0  0  0
   11.1857   11.6744    5.3527 N   0  0  0  0  0  0  0  0  0  0  0  0
  1  2  1  0  0  0  0
  1  6  1  0  0  0  0
  2  3  2  0  0  0  0
  3  4  1  0  0  0  0
  4  5  2  0  0  0  0
  4 10  1  0  0  0  0
  5  6  1  0  0  0  0
  5  8  1  0  0  0  0
  6  7  2  0  0  0  0
  8  9  1  0  0  0  0
  9 10  2  0  0  0  0
M  END
>  <CHROM.1>
11.46121315,11.84980764,7.51503356,-0.57144243,1.38298620,-2.38511914

>  <Name>
ligand

>  <RI>
0

>  <Rbt.Current_Directory>
/home/itssahil/PROJECTS/Mol_Feturizer/New_Systems/rnas/2EEW

>  <Rbt.Executable>
rbdock ($Id: //depot/dev/client3/rdock/2013.1/src/exe/rbdock.cxx#4 $)

>  <Rbt.Library>
libRbt.so (2013.1, Build901 2013/11/27)

>  <Rbt.Parameter_File>
/export/apps/rDock/src/rDock_2013.1_src/data/scripts/dock_solv.prm

>  <Rbt.Receptor>
prm/blind_docking_80.prm

>  <SCORE>
-16.1687

>  <SCORE.INTER>
-16.1687

>  <SCORE.INTER.CONST>
1

>  <SCORE.INTER.POLAR>
0

>  <SCORE.INTER.ROT>
0

>  <SCORE.INTER.SOLV>
4.04608

>  <SCORE.INTER.VDW>
-15.7278

>  <SCORE.INTER.norm>
-1.61687

>  <SCORE.INTRA>
0

>  <SCORE.INTRA.DIHEDRAL>
0

>  <SCORE.INTRA.DIHEDRAL.0>
0

>  <SCORE.INTRA.POLAR>
0

>  <SCORE.INTRA.POLAR.0>
0

>  <SCORE.INTRA.REPUL>
0

>  <SCORE.INTRA.REPUL.0>
0

>  <SCORE.INTRA.SOLV>
0

>  <SCORE.INTRA.SOLV.lig_0>
-4.28901

>  <SCORE.INTRA.VDW>
0

>  <SCORE.INTRA.VDW.0>
0

>  <SCORE.INTRA.norm>
0

>  <SCORE.RESTR>
0

>  <SCORE.RESTR.CAVITY>
0

>  <SCORE.RESTR.norm>
0

>  <SCORE.SYSTEM>
0

>  <SCORE.SYSTEM.CONST>
0

>  <SCORE.SYSTEM.DIHEDRAL>
0

>  <SCORE.SYSTEM.SOLV>
0

>  <SCORE.SYSTEM.norm>
0

>  <SCORE.heavy>
10

>  <SCORE.norm>
-1.61687

>  <RMSD>
2.429

$$$$
ligand
 OpenBabel11021811423D
libRbt.so/2013.1/901 2013/11/27
 10 11  0  0  0  0  0  0  0  0999 V2000
   11.7914   10.9753    9.2092 N   0  0  0  0  0  0  0  0  0  0  0  0
   11.8361    9.8852    8.3597 C   0  0  0  0  0  0  0  0  0  0  0  0
   11.6463   10.0022    7.0384 N   0  0  0  0  0  0  0  0  0  0  0  0
   11.4085   11.2791    6.6407 C   0  0  0  0  0  0  0  0  0  0  0  0
   11.3485   12.4120    7.4326 C   0  0  0  0  0  0  0  0  0  0  0  0
   11.5497   12.3021    8.8391 C   0  0  0  0  0  0  0  0  0  0  0  0
   11.5409   13.1695    9.7243 O   0  0  0  0  0  0  0  0  0  0  0  0
   11.0859   13.4860    6.6275 N   0  0  0  0  0  0  0  0  0  0  0  0
   10.9910   13.0050    5.3627 C   0  0  0  0  0  0  0  0  0  0  0  0
   11.1843   11.6479    5.3380 N   0  0  0  0  0  0  0  0  0  0  0  0
  1  2  1  0  0  0  0
  1  6  1  0  0  0  0
  2  3  2  0  0  0  0
  3  4  1  0  0  0  0
  4  5  2  0  0  0  0
  4 10  1  0  0  0  0
  5  6  1  0  0  0  0
  5  8  1  0  0  0  0
  6  7  2  0  0  0  0
  8  9  1  0  0  0  0
  9 10  2  0  0  0  0
M  END
>  <CHROM.1>
11.44066730,11.83986301,7.50126580,-0.65590744,1.37744690,-2.30798507

>  <Name>
ligand

>  <RI>
0

>  <Rbt.Current_Directory>
/home/itssahil/PROJECTS/Mol_Feturizer/New_Systems/rnas/2EEW

>  <Rbt.Executable>
rbdock ($Id: //depot/dev/client3/rdock/2013.1/src/exe/rbdock.cxx#4 $)

>  <Rbt.Library>
libRbt.so (2013.1, Build901 2013/11/27)

>  <Rbt.Parameter_File>
/export/apps/rDock/src/rDock_2013.1_src/data/scripts/dock_solv.prm

>  <Rbt.Receptor>
prm/blind_docking_60.prm

>  <SCORE>
-16.1739

>  <SCORE.INTER>
-16.1739

>  <SCORE.INTER.CONST>
1

>  <SCORE.INTER.POLAR>
0

>  <SCORE.INTER.ROT>
0

>  <SCORE.INTER.SOLV>
4.02498

>  <SCORE.INTER.VDW>
-15.7243

>  <SCORE.INTER.norm>
-1.61739

>  <SCORE.INTRA>
0

>  <SCORE.INTRA.DIHEDRAL>
0

>  <SCORE.INTRA.DIHEDRAL.0>
0

>  <SCORE.INTRA.POLAR>
0

>  <SCORE.INTRA.POLAR.0>
0

>  <SCORE.INTRA.REPUL>
0

>  <SCORE.INTRA.REPUL.0>
0

>  <SCORE.INTRA.SOLV>
0

>  <SCORE.INTRA.SOLV.lig_0>
-4.28901

>  <SCORE.INTRA.VDW>
0

>  <SCORE.INTRA.VDW.0>
0

>  <SCORE.INTRA.norm>
0

>  <SCORE.RESTR>
0

>  <SCORE.RESTR.CAVITY>
0

>  <SCORE.RESTR.norm>
0

>  <SCORE.SYSTEM>
0

>  <SCORE.SYSTEM.CONST>
0

>  <SCORE.SYSTEM.DIHEDRAL>
0

>  <SCORE.SYSTEM.SOLV>
0

>  <SCORE.SYSTEM.norm>
0

>  <SCORE.heavy>
10

>  <SCORE.norm>
-1.61739

>  <RMSD>
2.430

$$$$
ligand
 OpenBabel11021811423D
libRbt.so/2013.1/901 2013/11/27
 10 11  0  0  0  0  0  0  0  0999 V2000
   11.7923   10.9766    9.2264 N   0  0  0  0  0  0  0  0  0  0  0  0
   11.8203    9.8890    8.3730 C   0  0  0  0  0  0  0  0  0  0  0  0
   11.6290   10.0133    7.0525 N   0  0  0  0  0  0  0  0  0  0  0  0
   11.4076   11.2947    6.6599 C   0  0  0  0  0  0  0  0  0  0  0  0
   11.3648   12.4254    7.4560 C   0  0  0  0  0  0  0  0  0  0  0  0
   11.5677   12.3079    8.8616 C   0  0  0  0  0  0  0  0  0  0  0  0
   11.5727   13.1722    9.7498 O   0  0  0  0  0  0  0  0  0  0  0  0
   11.1149   13.5058    6.6552 N   0  0  0  0  0  0  0  0  0  0  0  0
   11.0105   13.0306    5.3890 C   0  0  0  0  0  0  0  0  0  0  0  0
   11.1854   11.6711    5.3591 N   0  0  0  0  0  0  0  0  0  0  0  0
  1  2  1  0  0  0  0
  1  6  1  0  0  0  0
  2  3  2  0  0  0  0
  3  4  1  0  0  0  0
  4  5  2  0  0  0  0
  4 10  1  0  0  0  0
  5  6  1  0  0  0  0
  5  8  1  0  0  0  0
  6  7  2  0  0  0  0
  8  9  1  0  0  0  0
  9 10  2  0  0  0  0
M  END
>  <CHROM.1>
11.44936937,11.85188201,7.52238238,-0.59717140,1.38560063,-2.36213428

>  <Name>
ligand

>  <RI>
0

>  <Rbt.Current_Directory>
/home/itssahil/PROJECTS/Mol_Feturizer/New_Systems/rnas/2EEW

>  <Rbt.Executable>
rbdock ($Id: //depot/dev/client3/rdock/2013.1/src/exe/rbdock.cxx#4 $)

>  <Rbt.Library>
libRbt.so (2013.1, Build901 2013/11/27)

>  <Rbt.Parameter_File>
/export/apps/rDock/src/rDock_2013.1_src/data/scripts/dock_solv.prm

>  <Rbt.Receptor>
prm/pocket_docking_6.prm

>  <SCORE>
-16.1755

>  <SCORE.INTER>
-16.1755

>  <SCORE.INTER.CONST>
1

>  <SCORE.INTER.POLAR>
0

>  <SCORE.INTER.ROT>
0

>  <SCORE.INTER.SOLV>
4.0553

>  <SCORE.INTER.VDW>
-15.7354

>  <SCORE.INTER.norm>
-1.61755

>  <SCORE.INTRA>
0

>  <SCORE.INTRA.DIHEDRAL>
0

>  <SCORE.INTRA.DIHEDRAL.0>
0

>  <SCORE.INTRA.POLAR>
0

>  <SCORE.INTRA.POLAR.0>
0

>  <SCORE.INTRA.REPUL>
0

>  <SCORE.INTRA.REPUL.0>
0

>  <SCORE.INTRA.SOLV>
0

>  <SCORE.INTRA.SOLV.lig_0>
-4.28901

>  <SCORE.INTRA.VDW>
0

>  <SCORE.INTRA.VDW.0>
0

>  <SCORE.INTRA.norm>
0

>  <SCORE.RESTR>
0

>  <SCORE.RESTR.CAVITY>
0

>  <SCORE.RESTR.norm>
0

>  <SCORE.SYSTEM>
0

>  <SCORE.SYSTEM.CONST>
0

>  <SCORE.SYSTEM.DIHEDRAL>
0

>  <SCORE.SYSTEM.SOLV>
0

>  <SCORE.SYSTEM.norm>
0

>  <SCORE.heavy>
10

>  <SCORE.norm>
-1.61755

>  <RMSD>
2.430

$$$$
ligand
 OpenBabel11021811423D
libRbt.so/2013.1/901 2013/11/27
 10 11  0  0  0  0  0  0  0  0999 V2000
   11.7682   10.9687    9.2468 N   0  0  0  0  0  0  0  0  0  0  0  0
   11.8321    9.8733    8.4055 C   0  0  0  0  0  0  0  0  0  0  0  0
   11.6591    9.9800    7.0810 N   0  0  0  0  0  0  0  0  0  0  0  0
   11.4175   11.2523    6.6714 C   0  0  0  0  0  0  0  0  0  0  0  0
   11.3389   12.3901    7.4547 C   0  0  0  0  0  0  0  0  0  0  0  0
   11.5220   12.2912    8.8645 C   0  0  0  0  0  0  0  0  0  0  0  0
   11.4952   13.1645    9.7435 O   0  0  0  0  0  0  0  0  0  0  0  0
   11.0795   13.4567    6.6388 N   0  0  0  0  0  0  0  0  0  0  0  0
   11.0049   12.9665    5.3762 C   0  0  0  0  0  0  0  0  0  0  0  0
   11.2082   11.6107    5.3634 N   0  0  0  0  0  0  0  0  0  0  0  0
  1  2  1  0  0  0  0
  1  6  1  0  0  0  0
  2  3  2  0  0  0  0
  3  4  1  0  0  0  0
  4  5  2  0  0  0  0
  4 10  1  0  0  0  0
  5  6  1  0  0  0  0
  5  8  1  0  0  0  0
  6  7  2  0  0  0  0
  8  9  1  0  0  0  0
  9 10  2  0  0  0  0
M  END
>  <CHROM.1>
11.43420990,11.81912870,7.52847396,-0.73375090,1.38058947,-2.23837558

>  <Name>
ligand

>  <RI>
0

>  <Rbt.Current_Directory>
/home/itssahil/PROJECTS/Mol_Feturizer/New_Systems/rnas/2EEW

>  <Rbt.Executable>
rbdock ($Id: //depot/dev/client3/rdock/2013.1/src/exe/rbdock.cxx#4 $)

>  <Rbt.Library>
libRbt.so (2013.1, Build901 2013/11/27)

>  <Rbt.Parameter_File>
/export/apps/rDock/src/rDock_2013.1_src/data/scripts/dock_solv.prm

>  <Rbt.Receptor>
prm/pocket_docking_7.prm

>  <SCORE>
-16.168

>  <SCORE.INTER>
-16.168

>  <SCORE.INTER.CONST>
1

>  <SCORE.INTER.POLAR>
0

>  <SCORE.INTER.ROT>
0

>  <SCORE.INTER.SOLV>
4.02867

>  <SCORE.INTER.VDW>
-15.7215

>  <SCORE.INTER.norm>
-1.6168

>  <SCORE.INTRA>
0

>  <SCORE.INTRA.DIHEDRAL>
0

>  <SCORE.INTRA.DIHEDRAL.0>
0

>  <SCORE.INTRA.POLAR>
0

>  <SCORE.INTRA.POLAR.0>
0

>  <SCORE.INTRA.REPUL>
0

>  <SCORE.INTRA.REPUL.0>
0

>  <SCORE.INTRA.SOLV>
0

>  <SCORE.INTRA.SOLV.lig_0>
-4.28901

>  <SCORE.INTRA.VDW>
0

>  <SCORE.INTRA.VDW.0>
0

>  <SCORE.INTRA.norm>
0

>  <SCORE.RESTR>
0

>  <SCORE.RESTR.CAVITY>
0

>  <SCORE.RESTR.norm>
0

>  <SCORE.SYSTEM>
0

>  <SCORE.SYSTEM.CONST>
0

>  <SCORE.SYSTEM.DIHEDRAL>
0

>  <SCORE.SYSTEM.SOLV>
0

>  <SCORE.SYSTEM.norm>
0

>  <SCORE.heavy>
10

>  <SCORE.norm>
-1.6168

>  <RMSD>
2.430

$$$$
ligand
 OpenBabel11021811423D
libRbt.so/2013.1/901 2013/11/27
 10 11  0  0  0  0  0  0  0  0999 V2000
   11.7869   10.9694    9.1938 N   0  0  0  0  0  0  0  0  0  0  0  0
   11.8457    9.8791    8.3453 C   0  0  0  0  0  0  0  0  0  0  0  0
   11.6686    9.9945    7.0221 N   0  0  0  0  0  0  0  0  0  0  0  0
   11.4285   11.2700    6.6213 C   0  0  0  0  0  0  0  0  0  0  0  0
   11.3548   12.4029    7.4120 C   0  0  0  0  0  0  0  0  0  0  0  0
   11.5423   12.2948    8.8205 C   0  0  0  0  0  0  0  0  0  0  0  0
   11.5202   13.1626    9.7051 O   0  0  0  0  0  0  0  0  0  0  0  0
   11.0950   13.4752    6.6037 N   0  0  0  0  0  0  0  0  0  0  0  0
   11.0153   12.9932    5.3383 C   0  0  0  0  0  0  0  0  0  0  0  0
   11.2156   11.6370    5.3163 N   0  0  0  0  0  0  0  0  0  0  0  0
  1  2  1  0  0  0  0
  1  6  1  0  0  0  0
  2  3  2  0  0  0  0
  3  4  1  0  0  0  0
  4  5  2  0  0  0  0
  4 10  1  0  0  0  0
  5  6  1  0  0  0  0
  5  8  1  0  0  0  0
  6  7  2  0  0  0  0
  8  9  1  0  0  0  0
  9 10  2  0  0  0  0
M  END
>  <CHROM.1>
11.44914677,11.83132444,7.48190377,-0.71323326,1.38023797,-2.25223023

>  <Name>
ligand

>  <RI>
0

>  <Rbt.Current_Directory>
/home/itssahil/PROJECTS/Mol_Feturizer/New_Systems/rnas/2EEW

>  <Rbt.Executable>
rbdock ($Id: //depot/dev/client3/rdock/2013.1/src/exe/rbdock.cxx#4 $)

>  <Rbt.Library>
libRbt.so (2013.1, Build901 2013/11/27)

>  <Rbt.Parameter_File>
/export/apps/rDock/src/rDock_2013.1_src/data/scripts/dock_solv.prm

>  <Rbt.Receptor>
prm/pocket_docking_4.prm

>  <SCORE>
-16.1646

>  <SCORE.INTER>
-16.1646

>  <SCORE.INTER.CONST>
1

>  <SCORE.INTER.POLAR>
0

>  <SCORE.INTER.ROT>
0

>  <SCORE.INTER.SOLV>
4.01773

>  <SCORE.INTER.VDW>
-15.7156

>  <SCORE.INTER.norm>
-1.61646

>  <SCORE.INTRA>
0

>  <SCORE.INTRA.DIHEDRAL>
0

>  <SCORE.INTRA.DIHEDRAL.0>
0

>  <SCORE.INTRA.POLAR>
0

>  <SCORE.INTRA.POLAR.0>
0

>  <SCORE.INTRA.REPUL>
0

>  <SCORE.INTRA.REPUL.0>
0

>  <SCORE.INTRA.SOLV>
0

>  <SCORE.INTRA.SOLV.lig_0>
-4.28901

>  <SCORE.INTRA.VDW>
0

>  <SCORE.INTRA.VDW.0>
0

>  <SCORE.INTRA.norm>
0

>  <SCORE.RESTR>
0

>  <SCORE.RESTR.CAVITY>
0

>  <SCORE.RESTR.norm>
0

>  <SCORE.SYSTEM>
0

>  <SCORE.SYSTEM.CONST>
0

>  <SCORE.SYSTEM.DIHEDRAL>
0

>  <SCORE.SYSTEM.SOLV>
0

>  <SCORE.SYSTEM.norm>
0

>  <SCORE.heavy>
10

>  <SCORE.norm>
-1.61646

>  <RMSD>
2.431

$$$$
ligand
 OpenBabel11021811423D
libRbt.so/2013.1/901 2013/11/27
 10 11  0  0  0  0  0  0  0  0999 V2000
   11.7757   10.9801    9.2548 N   0  0  0  0  0  0  0  0  0  0  0  0
   11.8351    9.8884    8.4083 C   0  0  0  0  0  0  0  0  0  0  0  0
   11.6632   10.0021    7.0842 N   0  0  0  0  0  0  0  0  0  0  0  0
   11.4274   11.2775    6.6806 C   0  0  0  0  0  0  0  0  0  0  0  0
   11.3534   12.4118    7.4693 C   0  0  0  0  0  0  0  0  0  0  0  0
   11.5355   12.3055    8.8786 C   0  0  0  0  0  0  0  0  0  0  0  0
   11.5121   13.1747    9.7618 O   0  0  0  0  0  0  0  0  0  0  0  0
   11.0990   13.4835    6.6583 N   0  0  0  0  0  0  0  0  0  0  0  0
   11.0228   12.9996    5.3934 C   0  0  0  0  0  0  0  0  0  0  0  0
   11.2202   11.6430    5.3742 N   0  0  0  0  0  0  0  0  0  0  0  0
  1  2  1  0  0  0  0
  1  6  1  0  0  0  0
  2  3  2  0  0  0  0
  3  4  1  0  0  0  0
  4  5  2  0  0  0  0
  4 10  1  0  0  0  0
  5  6  1  0  0  0  0
  5  8  1  0  0  0  0
  6  7  2  0  0  0  0
  8  9  1  0  0  0  0
  9 10  2  0  0  0  0
M  END
>  <CHROM.1>
11.44618736,11.84014598,7.54038948,-0.72100273,1.38429191,-2.24614943

>  <Name>
ligand

>  <RI>
0

>  <Rbt.Current_Directory>
/home/itssahil/PROJECTS/Mol_Feturizer/New_Systems/rnas/2EEW

>  <Rbt.Executable>
rbdock ($Id: //depot/dev/client3/rdock/2013.1/src/exe/rbdock.cxx#4 $)

>  <Rbt.Library>
libRbt.so (2013.1, Build901 2013/11/27)

>  <Rbt.Parameter_File>
/export/apps/rDock/src/rDock_2013.1_src/data/scripts/dock_solv.prm

>  <Rbt.Receptor>
prm/blind_docking_60.prm

>  <SCORE>
-16.2086

>  <SCORE.INTER>
-16.2086

>  <SCORE.INTER.CONST>
1

>  <SCORE.INTER.POLAR>
0

>  <SCORE.INTER.ROT>
0

>  <SCORE.INTER.SOLV>
4.05438

>  <SCORE.INTER.VDW>
-15.7572

>  <SCORE.INTER.norm>
-1.62086

>  <SCORE.INTRA>
0

>  <SCORE.INTRA.DIHEDRAL>
0

>  <SCORE.INTRA.DIHEDRAL.0>
0

>  <SCORE.INTRA.POLAR>
0

>  <SCORE.INTRA.POLAR.0>
0

>  <SCORE.INTRA.REPUL>
0

>  <SCORE.INTRA.REPUL.0>
0

>  <SCORE.INTRA.SOLV>
0

>  <SCORE.INTRA.SOLV.lig_0>
-4.28901

>  <SCORE.INTRA.VDW>
0

>  <SCORE.INTRA.VDW.0>
0

>  <SCORE.INTRA.norm>
0

>  <SCORE.RESTR>
0

>  <SCORE.RESTR.CAVITY>
0

>  <SCORE.RESTR.norm>
0

>  <SCORE.SYSTEM>
0

>  <SCORE.SYSTEM.CONST>
0

>  <SCORE.SYSTEM.DIHEDRAL>
0

>  <SCORE.SYSTEM.SOLV>
0

>  <SCORE.SYSTEM.norm>
0

>  <SCORE.heavy>
10

>  <SCORE.norm>
-1.62086

>  <RMSD>
2.432

$$$$
ligand
 OpenBabel11021811423D
libRbt.so/2013.1/901 2013/11/27
 10 11  0  0  0  0  0  0  0  0999 V2000
   11.7750   10.9720    9.2136 N   0  0  0  0  0  0  0  0  0  0  0  0
   11.8474    9.8874    8.3591 C   0  0  0  0  0  0  0  0  0  0  0  0
   11.6767   10.0092    7.0356 N   0  0  0  0  0  0  0  0  0  0  0  0
   11.4284   11.2850    6.6410 C   0  0  0  0  0  0  0  0  0  0  0  0
   11.3411   12.4126    7.4379 C   0  0  0  0  0  0  0  0  0  0  0  0
   11.5217   12.2976    8.8468 C   0  0  0  0  0  0  0  0  0  0  0  0
   11.4877   13.1599    9.7363 O   0  0  0  0  0  0  0  0  0  0  0  0
   11.0771   13.4876    6.6345 N   0  0  0  0  0  0  0  0  0  0  0  0
   11.0082   13.0124    5.3659 C   0  0  0  0  0  0  0  0  0  0  0  0
   11.2197   11.6580    5.3370 N   0  0  0  0  0  0  0  0  0  0  0  0
  1  2  1  0  0  0  0
  1  6  1  0  0  0  0
  2  3  2  0  0  0  0
  3  4  1  0  0  0  0
  4  5  2  0  0  0  0
  4 10  1  0  0  0  0
  5  6  1  0  0  0  0
  5  8  1  0  0  0  0
  6  7  2  0  0  0  0
  8  9  1  0  0  0  0
  9 10  2  0  0  0  0
M  END
>  <CHROM.1>
11.43973107,11.84138294,7.50495240,-0.76219866,1.37714233,-2.19824571

>  <Name>
ligand

>  <RI>
0

>  <Rbt.Current_Directory>
/home/itssahil/PROJECTS/Mol_Feturizer/New_Systems/rnas/2EEW

>  <Rbt.Executable>
rbdock ($Id: //depot/dev/client3/rdock/2013.1/src/exe/rbdock.cxx#4 $)

>  <Rbt.Library>
libRbt.so (2013.1, Build901 2013/11/27)

>  <Rbt.Parameter_File>
/export/apps/rDock/src/rDock_2013.1_src/data/scripts/dock_solv.prm

>  <Rbt.Receptor>
prm/blind_docking_60.prm

>  <SCORE>
-16.1701

>  <SCORE.INTER>
-16.1701

>  <SCORE.INTER.CONST>
1

>  <SCORE.INTER.POLAR>
0

>  <SCORE.INTER.ROT>
0

>  <SCORE.INTER.SOLV>
4.02563

>  <SCORE.INTER.VDW>
-15.7219

>  <SCORE.INTER.norm>
-1.61701

>  <SCORE.INTRA>
0

>  <SCORE.INTRA.DIHEDRAL>
0

>  <SCORE.INTRA.DIHEDRAL.0>
0

>  <SCORE.INTRA.POLAR>
0

>  <SCORE.INTRA.POLAR.0>
0

>  <SCORE.INTRA.REPUL>
0

>  <SCORE.INTRA.REPUL.0>
0

>  <SCORE.INTRA.SOLV>
0

>  <SCORE.INTRA.SOLV.lig_0>
-4.28901

>  <SCORE.INTRA.VDW>
0

>  <SCORE.INTRA.VDW.0>
0

>  <SCORE.INTRA.norm>
0

>  <SCORE.RESTR>
0

>  <SCORE.RESTR.CAVITY>
0

>  <SCORE.RESTR.norm>
0

>  <SCORE.SYSTEM>
0

>  <SCORE.SYSTEM.CONST>
0

>  <SCORE.SYSTEM.DIHEDRAL>
0

>  <SCORE.SYSTEM.SOLV>
0

>  <SCORE.SYSTEM.norm>
0

>  <SCORE.heavy>
10

>  <SCORE.norm>
-1.61701

>  <RMSD>
2.432

$$$$
ligand
 OpenBabel11021811423D
libRbt.so/2013.1/901 2013/11/27
 10 11  0  0  0  0  0  0  0  0999 V2000
   11.7688   10.9692    9.2300 N   0  0  0  0  0  0  0  0  0  0  0  0
   11.8211    9.8837    8.3751 C   0  0  0  0  0  0  0  0  0  0  0  0
   11.6439   10.0080    7.0527 N   0  0  0  0  0  0  0  0  0  0  0  0
   11.4105   11.2871    6.6597 C   0  0  0  0  0  0  0  0  0  0  0  0
   11.3436   12.4157    7.4571 C   0  0  0  0  0  0  0  0  0  0  0  0
   11.5313   12.2982    8.8649 C   0  0  0  0  0  0  0  0  0  0  0  0
   11.5145   13.1608    9.7546 O   0  0  0  0  0  0  0  0  0  0  0  0
   11.0892   13.4942    6.6553 N   0  0  0  0  0  0  0  0  0  0  0  0
   11.0060   13.0202    5.3872 C   0  0  0  0  0  0  0  0  0  0  0  0
   11.1989   11.6630    5.3570 N   0  0  0  0  0  0  0  0  0  0  0  0
  1  2  1  0  0  0  0
  1  6  1  0  0  0  0
  2  3  2  0  0  0  0
  3  4  1  0  0  0  0
  4  5  2  0  0  0  0
  4 10  1  0  0  0  0
  5  6  1  0  0  0  0
  5  8  1  0  0  0  0
  6  7  2  0  0  0  0
  8  9  1  0  0  0  0
  9 10  2  0  0  0  0
M  END
>  <CHROM.1>
11.43480205,11.84320476,7.52354739,-0.69204187,1.38408549,-2.26709341

>  <Name>
ligand

>  <RI>
0

>  <Rbt.Current_Directory>
/home/itssahil/PROJECTS/Mol_Feturizer/New_Systems/rnas/2EEW

>  <Rbt.Executable>
rbdock ($Id: //depot/dev/client3/rdock/2013.1/src/exe/rbdock.cxx#4 $)

>  <Rbt.Library>
libRbt.so (2013.1, Build901 2013/11/27)

>  <Rbt.Parameter_File>
/export/apps/rDock/src/rDock_2013.1_src/data/scripts/dock_solv.prm

>  <Rbt.Receptor>
prm/blind_docking_80.prm

>  <SCORE>
-16.1855

>  <SCORE.INTER>
-16.1855

>  <SCORE.INTER.CONST>
1

>  <SCORE.INTER.POLAR>
0

>  <SCORE.INTER.ROT>
0

>  <SCORE.INTER.SOLV>
4.04339

>  <SCORE.INTER.VDW>
-15.7382

>  <SCORE.INTER.norm>
-1.61855

>  <SCORE.INTRA>
0

>  <SCORE.INTRA.DIHEDRAL>
0

>  <SCORE.INTRA.DIHEDRAL.0>
0

>  <SCORE.INTRA.POLAR>
0

>  <SCORE.INTRA.POLAR.0>
0

>  <SCORE.INTRA.REPUL>
0

>  <SCORE.INTRA.REPUL.0>
0

>  <SCORE.INTRA.SOLV>
0

>  <SCORE.INTRA.SOLV.lig_0>
-4.28901

>  <SCORE.INTRA.VDW>
0

>  <SCORE.INTRA.VDW.0>
0

>  <SCORE.INTRA.norm>
0

>  <SCORE.RESTR>
0

>  <SCORE.RESTR.CAVITY>
0

>  <SCORE.RESTR.norm>
0

>  <SCORE.SYSTEM>
0

>  <SCORE.SYSTEM.CONST>
0

>  <SCORE.SYSTEM.DIHEDRAL>
0

>  <SCORE.SYSTEM.SOLV>
0

>  <SCORE.SYSTEM.norm>
0

>  <SCORE.heavy>
10

>  <SCORE.norm>
-1.61855

>  <RMSD>
2.432

$$$$
ligand
 OpenBabel11021811423D
libRbt.so/2013.1/901 2013/11/27
 10 11  0  0  0  0  0  0  0  0999 V2000
   11.8207   10.9971    9.2002 N   0  0  0  0  0  0  0  0  0  0  0  0
   11.8998    9.9096    8.3499 C   0  0  0  0  0  0  0  0  0  0  0  0
   11.6971   10.0198    7.0299 N   0  0  0  0  0  0  0  0  0  0  0  0
   11.4101   11.2872    6.6344 C   0  0  0  0  0  0  0  0  0  0  0  0
   11.3138   12.4170    7.4272 C   0  0  0  0  0  0  0  0  0  0  0  0
   11.5282   12.3143    8.8323 C   0  0  0  0  0  0  0  0  0  0  0  0
   11.4934   13.1806    9.7179 O   0  0  0  0  0  0  0  0  0  0  0  0
   11.0068   13.4808    6.6243 N   0  0  0  0  0  0  0  0  0  0  0  0
   10.9212   12.9969    5.3599 C   0  0  0  0  0  0  0  0  0  0  0  0
   11.1640   11.6478    5.3334 N   0  0  0  0  0  0  0  0  0  0  0  0
  1  2  1  0  0  0  0
  1  6  1  0  0  0  0
  2  3  2  0  0  0  0
  3  4  1  0  0  0  0
  4  5  2  0  0  0  0
  4 10  1  0  0  0  0
  5  6  1  0  0  0  0
  5  8  1  0  0  0  0
  6  7  2  0  0  0  0
  8  9  1  0  0  0  0
  9 10  2  0  0  0  0
M  END
>  <CHROM.1>
11.42735548,11.84861058,7.49497796,-0.74433582,1.34502433,-2.22116426

>  <Name>
ligand

>  <RI>
0

>  <Rbt.Current_Directory>
/home/itssahil/PROJECTS/Mol_Feturizer/New_Systems/rnas/2EEW

>  <Rbt.Executable>
rbdock ($Id: //depot/dev/client3/rdock/2013.1/src/exe/rbdock.cxx#4 $)

>  <Rbt.Library>
libRbt.so (2013.1, Build901 2013/11/27)

>  <Rbt.Parameter_File>
/export/apps/rDock/src/rDock_2013.1_src/data/scripts/dock_solv.prm

>  <Rbt.Receptor>
prm/blind_docking_80.prm

>  <SCORE>
-16.1952

>  <SCORE.INTER>
-16.1981

>  <SCORE.INTER.CONST>
1

>  <SCORE.INTER.POLAR>
0

>  <SCORE.INTER.ROT>
0

>  <SCORE.INTER.SOLV>
3.9744

>  <SCORE.INTER.VDW>
-15.7236

>  <SCORE.INTER.norm>
-1.61981

>  <SCORE.INTRA>
0

>  <SCORE.INTRA.DIHEDRAL>
0

>  <SCORE.INTRA.DIHEDRAL.0>
0

>  <SCORE.INTRA.POLAR>
0

>  <SCORE.INTRA.POLAR.0>
0

>  <SCORE.INTRA.REPUL>
0

>  <SCORE.INTRA.REPUL.0>
0

>  <SCORE.INTRA.SOLV>
0

>  <SCORE.INTRA.SOLV.lig_0>
-4.28901

>  <SCORE.INTRA.VDW>
0

>  <SCORE.INTRA.VDW.0>
0

>  <SCORE.INTRA.norm>
0

>  <SCORE.RESTR>
0.00297448

>  <SCORE.RESTR.CAVITY>
0.00297448

>  <SCORE.RESTR.norm>
0.000297448

>  <SCORE.SYSTEM>
0

>  <SCORE.SYSTEM.CONST>
0

>  <SCORE.SYSTEM.DIHEDRAL>
0

>  <SCORE.SYSTEM.SOLV>
0

>  <SCORE.SYSTEM.norm>
0

>  <SCORE.heavy>
10

>  <SCORE.norm>
-1.61952

>  <RMSD>
2.432

$$$$
ligand
 OpenBabel11021811423D
libRbt.so/2013.1/901 2013/11/27
 10 11  0  0  0  0  0  0  0  0999 V2000
   11.7598   10.9793    9.2541 N   0  0  0  0  0  0  0  0  0  0  0  0
   11.8121    9.8854    8.4100 C   0  0  0  0  0  0  0  0  0  0  0  0
   11.6412    9.9975    7.0856 N   0  0  0  0  0  0  0  0  0  0  0  0
   11.4139   11.2735    6.6792 C   0  0  0  0  0  0  0  0  0  0  0  0
   11.3473   12.4100    7.4655 C   0  0  0  0  0  0  0  0  0  0  0  0
   11.5285   12.3055    8.8751 C   0  0  0  0  0  0  0  0  0  0  0  0
   11.5107   13.1767    9.7563 O   0  0  0  0  0  0  0  0  0  0  0  0
   11.1002   13.4816    6.6522 N   0  0  0  0  0  0  0  0  0  0  0  0
   11.0210   12.9955    5.3883 C   0  0  0  0  0  0  0  0  0  0  0  0
   11.2093   11.6376    5.3720 N   0  0  0  0  0  0  0  0  0  0  0  0
  1  2  1  0  0  0  0
  1  6  1  0  0  0  0
  2  3  2  0  0  0  0
  3  4  1  0  0  0  0
  4  5  2  0  0  0  0
  4 10  1  0  0  0  0
  5  6  1  0  0  0  0
  5  8  1  0  0  0  0
  6  7  2  0  0  0  0
  8  9  1  0  0  0  0
  9 10  2  0  0  0  0
M  END
>  <CHROM.1>
11.43629141,11.83785916,7.53781682,-0.69858023,1.38954756,-2.27033274

>  <Name>
ligand

>  <RI>
0

>  <Rbt.Current_Directory>
/home/itssahil/PROJECTS/Mol_Feturizer/New_Systems/rnas/2EEW

>  <Rbt.Executable>
rbdock ($Id: //depot/dev/client3/rdock/2013.1/src/exe/rbdock.cxx#4 $)

>  <Rbt.Library>
libRbt.so (2013.1, Build901 2013/11/27)

>  <Rbt.Parameter_File>
/export/apps/rDock/src/rDock_2013.1_src/data/scripts/dock_solv.prm

>  <Rbt.Receptor>
prm/pocket_docking_5.prm

>  <SCORE>
-16.2157

>  <SCORE.INTER>
-16.2157

>  <SCORE.INTER.CONST>
1

>  <SCORE.INTER.POLAR>
0

>  <SCORE.INTER.ROT>
0

>  <SCORE.INTER.SOLV>
4.06177

>  <SCORE.INTER.VDW>
-15.7644

>  <SCORE.INTER.norm>
-1.62157

>  <SCORE.INTRA>
0

>  <SCORE.INTRA.DIHEDRAL>
0

>  <SCORE.INTRA.DIHEDRAL.0>
0

>  <SCORE.INTRA.POLAR>
0

>  <SCORE.INTRA.POLAR.0>
0

>  <SCORE.INTRA.REPUL>
0

>  <SCORE.INTRA.REPUL.0>
0

>  <SCORE.INTRA.SOLV>
0

>  <SCORE.INTRA.SOLV.lig_0>
-4.28901

>  <SCORE.INTRA.VDW>
0

>  <SCORE.INTRA.VDW.0>
0

>  <SCORE.INTRA.norm>
0

>  <SCORE.RESTR>
0

>  <SCORE.RESTR.CAVITY>
0

>  <SCORE.RESTR.norm>
0

>  <SCORE.SYSTEM>
0

>  <SCORE.SYSTEM.CONST>
0

>  <SCORE.SYSTEM.DIHEDRAL>
0

>  <SCORE.SYSTEM.SOLV>
0

>  <SCORE.SYSTEM.norm>
0

>  <SCORE.heavy>
10

>  <SCORE.norm>
-1.62157

>  <RMSD>
2.432

$$$$
ligand
 OpenBabel11021811423D
libRbt.so/2013.1/901 2013/11/27
 10 11  0  0  0  0  0  0  0  0999 V2000
   11.7719   10.9677    9.2276 N   0  0  0  0  0  0  0  0  0  0  0  0
   11.8254    9.8835    8.3711 C   0  0  0  0  0  0  0  0  0  0  0  0
   11.6459   10.0091    7.0491 N   0  0  0  0  0  0  0  0  0  0  0  0
   11.4088   11.2882    6.6582 C   0  0  0  0  0  0  0  0  0  0  0  0
   11.3404   12.4156    7.4572 C   0  0  0  0  0  0  0  0  0  0  0  0
   11.5306   12.2966    8.8645 C   0  0  0  0  0  0  0  0  0  0  0  0
   11.5131   13.1580    9.7554 O   0  0  0  0  0  0  0  0  0  0  0  0
   11.0822   13.4946    6.6573 N   0  0  0  0  0  0  0  0  0  0  0  0
   10.9982   13.0220    5.3886 C   0  0  0  0  0  0  0  0  0  0  0  0
   11.1943   11.6653    5.3563 N   0  0  0  0  0  0  0  0  0  0  0  0
  1  2  1  0  0  0  0
  1  6  1  0  0  0  0
  2  3  2  0  0  0  0
  3  4  1  0  0  0  0
  4  5  2  0  0  0  0
  4 10  1  0  0  0  0
  5  6  1  0  0  0  0
  5  8  1  0  0  0  0
  6  7  2  0  0  0  0
  8  9  1  0  0  0  0
  9 10  2  0  0  0  0
M  END
>  <CHROM.1>
11.43309956,11.84319531,7.52274700,-0.69386368,1.38125385,-2.26397631

>  <Name>
ligand

>  <RI>
0

>  <Rbt.Current_Directory>
/home/itssahil/PROJECTS/Mol_Feturizer/New_Systems/rnas/2EEW

>  <Rbt.Executable>
rbdock ($Id: //depot/dev/client3/rdock/2013.1/src/exe/rbdock.cxx#4 $)

>  <Rbt.Library>
libRbt.so (2013.1, Build901 2013/11/27)

>  <Rbt.Parameter_File>
/export/apps/rDock/src/rDock_2013.1_src/data/scripts/dock_solv.prm

>  <Rbt.Receptor>
prm/pocket_docking_5.prm

>  <SCORE>
-16.184

>  <SCORE.INTER>
-16.184

>  <SCORE.INTER.CONST>
1

>  <SCORE.INTER.POLAR>
0

>  <SCORE.INTER.ROT>
0

>  <SCORE.INTER.SOLV>
4.03633

>  <SCORE.INTER.VDW>
-15.7348

>  <SCORE.INTER.norm>
-1.6184

>  <SCORE.INTRA>
0

>  <SCORE.INTRA.DIHEDRAL>
0

>  <SCORE.INTRA.DIHEDRAL.0>
0

>  <SCORE.INTRA.POLAR>
0

>  <SCORE.INTRA.POLAR.0>
0

>  <SCORE.INTRA.REPUL>
0

>  <SCORE.INTRA.REPUL.0>
0

>  <SCORE.INTRA.SOLV>
0

>  <SCORE.INTRA.SOLV.lig_0>
-4.28901

>  <SCORE.INTRA.VDW>
0

>  <SCORE.INTRA.VDW.0>
0

>  <SCORE.INTRA.norm>
0

>  <SCORE.RESTR>
0

>  <SCORE.RESTR.CAVITY>
0

>  <SCORE.RESTR.norm>
0

>  <SCORE.SYSTEM>
0

>  <SCORE.SYSTEM.CONST>
0

>  <SCORE.SYSTEM.DIHEDRAL>
0

>  <SCORE.SYSTEM.SOLV>
0

>  <SCORE.SYSTEM.norm>
0

>  <SCORE.heavy>
10

>  <SCORE.norm>
-1.6184

>  <RMSD>
2.432

$$$$
ligand
 OpenBabel11021811423D
libRbt.so/2013.1/901 2013/11/27
 10 11  0  0  0  0  0  0  0  0999 V2000
   11.7714   10.9721    9.2272 N   0  0  0  0  0  0  0  0  0  0  0  0
   11.8247    9.8875    8.3712 C   0  0  0  0  0  0  0  0  0  0  0  0
   11.6449   10.0125    7.0492 N   0  0  0  0  0  0  0  0  0  0  0  0
   11.4079   11.2914    6.6577 C   0  0  0  0  0  0  0  0  0  0  0  0
   11.3398   12.4191    7.4563 C   0  0  0  0  0  0  0  0  0  0  0  0
   11.5302   12.3008    8.8636 C   0  0  0  0  0  0  0  0  0  0  0  0
   11.5130   13.1626    9.7541 O   0  0  0  0  0  0  0  0  0  0  0  0
   11.0816   13.4978    6.6559 N   0  0  0  0  0  0  0  0  0  0  0  0
   10.9973   13.0246    5.3874 C   0  0  0  0  0  0  0  0  0  0  0  0
   11.1932   11.6679    5.3557 N   0  0  0  0  0  0  0  0  0  0  0  0
  1  2  1  0  0  0  0
  1  6  1  0  0  0  0
  2  3  2  0  0  0  0
  3  4  1  0  0  0  0
  4  5  2  0  0  0  0
  4 10  1  0  0  0  0
  5  6  1  0  0  0  0
  5  8  1  0  0  0  0
  6  7  2  0  0  0  0
  8  9  1  0  0  0  0
  9 10  2  0  0  0  0
M  END
>  <CHROM.1>
11.43242919,11.84677683,7.52203876,-0.69283512,1.38122529,-2.26545107

>  <Name>
ligand

>  <RI>
0

>  <Rbt.Current_Directory>
/home/itssahil/PROJECTS/Mol_Feturizer/New_Systems/rnas/2EEW

>  <Rbt.Executable>
rbdock ($Id: //depot/dev/client3/rdock/2013.1/src/exe/rbdock.cxx#4 $)

>  <Rbt.Library>
libRbt.so (2013.1, Build901 2013/11/27)

>  <Rbt.Parameter_File>
/export/apps/rDock/src/rDock_2013.1_src/data/scripts/dock_solv.prm

>  <Rbt.Receptor>
prm/pocket_docking_6.prm

>  <SCORE>
-16.1851

>  <SCORE.INTER>
-16.1851

>  <SCORE.INTER.CONST>
1

>  <SCORE.INTER.POLAR>
0

>  <SCORE.INTER.ROT>
0

>  <SCORE.INTER.SOLV>
4.03951

>  <SCORE.INTER.VDW>
-15.7366

>  <SCORE.INTER.norm>
-1.61851

>  <SCORE.INTRA>
0

>  <SCORE.INTRA.DIHEDRAL>
0

>  <SCORE.INTRA.DIHEDRAL.0>
0

>  <SCORE.INTRA.POLAR>
0

>  <SCORE.INTRA.POLAR.0>
0

>  <SCORE.INTRA.REPUL>
0

>  <SCORE.INTRA.REPUL.0>
0

>  <SCORE.INTRA.SOLV>
0

>  <SCORE.INTRA.SOLV.lig_0>
-4.28901

>  <SCORE.INTRA.VDW>
0

>  <SCORE.INTRA.VDW.0>
0

>  <SCORE.INTRA.norm>
0

>  <SCORE.RESTR>
0

>  <SCORE.RESTR.CAVITY>
0

>  <SCORE.RESTR.norm>
0

>  <SCORE.SYSTEM>
0

>  <SCORE.SYSTEM.CONST>
0

>  <SCORE.SYSTEM.DIHEDRAL>
0

>  <SCORE.SYSTEM.SOLV>
0

>  <SCORE.SYSTEM.norm>
0

>  <SCORE.heavy>
10

>  <SCORE.norm>
-1.61851

>  <RMSD>
2.432

$$$$
ligand
 OpenBabel11021811423D
libRbt.so/2013.1/901 2013/11/27
 10 11  0  0  0  0  0  0  0  0999 V2000
   11.7835   10.9793    9.2134 N   0  0  0  0  0  0  0  0  0  0  0  0
   11.8615    9.8971    8.3564 C   0  0  0  0  0  0  0  0  0  0  0  0
   11.6769   10.0189    7.0348 N   0  0  0  0  0  0  0  0  0  0  0  0
   11.4089   11.2922    6.6448 C   0  0  0  0  0  0  0  0  0  0  0  0
   11.3149   12.4172    7.4445 C   0  0  0  0  0  0  0  0  0  0  0  0
   11.5102   12.3022    8.8514 C   0  0  0  0  0  0  0  0  0  0  0  0
   11.4736   13.1626    9.7427 O   0  0  0  0  0  0  0  0  0  0  0  0
   11.0299   13.4901    6.6454 N   0  0  0  0  0  0  0  0  0  0  0  0
   10.9552   13.0162    5.3767 C   0  0  0  0  0  0  0  0  0  0  0  0
   11.1834   11.6647    5.3434 N   0  0  0  0  0  0  0  0  0  0  0  0
  1  2  1  0  0  0  0
  1  6  1  0  0  0  0
  2  3  2  0  0  0  0
  3  4  1  0  0  0  0
  4  5  2  0  0  0  0
  4 10  1  0  0  0  0
  5  6  1  0  0  0  0
  5  8  1  0  0  0  0
  6  7  2  0  0  0  0
  8  9  1  0  0  0  0
  9 10  2  0  0  0  0
M  END
>  <CHROM.1>
11.42135959,11.84719762,7.50957732,-0.76125957,1.36148556,-2.19745486

>  <Name>
ligand

>  <RI>
0

>  <Rbt.Current_Directory>
/home/itssahil/PROJECTS/Mol_Feturizer/New_Systems/rnas/2EEW

>  <Rbt.Executable>
rbdock ($Id: //depot/dev/client3/rdock/2013.1/src/exe/rbdock.cxx#4 $)

>  <Rbt.Library>
libRbt.so (2013.1, Build901 2013/11/27)

>  <Rbt.Parameter_File>
/export/apps/rDock/src/rDock_2013.1_src/data/scripts/dock_solv.prm

>  <Rbt.Receptor>
prm/pocket_docking_4.prm

>  <SCORE>
-16.1796

>  <SCORE.INTER>
-16.1796

>  <SCORE.INTER.CONST>
1

>  <SCORE.INTER.POLAR>
0

>  <SCORE.INTER.ROT>
0

>  <SCORE.INTER.SOLV>
4.00183

>  <SCORE.INTER.VDW>
-15.7204

>  <SCORE.INTER.norm>
-1.61796

>  <SCORE.INTRA>
0

>  <SCORE.INTRA.DIHEDRAL>
0

>  <SCORE.INTRA.DIHEDRAL.0>
0

>  <SCORE.INTRA.POLAR>
0

>  <SCORE.INTRA.POLAR.0>
0

>  <SCORE.INTRA.REPUL>
0

>  <SCORE.INTRA.REPUL.0>
0

>  <SCORE.INTRA.SOLV>
0

>  <SCORE.INTRA.SOLV.lig_0>
-4.28901

>  <SCORE.INTRA.VDW>
0

>  <SCORE.INTRA.VDW.0>
0

>  <SCORE.INTRA.norm>
0

>  <SCORE.RESTR>
0

>  <SCORE.RESTR.CAVITY>
0

>  <SCORE.RESTR.norm>
0

>  <SCORE.SYSTEM>
0

>  <SCORE.SYSTEM.CONST>
0

>  <SCORE.SYSTEM.DIHEDRAL>
0

>  <SCORE.SYSTEM.SOLV>
0

>  <SCORE.SYSTEM.norm>
0

>  <SCORE.heavy>
10

>  <SCORE.norm>
-1.61796

>  <RMSD>
2.433

$$$$
ligand
 OpenBabel11021811423D
libRbt.so/2013.1/901 2013/11/27
 10 11  0  0  0  0  0  0  0  0999 V2000
   11.7672   10.9900    9.2165 N   0  0  0  0  0  0  0  0  0  0  0  0
   11.8295    9.9010    8.3669 C   0  0  0  0  0  0  0  0  0  0  0  0
   11.6567   10.0180    7.0433 N   0  0  0  0  0  0  0  0  0  0  0  0
   11.4169   11.2938    6.6433 C   0  0  0  0  0  0  0  0  0  0  0  0
   11.3399   12.4256    7.4353 C   0  0  0  0  0  0  0  0  0  0  0  0
   11.5229   12.3158    8.8442 C   0  0  0  0  0  0  0  0  0  0  0  0
   11.4973   13.1824    9.7298 O   0  0  0  0  0  0  0  0  0  0  0  0
   11.0820   13.4988    6.6275 N   0  0  0  0  0  0  0  0  0  0  0  0
   11.0067   13.0183    5.3612 C   0  0  0  0  0  0  0  0  0  0  0  0
   11.2081   11.6623    5.3381 N   0  0  0  0  0  0  0  0  0  0  0  0
  1  2  1  0  0  0  0
  1  6  1  0  0  0  0
  2  3  2  0  0  0  0
  3  4  1  0  0  0  0
  4  5  2  0  0  0  0
  4 10  1  0  0  0  0
  5  6  1  0  0  0  0
  5  8  1  0  0  0  0
  6  7  2  0  0  0  0
  8  9  1  0  0  0  0
  9 10  2  0  0  0  0
M  END
>  <CHROM.1>
11.43441408,11.85399340,7.50471137,-0.72907372,1.38168888,-2.23537768

>  <Name>
ligand

>  <RI>
0

>  <Rbt.Current_Directory>
/home/itssahil/PROJECTS/Mol_Feturizer/New_Systems/rnas/2EEW

>  <Rbt.Executable>
rbdock ($Id: //depot/dev/client3/rdock/2013.1/src/exe/rbdock.cxx#4 $)

>  <Rbt.Library>
libRbt.so (2013.1, Build901 2013/11/27)

>  <Rbt.Parameter_File>
/export/apps/rDock/src/rDock_2013.1_src/data/scripts/dock_solv.prm

>  <Rbt.Receptor>
prm/blind_docking_80.prm

>  <SCORE>
-16.1912

>  <SCORE.INTER>
-16.1912

>  <SCORE.INTER.CONST>
1

>  <SCORE.INTER.POLAR>
0

>  <SCORE.INTER.ROT>
0

>  <SCORE.INTER.SOLV>
4.0474

>  <SCORE.INTER.VDW>
-15.7433

>  <SCORE.INTER.norm>
-1.61912

>  <SCORE.INTRA>
0

>  <SCORE.INTRA.DIHEDRAL>
0

>  <SCORE.INTRA.DIHEDRAL.0>
0

>  <SCORE.INTRA.POLAR>
0

>  <SCORE.INTRA.POLAR.0>
0

>  <SCORE.INTRA.REPUL>
0

>  <SCORE.INTRA.REPUL.0>
0

>  <SCORE.INTRA.SOLV>
0

>  <SCORE.INTRA.SOLV.lig_0>
-4.28901

>  <SCORE.INTRA.VDW>
0

>  <SCORE.INTRA.VDW.0>
0

>  <SCORE.INTRA.norm>
0

>  <SCORE.RESTR>
0

>  <SCORE.RESTR.CAVITY>
0

>  <SCORE.RESTR.norm>
0

>  <SCORE.SYSTEM>
0

>  <SCORE.SYSTEM.CONST>
0

>  <SCORE.SYSTEM.DIHEDRAL>
0

>  <SCORE.SYSTEM.SOLV>
0

>  <SCORE.SYSTEM.norm>
0

>  <SCORE.heavy>
10

>  <SCORE.norm>
-1.61912

>  <RMSD>
2.434

$$$$
ligand
 OpenBabel11021811423D
libRbt.so/2013.1/901 2013/11/27
 10 11  0  0  0  0  0  0  0  0999 V2000
   11.7863   10.9994    9.2291 N   0  0  0  0  0  0  0  0  0  0  0  0
   11.8492    9.9131    8.3759 C   0  0  0  0  0  0  0  0  0  0  0  0
   11.6571   10.0313    7.0550 N   0  0  0  0  0  0  0  0  0  0  0  0
   11.3976   11.3053    6.6617 C   0  0  0  0  0  0  0  0  0  0  0  0
   11.3187   12.4343    7.4574 C   0  0  0  0  0  0  0  0  0  0  0  0
   11.5221   12.3232    8.8635 C   0  0  0  0  0  0  0  0  0  0  0  0
   11.4989   13.1873    9.7516 O   0  0  0  0  0  0  0  0  0  0  0  0
   11.0378   13.5065    6.6560 N   0  0  0  0  0  0  0  0  0  0  0  0
   10.9507   13.0282    5.3896 C   0  0  0  0  0  0  0  0  0  0  0  0
   11.1669   11.6746    5.3603 N   0  0  0  0  0  0  0  0  0  0  0  0
  1  2  1  0  0  0  0
  1  6  1  0  0  0  0
  2  3  2  0  0  0  0
  3  4  1  0  0  0  0
  4  5  2  0  0  0  0
  4 10  1  0  0  0  0
  5  6  1  0  0  0  0
  5  8  1  0  0  0  0
  6  7  2  0  0  0  0
  8  9  1  0  0  0  0
  9 10  2  0  0  0  0
M  END
>  <CHROM.1>
11.42056880,11.86361116,7.52414520,-0.71042946,1.36446101,-2.25118866

>  <Name>
ligand

>  <RI>
0

>  <Rbt.Current_Directory>
/home/itssahil/PROJECTS/Mol_Feturizer/New_Systems/rnas/2EEW

>  <Rbt.Executable>
rbdock ($Id: //depot/dev/client3/rdock/2013.1/src/exe/rbdock.cxx#4 $)

>  <Rbt.Library>
libRbt.so (2013.1, Build901 2013/11/27)

>  <Rbt.Parameter_File>
/export/apps/rDock/src/rDock_2013.1_src/data/scripts/dock_solv.prm

>  <Rbt.Receptor>
prm/pocket_docking_5.prm

>  <SCORE>
-16.1879

>  <SCORE.INTER>
-16.1879

>  <SCORE.INTER.CONST>
1

>  <SCORE.INTER.POLAR>
0

>  <SCORE.INTER.ROT>
0

>  <SCORE.INTER.SOLV>
4.02782

>  <SCORE.INTER.VDW>
-15.7346

>  <SCORE.INTER.norm>
-1.61879

>  <SCORE.INTRA>
0

>  <SCORE.INTRA.DIHEDRAL>
0

>  <SCORE.INTRA.DIHEDRAL.0>
0

>  <SCORE.INTRA.POLAR>
0

>  <SCORE.INTRA.POLAR.0>
0

>  <SCORE.INTRA.REPUL>
0

>  <SCORE.INTRA.REPUL.0>
0

>  <SCORE.INTRA.SOLV>
0

>  <SCORE.INTRA.SOLV.lig_0>
-4.28901

>  <SCORE.INTRA.VDW>
0

>  <SCORE.INTRA.VDW.0>
0

>  <SCORE.INTRA.norm>
0

>  <SCORE.RESTR>
0

>  <SCORE.RESTR.CAVITY>
0

>  <SCORE.RESTR.norm>
0

>  <SCORE.SYSTEM>
0

>  <SCORE.SYSTEM.CONST>
0

>  <SCORE.SYSTEM.DIHEDRAL>
0

>  <SCORE.SYSTEM.SOLV>
0

>  <SCORE.SYSTEM.norm>
0

>  <SCORE.heavy>
10

>  <SCORE.norm>
-1.61879

>  <RMSD>
2.434

$$$$
ligand
 OpenBabel11021811423D
libRbt.so/2013.1/901 2013/11/27
 10 11  0  0  0  0  0  0  0  0999 V2000
   11.7646   11.0373    9.2927 N   0  0  0  0  0  0  0  0  0  0  0  0
   11.8195    9.9409    8.4520 C   0  0  0  0  0  0  0  0  0  0  0  0
   11.6339   10.0462    7.1291 N   0  0  0  0  0  0  0  0  0  0  0  0
   11.3894   11.3183    6.7204 C   0  0  0  0  0  0  0  0  0  0  0  0
   11.3192   12.4570    7.5031 C   0  0  0  0  0  0  0  0  0  0  0  0
   11.5158   12.3596    8.9112 C   0  0  0  0  0  0  0  0  0  0  0  0
   11.4981   13.2339    9.7894 O   0  0  0  0  0  0  0  0  0  0  0  0
   11.0527   13.5229    6.6885 N   0  0  0  0  0  0  0  0  0  0  0  0
   10.9656   13.0313    5.4272 C   0  0  0  0  0  0  0  0  0  0  0  0
   11.1677   11.6753    5.4140 N   0  0  0  0  0  0  0  0  0  0  0  0
  1  2  1  0  0  0  0
  1  6  1  0  0  0  0
  2  3  2  0  0  0  0
  3  4  1  0  0  0  0
  4  5  2  0  0  0  0
  4 10  1  0  0  0  0
  5  6  1  0  0  0  0
  5  8  1  0  0  0  0
  6  7  2  0  0  0  0
  8  9  1  0  0  0  0
  9 10  2  0  0  0  0
M  END
>  <CHROM.1>
11.41475787,11.88603527,7.57662369,-0.69245808,1.37508711,-2.28005744

>  <Name>
ligand

>  <RI>
0

>  <Rbt.Current_Directory>
/home/itssahil/PROJECTS/Mol_Feturizer/New_Systems/rnas/2EEW

>  <Rbt.Executable>
rbdock ($Id: //depot/dev/client3/rdock/2013.1/src/exe/rbdock.cxx#4 $)

>  <Rbt.Library>
libRbt.so (2013.1, Build901 2013/11/27)

>  <Rbt.Parameter_File>
/export/apps/rDock/src/rDock_2013.1_src/data/scripts/dock_solv.prm

>  <Rbt.Receptor>
prm/blind_docking_100.prm

>  <SCORE>
-16.1388

>  <SCORE.INTER>
-16.1388

>  <SCORE.INTER.CONST>
1

>  <SCORE.INTER.POLAR>
0

>  <SCORE.INTER.ROT>
0

>  <SCORE.INTER.SOLV>
4.09098

>  <SCORE.INTER.VDW>
-15.7228

>  <SCORE.INTER.norm>
-1.61388

>  <SCORE.INTRA>
0

>  <SCORE.INTRA.DIHEDRAL>
0

>  <SCORE.INTRA.DIHEDRAL.0>
0

>  <SCORE.INTRA.POLAR>
0

>  <SCORE.INTRA.POLAR.0>
0

>  <SCORE.INTRA.REPUL>
0

>  <SCORE.INTRA.REPUL.0>
0

>  <SCORE.INTRA.SOLV>
0

>  <SCORE.INTRA.SOLV.lig_0>
-4.28901

>  <SCORE.INTRA.VDW>
0

>  <SCORE.INTRA.VDW.0>
0

>  <SCORE.INTRA.norm>
0

>  <SCORE.RESTR>
0

>  <SCORE.RESTR.CAVITY>
0

>  <SCORE.RESTR.norm>
0

>  <SCORE.SYSTEM>
0

>  <SCORE.SYSTEM.CONST>
0

>  <SCORE.SYSTEM.DIHEDRAL>
0

>  <SCORE.SYSTEM.SOLV>
0

>  <SCORE.SYSTEM.norm>
0

>  <SCORE.heavy>
10

>  <SCORE.norm>
-1.61388

>  <RMSD>
2.439

$$$$
ligand
 OpenBabel11021811423D
libRbt.so/2013.1/901 2013/11/27
 10 11  0  0  0  0  0  0  0  0999 V2000
   11.7690   11.0416    9.3447 N   0  0  0  0  0  0  0  0  0  0  0  0
   11.7865    9.9549    8.4899 C   0  0  0  0  0  0  0  0  0  0  0  0
   11.6128   10.0845    7.1676 N   0  0  0  0  0  0  0  0  0  0  0  0
   11.4199   11.3704    6.7745 C   0  0  0  0  0  0  0  0  0  0  0  0
   11.3891   12.5006    7.5718 C   0  0  0  0  0  0  0  0  0  0  0  0
   11.5736   12.3774    8.9795 C   0  0  0  0  0  0  0  0  0  0  0  0
   11.5845   13.2402    9.8691 O   0  0  0  0  0  0  0  0  0  0  0  0
   11.1687   13.5866    6.7700 N   0  0  0  0  0  0  0  0  0  0  0  0
   11.0701   13.1152    5.5019 C   0  0  0  0  0  0  0  0  0  0  0  0
   11.2198   11.7526    5.4718 N   0  0  0  0  0  0  0  0  0  0  0  0
  1  2  1  0  0  0  0
  1  6  1  0  0  0  0
  2  3  2  0  0  0  0
  3  4  1  0  0  0  0
  4  5  2  0  0  0  0
  4 10  1  0  0  0  0
  5  6  1  0  0  0  0
  5  8  1  0  0  0  0
  6  7  2  0  0  0  0
  8  9  1  0  0  0  0
  9 10  2  0  0  0  0
M  END
>  <CHROM.1>
11.46218340,11.92549955,7.63826383,-0.56528138,1.40685875,-2.39205576

>  <Name>
ligand

>  <RI>
0

>  <Rbt.Current_Directory>
/home/itssahil/PROJECTS/Mol_Feturizer/New_Systems/rnas/2EEW

>  <Rbt.Executable>
rbdock ($Id: //depot/dev/client3/rdock/2013.1/src/exe/rbdock.cxx#4 $)

>  <Rbt.Library>
libRbt.so (2013.1, Build901 2013/11/27)

>  <Rbt.Parameter_File>
/export/apps/rDock/src/rDock_2013.1_src/data/scripts/dock_solv.prm

>  <Rbt.Receptor>
prm/blind_docking_80.prm

>  <SCORE>
-16.1725

>  <SCORE.INTER>
-16.1725

>  <SCORE.INTER.CONST>
1

>  <SCORE.INTER.POLAR>
0

>  <SCORE.INTER.ROT>
0

>  <SCORE.INTER.SOLV>
4.19222

>  <SCORE.INTER.VDW>
-15.7791

>  <SCORE.INTER.norm>
-1.61725

>  <SCORE.INTRA>
0

>  <SCORE.INTRA.DIHEDRAL>
0

>  <SCORE.INTRA.DIHEDRAL.0>
0

>  <SCORE.INTRA.POLAR>
0

>  <SCORE.INTRA.POLAR.0>
0

>  <SCORE.INTRA.REPUL>
0

>  <SCORE.INTRA.REPUL.0>
0

>  <SCORE.INTRA.SOLV>
0

>  <SCORE.INTRA.SOLV.lig_0>
-4.28901

>  <SCORE.INTRA.VDW>
0

>  <SCORE.INTRA.VDW.0>
0

>  <SCORE.INTRA.norm>
0

>  <SCORE.RESTR>
0

>  <SCORE.RESTR.CAVITY>
0

>  <SCORE.RESTR.norm>
0

>  <SCORE.SYSTEM>
0

>  <SCORE.SYSTEM.CONST>
0

>  <SCORE.SYSTEM.DIHEDRAL>
0

>  <SCORE.SYSTEM.SOLV>
0

>  <SCORE.SYSTEM.norm>
0

>  <SCORE.heavy>
10

>  <SCORE.norm>
-1.61725

>  <RMSD>
2.444

$$$$
ligand
 OpenBabel11021811423D
libRbt.so/2013.1/901 2013/11/27
 10 11  0  0  0  0  0  0  0  0999 V2000
   11.7438   11.0525    9.3136 N   0  0  0  0  0  0  0  0  0  0  0  0
   11.7760    9.9657    8.4593 C   0  0  0  0  0  0  0  0  0  0  0  0
   11.6110   10.0936    7.1357 N   0  0  0  0  0  0  0  0  0  0  0  0
   11.4110   11.3777    6.7407 C   0  0  0  0  0  0  0  0  0  0  0  0
   11.3655   12.5080    7.5373 C   0  0  0  0  0  0  0  0  0  0  0  0
   11.5407   12.3866    8.9463 C   0  0  0  0  0  0  0  0  0  0  0  0
   11.5383   13.2498    9.8357 O   0  0  0  0  0  0  0  0  0  0  0  0
   11.1426   13.5919    6.7335 N   0  0  0  0  0  0  0  0  0  0  0  0
   11.0570   13.1194    5.4649 C   0  0  0  0  0  0  0  0  0  0  0  0
   11.2175   11.7580    5.4364 N   0  0  0  0  0  0  0  0  0  0  0  0
  1  2  1  0  0  0  0
  1  6  1  0  0  0  0
  2  3  2  0  0  0  0
  3  4  1  0  0  0  0
  4  5  2  0  0  0  0
  4 10  1  0  0  0  0
  5  6  1  0  0  0  0
  5  8  1  0  0  0  0
  6  7  2  0  0  0  0
  8  9  1  0  0  0  0
  9 10  2  0  0  0  0
M  END
>  <CHROM.1>
11.44260980,11.93346002,7.60453659,-0.63080516,1.40658370,-2.32776279

>  <Name>
ligand

>  <RI>
0

>  <Rbt.Current_Directory>
/home/itssahil/PROJECTS/Mol_Feturizer/New_Systems/rnas/2EEW

>  <Rbt.Executable>
rbdock ($Id: //depot/dev/client3/rdock/2013.1/src/exe/rbdock.cxx#4 $)

>  <Rbt.Library>
libRbt.so (2013.1, Build901 2013/11/27)

>  <Rbt.Parameter_File>
/export/apps/rDock/src/rDock_2013.1_src/data/scripts/dock_solv.prm

>  <Rbt.Receptor>
prm/blind_docking_40.prm

>  <SCORE>
-16.1805

>  <SCORE.INTER>
-16.1805

>  <SCORE.INTER.CONST>
1

>  <SCORE.INTER.POLAR>
0

>  <SCORE.INTER.ROT>
0

>  <SCORE.INTER.SOLV>
4.19071

>  <SCORE.INTER.VDW>
-15.7839

>  <SCORE.INTER.norm>
-1.61805

>  <SCORE.INTRA>
0

>  <SCORE.INTRA.DIHEDRAL>
0

>  <SCORE.INTRA.DIHEDRAL.0>
0

>  <SCORE.INTRA.POLAR>
0

>  <SCORE.INTRA.POLAR.0>
0

>  <SCORE.INTRA.REPUL>
0

>  <SCORE.INTRA.REPUL.0>
0

>  <SCORE.INTRA.SOLV>
0

>  <SCORE.INTRA.SOLV.lig_0>
-4.28901

>  <SCORE.INTRA.VDW>
0

>  <SCORE.INTRA.VDW.0>
0

>  <SCORE.INTRA.norm>
0

>  <SCORE.RESTR>
0

>  <SCORE.RESTR.CAVITY>
0

>  <SCORE.RESTR.norm>
0

>  <SCORE.SYSTEM>
0

>  <SCORE.SYSTEM.CONST>
0

>  <SCORE.SYSTEM.DIHEDRAL>
0

>  <SCORE.SYSTEM.SOLV>
0

>  <SCORE.SYSTEM.norm>
0

>  <SCORE.heavy>
10

>  <SCORE.norm>
-1.61805

>  <RMSD>
2.446

$$$$
ligand
 OpenBabel11021811423D
libRbt.so/2013.1/901 2013/11/27
 10 11  0  0  0  0  0  0  0  0999 V2000
   11.7392   11.0359    9.3584 N   0  0  0  0  0  0  0  0  0  0  0  0
   11.7807    9.9526    8.5002 C   0  0  0  0  0  0  0  0  0  0  0  0
   11.6180   10.0844    7.1766 N   0  0  0  0  0  0  0  0  0  0  0  0
   11.4104   11.3687    6.7860 C   0  0  0  0  0  0  0  0  0  0  0  0
   11.3556   12.4956    7.5868 C   0  0  0  0  0  0  0  0  0  0  0  0
   11.5282   12.3701    8.9958 C   0  0  0  0  0  0  0  0  0  0  0  0
   11.5180   13.2298    9.8884 O   0  0  0  0  0  0  0  0  0  0  0  0
   11.1274   13.5811    6.7865 N   0  0  0  0  0  0  0  0  0  0  0  0
   11.0479   13.1128    5.5160 C   0  0  0  0  0  0  0  0  0  0  0  0
   11.2175   11.7527    5.4827 N   0  0  0  0  0  0  0  0  0  0  0  0
  1  2  1  0  0  0  0
  1  6  1  0  0  0  0
  2  3  2  0  0  0  0
  3  4  1  0  0  0  0
  4  5  2  0  0  0  0
  4 10  1  0  0  0  0
  5  6  1  0  0  0  0
  5  8  1  0  0  0  0
  6  7  2  0  0  0  0
  8  9  1  0  0  0  0
  9 10  2  0  0  0  0
M  END
>  <CHROM.1>
11.43629518,11.92137613,7.65202335,-0.66832570,1.40330121,-2.28696475

>  <Name>
ligand

>  <RI>
0

>  <Rbt.Current_Directory>
/home/itssahil/PROJECTS/Mol_Feturizer/New_Systems/rnas/2EEW

>  <Rbt.Executable>
rbdock ($Id: //depot/dev/client3/rdock/2013.1/src/exe/rbdock.cxx#4 $)

>  <Rbt.Library>
libRbt.so (2013.1, Build901 2013/11/27)

>  <Rbt.Parameter_File>
/export/apps/rDock/src/rDock_2013.1_src/data/scripts/dock_solv.prm

>  <Rbt.Receptor>
prm/blind_docking_40.prm

>  <SCORE>
-16.1896

>  <SCORE.INTER>
-16.1896

>  <SCORE.INTER.CONST>
1

>  <SCORE.INTER.POLAR>
0

>  <SCORE.INTER.ROT>
0

>  <SCORE.INTER.SOLV>
4.18324

>  <SCORE.INTER.VDW>
-15.7875

>  <SCORE.INTER.norm>
-1.61896

>  <SCORE.INTRA>
0

>  <SCORE.INTRA.DIHEDRAL>
0

>  <SCORE.INTRA.DIHEDRAL.0>
0

>  <SCORE.INTRA.POLAR>
0

>  <SCORE.INTRA.POLAR.0>
0

>  <SCORE.INTRA.REPUL>
0

>  <SCORE.INTRA.REPUL.0>
0

>  <SCORE.INTRA.SOLV>
0

>  <SCORE.INTRA.SOLV.lig_0>
-4.28901

>  <SCORE.INTRA.VDW>
0

>  <SCORE.INTRA.VDW.0>
0

>  <SCORE.INTRA.norm>
0

>  <SCORE.RESTR>
0

>  <SCORE.RESTR.CAVITY>
0

>  <SCORE.RESTR.norm>
0

>  <SCORE.SYSTEM>
0

>  <SCORE.SYSTEM.CONST>
0

>  <SCORE.SYSTEM.DIHEDRAL>
0

>  <SCORE.SYSTEM.SOLV>
0

>  <SCORE.SYSTEM.norm>
0

>  <SCORE.heavy>
10

>  <SCORE.norm>
-1.61896

>  <RMSD>
2.446

$$$$
ligand
 OpenBabel11021811423D
libRbt.so/2013.1/901 2013/11/27
 10 11  0  0  0  0  0  0  0  0999 V2000
   11.7287   11.0446    9.3161 N   0  0  0  0  0  0  0  0  0  0  0  0
   11.7698    9.9608    8.4586 C   0  0  0  0  0  0  0  0  0  0  0  0
   11.6092   10.0920    7.1347 N   0  0  0  0  0  0  0  0  0  0  0  0
   11.4039   11.3764    6.7431 C   0  0  0  0  0  0  0  0  0  0  0  0
   11.3494   12.5038    7.5432 C   0  0  0  0  0  0  0  0  0  0  0  0
   11.5199   12.3788    8.9525 C   0  0  0  0  0  0  0  0  0  0  0  0
   11.5097   13.2391    9.8445 O   0  0  0  0  0  0  0  0  0  0  0  0
   11.1238   13.5891    6.7420 N   0  0  0  0  0  0  0  0  0  0  0  0
   11.0454   13.1202    5.4716 C   0  0  0  0  0  0  0  0  0  0  0  0
   11.2133   11.7598    5.4393 N   0  0  0  0  0  0  0  0  0  0  0  0
  1  2  1  0  0  0  0
  1  6  1  0  0  0  0
  2  3  2  0  0  0  0
  3  4  1  0  0  0  0
  4  5  2  0  0  0  0
  4 10  1  0  0  0  0
  5  6  1  0  0  0  0
  5  8  1  0  0  0  0
  6  7  2  0  0  0  0
  8  9  1  0  0  0  0
  9 10  2  0  0  0  0
M  END
>  <CHROM.1>
11.42928415,11.92947434,7.60883130,-0.66934505,1.40521409,-2.28652851

>  <Name>
ligand

>  <RI>
0

>  <Rbt.Current_Directory>
/home/itssahil/PROJECTS/Mol_Feturizer/New_Systems/rnas/2EEW

>  <Rbt.Executable>
rbdock ($Id: //depot/dev/client3/rdock/2013.1/src/exe/rbdock.cxx#4 $)

>  <Rbt.Library>
libRbt.so (2013.1, Build901 2013/11/27)

>  <Rbt.Parameter_File>
/export/apps/rDock/src/rDock_2013.1_src/data/scripts/dock_solv.prm

>  <Rbt.Receptor>
prm/blind_docking_100.prm

>  <SCORE>
-16.1703

>  <SCORE.INTER>
-16.1703

>  <SCORE.INTER.CONST>
1

>  <SCORE.INTER.POLAR>
0

>  <SCORE.INTER.ROT>
0

>  <SCORE.INTER.SOLV>
4.18342

>  <SCORE.INTER.VDW>
-15.7747

>  <SCORE.INTER.norm>
-1.61703

>  <SCORE.INTRA>
0

>  <SCORE.INTRA.DIHEDRAL>
0

>  <SCORE.INTRA.DIHEDRAL.0>
0

>  <SCORE.INTRA.POLAR>
0

>  <SCORE.INTRA.POLAR.0>
0

>  <SCORE.INTRA.REPUL>
0

>  <SCORE.INTRA.REPUL.0>
0

>  <SCORE.INTRA.SOLV>
0

>  <SCORE.INTRA.SOLV.lig_0>
-4.28901

>  <SCORE.INTRA.VDW>
0

>  <SCORE.INTRA.VDW.0>
0

>  <SCORE.INTRA.norm>
0

>  <SCORE.RESTR>
0

>  <SCORE.RESTR.CAVITY>
0

>  <SCORE.RESTR.norm>
0

>  <SCORE.SYSTEM>
0

>  <SCORE.SYSTEM.CONST>
0

>  <SCORE.SYSTEM.DIHEDRAL>
0

>  <SCORE.SYSTEM.SOLV>
0

>  <SCORE.SYSTEM.norm>
0

>  <SCORE.heavy>
10

>  <SCORE.norm>
-1.61703

>  <RMSD>
2.447

$$$$
ligand
 OpenBabel11021811423D
libRbt.so/2013.1/901 2013/11/27
 10 11  0  0  0  0  0  0  0  0999 V2000
   11.7401   11.0526    9.3827 N   0  0  0  0  0  0  0  0  0  0  0  0
   11.7578    9.9608    8.5345 C   0  0  0  0  0  0  0  0  0  0  0  0
   11.5909   10.0831    7.2105 N   0  0  0  0  0  0  0  0  0  0  0  0
   11.4046   11.3673    6.8089 C   0  0  0  0  0  0  0  0  0  0  0  0
   11.3740   12.5024    7.5993 C   0  0  0  0  0  0  0  0  0  0  0  0
   11.5513   12.3869    9.0086 C   0  0  0  0  0  0  0  0  0  0  0  0
   11.5611   13.2549    9.8931 O   0  0  0  0  0  0  0  0  0  0  0  0
   11.1614   13.5843    6.7900 N   0  0  0  0  0  0  0  0  0  0  0  0
   11.0671   13.1058    5.5243 C   0  0  0  0  0  0  0  0  0  0  0  0
   11.2121   11.7425    5.5030 N   0  0  0  0  0  0  0  0  0  0  0  0
  1  2  1  0  0  0  0
  1  6  1  0  0  0  0
  2  3  2  0  0  0  0
  3  4  1  0  0  0  0
  4  5  2  0  0  0  0
  4 10  1  0  0  0  0
  5  6  1  0  0  0  0
  5  8  1  0  0  0  0
  6  7  2  0  0  0  0
  8  9  1  0  0  0  0
  9 10  2  0  0  0  0
M  END
>  <CHROM.1>
11.44467189,11.92741626,7.66955983,-0.56927573,1.41282189,-2.39405677

>  <Name>
ligand

>  <RI>
0

>  <Rbt.Current_Directory>
/home/itssahil/PROJECTS/Mol_Feturizer/New_Systems/rnas/2EEW

>  <Rbt.Executable>
rbdock ($Id: //depot/dev/client3/rdock/2013.1/src/exe/rbdock.cxx#4 $)

>  <Rbt.Library>
libRbt.so (2013.1, Build901 2013/11/27)

>  <Rbt.Parameter_File>
/export/apps/rDock/src/rDock_2013.1_src/data/scripts/dock_solv.prm

>  <Rbt.Receptor>
prm/blind_docking_60.prm

>  <SCORE>
-16.1761

>  <SCORE.INTER>
-16.1761

>  <SCORE.INTER.CONST>
1

>  <SCORE.INTER.POLAR>
0

>  <SCORE.INTER.ROT>
0

>  <SCORE.INTER.SOLV>
4.21823

>  <SCORE.INTER.VDW>
-15.7901

>  <SCORE.INTER.norm>
-1.61761

>  <SCORE.INTRA>
0

>  <SCORE.INTRA.DIHEDRAL>
0

>  <SCORE.INTRA.DIHEDRAL.0>
0

>  <SCORE.INTRA.POLAR>
0

>  <SCORE.INTRA.POLAR.0>
0

>  <SCORE.INTRA.REPUL>
0

>  <SCORE.INTRA.REPUL.0>
0

>  <SCORE.INTRA.SOLV>
0

>  <SCORE.INTRA.SOLV.lig_0>
-4.28901

>  <SCORE.INTRA.VDW>
0

>  <SCORE.INTRA.VDW.0>
0

>  <SCORE.INTRA.norm>
0

>  <SCORE.RESTR>
0

>  <SCORE.RESTR.CAVITY>
0

>  <SCORE.RESTR.norm>
0

>  <SCORE.SYSTEM>
0

>  <SCORE.SYSTEM.CONST>
0

>  <SCORE.SYSTEM.DIHEDRAL>
0

>  <SCORE.SYSTEM.SOLV>
0

>  <SCORE.SYSTEM.norm>
0

>  <SCORE.heavy>
10

>  <SCORE.norm>
-1.61761

>  <RMSD>
2.447

$$$$
ligand
 OpenBabel11021811423D
libRbt.so/2013.1/901 2013/11/27
 10 11  0  0  0  0  0  0  0  0999 V2000
   11.7720   11.0723    9.3554 N   0  0  0  0  0  0  0  0  0  0  0  0
   11.8033    9.9803    8.5078 C   0  0  0  0  0  0  0  0  0  0  0  0
   11.6328   10.0995    7.1841 N   0  0  0  0  0  0  0  0  0  0  0  0
   11.4283   11.3807    6.7819 C   0  0  0  0  0  0  0  0  0  0  0  0
   11.3834   12.5158    7.5716 C   0  0  0  0  0  0  0  0  0  0  0  0
   11.5644   12.4036    8.9807 C   0  0  0  0  0  0  0  0  0  0  0  0
   11.5637   13.2723    9.8647 O   0  0  0  0  0  0  0  0  0  0  0  0
   11.1549   13.5942    6.7620 N   0  0  0  0  0  0  0  0  0  0  0  0
   11.0653   13.1136    5.4967 C   0  0  0  0  0  0  0  0  0  0  0  0
   11.2288   11.7524    5.4761 N   0  0  0  0  0  0  0  0  0  0  0  0
  1  2  1  0  0  0  0
  1  6  1  0  0  0  0
  2  3  2  0  0  0  0
  3  4  1  0  0  0  0
  4  5  2  0  0  0  0
  4 10  1  0  0  0  0
  5  6  1  0  0  0  0
  5  8  1  0  0  0  0
  6  7  2  0  0  0  0
  8  9  1  0  0  0  0
  9 10  2  0  0  0  0
M  END
>  <CHROM.1>
11.46206514,11.94189995,7.64213871,-0.62279498,1.40223173,-2.34188988

>  <Name>
ligand

>  <RI>
0

>  <Rbt.Current_Directory>
/home/itssahil/PROJECTS/Mol_Feturizer/New_Systems/rnas/2EEW

>  <Rbt.Executable>
rbdock ($Id: //depot/dev/client3/rdock/2013.1/src/exe/rbdock.cxx#4 $)

>  <Rbt.Library>
libRbt.so (2013.1, Build901 2013/11/27)

>  <Rbt.Parameter_File>
/export/apps/rDock/src/rDock_2013.1_src/data/scripts/dock_solv.prm

>  <Rbt.Receptor>
prm/blind_docking_100.prm

>  <SCORE>
-16.185

>  <SCORE.INTER>
-16.185

>  <SCORE.INTER.CONST>
1

>  <SCORE.INTER.POLAR>
0

>  <SCORE.INTER.ROT>
0

>  <SCORE.INTER.SOLV>
4.20349

>  <SCORE.INTER.VDW>
-15.7911

>  <SCORE.INTER.norm>
-1.6185

>  <SCORE.INTRA>
0

>  <SCORE.INTRA.DIHEDRAL>
0

>  <SCORE.INTRA.DIHEDRAL.0>
0

>  <SCORE.INTRA.POLAR>
0

>  <SCORE.INTRA.POLAR.0>
0

>  <SCORE.INTRA.REPUL>
0

>  <SCORE.INTRA.REPUL.0>
0

>  <SCORE.INTRA.SOLV>
0

>  <SCORE.INTRA.SOLV.lig_0>
-4.28901

>  <SCORE.INTRA.VDW>
0

>  <SCORE.INTRA.VDW.0>
0

>  <SCORE.INTRA.norm>
0

>  <SCORE.RESTR>
0

>  <SCORE.RESTR.CAVITY>
0

>  <SCORE.RESTR.norm>
0

>  <SCORE.SYSTEM>
0

>  <SCORE.SYSTEM.CONST>
0

>  <SCORE.SYSTEM.DIHEDRAL>
0

>  <SCORE.SYSTEM.SOLV>
0

>  <SCORE.SYSTEM.norm>
0

>  <SCORE.heavy>
10

>  <SCORE.norm>
-1.6185

>  <RMSD>
2.448

$$$$
ligand
 OpenBabel11021811423D
libRbt.so/2013.1/901 2013/11/27
 10 11  0  0  0  0  0  0  0  0999 V2000
   11.7555   11.0698    9.3844 N   0  0  0  0  0  0  0  0  0  0  0  0
   11.7622    9.9752    8.5397 C   0  0  0  0  0  0  0  0  0  0  0  0
   11.5830   10.0937    7.2170 N   0  0  0  0  0  0  0  0  0  0  0  0
   11.3963   11.3770    6.8129 C   0  0  0  0  0  0  0  0  0  0  0  0
   11.3763   12.5147    7.5998 C   0  0  0  0  0  0  0  0  0  0  0  0
   11.5667   12.4034    9.0077 C   0  0  0  0  0  0  0  0  0  0  0  0
   11.5872   13.2743    9.8892 O   0  0  0  0  0  0  0  0  0  0  0  0
   11.1589   13.5946    6.7890 N   0  0  0  0  0  0  0  0  0  0  0  0
   11.0513   13.1122    5.5258 C   0  0  0  0  0  0  0  0  0  0  0  0
   11.1924   11.7485    5.5077 N   0  0  0  0  0  0  0  0  0  0  0  0
  1  2  1  0  0  0  0
  1  6  1  0  0  0  0
  2  3  2  0  0  0  0
  3  4  1  0  0  0  0
  4  5  2  0  0  0  0
  4 10  1  0  0  0  0
  5  6  1  0  0  0  0
  5  8  1  0  0  0  0
  6  7  2  0  0  0  0
  8  9  1  0  0  0  0
  9 10  2  0  0  0  0
M  END
>  <CHROM.1>
11.44611059,11.93983394,7.67127553,-0.51736522,1.40745734,-2.44858757

>  <Name>
ligand

>  <RI>
0

>  <Rbt.Current_Directory>
/home/itssahil/PROJECTS/Mol_Feturizer/New_Systems/rnas/2EEW

>  <Rbt.Executable>
rbdock ($Id: //depot/dev/client3/rdock/2013.1/src/exe/rbdock.cxx#4 $)

>  <Rbt.Library>
libRbt.so (2013.1, Build901 2013/11/27)

>  <Rbt.Parameter_File>
/export/apps/rDock/src/rDock_2013.1_src/data/scripts/dock_solv.prm

>  <Rbt.Receptor>
prm/pocket_docking_7.prm

>  <SCORE>
-16.1818

>  <SCORE.INTER>
-16.1818

>  <SCORE.INTER.CONST>
1

>  <SCORE.INTER.POLAR>
0

>  <SCORE.INTER.ROT>
0

>  <SCORE.INTER.SOLV>
4.22171

>  <SCORE.INTER.VDW>
-15.7951

>  <SCORE.INTER.norm>
-1.61818

>  <SCORE.INTRA>
0

>  <SCORE.INTRA.DIHEDRAL>
0

>  <SCORE.INTRA.DIHEDRAL.0>
0

>  <SCORE.INTRA.POLAR>
0

>  <SCORE.INTRA.POLAR.0>
0

>  <SCORE.INTRA.REPUL>
0

>  <SCORE.INTRA.REPUL.0>
0

>  <SCORE.INTRA.SOLV>
0

>  <SCORE.INTRA.SOLV.lig_0>
-4.28901

>  <SCORE.INTRA.VDW>
0

>  <SCORE.INTRA.VDW.0>
0

>  <SCORE.INTRA.norm>
0

>  <SCORE.RESTR>
0

>  <SCORE.RESTR.CAVITY>
0

>  <SCORE.RESTR.norm>
0

>  <SCORE.SYSTEM>
0

>  <SCORE.SYSTEM.CONST>
0

>  <SCORE.SYSTEM.DIHEDRAL>
0

>  <SCORE.SYSTEM.SOLV>
0

>  <SCORE.SYSTEM.norm>
0

>  <SCORE.heavy>
10

>  <SCORE.norm>
-1.61818

>  <RMSD>
2.448

$$$$
ligand
 OpenBabel11021811423D
libRbt.so/2013.1/901 2013/11/27
 10 11  0  0  0  0  0  0  0  0999 V2000
   11.7220   11.0504    9.3945 N   0  0  0  0  0  0  0  0  0  0  0  0
   11.7354    9.9573    8.5479 C   0  0  0  0  0  0  0  0  0  0  0  0
   11.5752   10.0789    7.2231 N   0  0  0  0  0  0  0  0  0  0  0  0
   11.4000   11.3638    6.8188 C   0  0  0  0  0  0  0  0  0  0  0  0
   11.3742   12.5002    7.6075 C   0  0  0  0  0  0  0  0  0  0  0  0
   11.5446   12.3855    9.0177 C   0  0  0  0  0  0  0  0  0  0  0  0
   11.5568   13.2547    9.9010 O   0  0  0  0  0  0  0  0  0  0  0  0
   11.1731   13.5825    6.7957 N   0  0  0  0  0  0  0  0  0  0  0  0
   11.0808   13.1028    5.5303 C   0  0  0  0  0  0  0  0  0  0  0  0
   11.2159   11.7385    5.5116 N   0  0  0  0  0  0  0  0  0  0  0  0
  1  2  1  0  0  0  0
  1  6  1  0  0  0  0
  2  3  2  0  0  0  0
  3  4  1  0  0  0  0
  4  5  2  0  0  0  0
  4 10  1  0  0  0  0
  5  6  1  0  0  0  0
  5  8  1  0  0  0  0
  6  7  2  0  0  0  0
  8  9  1  0  0  0  0
  9 10  2  0  0  0  0
M  END
>  <CHROM.1>
11.44042170,11.92488366,7.67886958,-0.55327808,1.42096126,-2.41130405

>  <Name>
ligand

>  <RI>
0

>  <Rbt.Current_Directory>
/home/itssahil/PROJECTS/Mol_Feturizer/New_Systems/rnas/2EEW

>  <Rbt.Executable>
rbdock ($Id: //depot/dev/client3/rdock/2013.1/src/exe/rbdock.cxx#4 $)

>  <Rbt.Library>
libRbt.so (2013.1, Build901 2013/11/27)

>  <Rbt.Parameter_File>
/export/apps/rDock/src/rDock_2013.1_src/data/scripts/dock_solv.prm

>  <Rbt.Receptor>
prm/pocket_docking_8.prm

>  <SCORE>
-16.1979

>  <SCORE.INTER>
-16.1979

>  <SCORE.INTER.CONST>
1

>  <SCORE.INTER.POLAR>
0

>  <SCORE.INTER.ROT>
0

>  <SCORE.INTER.SOLV>
4.23502

>  <SCORE.INTER.VDW>
-15.8103

>  <SCORE.INTER.norm>
-1.61979

>  <SCORE.INTRA>
0

>  <SCORE.INTRA.DIHEDRAL>
0

>  <SCORE.INTRA.DIHEDRAL.0>
0

>  <SCORE.INTRA.POLAR>
0

>  <SCORE.INTRA.POLAR.0>
0

>  <SCORE.INTRA.REPUL>
0

>  <SCORE.INTRA.REPUL.0>
0

>  <SCORE.INTRA.SOLV>
0

>  <SCORE.INTRA.SOLV.lig_0>
-4.28901

>  <SCORE.INTRA.VDW>
0

>  <SCORE.INTRA.VDW.0>
0

>  <SCORE.INTRA.norm>
0

>  <SCORE.RESTR>
0

>  <SCORE.RESTR.CAVITY>
0

>  <SCORE.RESTR.norm>
0

>  <SCORE.SYSTEM>
0

>  <SCORE.SYSTEM.CONST>
0

>  <SCORE.SYSTEM.DIHEDRAL>
0

>  <SCORE.SYSTEM.SOLV>
0

>  <SCORE.SYSTEM.norm>
0

>  <SCORE.heavy>
10

>  <SCORE.norm>
-1.61979

>  <RMSD>
2.448

$$$$
ligand
 OpenBabel11021811423D
libRbt.so/2013.1/901 2013/11/27
 10 11  0  0  0  0  0  0  0  0999 V2000
   11.7702   11.0882    9.3560 N   0  0  0  0  0  0  0  0  0  0  0  0
   11.7885   10.0080    8.4930 C   0  0  0  0  0  0  0  0  0  0  0  0
   11.5861   10.1440    7.1754 N   0  0  0  0  0  0  0  0  0  0  0  0
   11.3640   11.4292    6.7957 C   0  0  0  0  0  0  0  0  0  0  0  0
   11.3304   12.5531    7.6019 C   0  0  0  0  0  0  0  0  0  0  0  0
   11.5452   12.4230    9.0046 C   0  0  0  0  0  0  0  0  0  0  0  0
   11.5597   13.2796    9.9002 O   0  0  0  0  0  0  0  0  0  0  0  0
   11.0758   13.6408    6.8127 N   0  0  0  0  0  0  0  0  0  0  0  0
   10.9595   13.1768    5.5434 C   0  0  0  0  0  0  0  0  0  0  0  0
   11.1313   11.8172    5.5002 N   0  0  0  0  0  0  0  0  0  0  0  0
  1  2  1  0  0  0  0
  1  6  1  0  0  0  0
  2  3  2  0  0  0  0
  3  4  1  0  0  0  0
  4  5  2  0  0  0  0
  4 10  1  0  0  0  0
  5  6  1  0  0  0  0
  5  8  1  0  0  0  0
  6  7  2  0  0  0  0
  8  9  1  0  0  0  0
  9 10  2  0  0  0  0
M  END
>  <CHROM.1>
11.41433746,11.97884873,7.66260873,-0.55714198,1.38075395,-2.39284169

>  <Name>
ligand

>  <RI>
0

>  <Rbt.Current_Directory>
/home/itssahil/PROJECTS/Mol_Feturizer/New_Systems/rnas/2EEW

>  <Rbt.Executable>
rbdock ($Id: //depot/dev/client3/rdock/2013.1/src/exe/rbdock.cxx#4 $)

>  <Rbt.Library>
libRbt.so (2013.1, Build901 2013/11/27)

>  <Rbt.Parameter_File>
/export/apps/rDock/src/rDock_2013.1_src/data/scripts/dock_solv.prm

>  <Rbt.Receptor>
prm/blind_docking_100.prm

>  <SCORE>
-16.1597

>  <SCORE.INTER>
-16.1597

>  <SCORE.INTER.CONST>
1

>  <SCORE.INTER.POLAR>
0

>  <SCORE.INTER.ROT>
0

>  <SCORE.INTER.SOLV>
4.18825

>  <SCORE.INTER.VDW>
-15.7692

>  <SCORE.INTER.norm>
-1.61597

>  <SCORE.INTRA>
0

>  <SCORE.INTRA.DIHEDRAL>
0

>  <SCORE.INTRA.DIHEDRAL.0>
0

>  <SCORE.INTRA.POLAR>
0

>  <SCORE.INTRA.POLAR.0>
0

>  <SCORE.INTRA.REPUL>
0

>  <SCORE.INTRA.REPUL.0>
0

>  <SCORE.INTRA.SOLV>
0

>  <SCORE.INTRA.SOLV.lig_0>
-4.28901

>  <SCORE.INTRA.VDW>
0

>  <SCORE.INTRA.VDW.0>
0

>  <SCORE.INTRA.norm>
0

>  <SCORE.RESTR>
0

>  <SCORE.RESTR.CAVITY>
0

>  <SCORE.RESTR.norm>
0

>  <SCORE.SYSTEM>
0

>  <SCORE.SYSTEM.CONST>
0

>  <SCORE.SYSTEM.DIHEDRAL>
0

>  <SCORE.SYSTEM.SOLV>
0

>  <SCORE.SYSTEM.norm>
0

>  <SCORE.heavy>
10

>  <SCORE.norm>
-1.61597

>  <RMSD>
2.453

$$$$
ligand
 OpenBabel11021811423D
libRbt.so/2013.1/901 2013/11/27
 10 11  0  0  0  0  0  0  0  0999 V2000
   11.7239   11.0554    9.3816 N   0  0  0  0  0  0  0  0  0  0  0  0
   11.7261    9.9788    8.5139 C   0  0  0  0  0  0  0  0  0  0  0  0
   11.5429   10.1253    7.1946 N   0  0  0  0  0  0  0  0  0  0  0  0
   11.3568   11.4172    6.8182 C   0  0  0  0  0  0  0  0  0  0  0  0
   11.3412   12.5381    7.6290 C   0  0  0  0  0  0  0  0  0  0  0  0
   11.5360   12.3969    9.0336 C   0  0  0  0  0  0  0  0  0  0  0  0
   11.5608   13.2490    9.9331 O   0  0  0  0  0  0  0  0  0  0  0  0
   11.1229   13.6351    6.8418 N   0  0  0  0  0  0  0  0  0  0  0  0
   11.0104   13.1795    5.5691 C   0  0  0  0  0  0  0  0  0  0  0  0
   11.1493   11.8163    5.5218 N   0  0  0  0  0  0  0  0  0  0  0  0
  1  2  1  0  0  0  0
  1  6  1  0  0  0  0
  2  3  2  0  0  0  0
  3  4  1  0  0  0  0
  4  5  2  0  0  0  0
  4 10  1  0  0  0  0
  5  6  1  0  0  0  0
  5  8  1  0  0  0  0
  6  7  2  0  0  0  0
  8  9  1  0  0  0  0
  9 10  2  0  0  0  0
M  END
>  <CHROM.1>
11.41033216,11.96173053,7.68811581,-0.49722995,1.40592014,-2.44741707

>  <Name>
ligand

>  <RI>
0

>  <Rbt.Current_Directory>
/home/itssahil/PROJECTS/Mol_Feturizer/New_Systems/rnas/2EEW

>  <Rbt.Executable>
rbdock ($Id: //depot/dev/client3/rdock/2013.1/src/exe/rbdock.cxx#4 $)

>  <Rbt.Library>
libRbt.so (2013.1, Build901 2013/11/27)

>  <Rbt.Parameter_File>
/export/apps/rDock/src/rDock_2013.1_src/data/scripts/dock_solv.prm

>  <Rbt.Receptor>
prm/blind_docking_40.prm

>  <SCORE>
-16.2019

>  <SCORE.INTER>
-16.2019

>  <SCORE.INTER.CONST>
1

>  <SCORE.INTER.POLAR>
0

>  <SCORE.INTER.ROT>
0

>  <SCORE.INTER.SOLV>
4.22503

>  <SCORE.INTER.VDW>
-15.8096

>  <SCORE.INTER.norm>
-1.62019

>  <SCORE.INTRA>
0

>  <SCORE.INTRA.DIHEDRAL>
0

>  <SCORE.INTRA.DIHEDRAL.0>
0

>  <SCORE.INTRA.POLAR>
0

>  <SCORE.INTRA.POLAR.0>
0

>  <SCORE.INTRA.REPUL>
0

>  <SCORE.INTRA.REPUL.0>
0

>  <SCORE.INTRA.SOLV>
0

>  <SCORE.INTRA.SOLV.lig_0>
-4.28901

>  <SCORE.INTRA.VDW>
0

>  <SCORE.INTRA.VDW.0>
0

>  <SCORE.INTRA.norm>
0

>  <SCORE.RESTR>
0

>  <SCORE.RESTR.CAVITY>
0

>  <SCORE.RESTR.norm>
0

>  <SCORE.SYSTEM>
0

>  <SCORE.SYSTEM.CONST>
0

>  <SCORE.SYSTEM.DIHEDRAL>
0

>  <SCORE.SYSTEM.SOLV>
0

>  <SCORE.SYSTEM.norm>
0

>  <SCORE.heavy>
10

>  <SCORE.norm>
-1.62019

>  <RMSD>
2.453

$$$$
ligand
 OpenBabel11021811423D
libRbt.so/2013.1/901 2013/11/27
 10 11  0  0  0  0  0  0  0  0999 V2000
   11.7586   11.0827    9.3843 N   0  0  0  0  0  0  0  0  0  0  0  0
   11.7622   10.0009    8.5232 C   0  0  0  0  0  0  0  0  0  0  0  0
   11.5690   10.1382    7.2043 N   0  0  0  0  0  0  0  0  0  0  0  0
   11.3718   11.4265    6.8214 C   0  0  0  0  0  0  0  0  0  0  0  0
   11.3541   12.5522    7.6255 C   0  0  0  0  0  0  0  0  0  0  0  0
   11.5594   12.4208    9.0295 C   0  0  0  0  0  0  0  0  0  0  0  0
   11.5845   13.2785    9.9237 O   0  0  0  0  0  0  0  0  0  0  0  0
   11.1231   13.6429    6.8332 N   0  0  0  0  0  0  0  0  0  0  0  0
   11.0051   13.1789    5.5640 C   0  0  0  0  0  0  0  0  0  0  0  0
   11.1528   11.8164    5.5240 N   0  0  0  0  0  0  0  0  0  0  0  0
  1  2  1  0  0  0  0
  1  6  1  0  0  0  0
  2  3  2  0  0  0  0
  3  4  1  0  0  0  0
  4  5  2  0  0  0  0
  4 10  1  0  0  0  0
  5  6  1  0  0  0  0
  5  8  1  0  0  0  0
  6  7  2  0  0  0  0
  8  9  1  0  0  0  0
  9 10  2  0  0  0  0
M  END
>  <CHROM.1>
11.42749598,11.97666703,7.68758473,-0.50206308,1.39642898,-2.44870489

>  <Name>
ligand

>  <RI>
0

>  <Rbt.Current_Directory>
/home/itssahil/PROJECTS/Mol_Feturizer/New_Systems/rnas/2EEW

>  <Rbt.Executable>
rbdock ($Id: //depot/dev/client3/rdock/2013.1/src/exe/rbdock.cxx#4 $)

>  <Rbt.Library>
libRbt.so (2013.1, Build901 2013/11/27)

>  <Rbt.Parameter_File>
/export/apps/rDock/src/rDock_2013.1_src/data/scripts/dock_solv.prm

>  <Rbt.Receptor>
prm/blind_docking_40.prm

>  <SCORE>
-16.1696

>  <SCORE.INTER>
-16.1696

>  <SCORE.INTER.CONST>
1

>  <SCORE.INTER.POLAR>
0

>  <SCORE.INTER.ROT>
0

>  <SCORE.INTER.SOLV>
4.22697

>  <SCORE.INTER.VDW>
-15.7887

>  <SCORE.INTER.norm>
-1.61696

>  <SCORE.INTRA>
0

>  <SCORE.INTRA.DIHEDRAL>
0

>  <SCORE.INTRA.DIHEDRAL.0>
0

>  <SCORE.INTRA.POLAR>
0

>  <SCORE.INTRA.POLAR.0>
0

>  <SCORE.INTRA.REPUL>
0

>  <SCORE.INTRA.REPUL.0>
0

>  <SCORE.INTRA.SOLV>
0

>  <SCORE.INTRA.SOLV.lig_0>
-4.28901

>  <SCORE.INTRA.VDW>
0

>  <SCORE.INTRA.VDW.0>
0

>  <SCORE.INTRA.norm>
0

>  <SCORE.RESTR>
0

>  <SCORE.RESTR.CAVITY>
0

>  <SCORE.RESTR.norm>
0

>  <SCORE.SYSTEM>
0

>  <SCORE.SYSTEM.CONST>
0

>  <SCORE.SYSTEM.DIHEDRAL>
0

>  <SCORE.SYSTEM.SOLV>
0

>  <SCORE.SYSTEM.norm>
0

>  <SCORE.heavy>
10

>  <SCORE.norm>
-1.61696

>  <RMSD>
2.454

$$$$
ligand
 OpenBabel11021811423D
libRbt.so/2013.1/901 2013/11/27
 10 11  0  0  0  0  0  0  0  0999 V2000
   11.7380   11.0870    9.3770 N   0  0  0  0  0  0  0  0  0  0  0  0
   11.7234   10.0022    8.5198 C   0  0  0  0  0  0  0  0  0  0  0  0
   11.5322   10.1379    7.2005 N   0  0  0  0  0  0  0  0  0  0  0  0
   11.3564   11.4279    6.8129 C   0  0  0  0  0  0  0  0  0  0  0  0
   11.3576   12.5567    7.6130 C   0  0  0  0  0  0  0  0  0  0  0  0
   11.5609   12.4269    9.0175 C   0  0  0  0  0  0  0  0  0  0  0  0
   11.6005   13.2873    9.9086 O   0  0  0  0  0  0  0  0  0  0  0  0
   11.1446   13.6482    6.8168 N   0  0  0  0  0  0  0  0  0  0  0  0
   11.0186   13.1816    5.5494 C   0  0  0  0  0  0  0  0  0  0  0  0
   11.1436   11.8167    5.5142 N   0  0  0  0  0  0  0  0  0  0  0  0
  1  2  1  0  0  0  0
  1  6  1  0  0  0  0
  2  3  2  0  0  0  0
  3  4  1  0  0  0  0
  4  5  2  0  0  0  0
  4 10  1  0  0  0  0
  5  6  1  0  0  0  0
  5  8  1  0  0  0  0
  6  7  2  0  0  0  0
  8  9  1  0  0  0  0
  9 10  2  0  0  0  0
M  END
>  <CHROM.1>
11.42141388,11.98019373,7.67714330,-0.42293381,1.40638688,-2.53030252

>  <Name>
ligand

>  <RI>
0

>  <Rbt.Current_Directory>
/home/itssahil/PROJECTS/Mol_Feturizer/New_Systems/rnas/2EEW

>  <Rbt.Executable>
rbdock ($Id: //depot/dev/client3/rdock/2013.1/src/exe/rbdock.cxx#4 $)

>  <Rbt.Library>
libRbt.so (2013.1, Build901 2013/11/27)

>  <Rbt.Parameter_File>
/export/apps/rDock/src/rDock_2013.1_src/data/scripts/dock_solv.prm

>  <Rbt.Receptor>
prm/blind_docking_40.prm

>  <SCORE>
-16.1607

>  <SCORE.INTER>
-16.1607

>  <SCORE.INTER.CONST>
1

>  <SCORE.INTER.POLAR>
0

>  <SCORE.INTER.ROT>
0

>  <SCORE.INTER.SOLV>
4.25317

>  <SCORE.INTER.VDW>
-15.7915

>  <SCORE.INTER.norm>
-1.61607

>  <SCORE.INTRA>
0

>  <SCORE.INTRA.DIHEDRAL>
0

>  <SCORE.INTRA.DIHEDRAL.0>
0

>  <SCORE.INTRA.POLAR>
0

>  <SCORE.INTRA.POLAR.0>
0

>  <SCORE.INTRA.REPUL>
0

>  <SCORE.INTRA.REPUL.0>
0

>  <SCORE.INTRA.SOLV>
0

>  <SCORE.INTRA.SOLV.lig_0>
-4.28901

>  <SCORE.INTRA.VDW>
0

>  <SCORE.INTRA.VDW.0>
0

>  <SCORE.INTRA.norm>
0

>  <SCORE.RESTR>
0

>  <SCORE.RESTR.CAVITY>
0

>  <SCORE.RESTR.norm>
0

>  <SCORE.SYSTEM>
0

>  <SCORE.SYSTEM.CONST>
0

>  <SCORE.SYSTEM.DIHEDRAL>
0

>  <SCORE.SYSTEM.SOLV>
0

>  <SCORE.SYSTEM.norm>
0

>  <SCORE.heavy>
10

>  <SCORE.norm>
-1.61607

>  <RMSD>
2.454

$$$$
ligand
 OpenBabel11021811423D
libRbt.so/2013.1/901 2013/11/27
 10 11  0  0  0  0  0  0  0  0999 V2000
   11.8251   10.8692    8.8386 N   0  0  0  0  0  0  0  0  0  0  0  0
   11.8818    9.7177    8.0752 C   0  0  0  0  0  0  0  0  0  0  0  0
   11.6659    9.7271    6.7528 N   0  0  0  0  0  0  0  0  0  0  0  0
   11.3896   10.9633    6.2622 C   0  0  0  0  0  0  0  0  0  0  0  0
   11.3156   12.1526    6.9651 C   0  0  0  0  0  0  0  0  0  0  0  0
   11.5442   12.1573    8.3717 C   0  0  0  0  0  0  0  0  0  0  0  0
   11.5296   13.0905    9.1871 O   0  0  0  0  0  0  0  0  0  0  0  0
   11.0125   13.1544    6.0846 N   0  0  0  0  0  0  0  0  0  0  0  0
   10.9071   12.5744    4.8629 C   0  0  0  0  0  0  0  0  0  0  0  0
   11.1334   11.2243    4.9395 N   0  0  0  0  0  0  0  0  0  0  0  0
  1  2  1  0  0  0  0
  1  6  1  0  0  0  0
  2  3  2  0  0  0  0
  3  4  1  0  0  0  0
  4  5  2  0  0  0  0
  4 10  1  0  0  0  0
  5  6  1  0  0  0  0
  5  8  1  0  0  0  0
  6  7  2  0  0  0  0
  8  9  1  0  0  0  0
  9 10  2  0  0  0  0
M  END
>  <CHROM.1>
11.42308877,11.58991372,7.07602605,-0.67196211,1.34728023,-2.36995992

>  <Name>
ligand

>  <RI>
0

>  <Rbt.Current_Directory>
/home/itssahil/PROJECTS/Mol_Feturizer/New_Systems/rnas/2EEW

>  <Rbt.Executable>
rbdock ($Id: //depot/dev/client3/rdock/2013.1/src/exe/rbdock.cxx#4 $)

>  <Rbt.Library>
libRbt.so (2013.1, Build901 2013/11/27)

>  <Rbt.Parameter_File>
/export/apps/rDock/src/rDock_2013.1_src/data/scripts/dock_solv.prm

>  <Rbt.Receptor>
prm/pocket_docking_8.prm

>  <SCORE>
-16.2379

>  <SCORE.INTER>
-16.2379

>  <SCORE.INTER.CONST>
1

>  <SCORE.INTER.POLAR>
0

>  <SCORE.INTER.ROT>
0

>  <SCORE.INTER.SOLV>
3.79348

>  <SCORE.INTER.VDW>
-15.6898

>  <SCORE.INTER.norm>
-1.62379

>  <SCORE.INTRA>
0

>  <SCORE.INTRA.DIHEDRAL>
0

>  <SCORE.INTRA.DIHEDRAL.0>
0

>  <SCORE.INTRA.POLAR>
0

>  <SCORE.INTRA.POLAR.0>
0

>  <SCORE.INTRA.REPUL>
0

>  <SCORE.INTRA.REPUL.0>
0

>  <SCORE.INTRA.SOLV>
0

>  <SCORE.INTRA.SOLV.lig_0>
-4.28901

>  <SCORE.INTRA.VDW>
0

>  <SCORE.INTRA.VDW.0>
0

>  <SCORE.INTRA.norm>
0

>  <SCORE.RESTR>
0

>  <SCORE.RESTR.CAVITY>
0

>  <SCORE.RESTR.norm>
0

>  <SCORE.SYSTEM>
0

>  <SCORE.SYSTEM.CONST>
0

>  <SCORE.SYSTEM.DIHEDRAL>
0

>  <SCORE.SYSTEM.SOLV>
0

>  <SCORE.SYSTEM.norm>
0

>  <SCORE.heavy>
10

>  <SCORE.norm>
-1.62379

>  <RMSD>
2.458

$$$$
ligand
 OpenBabel11021811423D
libRbt.so/2013.1/901 2013/11/27
 10 11  0  0  0  0  0  0  0  0999 V2000
   11.8278   10.8652    8.8306 N   0  0  0  0  0  0  0  0  0  0  0  0
   11.8803    9.7136    8.0672 C   0  0  0  0  0  0  0  0  0  0  0  0
   11.6631    9.7237    6.7449 N   0  0  0  0  0  0  0  0  0  0  0  0
   11.3901   10.9607    6.2547 C   0  0  0  0  0  0  0  0  0  0  0  0
   11.3203   12.1502    6.9577 C   0  0  0  0  0  0  0  0  0  0  0  0
   11.5503   12.1541    8.3641 C   0  0  0  0  0  0  0  0  0  0  0  0
   11.5393   13.0873    9.1796 O   0  0  0  0  0  0  0  0  0  0  0  0
   11.0193   13.1529    6.0776 N   0  0  0  0  0  0  0  0  0  0  0  0
   10.9110   12.5733    4.8560 C   0  0  0  0  0  0  0  0  0  0  0  0
   11.1334   11.2225    4.9323 N   0  0  0  0  0  0  0  0  0  0  0  0
  1  2  1  0  0  0  0
  1  6  1  0  0  0  0
  2  3  2  0  0  0  0
  3  4  1  0  0  0  0
  4  5  2  0  0  0  0
  4 10  1  0  0  0  0
  5  6  1  0  0  0  0
  5  8  1  0  0  0  0
  6  7  2  0  0  0  0
  8  9  1  0  0  0  0
  9 10  2  0  0  0  0
M  END
>  <CHROM.1>
11.42621991,11.58717911,7.06850617,-0.65914878,1.34862412,-2.38240127

>  <Name>
ligand

>  <RI>
0

>  <Rbt.Current_Directory>
/home/itssahil/PROJECTS/Mol_Feturizer/New_Systems/rnas/2EEW

>  <Rbt.Executable>
rbdock ($Id: //depot/dev/client3/rdock/2013.1/src/exe/rbdock.cxx#4 $)

>  <Rbt.Library>
libRbt.so (2013.1, Build901 2013/11/27)

>  <Rbt.Parameter_File>
/export/apps/rDock/src/rDock_2013.1_src/data/scripts/dock_solv.prm

>  <Rbt.Receptor>
prm/blind_docking_80.prm

>  <SCORE>
-16.1945

>  <SCORE.INTER>
-16.1945

>  <SCORE.INTER.CONST>
1

>  <SCORE.INTER.POLAR>
0

>  <SCORE.INTER.ROT>
0

>  <SCORE.INTER.SOLV>
3.79476

>  <SCORE.INTER.VDW>
-15.6612

>  <SCORE.INTER.norm>
-1.61945

>  <SCORE.INTRA>
0

>  <SCORE.INTRA.DIHEDRAL>
0

>  <SCORE.INTRA.DIHEDRAL.0>
0

>  <SCORE.INTRA.POLAR>
0

>  <SCORE.INTRA.POLAR.0>
0

>  <SCORE.INTRA.REPUL>
0

>  <SCORE.INTRA.REPUL.0>
0

>  <SCORE.INTRA.SOLV>
0

>  <SCORE.INTRA.SOLV.lig_0>
-4.28901

>  <SCORE.INTRA.VDW>
0

>  <SCORE.INTRA.VDW.0>
0

>  <SCORE.INTRA.norm>
0

>  <SCORE.RESTR>
0

>  <SCORE.RESTR.CAVITY>
0

>  <SCORE.RESTR.norm>
0

>  <SCORE.SYSTEM>
0

>  <SCORE.SYSTEM.CONST>
0

>  <SCORE.SYSTEM.DIHEDRAL>
0

>  <SCORE.SYSTEM.SOLV>
0

>  <SCORE.SYSTEM.norm>
0

>  <SCORE.heavy>
10

>  <SCORE.norm>
-1.61945

>  <RMSD>
2.459

$$$$
ligand
 OpenBabel11021811423D
libRbt.so/2013.1/901 2013/11/27
 10 11  0  0  0  0  0  0  0  0999 V2000
   11.7232   11.0867    9.4158 N   0  0  0  0  0  0  0  0  0  0  0  0
   11.7135   10.0051    8.5545 C   0  0  0  0  0  0  0  0  0  0  0  0
   11.5275   10.1455    7.2349 N   0  0  0  0  0  0  0  0  0  0  0  0
   11.3514   11.4367    6.8515 C   0  0  0  0  0  0  0  0  0  0  0  0
   11.3478   12.5624    7.6557 C   0  0  0  0  0  0  0  0  0  0  0  0
   11.5458   12.4277    9.0605 C   0  0  0  0  0  0  0  0  0  0  0  0
   11.5806   13.2848    9.9550 O   0  0  0  0  0  0  0  0  0  0  0  0
   11.1365   13.6566    6.8628 N   0  0  0  0  0  0  0  0  0  0  0  0
   11.0162   13.1946    5.5931 C   0  0  0  0  0  0  0  0  0  0  0  0
   11.1432   11.8300    5.5534 N   0  0  0  0  0  0  0  0  0  0  0  0
  1  2  1  0  0  0  0
  1  6  1  0  0  0  0
  2  3  2  0  0  0  0
  3  4  1  0  0  0  0
  4  5  2  0  0  0  0
  4 10  1  0  0  0  0
  5  6  1  0  0  0  0
  5  8  1  0  0  0  0
  6  7  2  0  0  0  0
  8  9  1  0  0  0  0
  9 10  2  0  0  0  0
M  END
>  <CHROM.1>
11.41218249,11.98580101,7.71802084,-0.44415455,1.40881007,-2.50563331

>  <Name>
ligand

>  <RI>
0

>  <Rbt.Current_Directory>
/home/itssahil/PROJECTS/Mol_Feturizer/New_Systems/rnas/2EEW

>  <Rbt.Executable>
rbdock ($Id: //depot/dev/client3/rdock/2013.1/src/exe/rbdock.cxx#4 $)

>  <Rbt.Library>
libRbt.so (2013.1, Build901 2013/11/27)

>  <Rbt.Parameter_File>
/export/apps/rDock/src/rDock_2013.1_src/data/scripts/dock_solv.prm

>  <Rbt.Receptor>
prm/pocket_docking_4.prm

>  <SCORE>
-16.2049

>  <SCORE.INTER>
-16.2049

>  <SCORE.INTER.CONST>
1

>  <SCORE.INTER.POLAR>
0

>  <SCORE.INTER.ROT>
0

>  <SCORE.INTER.SOLV>
4.26953

>  <SCORE.INTER.VDW>
-15.8264

>  <SCORE.INTER.norm>
-1.62049

>  <SCORE.INTRA>
0

>  <SCORE.INTRA.DIHEDRAL>
0

>  <SCORE.INTRA.DIHEDRAL.0>
0

>  <SCORE.INTRA.POLAR>
0

>  <SCORE.INTRA.POLAR.0>
0

>  <SCORE.INTRA.REPUL>
0

>  <SCORE.INTRA.REPUL.0>
0

>  <SCORE.INTRA.SOLV>
0

>  <SCORE.INTRA.SOLV.lig_0>
-4.28901

>  <SCORE.INTRA.VDW>
0

>  <SCORE.INTRA.VDW.0>
0

>  <SCORE.INTRA.norm>
0

>  <SCORE.RESTR>
0

>  <SCORE.RESTR.CAVITY>
0

>  <SCORE.RESTR.norm>
0

>  <SCORE.SYSTEM>
0

>  <SCORE.SYSTEM.CONST>
0

>  <SCORE.SYSTEM.DIHEDRAL>
0

>  <SCORE.SYSTEM.SOLV>
0

>  <SCORE.SYSTEM.norm>
0

>  <SCORE.heavy>
10

>  <SCORE.norm>
-1.62049

>  <RMSD>
2.459

$$$$
ligand
 OpenBabel11021811423D
libRbt.so/2013.1/901 2013/11/27
 10 11  0  0  0  0  0  0  0  0999 V2000
   11.7275   11.0920    9.4114 N   0  0  0  0  0  0  0  0  0  0  0  0
   11.7188   10.0094    8.5512 C   0  0  0  0  0  0  0  0  0  0  0  0
   11.5304   10.1481    7.2318 N   0  0  0  0  0  0  0  0  0  0  0  0
   11.3510   11.4385    6.8473 C   0  0  0  0  0  0  0  0  0  0  0  0
   11.3463   12.5651    7.6504 C   0  0  0  0  0  0  0  0  0  0  0  0
   11.5466   12.4322    9.0550 C   0  0  0  0  0  0  0  0  0  0  0  0
   11.5810   13.2903    9.9485 O   0  0  0  0  0  0  0  0  0  0  0  0
   11.1314   13.6581    6.8566 N   0  0  0  0  0  0  0  0  0  0  0  0
   11.0102   13.1945    5.5876 C   0  0  0  0  0  0  0  0  0  0  0  0
   11.1401   11.8301    5.5491 N   0  0  0  0  0  0  0  0  0  0  0  0
  1  2  1  0  0  0  0
  1  6  1  0  0  0  0
  2  3  2  0  0  0  0
  3  4  1  0  0  0  0
  4  5  2  0  0  0  0
  4 10  1  0  0  0  0
  5  6  1  0  0  0  0
  5  8  1  0  0  0  0
  6  7  2  0  0  0  0
  8  9  1  0  0  0  0
  9 10  2  0  0  0  0
M  END
>  <CHROM.1>
11.41197683,11.98868095,7.71314977,-0.44907922,1.40632560,-2.50179639

>  <Name>
ligand

>  <RI>
0

>  <Rbt.Current_Directory>
/home/itssahil/PROJECTS/Mol_Feturizer/New_Systems/rnas/2EEW

>  <Rbt.Executable>
rbdock ($Id: //depot/dev/client3/rdock/2013.1/src/exe/rbdock.cxx#4 $)

>  <Rbt.Library>
libRbt.so (2013.1, Build901 2013/11/27)

>  <Rbt.Parameter_File>
/export/apps/rDock/src/rDock_2013.1_src/data/scripts/dock_solv.prm

>  <Rbt.Receptor>
prm/pocket_docking_6.prm

>  <SCORE>
-16.2067

>  <SCORE.INTER>
-16.2067

>  <SCORE.INTER.CONST>
1

>  <SCORE.INTER.POLAR>
0

>  <SCORE.INTER.ROT>
0

>  <SCORE.INTER.SOLV>
4.26728

>  <SCORE.INTER.VDW>
-15.8269

>  <SCORE.INTER.norm>
-1.62067

>  <SCORE.INTRA>
0

>  <SCORE.INTRA.DIHEDRAL>
0

>  <SCORE.INTRA.DIHEDRAL.0>
0

>  <SCORE.INTRA.POLAR>
0

>  <SCORE.INTRA.POLAR.0>
0

>  <SCORE.INTRA.REPUL>
0

>  <SCORE.INTRA.REPUL.0>
0

>  <SCORE.INTRA.SOLV>
0

>  <SCORE.INTRA.SOLV.lig_0>
-4.28901

>  <SCORE.INTRA.VDW>
0

>  <SCORE.INTRA.VDW.0>
0

>  <SCORE.INTRA.norm>
0

>  <SCORE.RESTR>
0

>  <SCORE.RESTR.CAVITY>
0

>  <SCORE.RESTR.norm>
0

>  <SCORE.SYSTEM>
0

>  <SCORE.SYSTEM.CONST>
0

>  <SCORE.SYSTEM.DIHEDRAL>
0

>  <SCORE.SYSTEM.SOLV>
0

>  <SCORE.SYSTEM.norm>
0

>  <SCORE.heavy>
10

>  <SCORE.norm>
-1.62067

>  <RMSD>
2.459

$$$$
ligand
 OpenBabel11021811423D
libRbt.so/2013.1/901 2013/11/27
 10 11  0  0  0  0  0  0  0  0999 V2000
   11.8205   10.8543    8.8294 N   0  0  0  0  0  0  0  0  0  0  0  0
   11.9041    9.7117    8.0552 C   0  0  0  0  0  0  0  0  0  0  0  0
   11.6996    9.7307    6.7310 N   0  0  0  0  0  0  0  0  0  0  0  0
   11.4059   10.9668    6.2503 C   0  0  0  0  0  0  0  0  0  0  0  0
   11.3049   12.1475    6.9644 C   0  0  0  0  0  0  0  0  0  0  0  0
   11.5211   12.1419    8.3729 C   0  0  0  0  0  0  0  0  0  0  0  0
   11.4829   13.0664    9.1975 O   0  0  0  0  0  0  0  0  0  0  0  0
   10.9919   13.1526    6.0912 N   0  0  0  0  0  0  0  0  0  0  0  0
   10.9074   12.5833    4.8629 C   0  0  0  0  0  0  0  0  0  0  0  0
   11.1568   11.2366    4.9281 N   0  0  0  0  0  0  0  0  0  0  0  0
  1  2  1  0  0  0  0
  1  6  1  0  0  0  0
  2  3  2  0  0  0  0
  3  4  1  0  0  0  0
  4  5  2  0  0  0  0
  4 10  1  0  0  0  0
  5  6  1  0  0  0  0
  5  8  1  0  0  0  0
  6  7  2  0  0  0  0
  8  9  1  0  0  0  0
  9 10  2  0  0  0  0
M  END
>  <CHROM.1>
11.42128677,11.58563344,7.07062447,-0.75402485,1.34052256,-2.27994709

>  <Name>
ligand

>  <RI>
0

>  <Rbt.Current_Directory>
/home/itssahil/PROJECTS/Mol_Feturizer/New_Systems/rnas/2EEW

>  <Rbt.Executable>
rbdock ($Id: //depot/dev/client3/rdock/2013.1/src/exe/rbdock.cxx#4 $)

>  <Rbt.Library>
libRbt.so (2013.1, Build901 2013/11/27)

>  <Rbt.Parameter_File>
/export/apps/rDock/src/rDock_2013.1_src/data/scripts/dock_solv.prm

>  <Rbt.Receptor>
prm/pocket_docking_5.prm

>  <SCORE>
-16.2113

>  <SCORE.INTER>
-16.2113

>  <SCORE.INTER.CONST>
1

>  <SCORE.INTER.POLAR>
0

>  <SCORE.INTER.ROT>
0

>  <SCORE.INTER.SOLV>
3.75016

>  <SCORE.INTER.VDW>
-15.6576

>  <SCORE.INTER.norm>
-1.62113

>  <SCORE.INTRA>
0

>  <SCORE.INTRA.DIHEDRAL>
0

>  <SCORE.INTRA.DIHEDRAL.0>
0

>  <SCORE.INTRA.POLAR>
0

>  <SCORE.INTRA.POLAR.0>
0

>  <SCORE.INTRA.REPUL>
0

>  <SCORE.INTRA.REPUL.0>
0

>  <SCORE.INTRA.SOLV>
0

>  <SCORE.INTRA.SOLV.lig_0>
-4.28901

>  <SCORE.INTRA.VDW>
0

>  <SCORE.INTRA.VDW.0>
0

>  <SCORE.INTRA.norm>
0

>  <SCORE.RESTR>
0

>  <SCORE.RESTR.CAVITY>
0

>  <SCORE.RESTR.norm>
0

>  <SCORE.SYSTEM>
0

>  <SCORE.SYSTEM.CONST>
0

>  <SCORE.SYSTEM.DIHEDRAL>
0

>  <SCORE.SYSTEM.SOLV>
0

>  <SCORE.SYSTEM.norm>
0

>  <SCORE.heavy>
10

>  <SCORE.norm>
-1.62113

>  <RMSD>
2.460

$$$$
ligand
 OpenBabel11021811423D
libRbt.so/2013.1/901 2013/11/27
 10 11  0  0  0  0  0  0  0  0999 V2000
   11.7253   11.1068    9.4128 N   0  0  0  0  0  0  0  0  0  0  0  0
   11.7295   10.0212    8.5565 C   0  0  0  0  0  0  0  0  0  0  0  0
   11.5451   10.1535    7.2358 N   0  0  0  0  0  0  0  0  0  0  0  0
   11.3558   11.4409    6.8460 C   0  0  0  0  0  0  0  0  0  0  0  0
   11.3380   12.5702    7.6451 C   0  0  0  0  0  0  0  0  0  0  0  0
   11.5340   12.4441    9.0509 C   0  0  0  0  0  0  0  0  0  0  0  0
   11.5573   13.3057    9.9415 O   0  0  0  0  0  0  0  0  0  0  0  0
   11.1166   13.6584    6.8466 N   0  0  0  0  0  0  0  0  0  0  0  0
   11.0044   13.1893    5.5788 C   0  0  0  0  0  0  0  0  0  0  0  0
   11.1464   11.8260    5.5456 N   0  0  0  0  0  0  0  0  0  0  0  0
  1  2  1  0  0  0  0
  1  6  1  0  0  0  0
  2  3  2  0  0  0  0
  3  4  1  0  0  0  0
  4  5  2  0  0  0  0
  4 10  1  0  0  0  0
  5  6  1  0  0  0  0
  5  8  1  0  0  0  0
  6  7  2  0  0  0  0
  8  9  1  0  0  0  0
  9 10  2  0  0  0  0
M  END
>  <CHROM.1>
11.40850249,11.99465210,7.71015864,-0.50572137,1.40392704,-2.44949406

>  <Name>
ligand

>  <RI>
0

>  <Rbt.Current_Directory>
/home/itssahil/PROJECTS/Mol_Feturizer/New_Systems/rnas/2EEW

>  <Rbt.Executable>
rbdock ($Id: //depot/dev/client3/rdock/2013.1/src/exe/rbdock.cxx#4 $)

>  <Rbt.Library>
libRbt.so (2013.1, Build901 2013/11/27)

>  <Rbt.Parameter_File>
/export/apps/rDock/src/rDock_2013.1_src/data/scripts/dock_solv.prm

>  <Rbt.Receptor>
prm/blind_docking_100.prm

>  <SCORE>
-16.2135

>  <SCORE.INTER>
-16.2135

>  <SCORE.INTER.CONST>
1

>  <SCORE.INTER.POLAR>
0

>  <SCORE.INTER.ROT>
0

>  <SCORE.INTER.SOLV>
4.26776

>  <SCORE.INTER.VDW>
-15.8316

>  <SCORE.INTER.norm>
-1.62135

>  <SCORE.INTRA>
0

>  <SCORE.INTRA.DIHEDRAL>
0

>  <SCORE.INTRA.DIHEDRAL.0>
0

>  <SCORE.INTRA.POLAR>
0

>  <SCORE.INTRA.POLAR.0>
0

>  <SCORE.INTRA.REPUL>
0

>  <SCORE.INTRA.REPUL.0>
0

>  <SCORE.INTRA.SOLV>
0

>  <SCORE.INTRA.SOLV.lig_0>
-4.28901

>  <SCORE.INTRA.VDW>
0

>  <SCORE.INTRA.VDW.0>
0

>  <SCORE.INTRA.norm>
0

>  <SCORE.RESTR>
0

>  <SCORE.RESTR.CAVITY>
0

>  <SCORE.RESTR.norm>
0

>  <SCORE.SYSTEM>
0

>  <SCORE.SYSTEM.CONST>
0

>  <SCORE.SYSTEM.DIHEDRAL>
0

>  <SCORE.SYSTEM.SOLV>
0

>  <SCORE.SYSTEM.norm>
0

>  <SCORE.heavy>
10

>  <SCORE.norm>
-1.62135

>  <RMSD>
2.461

$$$$
ligand
 OpenBabel11021811423D
libRbt.so/2013.1/901 2013/11/27
 10 11  0  0  0  0  0  0  0  0999 V2000
   11.7851   10.8746    8.8456 N   0  0  0  0  0  0  0  0  0  0  0  0
   11.8598    9.7232    8.0837 C   0  0  0  0  0  0  0  0  0  0  0  0
   11.6638    9.7309    6.7581 N   0  0  0  0  0  0  0  0  0  0  0  0
   11.3880   10.9654    6.2629 C   0  0  0  0  0  0  0  0  0  0  0  0
   11.2967   12.1545    6.9642 C   0  0  0  0  0  0  0  0  0  0  0  0
   11.5041   12.1609    8.3740 C   0  0  0  0  0  0  0  0  0  0  0  0
   11.4719   13.0943    9.1888 O   0  0  0  0  0  0  0  0  0  0  0  0
   11.0012   13.1543    6.0788 N   0  0  0  0  0  0  0  0  0  0  0  0
   10.9176   12.5733    4.8559 C   0  0  0  0  0  0  0  0  0  0  0  0
   11.1503   11.2245    4.9364 N   0  0  0  0  0  0  0  0  0  0  0  0
  1  2  1  0  0  0  0
  1  6  1  0  0  0  0
  2  3  2  0  0  0  0
  3  4  1  0  0  0  0
  4  5  2  0  0  0  0
  4 10  1  0  0  0  0
  5  6  1  0  0  0  0
  5  8  1  0  0  0  0
  6  7  2  0  0  0  0
  8  9  1  0  0  0  0
  9 10  2  0  0  0  0
M  END
>  <CHROM.1>
11.40567234,11.59244170,7.07690826,-0.73950303,1.35367271,-2.30441235

>  <Name>
ligand

>  <RI>
0

>  <Rbt.Current_Directory>
/home/itssahil/PROJECTS/Mol_Feturizer/New_Systems/rnas/2EEW

>  <Rbt.Executable>
rbdock ($Id: //depot/dev/client3/rdock/2013.1/src/exe/rbdock.cxx#4 $)

>  <Rbt.Library>
libRbt.so (2013.1, Build901 2013/11/27)

>  <Rbt.Parameter_File>
/export/apps/rDock/src/rDock_2013.1_src/data/scripts/dock_solv.prm

>  <Rbt.Receptor>
prm/blind_docking_40.prm

>  <SCORE>
-16.314

>  <SCORE.INTER>
-16.314

>  <SCORE.INTER.CONST>
1

>  <SCORE.INTER.POLAR>
0

>  <SCORE.INTER.ROT>
0

>  <SCORE.INTER.SOLV>
3.80137

>  <SCORE.INTER.VDW>
-15.7431

>  <SCORE.INTER.norm>
-1.6314

>  <SCORE.INTRA>
0

>  <SCORE.INTRA.DIHEDRAL>
0

>  <SCORE.INTRA.DIHEDRAL.0>
0

>  <SCORE.INTRA.POLAR>
0

>  <SCORE.INTRA.POLAR.0>
0

>  <SCORE.INTRA.REPUL>
0

>  <SCORE.INTRA.REPUL.0>
0

>  <SCORE.INTRA.SOLV>
0

>  <SCORE.INTRA.SOLV.lig_0>
-4.28901

>  <SCORE.INTRA.VDW>
0

>  <SCORE.INTRA.VDW.0>
0

>  <SCORE.INTRA.norm>
0

>  <SCORE.RESTR>
0

>  <SCORE.RESTR.CAVITY>
0

>  <SCORE.RESTR.norm>
0

>  <SCORE.SYSTEM>
0

>  <SCORE.SYSTEM.CONST>
0

>  <SCORE.SYSTEM.DIHEDRAL>
0

>  <SCORE.SYSTEM.SOLV>
0

>  <SCORE.SYSTEM.norm>
0

>  <SCORE.heavy>
10

>  <SCORE.norm>
-1.6314

>  <RMSD>
2.461

$$$$
ligand
 OpenBabel11021811423D
libRbt.so/2013.1/901 2013/11/27
 10 11  0  0  0  0  0  0  0  0999 V2000
   11.7113   11.0945    9.3884 N   0  0  0  0  0  0  0  0  0  0  0  0
   11.7190   10.0171    8.5218 C   0  0  0  0  0  0  0  0  0  0  0  0
   11.5433   10.1623    7.2013 N   0  0  0  0  0  0  0  0  0  0  0  0
   11.3587   11.4537    6.8227 C   0  0  0  0  0  0  0  0  0  0  0  0
   11.3378   12.5754    7.6323 C   0  0  0  0  0  0  0  0  0  0  0  0
   11.5246   12.4355    9.0381 C   0  0  0  0  0  0  0  0  0  0  0  0
   11.5437   13.2885    9.9370 O   0  0  0  0  0  0  0  0  0  0  0  0
   11.1234   13.6715    6.8428 N   0  0  0  0  0  0  0  0  0  0  0  0
   11.0184   13.2147    5.5699 C   0  0  0  0  0  0  0  0  0  0  0  0
   11.1584   11.8515    5.5247 N   0  0  0  0  0  0  0  0  0  0  0  0
  1  2  1  0  0  0  0
  1  6  1  0  0  0  0
  2  3  2  0  0  0  0
  3  4  1  0  0  0  0
  4  5  2  0  0  0  0
  4 10  1  0  0  0  0
  5  6  1  0  0  0  0
  5  8  1  0  0  0  0
  6  7  2  0  0  0  0
  8  9  1  0  0  0  0
  9 10  2  0  0  0  0
M  END
>  <CHROM.1>
11.40688360,11.99907323,7.69233880,-0.52286941,1.40992619,-2.42304125

>  <Name>
ligand

>  <RI>
0

>  <Rbt.Current_Directory>
/home/itssahil/PROJECTS/Mol_Feturizer/New_Systems/rnas/2EEW

>  <Rbt.Executable>
rbdock ($Id: //depot/dev/client3/rdock/2013.1/src/exe/rbdock.cxx#4 $)

>  <Rbt.Library>
libRbt.so (2013.1, Build901 2013/11/27)

>  <Rbt.Parameter_File>
/export/apps/rDock/src/rDock_2013.1_src/data/scripts/dock_solv.prm

>  <Rbt.Receptor>
prm/pocket_docking_7.prm

>  <SCORE>
-16.1987

>  <SCORE.INTER>
-16.1987

>  <SCORE.INTER.CONST>
1

>  <SCORE.INTER.POLAR>
0

>  <SCORE.INTER.ROT>
0

>  <SCORE.INTER.SOLV>
4.26816

>  <SCORE.INTER.VDW>
-15.8219

>  <SCORE.INTER.norm>
-1.61987

>  <SCORE.INTRA>
0

>  <SCORE.INTRA.DIHEDRAL>
0

>  <SCORE.INTRA.DIHEDRAL.0>
0

>  <SCORE.INTRA.POLAR>
0

>  <SCORE.INTRA.POLAR.0>
0

>  <SCORE.INTRA.REPUL>
0

>  <SCORE.INTRA.REPUL.0>
0

>  <SCORE.INTRA.SOLV>
0

>  <SCORE.INTRA.SOLV.lig_0>
-4.28901

>  <SCORE.INTRA.VDW>
0

>  <SCORE.INTRA.VDW.0>
0

>  <SCORE.INTRA.norm>
0

>  <SCORE.RESTR>
0

>  <SCORE.RESTR.CAVITY>
0

>  <SCORE.RESTR.norm>
0

>  <SCORE.SYSTEM>
0

>  <SCORE.SYSTEM.CONST>
0

>  <SCORE.SYSTEM.DIHEDRAL>
0

>  <SCORE.SYSTEM.SOLV>
0

>  <SCORE.SYSTEM.norm>
0

>  <SCORE.heavy>
10

>  <SCORE.norm>
-1.61987

>  <RMSD>
2.461

$$$$
ligand
 OpenBabel11021811423D
libRbt.so/2013.1/901 2013/11/27
 10 11  0  0  0  0  0  0  0  0999 V2000
   11.7752   10.8717    8.8460 N   0  0  0  0  0  0  0  0  0  0  0  0
   11.8563    9.7229    8.0807 C   0  0  0  0  0  0  0  0  0  0  0  0
   11.6615    9.7336    6.7550 N   0  0  0  0  0  0  0  0  0  0  0  0
   11.3800   10.9681    6.2632 C   0  0  0  0  0  0  0  0  0  0  0  0
   11.2822   12.1547    6.9678 C   0  0  0  0  0  0  0  0  0  0  0  0
   11.4882   12.1580    8.3779 C   0  0  0  0  0  0  0  0  0  0  0  0
   11.4506   13.0888    9.1954 O   0  0  0  0  0  0  0  0  0  0  0  0
   10.9826   13.1556    6.0851 N   0  0  0  0  0  0  0  0  0  0  0  0
   10.9030   12.5778    4.8604 C   0  0  0  0  0  0  0  0  0  0  0  0
   11.1423   11.2300    4.9372 N   0  0  0  0  0  0  0  0  0  0  0  0
  1  2  1  0  0  0  0
  1  6  1  0  0  0  0
  2  3  2  0  0  0  0
  3  4  1  0  0  0  0
  4  5  2  0  0  0  0
  4 10  1  0  0  0  0
  5  6  1  0  0  0  0
  5  8  1  0  0  0  0
  6  7  2  0  0  0  0
  8  9  1  0  0  0  0
  9 10  2  0  0  0  0
M  END
>  <CHROM.1>
11.39384231,11.59286682,7.07902445,-0.75796616,1.35058126,-2.28344652

>  <Name>
ligand

>  <RI>
0

>  <Rbt.Current_Directory>
/home/itssahil/PROJECTS/Mol_Feturizer/New_Systems/rnas/2EEW

>  <Rbt.Executable>
rbdock ($Id: //depot/dev/client3/rdock/2013.1/src/exe/rbdock.cxx#4 $)

>  <Rbt.Library>
libRbt.so (2013.1, Build901 2013/11/27)

>  <Rbt.Parameter_File>
/export/apps/rDock/src/rDock_2013.1_src/data/scripts/dock_solv.prm

>  <Rbt.Receptor>
prm/pocket_docking_7.prm

>  <SCORE>
-16.2826

>  <SCORE.INTER>
-16.2826

>  <SCORE.INTER.CONST>
1

>  <SCORE.INTER.POLAR>
0

>  <SCORE.INTER.ROT>
0

>  <SCORE.INTER.SOLV>
3.78918

>  <SCORE.INTER.VDW>
-15.7181

>  <SCORE.INTER.norm>
-1.62826

>  <SCORE.INTRA>
0

>  <SCORE.INTRA.DIHEDRAL>
0

>  <SCORE.INTRA.DIHEDRAL.0>
0

>  <SCORE.INTRA.POLAR>
0

>  <SCORE.INTRA.POLAR.0>
0

>  <SCORE.INTRA.REPUL>
0

>  <SCORE.INTRA.REPUL.0>
0

>  <SCORE.INTRA.SOLV>
0

>  <SCORE.INTRA.SOLV.lig_0>
-4.28901

>  <SCORE.INTRA.VDW>
0

>  <SCORE.INTRA.VDW.0>
0

>  <SCORE.INTRA.norm>
0

>  <SCORE.RESTR>
0

>  <SCORE.RESTR.CAVITY>
0

>  <SCORE.RESTR.norm>
0

>  <SCORE.SYSTEM>
0

>  <SCORE.SYSTEM.CONST>
0

>  <SCORE.SYSTEM.DIHEDRAL>
0

>  <SCORE.SYSTEM.SOLV>
0

>  <SCORE.SYSTEM.norm>
0

>  <SCORE.heavy>
10

>  <SCORE.norm>
-1.62826

>  <RMSD>
2.461

$$$$
ligand
 OpenBabel11021811423D
libRbt.so/2013.1/901 2013/11/27
 10 11  0  0  0  0  0  0  0  0999 V2000
   11.7806   10.8824    8.8497 N   0  0  0  0  0  0  0  0  0  0  0  0
   11.8736    9.7328    8.0872 C   0  0  0  0  0  0  0  0  0  0  0  0
   11.6809    9.7387    6.7611 N   0  0  0  0  0  0  0  0  0  0  0  0
   11.3889   10.9694    6.2661 C   0  0  0  0  0  0  0  0  0  0  0  0
   11.2789   12.1566    6.9679 C   0  0  0  0  0  0  0  0  0  0  0  0
   11.4825   12.1650    8.3784 C   0  0  0  0  0  0  0  0  0  0  0  0
   11.4350   13.0972    9.1936 O   0  0  0  0  0  0  0  0  0  0  0  0
   10.9715   13.1527    6.0825 N   0  0  0  0  0  0  0  0  0  0  0  0
   10.8993   12.5715    4.8590 C   0  0  0  0  0  0  0  0  0  0  0  0
   11.1510   11.2261    4.9392 N   0  0  0  0  0  0  0  0  0  0  0  0
  1  2  1  0  0  0  0
  1  6  1  0  0  0  0
  2  3  2  0  0  0  0
  3  4  1  0  0  0  0
  4  5  2  0  0  0  0
  4 10  1  0  0  0  0
  5  6  1  0  0  0  0
  5  8  1  0  0  0  0
  6  7  2  0  0  0  0
  8  9  1  0  0  0  0
  9 10  2  0  0  0  0
M  END
>  <CHROM.1>
11.39556274,11.59609519,7.08056267,-0.79053855,1.34453328,-2.25390608

>  <Name>
ligand

>  <RI>
0

>  <Rbt.Current_Directory>
/home/itssahil/PROJECTS/Mol_Feturizer/New_Systems/rnas/2EEW

>  <Rbt.Executable>
rbdock ($Id: //depot/dev/client3/rdock/2013.1/src/exe/rbdock.cxx#4 $)

>  <Rbt.Library>
libRbt.so (2013.1, Build901 2013/11/27)

>  <Rbt.Parameter_File>
/export/apps/rDock/src/rDock_2013.1_src/data/scripts/dock_solv.prm

>  <Rbt.Receptor>
prm/pocket_docking_7.prm

>  <SCORE>
-16.2581

>  <SCORE.INTER>
-16.2581

>  <SCORE.INTER.CONST>
1

>  <SCORE.INTER.POLAR>
0

>  <SCORE.INTER.ROT>
0

>  <SCORE.INTER.SOLV>
3.78283

>  <SCORE.INTER.VDW>
-15.6997

>  <SCORE.INTER.norm>
-1.62581

>  <SCORE.INTRA>
0

>  <SCORE.INTRA.DIHEDRAL>
0

>  <SCORE.INTRA.DIHEDRAL.0>
0

>  <SCORE.INTRA.POLAR>
0

>  <SCORE.INTRA.POLAR.0>
0

>  <SCORE.INTRA.REPUL>
0

>  <SCORE.INTRA.REPUL.0>
0

>  <SCORE.INTRA.SOLV>
0

>  <SCORE.INTRA.SOLV.lig_0>
-4.28901

>  <SCORE.INTRA.VDW>
0

>  <SCORE.INTRA.VDW.0>
0

>  <SCORE.INTRA.norm>
0

>  <SCORE.RESTR>
0

>  <SCORE.RESTR.CAVITY>
0

>  <SCORE.RESTR.norm>
0

>  <SCORE.SYSTEM>
0

>  <SCORE.SYSTEM.CONST>
0

>  <SCORE.SYSTEM.DIHEDRAL>
0

>  <SCORE.SYSTEM.SOLV>
0

>  <SCORE.SYSTEM.norm>
0

>  <SCORE.heavy>
10

>  <SCORE.norm>
-1.62581

>  <RMSD>
2.461

$$$$
ligand
 OpenBabel11021811423D
libRbt.so/2013.1/901 2013/11/27
 10 11  0  0  0  0  0  0  0  0999 V2000
   11.7832   10.8815    8.8507 N   0  0  0  0  0  0  0  0  0  0  0  0
   11.8709    9.7317    8.0877 C   0  0  0  0  0  0  0  0  0  0  0  0
   11.6768    9.7389    6.7618 N   0  0  0  0  0  0  0  0  0  0  0  0
   11.3890   10.9709    6.2675 C   0  0  0  0  0  0  0  0  0  0  0  0
   11.2843   12.1583    6.9699 C   0  0  0  0  0  0  0  0  0  0  0  0
   11.4895   12.1653    8.3801 C   0  0  0  0  0  0  0  0  0  0  0  0
   11.4464   13.0974    9.1958 O   0  0  0  0  0  0  0  0  0  0  0  0
   10.9798   13.1559    6.0851 N   0  0  0  0  0  0  0  0  0  0  0  0
   10.9040   12.5754    4.8615 C   0  0  0  0  0  0  0  0  0  0  0  0
   11.1506   11.2290    4.9410 N   0  0  0  0  0  0  0  0  0  0  0  0
  1  2  1  0  0  0  0
  1  6  1  0  0  0  0
  2  3  2  0  0  0  0
  3  4  1  0  0  0  0
  4  5  2  0  0  0  0
  4 10  1  0  0  0  0
  5  6  1  0  0  0  0
  5  8  1  0  0  0  0
  6  7  2  0  0  0  0
  8  9  1  0  0  0  0
  9 10  2  0  0  0  0
M  END
>  <CHROM.1>
11.39894162,11.59724770,7.08222991,-0.77576748,1.34682145,-2.26795152

>  <Name>
ligand

>  <RI>
0

>  <Rbt.Current_Directory>
/home/itssahil/PROJECTS/Mol_Feturizer/New_Systems/rnas/2EEW

>  <Rbt.Executable>
rbdock ($Id: //depot/dev/client3/rdock/2013.1/src/exe/rbdock.cxx#4 $)

>  <Rbt.Library>
libRbt.so (2013.1, Build901 2013/11/27)

>  <Rbt.Parameter_File>
/export/apps/rDock/src/rDock_2013.1_src/data/scripts/dock_solv.prm

>  <Rbt.Receptor>
prm/pocket_docking_7.prm

>  <SCORE>
-16.2572

>  <SCORE.INTER>
-16.2572

>  <SCORE.INTER.CONST>
1

>  <SCORE.INTER.POLAR>
0

>  <SCORE.INTER.ROT>
0

>  <SCORE.INTER.SOLV>
3.78811

>  <SCORE.INTER.VDW>
-15.7008

>  <SCORE.INTER.norm>
-1.62572

>  <SCORE.INTRA>
0

>  <SCORE.INTRA.DIHEDRAL>
0

>  <SCORE.INTRA.DIHEDRAL.0>
0

>  <SCORE.INTRA.POLAR>
0

>  <SCORE.INTRA.POLAR.0>
0

>  <SCORE.INTRA.REPUL>
0

>  <SCORE.INTRA.REPUL.0>
0

>  <SCORE.INTRA.SOLV>
0

>  <SCORE.INTRA.SOLV.lig_0>
-4.28901

>  <SCORE.INTRA.VDW>
0

>  <SCORE.INTRA.VDW.0>
0

>  <SCORE.INTRA.norm>
0

>  <SCORE.RESTR>
0

>  <SCORE.RESTR.CAVITY>
0

>  <SCORE.RESTR.norm>
0

>  <SCORE.SYSTEM>
0

>  <SCORE.SYSTEM.CONST>
0

>  <SCORE.SYSTEM.DIHEDRAL>
0

>  <SCORE.SYSTEM.SOLV>
0

>  <SCORE.SYSTEM.norm>
0

>  <SCORE.heavy>
10

>  <SCORE.norm>
-1.62572

>  <RMSD>
2.461

$$$$
ligand
 OpenBabel11021811423D
libRbt.so/2013.1/901 2013/11/27
 10 11  0  0  0  0  0  0  0  0999 V2000
   11.7660   11.0934    9.4494 N   0  0  0  0  0  0  0  0  0  0  0  0
   11.7814   10.0131    8.5864 C   0  0  0  0  0  0  0  0  0  0  0  0
   11.5926   10.1513    7.2670 N   0  0  0  0  0  0  0  0  0  0  0  0
   11.3870   11.4386    6.8855 C   0  0  0  0  0  0  0  0  0  0  0  0
   11.3573   12.5628    7.6915 C   0  0  0  0  0  0  0  0  0  0  0  0
   11.5578   12.4305    9.0961 C   0  0  0  0  0  0  0  0  0  0  0  0
   11.5726   13.2868    9.9920 O   0  0  0  0  0  0  0  0  0  0  0  0
   11.1211   13.6531    6.9001 N   0  0  0  0  0  0  0  0  0  0  0  0
   11.0119   13.1904    5.6297 C   0  0  0  0  0  0  0  0  0  0  0  0
   11.1703   11.8291    5.5879 N   0  0  0  0  0  0  0  0  0  0  0  0
  1  2  1  0  0  0  0
  1  6  1  0  0  0  0
  2  3  2  0  0  0  0
  3  4  1  0  0  0  0
  4  5  2  0  0  0  0
  4 10  1  0  0  0  0
  5  6  1  0  0  0  0
  5  8  1  0  0  0  0
  6  7  2  0  0  0  0
  8  9  1  0  0  0  0
  9 10  2  0  0  0  0
M  END
>  <CHROM.1>
11.43488524,11.98769848,7.75291278,-0.55099019,1.39442529,-2.39877484

>  <Name>
ligand

>  <RI>
0

>  <Rbt.Current_Directory>
/home/itssahil/PROJECTS/Mol_Feturizer/New_Systems/rnas/2EEW

>  <Rbt.Executable>
rbdock ($Id: //depot/dev/client3/rdock/2013.1/src/exe/rbdock.cxx#4 $)

>  <Rbt.Library>
libRbt.so (2013.1, Build901 2013/11/27)

>  <Rbt.Parameter_File>
/export/apps/rDock/src/rDock_2013.1_src/data/scripts/dock_solv.prm

>  <Rbt.Receptor>
prm/pocket_docking_8.prm

>  <SCORE>
-16.1824

>  <SCORE.INTER>
-16.1824

>  <SCORE.INTER.CONST>
1

>  <SCORE.INTER.POLAR>
0

>  <SCORE.INTER.ROT>
0

>  <SCORE.INTER.SOLV>
4.24623

>  <SCORE.INTER.VDW>
-15.8037

>  <SCORE.INTER.norm>
-1.61824

>  <SCORE.INTRA>
0

>  <SCORE.INTRA.DIHEDRAL>
0

>  <SCORE.INTRA.DIHEDRAL.0>
0

>  <SCORE.INTRA.POLAR>
0

>  <SCORE.INTRA.POLAR.0>
0

>  <SCORE.INTRA.REPUL>
0

>  <SCORE.INTRA.REPUL.0>
0

>  <SCORE.INTRA.SOLV>
0

>  <SCORE.INTRA.SOLV.lig_0>
-4.28901

>  <SCORE.INTRA.VDW>
0

>  <SCORE.INTRA.VDW.0>
0

>  <SCORE.INTRA.norm>
0

>  <SCORE.RESTR>
0

>  <SCORE.RESTR.CAVITY>
0

>  <SCORE.RESTR.norm>
0

>  <SCORE.SYSTEM>
0

>  <SCORE.SYSTEM.CONST>
0

>  <SCORE.SYSTEM.DIHEDRAL>
0

>  <SCORE.SYSTEM.SOLV>
0

>  <SCORE.SYSTEM.norm>
0

>  <SCORE.heavy>
10

>  <SCORE.norm>
-1.61824

>  <RMSD>
2.461

$$$$
ligand
 OpenBabel11021811423D
libRbt.so/2013.1/901 2013/11/27
 10 11  0  0  0  0  0  0  0  0999 V2000
   11.7912   10.8733    8.8376 N   0  0  0  0  0  0  0  0  0  0  0  0
   11.8726    9.7241    8.0730 C   0  0  0  0  0  0  0  0  0  0  0  0
   11.6749    9.7335    6.7477 N   0  0  0  0  0  0  0  0  0  0  0  0
   11.3903   10.9671    6.2556 C   0  0  0  0  0  0  0  0  0  0  0  0
   11.2920   12.1541    6.9597 C   0  0  0  0  0  0  0  0  0  0  0  0
   11.5010   12.1587    8.3693 C   0  0  0  0  0  0  0  0  0  0  0  0
   11.4637   13.0901    9.1861 O   0  0  0  0  0  0  0  0  0  0  0  0
   10.9887   13.1538    6.0768 N   0  0  0  0  0  0  0  0  0  0  0  0
   10.9074   12.5750    4.8528 C   0  0  0  0  0  0  0  0  0  0  0  0
   11.1492   11.2276    4.9300 N   0  0  0  0  0  0  0  0  0  0  0  0
  1  2  1  0  0  0  0
  1  6  1  0  0  0  0
  2  3  2  0  0  0  0
  3  4  1  0  0  0  0
  4  5  2  0  0  0  0
  4 10  1  0  0  0  0
  5  6  1  0  0  0  0
  5  8  1  0  0  0  0
  6  7  2  0  0  0  0
  8  9  1  0  0  0  0
  9 10  2  0  0  0  0
M  END
>  <CHROM.1>
11.40479870,11.59250112,7.07100461,-0.75548696,1.34786841,-2.28659092

>  <Name>
ligand

>  <RI>
0

>  <Rbt.Current_Directory>
/home/itssahil/PROJECTS/Mol_Feturizer/New_Systems/rnas/2EEW

>  <Rbt.Executable>
rbdock ($Id: //depot/dev/client3/rdock/2013.1/src/exe/rbdock.cxx#4 $)

>  <Rbt.Library>
libRbt.so (2013.1, Build901 2013/11/27)

>  <Rbt.Parameter_File>
/export/apps/rDock/src/rDock_2013.1_src/data/scripts/dock_solv.prm

>  <Rbt.Receptor>
prm/pocket_docking_5.prm

>  <SCORE>
-16.2427

>  <SCORE.INTER>
-16.2427

>  <SCORE.INTER.CONST>
1

>  <SCORE.INTER.POLAR>
0

>  <SCORE.INTER.ROT>
0

>  <SCORE.INTER.SOLV>
3.78472

>  <SCORE.INTER.VDW>
-15.69

>  <SCORE.INTER.norm>
-1.62427

>  <SCORE.INTRA>
0

>  <SCORE.INTRA.DIHEDRAL>
0

>  <SCORE.INTRA.DIHEDRAL.0>
0

>  <SCORE.INTRA.POLAR>
0

>  <SCORE.INTRA.POLAR.0>
0

>  <SCORE.INTRA.REPUL>
0

>  <SCORE.INTRA.REPUL.0>
0

>  <SCORE.INTRA.SOLV>
0

>  <SCORE.INTRA.SOLV.lig_0>
-4.28901

>  <SCORE.INTRA.VDW>
0

>  <SCORE.INTRA.VDW.0>
0

>  <SCORE.INTRA.norm>
0

>  <SCORE.RESTR>
0

>  <SCORE.RESTR.CAVITY>
0

>  <SCORE.RESTR.norm>
0

>  <SCORE.SYSTEM>
0

>  <SCORE.SYSTEM.CONST>
0

>  <SCORE.SYSTEM.DIHEDRAL>
0

>  <SCORE.SYSTEM.SOLV>
0

>  <SCORE.SYSTEM.norm>
0

>  <SCORE.heavy>
10

>  <SCORE.norm>
-1.62427

>  <RMSD>
2.462

$$$$
ligand
 OpenBabel11021811423D
libRbt.so/2013.1/901 2013/11/27
 10 11  0  0  0  0  0  0  0  0999 V2000
   11.7649   10.8782    8.8481 N   0  0  0  0  0  0  0  0  0  0  0  0
   11.8425    9.7254    8.0885 C   0  0  0  0  0  0  0  0  0  0  0  0
   11.6558    9.7315    6.7616 N   0  0  0  0  0  0  0  0  0  0  0  0
   11.3859   10.9657    6.2626 C   0  0  0  0  0  0  0  0  0  0  0  0
   11.2922   12.1561    6.9614 C   0  0  0  0  0  0  0  0  0  0  0  0
   11.4898   12.1643    8.3726 C   0  0  0  0  0  0  0  0  0  0  0  0
   11.4538   13.0990    9.1857 O   0  0  0  0  0  0  0  0  0  0  0  0
   11.0049   13.1551    6.0724 N   0  0  0  0  0  0  0  0  0  0  0  0
   10.9286   12.5724    4.8498 C   0  0  0  0  0  0  0  0  0  0  0  0
   11.1580   11.2233    4.9341 N   0  0  0  0  0  0  0  0  0  0  0  0
  1  2  1  0  0  0  0
  1  6  1  0  0  0  0
  2  3  2  0  0  0  0
  3  4  1  0  0  0  0
  4  5  2  0  0  0  0
  4 10  1  0  0  0  0
  5  6  1  0  0  0  0
  5  8  1  0  0  0  0
  6  7  2  0  0  0  0
  8  9  1  0  0  0  0
  9 10  2  0  0  0  0
M  END
>  <CHROM.1>
11.39925181,11.59403378,7.07570365,-0.75769697,1.35980441,-2.28818264

>  <Name>
ligand

>  <RI>
0

>  <Rbt.Current_Directory>
/home/itssahil/PROJECTS/Mol_Feturizer/New_Systems/rnas/2EEW

>  <Rbt.Executable>
rbdock ($Id: //depot/dev/client3/rdock/2013.1/src/exe/rbdock.cxx#4 $)

>  <Rbt.Library>
libRbt.so (2013.1, Build901 2013/11/27)

>  <Rbt.Parameter_File>
/export/apps/rDock/src/rDock_2013.1_src/data/scripts/dock_solv.prm

>  <Rbt.Receptor>
prm/pocket_docking_5.prm

>  <SCORE>
-16.3079

>  <SCORE.INTER>
-16.3079

>  <SCORE.INTER.CONST>
1

>  <SCORE.INTER.POLAR>
0

>  <SCORE.INTER.ROT>
0

>  <SCORE.INTER.SOLV>
3.81511

>  <SCORE.INTER.VDW>
-15.7436

>  <SCORE.INTER.norm>
-1.63079

>  <SCORE.INTRA>
0

>  <SCORE.INTRA.DIHEDRAL>
0

>  <SCORE.INTRA.DIHEDRAL.0>
0

>  <SCORE.INTRA.POLAR>
0

>  <SCORE.INTRA.POLAR.0>
0

>  <SCORE.INTRA.REPUL>
0

>  <SCORE.INTRA.REPUL.0>
0

>  <SCORE.INTRA.SOLV>
0

>  <SCORE.INTRA.SOLV.lig_0>
-4.28901

>  <SCORE.INTRA.VDW>
0

>  <SCORE.INTRA.VDW.0>
0

>  <SCORE.INTRA.norm>
0

>  <SCORE.RESTR>
0

>  <SCORE.RESTR.CAVITY>
0

>  <SCORE.RESTR.norm>
0

>  <SCORE.SYSTEM>
0

>  <SCORE.SYSTEM.CONST>
0

>  <SCORE.SYSTEM.DIHEDRAL>
0

>  <SCORE.SYSTEM.SOLV>
0

>  <SCORE.SYSTEM.norm>
0

>  <SCORE.heavy>
10

>  <SCORE.norm>
-1.63079

>  <RMSD>
2.462

$$$$
ligand
 OpenBabel11021811423D
libRbt.so/2013.1/901 2013/11/27
 10 11  0  0  0  0  0  0  0  0999 V2000
   11.7852   10.8560    8.8329 N   0  0  0  0  0  0  0  0  0  0  0  0
   11.8642    9.7094    8.0641 C   0  0  0  0  0  0  0  0  0  0  0  0
   11.6626    9.7234    6.7395 N   0  0  0  0  0  0  0  0  0  0  0  0
   11.3767   10.9588    6.2524 C   0  0  0  0  0  0  0  0  0  0  0  0
   11.2805   12.1433    6.9608 C   0  0  0  0  0  0  0  0  0  0  0  0
   11.4938   12.1431    8.3699 C   0  0  0  0  0  0  0  0  0  0  0  0
   11.4589   13.0716    9.1900 O   0  0  0  0  0  0  0  0  0  0  0  0
   10.9748   13.1461    6.0824 N   0  0  0  0  0  0  0  0  0  0  0  0
   10.8899   12.5715    4.8566 C   0  0  0  0  0  0  0  0  0  0  0  0
   11.1317   11.2238    4.9285 N   0  0  0  0  0  0  0  0  0  0  0  0
  1  2  1  0  0  0  0
  1  6  1  0  0  0  0
  2  3  2  0  0  0  0
  3  4  1  0  0  0  0
  4  5  2  0  0  0  0
  4 10  1  0  0  0  0
  5  6  1  0  0  0  0
  5  8  1  0  0  0  0
  6  7  2  0  0  0  0
  8  9  1  0  0  0  0
  9 10  2  0  0  0  0
M  END
>  <CHROM.1>
11.39366173,11.58132698,7.06991583,-0.74518499,1.34600679,-2.29319328

>  <Name>
ligand

>  <RI>
0

>  <Rbt.Current_Directory>
/home/itssahil/PROJECTS/Mol_Feturizer/New_Systems/rnas/2EEW

>  <Rbt.Executable>
rbdock ($Id: //depot/dev/client3/rdock/2013.1/src/exe/rbdock.cxx#4 $)

>  <Rbt.Library>
libRbt.so (2013.1, Build901 2013/11/27)

>  <Rbt.Parameter_File>
/export/apps/rDock/src/rDock_2013.1_src/data/scripts/dock_solv.prm

>  <Rbt.Receptor>
prm/pocket_docking_6.prm

>  <SCORE>
-16.2258

>  <SCORE.INTER>
-16.2258

>  <SCORE.INTER.CONST>
1

>  <SCORE.INTER.POLAR>
0

>  <SCORE.INTER.ROT>
0

>  <SCORE.INTER.SOLV>
3.76827

>  <SCORE.INTER.VDW>
-15.6733

>  <SCORE.INTER.norm>
-1.62258

>  <SCORE.INTRA>
0

>  <SCORE.INTRA.DIHEDRAL>
0

>  <SCORE.INTRA.DIHEDRAL.0>
0

>  <SCORE.INTRA.POLAR>
0

>  <SCORE.INTRA.POLAR.0>
0

>  <SCORE.INTRA.REPUL>
0

>  <SCORE.INTRA.REPUL.0>
0

>  <SCORE.INTRA.SOLV>
0

>  <SCORE.INTRA.SOLV.lig_0>
-4.28901

>  <SCORE.INTRA.VDW>
0

>  <SCORE.INTRA.VDW.0>
0

>  <SCORE.INTRA.norm>
0

>  <SCORE.RESTR>
0

>  <SCORE.RESTR.CAVITY>
0

>  <SCORE.RESTR.norm>
0

>  <SCORE.SYSTEM>
0

>  <SCORE.SYSTEM.CONST>
0

>  <SCORE.SYSTEM.DIHEDRAL>
0

>  <SCORE.SYSTEM.SOLV>
0

>  <SCORE.SYSTEM.norm>
0

>  <SCORE.heavy>
10

>  <SCORE.norm>
-1.62258

>  <RMSD>
2.462

$$$$
ligand
 OpenBabel11021811423D
libRbt.so/2013.1/901 2013/11/27
 10 11  0  0  0  0  0  0  0  0999 V2000
   11.7504   11.1139    9.4384 N   0  0  0  0  0  0  0  0  0  0  0  0
   11.7472   10.0277    8.5829 C   0  0  0  0  0  0  0  0  0  0  0  0
   11.5565   10.1595    7.2631 N   0  0  0  0  0  0  0  0  0  0  0  0
   11.3688   11.4471    6.8733 C   0  0  0  0  0  0  0  0  0  0  0  0
   11.3582   12.5771    7.6715 C   0  0  0  0  0  0  0  0  0  0  0  0
   11.5610   12.4515    9.0765 C   0  0  0  0  0  0  0  0  0  0  0  0
   11.5912   13.3137    9.9663 O   0  0  0  0  0  0  0  0  0  0  0  0
   11.1358   13.6653    6.8734 N   0  0  0  0  0  0  0  0  0  0  0  0
   11.0159   13.1955    5.6065 C   0  0  0  0  0  0  0  0  0  0  0  0
   11.1540   11.8318    5.5737 N   0  0  0  0  0  0  0  0  0  0  0  0
  1  2  1  0  0  0  0
  1  6  1  0  0  0  0
  2  3  2  0  0  0  0
  3  4  1  0  0  0  0
  4  5  2  0  0  0  0
  4 10  1  0  0  0  0
  5  6  1  0  0  0  0
  5  8  1  0  0  0  0
  6  7  2  0  0  0  0
  8  9  1  0  0  0  0
  9 10  2  0  0  0  0
M  END
>  <CHROM.1>
11.42747186,12.00137098,7.73672852,-0.47393621,1.40173432,-2.48159149

>  <Name>
ligand

>  <RI>
0

>  <Rbt.Current_Directory>
/home/itssahil/PROJECTS/Mol_Feturizer/New_Systems/rnas/2EEW

>  <Rbt.Executable>
rbdock ($Id: //depot/dev/client3/rdock/2013.1/src/exe/rbdock.cxx#4 $)

>  <Rbt.Library>
libRbt.so (2013.1, Build901 2013/11/27)

>  <Rbt.Parameter_File>
/export/apps/rDock/src/rDock_2013.1_src/data/scripts/dock_solv.prm

>  <Rbt.Receptor>
prm/pocket_docking_6.prm

>  <SCORE>
-16.1862

>  <SCORE.INTER>
-16.1862

>  <SCORE.INTER.CONST>
1

>  <SCORE.INTER.POLAR>
0

>  <SCORE.INTER.ROT>
0

>  <SCORE.INTER.SOLV>
4.27798

>  <SCORE.INTER.VDW>
-15.8168

>  <SCORE.INTER.norm>
-1.61862

>  <SCORE.INTRA>
0

>  <SCORE.INTRA.DIHEDRAL>
0

>  <SCORE.INTRA.DIHEDRAL.0>
0

>  <SCORE.INTRA.POLAR>
0

>  <SCORE.INTRA.POLAR.0>
0

>  <SCORE.INTRA.REPUL>
0

>  <SCORE.INTRA.REPUL.0>
0

>  <SCORE.INTRA.SOLV>
0

>  <SCORE.INTRA.SOLV.lig_0>
-4.28901

>  <SCORE.INTRA.VDW>
0

>  <SCORE.INTRA.VDW.0>
0

>  <SCORE.INTRA.norm>
0

>  <SCORE.RESTR>
0

>  <SCORE.RESTR.CAVITY>
0

>  <SCORE.RESTR.norm>
0

>  <SCORE.SYSTEM>
0

>  <SCORE.SYSTEM.CONST>
0

>  <SCORE.SYSTEM.DIHEDRAL>
0

>  <SCORE.SYSTEM.SOLV>
0

>  <SCORE.SYSTEM.norm>
0

>  <SCORE.heavy>
10

>  <SCORE.norm>
-1.61862

>  <RMSD>
2.462

$$$$
ligand
 OpenBabel11021811423D
libRbt.so/2013.1/901 2013/11/27
 10 11  0  0  0  0  0  0  0  0999 V2000
   11.7635   10.8423    8.8441 N   0  0  0  0  0  0  0  0  0  0  0  0
   11.8689    9.6973    8.0763 C   0  0  0  0  0  0  0  0  0  0  0  0
   11.6889    9.7096    6.7485 N   0  0  0  0  0  0  0  0  0  0  0  0
   11.3961   10.9417    6.2573 C   0  0  0  0  0  0  0  0  0  0  0  0
   11.2741   12.1246    6.9646 C   0  0  0  0  0  0  0  0  0  0  0  0
   11.4641   12.1261    8.3769 C   0  0  0  0  0  0  0  0  0  0  0  0
   11.4046   13.0536    9.1967 O   0  0  0  0  0  0  0  0  0  0  0  0
   10.9707   13.1241    6.0816 N   0  0  0  0  0  0  0  0  0  0  0  0
   10.9128   12.5493    4.8543 C   0  0  0  0  0  0  0  0  0  0  0  0
   11.1697   11.2046    4.9296 N   0  0  0  0  0  0  0  0  0  0  0  0
  1  2  1  0  0  0  0
  1  6  1  0  0  0  0
  2  3  2  0  0  0  0
  3  4  1  0  0  0  0
  4  5  2  0  0  0  0
  4 10  1  0  0  0  0
  5  6  1  0  0  0  0
  5  8  1  0  0  0  0
  6  7  2  0  0  0  0
  8  9  1  0  0  0  0
  9 10  2  0  0  0  0
M  END
>  <CHROM.1>
11.39214746,11.56394874,7.07525060,-0.83670188,1.34687926,-2.20346004

>  <Name>
ligand

>  <RI>
0

>  <Rbt.Current_Directory>
/home/itssahil/PROJECTS/Mol_Feturizer/New_Systems/rnas/2EEW

>  <Rbt.Executable>
rbdock ($Id: //depot/dev/client3/rdock/2013.1/src/exe/rbdock.cxx#4 $)

>  <Rbt.Library>
libRbt.so (2013.1, Build901 2013/11/27)

>  <Rbt.Parameter_File>
/export/apps/rDock/src/rDock_2013.1_src/data/scripts/dock_solv.prm

>  <Rbt.Receptor>
prm/pocket_docking_3.prm

>  <SCORE>
-16.2067

>  <SCORE.INTER>
-16.2067

>  <SCORE.INTER.CONST>
1

>  <SCORE.INTER.POLAR>
0

>  <SCORE.INTER.ROT>
0

>  <SCORE.INTER.SOLV>
3.75007

>  <SCORE.INTER.VDW>
-15.6545

>  <SCORE.INTER.norm>
-1.62067

>  <SCORE.INTRA>
0

>  <SCORE.INTRA.DIHEDRAL>
0

>  <SCORE.INTRA.DIHEDRAL.0>
0

>  <SCORE.INTRA.POLAR>
0

>  <SCORE.INTRA.POLAR.0>
0

>  <SCORE.INTRA.REPUL>
0

>  <SCORE.INTRA.REPUL.0>
0

>  <SCORE.INTRA.SOLV>
0

>  <SCORE.INTRA.SOLV.lig_0>
-4.28901

>  <SCORE.INTRA.VDW>
0

>  <SCORE.INTRA.VDW.0>
0

>  <SCORE.INTRA.norm>
0

>  <SCORE.RESTR>
0

>  <SCORE.RESTR.CAVITY>
0

>  <SCORE.RESTR.norm>
0

>  <SCORE.SYSTEM>
0

>  <SCORE.SYSTEM.CONST>
0

>  <SCORE.SYSTEM.DIHEDRAL>
0

>  <SCORE.SYSTEM.SOLV>
0

>  <SCORE.SYSTEM.norm>
0

>  <SCORE.heavy>
10

>  <SCORE.norm>
-1.62067

>  <RMSD>
2.463

$$$$
ligand
 OpenBabel11021811423D
libRbt.so/2013.1/901 2013/11/27
 10 11  0  0  0  0  0  0  0  0999 V2000
   11.7649   10.8621    8.8352 N   0  0  0  0  0  0  0  0  0  0  0  0
   11.8577    9.7235    8.0562 C   0  0  0  0  0  0  0  0  0  0  0  0
   11.6770    9.7507    6.7287 N   0  0  0  0  0  0  0  0  0  0  0  0
   11.3969   10.9905    6.2498 C   0  0  0  0  0  0  0  0  0  0  0  0
   11.2878   12.1676    6.9686 C   0  0  0  0  0  0  0  0  0  0  0  0
   11.4788   12.1534    8.3807 C   0  0  0  0  0  0  0  0  0  0  0  0
   11.4296   13.0735    9.2096 O   0  0  0  0  0  0  0  0  0  0  0  0
   10.9945   13.1789    6.0956 N   0  0  0  0  0  0  0  0  0  0  0  0
   10.9298   12.6167    4.8629 C   0  0  0  0  0  0  0  0  0  0  0  0
   11.1726   11.2687    4.9249 N   0  0  0  0  0  0  0  0  0  0  0  0
  1  2  1  0  0  0  0
  1  6  1  0  0  0  0
  2  3  2  0  0  0  0
  3  4  1  0  0  0  0
  4  5  2  0  0  0  0
  4 10  1  0  0  0  0
  5  6  1  0  0  0  0
  5  8  1  0  0  0  0
  6  7  2  0  0  0  0
  8  9  1  0  0  0  0
  9 10  2  0  0  0  0
M  END
>  <CHROM.1>
11.40007805,11.60474984,7.07373645,-0.80527187,1.35491554,-2.22439829

>  <Name>
ligand

>  <RI>
0

>  <Rbt.Current_Directory>
/home/itssahil/PROJECTS/Mol_Feturizer/New_Systems/rnas/2EEW

>  <Rbt.Executable>
rbdock ($Id: //depot/dev/client3/rdock/2013.1/src/exe/rbdock.cxx#4 $)

>  <Rbt.Library>
libRbt.so (2013.1, Build901 2013/11/27)

>  <Rbt.Parameter_File>
/export/apps/rDock/src/rDock_2013.1_src/data/scripts/dock_solv.prm

>  <Rbt.Receptor>
prm/pocket_docking_7.prm

>  <SCORE>
-16.1822

>  <SCORE.INTER>
-16.1822

>  <SCORE.INTER.CONST>
1

>  <SCORE.INTER.POLAR>
0

>  <SCORE.INTER.ROT>
0

>  <SCORE.INTER.SOLV>
3.77321

>  <SCORE.INTER.VDW>
-15.6458

>  <SCORE.INTER.norm>
-1.61822

>  <SCORE.INTRA>
0

>  <SCORE.INTRA.DIHEDRAL>
0

>  <SCORE.INTRA.DIHEDRAL.0>
0

>  <SCORE.INTRA.POLAR>
0

>  <SCORE.INTRA.POLAR.0>
0

>  <SCORE.INTRA.REPUL>
0

>  <SCORE.INTRA.REPUL.0>
0

>  <SCORE.INTRA.SOLV>
0

>  <SCORE.INTRA.SOLV.lig_0>
-4.28901

>  <SCORE.INTRA.VDW>
0

>  <SCORE.INTRA.VDW.0>
0

>  <SCORE.INTRA.norm>
0

>  <SCORE.RESTR>
0

>  <SCORE.RESTR.CAVITY>
0

>  <SCORE.RESTR.norm>
0

>  <SCORE.SYSTEM>
0

>  <SCORE.SYSTEM.CONST>
0

>  <SCORE.SYSTEM.DIHEDRAL>
0

>  <SCORE.SYSTEM.SOLV>
0

>  <SCORE.SYSTEM.norm>
0

>  <SCORE.heavy>
10

>  <SCORE.norm>
-1.61822

>  <RMSD>
2.463

$$$$
ligand
 OpenBabel11021811423D
libRbt.so/2013.1/901 2013/11/27
 10 11  0  0  0  0  0  0  0  0999 V2000
   11.7334   11.0836    9.3951 N   0  0  0  0  0  0  0  0  0  0  0  0
   11.7278   10.0192    8.5125 C   0  0  0  0  0  0  0  0  0  0  0  0
   11.5437   10.1854    7.1957 N   0  0  0  0  0  0  0  0  0  0  0  0
   11.3652   11.4835    6.8376 C   0  0  0  0  0  0  0  0  0  0  0  0
   11.3575   12.5930    7.6640 C   0  0  0  0  0  0  0  0  0  0  0  0
   11.5533   12.4309    9.0662 C   0  0  0  0  0  0  0  0  0  0  0  0
   11.5845   13.2702    9.9776 O   0  0  0  0  0  0  0  0  0  0  0  0
   11.1449   13.7023    6.8926 N   0  0  0  0  0  0  0  0  0  0  0  0
   11.0279   13.2653    5.6138 C   0  0  0  0  0  0  0  0  0  0  0  0
   11.1584   11.9020    5.5472 N   0  0  0  0  0  0  0  0  0  0  0  0
  1  2  1  0  0  0  0
  1  6  1  0  0  0  0
  2  3  2  0  0  0  0
  3  4  1  0  0  0  0
  4  5  2  0  0  0  0
  4 10  1  0  0  0  0
  5  6  1  0  0  0  0
  5  8  1  0  0  0  0
  6  7  2  0  0  0  0
  8  9  1  0  0  0  0
  9 10  2  0  0  0  0
M  END
>  <CHROM.1>
11.42316901,12.01546447,7.71496606,-0.46257274,1.40875532,-2.46761355

>  <Name>
ligand

>  <RI>
0

>  <Rbt.Current_Directory>
/home/itssahil/PROJECTS/Mol_Feturizer/New_Systems/rnas/2EEW

>  <Rbt.Executable>
rbdock ($Id: //depot/dev/client3/rdock/2013.1/src/exe/rbdock.cxx#4 $)

>  <Rbt.Library>
libRbt.so (2013.1, Build901 2013/11/27)

>  <Rbt.Parameter_File>
/export/apps/rDock/src/rDock_2013.1_src/data/scripts/dock_solv.prm

>  <Rbt.Receptor>
prm/pocket_docking_8.prm

>  <SCORE>
-16.1596

>  <SCORE.INTER>
-16.1596

>  <SCORE.INTER.CONST>
1

>  <SCORE.INTER.POLAR>
0

>  <SCORE.INTER.ROT>
0

>  <SCORE.INTER.SOLV>
4.27873

>  <SCORE.INTER.VDW>
-15.7993

>  <SCORE.INTER.norm>
-1.61596

>  <SCORE.INTRA>
0

>  <SCORE.INTRA.DIHEDRAL>
0

>  <SCORE.INTRA.DIHEDRAL.0>
0

>  <SCORE.INTRA.POLAR>
0

>  <SCORE.INTRA.POLAR.0>
0

>  <SCORE.INTRA.REPUL>
0

>  <SCORE.INTRA.REPUL.0>
0

>  <SCORE.INTRA.SOLV>
0

>  <SCORE.INTRA.SOLV.lig_0>
-4.28901

>  <SCORE.INTRA.VDW>
0

>  <SCORE.INTRA.VDW.0>
0

>  <SCORE.INTRA.norm>
0

>  <SCORE.RESTR>
0

>  <SCORE.RESTR.CAVITY>
0

>  <SCORE.RESTR.norm>
0

>  <SCORE.SYSTEM>
0

>  <SCORE.SYSTEM.CONST>
0

>  <SCORE.SYSTEM.DIHEDRAL>
0

>  <SCORE.SYSTEM.SOLV>
0

>  <SCORE.SYSTEM.norm>
0

>  <SCORE.heavy>
10

>  <SCORE.norm>
-1.61596

>  <RMSD>
2.463

$$$$
ligand
 OpenBabel11021811423D
libRbt.so/2013.1/901 2013/11/27
 10 11  0  0  0  0  0  0  0  0999 V2000
   11.7626   10.8567    8.8394 N   0  0  0  0  0  0  0  0  0  0  0  0
   11.8702    9.7140    8.0683 C   0  0  0  0  0  0  0  0  0  0  0  0
   11.6884    9.7294    6.7408 N   0  0  0  0  0  0  0  0  0  0  0  0
   11.3916   10.9620    6.2534 C   0  0  0  0  0  0  0  0  0  0  0  0
   11.2672   12.1426    6.9639 C   0  0  0  0  0  0  0  0  0  0  0  0
   11.4591   12.1408    8.3760 C   0  0  0  0  0  0  0  0  0  0  0  0
   11.3981   13.0660    9.1984 O   0  0  0  0  0  0  0  0  0  0  0  0
   10.9600   13.1437    6.0840 N   0  0  0  0  0  0  0  0  0  0  0  0
   10.9021   12.5720    4.8553 C   0  0  0  0  0  0  0  0  0  0  0  0
   11.1628   11.2278    4.9267 N   0  0  0  0  0  0  0  0  0  0  0  0
  1  2  1  0  0  0  0
  1  6  1  0  0  0  0
  2  3  2  0  0  0  0
  3  4  1  0  0  0  0
  4  5  2  0  0  0  0
  4 10  1  0  0  0  0
  5  6  1  0  0  0  0
  5  8  1  0  0  0  0
  6  7  2  0  0  0  0
  8  9  1  0  0  0  0
  9 10  2  0  0  0  0
M  END
>  <CHROM.1>
11.38700196,11.58199638,7.07294155,-0.83936868,1.34389201,-2.19816750

>  <Name>
ligand

>  <RI>
0

>  <Rbt.Current_Directory>
/home/itssahil/PROJECTS/Mol_Feturizer/New_Systems/rnas/2EEW

>  <Rbt.Executable>
rbdock ($Id: //depot/dev/client3/rdock/2013.1/src/exe/rbdock.cxx#4 $)

>  <Rbt.Library>
libRbt.so (2013.1, Build901 2013/11/27)

>  <Rbt.Parameter_File>
/export/apps/rDock/src/rDock_2013.1_src/data/scripts/dock_solv.prm

>  <Rbt.Receptor>
prm/blind_docking_40.prm

>  <SCORE>
-16.2072

>  <SCORE.INTER>
-16.2072

>  <SCORE.INTER.CONST>
1

>  <SCORE.INTER.POLAR>
0

>  <SCORE.INTER.ROT>
0

>  <SCORE.INTER.SOLV>
3.75029

>  <SCORE.INTER.VDW>
-15.6549

>  <SCORE.INTER.norm>
-1.62072

>  <SCORE.INTRA>
0

>  <SCORE.INTRA.DIHEDRAL>
0

>  <SCORE.INTRA.DIHEDRAL.0>
0

>  <SCORE.INTRA.POLAR>
0

>  <SCORE.INTRA.POLAR.0>
0

>  <SCORE.INTRA.REPUL>
0

>  <SCORE.INTRA.REPUL.0>
0

>  <SCORE.INTRA.SOLV>
0

>  <SCORE.INTRA.SOLV.lig_0>
-4.28901

>  <SCORE.INTRA.VDW>
0

>  <SCORE.INTRA.VDW.0>
0

>  <SCORE.INTRA.norm>
0

>  <SCORE.RESTR>
0

>  <SCORE.RESTR.CAVITY>
0

>  <SCORE.RESTR.norm>
0

>  <SCORE.SYSTEM>
0

>  <SCORE.SYSTEM.CONST>
0

>  <SCORE.SYSTEM.DIHEDRAL>
0

>  <SCORE.SYSTEM.SOLV>
0

>  <SCORE.SYSTEM.norm>
0

>  <SCORE.heavy>
10

>  <SCORE.norm>
-1.62072

>  <RMSD>
2.464

$$$$
ligand
 OpenBabel11021811423D
libRbt.so/2013.1/901 2013/11/27
 10 11  0  0  0  0  0  0  0  0999 V2000
   11.7450   11.0802    9.4104 N   0  0  0  0  0  0  0  0  0  0  0  0
   11.7371   10.0191    8.5240 C   0  0  0  0  0  0  0  0  0  0  0  0
   11.5532   10.1904    7.2077 N   0  0  0  0  0  0  0  0  0  0  0  0
   11.3775   11.4901    6.8544 C   0  0  0  0  0  0  0  0  0  0  0  0
   11.3723   12.5967    7.6848 C   0  0  0  0  0  0  0  0  0  0  0  0
   11.5678   12.4291    9.0864 C   0  0  0  0  0  0  0  0  0  0  0  0
   11.6009   13.2651   10.0007 O   0  0  0  0  0  0  0  0  0  0  0  0
   11.1621   13.7092    6.9173 N   0  0  0  0  0  0  0  0  0  0  0  0
   11.0441   13.2770    5.6370 C   0  0  0  0  0  0  0  0  0  0  0  0
   11.1715   11.9138    5.5655 N   0  0  0  0  0  0  0  0  0  0  0  0
  1  2  1  0  0  0  0
  1  6  1  0  0  0  0
  2  3  2  0  0  0  0
  3  4  1  0  0  0  0
  4  5  2  0  0  0  0
  4 10  1  0  0  0  0
  5  6  1  0  0  0  0
  5  8  1  0  0  0  0
  6  7  2  0  0  0  0
  8  9  1  0  0  0  0
  9 10  2  0  0  0  0
M  END
>  <CHROM.1>
11.43669283,12.01882481,7.73362372,-0.45179584,1.41006034,-2.47464614

>  <Name>
ligand

>  <RI>
0

>  <Rbt.Current_Directory>
/home/itssahil/PROJECTS/Mol_Feturizer/New_Systems/rnas/2EEW

>  <Rbt.Executable>
rbdock ($Id: //depot/dev/client3/rdock/2013.1/src/exe/rbdock.cxx#4 $)

>  <Rbt.Library>
libRbt.so (2013.1, Build901 2013/11/27)

>  <Rbt.Parameter_File>
/export/apps/rDock/src/rDock_2013.1_src/data/scripts/dock_solv.prm

>  <Rbt.Receptor>
prm/pocket_docking_6.prm

>  <SCORE>
-16.191

>  <SCORE.INTER>
-16.191

>  <SCORE.INTER.CONST>
1

>  <SCORE.INTER.POLAR>
0

>  <SCORE.INTER.ROT>
0

>  <SCORE.INTER.SOLV>
4.28541

>  <SCORE.INTER.VDW>
-15.8225

>  <SCORE.INTER.norm>
-1.6191

>  <SCORE.INTRA>
0

>  <SCORE.INTRA.DIHEDRAL>
0

>  <SCORE.INTRA.DIHEDRAL.0>
0

>  <SCORE.INTRA.POLAR>
0

>  <SCORE.INTRA.POLAR.0>
0

>  <SCORE.INTRA.REPUL>
0

>  <SCORE.INTRA.REPUL.0>
0

>  <SCORE.INTRA.SOLV>
0

>  <SCORE.INTRA.SOLV.lig_0>
-4.28901

>  <SCORE.INTRA.VDW>
0

>  <SCORE.INTRA.VDW.0>
0

>  <SCORE.INTRA.norm>
0

>  <SCORE.RESTR>
0

>  <SCORE.RESTR.CAVITY>
0

>  <SCORE.RESTR.norm>
0

>  <SCORE.SYSTEM>
0

>  <SCORE.SYSTEM.CONST>
0

>  <SCORE.SYSTEM.DIHEDRAL>
0

>  <SCORE.SYSTEM.SOLV>
0

>  <SCORE.SYSTEM.norm>
0

>  <SCORE.heavy>
10

>  <SCORE.norm>
-1.6191

>  <RMSD>
2.465

$$$$
ligand
 OpenBabel11021811423D
libRbt.so/2013.1/901 2013/11/27
 10 11  0  0  0  0  0  0  0  0999 V2000
   11.7624   10.8767    8.8420 N   0  0  0  0  0  0  0  0  0  0  0  0
   11.8697    9.7291    8.0783 C   0  0  0  0  0  0  0  0  0  0  0  0
   11.6893    9.7363    6.7505 N   0  0  0  0  0  0  0  0  0  0  0  0
   11.3942   10.9662    6.2550 C   0  0  0  0  0  0  0  0  0  0  0  0
   11.2703   12.1513    6.9580 C   0  0  0  0  0  0  0  0  0  0  0  0
   11.4607   12.1582    8.3702 C   0  0  0  0  0  0  0  0  0  0  0  0
   11.3997   13.0886    9.1868 O   0  0  0  0  0  0  0  0  0  0  0  0
   10.9649   13.1471    6.0715 N   0  0  0  0  0  0  0  0  0  0  0  0
   10.9077   12.5678    4.8463 C   0  0  0  0  0  0  0  0  0  0  0  0
   11.1671   11.2239    4.9264 N   0  0  0  0  0  0  0  0  0  0  0  0
  1  2  1  0  0  0  0
  1  6  1  0  0  0  0
  2  3  2  0  0  0  0
  3  4  1  0  0  0  0
  4  5  2  0  0  0  0
  4 10  1  0  0  0  0
  5  6  1  0  0  0  0
  5  8  1  0  0  0  0
  6  7  2  0  0  0  0
  8  9  1  0  0  0  0
  9 10  2  0  0  0  0
M  END
>  <CHROM.1>
11.38937009,11.59128841,7.07065212,-0.84057231,1.34530121,-2.20327488

>  <Name>
ligand

>  <RI>
0

>  <Rbt.Current_Directory>
/home/itssahil/PROJECTS/Mol_Feturizer/New_Systems/rnas/2EEW

>  <Rbt.Executable>
rbdock ($Id: //depot/dev/client3/rdock/2013.1/src/exe/rbdock.cxx#4 $)

>  <Rbt.Library>
libRbt.so (2013.1, Build901 2013/11/27)

>  <Rbt.Parameter_File>
/export/apps/rDock/src/rDock_2013.1_src/data/scripts/dock_solv.prm

>  <Rbt.Receptor>
prm/pocket_docking_8.prm

>  <SCORE>
-16.1783

>  <SCORE.INTER>
-16.1783

>  <SCORE.INTER.CONST>
1

>  <SCORE.INTER.POLAR>
0

>  <SCORE.INTER.ROT>
0

>  <SCORE.INTER.SOLV>
3.77266

>  <SCORE.INTER.VDW>
-15.6431

>  <SCORE.INTER.norm>
-1.61783

>  <SCORE.INTRA>
0

>  <SCORE.INTRA.DIHEDRAL>
0

>  <SCORE.INTRA.DIHEDRAL.0>
0

>  <SCORE.INTRA.POLAR>
0

>  <SCORE.INTRA.POLAR.0>
0

>  <SCORE.INTRA.REPUL>
0

>  <SCORE.INTRA.REPUL.0>
0

>  <SCORE.INTRA.SOLV>
0

>  <SCORE.INTRA.SOLV.lig_0>
-4.28901

>  <SCORE.INTRA.VDW>
0

>  <SCORE.INTRA.VDW.0>
0

>  <SCORE.INTRA.norm>
0

>  <SCORE.RESTR>
0

>  <SCORE.RESTR.CAVITY>
0

>  <SCORE.RESTR.norm>
0

>  <SCORE.SYSTEM>
0

>  <SCORE.SYSTEM.CONST>
0

>  <SCORE.SYSTEM.DIHEDRAL>
0

>  <SCORE.SYSTEM.SOLV>
0

>  <SCORE.SYSTEM.norm>
0

>  <SCORE.heavy>
10

>  <SCORE.norm>
-1.61783

>  <RMSD>
2.465

$$$$
ligand
 OpenBabel11021811423D
libRbt.so/2013.1/901 2013/11/27
 10 11  0  0  0  0  0  0  0  0999 V2000
   11.7849   10.8825    8.8267 N   0  0  0  0  0  0  0  0  0  0  0  0
   11.8743    9.7306    8.0671 C   0  0  0  0  0  0  0  0  0  0  0  0
   11.6819    9.7337    6.7410 N   0  0  0  0  0  0  0  0  0  0  0  0
   11.3939   10.9641    6.2427 C   0  0  0  0  0  0  0  0  0  0  0  0
   11.2876   12.1534    6.9415 C   0  0  0  0  0  0  0  0  0  0  0  0
   11.4911   12.1648    8.3519 C   0  0  0  0  0  0  0  0  0  0  0  0
   11.4464   13.0992    9.1648 O   0  0  0  0  0  0  0  0  0  0  0  0
   10.9836   13.1482    6.0534 N   0  0  0  0  0  0  0  0  0  0  0  0
   10.9098   12.5641    4.8314 C   0  0  0  0  0  0  0  0  0  0  0  0
   11.1571   11.2181    4.9151 N   0  0  0  0  0  0  0  0  0  0  0  0
  1  2  1  0  0  0  0
  1  6  1  0  0  0  0
  2  3  2  0  0  0  0
  3  4  1  0  0  0  0
  4  5  2  0  0  0  0
  4 10  1  0  0  0  0
  5  6  1  0  0  0  0
  5  8  1  0  0  0  0
  6  7  2  0  0  0  0
  8  9  1  0  0  0  0
  9 10  2  0  0  0  0
M  END
>  <CHROM.1>
11.40247179,11.59282146,7.05556986,-0.78190293,1.34716143,-2.26491274

>  <Name>
ligand

>  <RI>
0

>  <Rbt.Current_Directory>
/home/itssahil/PROJECTS/Mol_Feturizer/New_Systems/rnas/2EEW

>  <Rbt.Executable>
rbdock ($Id: //depot/dev/client3/rdock/2013.1/src/exe/rbdock.cxx#4 $)

>  <Rbt.Library>
libRbt.so (2013.1, Build901 2013/11/27)

>  <Rbt.Parameter_File>
/export/apps/rDock/src/rDock_2013.1_src/data/scripts/dock_solv.prm

>  <Rbt.Receptor>
prm/pocket_docking_5.prm

>  <SCORE>
-16.2371

>  <SCORE.INTER>
-16.2371

>  <SCORE.INTER.CONST>
1

>  <SCORE.INTER.POLAR>
0

>  <SCORE.INTER.ROT>
0

>  <SCORE.INTER.SOLV>
3.78994

>  <SCORE.INTER.VDW>
-15.688

>  <SCORE.INTER.norm>
-1.62371

>  <SCORE.INTRA>
0

>  <SCORE.INTRA.DIHEDRAL>
0

>  <SCORE.INTRA.DIHEDRAL.0>
0

>  <SCORE.INTRA.POLAR>
0

>  <SCORE.INTRA.POLAR.0>
0

>  <SCORE.INTRA.REPUL>
0

>  <SCORE.INTRA.REPUL.0>
0

>  <SCORE.INTRA.SOLV>
0

>  <SCORE.INTRA.SOLV.lig_0>
-4.28901

>  <SCORE.INTRA.VDW>
0

>  <SCORE.INTRA.VDW.0>
0

>  <SCORE.INTRA.norm>
0

>  <SCORE.RESTR>
0

>  <SCORE.RESTR.CAVITY>
0

>  <SCORE.RESTR.norm>
0

>  <SCORE.SYSTEM>
0

>  <SCORE.SYSTEM.CONST>
0

>  <SCORE.SYSTEM.DIHEDRAL>
0

>  <SCORE.SYSTEM.SOLV>
0

>  <SCORE.SYSTEM.norm>
0

>  <SCORE.heavy>
10

>  <SCORE.norm>
-1.62371

>  <RMSD>
2.466

$$$$
ligand
 OpenBabel11021811423D
libRbt.so/2013.1/901 2013/11/27
 10 11  0  0  0  0  0  0  0  0999 V2000
   11.8048   10.8194    8.7850 N   0  0  0  0  0  0  0  0  0  0  0  0
   11.9116    9.6887    7.9963 C   0  0  0  0  0  0  0  0  0  0  0  0
   11.7212    9.7231    6.6704 N   0  0  0  0  0  0  0  0  0  0  0  0
   11.4166   10.9617    6.2032 C   0  0  0  0  0  0  0  0  0  0  0  0
   11.2925   12.1311    6.9321 C   0  0  0  0  0  0  0  0  0  0  0  0
   11.4936   12.1091    8.3427 C   0  0  0  0  0  0  0  0  0  0  0  0
   11.4344   13.0217    9.1792 O   0  0  0  0  0  0  0  0  0  0  0  0
   10.9758   13.1440    6.0692 N   0  0  0  0  0  0  0  0  0  0  0  0
   10.9121   12.5904    4.8325 C   0  0  0  0  0  0  0  0  0  0  0  0
   11.1782   11.2463    4.8822 N   0  0  0  0  0  0  0  0  0  0  0  0
  1  2  1  0  0  0  0
  1  6  1  0  0  0  0
  2  3  2  0  0  0  0
  3  4  1  0  0  0  0
  4  5  2  0  0  0  0
  4 10  1  0  0  0  0
  5  6  1  0  0  0  0
  5  8  1  0  0  0  0
  6  7  2  0  0  0  0
  8  9  1  0  0  0  0
  9 10  2  0  0  0  0
M  END
>  <CHROM.1>
11.41505001,11.56944183,7.03197873,-0.82606084,1.33706086,-2.19626467

>  <Name>
ligand

>  <RI>
0

>  <Rbt.Current_Directory>
/home/itssahil/PROJECTS/Mol_Feturizer/New_Systems/rnas/2EEW

>  <Rbt.Executable>
rbdock ($Id: //depot/dev/client3/rdock/2013.1/src/exe/rbdock.cxx#4 $)

>  <Rbt.Library>
libRbt.so (2013.1, Build901 2013/11/27)

>  <Rbt.Parameter_File>
/export/apps/rDock/src/rDock_2013.1_src/data/scripts/dock_solv.prm

>  <Rbt.Receptor>
prm/blind_docking_100.prm

>  <SCORE>
-16.1893

>  <SCORE.INTER>
-16.1893

>  <SCORE.INTER.CONST>
1

>  <SCORE.INTER.POLAR>
0

>  <SCORE.INTER.ROT>
0

>  <SCORE.INTER.SOLV>
3.69667

>  <SCORE.INTER.VDW>
-15.6251

>  <SCORE.INTER.norm>
-1.61893

>  <SCORE.INTRA>
0

>  <SCORE.INTRA.DIHEDRAL>
0

>  <SCORE.INTRA.DIHEDRAL.0>
0

>  <SCORE.INTRA.POLAR>
0

>  <SCORE.INTRA.POLAR.0>
0

>  <SCORE.INTRA.REPUL>
0

>  <SCORE.INTRA.REPUL.0>
0

>  <SCORE.INTRA.SOLV>
0

>  <SCORE.INTRA.SOLV.lig_0>
-4.28901

>  <SCORE.INTRA.VDW>
0

>  <SCORE.INTRA.VDW.0>
0

>  <SCORE.INTRA.norm>
0

>  <SCORE.RESTR>
0

>  <SCORE.RESTR.CAVITY>
0

>  <SCORE.RESTR.norm>
0

>  <SCORE.SYSTEM>
0

>  <SCORE.SYSTEM.CONST>
0

>  <SCORE.SYSTEM.DIHEDRAL>
0

>  <SCORE.SYSTEM.SOLV>
0

>  <SCORE.SYSTEM.norm>
0

>  <SCORE.heavy>
10

>  <SCORE.norm>
-1.61893

>  <RMSD>
2.468

$$$$
ligand
 OpenBabel11021811423D
libRbt.so/2013.1/901 2013/11/27
 10 11  0  0  0  0  0  0  0  0999 V2000
   11.7908   10.8848    8.8170 N   0  0  0  0  0  0  0  0  0  0  0  0
   11.8863    9.7328    8.0582 C   0  0  0  0  0  0  0  0  0  0  0  0
   11.6923    9.7337    6.7323 N   0  0  0  0  0  0  0  0  0  0  0  0
   11.3961   10.9619    6.2334 C   0  0  0  0  0  0  0  0  0  0  0  0
   11.2834   12.1511    6.9314 C   0  0  0  0  0  0  0  0  0  0  0  0
   11.4885   12.1648    8.3415 C   0  0  0  0  0  0  0  0  0  0  0  0
   11.4390   13.0997    9.1537 O   0  0  0  0  0  0  0  0  0  0  0  0
   10.9722   13.1433    6.0429 N   0  0  0  0  0  0  0  0  0  0  0  0
   10.9004   12.5578    4.8214 C   0  0  0  0  0  0  0  0  0  0  0  0
   11.1561   11.2134    4.9059 N   0  0  0  0  0  0  0  0  0  0  0  0
  1  2  1  0  0  0  0
  1  6  1  0  0  0  0
  2  3  2  0  0  0  0
  3  4  1  0  0  0  0
  4  5  2  0  0  0  0
  4 10  1  0  0  0  0
  5  6  1  0  0  0  0
  5  8  1  0  0  0  0
  6  7  2  0  0  0  0
  8  9  1  0  0  0  0
  9 10  2  0  0  0  0
M  END
>  <CHROM.1>
11.40180730,11.59132803,7.04578254,-0.79508030,1.34162001,-2.25287601

>  <Name>
ligand

>  <RI>
0

>  <Rbt.Current_Directory>
/home/itssahil/PROJECTS/Mol_Feturizer/New_Systems/rnas/2EEW

>  <Rbt.Executable>
rbdock ($Id: //depot/dev/client3/rdock/2013.1/src/exe/rbdock.cxx#4 $)

>  <Rbt.Library>
libRbt.so (2013.1, Build901 2013/11/27)

>  <Rbt.Parameter_File>
/export/apps/rDock/src/rDock_2013.1_src/data/scripts/dock_solv.prm

>  <Rbt.Receptor>
prm/blind_docking_40.prm

>  <SCORE>
-16.2401

>  <SCORE.INTER>
-16.2401

>  <SCORE.INTER.CONST>
1

>  <SCORE.INTER.POLAR>
0

>  <SCORE.INTER.ROT>
0

>  <SCORE.INTER.SOLV>
3.77929

>  <SCORE.INTER.VDW>
-15.6865

>  <SCORE.INTER.norm>
-1.62401

>  <SCORE.INTRA>
0

>  <SCORE.INTRA.DIHEDRAL>
0

>  <SCORE.INTRA.DIHEDRAL.0>
0

>  <SCORE.INTRA.POLAR>
0

>  <SCORE.INTRA.POLAR.0>
0

>  <SCORE.INTRA.REPUL>
0

>  <SCORE.INTRA.REPUL.0>
0

>  <SCORE.INTRA.SOLV>
0

>  <SCORE.INTRA.SOLV.lig_0>
-4.28901

>  <SCORE.INTRA.VDW>
0

>  <SCORE.INTRA.VDW.0>
0

>  <SCORE.INTRA.norm>
0

>  <SCORE.RESTR>
0

>  <SCORE.RESTR.CAVITY>
0

>  <SCORE.RESTR.norm>
0

>  <SCORE.SYSTEM>
0

>  <SCORE.SYSTEM.CONST>
0

>  <SCORE.SYSTEM.DIHEDRAL>
0

>  <SCORE.SYSTEM.SOLV>
0

>  <SCORE.SYSTEM.norm>
0

>  <SCORE.heavy>
10

>  <SCORE.norm>
-1.62401

>  <RMSD>
2.468

$$$$
ligand
 OpenBabel11021811423D
libRbt.so/2013.1/901 2013/11/27
 10 11  0  0  0  0  0  0  0  0999 V2000
   11.8024   10.8839    8.8106 N   0  0  0  0  0  0  0  0  0  0  0  0
   11.8958    9.7321    8.0514 C   0  0  0  0  0  0  0  0  0  0  0  0
   11.6964    9.7329    6.7263 N   0  0  0  0  0  0  0  0  0  0  0  0
   11.3973   10.9610    6.2287 C   0  0  0  0  0  0  0  0  0  0  0  0
   11.2865   12.1501    6.9272 C   0  0  0  0  0  0  0  0  0  0  0  0
   11.4972   12.1638    8.3365 C   0  0  0  0  0  0  0  0  0  0  0  0
   11.4503   13.0985    9.1490 O   0  0  0  0  0  0  0  0  0  0  0  0
   10.9710   13.1421    6.0400 N   0  0  0  0  0  0  0  0  0  0  0  0
   10.8947   12.5565    4.8188 C   0  0  0  0  0  0  0  0  0  0  0  0
   11.1518   11.2124    4.9022 N   0  0  0  0  0  0  0  0  0  0  0  0
  1  2  1  0  0  0  0
  1  6  1  0  0  0  0
  2  3  2  0  0  0  0
  3  4  1  0  0  0  0
  4  5  2  0  0  0  0
  4 10  1  0  0  0  0
  5  6  1  0  0  0  0
  5  8  1  0  0  0  0
  6  7  2  0  0  0  0
  8  9  1  0  0  0  0
  9 10  2  0  0  0  0
M  END
>  <CHROM.1>
11.40578204,11.59031936,7.04105589,-0.78367461,1.33850224,-2.26389533

>  <Name>
ligand

>  <RI>
0

>  <Rbt.Current_Directory>
/home/itssahil/PROJECTS/Mol_Feturizer/New_Systems/rnas/2EEW

>  <Rbt.Executable>
rbdock ($Id: //depot/dev/client3/rdock/2013.1/src/exe/rbdock.cxx#4 $)

>  <Rbt.Library>
libRbt.so (2013.1, Build901 2013/11/27)

>  <Rbt.Parameter_File>
/export/apps/rDock/src/rDock_2013.1_src/data/scripts/dock_solv.prm

>  <Rbt.Receptor>
prm/blind_docking_60.prm

>  <SCORE>
-16.2392

>  <SCORE.INTER>
-16.2392

>  <SCORE.INTER.CONST>
1

>  <SCORE.INTER.POLAR>
0

>  <SCORE.INTER.ROT>
0

>  <SCORE.INTER.SOLV>
3.77384

>  <SCORE.INTER.VDW>
-15.6841

>  <SCORE.INTER.norm>
-1.62392

>  <SCORE.INTRA>
0

>  <SCORE.INTRA.DIHEDRAL>
0

>  <SCORE.INTRA.DIHEDRAL.0>
0

>  <SCORE.INTRA.POLAR>
0

>  <SCORE.INTRA.POLAR.0>
0

>  <SCORE.INTRA.REPUL>
0

>  <SCORE.INTRA.REPUL.0>
0

>  <SCORE.INTRA.SOLV>
0

>  <SCORE.INTRA.SOLV.lig_0>
-4.28901

>  <SCORE.INTRA.VDW>
0

>  <SCORE.INTRA.VDW.0>
0

>  <SCORE.INTRA.norm>
0

>  <SCORE.RESTR>
0

>  <SCORE.RESTR.CAVITY>
0

>  <SCORE.RESTR.norm>
0

>  <SCORE.SYSTEM>
0

>  <SCORE.SYSTEM.CONST>
0

>  <SCORE.SYSTEM.DIHEDRAL>
0

>  <SCORE.SYSTEM.SOLV>
0

>  <SCORE.SYSTEM.norm>
0

>  <SCORE.heavy>
10

>  <SCORE.norm>
-1.62392

>  <RMSD>
2.468

$$$$
ligand
 OpenBabel11021811423D
libRbt.so/2013.1/901 2013/11/27
 10 11  0  0  0  0  0  0  0  0999 V2000
   11.7406   11.0962    9.4163 N   0  0  0  0  0  0  0  0  0  0  0  0
   11.7502   10.0341    8.5310 C   0  0  0  0  0  0  0  0  0  0  0  0
   11.5906   10.2038    7.2114 N   0  0  0  0  0  0  0  0  0  0  0  0
   11.4201   11.5029    6.8534 C   0  0  0  0  0  0  0  0  0  0  0  0
   11.3983   12.6104    7.6824 C   0  0  0  0  0  0  0  0  0  0  0  0
   11.5680   12.4446    9.0875 C   0  0  0  0  0  0  0  0  0  0  0  0
   11.5832   13.2815   10.0015 O   0  0  0  0  0  0  0  0  0  0  0  0
   11.2011   13.7218    6.9100 N   0  0  0  0  0  0  0  0  0  0  0  0
   11.1073   13.2882    5.6281 C   0  0  0  0  0  0  0  0  0  0  0  0
   11.2375   11.9250    5.5605 N   0  0  0  0  0  0  0  0  0  0  0  0
  1  2  1  0  0  0  0
  1  6  1  0  0  0  0
  2  3  2  0  0  0  0
  3  4  1  0  0  0  0
  4  5  2  0  0  0  0
  4 10  1  0  0  0  0
  5  6  1  0  0  0  0
  5  8  1  0  0  0  0
  6  7  2  0  0  0  0
  8  9  1  0  0  0  0
  9 10  2  0  0  0  0
M  END
>  <CHROM.1>
11.46237960,12.03264601,7.73306644,-0.53567941,1.42345325,-2.39283827

>  <Name>
ligand

>  <RI>
0

>  <Rbt.Current_Directory>
/home/itssahil/PROJECTS/Mol_Feturizer/New_Systems/rnas/2EEW

>  <Rbt.Executable>
rbdock ($Id: //depot/dev/client3/rdock/2013.1/src/exe/rbdock.cxx#4 $)

>  <Rbt.Library>
libRbt.so (2013.1, Build901 2013/11/27)

>  <Rbt.Parameter_File>
/export/apps/rDock/src/rDock_2013.1_src/data/scripts/dock_solv.prm

>  <Rbt.Receptor>
prm/pocket_docking_8.prm

>  <SCORE>
-16.1803

>  <SCORE.INTER>
-16.1803

>  <SCORE.INTER.CONST>
1

>  <SCORE.INTER.POLAR>
0

>  <SCORE.INTER.ROT>
0

>  <SCORE.INTER.SOLV>
4.32127

>  <SCORE.INTER.VDW>
-15.8273

>  <SCORE.INTER.norm>
-1.61803

>  <SCORE.INTRA>
0

>  <SCORE.INTRA.DIHEDRAL>
0

>  <SCORE.INTRA.DIHEDRAL.0>
0

>  <SCORE.INTRA.POLAR>
0

>  <SCORE.INTRA.POLAR.0>
0

>  <SCORE.INTRA.REPUL>
0

>  <SCORE.INTRA.REPUL.0>
0

>  <SCORE.INTRA.SOLV>
0

>  <SCORE.INTRA.SOLV.lig_0>
-4.28901

>  <SCORE.INTRA.VDW>
0

>  <SCORE.INTRA.VDW.0>
0

>  <SCORE.INTRA.norm>
0

>  <SCORE.RESTR>
0

>  <SCORE.RESTR.CAVITY>
0

>  <SCORE.RESTR.norm>
0

>  <SCORE.SYSTEM>
0

>  <SCORE.SYSTEM.CONST>
0

>  <SCORE.SYSTEM.DIHEDRAL>
0

>  <SCORE.SYSTEM.SOLV>
0

>  <SCORE.SYSTEM.norm>
0

>  <SCORE.heavy>
10

>  <SCORE.norm>
-1.61803

>  <RMSD>
2.469

$$$$
ligand
 OpenBabel11021811423D
libRbt.so/2013.1/901 2013/11/27
 10 11  0  0  0  0  0  0  0  0999 V2000
   11.7857   10.8869    8.8114 N   0  0  0  0  0  0  0  0  0  0  0  0
   11.8834    9.7347    8.0533 C   0  0  0  0  0  0  0  0  0  0  0  0
   11.6899    9.7345    6.7274 N   0  0  0  0  0  0  0  0  0  0  0  0
   11.3919   10.9619    6.2277 C   0  0  0  0  0  0  0  0  0  0  0  0
   11.2769   12.1513    6.9249 C   0  0  0  0  0  0  0  0  0  0  0  0
   11.4814   12.1662    8.3352 C   0  0  0  0  0  0  0  0  0  0  0  0
   11.4301   13.1014    9.1468 O   0  0  0  0  0  0  0  0  0  0  0  0
   10.9644   13.1425    6.0357 N   0  0  0  0  0  0  0  0  0  0  0  0
   10.8940   12.5561    4.8146 C   0  0  0  0  0  0  0  0  0  0  0  0
   11.1519   11.2122    4.8999 N   0  0  0  0  0  0  0  0  0  0  0  0
  1  2  1  0  0  0  0
  1  6  1  0  0  0  0
  2  3  2  0  0  0  0
  3  4  1  0  0  0  0
  4  5  2  0  0  0  0
  4 10  1  0  0  0  0
  5  6  1  0  0  0  0
  5  8  1  0  0  0  0
  6  7  2  0  0  0  0
  8  9  1  0  0  0  0
  9 10  2  0  0  0  0
M  END
>  <CHROM.1>
11.39619328,11.59178519,7.03968108,-0.80099876,1.34057118,-2.24767065

>  <Name>
ligand

>  <RI>
0

>  <Rbt.Current_Directory>
/home/itssahil/PROJECTS/Mol_Feturizer/New_Systems/rnas/2EEW

>  <Rbt.Executable>
rbdock ($Id: //depot/dev/client3/rdock/2013.1/src/exe/rbdock.cxx#4 $)

>  <Rbt.Library>
libRbt.so (2013.1, Build901 2013/11/27)

>  <Rbt.Parameter_File>
/export/apps/rDock/src/rDock_2013.1_src/data/scripts/dock_solv.prm

>  <Rbt.Receptor>
prm/pocket_docking_3.prm

>  <SCORE>
-16.2375

>  <SCORE.INTER>
-16.2389

>  <SCORE.INTER.CONST>
1

>  <SCORE.INTER.POLAR>
0

>  <SCORE.INTER.ROT>
0

>  <SCORE.INTER.SOLV>
3.77808

>  <SCORE.INTER.VDW>
-15.6853

>  <SCORE.INTER.norm>
-1.62389

>  <SCORE.INTRA>
0

>  <SCORE.INTRA.DIHEDRAL>
0

>  <SCORE.INTRA.DIHEDRAL.0>
0

>  <SCORE.INTRA.POLAR>
0

>  <SCORE.INTRA.POLAR.0>
0

>  <SCORE.INTRA.REPUL>
0

>  <SCORE.INTRA.REPUL.0>
0

>  <SCORE.INTRA.SOLV>
0

>  <SCORE.INTRA.SOLV.lig_0>
-4.28901

>  <SCORE.INTRA.VDW>
0

>  <SCORE.INTRA.VDW.0>
0

>  <SCORE.INTRA.norm>
0

>  <SCORE.RESTR>
0.00137661

>  <SCORE.RESTR.CAVITY>
0.00137661

>  <SCORE.RESTR.norm>
0.000137661

>  <SCORE.SYSTEM>
0

>  <SCORE.SYSTEM.CONST>
0

>  <SCORE.SYSTEM.DIHEDRAL>
0

>  <SCORE.SYSTEM.SOLV>
0

>  <SCORE.SYSTEM.norm>
0

>  <SCORE.heavy>
10

>  <SCORE.norm>
-1.62375

>  <RMSD>
2.470

$$$$
ligand
 OpenBabel11021811423D
libRbt.so/2013.1/901 2013/11/27
 10 11  0  0  0  0  0  0  0  0999 V2000
   11.8037   10.8876    8.8030 N   0  0  0  0  0  0  0  0  0  0  0  0
   11.9052    9.7364    8.0440 C   0  0  0  0  0  0  0  0  0  0  0  0
   11.7045    9.7354    6.7191 N   0  0  0  0  0  0  0  0  0  0  0  0
   11.3956   10.9610    6.2215 C   0  0  0  0  0  0  0  0  0  0  0  0
   11.2764   12.1493    6.9198 C   0  0  0  0  0  0  0  0  0  0  0  0
   11.4883   12.1650    8.3290 C   0  0  0  0  0  0  0  0  0  0  0  0
   11.4351   13.0995    9.1412 O   0  0  0  0  0  0  0  0  0  0  0  0
   10.9524   13.1387    6.0327 N   0  0  0  0  0  0  0  0  0  0  0  0
   10.8795   12.5524    4.8118 C   0  0  0  0  0  0  0  0  0  0  0  0
   11.1469   11.2102    4.8952 N   0  0  0  0  0  0  0  0  0  0  0  0
  1  2  1  0  0  0  0
  1  6  1  0  0  0  0
  2  3  2  0  0  0  0
  3  4  1  0  0  0  0
  4  5  2  0  0  0  0
  4 10  1  0  0  0  0
  5  6  1  0  0  0  0
  5  8  1  0  0  0  0
  6  7  2  0  0  0  0
  8  9  1  0  0  0  0
  9 10  2  0  0  0  0
M  END
>  <CHROM.1>
11.40005107,11.59056514,7.03372709,-0.80109860,1.33198137,-2.24717353

>  <Name>
ligand

>  <RI>
0

>  <Rbt.Current_Directory>
/home/itssahil/PROJECTS/Mol_Feturizer/New_Systems/rnas/2EEW

>  <Rbt.Executable>
rbdock ($Id: //depot/dev/client3/rdock/2013.1/src/exe/rbdock.cxx#4 $)

>  <Rbt.Library>
libRbt.so (2013.1, Build901 2013/11/27)

>  <Rbt.Parameter_File>
/export/apps/rDock/src/rDock_2013.1_src/data/scripts/dock_solv.prm

>  <Rbt.Receptor>
prm/pocket_docking_6.prm

>  <SCORE>
-16.2367

>  <SCORE.INTER>
-16.2367

>  <SCORE.INTER.CONST>
1

>  <SCORE.INTER.POLAR>
0

>  <SCORE.INTER.ROT>
0

>  <SCORE.INTER.SOLV>
3.76081

>  <SCORE.INTER.VDW>
-15.6781

>  <SCORE.INTER.norm>
-1.62367

>  <SCORE.INTRA>
0

>  <SCORE.INTRA.DIHEDRAL>
0

>  <SCORE.INTRA.DIHEDRAL.0>
0

>  <SCORE.INTRA.POLAR>
0

>  <SCORE.INTRA.POLAR.0>
0

>  <SCORE.INTRA.REPUL>
0

>  <SCORE.INTRA.REPUL.0>
0

>  <SCORE.INTRA.SOLV>
0

>  <SCORE.INTRA.SOLV.lig_0>
-4.28901

>  <SCORE.INTRA.VDW>
0

>  <SCORE.INTRA.VDW.0>
0

>  <SCORE.INTRA.norm>
0

>  <SCORE.RESTR>
0

>  <SCORE.RESTR.CAVITY>
0

>  <SCORE.RESTR.norm>
0

>  <SCORE.SYSTEM>
0

>  <SCORE.SYSTEM.CONST>
0

>  <SCORE.SYSTEM.DIHEDRAL>
0

>  <SCORE.SYSTEM.SOLV>
0

>  <SCORE.SYSTEM.norm>
0

>  <SCORE.heavy>
10

>  <SCORE.norm>
-1.62367

>  <RMSD>
2.470

$$$$
ligand
 OpenBabel11021811423D
libRbt.so/2013.1/901 2013/11/27
 10 11  0  0  0  0  0  0  0  0999 V2000
   11.8171   10.8365    8.7695 N   0  0  0  0  0  0  0  0  0  0  0  0
   11.8909    9.6946    7.9933 C   0  0  0  0  0  0  0  0  0  0  0  0
   11.6742    9.7155    6.6711 N   0  0  0  0  0  0  0  0  0  0  0  0
   11.3788   10.9527    6.1945 C   0  0  0  0  0  0  0  0  0  0  0  0
   11.2871   12.1328    6.9107 C   0  0  0  0  0  0  0  0  0  0  0  0
   11.5164   12.1253    8.3172 C   0  0  0  0  0  0  0  0  0  0  0  0
   11.4880   13.0490    9.1430 O   0  0  0  0  0  0  0  0  0  0  0  0
   10.9682   13.1396    6.0416 N   0  0  0  0  0  0  0  0  0  0  0  0
   10.8711   12.5718    4.8135 C   0  0  0  0  0  0  0  0  0  0  0  0
   11.1180   11.2245    4.8749 N   0  0  0  0  0  0  0  0  0  0  0  0
  1  2  1  0  0  0  0
  1  6  1  0  0  0  0
  2  3  2  0  0  0  0
  3  4  1  0  0  0  0
  4  5  2  0  0  0  0
  4 10  1  0  0  0  0
  5  6  1  0  0  0  0
  5  8  1  0  0  0  0
  6  7  2  0  0  0  0
  8  9  1  0  0  0  0
  9 10  2  0  0  0  0
M  END
>  <CHROM.1>
11.40321517,11.57060948,7.01529356,-0.71727524,1.33601791,-2.31465222

>  <Name>
ligand

>  <RI>
0

>  <Rbt.Current_Directory>
/home/itssahil/PROJECTS/Mol_Feturizer/New_Systems/rnas/2EEW

>  <Rbt.Executable>
rbdock ($Id: //depot/dev/client3/rdock/2013.1/src/exe/rbdock.cxx#4 $)

>  <Rbt.Library>
libRbt.so (2013.1, Build901 2013/11/27)

>  <Rbt.Parameter_File>
/export/apps/rDock/src/rDock_2013.1_src/data/scripts/dock_solv.prm

>  <Rbt.Receptor>
prm/pocket_docking_8.prm

>  <SCORE>
-16.2035

>  <SCORE.INTER>
-16.2035

>  <SCORE.INTER.CONST>
1

>  <SCORE.INTER.POLAR>
0

>  <SCORE.INTER.ROT>
0

>  <SCORE.INTER.SOLV>
3.72923

>  <SCORE.INTER.VDW>
-15.6454

>  <SCORE.INTER.norm>
-1.62035

>  <SCORE.INTRA>
0

>  <SCORE.INTRA.DIHEDRAL>
0

>  <SCORE.INTRA.DIHEDRAL.0>
0

>  <SCORE.INTRA.POLAR>
0

>  <SCORE.INTRA.POLAR.0>
0

>  <SCORE.INTRA.REPUL>
0

>  <SCORE.INTRA.REPUL.0>
0

>  <SCORE.INTRA.SOLV>
0

>  <SCORE.INTRA.SOLV.lig_0>
-4.28901

>  <SCORE.INTRA.VDW>
0

>  <SCORE.INTRA.VDW.0>
0

>  <SCORE.INTRA.norm>
0

>  <SCORE.RESTR>
0

>  <SCORE.RESTR.CAVITY>
0

>  <SCORE.RESTR.norm>
0

>  <SCORE.SYSTEM>
0

>  <SCORE.SYSTEM.CONST>
0

>  <SCORE.SYSTEM.DIHEDRAL>
0

>  <SCORE.SYSTEM.SOLV>
0

>  <SCORE.SYSTEM.norm>
0

>  <SCORE.heavy>
10

>  <SCORE.norm>
-1.62035

>  <RMSD>
2.471

$$$$
ligand
 OpenBabel11021811423D
libRbt.so/2013.1/901 2013/11/27
 10 11  0  0  0  0  0  0  0  0999 V2000
   11.7485   10.8278    8.7710 N   0  0  0  0  0  0  0  0  0  0  0  0
   11.9132    9.7018    7.9856 C   0  0  0  0  0  0  0  0  0  0  0  0
   11.7499    9.7293    6.6559 N   0  0  0  0  0  0  0  0  0  0  0  0
   11.4104   10.9560    6.1815 C   0  0  0  0  0  0  0  0  0  0  0  0
   11.2283   12.1201    6.9066 C   0  0  0  0  0  0  0  0  0  0  0  0
   11.3999   12.1054    8.3212 C   0  0  0  0  0  0  0  0  0  0  0  0
   11.2898   13.0152    9.1556 O   0  0  0  0  0  0  0  0  0  0  0  0
   10.8933   13.1208    6.0365 N   0  0  0  0  0  0  0  0  0  0  0  0
   10.8761   12.5653    4.7991 C   0  0  0  0  0  0  0  0  0  0  0  0
   11.1900   11.2318    4.8554 N   0  0  0  0  0  0  0  0  0  0  0  0
  1  2  1  0  0  0  0
  1  6  1  0  0  0  0
  2  3  2  0  0  0  0
  3  4  1  0  0  0  0
  4  5  2  0  0  0  0
  4 10  1  0  0  0  0
  5  6  1  0  0  0  0
  5  8  1  0  0  0  0
  6  7  2  0  0  0  0
  8  9  1  0  0  0  0
  9 10  2  0  0  0  0
M  END
>  <CHROM.1>
11.36907168,11.56325074,7.00954386,-0.98044734,1.31705811,-2.04675867

>  <Name>
ligand

>  <RI>
0

>  <Rbt.Current_Directory>
/home/itssahil/PROJECTS/Mol_Feturizer/New_Systems/rnas/2EEW

>  <Rbt.Executable>
rbdock ($Id: //depot/dev/client3/rdock/2013.1/src/exe/rbdock.cxx#4 $)

>  <Rbt.Library>
libRbt.so (2013.1, Build901 2013/11/27)

>  <Rbt.Parameter_File>
/export/apps/rDock/src/rDock_2013.1_src/data/scripts/dock_solv.prm

>  <Rbt.Receptor>
prm/blind_docking_80.prm

>  <SCORE>
-16.1335

>  <SCORE.INTER>
-16.1335

>  <SCORE.INTER.CONST>
1

>  <SCORE.INTER.POLAR>
0

>  <SCORE.INTER.ROT>
0

>  <SCORE.INTER.SOLV>
3.64268

>  <SCORE.INTER.VDW>
-15.5699

>  <SCORE.INTER.norm>
-1.61335

>  <SCORE.INTRA>
0

>  <SCORE.INTRA.DIHEDRAL>
0

>  <SCORE.INTRA.DIHEDRAL.0>
0

>  <SCORE.INTRA.POLAR>
0

>  <SCORE.INTRA.POLAR.0>
0

>  <SCORE.INTRA.REPUL>
0

>  <SCORE.INTRA.REPUL.0>
0

>  <SCORE.INTRA.SOLV>
0

>  <SCORE.INTRA.SOLV.lig_0>
-4.28901

>  <SCORE.INTRA.VDW>
0

>  <SCORE.INTRA.VDW.0>
0

>  <SCORE.INTRA.norm>
0

>  <SCORE.RESTR>
0

>  <SCORE.RESTR.CAVITY>
0

>  <SCORE.RESTR.norm>
0

>  <SCORE.SYSTEM>
0

>  <SCORE.SYSTEM.CONST>
0

>  <SCORE.SYSTEM.DIHEDRAL>
0

>  <SCORE.SYSTEM.SOLV>
0

>  <SCORE.SYSTEM.norm>
0

>  <SCORE.heavy>
10

>  <SCORE.norm>
-1.61335

>  <RMSD>
2.478

$$$$
ligand
 OpenBabel11021811423D
libRbt.so/2013.1/901 2013/11/27
 10 11  0  0  0  0  0  0  0  0999 V2000
   11.7738   11.1764    8.5415 N   0  0  0  0  0  0  0  0  0  0  0  0
   11.8563    9.9375    7.9330 C   0  0  0  0  0  0  0  0  0  0  0  0
   11.6407    9.7713    6.6209 N   0  0  0  0  0  0  0  0  0  0  0  0
   11.3374   10.9274    5.9756 C   0  0  0  0  0  0  0  0  0  0  0  0
   11.2368   12.1957    6.5193 C   0  0  0  0  0  0  0  0  0  0  0  0
   11.4647   12.3869    7.9130 C   0  0  0  0  0  0  0  0  0  0  0  0
   11.4292   13.4170    8.6012 O   0  0  0  0  0  0  0  0  0  0  0  0
   10.9120   13.0684    5.5176 N   0  0  0  0  0  0  0  0  0  0  0  0
   10.8200   12.3334    4.3813 C   0  0  0  0  0  0  0  0  0  0  0  0
   11.0760   11.0098    4.6309 N   0  0  0  0  0  0  0  0  0  0  0  0
  1  2  1  0  0  0  0
  1  6  1  0  0  0  0
  2  3  2  0  0  0  0
  3  4  1  0  0  0  0
  4  5  2  0  0  0  0
  4 10  1  0  0  0  0
  5  6  1  0  0  0  0
  5  8  1  0  0  0  0
  6  7  2  0  0  0  0
  8  9  1  0  0  0  0
  9 10  2  0  0  0  0
M  END
>  <CHROM.1>
11.35669574,11.65446295,6.70165887,-0.74007700,1.33160150,-2.43311235

>  <Name>
ligand

>  <RI>
0

>  <Rbt.Current_Directory>
/home/itssahil/PROJECTS/Mol_Feturizer/New_Systems/rnas/2EEW

>  <Rbt.Executable>
rbdock ($Id: //depot/dev/client3/rdock/2013.1/src/exe/rbdock.cxx#4 $)

>  <Rbt.Library>
libRbt.so (2013.1, Build901 2013/11/27)

>  <Rbt.Parameter_File>
/export/apps/rDock/src/rDock_2013.1_src/data/scripts/dock_solv.prm

>  <Rbt.Receptor>
prm/blind_docking_60.prm

>  <SCORE>
-16.1544

>  <SCORE.INTER>
-16.1544

>  <SCORE.INTER.CONST>
1

>  <SCORE.INTER.POLAR>
0

>  <SCORE.INTER.ROT>
0

>  <SCORE.INTER.SOLV>
4.09516

>  <SCORE.INTER.VDW>
-15.7346

>  <SCORE.INTER.norm>
-1.61544

>  <SCORE.INTRA>
0

>  <SCORE.INTRA.DIHEDRAL>
0

>  <SCORE.INTRA.DIHEDRAL.0>
0

>  <SCORE.INTRA.POLAR>
0

>  <SCORE.INTRA.POLAR.0>
0

>  <SCORE.INTRA.REPUL>
0

>  <SCORE.INTRA.REPUL.0>
0

>  <SCORE.INTRA.SOLV>
0

>  <SCORE.INTRA.SOLV.lig_0>
-4.28901

>  <SCORE.INTRA.VDW>
0

>  <SCORE.INTRA.VDW.0>
0

>  <SCORE.INTRA.norm>
0

>  <SCORE.RESTR>
0

>  <SCORE.RESTR.CAVITY>
0

>  <SCORE.RESTR.norm>
0

>  <SCORE.SYSTEM>
0

>  <SCORE.SYSTEM.CONST>
0

>  <SCORE.SYSTEM.DIHEDRAL>
0

>  <SCORE.SYSTEM.SOLV>
0

>  <SCORE.SYSTEM.norm>
0

>  <SCORE.heavy>
10

>  <SCORE.norm>
-1.61544

>  <RMSD>
2.571

$$$$
ligand
 OpenBabel11021811423D
libRbt.so/2013.1/901 2013/11/27
 10 11  0  0  0  0  0  0  0  0999 V2000
   11.5782   11.0159    8.4488 N   0  0  0  0  0  0  0  0  0  0  0  0
   11.8004    9.8114    7.8072 C   0  0  0  0  0  0  0  0  0  0  0  0
   11.6760    9.6765    6.4798 N   0  0  0  0  0  0  0  0  0  0  0  0
   11.3135   10.8266    5.8545 C   0  0  0  0  0  0  0  0  0  0  0  0
   11.0744   12.0612    6.4313 C   0  0  0  0  0  0  0  0  0  0  0  0
   11.2044   12.2191    7.8416 C   0  0  0  0  0  0  0  0  0  0  0  0
   11.0418   13.2166    8.5589 O   0  0  0  0  0  0  0  0  0  0  0  0
   10.7351   12.9405    5.4401 N   0  0  0  0  0  0  0  0  0  0  0  0
   10.7717   12.2428    4.2774 C   0  0  0  0  0  0  0  0  0  0  0  0
   11.1243   10.9366    4.4997 N   0  0  0  0  0  0  0  0  0  0  0  0
  1  2  1  0  0  0  0
  1  6  1  0  0  0  0
  2  3  2  0  0  0  0
  3  4  1  0  0  0  0
  4  5  2  0  0  0  0
  4 10  1  0  0  0  0
  5  6  1  0  0  0  0
  5  8  1  0  0  0  0
  6  7  2  0  0  0  0
  8  9  1  0  0  0  0
  9 10  2  0  0  0  0
M  END
>  <CHROM.1>
11.22904242,11.52543257,6.60320447,-1.13230671,1.30060131,-2.01867845

>  <Name>
ligand

>  <RI>
0

>  <Rbt.Current_Directory>
/home/itssahil/PROJECTS/Mol_Feturizer/New_Systems/rnas/2EEW

>  <Rbt.Executable>
rbdock ($Id: //depot/dev/client3/rdock/2013.1/src/exe/rbdock.cxx#4 $)

>  <Rbt.Library>
libRbt.so (2013.1, Build901 2013/11/27)

>  <Rbt.Parameter_File>
/export/apps/rDock/src/rDock_2013.1_src/data/scripts/dock_solv.prm

>  <Rbt.Receptor>
prm/blind_docking_20.prm

>  <SCORE>
-15.6643

>  <SCORE.INTER>
-15.6643

>  <SCORE.INTER.CONST>
1

>  <SCORE.INTER.POLAR>
0

>  <SCORE.INTER.ROT>
0

>  <SCORE.INTER.SOLV>
3.85216

>  <SCORE.INTER.VDW>
-15.3269

>  <SCORE.INTER.norm>
-1.56643

>  <SCORE.INTRA>
0

>  <SCORE.INTRA.DIHEDRAL>
0

>  <SCORE.INTRA.DIHEDRAL.0>
0

>  <SCORE.INTRA.POLAR>
0

>  <SCORE.INTRA.POLAR.0>
0

>  <SCORE.INTRA.REPUL>
0

>  <SCORE.INTRA.REPUL.0>
0

>  <SCORE.INTRA.SOLV>
0

>  <SCORE.INTRA.SOLV.lig_0>
-4.28901

>  <SCORE.INTRA.VDW>
0

>  <SCORE.INTRA.VDW.0>
0

>  <SCORE.INTRA.norm>
0

>  <SCORE.RESTR>
0

>  <SCORE.RESTR.CAVITY>
0

>  <SCORE.RESTR.norm>
0

>  <SCORE.SYSTEM>
0

>  <SCORE.SYSTEM.CONST>
0

>  <SCORE.SYSTEM.DIHEDRAL>
0

>  <SCORE.SYSTEM.SOLV>
0

>  <SCORE.SYSTEM.norm>
0

>  <SCORE.heavy>
10

>  <SCORE.norm>
-1.56643

>  <RMSD>
2.620

$$$$
ligand
 OpenBabel11021811423D
libRbt.so/2013.1/901 2013/11/27
 10 11  0  0  0  0  0  0  0  0999 V2000
   11.6000    9.9520    6.4555 N   0  0  0  0  0  0  0  0  0  0  0  0
   11.4165   11.0932    5.6966 C   0  0  0  0  0  0  0  0  0  0  0  0
   11.3373   12.3118    6.2483 N   0  0  0  0  0  0  0  0  0  0  0  0
   11.4520   12.2974    7.6017 C   0  0  0  0  0  0  0  0  0  0  0  0
   11.6348   11.1977    8.4211 C   0  0  0  0  0  0  0  0  0  0  0  0
   11.7220    9.8960    7.8476 C   0  0  0  0  0  0  0  0  0  0  0  0
   11.8821    8.7893    8.3820 O   0  0  0  0  0  0  0  0  0  0  0  0
   11.6975   11.6323    9.7165 N   0  0  0  0  0  0  0  0  0  0  0  0
   11.5560   12.9808    9.6774 C   0  0  0  0  0  0  0  0  0  0  0  0
   11.4020   13.4209    8.3880 N   0  0  0  0  0  0  0  0  0  0  0  0
  1  2  1  0  0  0  0
  1  6  1  0  0  0  0
  2  3  2  0  0  0  0
  3  4  1  0  0  0  0
  4  5  2  0  0  0  0
  4 10  1  0  0  0  0
  5  6  1  0  0  0  0
  5  8  1  0  0  0  0
  6  7  2  0  0  0  0
  8  9  1  0  0  0  0
  9 10  2  0  0  0  0
M  END
>  <CHROM.1>
11.57577183,11.30811930,7.85119710,1.18148442,1.43813776,-2.25048823

>  <Name>
ligand

>  <RI>
0

>  <Rbt.Current_Directory>
/home/itssahil/PROJECTS/Mol_Feturizer/New_Systems/rnas/2EEW

>  <Rbt.Executable>
rbdock ($Id: //depot/dev/client3/rdock/2013.1/src/exe/rbdock.cxx#4 $)

>  <Rbt.Library>
libRbt.so (2013.1, Build901 2013/11/27)

>  <Rbt.Parameter_File>
/export/apps/rDock/src/rDock_2013.1_src/data/scripts/dock_solv.prm

>  <Rbt.Receptor>
prm/blind_docking_40.prm

>  <SCORE>
-15.5117

>  <SCORE.INTER>
-15.5117

>  <SCORE.INTER.CONST>
1

>  <SCORE.INTER.POLAR>
0

>  <SCORE.INTER.ROT>
0

>  <SCORE.INTER.SOLV>
4.18322

>  <SCORE.INTER.VDW>
-15.3356

>  <SCORE.INTER.norm>
-1.55117

>  <SCORE.INTRA>
0

>  <SCORE.INTRA.DIHEDRAL>
0

>  <SCORE.INTRA.DIHEDRAL.0>
0

>  <SCORE.INTRA.POLAR>
0

>  <SCORE.INTRA.POLAR.0>
0

>  <SCORE.INTRA.REPUL>
0

>  <SCORE.INTRA.REPUL.0>
0

>  <SCORE.INTRA.SOLV>
0

>  <SCORE.INTRA.SOLV.lig_0>
-4.28901

>  <SCORE.INTRA.VDW>
0

>  <SCORE.INTRA.VDW.0>
0

>  <SCORE.INTRA.norm>
0

>  <SCORE.RESTR>
0

>  <SCORE.RESTR.CAVITY>
0

>  <SCORE.RESTR.norm>
0

>  <SCORE.SYSTEM>
0

>  <SCORE.SYSTEM.CONST>
0

>  <SCORE.SYSTEM.DIHEDRAL>
0

>  <SCORE.SYSTEM.SOLV>
0

>  <SCORE.SYSTEM.norm>
0

>  <SCORE.heavy>
10

>  <SCORE.norm>
-1.55117

>  <RMSD>
2.780

$$$$
ligand
 OpenBabel11021811423D
libRbt.so/2013.1/901 2013/11/27
 10 11  0  0  0  0  0  0  0  0999 V2000
   11.4727   10.6479    5.7244 N   0  0  0  0  0  0  0  0  0  0  0  0
   11.1646   11.9437    5.3531 C   0  0  0  0  0  0  0  0  0  0  0  0
   11.0955   12.9434    6.2427 N   0  0  0  0  0  0  0  0  0  0  0  0
   11.3528   12.5479    7.5165 C   0  0  0  0  0  0  0  0  0  0  0  0
   11.6649   11.2742    7.9576 C   0  0  0  0  0  0  0  0  0  0  0  0
   11.7431   10.2021    7.0221 C   0  0  0  0  0  0  0  0  0  0  0  0
   12.0028    9.0022    7.1919 O   0  0  0  0  0  0  0  0  0  0  0  0
   11.8465   11.3208    9.3124 N   0  0  0  0  0  0  0  0  0  0  0  0
   11.6479   12.6104    9.6834 C   0  0  0  0  0  0  0  0  0  0  0  0
   11.3412   13.3913    8.5989 N   0  0  0  0  0  0  0  0  0  0  0  0
  1  2  1  0  0  0  0
  1  6  1  0  0  0  0
  2  3  2  0  0  0  0
  3  4  1  0  0  0  0
  4  5  2  0  0  0  0
  4 10  1  0  0  0  0
  5  6  1  0  0  0  0
  5  8  1  0  0  0  0
  6  7  2  0  0  0  0
  8  9  1  0  0  0  0
  9 10  2  0  0  0  0
M  END
>  <CHROM.1>
11.54170375,11.53974454,7.45274896,1.42626212,1.33356610,-2.19564821

>  <Name>
ligand

>  <RI>
0

>  <Rbt.Current_Directory>
/home/itssahil/PROJECTS/Mol_Feturizer/New_Systems/rnas/2EEW

>  <Rbt.Executable>
rbdock ($Id: //depot/dev/client3/rdock/2013.1/src/exe/rbdock.cxx#4 $)

>  <Rbt.Library>
libRbt.so (2013.1, Build901 2013/11/27)

>  <Rbt.Parameter_File>
/export/apps/rDock/src/rDock_2013.1_src/data/scripts/dock_solv.prm

>  <Rbt.Receptor>
prm/blind_docking_100.prm

>  <SCORE>
-15.6561

>  <SCORE.INTER>
-15.6561

>  <SCORE.INTER.CONST>
1

>  <SCORE.INTER.POLAR>
0

>  <SCORE.INTER.ROT>
0

>  <SCORE.INTER.SOLV>
3.40878

>  <SCORE.INTER.VDW>
-15.1737

>  <SCORE.INTER.norm>
-1.56561

>  <SCORE.INTRA>
0

>  <SCORE.INTRA.DIHEDRAL>
0

>  <SCORE.INTRA.DIHEDRAL.0>
0

>  <SCORE.INTRA.POLAR>
0

>  <SCORE.INTRA.POLAR.0>
0

>  <SCORE.INTRA.REPUL>
0

>  <SCORE.INTRA.REPUL.0>
0

>  <SCORE.INTRA.SOLV>
0

>  <SCORE.INTRA.SOLV.lig_0>
-4.28901

>  <SCORE.INTRA.VDW>
0

>  <SCORE.INTRA.VDW.0>
0

>  <SCORE.INTRA.norm>
0

>  <SCORE.RESTR>
0

>  <SCORE.RESTR.CAVITY>
0

>  <SCORE.RESTR.norm>
0

>  <SCORE.SYSTEM>
0

>  <SCORE.SYSTEM.CONST>
0

>  <SCORE.SYSTEM.DIHEDRAL>
0

>  <SCORE.SYSTEM.SOLV>
0

>  <SCORE.SYSTEM.norm>
0

>  <SCORE.heavy>
10

>  <SCORE.norm>
-1.56561

>  <RMSD>
2.828

$$$$
ligand
 OpenBabel11021811423D
libRbt.so/2013.1/901 2013/11/27
 10 11  0  0  0  0  0  0  0  0999 V2000
   11.4812   10.6537    5.7165 N   0  0  0  0  0  0  0  0  0  0  0  0
   11.1491   11.9458    5.3533 C   0  0  0  0  0  0  0  0  0  0  0  0
   11.0692   12.9402    6.2480 N   0  0  0  0  0  0  0  0  0  0  0  0
   11.3415   12.5433    7.5182 C   0  0  0  0  0  0  0  0  0  0  0  0
   11.6777   11.2730    7.9513 C   0  0  0  0  0  0  0  0  0  0  0  0
   11.7675   10.2065    7.0103 C   0  0  0  0  0  0  0  0  0  0  0  0
   12.0483    9.0104    7.1728 O   0  0  0  0  0  0  0  0  0  0  0  0
   11.8675   11.3165    9.3051 N   0  0  0  0  0  0  0  0  0  0  0  0
   11.6499   12.6008    9.6834 C   0  0  0  0  0  0  0  0  0  0  0  0
   11.3231   13.3814    8.6046 N   0  0  0  0  0  0  0  0  0  0  0  0
  1  2  1  0  0  0  0
  1  6  1  0  0  0  0
  2  3  2  0  0  0  0
  3  4  1  0  0  0  0
  4  5  2  0  0  0  0
  4 10  1  0  0  0  0
  5  6  1  0  0  0  0
  5  8  1  0  0  0  0
  6  7  2  0  0  0  0
  8  9  1  0  0  0  0
  9 10  2  0  0  0  0
M  END
>  <CHROM.1>
11.54672834,11.53870324,7.44853099,1.40893441,1.31613406,-2.17423606

>  <Name>
ligand

>  <RI>
0

>  <Rbt.Current_Directory>
/home/itssahil/PROJECTS/Mol_Feturizer/New_Systems/rnas/2EEW

>  <Rbt.Executable>
rbdock ($Id: //depot/dev/client3/rdock/2013.1/src/exe/rbdock.cxx#4 $)

>  <Rbt.Library>
libRbt.so (2013.1, Build901 2013/11/27)

>  <Rbt.Parameter_File>
/export/apps/rDock/src/rDock_2013.1_src/data/scripts/dock_solv.prm

>  <Rbt.Receptor>
prm/blind_docking_100.prm

>  <SCORE>
-15.5863

>  <SCORE.INTER>
-15.5863

>  <SCORE.INTER.CONST>
1

>  <SCORE.INTER.POLAR>
0

>  <SCORE.INTER.ROT>
0

>  <SCORE.INTER.SOLV>
3.35938

>  <SCORE.INTER.VDW>
-15.1107

>  <SCORE.INTER.norm>
-1.55863

>  <SCORE.INTRA>
0

>  <SCORE.INTRA.DIHEDRAL>
0

>  <SCORE.INTRA.DIHEDRAL.0>
0

>  <SCORE.INTRA.POLAR>
0

>  <SCORE.INTRA.POLAR.0>
0

>  <SCORE.INTRA.REPUL>
0

>  <SCORE.INTRA.REPUL.0>
0

>  <SCORE.INTRA.SOLV>
0

>  <SCORE.INTRA.SOLV.lig_0>
-4.28901

>  <SCORE.INTRA.VDW>
0

>  <SCORE.INTRA.VDW.0>
0

>  <SCORE.INTRA.norm>
0

>  <SCORE.RESTR>
0

>  <SCORE.RESTR.CAVITY>
0

>  <SCORE.RESTR.norm>
0

>  <SCORE.SYSTEM>
0

>  <SCORE.SYSTEM.CONST>
0

>  <SCORE.SYSTEM.DIHEDRAL>
0

>  <SCORE.SYSTEM.SOLV>
0

>  <SCORE.SYSTEM.norm>
0

>  <SCORE.heavy>
10

>  <SCORE.norm>
-1.55863

>  <RMSD>
2.829

$$$$
ligand
 OpenBabel11021811423D
libRbt.so/2013.1/901 2013/11/27
 10 11  0  0  0  0  0  0  0  0999 V2000
   11.4466   10.6389    5.7177 N   0  0  0  0  0  0  0  0  0  0  0  0
   11.1554   11.9398    5.3506 C   0  0  0  0  0  0  0  0  0  0  0  0
   11.1045   12.9385    6.2426 N   0  0  0  0  0  0  0  0  0  0  0  0
   11.3618   12.5366    7.5144 C   0  0  0  0  0  0  0  0  0  0  0  0
   11.6576   11.2577    7.9513 C   0  0  0  0  0  0  0  0  0  0  0  0
   11.7162   10.1865    7.0133 C   0  0  0  0  0  0  0  0  0  0  0  0
   11.9595    8.9826    7.1794 O   0  0  0  0  0  0  0  0  0  0  0  0
   11.8459   11.2987    9.3055 N   0  0  0  0  0  0  0  0  0  0  0  0
   11.6674   12.5902    9.6800 C   0  0  0  0  0  0  0  0  0  0  0  0
   11.3672   13.3778    8.5986 N   0  0  0  0  0  0  0  0  0  0  0  0
  1  2  1  0  0  0  0
  1  6  1  0  0  0  0
  2  3  2  0  0  0  0
  3  4  1  0  0  0  0
  4  5  2  0  0  0  0
  4 10  1  0  0  0  0
  5  6  1  0  0  0  0
  5  8  1  0  0  0  0
  6  7  2  0  0  0  0
  8  9  1  0  0  0  0
  9 10  2  0  0  0  0
M  END
>  <CHROM.1>
11.53598228,11.52598447,7.44765553,1.47918619,1.34227929,-2.24502731

>  <Name>
ligand

>  <RI>
0

>  <Rbt.Current_Directory>
/home/itssahil/PROJECTS/Mol_Feturizer/New_Systems/rnas/2EEW

>  <Rbt.Executable>
rbdock ($Id: //depot/dev/client3/rdock/2013.1/src/exe/rbdock.cxx#4 $)

>  <Rbt.Library>
libRbt.so (2013.1, Build901 2013/11/27)

>  <Rbt.Parameter_File>
/export/apps/rDock/src/rDock_2013.1_src/data/scripts/dock_solv.prm

>  <Rbt.Receptor>
prm/pocket_docking_6.prm

>  <SCORE>
-15.5909

>  <SCORE.INTER>
-15.5909

>  <SCORE.INTER.CONST>
1

>  <SCORE.INTER.POLAR>
0

>  <SCORE.INTER.ROT>
0

>  <SCORE.INTER.SOLV>
3.45919

>  <SCORE.INTER.VDW>
-15.147

>  <SCORE.INTER.norm>
-1.55909

>  <SCORE.INTRA>
0

>  <SCORE.INTRA.DIHEDRAL>
0

>  <SCORE.INTRA.DIHEDRAL.0>
0

>  <SCORE.INTRA.POLAR>
0

>  <SCORE.INTRA.POLAR.0>
0

>  <SCORE.INTRA.REPUL>
0

>  <SCORE.INTRA.REPUL.0>
0

>  <SCORE.INTRA.SOLV>
0

>  <SCORE.INTRA.SOLV.lig_0>
-4.28901

>  <SCORE.INTRA.VDW>
0

>  <SCORE.INTRA.VDW.0>
0

>  <SCORE.INTRA.norm>
0

>  <SCORE.RESTR>
0

>  <SCORE.RESTR.CAVITY>
0

>  <SCORE.RESTR.norm>
0

>  <SCORE.SYSTEM>
0

>  <SCORE.SYSTEM.CONST>
0

>  <SCORE.SYSTEM.DIHEDRAL>
0

>  <SCORE.SYSTEM.SOLV>
0

>  <SCORE.SYSTEM.norm>
0

>  <SCORE.heavy>
10

>  <SCORE.norm>
-1.55909

>  <RMSD>
2.831

$$$$
ligand
 OpenBabel11021811423D
libRbt.so/2013.1/901 2013/11/27
 10 11  0  0  0  0  0  0  0  0999 V2000
   11.4479   10.6556    5.7319 N   0  0  0  0  0  0  0  0  0  0  0  0
   11.1276   11.9531    5.3774 C   0  0  0  0  0  0  0  0  0  0  0  0
   11.0629   12.9434    6.2778 N   0  0  0  0  0  0  0  0  0  0  0  0
   11.3376   12.5369    7.5444 C   0  0  0  0  0  0  0  0  0  0  0  0
   11.6627   11.2608    7.9689 C   0  0  0  0  0  0  0  0  0  0  0  0
   11.7363   10.1985    7.0218 C   0  0  0  0  0  0  0  0  0  0  0  0
   12.0053    8.9987    7.1765 O   0  0  0  0  0  0  0  0  0  0  0  0
   11.8599   11.2950    9.3219 N   0  0  0  0  0  0  0  0  0  0  0  0
   11.6579   12.5795    9.7081 C   0  0  0  0  0  0  0  0  0  0  0  0
   11.3337   13.3693    8.6353 N   0  0  0  0  0  0  0  0  0  0  0  0
  1  2  1  0  0  0  0
  1  6  1  0  0  0  0
  2  3  2  0  0  0  0
  3  4  1  0  0  0  0
  4  5  2  0  0  0  0
  4 10  1  0  0  0  0
  5  6  1  0  0  0  0
  5  8  1  0  0  0  0
  6  7  2  0  0  0  0
  8  9  1  0  0  0  0
  9 10  2  0  0  0  0
M  END
>  <CHROM.1>
11.53185898,11.53058995,7.46826090,1.45060853,1.32165589,-2.20925146

>  <Name>
ligand

>  <RI>
0

>  <Rbt.Current_Directory>
/home/itssahil/PROJECTS/Mol_Feturizer/New_Systems/rnas/2EEW

>  <Rbt.Executable>
rbdock ($Id: //depot/dev/client3/rdock/2013.1/src/exe/rbdock.cxx#4 $)

>  <Rbt.Library>
libRbt.so (2013.1, Build901 2013/11/27)

>  <Rbt.Parameter_File>
/export/apps/rDock/src/rDock_2013.1_src/data/scripts/dock_solv.prm

>  <Rbt.Receptor>
prm/pocket_docking_7.prm

>  <SCORE>
-15.6176

>  <SCORE.INTER>
-15.6176

>  <SCORE.INTER.CONST>
1

>  <SCORE.INTER.POLAR>
0

>  <SCORE.INTER.ROT>
0

>  <SCORE.INTER.SOLV>
3.39667

>  <SCORE.INTER.VDW>
-15.144

>  <SCORE.INTER.norm>
-1.56176

>  <SCORE.INTRA>
0

>  <SCORE.INTRA.DIHEDRAL>
0

>  <SCORE.INTRA.DIHEDRAL.0>
0

>  <SCORE.INTRA.POLAR>
0

>  <SCORE.INTRA.POLAR.0>
0

>  <SCORE.INTRA.REPUL>
0

>  <SCORE.INTRA.REPUL.0>
0

>  <SCORE.INTRA.SOLV>
0

>  <SCORE.INTRA.SOLV.lig_0>
-4.28901

>  <SCORE.INTRA.VDW>
0

>  <SCORE.INTRA.VDW.0>
0

>  <SCORE.INTRA.norm>
0

>  <SCORE.RESTR>
0

>  <SCORE.RESTR.CAVITY>
0

>  <SCORE.RESTR.norm>
0

>  <SCORE.SYSTEM>
0

>  <SCORE.SYSTEM.CONST>
0

>  <SCORE.SYSTEM.DIHEDRAL>
0

>  <SCORE.SYSTEM.SOLV>
0

>  <SCORE.SYSTEM.norm>
0

>  <SCORE.heavy>
10

>  <SCORE.norm>
-1.56176

>  <RMSD>
2.831

$$$$
ligand
 OpenBabel11021811423D
libRbt.so/2013.1/901 2013/11/27
 10 11  0  0  0  0  0  0  0  0999 V2000
   11.4694   10.6793    5.6929 N   0  0  0  0  0  0  0  0  0  0  0  0
   11.1705   11.9811    5.3355 C   0  0  0  0  0  0  0  0  0  0  0  0
   11.1049   12.9711    6.2362 N   0  0  0  0  0  0  0  0  0  0  0  0
   11.3559   12.5596    7.5061 C   0  0  0  0  0  0  0  0  0  0  0  0
   11.6588   11.2791    7.9336 C   0  0  0  0  0  0  0  0  0  0  0  0
   11.7331   10.2171    6.9862 C   0  0  0  0  0  0  0  0  0  0  0  0
   11.9849    9.0138    7.1432 O   0  0  0  0  0  0  0  0  0  0  0  0
   11.8366   11.3092    9.2894 N   0  0  0  0  0  0  0  0  0  0  0  0
   11.6449   12.5957    9.6744 C   0  0  0  0  0  0  0  0  0  0  0  0
   11.3463   13.3908    8.5980 N   0  0  0  0  0  0  0  0  0  0  0  0
  1  2  1  0  0  0  0
  1  6  1  0  0  0  0
  2  3  2  0  0  0  0
  3  4  1  0  0  0  0
  4  5  2  0  0  0  0
  4 10  1  0  0  0  0
  5  6  1  0  0  0  0
  5  8  1  0  0  0  0
  6  7  2  0  0  0  0
  8  9  1  0  0  0  0
  9 10  2  0  0  0  0
M  END
>  <CHROM.1>
11.53873459,11.55108759,7.43147930,1.43143363,1.34036132,-2.18933357

>  <Name>
ligand

>  <RI>
0

>  <Rbt.Current_Directory>
/home/itssahil/PROJECTS/Mol_Feturizer/New_Systems/rnas/2EEW

>  <Rbt.Executable>
rbdock ($Id: //depot/dev/client3/rdock/2013.1/src/exe/rbdock.cxx#4 $)

>  <Rbt.Library>
libRbt.so (2013.1, Build901 2013/11/27)

>  <Rbt.Parameter_File>
/export/apps/rDock/src/rDock_2013.1_src/data/scripts/dock_solv.prm

>  <Rbt.Receptor>
prm/pocket_docking_8.prm

>  <SCORE>
-15.6377

>  <SCORE.INTER>
-15.6377

>  <SCORE.INTER.CONST>
1

>  <SCORE.INTER.POLAR>
0

>  <SCORE.INTER.ROT>
0

>  <SCORE.INTER.SOLV>
3.44885

>  <SCORE.INTER.VDW>
-15.1748

>  <SCORE.INTER.norm>
-1.56377

>  <SCORE.INTRA>
0

>  <SCORE.INTRA.DIHEDRAL>
0

>  <SCORE.INTRA.DIHEDRAL.0>
0

>  <SCORE.INTRA.POLAR>
0

>  <SCORE.INTRA.POLAR.0>
0

>  <SCORE.INTRA.REPUL>
0

>  <SCORE.INTRA.REPUL.0>
0

>  <SCORE.INTRA.SOLV>
0

>  <SCORE.INTRA.SOLV.lig_0>
-4.28901

>  <SCORE.INTRA.VDW>
0

>  <SCORE.INTRA.VDW.0>
0

>  <SCORE.INTRA.norm>
0

>  <SCORE.RESTR>
0

>  <SCORE.RESTR.CAVITY>
0

>  <SCORE.RESTR.norm>
0

>  <SCORE.SYSTEM>
0

>  <SCORE.SYSTEM.CONST>
0

>  <SCORE.SYSTEM.DIHEDRAL>
0

>  <SCORE.SYSTEM.SOLV>
0

>  <SCORE.SYSTEM.norm>
0

>  <SCORE.heavy>
10

>  <SCORE.norm>
-1.56377

>  <RMSD>
2.832

$$$$
ligand
 OpenBabel11021811423D
libRbt.so/2013.1/901 2013/11/27
 10 11  0  0  0  0  0  0  0  0999 V2000
   11.4435   10.6853    5.7115 N   0  0  0  0  0  0  0  0  0  0  0  0
   11.1321   11.9869    5.3640 C   0  0  0  0  0  0  0  0  0  0  0  0
   11.0710   12.9721    6.2703 N   0  0  0  0  0  0  0  0  0  0  0  0
   11.3398   12.5561    7.5351 C   0  0  0  0  0  0  0  0  0  0  0  0
   11.6559   11.2755    7.9527 C   0  0  0  0  0  0  0  0  0  0  0  0
   11.7256   10.2186    6.9993 C   0  0  0  0  0  0  0  0  0  0  0  0
   11.9868    9.0162    7.1473 O   0  0  0  0  0  0  0  0  0  0  0  0
   11.8498   11.3002    9.3064 N   0  0  0  0  0  0  0  0  0  0  0  0
   11.6545   12.5836    9.7000 C   0  0  0  0  0  0  0  0  0  0  0  0
   11.3381   13.3819    8.6311 N   0  0  0  0  0  0  0  0  0  0  0  0
  1  2  1  0  0  0  0
  1  6  1  0  0  0  0
  2  3  2  0  0  0  0
  3  4  1  0  0  0  0
  4  5  2  0  0  0  0
  4 10  1  0  0  0  0
  5  6  1  0  0  0  0
  5  8  1  0  0  0  0
  6  7  2  0  0  0  0
  8  9  1  0  0  0  0
  9 10  2  0  0  0  0
M  END
>  <CHROM.1>
11.52813349,11.54914195,7.45337921,1.45680538,1.32818457,-2.20914811

>  <Name>
ligand

>  <RI>
0

>  <Rbt.Current_Directory>
/home/itssahil/PROJECTS/Mol_Feturizer/New_Systems/rnas/2EEW

>  <Rbt.Executable>
rbdock ($Id: //depot/dev/client3/rdock/2013.1/src/exe/rbdock.cxx#4 $)

>  <Rbt.Library>
libRbt.so (2013.1, Build901 2013/11/27)

>  <Rbt.Parameter_File>
/export/apps/rDock/src/rDock_2013.1_src/data/scripts/dock_solv.prm

>  <Rbt.Receptor>
prm/pocket_docking_7.prm

>  <SCORE>
-15.6395

>  <SCORE.INTER>
-15.6396

>  <SCORE.INTER.CONST>
1

>  <SCORE.INTER.POLAR>
0

>  <SCORE.INTER.ROT>
0

>  <SCORE.INTER.SOLV>
3.43162

>  <SCORE.INTER.VDW>
-15.1703

>  <SCORE.INTER.norm>
-1.56396

>  <SCORE.INTRA>
0

>  <SCORE.INTRA.DIHEDRAL>
0

>  <SCORE.INTRA.DIHEDRAL.0>
0

>  <SCORE.INTRA.POLAR>
0

>  <SCORE.INTRA.POLAR.0>
0

>  <SCORE.INTRA.REPUL>
0

>  <SCORE.INTRA.REPUL.0>
0

>  <SCORE.INTRA.SOLV>
0

>  <SCORE.INTRA.SOLV.lig_0>
-4.28901

>  <SCORE.INTRA.VDW>
0

>  <SCORE.INTRA.VDW.0>
0

>  <SCORE.INTRA.norm>
0

>  <SCORE.RESTR>
0.00015725

>  <SCORE.RESTR.CAVITY>
0.00015725

>  <SCORE.RESTR.norm>
1.5725e-05

>  <SCORE.SYSTEM>
0

>  <SCORE.SYSTEM.CONST>
0

>  <SCORE.SYSTEM.DIHEDRAL>
0

>  <SCORE.SYSTEM.SOLV>
0

>  <SCORE.SYSTEM.norm>
0

>  <SCORE.heavy>
10

>  <SCORE.norm>
-1.56395

>  <RMSD>
2.833

$$$$
ligand
 OpenBabel11021811423D
libRbt.so/2013.1/901 2013/11/27
 10 11  0  0  0  0  0  0  0  0999 V2000
   11.4142   10.7142    5.6694 N   0  0  0  0  0  0  0  0  0  0  0  0
   11.0670   12.0125    5.3443 C   0  0  0  0  0  0  0  0  0  0  0  0
   11.0136   12.9878    6.2617 N   0  0  0  0  0  0  0  0  0  0  0  0
   11.3283   12.5654    7.5138 C   0  0  0  0  0  0  0  0  0  0  0  0
   11.6818   11.2876    7.9091 C   0  0  0  0  0  0  0  0  0  0  0  0
   11.7438   10.2412    6.9436 C   0  0  0  0  0  0  0  0  0  0  0  0
   12.0329    9.0429    7.0719 O   0  0  0  0  0  0  0  0  0  0  0  0
   11.9155   11.3035    9.2566 N   0  0  0  0  0  0  0  0  0  0  0  0
   11.7069   12.5790    9.6685 C   0  0  0  0  0  0  0  0  0  0  0  0
   11.3430   13.3808    8.6175 N   0  0  0  0  0  0  0  0  0  0  0  0
  1  2  1  0  0  0  0
  1  6  1  0  0  0  0
  2  3  2  0  0  0  0
  3  4  1  0  0  0  0
  4  5  2  0  0  0  0
  4 10  1  0  0  0  0
  5  6  1  0  0  0  0
  5  8  1  0  0  0  0
  6  7  2  0  0  0  0
  8  9  1  0  0  0  0
  9 10  2  0  0  0  0
M  END
>  <CHROM.1>
11.53382047,11.56324277,7.41651568,1.50176989,1.29429138,-2.24298924

>  <Name>
ligand

>  <RI>
0

>  <Rbt.Current_Directory>
/home/itssahil/PROJECTS/Mol_Feturizer/New_Systems/rnas/2EEW

>  <Rbt.Executable>
rbdock ($Id: //depot/dev/client3/rdock/2013.1/src/exe/rbdock.cxx#4 $)

>  <Rbt.Library>
libRbt.so (2013.1, Build901 2013/11/27)

>  <Rbt.Parameter_File>
/export/apps/rDock/src/rDock_2013.1_src/data/scripts/dock_solv.prm

>  <Rbt.Receptor>
prm/blind_docking_100.prm

>  <SCORE>
-15.6132

>  <SCORE.INTER>
-15.6132

>  <SCORE.INTER.CONST>
1

>  <SCORE.INTER.POLAR>
0

>  <SCORE.INTER.ROT>
0

>  <SCORE.INTER.SOLV>
3.39117

>  <SCORE.INTER.VDW>
-15.1392

>  <SCORE.INTER.norm>
-1.56132

>  <SCORE.INTRA>
0

>  <SCORE.INTRA.DIHEDRAL>
0

>  <SCORE.INTRA.DIHEDRAL.0>
0

>  <SCORE.INTRA.POLAR>
0

>  <SCORE.INTRA.POLAR.0>
0

>  <SCORE.INTRA.REPUL>
0

>  <SCORE.INTRA.REPUL.0>
0

>  <SCORE.INTRA.SOLV>
0

>  <SCORE.INTRA.SOLV.lig_0>
-4.28901

>  <SCORE.INTRA.VDW>
0

>  <SCORE.INTRA.VDW.0>
0

>  <SCORE.INTRA.norm>
0

>  <SCORE.RESTR>
0

>  <SCORE.RESTR.CAVITY>
0

>  <SCORE.RESTR.norm>
0

>  <SCORE.SYSTEM>
0

>  <SCORE.SYSTEM.CONST>
0

>  <SCORE.SYSTEM.DIHEDRAL>
0

>  <SCORE.SYSTEM.SOLV>
0

>  <SCORE.SYSTEM.norm>
0

>  <SCORE.heavy>
10

>  <SCORE.norm>
-1.56132

>  <RMSD>
2.837

$$$$
ligand
 OpenBabel11021811423D
libRbt.so/2013.1/901 2013/11/27
 10 11  0  0  0  0  0  0  0  0999 V2000
   11.4372   10.6706    5.6886 N   0  0  0  0  0  0  0  0  0  0  0  0
   11.1224   11.9784    5.3685 C   0  0  0  0  0  0  0  0  0  0  0  0
   11.0593   12.9443    6.2951 N   0  0  0  0  0  0  0  0  0  0  0  0
   11.3297   12.5028    7.5509 C   0  0  0  0  0  0  0  0  0  0  0  0
   11.6491   11.2146    7.9415 C   0  0  0  0  0  0  0  0  0  0  0  0
   11.7210   10.1779    6.9664 C   0  0  0  0  0  0  0  0  0  0  0  0
   11.9853    8.9733    7.0892 O   0  0  0  0  0  0  0  0  0  0  0  0
   11.8435   11.2116    9.2954 N   0  0  0  0  0  0  0  0  0  0  0  0
   11.6453   12.4860    9.7157 C   0  0  0  0  0  0  0  0  0  0  0  0
   11.3264   13.3056    8.6638 N   0  0  0  0  0  0  0  0  0  0  0  0
  1  2  1  0  0  0  0
  1  6  1  0  0  0  0
  2  3  2  0  0  0  0
  3  4  1  0  0  0  0
  4  5  2  0  0  0  0
  4 10  1  0  0  0  0
  5  6  1  0  0  0  0
  5  8  1  0  0  0  0
  6  7  2  0  0  0  0
  8  9  1  0  0  0  0
  9 10  2  0  0  0  0
M  END
>  <CHROM.1>
11.52044038,11.49821332,7.44808839,1.45220811,1.32591541,-2.18388350

>  <Name>
ligand

>  <RI>
0

>  <Rbt.Current_Directory>
/home/itssahil/PROJECTS/Mol_Feturizer/New_Systems/rnas/2EEW

>  <Rbt.Executable>
rbdock ($Id: //depot/dev/client3/rdock/2013.1/src/exe/rbdock.cxx#4 $)

>  <Rbt.Library>
libRbt.so (2013.1, Build901 2013/11/27)

>  <Rbt.Parameter_File>
/export/apps/rDock/src/rDock_2013.1_src/data/scripts/dock_solv.prm

>  <Rbt.Receptor>
prm/blind_docking_40.prm

>  <SCORE>
-15.6162

>  <SCORE.INTER>
-15.6163

>  <SCORE.INTER.CONST>
1

>  <SCORE.INTER.POLAR>
0

>  <SCORE.INTER.ROT>
0

>  <SCORE.INTER.SOLV>
3.43755

>  <SCORE.INTER.VDW>
-15.1567

>  <SCORE.INTER.norm>
-1.56163

>  <SCORE.INTRA>
0

>  <SCORE.INTRA.DIHEDRAL>
0

>  <SCORE.INTRA.DIHEDRAL.0>
0

>  <SCORE.INTRA.POLAR>
0

>  <SCORE.INTRA.POLAR.0>
0

>  <SCORE.INTRA.REPUL>
0

>  <SCORE.INTRA.REPUL.0>
0

>  <SCORE.INTRA.SOLV>
0

>  <SCORE.INTRA.SOLV.lig_0>
-4.28901

>  <SCORE.INTRA.VDW>
0

>  <SCORE.INTRA.VDW.0>
0

>  <SCORE.INTRA.norm>
0

>  <SCORE.RESTR>
0.000105634

>  <SCORE.RESTR.CAVITY>
0.000105634

>  <SCORE.RESTR.norm>
1.05634e-05

>  <SCORE.SYSTEM>
0

>  <SCORE.SYSTEM.CONST>
0

>  <SCORE.SYSTEM.DIHEDRAL>
0

>  <SCORE.SYSTEM.SOLV>
0

>  <SCORE.SYSTEM.norm>
0

>  <SCORE.heavy>
10

>  <SCORE.norm>
-1.56162

>  <RMSD>
2.837

$$$$
ligand
 OpenBabel11021811423D
libRbt.so/2013.1/901 2013/11/27
 10 11  0  0  0  0  0  0  0  0999 V2000
   11.4323   10.6975    5.6617 N   0  0  0  0  0  0  0  0  0  0  0  0
   11.0915   12.0034    5.3609 C   0  0  0  0  0  0  0  0  0  0  0  0
   11.0227   12.9571    6.2997 N   0  0  0  0  0  0  0  0  0  0  0  0
   11.3153   12.5056    7.5469 C   0  0  0  0  0  0  0  0  0  0  0  0
   11.6612   11.2185    7.9184 C   0  0  0  0  0  0  0  0  0  0  0  0
   11.7393   10.1948    6.9302 C   0  0  0  0  0  0  0  0  0  0  0  0
   12.0255    8.9935    7.0355 O   0  0  0  0  0  0  0  0  0  0  0  0
   11.8715   11.2029    9.2698 N   0  0  0  0  0  0  0  0  0  0  0  0
   11.6564   12.4687    9.7076 C   0  0  0  0  0  0  0  0  0  0  0  0
   11.3113   13.2950    8.6693 N   0  0  0  0  0  0  0  0  0  0  0  0
  1  2  1  0  0  0  0
  1  6  1  0  0  0  0
  2  3  2  0  0  0  0
  3  4  1  0  0  0  0
  4  5  2  0  0  0  0
  4 10  1  0  0  0  0
  5  6  1  0  0  0  0
  5  8  1  0  0  0  0
  6  7  2  0  0  0  0
  8  9  1  0  0  0  0
  9 10  2  0  0  0  0
M  END
>  <CHROM.1>
11.52195208,11.50567529,7.42991275,1.45127562,1.30524535,-2.17110382

>  <Name>
ligand

>  <RI>
0

>  <Rbt.Current_Directory>
/home/itssahil/PROJECTS/Mol_Feturizer/New_Systems/rnas/2EEW

>  <Rbt.Executable>
rbdock ($Id: //depot/dev/client3/rdock/2013.1/src/exe/rbdock.cxx#4 $)

>  <Rbt.Library>
libRbt.so (2013.1, Build901 2013/11/27)

>  <Rbt.Parameter_File>
/export/apps/rDock/src/rDock_2013.1_src/data/scripts/dock_solv.prm

>  <Rbt.Receptor>
prm/pocket_docking_7.prm

>  <SCORE>
-15.6012

>  <SCORE.INTER>
-15.6012

>  <SCORE.INTER.CONST>
1

>  <SCORE.INTER.POLAR>
0

>  <SCORE.INTER.ROT>
0

>  <SCORE.INTER.SOLV>
3.39961

>  <SCORE.INTER.VDW>
-15.134

>  <SCORE.INTER.norm>
-1.56012

>  <SCORE.INTRA>
0

>  <SCORE.INTRA.DIHEDRAL>
0

>  <SCORE.INTRA.DIHEDRAL.0>
0

>  <SCORE.INTRA.POLAR>
0

>  <SCORE.INTRA.POLAR.0>
0

>  <SCORE.INTRA.REPUL>
0

>  <SCORE.INTRA.REPUL.0>
0

>  <SCORE.INTRA.SOLV>
0

>  <SCORE.INTRA.SOLV.lig_0>
-4.28901

>  <SCORE.INTRA.VDW>
0

>  <SCORE.INTRA.VDW.0>
0

>  <SCORE.INTRA.norm>
0

>  <SCORE.RESTR>
0

>  <SCORE.RESTR.CAVITY>
0

>  <SCORE.RESTR.norm>
0

>  <SCORE.SYSTEM>
0

>  <SCORE.SYSTEM.CONST>
0

>  <SCORE.SYSTEM.DIHEDRAL>
0

>  <SCORE.SYSTEM.SOLV>
0

>  <SCORE.SYSTEM.norm>
0

>  <SCORE.heavy>
10

>  <SCORE.norm>
-1.56012

>  <RMSD>
2.840

$$$$
ligand
 OpenBabel11021811423D
libRbt.so/2013.1/901 2013/11/27
 10 11  0  0  0  0  0  0  0  0999 V2000
   11.4303   10.7310    5.6456 N   0  0  0  0  0  0  0  0  0  0  0  0
   11.0797   12.0333    5.3409 C   0  0  0  0  0  0  0  0  0  0  0  0
   11.0280   12.9949    6.2727 N   0  0  0  0  0  0  0  0  0  0  0  0
   11.3478   12.5547    7.5174 C   0  0  0  0  0  0  0  0  0  0  0  0
   11.7049   11.2718    7.8925 C   0  0  0  0  0  0  0  0  0  0  0  0
   11.7652   10.2399    6.9116 C   0  0  0  0  0  0  0  0  0  0  0  0
   12.0568    9.0403    7.0211 O   0  0  0  0  0  0  0  0  0  0  0  0
   11.9433   11.2683    9.2393 N   0  0  0  0  0  0  0  0  0  0  0  0
   11.7340   12.5372    9.6707 C   0  0  0  0  0  0  0  0  0  0  0  0
   11.3650   13.3537    8.6329 N   0  0  0  0  0  0  0  0  0  0  0  0
  1  2  1  0  0  0  0
  1  6  1  0  0  0  0
  2  3  2  0  0  0  0
  3  4  1  0  0  0  0
  4  5  2  0  0  0  0
  4 10  1  0  0  0  0
  5  6  1  0  0  0  0
  5  8  1  0  0  0  0
  6  7  2  0  0  0  0
  8  9  1  0  0  0  0
  9 10  2  0  0  0  0
M  END
>  <CHROM.1>
11.55468023,11.55442163,7.40458850,1.50800629,1.29075157,-2.23425935

>  <Name>
ligand

>  <RI>
0

>  <Rbt.Current_Directory>
/home/itssahil/PROJECTS/Mol_Feturizer/New_Systems/rnas/2EEW

>  <Rbt.Executable>
rbdock ($Id: //depot/dev/client3/rdock/2013.1/src/exe/rbdock.cxx#4 $)

>  <Rbt.Library>
libRbt.so (2013.1, Build901 2013/11/27)

>  <Rbt.Parameter_File>
/export/apps/rDock/src/rDock_2013.1_src/data/scripts/dock_solv.prm

>  <Rbt.Receptor>
prm/blind_docking_100.prm

>  <SCORE>
-15.642

>  <SCORE.INTER>
-15.642

>  <SCORE.INTER.CONST>
1

>  <SCORE.INTER.POLAR>
0

>  <SCORE.INTER.ROT>
0

>  <SCORE.INTER.SOLV>
3.38032

>  <SCORE.INTER.VDW>
-15.1548

>  <SCORE.INTER.norm>
-1.5642

>  <SCORE.INTRA>
0

>  <SCORE.INTRA.DIHEDRAL>
0

>  <SCORE.INTRA.DIHEDRAL.0>
0

>  <SCORE.INTRA.POLAR>
0

>  <SCORE.INTRA.POLAR.0>
0

>  <SCORE.INTRA.REPUL>
0

>  <SCORE.INTRA.REPUL.0>
0

>  <SCORE.INTRA.SOLV>
0

>  <SCORE.INTRA.SOLV.lig_0>
-4.28901

>  <SCORE.INTRA.VDW>
0

>  <SCORE.INTRA.VDW.0>
0

>  <SCORE.INTRA.norm>
0

>  <SCORE.RESTR>
0

>  <SCORE.RESTR.CAVITY>
0

>  <SCORE.RESTR.norm>
0

>  <SCORE.SYSTEM>
0

>  <SCORE.SYSTEM.CONST>
0

>  <SCORE.SYSTEM.DIHEDRAL>
0

>  <SCORE.SYSTEM.SOLV>
0

>  <SCORE.SYSTEM.norm>
0

>  <SCORE.heavy>
10

>  <SCORE.norm>
-1.5642

>  <RMSD>
2.841

$$$$
ligand
 OpenBabel11021811423D
libRbt.so/2013.1/901 2013/11/27
 10 11  0  0  0  0  0  0  0  0999 V2000
   11.3743   10.7181    5.5719 N   0  0  0  0  0  0  0  0  0  0  0  0
   11.0407   12.0286    5.2838 C   0  0  0  0  0  0  0  0  0  0  0  0
   10.9764   12.9733    6.2320 N   0  0  0  0  0  0  0  0  0  0  0  0
   11.2658   12.5078    7.4749 C   0  0  0  0  0  0  0  0  0  0  0  0
   11.6046   11.2153    7.8338 C   0  0  0  0  0  0  0  0  0  0  0  0
   11.6779   10.2011    6.8354 C   0  0  0  0  0  0  0  0  0  0  0  0
   11.9577    8.9974    6.9290 O   0  0  0  0  0  0  0  0  0  0  0  0
   11.8138   11.1852    9.1851 N   0  0  0  0  0  0  0  0  0  0  0  0
   11.6053   12.4477    9.6353 C   0  0  0  0  0  0  0  0  0  0  0  0
   11.2652   13.2861    8.6051 N   0  0  0  0  0  0  0  0  0  0  0  0
  1  2  1  0  0  0  0
  1  6  1  0  0  0  0
  2  3  2  0  0  0  0
  3  4  1  0  0  0  0
  4  5  2  0  0  0  0
  4 10  1  0  0  0  0
  5  6  1  0  0  0  0
  5  8  1  0  0  0  0
  6  7  2  0  0  0  0
  8  9  1  0  0  0  0
  9 10  2  0  0  0  0
M  END
>  <CHROM.1>
11.46716796,11.50808756,7.34806422,1.46079316,1.30998471,-2.17034537

>  <Name>
ligand

>  <RI>
0

>  <Rbt.Current_Directory>
/home/itssahil/PROJECTS/Mol_Feturizer/New_Systems/rnas/2EEW

>  <Rbt.Executable>
rbdock ($Id: //depot/dev/client3/rdock/2013.1/src/exe/rbdock.cxx#4 $)

>  <Rbt.Library>
libRbt.so (2013.1, Build901 2013/11/27)

>  <Rbt.Parameter_File>
/export/apps/rDock/src/rDock_2013.1_src/data/scripts/dock_solv.prm

>  <Rbt.Receptor>
prm/pocket_docking_7.prm

>  <SCORE>
-15.6352

>  <SCORE.INTER>
-15.6352

>  <SCORE.INTER.CONST>
1

>  <SCORE.INTER.POLAR>
0

>  <SCORE.INTER.ROT>
0

>  <SCORE.INTER.SOLV>
3.48695

>  <SCORE.INTER.VDW>
-15.1857

>  <SCORE.INTER.norm>
-1.56352

>  <SCORE.INTRA>
0

>  <SCORE.INTRA.DIHEDRAL>
0

>  <SCORE.INTRA.DIHEDRAL.0>
0

>  <SCORE.INTRA.POLAR>
0

>  <SCORE.INTRA.POLAR.0>
0

>  <SCORE.INTRA.REPUL>
0

>  <SCORE.INTRA.REPUL.0>
0

>  <SCORE.INTRA.SOLV>
0

>  <SCORE.INTRA.SOLV.lig_0>
-4.28901

>  <SCORE.INTRA.VDW>
0

>  <SCORE.INTRA.VDW.0>
0

>  <SCORE.INTRA.norm>
0

>  <SCORE.RESTR>
0

>  <SCORE.RESTR.CAVITY>
0

>  <SCORE.RESTR.norm>
0

>  <SCORE.SYSTEM>
0

>  <SCORE.SYSTEM.CONST>
0

>  <SCORE.SYSTEM.DIHEDRAL>
0

>  <SCORE.SYSTEM.SOLV>
0

>  <SCORE.SYSTEM.norm>
0

>  <SCORE.heavy>
10

>  <SCORE.norm>
-1.56352

>  <RMSD>
2.846

$$$$
ligand
 OpenBabel11021811423D
libRbt.so/2013.1/901 2013/11/27
 10 11  0  0  0  0  0  0  0  0999 V2000
   11.3455   10.7294    5.5884 N   0  0  0  0  0  0  0  0  0  0  0  0
   11.0349   12.0465    5.3041 C   0  0  0  0  0  0  0  0  0  0  0  0
   11.0018   12.9924    6.2526 N   0  0  0  0  0  0  0  0  0  0  0  0
   11.2974   12.5213    7.4918 C   0  0  0  0  0  0  0  0  0  0  0  0
   11.6144   11.2223    7.8470 C   0  0  0  0  0  0  0  0  0  0  0  0
   11.6544   10.2066    6.8482 C   0  0  0  0  0  0  0  0  0  0  0  0
   11.9108    8.9974    6.9387 O   0  0  0  0  0  0  0  0  0  0  0  0
   11.8401   11.1881    9.1955 N   0  0  0  0  0  0  0  0  0  0  0  0
   11.6630   12.4546    9.6478 C   0  0  0  0  0  0  0  0  0  0  0  0
   11.3270   13.2996    8.6217 N   0  0  0  0  0  0  0  0  0  0  0  0
  1  2  1  0  0  0  0
  1  6  1  0  0  0  0
  2  3  2  0  0  0  0
  3  4  1  0  0  0  0
  4  5  2  0  0  0  0
  4 10  1  0  0  0  0
  5  6  1  0  0  0  0
  5  8  1  0  0  0  0
  6  7  2  0  0  0  0
  8  9  1  0  0  0  0
  9 10  2  0  0  0  0
M  END
>  <CHROM.1>
11.47682074,11.51765615,7.36290783,1.54883695,1.31867270,-2.25578147

>  <Name>
ligand

>  <RI>
0

>  <Rbt.Current_Directory>
/home/itssahil/PROJECTS/Mol_Feturizer/New_Systems/rnas/2EEW

>  <Rbt.Executable>
rbdock ($Id: //depot/dev/client3/rdock/2013.1/src/exe/rbdock.cxx#4 $)

>  <Rbt.Library>
libRbt.so (2013.1, Build901 2013/11/27)

>  <Rbt.Parameter_File>
/export/apps/rDock/src/rDock_2013.1_src/data/scripts/dock_solv.prm

>  <Rbt.Receptor>
prm/pocket_docking_5.prm

>  <SCORE>
-15.638

>  <SCORE.INTER>
-15.638

>  <SCORE.INTER.CONST>
1

>  <SCORE.INTER.POLAR>
0

>  <SCORE.INTER.ROT>
0

>  <SCORE.INTER.SOLV>
3.53356

>  <SCORE.INTER.VDW>
-15.2032

>  <SCORE.INTER.norm>
-1.5638

>  <SCORE.INTRA>
0

>  <SCORE.INTRA.DIHEDRAL>
0

>  <SCORE.INTRA.DIHEDRAL.0>
0

>  <SCORE.INTRA.POLAR>
0

>  <SCORE.INTRA.POLAR.0>
0

>  <SCORE.INTRA.REPUL>
0

>  <SCORE.INTRA.REPUL.0>
0

>  <SCORE.INTRA.SOLV>
0

>  <SCORE.INTRA.SOLV.lig_0>
-4.28901

>  <SCORE.INTRA.VDW>
0

>  <SCORE.INTRA.VDW.0>
0

>  <SCORE.INTRA.norm>
0

>  <SCORE.RESTR>
0

>  <SCORE.RESTR.CAVITY>
0

>  <SCORE.RESTR.norm>
0

>  <SCORE.SYSTEM>
0

>  <SCORE.SYSTEM.CONST>
0

>  <SCORE.SYSTEM.DIHEDRAL>
0

>  <SCORE.SYSTEM.SOLV>
0

>  <SCORE.SYSTEM.norm>
0

>  <SCORE.heavy>
10

>  <SCORE.norm>
-1.5638

>  <RMSD>
2.848

$$$$
ligand
 OpenBabel11021811423D
libRbt.so/2013.1/901 2013/11/27
 10 11  0  0  0  0  0  0  0  0999 V2000
   11.3416   13.4016    8.1565 N   0  0  0  0  0  0  0  0  0  0  0  0
   11.4918   12.9016    9.4368 C   0  0  0  0  0  0  0  0  0  0  0  0
   11.7044   11.6000    9.6741 N   0  0  0  0  0  0  0  0  0  0  0  0
   11.7513   10.8484    8.5436 C   0  0  0  0  0  0  0  0  0  0  0  0
   11.6085   11.2803    7.2370 C   0  0  0  0  0  0  0  0  0  0  0  0
   11.3831   12.6619    6.9702 C   0  0  0  0  0  0  0  0  0  0  0  0
   11.2292   13.2603    5.8959 O   0  0  0  0  0  0  0  0  0  0  0  0
   11.7233   10.1963    6.4108 N   0  0  0  0  0  0  0  0  0  0  0  0
   11.9354    9.1224    7.2119 C   0  0  0  0  0  0  0  0  0  0  0  0
   11.9572    9.4917    8.5321 N   0  0  0  0  0  0  0  0  0  0  0  0
  1  2  1  0  0  0  0
  1  6  1  0  0  0  0
  2  3  2  0  0  0  0
  3  4  1  0  0  0  0
  4  5  2  0  0  0  0
  4 10  1  0  0  0  0
  5  6  1  0  0  0  0
  5  8  1  0  0  0  0
  6  7  2  0  0  0  0
  8  9  1  0  0  0  0
  9 10  2  0  0  0  0
M  END
>  <CHROM.1>
11.60517333,11.51193999,7.77254313,-2.87277835,1.40930858,-1.94223589

>  <Name>
ligand

>  <RI>
0

>  <Rbt.Current_Directory>
/home/itssahil/PROJECTS/Mol_Feturizer/New_Systems/rnas/2EEW

>  <Rbt.Executable>
rbdock ($Id: //depot/dev/client3/rdock/2013.1/src/exe/rbdock.cxx#4 $)

>  <Rbt.Library>
libRbt.so (2013.1, Build901 2013/11/27)

>  <Rbt.Parameter_File>
/export/apps/rDock/src/rDock_2013.1_src/data/scripts/dock_solv.prm

>  <Rbt.Receptor>
prm/blind_docking_100.prm

>  <SCORE>
-15.4635

>  <SCORE.INTER>
-15.4635

>  <SCORE.INTER.CONST>
1

>  <SCORE.INTER.POLAR>
0

>  <SCORE.INTER.ROT>
0

>  <SCORE.INTER.SOLV>
4.07893

>  <SCORE.INTER.VDW>
-15.2686

>  <SCORE.INTER.norm>
-1.54635

>  <SCORE.INTRA>
0

>  <SCORE.INTRA.DIHEDRAL>
0

>  <SCORE.INTRA.DIHEDRAL.0>
0

>  <SCORE.INTRA.POLAR>
0

>  <SCORE.INTRA.POLAR.0>
0

>  <SCORE.INTRA.REPUL>
0

>  <SCORE.INTRA.REPUL.0>
0

>  <SCORE.INTRA.SOLV>
0

>  <SCORE.INTRA.SOLV.lig_0>
-4.28901

>  <SCORE.INTRA.VDW>
0

>  <SCORE.INTRA.VDW.0>
0

>  <SCORE.INTRA.norm>
0

>  <SCORE.RESTR>
0

>  <SCORE.RESTR.CAVITY>
0

>  <SCORE.RESTR.norm>
0

>  <SCORE.SYSTEM>
0

>  <SCORE.SYSTEM.CONST>
0

>  <SCORE.SYSTEM.DIHEDRAL>
0

>  <SCORE.SYSTEM.SOLV>
0

>  <SCORE.SYSTEM.norm>
0

>  <SCORE.heavy>
10

>  <SCORE.norm>
-1.54635

>  <RMSD>
2.858

$$$$
ligand
 OpenBabel11021811423D
libRbt.so/2013.1/901 2013/11/27
 10 11  0  0  0  0  0  0  0  0999 V2000
   11.3153   13.3816    8.1535 N   0  0  0  0  0  0  0  0  0  0  0  0
   11.4530   12.8957    9.4406 C   0  0  0  0  0  0  0  0  0  0  0  0
   11.6710   11.5980    9.6939 N   0  0  0  0  0  0  0  0  0  0  0  0
   11.7364   10.8352    8.5718 C   0  0  0  0  0  0  0  0  0  0  0  0
   11.6067   11.2528    7.2592 C   0  0  0  0  0  0  0  0  0  0  0  0
   11.3759   12.6301    6.9755 C   0  0  0  0  0  0  0  0  0  0  0  0
   11.2312   13.2164    5.8933 O   0  0  0  0  0  0  0  0  0  0  0  0
   11.7385   10.1611    6.4458 N   0  0  0  0  0  0  0  0  0  0  0  0
   11.9477    9.0969    7.2604 C   0  0  0  0  0  0  0  0  0  0  0  0
   11.9512    9.4799    8.5769 N   0  0  0  0  0  0  0  0  0  0  0  0
  1  2  1  0  0  0  0
  1  6  1  0  0  0  0
  2  3  2  0  0  0  0
  3  4  1  0  0  0  0
  4  5  2  0  0  0  0
  4 10  1  0  0  0  0
  5  6  1  0  0  0  0
  5  8  1  0  0  0  0
  6  7  2  0  0  0  0
  8  9  1  0  0  0  0
  9 10  2  0  0  0  0
M  END
>  <CHROM.1>
11.59548678,11.48985945,7.79227805,-2.95656247,1.40722647,-1.86984243

>  <Name>
ligand

>  <RI>
0

>  <Rbt.Current_Directory>
/home/itssahil/PROJECTS/Mol_Feturizer/New_Systems/rnas/2EEW

>  <Rbt.Executable>
rbdock ($Id: //depot/dev/client3/rdock/2013.1/src/exe/rbdock.cxx#4 $)

>  <Rbt.Library>
libRbt.so (2013.1, Build901 2013/11/27)

>  <Rbt.Parameter_File>
/export/apps/rDock/src/rDock_2013.1_src/data/scripts/dock_solv.prm

>  <Rbt.Receptor>
prm/pocket_docking_8.prm

>  <SCORE>
-15.4572

>  <SCORE.INTER>
-15.4572

>  <SCORE.INTER.CONST>
1

>  <SCORE.INTER.POLAR>
0

>  <SCORE.INTER.ROT>
0

>  <SCORE.INTER.SOLV>
4.0494

>  <SCORE.INTER.VDW>
-15.2546

>  <SCORE.INTER.norm>
-1.54572

>  <SCORE.INTRA>
0

>  <SCORE.INTRA.DIHEDRAL>
0

>  <SCORE.INTRA.DIHEDRAL.0>
0

>  <SCORE.INTRA.POLAR>
0

>  <SCORE.INTRA.POLAR.0>
0

>  <SCORE.INTRA.REPUL>
0

>  <SCORE.INTRA.REPUL.0>
0

>  <SCORE.INTRA.SOLV>
0

>  <SCORE.INTRA.SOLV.lig_0>
-4.28901

>  <SCORE.INTRA.VDW>
0

>  <SCORE.INTRA.VDW.0>
0

>  <SCORE.INTRA.norm>
0

>  <SCORE.RESTR>
0

>  <SCORE.RESTR.CAVITY>
0

>  <SCORE.RESTR.norm>
0

>  <SCORE.SYSTEM>
0

>  <SCORE.SYSTEM.CONST>
0

>  <SCORE.SYSTEM.DIHEDRAL>
0

>  <SCORE.SYSTEM.SOLV>
0

>  <SCORE.SYSTEM.norm>
0

>  <SCORE.heavy>
10

>  <SCORE.norm>
-1.54572

>  <RMSD>
2.864

$$$$
ligand
 OpenBabel11021811423D
libRbt.so/2013.1/901 2013/11/27
 10 11  0  0  0  0  0  0  0  0999 V2000
   11.3251   13.3899    8.1479 N   0  0  0  0  0  0  0  0  0  0  0  0
   11.4681   12.9091    9.4365 C   0  0  0  0  0  0  0  0  0  0  0  0
   11.6827   11.6118    9.6942 N   0  0  0  0  0  0  0  0  0  0  0  0
   11.7392   10.8438    8.5752 C   0  0  0  0  0  0  0  0  0  0  0  0
   11.6039   11.2561    7.2615 C   0  0  0  0  0  0  0  0  0  0  0  0
   11.3766   12.6330    6.9730 C   0  0  0  0  0  0  0  0  0  0  0  0
   11.2283   13.2152    5.8890 O   0  0  0  0  0  0  0  0  0  0  0  0
   11.7273   10.1605    6.4521 N   0  0  0  0  0  0  0  0  0  0  0  0
   11.9370    9.0991    7.2703 C   0  0  0  0  0  0  0  0  0  0  0  0
   11.9489    9.4877    8.5850 N   0  0  0  0  0  0  0  0  0  0  0  0
  1  2  1  0  0  0  0
  1  6  1  0  0  0  0
  2  3  2  0  0  0  0
  3  4  1  0  0  0  0
  4  5  2  0  0  0  0
  4 10  1  0  0  0  0
  5  6  1  0  0  0  0
  5  8  1  0  0  0  0
  6  7  2  0  0  0  0
  8  9  1  0  0  0  0
  9 10  2  0  0  0  0
M  END
>  <CHROM.1>
11.59643239,11.49559015,7.79354840,-2.91774731,1.40902657,-1.91251815

>  <Name>
ligand

>  <RI>
0

>  <Rbt.Current_Directory>
/home/itssahil/PROJECTS/Mol_Feturizer/New_Systems/rnas/2EEW

>  <Rbt.Executable>
rbdock ($Id: //depot/dev/client3/rdock/2013.1/src/exe/rbdock.cxx#4 $)

>  <Rbt.Library>
libRbt.so (2013.1, Build901 2013/11/27)

>  <Rbt.Parameter_File>
/export/apps/rDock/src/rDock_2013.1_src/data/scripts/dock_solv.prm

>  <Rbt.Receptor>
prm/blind_docking_60.prm

>  <SCORE>
-15.4542

>  <SCORE.INTER>
-15.4542

>  <SCORE.INTER.CONST>
1

>  <SCORE.INTER.POLAR>
0

>  <SCORE.INTER.ROT>
0

>  <SCORE.INTER.SOLV>
4.05204

>  <SCORE.INTER.VDW>
-15.2535

>  <SCORE.INTER.norm>
-1.54542

>  <SCORE.INTRA>
0

>  <SCORE.INTRA.DIHEDRAL>
0

>  <SCORE.INTRA.DIHEDRAL.0>
0

>  <SCORE.INTRA.POLAR>
0

>  <SCORE.INTRA.POLAR.0>
0

>  <SCORE.INTRA.REPUL>
0

>  <SCORE.INTRA.REPUL.0>
0

>  <SCORE.INTRA.SOLV>
0

>  <SCORE.INTRA.SOLV.lig_0>
-4.28901

>  <SCORE.INTRA.VDW>
0

>  <SCORE.INTRA.VDW.0>
0

>  <SCORE.INTRA.norm>
0

>  <SCORE.RESTR>
0

>  <SCORE.RESTR.CAVITY>
0

>  <SCORE.RESTR.norm>
0

>  <SCORE.SYSTEM>
0

>  <SCORE.SYSTEM.CONST>
0

>  <SCORE.SYSTEM.DIHEDRAL>
0

>  <SCORE.SYSTEM.SOLV>
0

>  <SCORE.SYSTEM.norm>
0

>  <SCORE.heavy>
10

>  <SCORE.norm>
-1.54542

>  <RMSD>
2.865

$$$$
ligand
 OpenBabel11021811423D
libRbt.so/2013.1/901 2013/11/27
 10 11  0  0  0  0  0  0  0  0999 V2000
   11.3202   13.3814    8.1488 N   0  0  0  0  0  0  0  0  0  0  0  0
   11.4623   12.9087    9.4404 C   0  0  0  0  0  0  0  0  0  0  0  0
   11.6765   11.6129    9.7063 N   0  0  0  0  0  0  0  0  0  0  0  0
   11.7335   10.8380    8.5922 C   0  0  0  0  0  0  0  0  0  0  0  0
   11.5991   11.2421    7.2758 C   0  0  0  0  0  0  0  0  0  0  0  0
   11.3722   12.6172    6.9786 C   0  0  0  0  0  0  0  0  0  0  0  0
   11.2246   13.1926    5.8909 O   0  0  0  0  0  0  0  0  0  0  0  0
   11.7228   10.1414    6.4734 N   0  0  0  0  0  0  0  0  0  0  0  0
   11.9318    9.0851    7.2983 C   0  0  0  0  0  0  0  0  0  0  0  0
   11.9431    9.4819    8.6106 N   0  0  0  0  0  0  0  0  0  0  0  0
  1  2  1  0  0  0  0
  1  6  1  0  0  0  0
  2  3  2  0  0  0  0
  3  4  1  0  0  0  0
  4  5  2  0  0  0  0
  4 10  1  0  0  0  0
  5  6  1  0  0  0  0
  5  8  1  0  0  0  0
  6  7  2  0  0  0  0
  8  9  1  0  0  0  0
  9 10  2  0  0  0  0
M  END
>  <CHROM.1>
11.59136600,11.48487191,7.80640262,-2.92083551,1.40938584,-1.91570741

>  <Name>
ligand

>  <RI>
0

>  <Rbt.Current_Directory>
/home/itssahil/PROJECTS/Mol_Feturizer/New_Systems/rnas/2EEW

>  <Rbt.Executable>
rbdock ($Id: //depot/dev/client3/rdock/2013.1/src/exe/rbdock.cxx#4 $)

>  <Rbt.Library>
libRbt.so (2013.1, Build901 2013/11/27)

>  <Rbt.Parameter_File>
/export/apps/rDock/src/rDock_2013.1_src/data/scripts/dock_solv.prm

>  <Rbt.Receptor>
prm/blind_docking_100.prm

>  <SCORE>
-15.4506

>  <SCORE.INTER>
-15.4506

>  <SCORE.INTER.CONST>
1

>  <SCORE.INTER.POLAR>
0

>  <SCORE.INTER.ROT>
0

>  <SCORE.INTER.SOLV>
4.03853

>  <SCORE.INTER.VDW>
-15.2466

>  <SCORE.INTER.norm>
-1.54506

>  <SCORE.INTRA>
0

>  <SCORE.INTRA.DIHEDRAL>
0

>  <SCORE.INTRA.DIHEDRAL.0>
0

>  <SCORE.INTRA.POLAR>
0

>  <SCORE.INTRA.POLAR.0>
0

>  <SCORE.INTRA.REPUL>
0

>  <SCORE.INTRA.REPUL.0>
0

>  <SCORE.INTRA.SOLV>
0

>  <SCORE.INTRA.SOLV.lig_0>
-4.28901

>  <SCORE.INTRA.VDW>
0

>  <SCORE.INTRA.VDW.0>
0

>  <SCORE.INTRA.norm>
0

>  <SCORE.RESTR>
0

>  <SCORE.RESTR.CAVITY>
0

>  <SCORE.RESTR.norm>
0

>  <SCORE.SYSTEM>
0

>  <SCORE.SYSTEM.CONST>
0

>  <SCORE.SYSTEM.DIHEDRAL>
0

>  <SCORE.SYSTEM.SOLV>
0

>  <SCORE.SYSTEM.norm>
0

>  <SCORE.heavy>
10

>  <SCORE.norm>
-1.54506

>  <RMSD>
2.868

$$$$
ligand
 OpenBabel11021811423D
libRbt.so/2013.1/901 2013/11/27
 10 11  0  0  0  0  0  0  0  0999 V2000
   11.3071   13.4100    8.1123 N   0  0  0  0  0  0  0  0  0  0  0  0
   11.4285   12.9612    9.4145 C   0  0  0  0  0  0  0  0  0  0  0  0
   11.6322   11.6696    9.7078 N   0  0  0  0  0  0  0  0  0  0  0  0
   11.7009   10.8735    8.6094 C   0  0  0  0  0  0  0  0  0  0  0  0
   11.5871   11.2533    7.2839 C   0  0  0  0  0  0  0  0  0  0  0  0
   11.3716   12.6236    6.9576 C   0  0  0  0  0  0  0  0  0  0  0  0
   11.2423   13.1790    5.8572 O   0  0  0  0  0  0  0  0  0  0  0  0
   11.7163   10.1370    6.5042 N   0  0  0  0  0  0  0  0  0  0  0  0
   11.9082    9.0954    7.3517 C   0  0  0  0  0  0  0  0  0  0  0  0
   11.9030    9.5170    8.6563 N   0  0  0  0  0  0  0  0  0  0  0  0
  1  2  1  0  0  0  0
  1  6  1  0  0  0  0
  2  3  2  0  0  0  0
  3  4  1  0  0  0  0
  4  5  2  0  0  0  0
  4 10  1  0  0  0  0
  5  6  1  0  0  0  0
  5  8  1  0  0  0  0
  6  7  2  0  0  0  0
  8  9  1  0  0  0  0
  9 10  2  0  0  0  0
M  END
>  <CHROM.1>
11.57314224,11.50606583,7.80959177,-2.99664277,1.41862583,-1.85972622

>  <Name>
ligand

>  <RI>
0

>  <Rbt.Current_Directory>
/home/itssahil/PROJECTS/Mol_Feturizer/New_Systems/rnas/2EEW

>  <Rbt.Executable>
rbdock ($Id: //depot/dev/client3/rdock/2013.1/src/exe/rbdock.cxx#4 $)

>  <Rbt.Library>
libRbt.so (2013.1, Build901 2013/11/27)

>  <Rbt.Parameter_File>
/export/apps/rDock/src/rDock_2013.1_src/data/scripts/dock_solv.prm

>  <Rbt.Receptor>
prm/blind_docking_40.prm

>  <SCORE>
-15.4084

>  <SCORE.INTER>
-15.4084

>  <SCORE.INTER.CONST>
1

>  <SCORE.INTER.POLAR>
0

>  <SCORE.INTER.ROT>
0

>  <SCORE.INTER.SOLV>
4.06772

>  <SCORE.INTER.VDW>
-15.2281

>  <SCORE.INTER.norm>
-1.54084

>  <SCORE.INTRA>
0

>  <SCORE.INTRA.DIHEDRAL>
0

>  <SCORE.INTRA.DIHEDRAL.0>
0

>  <SCORE.INTRA.POLAR>
0

>  <SCORE.INTRA.POLAR.0>
0

>  <SCORE.INTRA.REPUL>
0

>  <SCORE.INTRA.REPUL.0>
0

>  <SCORE.INTRA.SOLV>
0

>  <SCORE.INTRA.SOLV.lig_0>
-4.28901

>  <SCORE.INTRA.VDW>
0

>  <SCORE.INTRA.VDW.0>
0

>  <SCORE.INTRA.norm>
0

>  <SCORE.RESTR>
0

>  <SCORE.RESTR.CAVITY>
0

>  <SCORE.RESTR.norm>
0

>  <SCORE.SYSTEM>
0

>  <SCORE.SYSTEM.CONST>
0

>  <SCORE.SYSTEM.DIHEDRAL>
0

>  <SCORE.SYSTEM.SOLV>
0

>  <SCORE.SYSTEM.norm>
0

>  <SCORE.heavy>
10

>  <SCORE.norm>
-1.54084

>  <RMSD>
2.871

$$$$
ligand
 OpenBabel11021811423D
libRbt.so/2013.1/901 2013/11/27
 10 11  0  0  0  0  0  0  0  0999 V2000
   11.2869   13.3779    8.1243 N   0  0  0  0  0  0  0  0  0  0  0  0
   11.4558   12.9244    9.4196 C   0  0  0  0  0  0  0  0  0  0  0  0
   11.6970   11.6362    9.6987 N   0  0  0  0  0  0  0  0  0  0  0  0
   11.7519   10.8481    8.5936 C   0  0  0  0  0  0  0  0  0  0  0  0
   11.5914   11.2328    7.2744 C   0  0  0  0  0  0  0  0  0  0  0  0
   11.3358   12.5998    6.9632 C   0  0  0  0  0  0  0  0  0  0  0  0
   11.1624   13.1584    5.8706 O   0  0  0  0  0  0  0  0  0  0  0  0
   11.7232   10.1243    6.4842 N   0  0  0  0  0  0  0  0  0  0  0  0
   11.9628    9.0825    7.3192 C   0  0  0  0  0  0  0  0  0  0  0  0
   11.9858    9.4963    8.6261 N   0  0  0  0  0  0  0  0  0  0  0  0
  1  2  1  0  0  0  0
  1  6  1  0  0  0  0
  2  3  2  0  0  0  0
  3  4  1  0  0  0  0
  4  5  2  0  0  0  0
  4 10  1  0  0  0  0
  5  6  1  0  0  0  0
  5  8  1  0  0  0  0
  6  7  2  0  0  0  0
  8  9  1  0  0  0  0
  9 10  2  0  0  0  0
M  END
>  <CHROM.1>
11.58691730,11.48224137,7.80192487,-2.87997193,1.38760451,-1.96870352

>  <Name>
ligand

>  <RI>
0

>  <Rbt.Current_Directory>
/home/itssahil/PROJECTS/Mol_Feturizer/New_Systems/rnas/2EEW

>  <Rbt.Executable>
rbdock ($Id: //depot/dev/client3/rdock/2013.1/src/exe/rbdock.cxx#4 $)

>  <Rbt.Library>
libRbt.so (2013.1, Build901 2013/11/27)

>  <Rbt.Parameter_File>
/export/apps/rDock/src/rDock_2013.1_src/data/scripts/dock_solv.prm

>  <Rbt.Receptor>
prm/blind_docking_60.prm

>  <SCORE>
-15.4707

>  <SCORE.INTER>
-15.4707

>  <SCORE.INTER.CONST>
1

>  <SCORE.INTER.POLAR>
0

>  <SCORE.INTER.ROT>
0

>  <SCORE.INTER.SOLV>
3.94564

>  <SCORE.INTER.VDW>
-15.229

>  <SCORE.INTER.norm>
-1.54707

>  <SCORE.INTRA>
0

>  <SCORE.INTRA.DIHEDRAL>
0

>  <SCORE.INTRA.DIHEDRAL.0>
0

>  <SCORE.INTRA.POLAR>
0

>  <SCORE.INTRA.POLAR.0>
0

>  <SCORE.INTRA.REPUL>
0

>  <SCORE.INTRA.REPUL.0>
0

>  <SCORE.INTRA.SOLV>
0

>  <SCORE.INTRA.SOLV.lig_0>
-4.28901

>  <SCORE.INTRA.VDW>
0

>  <SCORE.INTRA.VDW.0>
0

>  <SCORE.INTRA.norm>
0

>  <SCORE.RESTR>
0

>  <SCORE.RESTR.CAVITY>
0

>  <SCORE.RESTR.norm>
0

>  <SCORE.SYSTEM>
0

>  <SCORE.SYSTEM.CONST>
0

>  <SCORE.SYSTEM.DIHEDRAL>
0

>  <SCORE.SYSTEM.SOLV>
0

>  <SCORE.SYSTEM.norm>
0

>  <SCORE.heavy>
10

>  <SCORE.norm>
-1.54707

>  <RMSD>
2.872

$$$$
ligand
 OpenBabel11021811423D
libRbt.so/2013.1/901 2013/11/27
 10 11  0  0  0  0  0  0  0  0999 V2000
   11.3155   13.3594    8.1364 N   0  0  0  0  0  0  0  0  0  0  0  0
   11.4737   12.9027    9.4319 C   0  0  0  0  0  0  0  0  0  0  0  0
   11.6965   11.6111    9.7107 N   0  0  0  0  0  0  0  0  0  0  0  0
   11.7449   10.8233    8.6053 C   0  0  0  0  0  0  0  0  0  0  0  0
   11.5945   11.2112    7.2858 C   0  0  0  0  0  0  0  0  0  0  0  0
   11.3583   12.5817    6.9749 C   0  0  0  0  0  0  0  0  0  0  0  0
   11.1964   13.1435    5.8821 O   0  0  0  0  0  0  0  0  0  0  0  0
   11.7143   10.1016    6.4951 N   0  0  0  0  0  0  0  0  0  0  0  0
   11.9369    9.0560    7.3300 C   0  0  0  0  0  0  0  0  0  0  0  0
   11.9607    9.4684    8.6374 N   0  0  0  0  0  0  0  0  0  0  0  0
  1  2  1  0  0  0  0
  1  6  1  0  0  0  0
  2  3  2  0  0  0  0
  3  4  1  0  0  0  0
  4  5  2  0  0  0  0
  4 10  1  0  0  0  0
  5  6  1  0  0  0  0
  5  8  1  0  0  0  0
  6  7  2  0  0  0  0
  8  9  1  0  0  0  0
  9 10  2  0  0  0  0
M  END
>  <CHROM.1>
11.59139754,11.46017346,7.81348690,-2.86931339,1.40133478,-1.97835334

>  <Name>
ligand

>  <RI>
0

>  <Rbt.Current_Directory>
/home/itssahil/PROJECTS/Mol_Feturizer/New_Systems/rnas/2EEW

>  <Rbt.Executable>
rbdock ($Id: //depot/dev/client3/rdock/2013.1/src/exe/rbdock.cxx#4 $)

>  <Rbt.Library>
libRbt.so (2013.1, Build901 2013/11/27)

>  <Rbt.Parameter_File>
/export/apps/rDock/src/rDock_2013.1_src/data/scripts/dock_solv.prm

>  <Rbt.Receptor>
prm/blind_docking_80.prm

>  <SCORE>
-15.4623

>  <SCORE.INTER>
-15.4623

>  <SCORE.INTER.CONST>
1

>  <SCORE.INTER.POLAR>
0

>  <SCORE.INTER.ROT>
0

>  <SCORE.INTER.SOLV>
3.97438

>  <SCORE.INTER.VDW>
-15.233

>  <SCORE.INTER.norm>
-1.54623

>  <SCORE.INTRA>
0

>  <SCORE.INTRA.DIHEDRAL>
0

>  <SCORE.INTRA.DIHEDRAL.0>
0

>  <SCORE.INTRA.POLAR>
0

>  <SCORE.INTRA.POLAR.0>
0

>  <SCORE.INTRA.REPUL>
0

>  <SCORE.INTRA.REPUL.0>
0

>  <SCORE.INTRA.SOLV>
0

>  <SCORE.INTRA.SOLV.lig_0>
-4.28901

>  <SCORE.INTRA.VDW>
0

>  <SCORE.INTRA.VDW.0>
0

>  <SCORE.INTRA.norm>
0

>  <SCORE.RESTR>
0

>  <SCORE.RESTR.CAVITY>
0

>  <SCORE.RESTR.norm>
0

>  <SCORE.SYSTEM>
0

>  <SCORE.SYSTEM.CONST>
0

>  <SCORE.SYSTEM.DIHEDRAL>
0

>  <SCORE.SYSTEM.SOLV>
0

>  <SCORE.SYSTEM.norm>
0

>  <SCORE.heavy>
10

>  <SCORE.norm>
-1.54623

>  <RMSD>
2.872

$$$$
ligand
 OpenBabel11021811423D
libRbt.so/2013.1/901 2013/11/27
 10 11  0  0  0  0  0  0  0  0999 V2000
   11.2941   13.3777    8.1229 N   0  0  0  0  0  0  0  0  0  0  0  0
   11.4666   12.9286    9.4192 C   0  0  0  0  0  0  0  0  0  0  0  0
   11.7032   11.6405    9.7025 N   0  0  0  0  0  0  0  0  0  0  0  0
   11.7499   10.8477    8.6004 C   0  0  0  0  0  0  0  0  0  0  0  0
   11.5856   11.2279    7.2803 C   0  0  0  0  0  0  0  0  0  0  0  0
   11.3347   12.5947    6.9648 C   0  0  0  0  0  0  0  0  0  0  0  0
   11.1591   13.1497    5.8706 O   0  0  0  0  0  0  0  0  0  0  0  0
   11.7090   10.1155    6.4940 N   0  0  0  0  0  0  0  0  0  0  0  0
   11.9476    9.0761    7.3322 C   0  0  0  0  0  0  0  0  0  0  0  0
   11.9780    9.4950    8.6374 N   0  0  0  0  0  0  0  0  0  0  0  0
  1  2  1  0  0  0  0
  1  6  1  0  0  0  0
  2  3  2  0  0  0  0
  3  4  1  0  0  0  0
  4  5  2  0  0  0  0
  4 10  1  0  0  0  0
  5  6  1  0  0  0  0
  5  8  1  0  0  0  0
  6  7  2  0  0  0  0
  8  9  1  0  0  0  0
  9 10  2  0  0  0  0
M  END
>  <CHROM.1>
11.58440538,11.47939070,7.80687020,-2.84856337,1.38995642,-2.00361539

>  <Name>
ligand

>  <RI>
0

>  <Rbt.Current_Directory>
/home/itssahil/PROJECTS/Mol_Feturizer/New_Systems/rnas/2EEW

>  <Rbt.Executable>
rbdock ($Id: //depot/dev/client3/rdock/2013.1/src/exe/rbdock.cxx#4 $)

>  <Rbt.Library>
libRbt.so (2013.1, Build901 2013/11/27)

>  <Rbt.Parameter_File>
/export/apps/rDock/src/rDock_2013.1_src/data/scripts/dock_solv.prm

>  <Rbt.Receptor>
prm/blind_docking_60.prm

>  <SCORE>
-15.4978

>  <SCORE.INTER>
-15.4978

>  <SCORE.INTER.CONST>
1

>  <SCORE.INTER.POLAR>
0

>  <SCORE.INTER.ROT>
0

>  <SCORE.INTER.SOLV>
3.94407

>  <SCORE.INTER.VDW>
-15.2466

>  <SCORE.INTER.norm>
-1.54978

>  <SCORE.INTRA>
0

>  <SCORE.INTRA.DIHEDRAL>
0

>  <SCORE.INTRA.DIHEDRAL.0>
0

>  <SCORE.INTRA.POLAR>
0

>  <SCORE.INTRA.POLAR.0>
0

>  <SCORE.INTRA.REPUL>
0

>  <SCORE.INTRA.REPUL.0>
0

>  <SCORE.INTRA.SOLV>
0

>  <SCORE.INTRA.SOLV.lig_0>
-4.28901

>  <SCORE.INTRA.VDW>
0

>  <SCORE.INTRA.VDW.0>
0

>  <SCORE.INTRA.norm>
0

>  <SCORE.RESTR>
0

>  <SCORE.RESTR.CAVITY>
0

>  <SCORE.RESTR.norm>
0

>  <SCORE.SYSTEM>
0

>  <SCORE.SYSTEM.CONST>
0

>  <SCORE.SYSTEM.DIHEDRAL>
0

>  <SCORE.SYSTEM.SOLV>
0

>  <SCORE.SYSTEM.norm>
0

>  <SCORE.heavy>
10

>  <SCORE.norm>
-1.54978

>  <RMSD>
2.873

$$$$
ligand
 OpenBabel11021811423D
libRbt.so/2013.1/901 2013/11/27
 10 11  0  0  0  0  0  0  0  0999 V2000
   11.0848   12.9390    5.8619 N   0  0  0  0  0  0  0  0  0  0  0  0
   11.1643   13.5854    7.0817 C   0  0  0  0  0  0  0  0  0  0  0  0
   11.3938   12.9254    8.2251 N   0  0  0  0  0  0  0  0  0  0  0  0
   11.5326   11.5851    8.0534 C   0  0  0  0  0  0  0  0  0  0  0  0
   11.4638   10.8750    6.8681 C   0  0  0  0  0  0  0  0  0  0  0  0
   11.2216   11.5643    5.6446 C   0  0  0  0  0  0  0  0  0  0  0  0
   11.1225   11.1372    4.4854 O   0  0  0  0  0  0  0  0  0  0  0  0
   11.6591    9.5506    7.1484 N   0  0  0  0  0  0  0  0  0  0  0  0
   11.8459    9.4642    8.4892 C   0  0  0  0  0  0  0  0  0  0  0  0
   11.7730   10.7015    9.0755 N   0  0  0  0  0  0  0  0  0  0  0  0
  1  2  1  0  0  0  0
  1  6  1  0  0  0  0
  2  3  2  0  0  0  0
  3  4  1  0  0  0  0
  4  5  2  0  0  0  0
  4 10  1  0  0  0  0
  5  6  1  0  0  0  0
  5  8  1  0  0  0  0
  6  7  2  0  0  0  0
  8  9  1  0  0  0  0
  9 10  2  0  0  0  0
M  END
>  <CHROM.1>
11.42007860,11.42966773,7.04384549,3.00186031,1.39516520,-2.39494964

>  <Name>
ligand

>  <RI>
0

>  <Rbt.Current_Directory>
/home/itssahil/PROJECTS/Mol_Feturizer/New_Systems/rnas/2EEW

>  <Rbt.Executable>
rbdock ($Id: //depot/dev/client3/rdock/2013.1/src/exe/rbdock.cxx#4 $)

>  <Rbt.Library>
libRbt.so (2013.1, Build901 2013/11/27)

>  <Rbt.Parameter_File>
/export/apps/rDock/src/rDock_2013.1_src/data/scripts/dock_solv.prm

>  <Rbt.Receptor>
prm/blind_docking_80.prm

>  <SCORE>
-15.5682

>  <SCORE.INTER>
-15.5682

>  <SCORE.INTER.CONST>
1

>  <SCORE.INTER.POLAR>
0

>  <SCORE.INTER.ROT>
0

>  <SCORE.INTER.SOLV>
4.62421

>  <SCORE.INTER.VDW>
-15.5202

>  <SCORE.INTER.norm>
-1.55682

>  <SCORE.INTRA>
0

>  <SCORE.INTRA.DIHEDRAL>
0

>  <SCORE.INTRA.DIHEDRAL.0>
0

>  <SCORE.INTRA.POLAR>
0

>  <SCORE.INTRA.POLAR.0>
0

>  <SCORE.INTRA.REPUL>
0

>  <SCORE.INTRA.REPUL.0>
0

>  <SCORE.INTRA.SOLV>
0

>  <SCORE.INTRA.SOLV.lig_0>
-4.28901

>  <SCORE.INTRA.VDW>
0

>  <SCORE.INTRA.VDW.0>
0

>  <SCORE.INTRA.norm>
0

>  <SCORE.RESTR>
0

>  <SCORE.RESTR.CAVITY>
0

>  <SCORE.RESTR.norm>
0

>  <SCORE.SYSTEM>
0

>  <SCORE.SYSTEM.CONST>
0

>  <SCORE.SYSTEM.DIHEDRAL>
0

>  <SCORE.SYSTEM.SOLV>
0

>  <SCORE.SYSTEM.norm>
0

>  <SCORE.heavy>
10

>  <SCORE.norm>
-1.55682

>  <RMSD>
3.010

$$$$
ligand
 OpenBabel11021811423D
libRbt.so/2013.1/901 2013/11/27
 10 11  0  0  0  0  0  0  0  0999 V2000
   11.0557   12.8942    5.8253 N   0  0  0  0  0  0  0  0  0  0  0  0
   11.0941   13.5561    7.0387 C   0  0  0  0  0  0  0  0  0  0  0  0
   11.3208   12.9159    8.1938 N   0  0  0  0  0  0  0  0  0  0  0  0
   11.5007   11.5782    8.0404 C   0  0  0  0  0  0  0  0  0  0  0  0
   11.4741   10.8531    6.8624 C   0  0  0  0  0  0  0  0  0  0  0  0
   11.2354   11.5215    5.6267 C   0  0  0  0  0  0  0  0  0  0  0  0
   11.1700   11.0788    4.4709 O   0  0  0  0  0  0  0  0  0  0  0  0
   11.7015    9.5381    7.1618 N   0  0  0  0  0  0  0  0  0  0  0  0
   11.8656    9.4721    8.5067 C   0  0  0  0  0  0  0  0  0  0  0  0
   11.7468   10.7133    9.0770 N   0  0  0  0  0  0  0  0  0  0  0  0
  1  2  1  0  0  0  0
  1  6  1  0  0  0  0
  2  3  2  0  0  0  0
  3  4  1  0  0  0  0
  4  5  2  0  0  0  0
  4 10  1  0  0  0  0
  5  6  1  0  0  0  0
  5  8  1  0  0  0  0
  6  7  2  0  0  0  0
  8  9  1  0  0  0  0
  9 10  2  0  0  0  0
M  END
>  <CHROM.1>
11.41144023,11.40830447,7.03081065,2.81822251,1.38662613,-2.22573840

>  <Name>
ligand

>  <RI>
0

>  <Rbt.Current_Directory>
/home/itssahil/PROJECTS/Mol_Feturizer/New_Systems/rnas/2EEW

>  <Rbt.Executable>
rbdock ($Id: //depot/dev/client3/rdock/2013.1/src/exe/rbdock.cxx#4 $)

>  <Rbt.Library>
libRbt.so (2013.1, Build901 2013/11/27)

>  <Rbt.Parameter_File>
/export/apps/rDock/src/rDock_2013.1_src/data/scripts/dock_solv.prm

>  <Rbt.Receptor>
prm/blind_docking_100.prm

>  <SCORE>
-15.5871

>  <SCORE.INTER>
-15.5871

>  <SCORE.INTER.CONST>
1

>  <SCORE.INTER.POLAR>
0

>  <SCORE.INTER.ROT>
0

>  <SCORE.INTER.SOLV>
4.61794

>  <SCORE.INTER.VDW>
-15.5307

>  <SCORE.INTER.norm>
-1.55871

>  <SCORE.INTRA>
0

>  <SCORE.INTRA.DIHEDRAL>
0

>  <SCORE.INTRA.DIHEDRAL.0>
0

>  <SCORE.INTRA.POLAR>
0

>  <SCORE.INTRA.POLAR.0>
0

>  <SCORE.INTRA.REPUL>
0

>  <SCORE.INTRA.REPUL.0>
0

>  <SCORE.INTRA.SOLV>
0

>  <SCORE.INTRA.SOLV.lig_0>
-4.28901

>  <SCORE.INTRA.VDW>
0

>  <SCORE.INTRA.VDW.0>
0

>  <SCORE.INTRA.norm>
0

>  <SCORE.RESTR>
0

>  <SCORE.RESTR.CAVITY>
0

>  <SCORE.RESTR.norm>
0

>  <SCORE.SYSTEM>
0

>  <SCORE.SYSTEM.CONST>
0

>  <SCORE.SYSTEM.DIHEDRAL>
0

>  <SCORE.SYSTEM.SOLV>
0

>  <SCORE.SYSTEM.norm>
0

>  <SCORE.heavy>
10

>  <SCORE.norm>
-1.55871

>  <RMSD>
3.013

$$$$
ligand
 OpenBabel11021811423D
libRbt.so/2013.1/901 2013/11/27
 10 11  0  0  0  0  0  0  0  0999 V2000
   11.0599   12.9467    5.8574 N   0  0  0  0  0  0  0  0  0  0  0  0
   11.1097   13.5715    7.0899 C   0  0  0  0  0  0  0  0  0  0  0  0
   11.3387   12.8953    8.2238 N   0  0  0  0  0  0  0  0  0  0  0  0
   11.5086   11.5618    8.0293 C   0  0  0  0  0  0  0  0  0  0  0  0
   11.4704   10.8726    6.8302 C   0  0  0  0  0  0  0  0  0  0  0  0
   11.2290   11.5795    5.6165 C   0  0  0  0  0  0  0  0  0  0  0  0
   11.1541   11.1723    4.4484 O   0  0  0  0  0  0  0  0  0  0  0  0
   11.6905    9.5477    7.0885 N   0  0  0  0  0  0  0  0  0  0  0  0
   11.8619    9.4402    8.4298 C   0  0  0  0  0  0  0  0  0  0  0  0
   11.7548   10.6644    9.0379 N   0  0  0  0  0  0  0  0  0  0  0  0
  1  2  1  0  0  0  0
  1  6  1  0  0  0  0
  2  3  2  0  0  0  0
  3  4  1  0  0  0  0
  4  5  2  0  0  0  0
  4 10  1  0  0  0  0
  5  6  1  0  0  0  0
  5  8  1  0  0  0  0
  6  7  2  0  0  0  0
  8  9  1  0  0  0  0
  9 10  2  0  0  0  0
M  END
>  <CHROM.1>
11.41240221,11.42289636,7.01556369,2.86611539,1.38831165,-2.24273214

>  <Name>
ligand

>  <RI>
0

>  <Rbt.Current_Directory>
/home/itssahil/PROJECTS/Mol_Feturizer/New_Systems/rnas/2EEW

>  <Rbt.Executable>
rbdock ($Id: //depot/dev/client3/rdock/2013.1/src/exe/rbdock.cxx#4 $)

>  <Rbt.Library>
libRbt.so (2013.1, Build901 2013/11/27)

>  <Rbt.Parameter_File>
/export/apps/rDock/src/rDock_2013.1_src/data/scripts/dock_solv.prm

>  <Rbt.Receptor>
prm/blind_docking_100.prm

>  <SCORE>
-15.6381

>  <SCORE.INTER>
-15.6381

>  <SCORE.INTER.CONST>
1

>  <SCORE.INTER.POLAR>
0

>  <SCORE.INTER.ROT>
0

>  <SCORE.INTER.SOLV>
4.61394

>  <SCORE.INTER.VDW>
-15.5634

>  <SCORE.INTER.norm>
-1.56381

>  <SCORE.INTRA>
0

>  <SCORE.INTRA.DIHEDRAL>
0

>  <SCORE.INTRA.DIHEDRAL.0>
0

>  <SCORE.INTRA.POLAR>
0

>  <SCORE.INTRA.POLAR.0>
0

>  <SCORE.INTRA.REPUL>
0

>  <SCORE.INTRA.REPUL.0>
0

>  <SCORE.INTRA.SOLV>
0

>  <SCORE.INTRA.SOLV.lig_0>
-4.28901

>  <SCORE.INTRA.VDW>
0

>  <SCORE.INTRA.VDW.0>
0

>  <SCORE.INTRA.norm>
0

>  <SCORE.RESTR>
0

>  <SCORE.RESTR.CAVITY>
0

>  <SCORE.RESTR.norm>
0

>  <SCORE.SYSTEM>
0

>  <SCORE.SYSTEM.CONST>
0

>  <SCORE.SYSTEM.DIHEDRAL>
0

>  <SCORE.SYSTEM.SOLV>
0

>  <SCORE.SYSTEM.norm>
0

>  <SCORE.heavy>
10

>  <SCORE.norm>
-1.56381

>  <RMSD>
3.013

$$$$
ligand
 OpenBabel11021811423D
libRbt.so/2013.1/901 2013/11/27
 10 11  0  0  0  0  0  0  0  0999 V2000
   11.0594   12.9425    5.8495 N   0  0  0  0  0  0  0  0  0  0  0  0
   11.1062   13.5699    7.0808 C   0  0  0  0  0  0  0  0  0  0  0  0
   11.3337   12.8962    8.2166 N   0  0  0  0  0  0  0  0  0  0  0  0
   11.5055   11.5625    8.0250 C   0  0  0  0  0  0  0  0  0  0  0  0
   11.4704   10.8709    6.8272 C   0  0  0  0  0  0  0  0  0  0  0  0
   11.2306   11.5750    5.6117 C   0  0  0  0  0  0  0  0  0  0  0  0
   11.1583   11.1654    4.4442 O   0  0  0  0  0  0  0  0  0  0  0  0
   11.6915    9.5467    7.0886 N   0  0  0  0  0  0  0  0  0  0  0  0
   11.8604    9.4421    8.4305 C   0  0  0  0  0  0  0  0  0  0  0  0
   11.7507   10.6674    9.0359 N   0  0  0  0  0  0  0  0  0  0  0  0
  1  2  1  0  0  0  0
  1  6  1  0  0  0  0
  2  3  2  0  0  0  0
  3  4  1  0  0  0  0
  4  5  2  0  0  0  0
  4 10  1  0  0  0  0
  5  6  1  0  0  0  0
  5  8  1  0  0  0  0
  6  7  2  0  0  0  0
  8  9  1  0  0  0  0
  9 10  2  0  0  0  0
M  END
>  <CHROM.1>
11.41141774,11.42147564,7.01138320,2.85390509,1.38861272,-2.23273188

>  <Name>
ligand

>  <RI>
0

>  <Rbt.Current_Directory>
/home/itssahil/PROJECTS/Mol_Feturizer/New_Systems/rnas/2EEW

>  <Rbt.Executable>
rbdock ($Id: //depot/dev/client3/rdock/2013.1/src/exe/rbdock.cxx#4 $)

>  <Rbt.Library>
libRbt.so (2013.1, Build901 2013/11/27)

>  <Rbt.Parameter_File>
/export/apps/rDock/src/rDock_2013.1_src/data/scripts/dock_solv.prm

>  <Rbt.Receptor>
prm/blind_docking_60.prm

>  <SCORE>
-15.6067

>  <SCORE.INTER>
-15.6067

>  <SCORE.INTER.CONST>
1

>  <SCORE.INTER.POLAR>
0

>  <SCORE.INTER.ROT>
0

>  <SCORE.INTER.SOLV>
4.61849

>  <SCORE.INTER.VDW>
-15.544

>  <SCORE.INTER.norm>
-1.56067

>  <SCORE.INTRA>
0

>  <SCORE.INTRA.DIHEDRAL>
0

>  <SCORE.INTRA.DIHEDRAL.0>
0

>  <SCORE.INTRA.POLAR>
0

>  <SCORE.INTRA.POLAR.0>
0

>  <SCORE.INTRA.REPUL>
0

>  <SCORE.INTRA.REPUL.0>
0

>  <SCORE.INTRA.SOLV>
0

>  <SCORE.INTRA.SOLV.lig_0>
-4.28901

>  <SCORE.INTRA.VDW>
0

>  <SCORE.INTRA.VDW.0>
0

>  <SCORE.INTRA.norm>
0

>  <SCORE.RESTR>
0

>  <SCORE.RESTR.CAVITY>
0

>  <SCORE.RESTR.norm>
0

>  <SCORE.SYSTEM>
0

>  <SCORE.SYSTEM.CONST>
0

>  <SCORE.SYSTEM.DIHEDRAL>
0

>  <SCORE.SYSTEM.SOLV>
0

>  <SCORE.SYSTEM.norm>
0

>  <SCORE.heavy>
10

>  <SCORE.norm>
-1.56067

>  <RMSD>
3.014

$$$$
ligand
 OpenBabel11021811423D
libRbt.so/2013.1/901 2013/11/27
 10 11  0  0  0  0  0  0  0  0999 V2000
   11.0526   12.9502    5.8592 N   0  0  0  0  0  0  0  0  0  0  0  0
   11.0935   13.5644    7.0974 C   0  0  0  0  0  0  0  0  0  0  0  0
   11.3276   12.8804    8.2257 N   0  0  0  0  0  0  0  0  0  0  0  0
   11.5119   11.5505    8.0194 C   0  0  0  0  0  0  0  0  0  0  0  0
   11.4832   10.8719    6.8141 C   0  0  0  0  0  0  0  0  0  0  0  0
   11.2367   11.5870    5.6064 C   0  0  0  0  0  0  0  0  0  0  0  0
   11.1682   11.1896    4.4345 O   0  0  0  0  0  0  0  0  0  0  0  0
   11.7169    9.5470    7.0610 N   0  0  0  0  0  0  0  0  0  0  0  0
   11.8869    9.4293    8.4016 C   0  0  0  0  0  0  0  0  0  0  0  0
   11.7657   10.6468    9.0204 N   0  0  0  0  0  0  0  0  0  0  0  0
  1  2  1  0  0  0  0
  1  6  1  0  0  0  0
  2  3  2  0  0  0  0
  3  4  1  0  0  0  0
  4  5  2  0  0  0  0
  4 10  1  0  0  0  0
  5  6  1  0  0  0  0
  5  8  1  0  0  0  0
  6  7  2  0  0  0  0
  8  9  1  0  0  0  0
  9 10  2  0  0  0  0
M  END
>  <CHROM.1>
11.41908763,11.41980134,7.00433713,2.82339766,1.38101541,-2.19175053

>  <Name>
ligand

>  <RI>
0

>  <Rbt.Current_Directory>
/home/itssahil/PROJECTS/Mol_Feturizer/New_Systems/rnas/2EEW

>  <Rbt.Executable>
rbdock ($Id: //depot/dev/client3/rdock/2013.1/src/exe/rbdock.cxx#4 $)

>  <Rbt.Library>
libRbt.so (2013.1, Build901 2013/11/27)

>  <Rbt.Parameter_File>
/export/apps/rDock/src/rDock_2013.1_src/data/scripts/dock_solv.prm

>  <Rbt.Receptor>
prm/blind_docking_80.prm

>  <SCORE>
-15.6142

>  <SCORE.INTER>
-15.6142

>  <SCORE.INTER.CONST>
1

>  <SCORE.INTER.POLAR>
0

>  <SCORE.INTER.ROT>
0

>  <SCORE.INTER.SOLV>
4.60162

>  <SCORE.INTER.VDW>
-15.5433

>  <SCORE.INTER.norm>
-1.56142

>  <SCORE.INTRA>
0

>  <SCORE.INTRA.DIHEDRAL>
0

>  <SCORE.INTRA.DIHEDRAL.0>
0

>  <SCORE.INTRA.POLAR>
0

>  <SCORE.INTRA.POLAR.0>
0

>  <SCORE.INTRA.REPUL>
0

>  <SCORE.INTRA.REPUL.0>
0

>  <SCORE.INTRA.SOLV>
0

>  <SCORE.INTRA.SOLV.lig_0>
-4.28901

>  <SCORE.INTRA.VDW>
0

>  <SCORE.INTRA.VDW.0>
0

>  <SCORE.INTRA.norm>
0

>  <SCORE.RESTR>
0

>  <SCORE.RESTR.CAVITY>
0

>  <SCORE.RESTR.norm>
0

>  <SCORE.SYSTEM>
0

>  <SCORE.SYSTEM.CONST>
0

>  <SCORE.SYSTEM.DIHEDRAL>
0

>  <SCORE.SYSTEM.SOLV>
0

>  <SCORE.SYSTEM.norm>
0

>  <SCORE.heavy>
10

>  <SCORE.norm>
-1.56142

>  <RMSD>
3.014

$$$$
ligand
 OpenBabel11021811423D
libRbt.so/2013.1/901 2013/11/27
 10 11  0  0  0  0  0  0  0  0999 V2000
   11.0486   12.9359    5.8900 N   0  0  0  0  0  0  0  0  0  0  0  0
   11.1238   13.5012    7.1496 C   0  0  0  0  0  0  0  0  0  0  0  0
   11.3665   12.7704    8.2462 N   0  0  0  0  0  0  0  0  0  0  0  0
   11.5229   11.4464    7.9859 C   0  0  0  0  0  0  0  0  0  0  0  0
   11.4595   10.8153    6.7563 C   0  0  0  0  0  0  0  0  0  0  0  0
   11.2034   11.5805    5.5818 C   0  0  0  0  0  0  0  0  0  0  0  0
   11.1059   11.2297    4.3971 O   0  0  0  0  0  0  0  0  0  0  0  0
   11.6739    9.4781    6.9479 N   0  0  0  0  0  0  0  0  0  0  0  0
   11.8667    9.3059    8.2795 C   0  0  0  0  0  0  0  0  0  0  0  0
   11.7790   10.5006    8.9465 N   0  0  0  0  0  0  0  0  0  0  0  0
  1  2  1  0  0  0  0
  1  6  1  0  0  0  0
  2  3  2  0  0  0  0
  3  4  1  0  0  0  0
  4  5  2  0  0  0  0
  4 10  1  0  0  0  0
  5  6  1  0  0  0  0
  5  8  1  0  0  0  0
  6  7  2  0  0  0  0
  8  9  1  0  0  0  0
  9 10  2  0  0  0  0
M  END
>  <CHROM.1>
11.40883214,11.35649938,6.96852044,2.96138797,1.38305714,-2.28896150

>  <Name>
ligand

>  <RI>
0

>  <Rbt.Current_Directory>
/home/itssahil/PROJECTS/Mol_Feturizer/New_Systems/rnas/2EEW

>  <Rbt.Executable>
rbdock ($Id: //depot/dev/client3/rdock/2013.1/src/exe/rbdock.cxx#4 $)

>  <Rbt.Library>
libRbt.so (2013.1, Build901 2013/11/27)

>  <Rbt.Parameter_File>
/export/apps/rDock/src/rDock_2013.1_src/data/scripts/dock_solv.prm

>  <Rbt.Receptor>
prm/blind_docking_100.prm

>  <SCORE>
-15.5853

>  <SCORE.INTER>
-15.5853

>  <SCORE.INTER.CONST>
1

>  <SCORE.INTER.POLAR>
0

>  <SCORE.INTER.ROT>
0

>  <SCORE.INTER.SOLV>
4.63994

>  <SCORE.INTER.VDW>
-15.5369

>  <SCORE.INTER.norm>
-1.55853

>  <SCORE.INTRA>
0

>  <SCORE.INTRA.DIHEDRAL>
0

>  <SCORE.INTRA.DIHEDRAL.0>
0

>  <SCORE.INTRA.POLAR>
0

>  <SCORE.INTRA.POLAR.0>
0

>  <SCORE.INTRA.REPUL>
0

>  <SCORE.INTRA.REPUL.0>
0

>  <SCORE.INTRA.SOLV>
0

>  <SCORE.INTRA.SOLV.lig_0>
-4.28901

>  <SCORE.INTRA.VDW>
0

>  <SCORE.INTRA.VDW.0>
0

>  <SCORE.INTRA.norm>
0

>  <SCORE.RESTR>
0

>  <SCORE.RESTR.CAVITY>
0

>  <SCORE.RESTR.norm>
0

>  <SCORE.SYSTEM>
0

>  <SCORE.SYSTEM.CONST>
0

>  <SCORE.SYSTEM.DIHEDRAL>
0

>  <SCORE.SYSTEM.SOLV>
0

>  <SCORE.SYSTEM.norm>
0

>  <SCORE.heavy>
10

>  <SCORE.norm>
-1.55853

>  <RMSD>
3.020

$$$$
ligand
 OpenBabel11021811423D
libRbt.so/2013.1/901 2013/11/27
 10 11  0  0  0  0  0  0  0  0999 V2000
   11.0490   12.9454    5.8914 N   0  0  0  0  0  0  0  0  0  0  0  0
   11.1076   13.5040    7.1549 C   0  0  0  0  0  0  0  0  0  0  0  0
   11.3461   12.7688    8.2496 N   0  0  0  0  0  0  0  0  0  0  0  0
   11.5159   11.4477    7.9831 C   0  0  0  0  0  0  0  0  0  0  0  0
   11.4692   10.8232    6.7494 C   0  0  0  0  0  0  0  0  0  0  0  0
   11.2178   11.5932    5.5769 C   0  0  0  0  0  0  0  0  0  0  0  0
   11.1343   11.2485    4.3894 O   0  0  0  0  0  0  0  0  0  0  0  0
   11.6928    9.4867    6.9353 N   0  0  0  0  0  0  0  0  0  0  0  0
   11.8747    9.3084    8.2676 C   0  0  0  0  0  0  0  0  0  0  0  0
   11.7709   10.4984    8.9407 N   0  0  0  0  0  0  0  0  0  0  0  0
  1  2  1  0  0  0  0
  1  6  1  0  0  0  0
  2  3  2  0  0  0  0
  3  4  1  0  0  0  0
  4  5  2  0  0  0  0
  4 10  1  0  0  0  0
  5  6  1  0  0  0  0
  5  8  1  0  0  0  0
  6  7  2  0  0  0  0
  8  9  1  0  0  0  0
  9 10  2  0  0  0  0
M  END
>  <CHROM.1>
11.41210747,11.36274790,6.96421256,2.89465539,1.38257019,-2.21761162

>  <Name>
ligand

>  <RI>
0

>  <Rbt.Current_Directory>
/home/itssahil/PROJECTS/Mol_Feturizer/New_Systems/rnas/2EEW

>  <Rbt.Executable>
rbdock ($Id: //depot/dev/client3/rdock/2013.1/src/exe/rbdock.cxx#4 $)

>  <Rbt.Library>
libRbt.so (2013.1, Build901 2013/11/27)

>  <Rbt.Parameter_File>
/export/apps/rDock/src/rDock_2013.1_src/data/scripts/dock_solv.prm

>  <Rbt.Receptor>
prm/blind_docking_60.prm

>  <SCORE>
-15.573

>  <SCORE.INTER>
-15.573

>  <SCORE.INTER.CONST>
1

>  <SCORE.INTER.POLAR>
0

>  <SCORE.INTER.ROT>
0

>  <SCORE.INTER.SOLV>
4.63529

>  <SCORE.INTER.VDW>
-15.5271

>  <SCORE.INTER.norm>
-1.5573

>  <SCORE.INTRA>
0

>  <SCORE.INTRA.DIHEDRAL>
0

>  <SCORE.INTRA.DIHEDRAL.0>
0

>  <SCORE.INTRA.POLAR>
0

>  <SCORE.INTRA.POLAR.0>
0

>  <SCORE.INTRA.REPUL>
0

>  <SCORE.INTRA.REPUL.0>
0

>  <SCORE.INTRA.SOLV>
0

>  <SCORE.INTRA.SOLV.lig_0>
-4.28901

>  <SCORE.INTRA.VDW>
0

>  <SCORE.INTRA.VDW.0>
0

>  <SCORE.INTRA.norm>
0

>  <SCORE.RESTR>
0

>  <SCORE.RESTR.CAVITY>
0

>  <SCORE.RESTR.norm>
0

>  <SCORE.SYSTEM>
0

>  <SCORE.SYSTEM.CONST>
0

>  <SCORE.SYSTEM.DIHEDRAL>
0

>  <SCORE.SYSTEM.SOLV>
0

>  <SCORE.SYSTEM.norm>
0

>  <SCORE.heavy>
10

>  <SCORE.norm>
-1.5573

>  <RMSD>
3.020

$$$$
ligand
 OpenBabel11021811423D
libRbt.so/2013.1/901 2013/11/27
 10 11  0  0  0  0  0  0  0  0999 V2000
   10.8851   12.8618    5.8157 N   0  0  0  0  0  0  0  0  0  0  0  0
   10.8476   13.4377    7.0722 C   0  0  0  0  0  0  0  0  0  0  0  0
   11.1000   12.7367    8.1860 N   0  0  0  0  0  0  0  0  0  0  0  0
   11.3861   11.4307    7.9458 C   0  0  0  0  0  0  0  0  0  0  0  0
   11.4395   10.7905    6.7204 C   0  0  0  0  0  0  0  0  0  0  0  0
   11.1746   11.5242    5.5279 C   0  0  0  0  0  0  0  0  0  0  0  0
   11.1670   11.1604    4.3431 O   0  0  0  0  0  0  0  0  0  0  0  0
   11.7621    9.4787    6.9345 N   0  0  0  0  0  0  0  0  0  0  0  0
   11.9037    9.3308    8.2754 C   0  0  0  0  0  0  0  0  0  0  0  0
   11.6776   10.5161    8.9264 N   0  0  0  0  0  0  0  0  0  0  0  0
  1  2  1  0  0  0  0
  1  6  1  0  0  0  0
  2  3  2  0  0  0  0
  3  4  1  0  0  0  0
  4  5  2  0  0  0  0
  4 10  1  0  0  0  0
  5  6  1  0  0  0  0
  5  8  1  0  0  0  0
  6  7  2  0  0  0  0
  8  9  1  0  0  0  0
  9 10  2  0  0  0  0
M  END
>  <CHROM.1>
11.33060082,11.32606791,6.92492872,2.55115600,1.32901378,-1.89478129

>  <Name>
ligand

>  <RI>
0

>  <Rbt.Current_Directory>
/home/itssahil/PROJECTS/Mol_Feturizer/New_Systems/rnas/2EEW

>  <Rbt.Executable>
rbdock ($Id: //depot/dev/client3/rdock/2013.1/src/exe/rbdock.cxx#4 $)

>  <Rbt.Library>
libRbt.so (2013.1, Build901 2013/11/27)

>  <Rbt.Parameter_File>
/export/apps/rDock/src/rDock_2013.1_src/data/scripts/dock_solv.prm

>  <Rbt.Receptor>
prm/blind_docking_20.prm

>  <SCORE>
-15.3252

>  <SCORE.INTER>
-15.3252

>  <SCORE.INTER.CONST>
1

>  <SCORE.INTER.POLAR>
0

>  <SCORE.INTER.ROT>
0

>  <SCORE.INTER.SOLV>
4.63629

>  <SCORE.INTER.VDW>
-15.3622

>  <SCORE.INTER.norm>
-1.53252

>  <SCORE.INTRA>
0

>  <SCORE.INTRA.DIHEDRAL>
0

>  <SCORE.INTRA.DIHEDRAL.0>
0

>  <SCORE.INTRA.POLAR>
0

>  <SCORE.INTRA.POLAR.0>
0

>  <SCORE.INTRA.REPUL>
0

>  <SCORE.INTRA.REPUL.0>
0

>  <SCORE.INTRA.SOLV>
0

>  <SCORE.INTRA.SOLV.lig_0>
-4.28901

>  <SCORE.INTRA.VDW>
0

>  <SCORE.INTRA.VDW.0>
0

>  <SCORE.INTRA.norm>
0

>  <SCORE.RESTR>
0

>  <SCORE.RESTR.CAVITY>
0

>  <SCORE.RESTR.norm>
0

>  <SCORE.SYSTEM>
0

>  <SCORE.SYSTEM.CONST>
0

>  <SCORE.SYSTEM.DIHEDRAL>
0

>  <SCORE.SYSTEM.SOLV>
0

>  <SCORE.SYSTEM.norm>
0

>  <SCORE.heavy>
10

>  <SCORE.norm>
-1.53252

>  <RMSD>
3.037

$$$$
ligand
 OpenBabel11021811423D
libRbt.so/2013.1/901 2013/11/27
 10 11  0  0  0  0  0  0  0  0999 V2000
   10.8526   12.8560    5.7952 N   0  0  0  0  0  0  0  0  0  0  0  0
   10.8278   13.4273    7.0542 C   0  0  0  0  0  0  0  0  0  0  0  0
   11.0994   12.7242    8.1621 N   0  0  0  0  0  0  0  0  0  0  0  0
   11.3910   11.4210    7.9135 C   0  0  0  0  0  0  0  0  0  0  0  0
   11.4326   10.7853    6.6853 C   0  0  0  0  0  0  0  0  0  0  0  0
   11.1472   11.5213    5.4989 C   0  0  0  0  0  0  0  0  0  0  0  0
   11.1265   11.1616    4.3131 O   0  0  0  0  0  0  0  0  0  0  0  0
   11.7666    9.4750    6.8905 N   0  0  0  0  0  0  0  0  0  0  0  0
   11.9268    9.3234    8.2289 C   0  0  0  0  0  0  0  0  0  0  0  0
   11.7014   10.5050    8.8870 N   0  0  0  0  0  0  0  0  0  0  0  0
  1  2  1  0  0  0  0
  1  6  1  0  0  0  0
  2  3  2  0  0  0  0
  3  4  1  0  0  0  0
  4  5  2  0  0  0  0
  4 10  1  0  0  0  0
  5  6  1  0  0  0  0
  5  8  1  0  0  0  0
  6  7  2  0  0  0  0
  8  9  1  0  0  0  0
  9 10  2  0  0  0  0
M  END
>  <CHROM.1>
11.32281906,11.31945593,6.89310679,2.59251874,1.31835369,-1.93140952

>  <Name>
ligand

>  <RI>
0

>  <Rbt.Current_Directory>
/home/itssahil/PROJECTS/Mol_Feturizer/New_Systems/rnas/2EEW

>  <Rbt.Executable>
rbdock ($Id: //depot/dev/client3/rdock/2013.1/src/exe/rbdock.cxx#4 $)

>  <Rbt.Library>
libRbt.so (2013.1, Build901 2013/11/27)

>  <Rbt.Parameter_File>
/export/apps/rDock/src/rDock_2013.1_src/data/scripts/dock_solv.prm

>  <Rbt.Receptor>
prm/blind_docking_20.prm

>  <SCORE>
-15.3318

>  <SCORE.INTER>
-15.3318

>  <SCORE.INTER.CONST>
1

>  <SCORE.INTER.POLAR>
0

>  <SCORE.INTER.ROT>
0

>  <SCORE.INTER.SOLV>
4.61969

>  <SCORE.INTER.VDW>
-15.3611

>  <SCORE.INTER.norm>
-1.53318

>  <SCORE.INTRA>
0

>  <SCORE.INTRA.DIHEDRAL>
0

>  <SCORE.INTRA.DIHEDRAL.0>
0

>  <SCORE.INTRA.POLAR>
0

>  <SCORE.INTRA.POLAR.0>
0

>  <SCORE.INTRA.REPUL>
0

>  <SCORE.INTRA.REPUL.0>
0

>  <SCORE.INTRA.SOLV>
0

>  <SCORE.INTRA.SOLV.lig_0>
-4.28901

>  <SCORE.INTRA.VDW>
0

>  <SCORE.INTRA.VDW.0>
0

>  <SCORE.INTRA.norm>
0

>  <SCORE.RESTR>
0

>  <SCORE.RESTR.CAVITY>
0

>  <SCORE.RESTR.norm>
0

>  <SCORE.SYSTEM>
0

>  <SCORE.SYSTEM.CONST>
0

>  <SCORE.SYSTEM.DIHEDRAL>
0

>  <SCORE.SYSTEM.SOLV>
0

>  <SCORE.SYSTEM.norm>
0

>  <SCORE.heavy>
10

>  <SCORE.norm>
-1.53318

>  <RMSD>
3.044

$$$$
ligand
 OpenBabel11021811423D
libRbt.so/2013.1/901 2013/11/27
 10 11  0  0  0  0  0  0  0  0999 V2000
   10.9299   12.8649    5.2370 N   0  0  0  0  0  0  0  0  0  0  0  0
   11.0576   13.5890    6.4080 C   0  0  0  0  0  0  0  0  0  0  0  0
   11.3665   13.0086    7.5756 N   0  0  0  0  0  0  0  0  0  0  0  0
   11.5323   11.6638    7.4800 C   0  0  0  0  0  0  0  0  0  0  0  0
   11.4188   10.8784    6.3467 C   0  0  0  0  0  0  0  0  0  0  0  0
   11.0921   11.4827    5.0981 C   0  0  0  0  0  0  0  0  0  0  0  0
   10.9421   10.9808    3.9750 O   0  0  0  0  0  0  0  0  0  0  0  0
   11.6650    9.5795    6.6973 N   0  0  0  0  0  0  0  0  0  0  0  0
   11.9263    9.5829    8.0284 C   0  0  0  0  0  0  0  0  0  0  0  0
   11.8515   10.8528    8.5399 N   0  0  0  0  0  0  0  0  0  0  0  0
  1  2  1  0  0  0  0
  1  6  1  0  0  0  0
  2  3  2  0  0  0  0
  3  4  1  0  0  0  0
  4  5  2  0  0  0  0
  4 10  1  0  0  0  0
  5  6  1  0  0  0  0
  5  8  1  0  0  0  0
  6  7  2  0  0  0  0
  8  9  1  0  0  0  0
  9 10  2  0  0  0  0
M  END
>  <CHROM.1>
11.36957953,11.44197231,6.48982098,3.07399067,1.33636003,-2.52845989

>  <Name>
ligand

>  <RI>
0

>  <Rbt.Current_Directory>
/home/itssahil/PROJECTS/Mol_Feturizer/New_Systems/rnas/2EEW

>  <Rbt.Executable>
rbdock ($Id: //depot/dev/client3/rdock/2013.1/src/exe/rbdock.cxx#4 $)

>  <Rbt.Library>
libRbt.so (2013.1, Build901 2013/11/27)

>  <Rbt.Parameter_File>
/export/apps/rDock/src/rDock_2013.1_src/data/scripts/dock_solv.prm

>  <Rbt.Receptor>
prm/blind_docking_20.prm

>  <SCORE>
-15.5235

>  <SCORE.INTER>
-15.5235

>  <SCORE.INTER.CONST>
1

>  <SCORE.INTER.POLAR>
0

>  <SCORE.INTER.ROT>
0

>  <SCORE.INTER.SOLV>
4.71278

>  <SCORE.INTER.VDW>
-15.5199

>  <SCORE.INTER.norm>
-1.55235

>  <SCORE.INTRA>
0

>  <SCORE.INTRA.DIHEDRAL>
0

>  <SCORE.INTRA.DIHEDRAL.0>
0

>  <SCORE.INTRA.POLAR>
0

>  <SCORE.INTRA.POLAR.0>
0

>  <SCORE.INTRA.REPUL>
0

>  <SCORE.INTRA.REPUL.0>
0

>  <SCORE.INTRA.SOLV>
0

>  <SCORE.INTRA.SOLV.lig_0>
-4.28901

>  <SCORE.INTRA.VDW>
0

>  <SCORE.INTRA.VDW.0>
0

>  <SCORE.INTRA.norm>
0

>  <SCORE.RESTR>
0

>  <SCORE.RESTR.CAVITY>
0

>  <SCORE.RESTR.norm>
0

>  <SCORE.SYSTEM>
0

>  <SCORE.SYSTEM.CONST>
0

>  <SCORE.SYSTEM.DIHEDRAL>
0

>  <SCORE.SYSTEM.SOLV>
0

>  <SCORE.SYSTEM.norm>
0

>  <SCORE.heavy>
10

>  <SCORE.norm>
-1.55235

>  <RMSD>
3.144

$$$$
ligand
 OpenBabel11021811423D
libRbt.so/2013.1/901 2013/11/27
 10 11  0  0  0  0  0  0  0  0999 V2000
   10.9065   12.8386    5.1666 N   0  0  0  0  0  0  0  0  0  0  0  0
   11.0631   13.5849    6.3201 C   0  0  0  0  0  0  0  0  0  0  0  0
   11.3906   13.0254    7.4928 N   0  0  0  0  0  0  0  0  0  0  0  0
   11.5438   11.6776    7.4210 C   0  0  0  0  0  0  0  0  0  0  0  0
   11.4017   10.8707    6.3062 C   0  0  0  0  0  0  0  0  0  0  0  0
   11.0550   11.4527    5.0524 C   0  0  0  0  0  0  0  0  0  0  0  0
   10.8788   10.9296    3.9428 O   0  0  0  0  0  0  0  0  0  0  0  0
   11.6445    9.5770    6.6780 N   0  0  0  0  0  0  0  0  0  0  0  0
   11.9322    9.6048    8.0033 C   0  0  0  0  0  0  0  0  0  0  0  0
   11.8776   10.8852    8.4905 N   0  0  0  0  0  0  0  0  0  0  0  0
  1  2  1  0  0  0  0
  1  6  1  0  0  0  0
  2  3  2  0  0  0  0
  3  4  1  0  0  0  0
  4  5  2  0  0  0  0
  4 10  1  0  0  0  0
  5  6  1  0  0  0  0
  5  8  1  0  0  0  0
  6  7  2  0  0  0  0
  8  9  1  0  0  0  0
  9 10  2  0  0  0  0
M  END
>  <CHROM.1>
11.35974125,11.43737378,6.43891284,-3.13604190,1.32400942,-2.61954451

>  <Name>
ligand

>  <RI>
0

>  <Rbt.Current_Directory>
/home/itssahil/PROJECTS/Mol_Feturizer/New_Systems/rnas/2EEW

>  <Rbt.Executable>
rbdock ($Id: //depot/dev/client3/rdock/2013.1/src/exe/rbdock.cxx#4 $)

>  <Rbt.Library>
libRbt.so (2013.1, Build901 2013/11/27)

>  <Rbt.Parameter_File>
/export/apps/rDock/src/rDock_2013.1_src/data/scripts/dock_solv.prm

>  <Rbt.Receptor>
prm/blind_docking_20.prm

>  <SCORE>
-15.6004

>  <SCORE.INTER>
-15.6004

>  <SCORE.INTER.CONST>
1

>  <SCORE.INTER.POLAR>
0

>  <SCORE.INTER.ROT>
0

>  <SCORE.INTER.SOLV>
4.70858

>  <SCORE.INTER.VDW>
-15.5698

>  <SCORE.INTER.norm>
-1.56004

>  <SCORE.INTRA>
0

>  <SCORE.INTRA.DIHEDRAL>
0

>  <SCORE.INTRA.DIHEDRAL.0>
0

>  <SCORE.INTRA.POLAR>
0

>  <SCORE.INTRA.POLAR.0>
0

>  <SCORE.INTRA.REPUL>
0

>  <SCORE.INTRA.REPUL.0>
0

>  <SCORE.INTRA.SOLV>
0

>  <SCORE.INTRA.SOLV.lig_0>
-4.28901

>  <SCORE.INTRA.VDW>
0

>  <SCORE.INTRA.VDW.0>
0

>  <SCORE.INTRA.norm>
0

>  <SCORE.RESTR>
0

>  <SCORE.RESTR.CAVITY>
0

>  <SCORE.RESTR.norm>
0

>  <SCORE.SYSTEM>
0

>  <SCORE.SYSTEM.CONST>
0

>  <SCORE.SYSTEM.DIHEDRAL>
0

>  <SCORE.SYSTEM.SOLV>
0

>  <SCORE.SYSTEM.norm>
0

>  <SCORE.heavy>
10

>  <SCORE.norm>
-1.56004

>  <RMSD>
3.163

$$$$
ligand
 OpenBabel11021811423D
libRbt.so/2013.1/901 2013/11/27
 10 11  0  0  0  0  0  0  0  0999 V2000
   10.9156   12.8590    5.1132 N   0  0  0  0  0  0  0  0  0  0  0  0
   11.0728   13.6410    6.2426 C   0  0  0  0  0  0  0  0  0  0  0  0
   11.4065   13.1192    7.4309 N   0  0  0  0  0  0  0  0  0  0  0  0
   11.5653   11.7705    7.4000 C   0  0  0  0  0  0  0  0  0  0  0  0
   11.4229   10.9291    6.3110 C   0  0  0  0  0  0  0  0  0  0  0  0
   11.0697   11.4708    5.0411 C   0  0  0  0  0  0  0  0  0  0  0  0
   10.8921   10.9132    3.9487 O   0  0  0  0  0  0  0  0  0  0  0  0
   11.6725    9.6485    6.7215 N   0  0  0  0  0  0  0  0  0  0  0  0
   11.9644    9.7182    8.0444 C   0  0  0  0  0  0  0  0  0  0  0  0
   11.9059   11.0128    8.4922 N   0  0  0  0  0  0  0  0  0  0  0  0
  1  2  1  0  0  0  0
  1  6  1  0  0  0  0
  2  3  2  0  0  0  0
  3  4  1  0  0  0  0
  4  5  2  0  0  0  0
  4 10  1  0  0  0  0
  5  6  1  0  0  0  0
  5  8  1  0  0  0  0
  6  7  2  0  0  0  0
  8  9  1  0  0  0  0
  9 10  2  0  0  0  0
M  END
>  <CHROM.1>
11.37898902,11.49940728,6.42638173,3.13889782,1.31903901,-2.64229484

>  <Name>
ligand

>  <RI>
0

>  <Rbt.Current_Directory>
/home/itssahil/PROJECTS/Mol_Feturizer/New_Systems/rnas/2EEW

>  <Rbt.Executable>
rbdock ($Id: //depot/dev/client3/rdock/2013.1/src/exe/rbdock.cxx#4 $)

>  <Rbt.Library>
libRbt.so (2013.1, Build901 2013/11/27)

>  <Rbt.Parameter_File>
/export/apps/rDock/src/rDock_2013.1_src/data/scripts/dock_solv.prm

>  <Rbt.Receptor>
prm/blind_docking_40.prm

>  <SCORE>
-15.7036

>  <SCORE.INTER>
-15.7036

>  <SCORE.INTER.CONST>
1

>  <SCORE.INTER.POLAR>
0

>  <SCORE.INTER.ROT>
0

>  <SCORE.INTER.SOLV>
4.69783

>  <SCORE.INTER.VDW>
-15.635

>  <SCORE.INTER.norm>
-1.57036

>  <SCORE.INTRA>
0

>  <SCORE.INTRA.DIHEDRAL>
0

>  <SCORE.INTRA.DIHEDRAL.0>
0

>  <SCORE.INTRA.POLAR>
0

>  <SCORE.INTRA.POLAR.0>
0

>  <SCORE.INTRA.REPUL>
0

>  <SCORE.INTRA.REPUL.0>
0

>  <SCORE.INTRA.SOLV>
0

>  <SCORE.INTRA.SOLV.lig_0>
-4.28901

>  <SCORE.INTRA.VDW>
0

>  <SCORE.INTRA.VDW.0>
0

>  <SCORE.INTRA.norm>
0

>  <SCORE.RESTR>
0

>  <SCORE.RESTR.CAVITY>
0

>  <SCORE.RESTR.norm>
0

>  <SCORE.SYSTEM>
0

>  <SCORE.SYSTEM.CONST>
0

>  <SCORE.SYSTEM.DIHEDRAL>
0

>  <SCORE.SYSTEM.SOLV>
0

>  <SCORE.SYSTEM.norm>
0

>  <SCORE.heavy>
10

>  <SCORE.norm>
-1.57036

>  <RMSD>
3.167

$$$$
ligand
 OpenBabel11021811423D
libRbt.so/2013.1/901 2013/11/27
 10 11  0  0  0  0  0  0  0  0999 V2000
   10.9148   12.8547    5.1159 N   0  0  0  0  0  0  0  0  0  0  0  0
   11.0612   13.6337    6.2489 C   0  0  0  0  0  0  0  0  0  0  0  0
   11.3979   13.1106    7.4357 N   0  0  0  0  0  0  0  0  0  0  0  0
   11.5712   11.7638    7.3996 C   0  0  0  0  0  0  0  0  0  0  0  0
   11.4402   10.9255    6.3069 C   0  0  0  0  0  0  0  0  0  0  0  0
   11.0838   11.4686    5.0385 C   0  0  0  0  0  0  0  0  0  0  0  0
   10.9146   10.9136    3.9433 O   0  0  0  0  0  0  0  0  0  0  0  0
   11.7026    9.6459    6.7127 N   0  0  0  0  0  0  0  0  0  0  0  0
   11.9909    9.7133    8.0364 C   0  0  0  0  0  0  0  0  0  0  0  0
   11.9176   11.0053    8.4895 N   0  0  0  0  0  0  0  0  0  0  0  0
  1  2  1  0  0  0  0
  1  6  1  0  0  0  0
  2  3  2  0  0  0  0
  3  4  1  0  0  0  0
  4  5  2  0  0  0  0
  4 10  1  0  0  0  0
  5  6  1  0  0  0  0
  5  8  1  0  0  0  0
  6  7  2  0  0  0  0
  8  9  1  0  0  0  0
  9 10  2  0  0  0  0
M  END
>  <CHROM.1>
11.38989419,11.49479487,6.42450087,3.09756326,1.31556341,-2.59814788

>  <Name>
ligand

>  <RI>
0

>  <Rbt.Current_Directory>
/home/itssahil/PROJECTS/Mol_Feturizer/New_Systems/rnas/2EEW

>  <Rbt.Executable>
rbdock ($Id: //depot/dev/client3/rdock/2013.1/src/exe/rbdock.cxx#4 $)

>  <Rbt.Library>
libRbt.so (2013.1, Build901 2013/11/27)

>  <Rbt.Parameter_File>
/export/apps/rDock/src/rDock_2013.1_src/data/scripts/dock_solv.prm

>  <Rbt.Receptor>
prm/blind_docking_60.prm

>  <SCORE>
-15.7005

>  <SCORE.INTER>
-15.7005

>  <SCORE.INTER.CONST>
1

>  <SCORE.INTER.POLAR>
0

>  <SCORE.INTER.ROT>
0

>  <SCORE.INTER.SOLV>
4.68547

>  <SCORE.INTER.VDW>
-15.6288

>  <SCORE.INTER.norm>
-1.57005

>  <SCORE.INTRA>
0

>  <SCORE.INTRA.DIHEDRAL>
0

>  <SCORE.INTRA.DIHEDRAL.0>
0

>  <SCORE.INTRA.POLAR>
0

>  <SCORE.INTRA.POLAR.0>
0

>  <SCORE.INTRA.REPUL>
0

>  <SCORE.INTRA.REPUL.0>
0

>  <SCORE.INTRA.SOLV>
0

>  <SCORE.INTRA.SOLV.lig_0>
-4.28901

>  <SCORE.INTRA.VDW>
0

>  <SCORE.INTRA.VDW.0>
0

>  <SCORE.INTRA.norm>
0

>  <SCORE.RESTR>
0

>  <SCORE.RESTR.CAVITY>
0

>  <SCORE.RESTR.norm>
0

>  <SCORE.SYSTEM>
0

>  <SCORE.SYSTEM.CONST>
0

>  <SCORE.SYSTEM.DIHEDRAL>
0

>  <SCORE.SYSTEM.SOLV>
0

>  <SCORE.SYSTEM.norm>
0

>  <SCORE.heavy>
10

>  <SCORE.norm>
-1.57005

>  <RMSD>
3.167

$$$$
ligand
 OpenBabel11021811423D
libRbt.so/2013.1/901 2013/11/27
 10 11  0  0  0  0  0  0  0  0999 V2000
   10.9278   12.8726    5.1085 N   0  0  0  0  0  0  0  0  0  0  0  0
   11.0722   13.6530    6.2408 C   0  0  0  0  0  0  0  0  0  0  0  0
   11.3953   13.1298    7.4313 N   0  0  0  0  0  0  0  0  0  0  0  0
   11.5574   11.7815    7.3997 C   0  0  0  0  0  0  0  0  0  0  0  0
   11.4277   10.9418    6.3078 C   0  0  0  0  0  0  0  0  0  0  0  0
   11.0857   11.4849    5.0355 C   0  0  0  0  0  0  0  0  0  0  0  0
   10.9201   10.9288    3.9404 O   0  0  0  0  0  0  0  0  0  0  0  0
   11.6761    9.6610    6.7186 N   0  0  0  0  0  0  0  0  0  0  0  0
   11.9549    9.7290    8.0443 C   0  0  0  0  0  0  0  0  0  0  0  0
   11.8891   11.0227    8.4938 N   0  0  0  0  0  0  0  0  0  0  0  0
  1  2  1  0  0  0  0
  1  6  1  0  0  0  0
  2  3  2  0  0  0  0
  3  4  1  0  0  0  0
  4  5  2  0  0  0  0
  4 10  1  0  0  0  0
  5  6  1  0  0  0  0
  5  8  1  0  0  0  0
  6  7  2  0  0  0  0
  8  9  1  0  0  0  0
  9 10  2  0  0  0  0
M  END
>  <CHROM.1>
11.38134441,11.51176140,6.42377005,3.11125863,1.32646383,-2.61374945

>  <Name>
ligand

>  <RI>
0

>  <Rbt.Current_Directory>
/home/itssahil/PROJECTS/Mol_Feturizer/New_Systems/rnas/2EEW

>  <Rbt.Executable>
rbdock ($Id: //depot/dev/client3/rdock/2013.1/src/exe/rbdock.cxx#4 $)

>  <Rbt.Library>
libRbt.so (2013.1, Build901 2013/11/27)

>  <Rbt.Parameter_File>
/export/apps/rDock/src/rDock_2013.1_src/data/scripts/dock_solv.prm

>  <Rbt.Receptor>
prm/pocket_docking_8.prm

>  <SCORE>
-15.6711

>  <SCORE.INTER>
-15.6711

>  <SCORE.INTER.CONST>
1

>  <SCORE.INTER.POLAR>
0

>  <SCORE.INTER.ROT>
0

>  <SCORE.INTER.SOLV>
4.71276

>  <SCORE.INTER.VDW>
-15.6183

>  <SCORE.INTER.norm>
-1.56711

>  <SCORE.INTRA>
0

>  <SCORE.INTRA.DIHEDRAL>
0

>  <SCORE.INTRA.DIHEDRAL.0>
0

>  <SCORE.INTRA.POLAR>
0

>  <SCORE.INTRA.POLAR.0>
0

>  <SCORE.INTRA.REPUL>
0

>  <SCORE.INTRA.REPUL.0>
0

>  <SCORE.INTRA.SOLV>
0

>  <SCORE.INTRA.SOLV.lig_0>
-4.28901

>  <SCORE.INTRA.VDW>
0

>  <SCORE.INTRA.VDW.0>
0

>  <SCORE.INTRA.norm>
0

>  <SCORE.RESTR>
0

>  <SCORE.RESTR.CAVITY>
0

>  <SCORE.RESTR.norm>
0

>  <SCORE.SYSTEM>
0

>  <SCORE.SYSTEM.CONST>
0

>  <SCORE.SYSTEM.DIHEDRAL>
0

>  <SCORE.SYSTEM.SOLV>
0

>  <SCORE.SYSTEM.norm>
0

>  <SCORE.heavy>
10

>  <SCORE.norm>
-1.56711

>  <RMSD>
3.167

$$$$
ligand
 OpenBabel11021811423D
libRbt.so/2013.1/901 2013/11/27
 10 11  0  0  0  0  0  0  0  0999 V2000
   10.9137   12.8601    5.1022 N   0  0  0  0  0  0  0  0  0  0  0  0
   11.0548   13.6463    6.2309 C   0  0  0  0  0  0  0  0  0  0  0  0
   11.3793   13.1298    7.4240 N   0  0  0  0  0  0  0  0  0  0  0  0
   11.5462   11.7820    7.3987 C   0  0  0  0  0  0  0  0  0  0  0  0
   11.4199   10.9367    6.3107 C   0  0  0  0  0  0  0  0  0  0  0  0
   11.0765   11.4727    5.0357 C   0  0  0  0  0  0  0  0  0  0  0  0
   10.9133   10.9109    3.9431 O   0  0  0  0  0  0  0  0  0  0  0  0
   11.6726    9.6587    6.7275 N   0  0  0  0  0  0  0  0  0  0  0  0
   11.9506    9.7339    8.0531 C   0  0  0  0  0  0  0  0  0  0  0  0
   11.8801   11.0294    8.4965 N   0  0  0  0  0  0  0  0  0  0  0  0
  1  2  1  0  0  0  0
  1  6  1  0  0  0  0
  2  3  2  0  0  0  0
  3  4  1  0  0  0  0
  4  5  2  0  0  0  0
  4 10  1  0  0  0  0
  5  6  1  0  0  0  0
  5  8  1  0  0  0  0
  6  7  2  0  0  0  0
  8  9  1  0  0  0  0
  9 10  2  0  0  0  0
M  END
>  <CHROM.1>
11.37146893,11.50703812,6.42398715,3.09790109,1.32504160,-2.60545697

>  <Name>
ligand

>  <RI>
0

>  <Rbt.Current_Directory>
/home/itssahil/PROJECTS/Mol_Feturizer/New_Systems/rnas/2EEW

>  <Rbt.Executable>
rbdock ($Id: //depot/dev/client3/rdock/2013.1/src/exe/rbdock.cxx#4 $)

>  <Rbt.Library>
libRbt.so (2013.1, Build901 2013/11/27)

>  <Rbt.Parameter_File>
/export/apps/rDock/src/rDock_2013.1_src/data/scripts/dock_solv.prm

>  <Rbt.Receptor>
prm/pocket_docking_8.prm

>  <SCORE>
-15.6718

>  <SCORE.INTER>
-15.6718

>  <SCORE.INTER.CONST>
1

>  <SCORE.INTER.POLAR>
0

>  <SCORE.INTER.ROT>
0

>  <SCORE.INTER.SOLV>
4.71011

>  <SCORE.INTER.VDW>
-15.6179

>  <SCORE.INTER.norm>
-1.56718

>  <SCORE.INTRA>
0

>  <SCORE.INTRA.DIHEDRAL>
0

>  <SCORE.INTRA.DIHEDRAL.0>
0

>  <SCORE.INTRA.POLAR>
0

>  <SCORE.INTRA.POLAR.0>
0

>  <SCORE.INTRA.REPUL>
0

>  <SCORE.INTRA.REPUL.0>
0

>  <SCORE.INTRA.SOLV>
0

>  <SCORE.INTRA.SOLV.lig_0>
-4.28901

>  <SCORE.INTRA.VDW>
0

>  <SCORE.INTRA.VDW.0>
0

>  <SCORE.INTRA.norm>
0

>  <SCORE.RESTR>
0

>  <SCORE.RESTR.CAVITY>
0

>  <SCORE.RESTR.norm>
0

>  <SCORE.SYSTEM>
0

>  <SCORE.SYSTEM.CONST>
0

>  <SCORE.SYSTEM.DIHEDRAL>
0

>  <SCORE.SYSTEM.SOLV>
0

>  <SCORE.SYSTEM.norm>
0

>  <SCORE.heavy>
10

>  <SCORE.norm>
-1.56718

>  <RMSD>
3.168

$$$$
ligand
 OpenBabel11021811423D
libRbt.so/2013.1/901 2013/11/27
 10 11  0  0  0  0  0  0  0  0999 V2000
   10.9319   12.8477    5.1266 N   0  0  0  0  0  0  0  0  0  0  0  0
   11.0814   13.6070    6.2725 C   0  0  0  0  0  0  0  0  0  0  0  0
   11.4004   13.0607    7.4537 N   0  0  0  0  0  0  0  0  0  0  0  0
   11.5530   11.7121    7.3984 C   0  0  0  0  0  0  0  0  0  0  0  0
   11.4177   10.8926    6.2919 C   0  0  0  0  0  0  0  0  0  0  0  0
   11.0800   11.4604    5.0293 C   0  0  0  0  0  0  0  0  0  0  0  0
   10.9108   10.9249    3.9245 O   0  0  0  0  0  0  0  0  0  0  0  0
   11.6568    9.6030    6.6801 N   0  0  0  0  0  0  0  0  0  0  0  0
   11.9355    9.6458    8.0069 C   0  0  0  0  0  0  0  0  0  0  0  0
   11.8788   10.9317    8.4791 N   0  0  0  0  0  0  0  0  0  0  0  0
  1  2  1  0  0  0  0
  1  6  1  0  0  0  0
  2  3  2  0  0  0  0
  3  4  1  0  0  0  0
  4  5  2  0  0  0  0
  4 10  1  0  0  0  0
  5  6  1  0  0  0  0
  5  8  1  0  0  0  0
  6  7  2  0  0  0  0
  8  9  1  0  0  0  0
  9 10  2  0  0  0  0
M  END
>  <CHROM.1>
11.37529991,11.46077192,6.41786194,3.13631325,1.33030527,-2.62047484

>  <Name>
ligand

>  <RI>
0

>  <Rbt.Current_Directory>
/home/itssahil/PROJECTS/Mol_Feturizer/New_Systems/rnas/2EEW

>  <Rbt.Executable>
rbdock ($Id: //depot/dev/client3/rdock/2013.1/src/exe/rbdock.cxx#4 $)

>  <Rbt.Library>
libRbt.so (2013.1, Build901 2013/11/27)

>  <Rbt.Parameter_File>
/export/apps/rDock/src/rDock_2013.1_src/data/scripts/dock_solv.prm

>  <Rbt.Receptor>
prm/blind_docking_20.prm

>  <SCORE>
-15.609

>  <SCORE.INTER>
-15.609

>  <SCORE.INTER.CONST>
1

>  <SCORE.INTER.POLAR>
0

>  <SCORE.INTER.ROT>
0

>  <SCORE.INTER.SOLV>
4.73157

>  <SCORE.INTER.VDW>
-15.5832

>  <SCORE.INTER.norm>
-1.5609

>  <SCORE.INTRA>
0

>  <SCORE.INTRA.DIHEDRAL>
0

>  <SCORE.INTRA.DIHEDRAL.0>
0

>  <SCORE.INTRA.POLAR>
0

>  <SCORE.INTRA.POLAR.0>
0

>  <SCORE.INTRA.REPUL>
0

>  <SCORE.INTRA.REPUL.0>
0

>  <SCORE.INTRA.SOLV>
0

>  <SCORE.INTRA.SOLV.lig_0>
-4.28901

>  <SCORE.INTRA.VDW>
0

>  <SCORE.INTRA.VDW.0>
0

>  <SCORE.INTRA.norm>
0

>  <SCORE.RESTR>
0

>  <SCORE.RESTR.CAVITY>
0

>  <SCORE.RESTR.norm>
0

>  <SCORE.SYSTEM>
0

>  <SCORE.SYSTEM.CONST>
0

>  <SCORE.SYSTEM.DIHEDRAL>
0

>  <SCORE.SYSTEM.SOLV>
0

>  <SCORE.SYSTEM.norm>
0

>  <SCORE.heavy>
10

>  <SCORE.norm>
-1.5609

>  <RMSD>
3.169

$$$$
ligand
 OpenBabel11021811423D
libRbt.so/2013.1/901 2013/11/27
 10 11  0  0  0  0  0  0  0  0999 V2000
   10.9301   12.8534    5.1259 N   0  0  0  0  0  0  0  0  0  0  0  0
   11.0847   13.6098    6.2730 C   0  0  0  0  0  0  0  0  0  0  0  0
   11.4039   13.0598    7.4525 N   0  0  0  0  0  0  0  0  0  0  0  0
   11.5513   11.7107    7.3940 C   0  0  0  0  0  0  0  0  0  0  0  0
   11.4108   10.8941    6.2861 C   0  0  0  0  0  0  0  0  0  0  0  0
   11.0728   11.4658    5.0253 C   0  0  0  0  0  0  0  0  0  0  0  0
   10.8995   10.9332    3.9198 O   0  0  0  0  0  0  0  0  0  0  0  0
   11.6459    9.6028    6.6711 N   0  0  0  0  0  0  0  0  0  0  0  0
   11.9274    9.6417    7.9975 C   0  0  0  0  0  0  0  0  0  0  0  0
   11.8764   10.9269    8.4725 N   0  0  0  0  0  0  0  0  0  0  0  0
  1  2  1  0  0  0  0
  1  6  1  0  0  0  0
  2  3  2  0  0  0  0
  3  4  1  0  0  0  0
  4  5  2  0  0  0  0
  4 10  1  0  0  0  0
  5  6  1  0  0  0  0
  5  8  1  0  0  0  0
  6  7  2  0  0  0  0
  8  9  1  0  0  0  0
  9 10  2  0  0  0  0
M  END
>  <CHROM.1>
11.37080916,11.46214026,6.41334084,-3.12924612,1.33042707,-2.63549445

>  <Name>
ligand

>  <RI>
0

>  <Rbt.Current_Directory>
/home/itssahil/PROJECTS/Mol_Feturizer/New_Systems/rnas/2EEW

>  <Rbt.Executable>
rbdock ($Id: //depot/dev/client3/rdock/2013.1/src/exe/rbdock.cxx#4 $)

>  <Rbt.Library>
libRbt.so (2013.1, Build901 2013/11/27)

>  <Rbt.Parameter_File>
/export/apps/rDock/src/rDock_2013.1_src/data/scripts/dock_solv.prm

>  <Rbt.Receptor>
prm/blind_docking_20.prm

>  <SCORE>
-15.6425

>  <SCORE.INTER>
-15.6425

>  <SCORE.INTER.CONST>
1

>  <SCORE.INTER.POLAR>
0

>  <SCORE.INTER.ROT>
0

>  <SCORE.INTER.SOLV>
4.73347

>  <SCORE.INTER.VDW>
-15.6062

>  <SCORE.INTER.norm>
-1.56425

>  <SCORE.INTRA>
0

>  <SCORE.INTRA.DIHEDRAL>
0

>  <SCORE.INTRA.DIHEDRAL.0>
0

>  <SCORE.INTRA.POLAR>
0

>  <SCORE.INTRA.POLAR.0>
0

>  <SCORE.INTRA.REPUL>
0

>  <SCORE.INTRA.REPUL.0>
0

>  <SCORE.INTRA.SOLV>
0

>  <SCORE.INTRA.SOLV.lig_0>
-4.28901

>  <SCORE.INTRA.VDW>
0

>  <SCORE.INTRA.VDW.0>
0

>  <SCORE.INTRA.norm>
0

>  <SCORE.RESTR>
0

>  <SCORE.RESTR.CAVITY>
0

>  <SCORE.RESTR.norm>
0

>  <SCORE.SYSTEM>
0

>  <SCORE.SYSTEM.CONST>
0

>  <SCORE.SYSTEM.DIHEDRAL>
0

>  <SCORE.SYSTEM.SOLV>
0

>  <SCORE.SYSTEM.norm>
0

>  <SCORE.heavy>
10

>  <SCORE.norm>
-1.56425

>  <RMSD>
3.170

$$$$
ligand
 OpenBabel11021811423D
libRbt.so/2013.1/901 2013/11/27
 10 11  0  0  0  0  0  0  0  0999 V2000
   10.9316   12.8558    5.1252 N   0  0  0  0  0  0  0  0  0  0  0  0
   11.0873   13.6123    6.2722 C   0  0  0  0  0  0  0  0  0  0  0  0
   11.4076   13.0624    7.4514 N   0  0  0  0  0  0  0  0  0  0  0  0
   11.5549   11.7133    7.3929 C   0  0  0  0  0  0  0  0  0  0  0  0
   11.4133   10.8965    6.2852 C   0  0  0  0  0  0  0  0  0  0  0  0
   11.0742   11.4682    5.0247 C   0  0  0  0  0  0  0  0  0  0  0  0
   10.8998   10.9355    3.9193 O   0  0  0  0  0  0  0  0  0  0  0  0
   11.6487    9.6053    6.6701 N   0  0  0  0  0  0  0  0  0  0  0  0
   11.9314    9.6443    7.9962 C   0  0  0  0  0  0  0  0  0  0  0  0
   11.8809   10.9296    8.4712 N   0  0  0  0  0  0  0  0  0  0  0  0
  1  2  1  0  0  0  0
  1  6  1  0  0  0  0
  2  3  2  0  0  0  0
  3  4  1  0  0  0  0
  4  5  2  0  0  0  0
  4 10  1  0  0  0  0
  5  6  1  0  0  0  0
  5  8  1  0  0  0  0
  6  7  2  0  0  0  0
  8  9  1  0  0  0  0
  9 10  2  0  0  0  0
M  END
>  <CHROM.1>
11.37347803,11.46463497,6.41240983,-3.12715405,1.32964626,-2.63761940

>  <Name>
ligand

>  <RI>
0

>  <Rbt.Current_Directory>
/home/itssahil/PROJECTS/Mol_Feturizer/New_Systems/rnas/2EEW

>  <Rbt.Executable>
rbdock ($Id: //depot/dev/client3/rdock/2013.1/src/exe/rbdock.cxx#4 $)

>  <Rbt.Library>
libRbt.so (2013.1, Build901 2013/11/27)

>  <Rbt.Parameter_File>
/export/apps/rDock/src/rDock_2013.1_src/data/scripts/dock_solv.prm

>  <Rbt.Receptor>
prm/blind_docking_20.prm

>  <SCORE>
-15.6425

>  <SCORE.INTER>
-15.6425

>  <SCORE.INTER.CONST>
1

>  <SCORE.INTER.POLAR>
0

>  <SCORE.INTER.ROT>
0

>  <SCORE.INTER.SOLV>
4.73149

>  <SCORE.INTER.VDW>
-15.6055

>  <SCORE.INTER.norm>
-1.56425

>  <SCORE.INTRA>
0

>  <SCORE.INTRA.DIHEDRAL>
0

>  <SCORE.INTRA.DIHEDRAL.0>
0

>  <SCORE.INTRA.POLAR>
0

>  <SCORE.INTRA.POLAR.0>
0

>  <SCORE.INTRA.REPUL>
0

>  <SCORE.INTRA.REPUL.0>
0

>  <SCORE.INTRA.SOLV>
0

>  <SCORE.INTRA.SOLV.lig_0>
-4.28901

>  <SCORE.INTRA.VDW>
0

>  <SCORE.INTRA.VDW.0>
0

>  <SCORE.INTRA.norm>
0

>  <SCORE.RESTR>
0

>  <SCORE.RESTR.CAVITY>
0

>  <SCORE.RESTR.norm>
0

>  <SCORE.SYSTEM>
0

>  <SCORE.SYSTEM.CONST>
0

>  <SCORE.SYSTEM.DIHEDRAL>
0

>  <SCORE.SYSTEM.SOLV>
0

>  <SCORE.SYSTEM.norm>
0

>  <SCORE.heavy>
10

>  <SCORE.norm>
-1.56425

>  <RMSD>
3.171

$$$$
ligand
 OpenBabel11021811423D
libRbt.so/2013.1/901 2013/11/27
 10 11  0  0  0  0  0  0  0  0999 V2000
   10.9139   12.8435    5.1212 N   0  0  0  0  0  0  0  0  0  0  0  0
   11.0850   13.6081    6.2605 C   0  0  0  0  0  0  0  0  0  0  0  0
   11.4197   13.0665    7.4396 N   0  0  0  0  0  0  0  0  0  0  0  0
   11.5647   11.7169    7.3891 C   0  0  0  0  0  0  0  0  0  0  0  0
   11.4082   10.8922    6.2893 C   0  0  0  0  0  0  0  0  0  0  0  0
   11.0537   11.4550    5.0290 C   0  0  0  0  0  0  0  0  0  0  0  0
   10.8647   10.9144    3.9299 O   0  0  0  0  0  0  0  0  0  0  0  0
   11.6470    9.6036    6.6807 N   0  0  0  0  0  0  0  0  0  0  0  0
   11.9466    9.6520    8.0028 C   0  0  0  0  0  0  0  0  0  0  0  0
   11.9035   10.9407    8.4689 N   0  0  0  0  0  0  0  0  0  0  0  0
  1  2  1  0  0  0  0
  1  6  1  0  0  0  0
  2  3  2  0  0  0  0
  3  4  1  0  0  0  0
  4  5  2  0  0  0  0
  4 10  1  0  0  0  0
  5  6  1  0  0  0  0
  5  8  1  0  0  0  0
  6  7  2  0  0  0  0
  8  9  1  0  0  0  0
  9 10  2  0  0  0  0
M  END
>  <CHROM.1>
11.37058527,11.46126440,6.41284667,-3.09875526,1.31895658,-2.67250115

>  <Name>
ligand

>  <RI>
0

>  <Rbt.Current_Directory>
/home/itssahil/PROJECTS/Mol_Feturizer/New_Systems/rnas/2EEW

>  <Rbt.Executable>
rbdock ($Id: //depot/dev/client3/rdock/2013.1/src/exe/rbdock.cxx#4 $)

>  <Rbt.Library>
libRbt.so (2013.1, Build901 2013/11/27)

>  <Rbt.Parameter_File>
/export/apps/rDock/src/rDock_2013.1_src/data/scripts/dock_solv.prm

>  <Rbt.Receptor>
prm/blind_docking_20.prm

>  <SCORE>
-15.6495

>  <SCORE.INTER>
-15.6495

>  <SCORE.INTER.CONST>
1

>  <SCORE.INTER.POLAR>
0

>  <SCORE.INTER.ROT>
0

>  <SCORE.INTER.SOLV>
4.70987

>  <SCORE.INTER.VDW>
-15.603

>  <SCORE.INTER.norm>
-1.56495

>  <SCORE.INTRA>
0

>  <SCORE.INTRA.DIHEDRAL>
0

>  <SCORE.INTRA.DIHEDRAL.0>
0

>  <SCORE.INTRA.POLAR>
0

>  <SCORE.INTRA.POLAR.0>
0

>  <SCORE.INTRA.REPUL>
0

>  <SCORE.INTRA.REPUL.0>
0

>  <SCORE.INTRA.SOLV>
0

>  <SCORE.INTRA.SOLV.lig_0>
-4.28901

>  <SCORE.INTRA.VDW>
0

>  <SCORE.INTRA.VDW.0>
0

>  <SCORE.INTRA.norm>
0

>  <SCORE.RESTR>
0

>  <SCORE.RESTR.CAVITY>
0

>  <SCORE.RESTR.norm>
0

>  <SCORE.SYSTEM>
0

>  <SCORE.SYSTEM.CONST>
0

>  <SCORE.SYSTEM.DIHEDRAL>
0

>  <SCORE.SYSTEM.SOLV>
0

>  <SCORE.SYSTEM.norm>
0

>  <SCORE.heavy>
10

>  <SCORE.norm>
-1.56495

>  <RMSD>
3.172

$$$$
ligand
 OpenBabel11021811423D
libRbt.so/2013.1/901 2013/11/27
 10 11  0  0  0  0  0  0  0  0999 V2000
   10.9151   12.8538    5.1144 N   0  0  0  0  0  0  0  0  0  0  0  0
   11.0806   13.6135    6.2578 C   0  0  0  0  0  0  0  0  0  0  0  0
   11.4093   13.0667    7.4362 N   0  0  0  0  0  0  0  0  0  0  0  0
   11.5543   11.7173    7.3807 C   0  0  0  0  0  0  0  0  0  0  0  0
   11.4030   10.8974    6.2766 C   0  0  0  0  0  0  0  0  0  0  0  0
   11.0549   11.4657    5.0170 C   0  0  0  0  0  0  0  0  0  0  0  0
   10.8713   10.9299    3.9146 O   0  0  0  0  0  0  0  0  0  0  0  0
   11.6396    9.6070    6.6636 N   0  0  0  0  0  0  0  0  0  0  0  0
   11.9326    9.6497    7.9873 C   0  0  0  0  0  0  0  0  0  0  0  0
   11.8875   10.9364    8.4587 N   0  0  0  0  0  0  0  0  0  0  0  0
  1  2  1  0  0  0  0
  1  6  1  0  0  0  0
  2  3  2  0  0  0  0
  3  4  1  0  0  0  0
  4  5  2  0  0  0  0
  4 10  1  0  0  0  0
  5  6  1  0  0  0  0
  5  8  1  0  0  0  0
  6  7  2  0  0  0  0
  8  9  1  0  0  0  0
  9 10  2  0  0  0  0
M  END
>  <CHROM.1>
11.36494091,11.46592009,6.40236634,-3.10700882,1.32348357,-2.66020453

>  <Name>
ligand

>  <RI>
0

>  <Rbt.Current_Directory>
/home/itssahil/PROJECTS/Mol_Feturizer/New_Systems/rnas/2EEW

>  <Rbt.Executable>
rbdock ($Id: //depot/dev/client3/rdock/2013.1/src/exe/rbdock.cxx#4 $)

>  <Rbt.Library>
libRbt.so (2013.1, Build901 2013/11/27)

>  <Rbt.Parameter_File>
/export/apps/rDock/src/rDock_2013.1_src/data/scripts/dock_solv.prm

>  <Rbt.Receptor>
prm/blind_docking_20.prm

>  <SCORE>
-15.6527

>  <SCORE.INTER>
-15.6527

>  <SCORE.INTER.CONST>
1

>  <SCORE.INTER.POLAR>
0

>  <SCORE.INTER.ROT>
0

>  <SCORE.INTER.SOLV>
4.72144

>  <SCORE.INTER.VDW>
-15.609

>  <SCORE.INTER.norm>
-1.56527

>  <SCORE.INTRA>
0

>  <SCORE.INTRA.DIHEDRAL>
0

>  <SCORE.INTRA.DIHEDRAL.0>
0

>  <SCORE.INTRA.POLAR>
0

>  <SCORE.INTRA.POLAR.0>
0

>  <SCORE.INTRA.REPUL>
0

>  <SCORE.INTRA.REPUL.0>
0

>  <SCORE.INTRA.SOLV>
0

>  <SCORE.INTRA.SOLV.lig_0>
-4.28901

>  <SCORE.INTRA.VDW>
0

>  <SCORE.INTRA.VDW.0>
0

>  <SCORE.INTRA.norm>
0

>  <SCORE.RESTR>
0

>  <SCORE.RESTR.CAVITY>
0

>  <SCORE.RESTR.norm>
0

>  <SCORE.SYSTEM>
0

>  <SCORE.SYSTEM.CONST>
0

>  <SCORE.SYSTEM.DIHEDRAL>
0

>  <SCORE.SYSTEM.SOLV>
0

>  <SCORE.SYSTEM.norm>
0

>  <SCORE.heavy>
10

>  <SCORE.norm>
-1.56527

>  <RMSD>
3.175

$$$$
ligand
 OpenBabel11021811423D
libRbt.so/2013.1/901 2013/11/27
 10 11  0  0  0  0  0  0  0  0999 V2000
   10.8965   12.8977    5.0562 N   0  0  0  0  0  0  0  0  0  0  0  0
   11.0520   13.6859    6.1815 C   0  0  0  0  0  0  0  0  0  0  0  0
   11.3757   13.1696    7.3750 N   0  0  0  0  0  0  0  0  0  0  0  0
   11.5264   11.8198    7.3535 C   0  0  0  0  0  0  0  0  0  0  0  0
   11.3852   10.9724    6.2690 C   0  0  0  0  0  0  0  0  0  0  0  0
   11.0425   11.5082    4.9937 C   0  0  0  0  0  0  0  0  0  0  0  0
   10.8677   10.9447    3.9038 O   0  0  0  0  0  0  0  0  0  0  0  0
   11.6246    9.6929    6.6890 N   0  0  0  0  0  0  0  0  0  0  0  0
   11.9094    9.7693    8.0130 C   0  0  0  0  0  0  0  0  0  0  0  0
   11.8563   11.0670    8.4524 N   0  0  0  0  0  0  0  0  0  0  0  0
  1  2  1  0  0  0  0
  1  6  1  0  0  0  0
  2  3  2  0  0  0  0
  3  4  1  0  0  0  0
  4  5  2  0  0  0  0
  4 10  1  0  0  0  0
  5  6  1  0  0  0  0
  5  8  1  0  0  0  0
  6  7  2  0  0  0  0
  8  9  1  0  0  0  0
  9 10  2  0  0  0  0
M  END
>  <CHROM.1>
11.34406002,11.54368589,6.38052169,-3.13342337,1.32694114,-2.65913903

>  <Name>
ligand

>  <RI>
0

>  <Rbt.Current_Directory>
/home/itssahil/PROJECTS/Mol_Feturizer/New_Systems/rnas/2EEW

>  <Rbt.Executable>
rbdock ($Id: //depot/dev/client3/rdock/2013.1/src/exe/rbdock.cxx#4 $)

>  <Rbt.Library>
libRbt.so (2013.1, Build901 2013/11/27)

>  <Rbt.Parameter_File>
/export/apps/rDock/src/rDock_2013.1_src/data/scripts/dock_solv.prm

>  <Rbt.Receptor>
prm/blind_docking_100.prm

>  <SCORE>
-15.6916

>  <SCORE.INTER>
-15.6916

>  <SCORE.INTER.CONST>
1

>  <SCORE.INTER.POLAR>
0

>  <SCORE.INTER.ROT>
0

>  <SCORE.INTER.SOLV>
4.72573

>  <SCORE.INTER.VDW>
-15.6363

>  <SCORE.INTER.norm>
-1.56916

>  <SCORE.INTRA>
0

>  <SCORE.INTRA.DIHEDRAL>
0

>  <SCORE.INTRA.DIHEDRAL.0>
0

>  <SCORE.INTRA.POLAR>
0

>  <SCORE.INTRA.POLAR.0>
0

>  <SCORE.INTRA.REPUL>
0

>  <SCORE.INTRA.REPUL.0>
0

>  <SCORE.INTRA.SOLV>
0

>  <SCORE.INTRA.SOLV.lig_0>
-4.28901

>  <SCORE.INTRA.VDW>
0

>  <SCORE.INTRA.VDW.0>
0

>  <SCORE.INTRA.norm>
0

>  <SCORE.RESTR>
0

>  <SCORE.RESTR.CAVITY>
0

>  <SCORE.RESTR.norm>
0

>  <SCORE.SYSTEM>
0

>  <SCORE.SYSTEM.CONST>
0

>  <SCORE.SYSTEM.DIHEDRAL>
0

>  <SCORE.SYSTEM.SOLV>
0

>  <SCORE.SYSTEM.norm>
0

>  <SCORE.heavy>
10

>  <SCORE.norm>
-1.56916

>  <RMSD>
3.184

$$$$
ligand
 OpenBabel11021811423D
libRbt.so/2013.1/901 2013/11/27
 10 11  0  0  0  0  0  0  0  0999 V2000
   11.2069   13.4775    7.5459 N   0  0  0  0  0  0  0  0  0  0  0  0
   11.1420   13.1033    6.2164 C   0  0  0  0  0  0  0  0  0  0  0  0
   11.2908   11.8302    5.8256 N   0  0  0  0  0  0  0  0  0  0  0  0
   11.5098   10.9736    6.8568 C   0  0  0  0  0  0  0  0  0  0  0  0
   11.5881   11.2780    8.2041 C   0  0  0  0  0  0  0  0  0  0  0  0
   11.4304   12.6276    8.6338 C   0  0  0  0  0  0  0  0  0  0  0  0
   11.4617   13.1198    9.7708 O   0  0  0  0  0  0  0  0  0  0  0  0
   11.8204   10.1199    8.8938 N   0  0  0  0  0  0  0  0  0  0  0  0
   11.8793    9.1275    7.9710 C   0  0  0  0  0  0  0  0  0  0  0  0
   11.6923    9.6219    6.7059 N   0  0  0  0  0  0  0  0  0  0  0  0
  1  2  1  0  0  0  0
  1  6  1  0  0  0  0
  2  3  2  0  0  0  0
  3  4  1  0  0  0  0
  4  5  2  0  0  0  0
  4 10  1  0  0  0  0
  5  6  1  0  0  0  0
  5  8  1  0  0  0  0
  6  7  2  0  0  0  0
  8  9  1  0  0  0  0
  9 10  2  0  0  0  0
M  END
>  <CHROM.1>
11.50097497,11.55995864,7.70072864,2.37272592,-1.40068732,1.01259332

>  <Name>
ligand

>  <RI>
0

>  <Rbt.Current_Directory>
/home/itssahil/PROJECTS/Mol_Feturizer/New_Systems/rnas/2EEW

>  <Rbt.Executable>
rbdock ($Id: //depot/dev/client3/rdock/2013.1/src/exe/rbdock.cxx#4 $)

>  <Rbt.Library>
libRbt.so (2013.1, Build901 2013/11/27)

>  <Rbt.Parameter_File>
/export/apps/rDock/src/rDock_2013.1_src/data/scripts/dock_solv.prm

>  <Rbt.Receptor>
prm/blind_docking_100.prm

>  <SCORE>
-15.4836

>  <SCORE.INTER>
-15.4836

>  <SCORE.INTER.CONST>
1

>  <SCORE.INTER.POLAR>
0

>  <SCORE.INTER.ROT>
0

>  <SCORE.INTER.SOLV>
4.21101

>  <SCORE.INTER.VDW>
-15.326

>  <SCORE.INTER.norm>
-1.54836

>  <SCORE.INTRA>
0

>  <SCORE.INTRA.DIHEDRAL>
0

>  <SCORE.INTRA.DIHEDRAL.0>
0

>  <SCORE.INTRA.POLAR>
0

>  <SCORE.INTRA.POLAR.0>
0

>  <SCORE.INTRA.REPUL>
0

>  <SCORE.INTRA.REPUL.0>
0

>  <SCORE.INTRA.SOLV>
0

>  <SCORE.INTRA.SOLV.lig_0>
-4.28901

>  <SCORE.INTRA.VDW>
0

>  <SCORE.INTRA.VDW.0>
0

>  <SCORE.INTRA.norm>
0

>  <SCORE.RESTR>
0

>  <SCORE.RESTR.CAVITY>
0

>  <SCORE.RESTR.norm>
0

>  <SCORE.SYSTEM>
0

>  <SCORE.SYSTEM.CONST>
0

>  <SCORE.SYSTEM.DIHEDRAL>
0

>  <SCORE.SYSTEM.SOLV>
0

>  <SCORE.SYSTEM.norm>
0

>  <SCORE.heavy>
10

>  <SCORE.norm>
-1.54836

>  <RMSD>
3.204

$$$$
ligand
 OpenBabel11021811423D
libRbt.so/2013.1/901 2013/11/27
 10 11  0  0  0  0  0  0  0  0999 V2000
   11.2201   13.5247    7.5426 N   0  0  0  0  0  0  0  0  0  0  0  0
   11.2137   13.1502    6.2115 C   0  0  0  0  0  0  0  0  0  0  0  0
   11.3794   11.8771    5.8278 N   0  0  0  0  0  0  0  0  0  0  0  0
   11.5527   11.0206    6.8678 C   0  0  0  0  0  0  0  0  0  0  0  0
   11.5717   11.3252    8.2172 C   0  0  0  0  0  0  0  0  0  0  0  0
   11.3954   12.6749    8.6394 C   0  0  0  0  0  0  0  0  0  0  0  0
   11.3767   13.1673    9.7765 O   0  0  0  0  0  0  0  0  0  0  0  0
   11.7733   10.1672    8.9166 N   0  0  0  0  0  0  0  0  0  0  0  0
   11.8726    9.1746    7.9975 C   0  0  0  0  0  0  0  0  0  0  0  0
   11.7415    9.6689    6.7253 N   0  0  0  0  0  0  0  0  0  0  0  0
  1  2  1  0  0  0  0
  1  6  1  0  0  0  0
  2  3  2  0  0  0  0
  3  4  1  0  0  0  0
  4  5  2  0  0  0  0
  4 10  1  0  0  0  0
  5  6  1  0  0  0  0
  5  8  1  0  0  0  0
  6  7  2  0  0  0  0
  8  9  1  0  0  0  0
  9 10  2  0  0  0  0
M  END
>  <CHROM.1>
11.50684001,11.60710075,7.71043420,2.62239026,-1.41948550,1.25893082

>  <Name>
ligand

>  <RI>
0

>  <Rbt.Current_Directory>
/home/itssahil/PROJECTS/Mol_Feturizer/New_Systems/rnas/2EEW

>  <Rbt.Executable>
rbdock ($Id: //depot/dev/client3/rdock/2013.1/src/exe/rbdock.cxx#4 $)

>  <Rbt.Library>
libRbt.so (2013.1, Build901 2013/11/27)

>  <Rbt.Parameter_File>
/export/apps/rDock/src/rDock_2013.1_src/data/scripts/dock_solv.prm

>  <Rbt.Receptor>
prm/blind_docking_80.prm

>  <SCORE>
-15.4542

>  <SCORE.INTER>
-15.4542

>  <SCORE.INTER.CONST>
1

>  <SCORE.INTER.POLAR>
0

>  <SCORE.INTER.ROT>
0

>  <SCORE.INTER.SOLV>
4.25105

>  <SCORE.INTER.VDW>
-15.3198

>  <SCORE.INTER.norm>
-1.54542

>  <SCORE.INTRA>
0

>  <SCORE.INTRA.DIHEDRAL>
0

>  <SCORE.INTRA.DIHEDRAL.0>
0

>  <SCORE.INTRA.POLAR>
0

>  <SCORE.INTRA.POLAR.0>
0

>  <SCORE.INTRA.REPUL>
0

>  <SCORE.INTRA.REPUL.0>
0

>  <SCORE.INTRA.SOLV>
0

>  <SCORE.INTRA.SOLV.lig_0>
-4.28901

>  <SCORE.INTRA.VDW>
0

>  <SCORE.INTRA.VDW.0>
0

>  <SCORE.INTRA.norm>
0

>  <SCORE.RESTR>
0

>  <SCORE.RESTR.CAVITY>
0

>  <SCORE.RESTR.norm>
0

>  <SCORE.SYSTEM>
0

>  <SCORE.SYSTEM.CONST>
0

>  <SCORE.SYSTEM.DIHEDRAL>
0

>  <SCORE.SYSTEM.SOLV>
0

>  <SCORE.SYSTEM.norm>
0

>  <SCORE.heavy>
10

>  <SCORE.norm>
-1.54542

>  <RMSD>
3.214

$$$$
ligand
 OpenBabel11021811423D
libRbt.so/2013.1/901 2013/11/27
 10 11  0  0  0  0  0  0  0  0999 V2000
   11.2555   13.4235    7.4259 N   0  0  0  0  0  0  0  0  0  0  0  0
   11.2671   13.0094    6.1067 C   0  0  0  0  0  0  0  0  0  0  0  0
   11.4321   11.7246    5.7637 N   0  0  0  0  0  0  0  0  0  0  0  0
   11.5855   10.8989    6.8313 C   0  0  0  0  0  0  0  0  0  0  0  0
   11.5858   11.2436    8.1712 C   0  0  0  0  0  0  0  0  0  0  0  0
   11.4101   12.6061    8.5501 C   0  0  0  0  0  0  0  0  0  0  0  0
   11.3769   13.1324    9.6717 O   0  0  0  0  0  0  0  0  0  0  0  0
   11.7711   10.1061    8.9078 N   0  0  0  0  0  0  0  0  0  0  0  0
   11.8791    9.0860    8.0203 C   0  0  0  0  0  0  0  0  0  0  0  0
   11.7695    9.5426    6.7321 N   0  0  0  0  0  0  0  0  0  0  0  0
  1  2  1  0  0  0  0
  1  6  1  0  0  0  0
  2  3  2  0  0  0  0
  3  4  1  0  0  0  0
  4  5  2  0  0  0  0
  4 10  1  0  0  0  0
  5  6  1  0  0  0  0
  5  8  1  0  0  0  0
  6  7  2  0  0  0  0
  8  9  1  0  0  0  0
  9 10  2  0  0  0  0
M  END
>  <CHROM.1>
11.52997543,11.51049259,7.65526665,2.71176869,-1.42834542,1.31746521

>  <Name>
ligand

>  <RI>
0

>  <Rbt.Current_Directory>
/home/itssahil/PROJECTS/Mol_Feturizer/New_Systems/rnas/2EEW

>  <Rbt.Executable>
rbdock ($Id: //depot/dev/client3/rdock/2013.1/src/exe/rbdock.cxx#4 $)

>  <Rbt.Library>
libRbt.so (2013.1, Build901 2013/11/27)

>  <Rbt.Parameter_File>
/export/apps/rDock/src/rDock_2013.1_src/data/scripts/dock_solv.prm

>  <Rbt.Receptor>
prm/pocket_docking_7.prm

>  <SCORE>
-15.4813

>  <SCORE.INTER>
-15.4813

>  <SCORE.INTER.CONST>
1

>  <SCORE.INTER.POLAR>
0

>  <SCORE.INTER.ROT>
0

>  <SCORE.INTER.SOLV>
4.24922

>  <SCORE.INTER.VDW>
-15.3373

>  <SCORE.INTER.norm>
-1.54813

>  <SCORE.INTRA>
0

>  <SCORE.INTRA.DIHEDRAL>
0

>  <SCORE.INTRA.DIHEDRAL.0>
0

>  <SCORE.INTRA.POLAR>
0

>  <SCORE.INTRA.POLAR.0>
0

>  <SCORE.INTRA.REPUL>
0

>  <SCORE.INTRA.REPUL.0>
0

>  <SCORE.INTRA.SOLV>
0

>  <SCORE.INTRA.SOLV.lig_0>
-4.28901

>  <SCORE.INTRA.VDW>
0

>  <SCORE.INTRA.VDW.0>
0

>  <SCORE.INTRA.norm>
0

>  <SCORE.RESTR>
0

>  <SCORE.RESTR.CAVITY>
0

>  <SCORE.RESTR.norm>
0

>  <SCORE.SYSTEM>
0

>  <SCORE.SYSTEM.CONST>
0

>  <SCORE.SYSTEM.DIHEDRAL>
0

>  <SCORE.SYSTEM.SOLV>
0

>  <SCORE.SYSTEM.norm>
0

>  <SCORE.heavy>
10

>  <SCORE.norm>
-1.54813

>  <RMSD>
3.242

$$$$
ligand
 OpenBabel11021811423D
libRbt.so/2013.1/901 2013/11/27
 10 11  0  0  0  0  0  0  0  0999 V2000
   11.2132   13.3689    7.3910 N   0  0  0  0  0  0  0  0  0  0  0  0
   11.2720   12.9583    6.0720 C   0  0  0  0  0  0  0  0  0  0  0  0
   11.4689   11.6773    5.7317 N   0  0  0  0  0  0  0  0  0  0  0  0
   11.6035   10.8516    6.8019 C   0  0  0  0  0  0  0  0  0  0  0  0
   11.5572   11.1930    8.1418 C   0  0  0  0  0  0  0  0  0  0  0  0
   11.3471   12.5514    8.5179 C   0  0  0  0  0  0  0  0  0  0  0  0
   11.2709   13.0744    9.6389 O   0  0  0  0  0  0  0  0  0  0  0  0
   11.7390   10.0570    8.8815 N   0  0  0  0  0  0  0  0  0  0  0  0
   11.8911    9.0410    7.9958 C   0  0  0  0  0  0  0  0  0  0  0  0
   11.8133    9.4989    6.7058 N   0  0  0  0  0  0  0  0  0  0  0  0
  1  2  1  0  0  0  0
  1  6  1  0  0  0  0
  2  3  2  0  0  0  0
  3  4  1  0  0  0  0
  4  5  2  0  0  0  0
  4 10  1  0  0  0  0
  5  6  1  0  0  0  0
  5  8  1  0  0  0  0
  6  7  2  0  0  0  0
  8  9  1  0  0  0  0
  9 10  2  0  0  0  0
M  END
>  <CHROM.1>
11.51264103,11.46022014,7.62496798,2.93250181,-1.41602044,1.53796469

>  <Name>
ligand

>  <RI>
0

>  <Rbt.Current_Directory>
/home/itssahil/PROJECTS/Mol_Feturizer/New_Systems/rnas/2EEW

>  <Rbt.Executable>
rbdock ($Id: //depot/dev/client3/rdock/2013.1/src/exe/rbdock.cxx#4 $)

>  <Rbt.Library>
libRbt.so (2013.1, Build901 2013/11/27)

>  <Rbt.Parameter_File>
/export/apps/rDock/src/rDock_2013.1_src/data/scripts/dock_solv.prm

>  <Rbt.Receptor>
prm/blind_docking_100.prm

>  <SCORE>
-15.4833

>  <SCORE.INTER>
-15.4833

>  <SCORE.INTER.CONST>
1

>  <SCORE.INTER.POLAR>
0

>  <SCORE.INTER.ROT>
0

>  <SCORE.INTER.SOLV>
4.20951

>  <SCORE.INTER.VDW>
-15.3254

>  <SCORE.INTER.norm>
-1.54833

>  <SCORE.INTRA>
0

>  <SCORE.INTRA.DIHEDRAL>
0

>  <SCORE.INTRA.DIHEDRAL.0>
0

>  <SCORE.INTRA.POLAR>
0

>  <SCORE.INTRA.POLAR.0>
0

>  <SCORE.INTRA.REPUL>
0

>  <SCORE.INTRA.REPUL.0>
0

>  <SCORE.INTRA.SOLV>
0

>  <SCORE.INTRA.SOLV.lig_0>
-4.28901

>  <SCORE.INTRA.VDW>
0

>  <SCORE.INTRA.VDW.0>
0

>  <SCORE.INTRA.norm>
0

>  <SCORE.RESTR>
0

>  <SCORE.RESTR.CAVITY>
0

>  <SCORE.RESTR.norm>
0

>  <SCORE.SYSTEM>
0

>  <SCORE.SYSTEM.CONST>
0

>  <SCORE.SYSTEM.DIHEDRAL>
0

>  <SCORE.SYSTEM.SOLV>
0

>  <SCORE.SYSTEM.norm>
0

>  <SCORE.heavy>
10

>  <SCORE.norm>
-1.54833

>  <RMSD>
3.248

$$$$
ligand
 OpenBabel11021811423D
libRbt.so/2013.1/901 2013/11/27
 10 11  0  0  0  0  0  0  0  0999 V2000
   11.1999   13.3911    7.3714 N   0  0  0  0  0  0  0  0  0  0  0  0
   11.2357   12.9716    6.0544 C   0  0  0  0  0  0  0  0  0  0  0  0
   11.4203   11.6873    5.7194 N   0  0  0  0  0  0  0  0  0  0  0  0
   11.5671   10.8678    6.7928 C   0  0  0  0  0  0  0  0  0  0  0  0
   11.5436   11.2182    8.1310 C   0  0  0  0  0  0  0  0  0  0  0  0
   11.3469   12.5802    8.5013 C   0  0  0  0  0  0  0  0  0  0  0  0
   11.2912   13.1108    9.6200 O   0  0  0  0  0  0  0  0  0  0  0  0
   11.7308   10.0860    8.8752 N   0  0  0  0  0  0  0  0  0  0  0  0
   11.8634    9.0634    7.9939 C   0  0  0  0  0  0  0  0  0  0  0  0
   11.7679    9.5133    6.7022 N   0  0  0  0  0  0  0  0  0  0  0  0
  1  2  1  0  0  0  0
  1  6  1  0  0  0  0
  2  3  2  0  0  0  0
  3  4  1  0  0  0  0
  4  5  2  0  0  0  0
  4 10  1  0  0  0  0
  5  6  1  0  0  0  0
  5  8  1  0  0  0  0
  6  7  2  0  0  0  0
  8  9  1  0  0  0  0
  9 10  2  0  0  0  0
M  END
>  <CHROM.1>
11.49246655,11.48225798,7.61316107,2.82661632,-1.42016901,1.42678785

>  <Name>
ligand

>  <RI>
0

>  <Rbt.Current_Directory>
/home/itssahil/PROJECTS/Mol_Feturizer/New_Systems/rnas/2EEW

>  <Rbt.Executable>
rbdock ($Id: //depot/dev/client3/rdock/2013.1/src/exe/rbdock.cxx#4 $)

>  <Rbt.Library>
libRbt.so (2013.1, Build901 2013/11/27)

>  <Rbt.Parameter_File>
/export/apps/rDock/src/rDock_2013.1_src/data/scripts/dock_solv.prm

>  <Rbt.Receptor>
prm/pocket_docking_3.prm

>  <SCORE>
-15.493

>  <SCORE.INTER>
-15.493

>  <SCORE.INTER.CONST>
1

>  <SCORE.INTER.POLAR>
0

>  <SCORE.INTER.ROT>
0

>  <SCORE.INTER.SOLV>
4.22762

>  <SCORE.INTER.VDW>
-15.3379

>  <SCORE.INTER.norm>
-1.5493

>  <SCORE.INTRA>
0

>  <SCORE.INTRA.DIHEDRAL>
0

>  <SCORE.INTRA.DIHEDRAL.0>
0

>  <SCORE.INTRA.POLAR>
0

>  <SCORE.INTRA.POLAR.0>
0

>  <SCORE.INTRA.REPUL>
0

>  <SCORE.INTRA.REPUL.0>
0

>  <SCORE.INTRA.SOLV>
0

>  <SCORE.INTRA.SOLV.lig_0>
-4.28901

>  <SCORE.INTRA.VDW>
0

>  <SCORE.INTRA.VDW.0>
0

>  <SCORE.INTRA.norm>
0

>  <SCORE.RESTR>
0

>  <SCORE.RESTR.CAVITY>
0

>  <SCORE.RESTR.norm>
0

>  <SCORE.SYSTEM>
0

>  <SCORE.SYSTEM.CONST>
0

>  <SCORE.SYSTEM.DIHEDRAL>
0

>  <SCORE.SYSTEM.SOLV>
0

>  <SCORE.SYSTEM.norm>
0

>  <SCORE.heavy>
10

>  <SCORE.norm>
-1.5493

>  <RMSD>
3.250

$$$$
ligand
 OpenBabel11021811423D
libRbt.so/2013.1/901 2013/11/27
 10 11  0  0  0  0  0  0  0  0999 V2000
   11.1965   13.3899    7.3754 N   0  0  0  0  0  0  0  0  0  0  0  0
   11.2579   12.9717    6.0589 C   0  0  0  0  0  0  0  0  0  0  0  0
   11.4537   11.6884    5.7264 N   0  0  0  0  0  0  0  0  0  0  0  0
   11.5843   10.8687    6.8016 C   0  0  0  0  0  0  0  0  0  0  0  0
   11.5351   11.2178    8.1394 C   0  0  0  0  0  0  0  0  0  0  0  0
   11.3262   12.5786    8.5072 C   0  0  0  0  0  0  0  0  0  0  0  0
   11.2480   13.1081    9.6250 O   0  0  0  0  0  0  0  0  0  0  0  0
   11.7132   10.0857    8.8860 N   0  0  0  0  0  0  0  0  0  0  0  0
   11.8660    9.0645    8.0064 C   0  0  0  0  0  0  0  0  0  0  0  0
   11.7921    9.5151    6.7136 N   0  0  0  0  0  0  0  0  0  0  0  0
  1  2  1  0  0  0  0
  1  6  1  0  0  0  0
  2  3  2  0  0  0  0
  3  4  1  0  0  0  0
  4  5  2  0  0  0  0
  4 10  1  0  0  0  0
  5  6  1  0  0  0  0
  5  8  1  0  0  0  0
  6  7  2  0  0  0  0
  8  9  1  0  0  0  0
  9 10  2  0  0  0  0
M  END
>  <CHROM.1>
11.49226817,11.48208139,7.62092666,2.94860796,-1.41766155,1.54819444

>  <Name>
ligand

>  <RI>
0

>  <Rbt.Current_Directory>
/home/itssahil/PROJECTS/Mol_Feturizer/New_Systems/rnas/2EEW

>  <Rbt.Executable>
rbdock ($Id: //depot/dev/client3/rdock/2013.1/src/exe/rbdock.cxx#4 $)

>  <Rbt.Library>
libRbt.so (2013.1, Build901 2013/11/27)

>  <Rbt.Parameter_File>
/export/apps/rDock/src/rDock_2013.1_src/data/scripts/dock_solv.prm

>  <Rbt.Receptor>
prm/blind_docking_100.prm

>  <SCORE>
-15.478

>  <SCORE.INTER>
-15.478

>  <SCORE.INTER.CONST>
1

>  <SCORE.INTER.POLAR>
0

>  <SCORE.INTER.ROT>
0

>  <SCORE.INTER.SOLV>
4.23033

>  <SCORE.INTER.VDW>
-15.3288

>  <SCORE.INTER.norm>
-1.5478

>  <SCORE.INTRA>
0

>  <SCORE.INTRA.DIHEDRAL>
0

>  <SCORE.INTRA.DIHEDRAL.0>
0

>  <SCORE.INTRA.POLAR>
0

>  <SCORE.INTRA.POLAR.0>
0

>  <SCORE.INTRA.REPUL>
0

>  <SCORE.INTRA.REPUL.0>
0

>  <SCORE.INTRA.SOLV>
0

>  <SCORE.INTRA.SOLV.lig_0>
-4.28901

>  <SCORE.INTRA.VDW>
0

>  <SCORE.INTRA.VDW.0>
0

>  <SCORE.INTRA.norm>
0

>  <SCORE.RESTR>
0

>  <SCORE.RESTR.CAVITY>
0

>  <SCORE.RESTR.norm>
0

>  <SCORE.SYSTEM>
0

>  <SCORE.SYSTEM.CONST>
0

>  <SCORE.SYSTEM.DIHEDRAL>
0

>  <SCORE.SYSTEM.SOLV>
0

>  <SCORE.SYSTEM.norm>
0

>  <SCORE.heavy>
10

>  <SCORE.norm>
-1.5478

>  <RMSD>
3.253

$$$$
ligand
 OpenBabel11021811423D
libRbt.so/2013.1/901 2013/11/27
 10 11  0  0  0  0  0  0  0  0999 V2000
   11.1890   13.3859    7.3468 N   0  0  0  0  0  0  0  0  0  0  0  0
   11.2334   12.9656    6.0302 C   0  0  0  0  0  0  0  0  0  0  0  0
   11.4296   11.6826    5.6971 N   0  0  0  0  0  0  0  0  0  0  0  0
   11.5788   10.8652    6.7717 C   0  0  0  0  0  0  0  0  0  0  0  0
   11.5472   11.2164    8.1095 C   0  0  0  0  0  0  0  0  0  0  0  0
   11.3381   12.5770    8.4780 C   0  0  0  0  0  0  0  0  0  0  0  0
   11.2736   13.1081    9.5959 O   0  0  0  0  0  0  0  0  0  0  0  0
   11.7404   10.0863    8.8554 N   0  0  0  0  0  0  0  0  0  0  0  0
   11.8848    9.0642    7.9754 C   0  0  0  0  0  0  0  0  0  0  0  0
   11.7908    9.5123    6.6830 N   0  0  0  0  0  0  0  0  0  0  0  0
  1  2  1  0  0  0  0
  1  6  1  0  0  0  0
  2  3  2  0  0  0  0
  3  4  1  0  0  0  0
  4  5  2  0  0  0  0
  4 10  1  0  0  0  0
  5  6  1  0  0  0  0
  5  8  1  0  0  0  0
  6  7  2  0  0  0  0
  8  9  1  0  0  0  0
  9 10  2  0  0  0  0
M  END
>  <CHROM.1>
11.49593645,11.47965256,7.59124234,2.85896543,-1.41271384,1.45796755

>  <Name>
ligand

>  <RI>
0

>  <Rbt.Current_Directory>
/home/itssahil/PROJECTS/Mol_Feturizer/New_Systems/rnas/2EEW

>  <Rbt.Executable>
rbdock ($Id: //depot/dev/client3/rdock/2013.1/src/exe/rbdock.cxx#4 $)

>  <Rbt.Library>
libRbt.so (2013.1, Build901 2013/11/27)

>  <Rbt.Parameter_File>
/export/apps/rDock/src/rDock_2013.1_src/data/scripts/dock_solv.prm

>  <Rbt.Receptor>
prm/blind_docking_80.prm

>  <SCORE>
-15.4964

>  <SCORE.INTER>
-15.4964

>  <SCORE.INTER.CONST>
1

>  <SCORE.INTER.POLAR>
0

>  <SCORE.INTER.ROT>
0

>  <SCORE.INTER.SOLV>
4.20188

>  <SCORE.INTER.VDW>
-15.3316

>  <SCORE.INTER.norm>
-1.54964

>  <SCORE.INTRA>
0

>  <SCORE.INTRA.DIHEDRAL>
0

>  <SCORE.INTRA.DIHEDRAL.0>
0

>  <SCORE.INTRA.POLAR>
0

>  <SCORE.INTRA.POLAR.0>
0

>  <SCORE.INTRA.REPUL>
0

>  <SCORE.INTRA.REPUL.0>
0

>  <SCORE.INTRA.SOLV>
0

>  <SCORE.INTRA.SOLV.lig_0>
-4.28901

>  <SCORE.INTRA.VDW>
0

>  <SCORE.INTRA.VDW.0>
0

>  <SCORE.INTRA.norm>
0

>  <SCORE.RESTR>
0

>  <SCORE.RESTR.CAVITY>
0

>  <SCORE.RESTR.norm>
0

>  <SCORE.SYSTEM>
0

>  <SCORE.SYSTEM.CONST>
0

>  <SCORE.SYSTEM.DIHEDRAL>
0

>  <SCORE.SYSTEM.SOLV>
0

>  <SCORE.SYSTEM.norm>
0

>  <SCORE.heavy>
10

>  <SCORE.norm>
-1.54964

>  <RMSD>
3.253

$$$$
ligand
 OpenBabel11021811423D
libRbt.so/2013.1/901 2013/11/27
 10 11  0  0  0  0  0  0  0  0999 V2000
   11.1572   13.3915    7.3552 N   0  0  0  0  0  0  0  0  0  0  0  0
   11.2123   12.9738    6.0383 C   0  0  0  0  0  0  0  0  0  0  0  0
   11.4222   11.6932    5.7042 N   0  0  0  0  0  0  0  0  0  0  0  0
   11.5733   10.8755    6.7783 C   0  0  0  0  0  0  0  0  0  0  0  0
   11.5316   11.2243    8.1164 C   0  0  0  0  0  0  0  0  0  0  0  0
   11.3079   12.5823    8.4859 C   0  0  0  0  0  0  0  0  0  0  0  0
   11.2327   13.1110    9.6043 O   0  0  0  0  0  0  0  0  0  0  0  0
   11.7315   10.0948    8.8616 N   0  0  0  0  0  0  0  0  0  0  0  0
   11.8899    9.0755    7.9808 C   0  0  0  0  0  0  0  0  0  0  0  0
   11.7984    9.5247    6.6886 N   0  0  0  0  0  0  0  0  0  0  0  0
  1  2  1  0  0  0  0
  1  6  1  0  0  0  0
  2  3  2  0  0  0  0
  3  4  1  0  0  0  0
  4  5  2  0  0  0  0
  4 10  1  0  0  0  0
  5  6  1  0  0  0  0
  5  8  1  0  0  0  0
  6  7  2  0  0  0  0
  8  9  1  0  0  0  0
  9 10  2  0  0  0  0
M  END
>  <CHROM.1>
11.48057064,11.48783071,7.59833838,2.89620610,-1.40394102,1.49626608

>  <Name>
ligand

>  <RI>
0

>  <Rbt.Current_Directory>
/home/itssahil/PROJECTS/Mol_Feturizer/New_Systems/rnas/2EEW

>  <Rbt.Executable>
rbdock ($Id: //depot/dev/client3/rdock/2013.1/src/exe/rbdock.cxx#4 $)

>  <Rbt.Library>
libRbt.so (2013.1, Build901 2013/11/27)

>  <Rbt.Parameter_File>
/export/apps/rDock/src/rDock_2013.1_src/data/scripts/dock_solv.prm

>  <Rbt.Receptor>
prm/blind_docking_100.prm

>  <SCORE>
-15.5184

>  <SCORE.INTER>
-15.5186

>  <SCORE.INTER.CONST>
1

>  <SCORE.INTER.POLAR>
0

>  <SCORE.INTER.ROT>
0

>  <SCORE.INTER.SOLV>
4.19556

>  <SCORE.INTER.VDW>
-15.3443

>  <SCORE.INTER.norm>
-1.55186

>  <SCORE.INTRA>
0

>  <SCORE.INTRA.DIHEDRAL>
0

>  <SCORE.INTRA.DIHEDRAL.0>
0

>  <SCORE.INTRA.POLAR>
0

>  <SCORE.INTRA.POLAR.0>
0

>  <SCORE.INTRA.REPUL>
0

>  <SCORE.INTRA.REPUL.0>
0

>  <SCORE.INTRA.SOLV>
0

>  <SCORE.INTRA.SOLV.lig_0>
-4.28901

>  <SCORE.INTRA.VDW>
0

>  <SCORE.INTRA.VDW.0>
0

>  <SCORE.INTRA.norm>
0

>  <SCORE.RESTR>
0.000184161

>  <SCORE.RESTR.CAVITY>
0.000184161

>  <SCORE.RESTR.norm>
1.84161e-05

>  <SCORE.SYSTEM>
0

>  <SCORE.SYSTEM.CONST>
0

>  <SCORE.SYSTEM.DIHEDRAL>
0

>  <SCORE.SYSTEM.SOLV>
0

>  <SCORE.SYSTEM.norm>
0

>  <SCORE.heavy>
10

>  <SCORE.norm>
-1.55184

>  <RMSD>
3.254

$$$$
ligand
 OpenBabel11021811423D
libRbt.so/2013.1/901 2013/11/27
 10 11  0  0  0  0  0  0  0  0999 V2000
   11.1890   13.3876    7.3714 N   0  0  0  0  0  0  0  0  0  0  0  0
   11.2636   12.9666    6.0564 C   0  0  0  0  0  0  0  0  0  0  0  0
   11.4677   11.6834    5.7286 N   0  0  0  0  0  0  0  0  0  0  0  0
   11.5925   10.8667    6.8068 C   0  0  0  0  0  0  0  0  0  0  0  0
   11.5303   11.2187    8.1433 C   0  0  0  0  0  0  0  0  0  0  0  0
   11.3125   12.5795    8.5061 C   0  0  0  0  0  0  0  0  0  0  0  0
   11.2224   13.1112    9.6220 O   0  0  0  0  0  0  0  0  0  0  0  0
   11.7068   10.0891    8.8941 N   0  0  0  0  0  0  0  0  0  0  0  0
   11.8715    9.0665    8.0183 C   0  0  0  0  0  0  0  0  0  0  0  0
   11.8068    9.5138    6.7238 N   0  0  0  0  0  0  0  0  0  0  0  0
  1  2  1  0  0  0  0
  1  6  1  0  0  0  0
  2  3  2  0  0  0  0
  3  4  1  0  0  0  0
  4  5  2  0  0  0  0
  4 10  1  0  0  0  0
  5  6  1  0  0  0  0
  5  8  1  0  0  0  0
  6  7  2  0  0  0  0
  8  9  1  0  0  0  0
  9 10  2  0  0  0  0
M  END
>  <CHROM.1>
11.49082503,11.48160947,7.62390325,3.00417290,-1.41337928,1.60077255

>  <Name>
ligand

>  <RI>
0

>  <Rbt.Current_Directory>
/home/itssahil/PROJECTS/Mol_Feturizer/New_Systems/rnas/2EEW

>  <Rbt.Executable>
rbdock ($Id: //depot/dev/client3/rdock/2013.1/src/exe/rbdock.cxx#4 $)

>  <Rbt.Library>
libRbt.so (2013.1, Build901 2013/11/27)

>  <Rbt.Parameter_File>
/export/apps/rDock/src/rDock_2013.1_src/data/scripts/dock_solv.prm

>  <Rbt.Receptor>
prm/blind_docking_80.prm

>  <SCORE>
-15.4907

>  <SCORE.INTER>
-15.4907

>  <SCORE.INTER.CONST>
1

>  <SCORE.INTER.POLAR>
0

>  <SCORE.INTER.ROT>
0

>  <SCORE.INTER.SOLV>
4.22931

>  <SCORE.INTER.VDW>
-15.3369

>  <SCORE.INTER.norm>
-1.54907

>  <SCORE.INTRA>
0

>  <SCORE.INTRA.DIHEDRAL>
0

>  <SCORE.INTRA.DIHEDRAL.0>
0

>  <SCORE.INTRA.POLAR>
0

>  <SCORE.INTRA.POLAR.0>
0

>  <SCORE.INTRA.REPUL>
0

>  <SCORE.INTRA.REPUL.0>
0

>  <SCORE.INTRA.SOLV>
0

>  <SCORE.INTRA.SOLV.lig_0>
-4.28901

>  <SCORE.INTRA.VDW>
0

>  <SCORE.INTRA.VDW.0>
0

>  <SCORE.INTRA.norm>
0

>  <SCORE.RESTR>
0

>  <SCORE.RESTR.CAVITY>
0

>  <SCORE.RESTR.norm>
0

>  <SCORE.SYSTEM>
0

>  <SCORE.SYSTEM.CONST>
0

>  <SCORE.SYSTEM.DIHEDRAL>
0

>  <SCORE.SYSTEM.SOLV>
0

>  <SCORE.SYSTEM.norm>
0

>  <SCORE.heavy>
10

>  <SCORE.norm>
-1.54907

>  <RMSD>
3.258

$$$$
ligand
 OpenBabel11021811423D
libRbt.so/2013.1/901 2013/11/27
 10 11  0  0  0  0  0  0  0  0999 V2000
   11.2387   13.3889    7.4244 N   0  0  0  0  0  0  0  0  0  0  0  0
   11.2699   12.9562    6.1115 C   0  0  0  0  0  0  0  0  0  0  0  0
   11.4357   11.6661    5.7893 N   0  0  0  0  0  0  0  0  0  0  0  0
   11.5690   10.8550    6.8707 C   0  0  0  0  0  0  0  0  0  0  0  0
   11.5491   11.2187    8.2055 C   0  0  0  0  0  0  0  0  0  0  0  0
   11.3723   12.5869    8.5623 C   0  0  0  0  0  0  0  0  0  0  0  0
   11.3231   13.1292    9.6757 O   0  0  0  0  0  0  0  0  0  0  0  0
   11.7185   10.0911    8.9609 N   0  0  0  0  0  0  0  0  0  0  0  0
   11.8370    9.0582    8.0897 C   0  0  0  0  0  0  0  0  0  0  0  0
   11.7497    9.4969    6.7936 N   0  0  0  0  0  0  0  0  0  0  0  0
  1  2  1  0  0  0  0
  1  6  1  0  0  0  0
  2  3  2  0  0  0  0
  3  4  1  0  0  0  0
  4  5  2  0  0  0  0
  4 10  1  0  0  0  0
  5  6  1  0  0  0  0
  5  8  1  0  0  0  0
  6  7  2  0  0  0  0
  8  9  1  0  0  0  0
  9 10  2  0  0  0  0
M  END
>  <CHROM.1>
11.50254217,11.47841245,7.68502086,2.81962187,-1.43508044,1.41017120

>  <Name>
ligand

>  <RI>
0

>  <Rbt.Current_Directory>
/home/itssahil/PROJECTS/Mol_Feturizer/New_Systems/rnas/2EEW

>  <Rbt.Executable>
rbdock ($Id: //depot/dev/client3/rdock/2013.1/src/exe/rbdock.cxx#4 $)

>  <Rbt.Library>
libRbt.so (2013.1, Build901 2013/11/27)

>  <Rbt.Parameter_File>
/export/apps/rDock/src/rDock_2013.1_src/data/scripts/dock_solv.prm

>  <Rbt.Receptor>
prm/blind_docking_100.prm

>  <SCORE>
-15.5137

>  <SCORE.INTER>
-15.5137

>  <SCORE.INTER.CONST>
1

>  <SCORE.INTER.POLAR>
0

>  <SCORE.INTER.ROT>
0

>  <SCORE.INTER.SOLV>
4.30239

>  <SCORE.INTER.VDW>
-15.3766

>  <SCORE.INTER.norm>
-1.55137

>  <SCORE.INTRA>
0

>  <SCORE.INTRA.DIHEDRAL>
0

>  <SCORE.INTRA.DIHEDRAL.0>
0

>  <SCORE.INTRA.POLAR>
0

>  <SCORE.INTRA.POLAR.0>
0

>  <SCORE.INTRA.REPUL>
0

>  <SCORE.INTRA.REPUL.0>
0

>  <SCORE.INTRA.SOLV>
0

>  <SCORE.INTRA.SOLV.lig_0>
-4.28901

>  <SCORE.INTRA.VDW>
0

>  <SCORE.INTRA.VDW.0>
0

>  <SCORE.INTRA.norm>
0

>  <SCORE.RESTR>
0

>  <SCORE.RESTR.CAVITY>
0

>  <SCORE.RESTR.norm>
0

>  <SCORE.SYSTEM>
0

>  <SCORE.SYSTEM.CONST>
0

>  <SCORE.SYSTEM.DIHEDRAL>
0

>  <SCORE.SYSTEM.SOLV>
0

>  <SCORE.SYSTEM.norm>
0

>  <SCORE.heavy>
10

>  <SCORE.norm>
-1.55137

>  <RMSD>
3.260

$$$$
ligand
 OpenBabel11021811423D
libRbt.so/2013.1/901 2013/11/27
 10 11  0  0  0  0  0  0  0  0999 V2000
   11.5129   10.5413    6.0126 N   0  0  0  0  0  0  0  0  0  0  0  0
   11.7861    9.5608    6.9486 C   0  0  0  0  0  0  0  0  0  0  0  0
   11.8920    9.8327    8.2564 N   0  0  0  0  0  0  0  0  0  0  0  0
   11.7082   11.1464    8.5488 C   0  0  0  0  0  0  0  0  0  0  0  0
   11.4345   12.1766    7.6668 C   0  0  0  0  0  0  0  0  0  0  0  0
   11.3179   11.9014    6.2734 C   0  0  0  0  0  0  0  0  0  0  0  0
   11.0811   12.6571    5.3201 O   0  0  0  0  0  0  0  0  0  0  0  0
   11.3258   13.3374    8.3819 N   0  0  0  0  0  0  0  0  0  0  0  0
   11.5298   13.0092    9.6821 C   0  0  0  0  0  0  0  0  0  0  0  0
   11.7688   11.6659    9.8175 N   0  0  0  0  0  0  0  0  0  0  0  0
  1  2  1  0  0  0  0
  1  6  1  0  0  0  0
  2  3  2  0  0  0  0
  3  4  1  0  0  0  0
  4  5  2  0  0  0  0
  4 10  1  0  0  0  0
  5  6  1  0  0  0  0
  5  8  1  0  0  0  0
  6  7  2  0  0  0  0
  8  9  1  0  0  0  0
  9 10  2  0  0  0  0
M  END
>  <CHROM.1>
11.52738297,11.60090552,7.64499142,-1.90402959,-1.37073760,0.95972352

>  <Name>
ligand

>  <RI>
0

>  <Rbt.Current_Directory>
/home/itssahil/PROJECTS/Mol_Feturizer/New_Systems/rnas/2EEW

>  <Rbt.Executable>
rbdock ($Id: //depot/dev/client3/rdock/2013.1/src/exe/rbdock.cxx#4 $)

>  <Rbt.Library>
libRbt.so (2013.1, Build901 2013/11/27)

>  <Rbt.Parameter_File>
/export/apps/rDock/src/rDock_2013.1_src/data/scripts/dock_solv.prm

>  <Rbt.Receptor>
prm/blind_docking_60.prm

>  <SCORE>
-15.5817

>  <SCORE.INTER>
-15.5817

>  <SCORE.INTER.CONST>
1

>  <SCORE.INTER.POLAR>
0

>  <SCORE.INTER.ROT>
0

>  <SCORE.INTER.SOLV>
3.77046

>  <SCORE.INTER.VDW>
-15.2446

>  <SCORE.INTER.norm>
-1.55817

>  <SCORE.INTRA>
0

>  <SCORE.INTRA.DIHEDRAL>
0

>  <SCORE.INTRA.DIHEDRAL.0>
0

>  <SCORE.INTRA.POLAR>
0

>  <SCORE.INTRA.POLAR.0>
0

>  <SCORE.INTRA.REPUL>
0

>  <SCORE.INTRA.REPUL.0>
0

>  <SCORE.INTRA.SOLV>
0

>  <SCORE.INTRA.SOLV.lig_0>
-4.28901

>  <SCORE.INTRA.VDW>
0

>  <SCORE.INTRA.VDW.0>
0

>  <SCORE.INTRA.norm>
0

>  <SCORE.RESTR>
0

>  <SCORE.RESTR.CAVITY>
0

>  <SCORE.RESTR.norm>
0

>  <SCORE.SYSTEM>
0

>  <SCORE.SYSTEM.CONST>
0

>  <SCORE.SYSTEM.DIHEDRAL>
0

>  <SCORE.SYSTEM.SOLV>
0

>  <SCORE.SYSTEM.norm>
0

>  <SCORE.heavy>
10

>  <SCORE.norm>
-1.55817

>  <RMSD>
3.459

$$$$
ligand
 OpenBabel11021811423D
libRbt.so/2013.1/901 2013/11/27
 10 11  0  0  0  0  0  0  0  0999 V2000
   11.5589   10.5549    6.0031 N   0  0  0  0  0  0  0  0  0  0  0  0
   11.8463    9.5738    6.9341 C   0  0  0  0  0  0  0  0  0  0  0  0
   11.9422    9.8394    8.2440 N   0  0  0  0  0  0  0  0  0  0  0  0
   11.7334   11.1477    8.5437 C   0  0  0  0  0  0  0  0  0  0  0  0
   11.4444   12.1782    7.6670 C   0  0  0  0  0  0  0  0  0  0  0  0
   11.3382   11.9096    6.2715 C   0  0  0  0  0  0  0  0  0  0  0  0
   11.0914   12.6668    5.3219 O   0  0  0  0  0  0  0  0  0  0  0  0
   11.3118   13.3324    8.3888 N   0  0  0  0  0  0  0  0  0  0  0  0
   11.5167   12.9999    9.6878 C   0  0  0  0  0  0  0  0  0  0  0  0
   11.7796   11.6603    9.8158 N   0  0  0  0  0  0  0  0  0  0  0  0
  1  2  1  0  0  0  0
  1  6  1  0  0  0  0
  2  3  2  0  0  0  0
  3  4  1  0  0  0  0
  4  5  2  0  0  0  0
  4 10  1  0  0  0  0
  5  6  1  0  0  0  0
  5  8  1  0  0  0  0
  6  7  2  0  0  0  0
  8  9  1  0  0  0  0
  9 10  2  0  0  0  0
M  END
>  <CHROM.1>
11.54780634,11.60447011,7.64200244,-1.83958001,-1.35760586,1.02899192

>  <Name>
ligand

>  <RI>
0

>  <Rbt.Current_Directory>
/home/itssahil/PROJECTS/Mol_Feturizer/New_Systems/rnas/2EEW

>  <Rbt.Executable>
rbdock ($Id: //depot/dev/client3/rdock/2013.1/src/exe/rbdock.cxx#4 $)

>  <Rbt.Library>
libRbt.so (2013.1, Build901 2013/11/27)

>  <Rbt.Parameter_File>
/export/apps/rDock/src/rDock_2013.1_src/data/scripts/dock_solv.prm

>  <Rbt.Receptor>
prm/blind_docking_100.prm

>  <SCORE>
-15.6276

>  <SCORE.INTER>
-15.6276

>  <SCORE.INTER.CONST>
1

>  <SCORE.INTER.POLAR>
0

>  <SCORE.INTER.ROT>
0

>  <SCORE.INTER.SOLV>
3.74967

>  <SCORE.INTER.VDW>
-15.2683

>  <SCORE.INTER.norm>
-1.56276

>  <SCORE.INTRA>
0

>  <SCORE.INTRA.DIHEDRAL>
0

>  <SCORE.INTRA.DIHEDRAL.0>
0

>  <SCORE.INTRA.POLAR>
0

>  <SCORE.INTRA.POLAR.0>
0

>  <SCORE.INTRA.REPUL>
0

>  <SCORE.INTRA.REPUL.0>
0

>  <SCORE.INTRA.SOLV>
0

>  <SCORE.INTRA.SOLV.lig_0>
-4.28901

>  <SCORE.INTRA.VDW>
0

>  <SCORE.INTRA.VDW.0>
0

>  <SCORE.INTRA.norm>
0

>  <SCORE.RESTR>
0

>  <SCORE.RESTR.CAVITY>
0

>  <SCORE.RESTR.norm>
0

>  <SCORE.SYSTEM>
0

>  <SCORE.SYSTEM.CONST>
0

>  <SCORE.SYSTEM.DIHEDRAL>
0

>  <SCORE.SYSTEM.SOLV>
0

>  <SCORE.SYSTEM.norm>
0

>  <SCORE.heavy>
10

>  <SCORE.norm>
-1.56276

>  <RMSD>
3.461

$$$$
ligand
 OpenBabel11021811423D
libRbt.so/2013.1/901 2013/11/27
 10 11  0  0  0  0  0  0  0  0999 V2000
   11.5395   10.5653    5.9739 N   0  0  0  0  0  0  0  0  0  0  0  0
   11.8049    9.5785    6.9054 C   0  0  0  0  0  0  0  0  0  0  0  0
   11.8961    9.8409    8.2163 N   0  0  0  0  0  0  0  0  0  0  0  0
   11.7060   11.1519    8.5164 C   0  0  0  0  0  0  0  0  0  0  0  0
   11.4394   12.1880    7.6392 C   0  0  0  0  0  0  0  0  0  0  0  0
   11.3385   11.9230    6.2426 C   0  0  0  0  0  0  0  0  0  0  0  0
   11.1102   12.6852    5.2925 O   0  0  0  0  0  0  0  0  0  0  0  0
   11.3202   13.3432    8.3617 N   0  0  0  0  0  0  0  0  0  0  0  0
   11.5109   13.0058    9.6616 C   0  0  0  0  0  0  0  0  0  0  0  0
   11.7516   11.6621    9.7895 N   0  0  0  0  0  0  0  0  0  0  0  0
  1  2  1  0  0  0  0
  1  6  1  0  0  0  0
  2  3  2  0  0  0  0
  3  4  1  0  0  0  0
  4  5  2  0  0  0  0
  4 10  1  0  0  0  0
  5  6  1  0  0  0  0
  5  8  1  0  0  0  0
  6  7  2  0  0  0  0
  8  9  1  0  0  0  0
  9 10  2  0  0  0  0
M  END
>  <CHROM.1>
11.53384883,11.61274153,7.61414108,-1.85145690,-1.37471140,1.01871307

>  <Name>
ligand

>  <RI>
0

>  <Rbt.Current_Directory>
/home/itssahil/PROJECTS/Mol_Feturizer/New_Systems/rnas/2EEW

>  <Rbt.Executable>
rbdock ($Id: //depot/dev/client3/rdock/2013.1/src/exe/rbdock.cxx#4 $)

>  <Rbt.Library>
libRbt.so (2013.1, Build901 2013/11/27)

>  <Rbt.Parameter_File>
/export/apps/rDock/src/rDock_2013.1_src/data/scripts/dock_solv.prm

>  <Rbt.Receptor>
prm/blind_docking_60.prm

>  <SCORE>
-15.5916

>  <SCORE.INTER>
-15.5916

>  <SCORE.INTER.CONST>
1

>  <SCORE.INTER.POLAR>
0

>  <SCORE.INTER.ROT>
0

>  <SCORE.INTER.SOLV>
3.80888

>  <SCORE.INTER.VDW>
-15.2641

>  <SCORE.INTER.norm>
-1.55916

>  <SCORE.INTRA>
0

>  <SCORE.INTRA.DIHEDRAL>
0

>  <SCORE.INTRA.DIHEDRAL.0>
0

>  <SCORE.INTRA.POLAR>
0

>  <SCORE.INTRA.POLAR.0>
0

>  <SCORE.INTRA.REPUL>
0

>  <SCORE.INTRA.REPUL.0>
0

>  <SCORE.INTRA.SOLV>
0

>  <SCORE.INTRA.SOLV.lig_0>
-4.28901

>  <SCORE.INTRA.VDW>
0

>  <SCORE.INTRA.VDW.0>
0

>  <SCORE.INTRA.norm>
0

>  <SCORE.RESTR>
0

>  <SCORE.RESTR.CAVITY>
0

>  <SCORE.RESTR.norm>
0

>  <SCORE.SYSTEM>
0

>  <SCORE.SYSTEM.CONST>
0

>  <SCORE.SYSTEM.DIHEDRAL>
0

>  <SCORE.SYSTEM.SOLV>
0

>  <SCORE.SYSTEM.norm>
0

>  <SCORE.heavy>
10

>  <SCORE.norm>
-1.55916

>  <RMSD>
3.461

$$$$
ligand
 OpenBabel11021811423D
libRbt.so/2013.1/901 2013/11/27
 10 11  0  0  0  0  0  0  0  0999 V2000
   11.5289   10.5741    5.9702 N   0  0  0  0  0  0  0  0  0  0  0  0
   11.7995    9.5861    6.8990 C   0  0  0  0  0  0  0  0  0  0  0  0
   11.8982    9.8469    8.2096 N   0  0  0  0  0  0  0  0  0  0  0  0
   11.7101   11.1576    8.5124 C   0  0  0  0  0  0  0  0  0  0  0  0
   11.4386   12.1948    7.6380 C   0  0  0  0  0  0  0  0  0  0  0  0
   11.3297   11.9315    6.2417 C   0  0  0  0  0  0  0  0  0  0  0  0
   11.0960   12.6949    5.2938 O   0  0  0  0  0  0  0  0  0  0  0  0
   11.3237   13.3492    8.3625 N   0  0  0  0  0  0  0  0  0  0  0  0
   11.5219   13.0101    9.6609 C   0  0  0  0  0  0  0  0  0  0  0  0
   11.7631   11.6662    9.7858 N   0  0  0  0  0  0  0  0  0  0  0  0
  1  2  1  0  0  0  0
  1  6  1  0  0  0  0
  2  3  2  0  0  0  0
  3  4  1  0  0  0  0
  4  5  2  0  0  0  0
  4 10  1  0  0  0  0
  5  6  1  0  0  0  0
  5  8  1  0  0  0  0
  6  7  2  0  0  0  0
  8  9  1  0  0  0  0
  9 10  2  0  0  0  0
M  END
>  <CHROM.1>
11.53281291,11.61954774,7.61166898,-1.87672834,-1.37178789,0.99513682

>  <Name>
ligand

>  <RI>
0

>  <Rbt.Current_Directory>
/home/itssahil/PROJECTS/Mol_Feturizer/New_Systems/rnas/2EEW

>  <Rbt.Executable>
rbdock ($Id: //depot/dev/client3/rdock/2013.1/src/exe/rbdock.cxx#4 $)

>  <Rbt.Library>
libRbt.so (2013.1, Build901 2013/11/27)

>  <Rbt.Parameter_File>
/export/apps/rDock/src/rDock_2013.1_src/data/scripts/dock_solv.prm

>  <Rbt.Receptor>
prm/blind_docking_60.prm

>  <SCORE>
-15.5884

>  <SCORE.INTER>
-15.5884

>  <SCORE.INTER.CONST>
1

>  <SCORE.INTER.POLAR>
0

>  <SCORE.INTER.ROT>
0

>  <SCORE.INTER.SOLV>
3.80126

>  <SCORE.INTER.VDW>
-15.2594

>  <SCORE.INTER.norm>
-1.55884

>  <SCORE.INTRA>
0

>  <SCORE.INTRA.DIHEDRAL>
0

>  <SCORE.INTRA.DIHEDRAL.0>
0

>  <SCORE.INTRA.POLAR>
0

>  <SCORE.INTRA.POLAR.0>
0

>  <SCORE.INTRA.REPUL>
0

>  <SCORE.INTRA.REPUL.0>
0

>  <SCORE.INTRA.SOLV>
0

>  <SCORE.INTRA.SOLV.lig_0>
-4.28901

>  <SCORE.INTRA.VDW>
0

>  <SCORE.INTRA.VDW.0>
0

>  <SCORE.INTRA.norm>
0

>  <SCORE.RESTR>
0

>  <SCORE.RESTR.CAVITY>
0

>  <SCORE.RESTR.norm>
0

>  <SCORE.SYSTEM>
0

>  <SCORE.SYSTEM.CONST>
0

>  <SCORE.SYSTEM.DIHEDRAL>
0

>  <SCORE.SYSTEM.SOLV>
0

>  <SCORE.SYSTEM.norm>
0

>  <SCORE.heavy>
10

>  <SCORE.norm>
-1.55884

>  <RMSD>
3.463

$$$$
ligand
 OpenBabel11021811423D
libRbt.so/2013.1/901 2013/11/27
 10 11  0  0  0  0  0  0  0  0999 V2000
   11.5339   10.5480    6.0005 N   0  0  0  0  0  0  0  0  0  0  0  0
   11.8250    9.5647    6.9281 C   0  0  0  0  0  0  0  0  0  0  0  0
   11.9333    9.8287    8.2374 N   0  0  0  0  0  0  0  0  0  0  0  0
   11.7328   11.1376    8.5400 C   0  0  0  0  0  0  0  0  0  0  0  0
   11.4408   12.1702    7.6667 C   0  0  0  0  0  0  0  0  0  0  0  0
   11.3214   11.9034    6.2720 C   0  0  0  0  0  0  0  0  0  0  0  0
   11.0697   12.6625    5.3252 O   0  0  0  0  0  0  0  0  0  0  0  0
   11.3194   13.3243    8.3907 N   0  0  0  0  0  0  0  0  0  0  0  0
   11.5341   12.9896    9.6876 C   0  0  0  0  0  0  0  0  0  0  0  0
   11.7922   11.6488    9.8121 N   0  0  0  0  0  0  0  0  0  0  0  0
  1  2  1  0  0  0  0
  1  6  1  0  0  0  0
  2  3  2  0  0  0  0
  3  4  1  0  0  0  0
  4  5  2  0  0  0  0
  4 10  1  0  0  0  0
  5  6  1  0  0  0  0
  5  8  1  0  0  0  0
  6  7  2  0  0  0  0
  8  9  1  0  0  0  0
  9 10  2  0  0  0  0
M  END
>  <CHROM.1>
11.54146336,11.59599562,7.64037511,-1.88491288,-1.35669069,0.98559960

>  <Name>
ligand

>  <RI>
0

>  <Rbt.Current_Directory>
/home/itssahil/PROJECTS/Mol_Feturizer/New_Systems/rnas/2EEW

>  <Rbt.Executable>
rbdock ($Id: //depot/dev/client3/rdock/2013.1/src/exe/rbdock.cxx#4 $)

>  <Rbt.Library>
libRbt.so (2013.1, Build901 2013/11/27)

>  <Rbt.Parameter_File>
/export/apps/rDock/src/rDock_2013.1_src/data/scripts/dock_solv.prm

>  <Rbt.Receptor>
prm/blind_docking_60.prm

>  <SCORE>
-15.6198

>  <SCORE.INTER>
-15.6198

>  <SCORE.INTER.CONST>
1

>  <SCORE.INTER.POLAR>
0

>  <SCORE.INTER.ROT>
0

>  <SCORE.INTER.SOLV>
3.73518

>  <SCORE.INTER.VDW>
-15.2582

>  <SCORE.INTER.norm>
-1.56198

>  <SCORE.INTRA>
0

>  <SCORE.INTRA.DIHEDRAL>
0

>  <SCORE.INTRA.DIHEDRAL.0>
0

>  <SCORE.INTRA.POLAR>
0

>  <SCORE.INTRA.POLAR.0>
0

>  <SCORE.INTRA.REPUL>
0

>  <SCORE.INTRA.REPUL.0>
0

>  <SCORE.INTRA.SOLV>
0

>  <SCORE.INTRA.SOLV.lig_0>
-4.28901

>  <SCORE.INTRA.VDW>
0

>  <SCORE.INTRA.VDW.0>
0

>  <SCORE.INTRA.norm>
0

>  <SCORE.RESTR>
0

>  <SCORE.RESTR.CAVITY>
0

>  <SCORE.RESTR.norm>
0

>  <SCORE.SYSTEM>
0

>  <SCORE.SYSTEM.CONST>
0

>  <SCORE.SYSTEM.DIHEDRAL>
0

>  <SCORE.SYSTEM.SOLV>
0

>  <SCORE.SYSTEM.norm>
0

>  <SCORE.heavy>
10

>  <SCORE.norm>
-1.56198

>  <RMSD>
3.464

$$$$
ligand
 OpenBabel11021811423D
libRbt.so/2013.1/901 2013/11/27
 10 11  0  0  0  0  0  0  0  0999 V2000
   11.5445   10.5548    5.9921 N   0  0  0  0  0  0  0  0  0  0  0  0
   11.8340    9.5693    6.9178 C   0  0  0  0  0  0  0  0  0  0  0  0
   11.9399    9.8301    8.2280 N   0  0  0  0  0  0  0  0  0  0  0  0
   11.7386   11.1383    8.5334 C   0  0  0  0  0  0  0  0  0  0  0  0
   11.4481   12.1729    7.6621 C   0  0  0  0  0  0  0  0  0  0  0  0
   11.3314   11.9095    6.2665 C   0  0  0  0  0  0  0  0  0  0  0  0
   11.0814   12.6709    5.3211 O   0  0  0  0  0  0  0  0  0  0  0  0
   11.3252   13.3252    8.3887 N   0  0  0  0  0  0  0  0  0  0  0  0
   11.5374   12.9874    9.6851 C   0  0  0  0  0  0  0  0  0  0  0  0
   11.7955   11.6464    9.8069 N   0  0  0  0  0  0  0  0  0  0  0  0
  1  2  1  0  0  0  0
  1  6  1  0  0  0  0
  2  3  2  0  0  0  0
  3  4  1  0  0  0  0
  4  5  2  0  0  0  0
  4 10  1  0  0  0  0
  5  6  1  0  0  0  0
  5  8  1  0  0  0  0
  6  7  2  0  0  0  0
  8  9  1  0  0  0  0
  9 10  2  0  0  0  0
M  END
>  <CHROM.1>
11.54888404,11.59882932,7.63454269,-1.87715977,-1.35761761,0.99561841

>  <Name>
ligand

>  <RI>
0

>  <Rbt.Current_Directory>
/home/itssahil/PROJECTS/Mol_Feturizer/New_Systems/rnas/2EEW

>  <Rbt.Executable>
rbdock ($Id: //depot/dev/client3/rdock/2013.1/src/exe/rbdock.cxx#4 $)

>  <Rbt.Library>
libRbt.so (2013.1, Build901 2013/11/27)

>  <Rbt.Parameter_File>
/export/apps/rDock/src/rDock_2013.1_src/data/scripts/dock_solv.prm

>  <Rbt.Receptor>
prm/blind_docking_40.prm

>  <SCORE>
-15.6257

>  <SCORE.INTER>
-15.6257

>  <SCORE.INTER.CONST>
1

>  <SCORE.INTER.POLAR>
0

>  <SCORE.INTER.ROT>
0

>  <SCORE.INTER.SOLV>
3.74499

>  <SCORE.INTER.VDW>
-15.2655

>  <SCORE.INTER.norm>
-1.56257

>  <SCORE.INTRA>
0

>  <SCORE.INTRA.DIHEDRAL>
0

>  <SCORE.INTRA.DIHEDRAL.0>
0

>  <SCORE.INTRA.POLAR>
0

>  <SCORE.INTRA.POLAR.0>
0

>  <SCORE.INTRA.REPUL>
0

>  <SCORE.INTRA.REPUL.0>
0

>  <SCORE.INTRA.SOLV>
0

>  <SCORE.INTRA.SOLV.lig_0>
-4.28901

>  <SCORE.INTRA.VDW>
0

>  <SCORE.INTRA.VDW.0>
0

>  <SCORE.INTRA.norm>
0

>  <SCORE.RESTR>
0

>  <SCORE.RESTR.CAVITY>
0

>  <SCORE.RESTR.norm>
0

>  <SCORE.SYSTEM>
0

>  <SCORE.SYSTEM.CONST>
0

>  <SCORE.SYSTEM.DIHEDRAL>
0

>  <SCORE.SYSTEM.SOLV>
0

>  <SCORE.SYSTEM.norm>
0

>  <SCORE.heavy>
10

>  <SCORE.norm>
-1.56257

>  <RMSD>
3.465

$$$$
ligand
 OpenBabel11021811423D
libRbt.so/2013.1/901 2013/11/27
 10 11  0  0  0  0  0  0  0  0999 V2000
   11.5677   10.5785    5.9905 N   0  0  0  0  0  0  0  0  0  0  0  0
   11.8427    9.5815    6.9082 C   0  0  0  0  0  0  0  0  0  0  0  0
   11.9327    9.8268    8.2225 N   0  0  0  0  0  0  0  0  0  0  0  0
   11.7313   11.1319    8.5407 C   0  0  0  0  0  0  0  0  0  0  0  0
   11.4547   12.1774    7.6778 C   0  0  0  0  0  0  0  0  0  0  0  0
   11.3549   11.9306    6.2779 C   0  0  0  0  0  0  0  0  0  0  0  0
   11.1189   12.7036    5.3384 O   0  0  0  0  0  0  0  0  0  0  0  0
   11.3259   13.3216    8.4161 N   0  0  0  0  0  0  0  0  0  0  0  0
   11.5208   12.9681    9.7112 C   0  0  0  0  0  0  0  0  0  0  0  0
   11.7736   11.6250    9.8206 N   0  0  0  0  0  0  0  0  0  0  0  0
  1  2  1  0  0  0  0
  1  6  1  0  0  0  0
  2  3  2  0  0  0  0
  3  4  1  0  0  0  0
  4  5  2  0  0  0  0
  4 10  1  0  0  0  0
  5  6  1  0  0  0  0
  5  8  1  0  0  0  0
  6  7  2  0  0  0  0
  8  9  1  0  0  0  0
  9 10  2  0  0  0  0
M  END
>  <CHROM.1>
11.55420442,11.60339810,7.64486839,-1.83240751,-1.36663160,1.05102337

>  <Name>
ligand

>  <RI>
0

>  <Rbt.Current_Directory>
/home/itssahil/PROJECTS/Mol_Feturizer/New_Systems/rnas/2EEW

>  <Rbt.Executable>
rbdock ($Id: //depot/dev/client3/rdock/2013.1/src/exe/rbdock.cxx#4 $)

>  <Rbt.Library>
libRbt.so (2013.1, Build901 2013/11/27)

>  <Rbt.Parameter_File>
/export/apps/rDock/src/rDock_2013.1_src/data/scripts/dock_solv.prm

>  <Rbt.Receptor>
prm/blind_docking_100.prm

>  <SCORE>
-15.6095

>  <SCORE.INTER>
-15.6095

>  <SCORE.INTER.CONST>
1

>  <SCORE.INTER.POLAR>
0

>  <SCORE.INTER.ROT>
0

>  <SCORE.INTER.SOLV>
3.78049

>  <SCORE.INTER.VDW>
-15.2665

>  <SCORE.INTER.norm>
-1.56095

>  <SCORE.INTRA>
0

>  <SCORE.INTRA.DIHEDRAL>
0

>  <SCORE.INTRA.DIHEDRAL.0>
0

>  <SCORE.INTRA.POLAR>
0

>  <SCORE.INTRA.POLAR.0>
0

>  <SCORE.INTRA.REPUL>
0

>  <SCORE.INTRA.REPUL.0>
0

>  <SCORE.INTRA.SOLV>
0

>  <SCORE.INTRA.SOLV.lig_0>
-4.28901

>  <SCORE.INTRA.VDW>
0

>  <SCORE.INTRA.VDW.0>
0

>  <SCORE.INTRA.norm>
0

>  <SCORE.RESTR>
0

>  <SCORE.RESTR.CAVITY>
0

>  <SCORE.RESTR.norm>
0

>  <SCORE.SYSTEM>
0

>  <SCORE.SYSTEM.CONST>
0

>  <SCORE.SYSTEM.DIHEDRAL>
0

>  <SCORE.SYSTEM.SOLV>
0

>  <SCORE.SYSTEM.norm>
0

>  <SCORE.heavy>
10

>  <SCORE.norm>
-1.56095

>  <RMSD>
3.473

$$$$
ligand
 OpenBabel11021811423D
libRbt.so/2013.1/901 2013/11/27
 10 11  0  0  0  0  0  0  0  0999 V2000
   11.5441   10.5935    5.9918 N   0  0  0  0  0  0  0  0  0  0  0  0
   11.8359    9.5992    6.9074 C   0  0  0  0  0  0  0  0  0  0  0  0
   11.9408    9.8466    8.2201 N   0  0  0  0  0  0  0  0  0  0  0  0
   11.7360   11.1510    8.5391 C   0  0  0  0  0  0  0  0  0  0  0  0
   11.4430   12.1939    7.6785 C   0  0  0  0  0  0  0  0  0  0  0  0
   11.3274   11.9447    6.2802 C   0  0  0  0  0  0  0  0  0  0  0  0
   11.0756   12.7153    5.3427 O   0  0  0  0  0  0  0  0  0  0  0  0
   11.3170   13.3383    8.4170 N   0  0  0  0  0  0  0  0  0  0  0  0
   11.5298   12.9876    9.7099 C   0  0  0  0  0  0  0  0  0  0  0  0
   11.7914   11.6460    9.8178 N   0  0  0  0  0  0  0  0  0  0  0  0
  1  2  1  0  0  0  0
  1  6  1  0  0  0  0
  2  3  2  0  0  0  0
  3  4  1  0  0  0  0
  4  5  2  0  0  0  0
  4 10  1  0  0  0  0
  5  6  1  0  0  0  0
  5  8  1  0  0  0  0
  6  7  2  0  0  0  0
  8  9  1  0  0  0  0
  9 10  2  0  0  0  0
M  END
>  <CHROM.1>
11.54535575,11.62040671,7.64501603,-1.86959937,-1.35556351,1.01339169

>  <Name>
ligand

>  <RI>
0

>  <Rbt.Current_Directory>
/home/itssahil/PROJECTS/Mol_Feturizer/New_Systems/rnas/2EEW

>  <Rbt.Executable>
rbdock ($Id: //depot/dev/client3/rdock/2013.1/src/exe/rbdock.cxx#4 $)

>  <Rbt.Library>
libRbt.so (2013.1, Build901 2013/11/27)

>  <Rbt.Parameter_File>
/export/apps/rDock/src/rDock_2013.1_src/data/scripts/dock_solv.prm

>  <Rbt.Receptor>
prm/pocket_docking_7.prm

>  <SCORE>
-15.6032

>  <SCORE.INTER>
-15.6032

>  <SCORE.INTER.CONST>
1

>  <SCORE.INTER.POLAR>
0

>  <SCORE.INTER.ROT>
0

>  <SCORE.INTER.SOLV>
3.74863

>  <SCORE.INTER.VDW>
-15.2517

>  <SCORE.INTER.norm>
-1.56032

>  <SCORE.INTRA>
0

>  <SCORE.INTRA.DIHEDRAL>
0

>  <SCORE.INTRA.DIHEDRAL.0>
0

>  <SCORE.INTRA.POLAR>
0

>  <SCORE.INTRA.POLAR.0>
0

>  <SCORE.INTRA.REPUL>
0

>  <SCORE.INTRA.REPUL.0>
0

>  <SCORE.INTRA.SOLV>
0

>  <SCORE.INTRA.SOLV.lig_0>
-4.28901

>  <SCORE.INTRA.VDW>
0

>  <SCORE.INTRA.VDW.0>
0

>  <SCORE.INTRA.norm>
0

>  <SCORE.RESTR>
0

>  <SCORE.RESTR.CAVITY>
0

>  <SCORE.RESTR.norm>
0

>  <SCORE.SYSTEM>
0

>  <SCORE.SYSTEM.CONST>
0

>  <SCORE.SYSTEM.DIHEDRAL>
0

>  <SCORE.SYSTEM.SOLV>
0

>  <SCORE.SYSTEM.norm>
0

>  <SCORE.heavy>
10

>  <SCORE.norm>
-1.56032

>  <RMSD>
3.474

$$$$
ligand
 OpenBabel11021811423D
libRbt.so/2013.1/901 2013/11/27
 10 11  0  0  0  0  0  0  0  0999 V2000
   11.4777   10.6133    5.9247 N   0  0  0  0  0  0  0  0  0  0  0  0
   11.8227    9.6176    6.8199 C   0  0  0  0  0  0  0  0  0  0  0  0
   11.9731    9.8568    8.1298 N   0  0  0  0  0  0  0  0  0  0  0  0
   11.7566   11.1545    8.4675 C   0  0  0  0  0  0  0  0  0  0  0  0
   11.4117   12.1984    7.6275 C   0  0  0  0  0  0  0  0  0  0  0  0
   11.2472   11.9580    6.2326 C   0  0  0  0  0  0  0  0  0  0  0  0
   10.9455   12.7309    5.3120 O   0  0  0  0  0  0  0  0  0  0  0  0
   11.2928   13.3344    8.3799 N   0  0  0  0  0  0  0  0  0  0  0  0
   11.5614   12.9777    9.6608 C   0  0  0  0  0  0  0  0  0  0  0  0
   11.8517   11.6405    9.7473 N   0  0  0  0  0  0  0  0  0  0  0  0
  1  2  1  0  0  0  0
  1  6  1  0  0  0  0
  2  3  2  0  0  0  0
  3  4  1  0  0  0  0
  4  5  2  0  0  0  0
  4 10  1  0  0  0  0
  5  6  1  0  0  0  0
  5  8  1  0  0  0  0
  6  7  2  0  0  0  0
  8  9  1  0  0  0  0
  9 10  2  0  0  0  0
M  END
>  <CHROM.1>
11.52320975,11.62720261,7.58528650,-1.96059163,-1.31860161,0.93300603

>  <Name>
ligand

>  <RI>
0

>  <Rbt.Current_Directory>
/home/itssahil/PROJECTS/Mol_Feturizer/New_Systems/rnas/2EEW

>  <Rbt.Executable>
rbdock ($Id: //depot/dev/client3/rdock/2013.1/src/exe/rbdock.cxx#4 $)

>  <Rbt.Library>
libRbt.so (2013.1, Build901 2013/11/27)

>  <Rbt.Parameter_File>
/export/apps/rDock/src/rDock_2013.1_src/data/scripts/dock_solv.prm

>  <Rbt.Receptor>
prm/blind_docking_40.prm

>  <SCORE>
-15.5647

>  <SCORE.INTER>
-15.5647

>  <SCORE.INTER.CONST>
1

>  <SCORE.INTER.POLAR>
0

>  <SCORE.INTER.ROT>
0

>  <SCORE.INTER.SOLV>
3.63884

>  <SCORE.INTER.VDW>
-15.1894

>  <SCORE.INTER.norm>
-1.55647

>  <SCORE.INTRA>
0

>  <SCORE.INTRA.DIHEDRAL>
0

>  <SCORE.INTRA.DIHEDRAL.0>
0

>  <SCORE.INTRA.POLAR>
0

>  <SCORE.INTRA.POLAR.0>
0

>  <SCORE.INTRA.REPUL>
0

>  <SCORE.INTRA.REPUL.0>
0

>  <SCORE.INTRA.SOLV>
0

>  <SCORE.INTRA.SOLV.lig_0>
-4.28901

>  <SCORE.INTRA.VDW>
0

>  <SCORE.INTRA.VDW.0>
0

>  <SCORE.INTRA.norm>
0

>  <SCORE.RESTR>
0

>  <SCORE.RESTR.CAVITY>
0

>  <SCORE.RESTR.norm>
0

>  <SCORE.SYSTEM>
0

>  <SCORE.SYSTEM.CONST>
0

>  <SCORE.SYSTEM.DIHEDRAL>
0

>  <SCORE.SYSTEM.SOLV>
0

>  <SCORE.SYSTEM.norm>
0

>  <SCORE.heavy>
10

>  <SCORE.norm>
-1.55647

>  <RMSD>
3.484

$$$$
ligand
 OpenBabel11021811423D
libRbt.so/2013.1/901 2013/11/27
 10 11  0  0  0  0  0  0  0  0999 V2000
   11.5457   10.7906    5.8870 N   0  0  0  0  0  0  0  0  0  0  0  0
   11.7907    9.7319    6.7419 C   0  0  0  0  0  0  0  0  0  0  0  0
   11.8744    9.8917    8.0697 N   0  0  0  0  0  0  0  0  0  0  0  0
   11.6988   11.1784    8.4682 C   0  0  0  0  0  0  0  0  0  0  0  0
   11.4528   12.2822    7.6711 C   0  0  0  0  0  0  0  0  0  0  0  0
   11.3600   12.1263    6.2576 C   0  0  0  0  0  0  0  0  0  0  0  0
   11.1493   12.9621    5.3671 O   0  0  0  0  0  0  0  0  0  0  0  0
   11.3426   13.3801    8.4792 N   0  0  0  0  0  0  0  0  0  0  0  0
   11.5183   12.9415    9.7507 C   0  0  0  0  0  0  0  0  0  0  0  0
   11.7406   11.5889    9.7769 N   0  0  0  0  0  0  0  0  0  0  0  0
  1  2  1  0  0  0  0
  1  6  1  0  0  0  0
  2  3  2  0  0  0  0
  3  4  1  0  0  0  0
  4  5  2  0  0  0  0
  4 10  1  0  0  0  0
  5  6  1  0  0  0  0
  5  8  1  0  0  0  0
  6  7  2  0  0  0  0
  8  9  1  0  0  0  0
  9 10  2  0  0  0  0
M  END
>  <CHROM.1>
11.54003721,11.70927670,7.60265346,-1.85027180,-1.39000274,1.09662538

>  <Name>
ligand

>  <RI>
0

>  <Rbt.Current_Directory>
/home/itssahil/PROJECTS/Mol_Feturizer/New_Systems/rnas/2EEW

>  <Rbt.Executable>
rbdock ($Id: //depot/dev/client3/rdock/2013.1/src/exe/rbdock.cxx#4 $)

>  <Rbt.Library>
libRbt.so (2013.1, Build901 2013/11/27)

>  <Rbt.Parameter_File>
/export/apps/rDock/src/rDock_2013.1_src/data/scripts/dock_solv.prm

>  <Rbt.Receptor>
prm/blind_docking_40.prm

>  <SCORE>
-15.6379

>  <SCORE.INTER>
-15.6379

>  <SCORE.INTER.CONST>
1

>  <SCORE.INTER.POLAR>
0

>  <SCORE.INTER.ROT>
0

>  <SCORE.INTER.SOLV>
3.94325

>  <SCORE.INTER.VDW>
-15.3397

>  <SCORE.INTER.norm>
-1.56379

>  <SCORE.INTRA>
0

>  <SCORE.INTRA.DIHEDRAL>
0

>  <SCORE.INTRA.DIHEDRAL.0>
0

>  <SCORE.INTRA.POLAR>
0

>  <SCORE.INTRA.POLAR.0>
0

>  <SCORE.INTRA.REPUL>
0

>  <SCORE.INTRA.REPUL.0>
0

>  <SCORE.INTRA.SOLV>
0

>  <SCORE.INTRA.SOLV.lig_0>
-4.28901

>  <SCORE.INTRA.VDW>
0

>  <SCORE.INTRA.VDW.0>
0

>  <SCORE.INTRA.norm>
0

>  <SCORE.RESTR>
0

>  <SCORE.RESTR.CAVITY>
0

>  <SCORE.RESTR.norm>
0

>  <SCORE.SYSTEM>
0

>  <SCORE.SYSTEM.CONST>
0

>  <SCORE.SYSTEM.DIHEDRAL>
0

>  <SCORE.SYSTEM.SOLV>
0

>  <SCORE.SYSTEM.norm>
0

>  <SCORE.heavy>
10

>  <SCORE.norm>
-1.56379

>  <RMSD>
3.521

$$$$
ligand
 OpenBabel11021811423D
libRbt.so/2013.1/901 2013/11/27
 10 11  0  0  0  0  0  0  0  0999 V2000
   11.5568   10.7853    5.8956 N   0  0  0  0  0  0  0  0  0  0  0  0
   11.8093    9.7282    6.7504 C   0  0  0  0  0  0  0  0  0  0  0  0
   11.8902    9.8881    8.0783 N   0  0  0  0  0  0  0  0  0  0  0  0
   11.7038   11.1732    8.4771 C   0  0  0  0  0  0  0  0  0  0  0  0
   11.4498   12.2753    7.6803 C   0  0  0  0  0  0  0  0  0  0  0  0
   11.3600   12.1193    6.2666 C   0  0  0  0  0  0  0  0  0  0  0  0
   11.1437   12.9538    5.3762 O   0  0  0  0  0  0  0  0  0  0  0  0
   11.3298   13.3719    8.4888 N   0  0  0  0  0  0  0  0  0  0  0  0
   11.5075   12.9342    9.7603 C   0  0  0  0  0  0  0  0  0  0  0  0
   11.7407   11.5833    9.7862 N   0  0  0  0  0  0  0  0  0  0  0  0
  1  2  1  0  0  0  0
  1  6  1  0  0  0  0
  2  3  2  0  0  0  0
  3  4  1  0  0  0  0
  4  5  2  0  0  0  0
  4 10  1  0  0  0  0
  5  6  1  0  0  0  0
  5  8  1  0  0  0  0
  6  7  2  0  0  0  0
  8  9  1  0  0  0  0
  9 10  2  0  0  0  0
M  END
>  <CHROM.1>
11.54175882,11.70312663,7.61168900,-1.82487964,-1.38334981,1.12204379

>  <Name>
ligand

>  <RI>
0

>  <Rbt.Current_Directory>
/home/itssahil/PROJECTS/Mol_Feturizer/New_Systems/rnas/2EEW

>  <Rbt.Executable>
rbdock ($Id: //depot/dev/client3/rdock/2013.1/src/exe/rbdock.cxx#4 $)

>  <Rbt.Library>
libRbt.so (2013.1, Build901 2013/11/27)

>  <Rbt.Parameter_File>
/export/apps/rDock/src/rDock_2013.1_src/data/scripts/dock_solv.prm

>  <Rbt.Receptor>
prm/pocket_docking_7.prm

>  <SCORE>
-15.6628

>  <SCORE.INTER>
-15.6628

>  <SCORE.INTER.CONST>
1

>  <SCORE.INTER.POLAR>
0

>  <SCORE.INTER.ROT>
0

>  <SCORE.INTER.SOLV>
3.92154

>  <SCORE.INTER.VDW>
-15.349

>  <SCORE.INTER.norm>
-1.56628

>  <SCORE.INTRA>
0

>  <SCORE.INTRA.DIHEDRAL>
0

>  <SCORE.INTRA.DIHEDRAL.0>
0

>  <SCORE.INTRA.POLAR>
0

>  <SCORE.INTRA.POLAR.0>
0

>  <SCORE.INTRA.REPUL>
0

>  <SCORE.INTRA.REPUL.0>
0

>  <SCORE.INTRA.SOLV>
0

>  <SCORE.INTRA.SOLV.lig_0>
-4.28901

>  <SCORE.INTRA.VDW>
0

>  <SCORE.INTRA.VDW.0>
0

>  <SCORE.INTRA.norm>
0

>  <SCORE.RESTR>
0

>  <SCORE.RESTR.CAVITY>
0

>  <SCORE.RESTR.norm>
0

>  <SCORE.SYSTEM>
0

>  <SCORE.SYSTEM.CONST>
0

>  <SCORE.SYSTEM.DIHEDRAL>
0

>  <SCORE.SYSTEM.SOLV>
0

>  <SCORE.SYSTEM.norm>
0

>  <SCORE.heavy>
10

>  <SCORE.norm>
-1.56628

>  <RMSD>
3.521

$$$$
ligand
 OpenBabel11021811423D
libRbt.so/2013.1/901 2013/11/27
 10 11  0  0  0  0  0  0  0  0999 V2000
   11.5742   10.8003    5.9030 N   0  0  0  0  0  0  0  0  0  0  0  0
   11.8123    9.7375    6.7548 C   0  0  0  0  0  0  0  0  0  0  0  0
   11.8813    9.8903    8.0843 N   0  0  0  0  0  0  0  0  0  0  0  0
   11.6984   11.1744    8.4878 C   0  0  0  0  0  0  0  0  0  0  0  0
   11.4585   12.2819    7.6941 C   0  0  0  0  0  0  0  0  0  0  0  0
   11.3814   12.1336    6.2789 C   0  0  0  0  0  0  0  0  0  0  0  0
   11.1785   12.9738    5.3907 O   0  0  0  0  0  0  0  0  0  0  0  0
   11.3370   13.3752    8.5070 N   0  0  0  0  0  0  0  0  0  0  0  0
   11.4998   12.9300    9.7779 C   0  0  0  0  0  0  0  0  0  0  0  0
   11.7250   11.5777    9.7992 N   0  0  0  0  0  0  0  0  0  0  0  0
  1  2  1  0  0  0  0
  1  6  1  0  0  0  0
  2  3  2  0  0  0  0
  3  4  1  0  0  0  0
  4  5  2  0  0  0  0
  4 10  1  0  0  0  0
  5  6  1  0  0  0  0
  5  8  1  0  0  0  0
  6  7  2  0  0  0  0
  8  9  1  0  0  0  0
  9 10  2  0  0  0  0
M  END
>  <CHROM.1>
11.54777934,11.70960301,7.62353480,-1.78977258,-1.39258687,1.16161269

>  <Name>
ligand

>  <RI>
0

>  <Rbt.Current_Directory>
/home/itssahil/PROJECTS/Mol_Feturizer/New_Systems/rnas/2EEW

>  <Rbt.Executable>
rbdock ($Id: //depot/dev/client3/rdock/2013.1/src/exe/rbdock.cxx#4 $)

>  <Rbt.Library>
libRbt.so (2013.1, Build901 2013/11/27)

>  <Rbt.Parameter_File>
/export/apps/rDock/src/rDock_2013.1_src/data/scripts/dock_solv.prm

>  <Rbt.Receptor>
prm/blind_docking_60.prm

>  <SCORE>
-15.6077

>  <SCORE.INTER>
-15.6077

>  <SCORE.INTER.CONST>
1

>  <SCORE.INTER.POLAR>
0

>  <SCORE.INTER.ROT>
0

>  <SCORE.INTER.SOLV>
3.96039

>  <SCORE.INTER.VDW>
-15.3253

>  <SCORE.INTER.norm>
-1.56077

>  <SCORE.INTRA>
0

>  <SCORE.INTRA.DIHEDRAL>
0

>  <SCORE.INTRA.DIHEDRAL.0>
0

>  <SCORE.INTRA.POLAR>
0

>  <SCORE.INTRA.POLAR.0>
0

>  <SCORE.INTRA.REPUL>
0

>  <SCORE.INTRA.REPUL.0>
0

>  <SCORE.INTRA.SOLV>
0

>  <SCORE.INTRA.SOLV.lig_0>
-4.28901

>  <SCORE.INTRA.VDW>
0

>  <SCORE.INTRA.VDW.0>
0

>  <SCORE.INTRA.norm>
0

>  <SCORE.RESTR>
0

>  <SCORE.RESTR.CAVITY>
0

>  <SCORE.RESTR.norm>
0

>  <SCORE.SYSTEM>
0

>  <SCORE.SYSTEM.CONST>
0

>  <SCORE.SYSTEM.DIHEDRAL>
0

>  <SCORE.SYSTEM.SOLV>
0

>  <SCORE.SYSTEM.norm>
0

>  <SCORE.heavy>
10

>  <SCORE.norm>
-1.56077

>  <RMSD>
3.524

$$$$
ligand
 OpenBabel11021811423D
libRbt.so/2013.1/901 2013/11/27
 10 11  0  0  0  0  0  0  0  0999 V2000
   11.5077   10.8070    5.8501 N   0  0  0  0  0  0  0  0  0  0  0  0
   11.8238    9.7624    6.6990 C   0  0  0  0  0  0  0  0  0  0  0  0
   11.9613    9.9339    8.0209 N   0  0  0  0  0  0  0  0  0  0  0  0
   11.7628   11.2171    8.4198 C   0  0  0  0  0  0  0  0  0  0  0  0
   11.4467   12.3071    7.6285 C   0  0  0  0  0  0  0  0  0  0  0  0
   11.2963   12.1387    6.2214 C   0  0  0  0  0  0  0  0  0  0  0  0
   11.0200   12.9614    5.3367 O   0  0  0  0  0  0  0  0  0  0  0  0
   11.3377   13.4065    8.4348 N   0  0  0  0  0  0  0  0  0  0  0  0
   11.5834   12.9824    9.6996 C   0  0  0  0  0  0  0  0  0  0  0  0
   11.8495   11.6375    9.7232 N   0  0  0  0  0  0  0  0  0  0  0  0
  1  2  1  0  0  0  0
  1  6  1  0  0  0  0
  2  3  2  0  0  0  0
  3  4  1  0  0  0  0
  4  5  2  0  0  0  0
  4 10  1  0  0  0  0
  5  6  1  0  0  0  0
  5  8  1  0  0  0  0
  6  7  2  0  0  0  0
  8  9  1  0  0  0  0
  9 10  2  0  0  0  0
M  END
>  <CHROM.1>
11.54898241,11.73676477,7.55935261,-1.95968442,-1.34014911,0.98336313

>  <Name>
ligand

>  <RI>
0

>  <Rbt.Current_Directory>
/home/itssahil/PROJECTS/Mol_Feturizer/New_Systems/rnas/2EEW

>  <Rbt.Executable>
rbdock ($Id: //depot/dev/client3/rdock/2013.1/src/exe/rbdock.cxx#4 $)

>  <Rbt.Library>
libRbt.so (2013.1, Build901 2013/11/27)

>  <Rbt.Parameter_File>
/export/apps/rDock/src/rDock_2013.1_src/data/scripts/dock_solv.prm

>  <Rbt.Receptor>
prm/blind_docking_80.prm

>  <SCORE>
-15.557

>  <SCORE.INTER>
-15.557

>  <SCORE.INTER.CONST>
1

>  <SCORE.INTER.POLAR>
0

>  <SCORE.INTER.ROT>
0

>  <SCORE.INTER.SOLV>
3.80532

>  <SCORE.INTER.VDW>
-15.2398

>  <SCORE.INTER.norm>
-1.5557

>  <SCORE.INTRA>
0

>  <SCORE.INTRA.DIHEDRAL>
0

>  <SCORE.INTRA.DIHEDRAL.0>
0

>  <SCORE.INTRA.POLAR>
0

>  <SCORE.INTRA.POLAR.0>
0

>  <SCORE.INTRA.REPUL>
0

>  <SCORE.INTRA.REPUL.0>
0

>  <SCORE.INTRA.SOLV>
0

>  <SCORE.INTRA.SOLV.lig_0>
-4.28901

>  <SCORE.INTRA.VDW>
0

>  <SCORE.INTRA.VDW.0>
0

>  <SCORE.INTRA.norm>
0

>  <SCORE.RESTR>
0

>  <SCORE.RESTR.CAVITY>
0

>  <SCORE.RESTR.norm>
0

>  <SCORE.SYSTEM>
0

>  <SCORE.SYSTEM.CONST>
0

>  <SCORE.SYSTEM.DIHEDRAL>
0

>  <SCORE.SYSTEM.SOLV>
0

>  <SCORE.SYSTEM.norm>
0

>  <SCORE.heavy>
10

>  <SCORE.norm>
-1.5557

>  <RMSD>
3.524

$$$$
ligand
 OpenBabel11021811423D
libRbt.so/2013.1/901 2013/11/27
 10 11  0  0  0  0  0  0  0  0999 V2000
   11.5030   10.8015    5.8927 N   0  0  0  0  0  0  0  0  0  0  0  0
   11.7790    9.7331    6.7260 C   0  0  0  0  0  0  0  0  0  0  0  0
   11.8944    9.8750    8.0534 N   0  0  0  0  0  0  0  0  0  0  0  0
   11.7171   11.1541    8.4746 C   0  0  0  0  0  0  0  0  0  0  0  0
   11.4412   12.2667    7.6998 C   0  0  0  0  0  0  0  0  0  0  0  0
   11.3145   12.1300    6.2870 C   0  0  0  0  0  0  0  0  0  0  0  0
   11.0740   12.9763    5.4141 O   0  0  0  0  0  0  0  0  0  0  0  0
   11.3411   13.3520    8.5262 N   0  0  0  0  0  0  0  0  0  0  0  0
   11.5525   12.8972    9.7865 C   0  0  0  0  0  0  0  0  0  0  0  0
   11.7878   11.5464    9.7877 N   0  0  0  0  0  0  0  0  0  0  0  0
  1  2  1  0  0  0  0
  1  6  1  0  0  0  0
  2  3  2  0  0  0  0
  3  4  1  0  0  0  0
  4  5  2  0  0  0  0
  4 10  1  0  0  0  0
  5  6  1  0  0  0  0
  5  8  1  0  0  0  0
  6  7  2  0  0  0  0
  8  9  1  0  0  0  0
  9 10  2  0  0  0  0
M  END
>  <CHROM.1>
11.53188100,11.69567308,7.62101895,-1.94079455,-1.36966782,1.02200865

>  <Name>
ligand

>  <RI>
0

>  <Rbt.Current_Directory>
/home/itssahil/PROJECTS/Mol_Feturizer/New_Systems/rnas/2EEW

>  <Rbt.Executable>
rbdock ($Id: //depot/dev/client3/rdock/2013.1/src/exe/rbdock.cxx#4 $)

>  <Rbt.Library>
libRbt.so (2013.1, Build901 2013/11/27)

>  <Rbt.Parameter_File>
/export/apps/rDock/src/rDock_2013.1_src/data/scripts/dock_solv.prm

>  <Rbt.Receptor>
prm/pocket_docking_5.prm

>  <SCORE>
-15.6361

>  <SCORE.INTER>
-15.6361

>  <SCORE.INTER.CONST>
1

>  <SCORE.INTER.POLAR>
0

>  <SCORE.INTER.ROT>
0

>  <SCORE.INTER.SOLV>
3.84363

>  <SCORE.INTER.VDW>
-15.3053

>  <SCORE.INTER.norm>
-1.56361

>  <SCORE.INTRA>
0

>  <SCORE.INTRA.DIHEDRAL>
0

>  <SCORE.INTRA.DIHEDRAL.0>
0

>  <SCORE.INTRA.POLAR>
0

>  <SCORE.INTRA.POLAR.0>
0

>  <SCORE.INTRA.REPUL>
0

>  <SCORE.INTRA.REPUL.0>
0

>  <SCORE.INTRA.SOLV>
0

>  <SCORE.INTRA.SOLV.lig_0>
-4.28901

>  <SCORE.INTRA.VDW>
0

>  <SCORE.INTRA.VDW.0>
0

>  <SCORE.INTRA.norm>
0

>  <SCORE.RESTR>
0

>  <SCORE.RESTR.CAVITY>
0

>  <SCORE.RESTR.norm>
0

>  <SCORE.SYSTEM>
0

>  <SCORE.SYSTEM.CONST>
0

>  <SCORE.SYSTEM.DIHEDRAL>
0

>  <SCORE.SYSTEM.SOLV>
0

>  <SCORE.SYSTEM.norm>
0

>  <SCORE.heavy>
10

>  <SCORE.norm>
-1.56361

>  <RMSD>
3.537

$$$$
ligand
 OpenBabel11021811423D
libRbt.so/2013.1/901 2013/11/27
 10 11  0  0  0  0  0  0  0  0999 V2000
   11.4569   10.8309    5.8792 N   0  0  0  0  0  0  0  0  0  0  0  0
   11.7260    9.7520    6.7010 C   0  0  0  0  0  0  0  0  0  0  0  0
   11.8601    9.8819    8.0280 N   0  0  0  0  0  0  0  0  0  0  0  0
   11.7085   11.1604    8.4608 C   0  0  0  0  0  0  0  0  0  0  0  0
   11.4409   12.2831    7.6978 C   0  0  0  0  0  0  0  0  0  0  0  0
   11.2946   12.1592    6.2857 C   0  0  0  0  0  0  0  0  0  0  0  0
   11.0570   13.0159    5.4222 O   0  0  0  0  0  0  0  0  0  0  0  0
   11.3685   13.3636    8.5334 N   0  0  0  0  0  0  0  0  0  0  0  0
   11.5881   12.8958    9.7876 C   0  0  0  0  0  0  0  0  0  0  0  0
   11.8017   11.5415    9.7758 N   0  0  0  0  0  0  0  0  0  0  0  0
  1  2  1  0  0  0  0
  1  6  1  0  0  0  0
  2  3  2  0  0  0  0
  3  4  1  0  0  0  0
  4  5  2  0  0  0  0
  4 10  1  0  0  0  0
  5  6  1  0  0  0  0
  5  8  1  0  0  0  0
  6  7  2  0  0  0  0
  8  9  1  0  0  0  0
  9 10  2  0  0  0  0
M  END
>  <CHROM.1>
11.52147993,11.71135961,7.61366319,-2.03859310,-1.37599023,0.93365525

>  <Name>
ligand

>  <RI>
0

>  <Rbt.Current_Directory>
/home/itssahil/PROJECTS/Mol_Feturizer/New_Systems/rnas/2EEW

>  <Rbt.Executable>
rbdock ($Id: //depot/dev/client3/rdock/2013.1/src/exe/rbdock.cxx#4 $)

>  <Rbt.Library>
libRbt.so (2013.1, Build901 2013/11/27)

>  <Rbt.Parameter_File>
/export/apps/rDock/src/rDock_2013.1_src/data/scripts/dock_solv.prm

>  <Rbt.Receptor>
prm/blind_docking_60.prm

>  <SCORE>
-15.5618

>  <SCORE.INTER>
-15.5618

>  <SCORE.INTER.CONST>
1

>  <SCORE.INTER.POLAR>
0

>  <SCORE.INTER.ROT>
0

>  <SCORE.INTER.SOLV>
3.85879

>  <SCORE.INTER.VDW>
-15.2608

>  <SCORE.INTER.norm>
-1.55618

>  <SCORE.INTRA>
0

>  <SCORE.INTRA.DIHEDRAL>
0

>  <SCORE.INTRA.DIHEDRAL.0>
0

>  <SCORE.INTRA.POLAR>
0

>  <SCORE.INTRA.POLAR.0>
0

>  <SCORE.INTRA.REPUL>
0

>  <SCORE.INTRA.REPUL.0>
0

>  <SCORE.INTRA.SOLV>
0

>  <SCORE.INTRA.SOLV.lig_0>
-4.28901

>  <SCORE.INTRA.VDW>
0

>  <SCORE.INTRA.VDW.0>
0

>  <SCORE.INTRA.norm>
0

>  <SCORE.RESTR>
0

>  <SCORE.RESTR.CAVITY>
0

>  <SCORE.RESTR.norm>
0

>  <SCORE.SYSTEM>
0

>  <SCORE.SYSTEM.CONST>
0

>  <SCORE.SYSTEM.DIHEDRAL>
0

>  <SCORE.SYSTEM.SOLV>
0

>  <SCORE.SYSTEM.norm>
0

>  <SCORE.heavy>
10

>  <SCORE.norm>
-1.55618

>  <RMSD>
3.546

$$$$
ligand
 OpenBabel11021811423D
libRbt.so/2013.1/901 2013/11/27
 10 11  0  0  0  0  0  0  0  0999 V2000
   12.1070    8.2703    7.7229 N   0  0  0  0  0  0  0  0  0  0  0  0
   12.5033    9.4792    8.2646 C   0  0  0  0  0  0  0  0  0  0  0  0
   13.6707   10.0550    7.9464 N   0  0  0  0  0  0  0  0  0  0  0  0
   14.4012    9.3332    7.0572 C   0  0  0  0  0  0  0  0  0  0  0  0
   14.0680    8.1215    6.4786 C   0  0  0  0  0  0  0  0  0  0  0  0
   12.8291    7.4986    6.8071 C   0  0  0  0  0  0  0  0  0  0  0  0
   12.3349    6.4318    6.4149 O   0  0  0  0  0  0  0  0  0  0  0  0
   15.0861    7.7490    5.6445 N   0  0  0  0  0  0  0  0  0  0  0  0
   16.0222    8.7279    5.7185 C   0  0  0  0  0  0  0  0  0  0  0  0
   15.6295    9.7181    6.5817 N   0  0  0  0  0  0  0  0  0  0  0  0
  1  2  1  0  0  0  0
  1  6  1  0  0  0  0
  2  3  2  0  0  0  0
  3  4  1  0  0  0  0
  4  5  2  0  0  0  0
  4 10  1  0  0  0  0
  5  6  1  0  0  0  0
  5  8  1  0  0  0  0
  6  7  2  0  0  0  0
  8  9  1  0  0  0  0
  9 10  2  0  0  0  0
M  END
>  <CHROM.1>
13.83459541,8.49959974,6.85675724,2.98523450,-0.45908435,-2.57308685

>  <Name>
ligand

>  <RI>
0

>  <Rbt.Current_Directory>
/home/itssahil/PROJECTS/Mol_Feturizer/New_Systems/rnas/2EEW

>  <Rbt.Executable>
rbdock ($Id: //depot/dev/client3/rdock/2013.1/src/exe/rbdock.cxx#4 $)

>  <Rbt.Library>
libRbt.so (2013.1, Build901 2013/11/27)

>  <Rbt.Parameter_File>
/export/apps/rDock/src/rDock_2013.1_src/data/scripts/dock_solv.prm

>  <Rbt.Receptor>
prm/blind_docking_60.prm

>  <SCORE>
-12.1523

>  <SCORE.INTER>
-12.1523

>  <SCORE.INTER.CONST>
1

>  <SCORE.INTER.POLAR>
0

>  <SCORE.INTER.ROT>
0

>  <SCORE.INTER.SOLV>
3.79045

>  <SCORE.INTER.VDW>
-12.965

>  <SCORE.INTER.norm>
-1.21523

>  <SCORE.INTRA>
0

>  <SCORE.INTRA.DIHEDRAL>
0

>  <SCORE.INTRA.DIHEDRAL.0>
0

>  <SCORE.INTRA.POLAR>
0

>  <SCORE.INTRA.POLAR.0>
0

>  <SCORE.INTRA.REPUL>
0

>  <SCORE.INTRA.REPUL.0>
0

>  <SCORE.INTRA.SOLV>
0

>  <SCORE.INTRA.SOLV.lig_0>
-4.28901

>  <SCORE.INTRA.VDW>
0

>  <SCORE.INTRA.VDW.0>
0

>  <SCORE.INTRA.norm>
0

>  <SCORE.RESTR>
0

>  <SCORE.RESTR.CAVITY>
0

>  <SCORE.RESTR.norm>
0

>  <SCORE.SYSTEM>
0

>  <SCORE.SYSTEM.CONST>
0

>  <SCORE.SYSTEM.DIHEDRAL>
0

>  <SCORE.SYSTEM.SOLV>
0

>  <SCORE.SYSTEM.norm>
0

>  <SCORE.heavy>
10

>  <SCORE.norm>
-1.21523

>  <RMSD>
4.298

$$$$
ligand
 OpenBabel11021811423D
libRbt.so/2013.1/901 2013/11/27
 10 11  0  0  0  0  0  0  0  0999 V2000
   14.1118    7.1535    6.0709 N   0  0  0  0  0  0  0  0  0  0  0  0
   14.9841    8.2248    6.0132 C   0  0  0  0  0  0  0  0  0  0  0  0
   14.7472    9.3734    6.6615 N   0  0  0  0  0  0  0  0  0  0  0  0
   13.5823    9.3657    7.3600 C   0  0  0  0  0  0  0  0  0  0  0  0
   12.6655    8.3344    7.4602 C   0  0  0  0  0  0  0  0  0  0  0  0
   12.9056    7.1070    6.7770 C   0  0  0  0  0  0  0  0  0  0  0  0
   12.2323    6.0676    6.7274 O   0  0  0  0  0  0  0  0  0  0  0  0
   11.6373    8.7493    8.2611 N   0  0  0  0  0  0  0  0  0  0  0  0
   11.9331   10.0173    8.6414 C   0  0  0  0  0  0  0  0  0  0  0  0
   13.1254   10.4260    8.1017 N   0  0  0  0  0  0  0  0  0  0  0  0
  1  2  1  0  0  0  0
  1  6  1  0  0  0  0
  2  3  2  0  0  0  0
  3  4  1  0  0  0  0
  4  5  2  0  0  0  0
  4 10  1  0  0  0  0
  5  6  1  0  0  0  0
  5  8  1  0  0  0  0
  6  7  2  0  0  0  0
  8  9  1  0  0  0  0
  9 10  2  0  0  0  0
M  END
>  <CHROM.1>
13.17633007,8.43579567,7.19695069,-1.28686790,0.50447379,0.41353883

>  <Name>
ligand

>  <RI>
0

>  <Rbt.Current_Directory>
/home/itssahil/PROJECTS/Mol_Feturizer/New_Systems/rnas/2EEW

>  <Rbt.Executable>
rbdock ($Id: //depot/dev/client3/rdock/2013.1/src/exe/rbdock.cxx#4 $)

>  <Rbt.Library>
libRbt.so (2013.1, Build901 2013/11/27)

>  <Rbt.Parameter_File>
/export/apps/rDock/src/rDock_2013.1_src/data/scripts/dock_solv.prm

>  <Rbt.Receptor>
prm/blind_docking_60.prm

>  <SCORE>
-11.7046

>  <SCORE.INTER>
-11.7046

>  <SCORE.INTER.CONST>
1

>  <SCORE.INTER.POLAR>
0

>  <SCORE.INTER.ROT>
0

>  <SCORE.INTER.SOLV>
3.72485

>  <SCORE.INTER.VDW>
-12.6447

>  <SCORE.INTER.norm>
-1.17046

>  <SCORE.INTRA>
0

>  <SCORE.INTRA.DIHEDRAL>
0

>  <SCORE.INTRA.DIHEDRAL.0>
0

>  <SCORE.INTRA.POLAR>
0

>  <SCORE.INTRA.POLAR.0>
0

>  <SCORE.INTRA.REPUL>
0

>  <SCORE.INTRA.REPUL.0>
0

>  <SCORE.INTRA.SOLV>
0

>  <SCORE.INTRA.SOLV.lig_0>
-4.28901

>  <SCORE.INTRA.VDW>
0

>  <SCORE.INTRA.VDW.0>
0

>  <SCORE.INTRA.norm>
0

>  <SCORE.RESTR>
0

>  <SCORE.RESTR.CAVITY>
0

>  <SCORE.RESTR.norm>
0

>  <SCORE.SYSTEM>
0

>  <SCORE.SYSTEM.CONST>
0

>  <SCORE.SYSTEM.DIHEDRAL>
0

>  <SCORE.SYSTEM.SOLV>
0

>  <SCORE.SYSTEM.norm>
0

>  <SCORE.heavy>
10

>  <SCORE.norm>
-1.17046

>  <RMSD>
4.333

$$$$
ligand
 OpenBabel11021811423D
libRbt.so/2013.1/901 2013/11/27
 10 11  0  0  0  0  0  0  0  0999 V2000
   14.3885    7.4240    6.0564 N   0  0  0  0  0  0  0  0  0  0  0  0
   13.2432    6.7573    6.4511 C   0  0  0  0  0  0  0  0  0  0  0  0
   12.3135    7.3332    7.2255 N   0  0  0  0  0  0  0  0  0  0  0  0
   12.6184    8.6110    7.5710 C   0  0  0  0  0  0  0  0  0  0  0  0
   13.7416    9.3361    7.2147 C   0  0  0  0  0  0  0  0  0  0  0  0
   14.7376    8.7363    6.3906 C   0  0  0  0  0  0  0  0  0  0  0  0
   15.8051    9.1920    5.9561 O   0  0  0  0  0  0  0  0  0  0  0  0
   13.6477   10.5788    7.7782 N   0  0  0  0  0  0  0  0  0  0  0  0
   12.4784   10.6028    8.4653 C   0  0  0  0  0  0  0  0  0  0  0  0
   11.8213    9.4042    8.3575 N   0  0  0  0  0  0  0  0  0  0  0  0
  1  2  1  0  0  0  0
  1  6  1  0  0  0  0
  2  3  2  0  0  0  0
  3  4  1  0  0  0  0
  4  5  2  0  0  0  0
  4 10  1  0  0  0  0
  5  6  1  0  0  0  0
  5  8  1  0  0  0  0
  6  7  2  0  0  0  0
  8  9  1  0  0  0  0
  9 10  2  0  0  0  0
M  END
>  <CHROM.1>
13.52336163,8.80269261,7.12323200,0.74437139,-0.49347966,-2.75361513

>  <Name>
ligand

>  <RI>
0

>  <Rbt.Current_Directory>
/home/itssahil/PROJECTS/Mol_Feturizer/New_Systems/rnas/2EEW

>  <Rbt.Executable>
rbdock ($Id: //depot/dev/client3/rdock/2013.1/src/exe/rbdock.cxx#4 $)

>  <Rbt.Library>
libRbt.so (2013.1, Build901 2013/11/27)

>  <Rbt.Parameter_File>
/export/apps/rDock/src/rDock_2013.1_src/data/scripts/dock_solv.prm

>  <Rbt.Receptor>
prm/blind_docking_60.prm

>  <SCORE>
-11.3477

>  <SCORE.INTER>
-11.3477

>  <SCORE.INTER.CONST>
1

>  <SCORE.INTER.POLAR>
0

>  <SCORE.INTER.ROT>
0

>  <SCORE.INTER.SOLV>
3.88051

>  <SCORE.INTER.VDW>
-12.4586

>  <SCORE.INTER.norm>
-1.13477

>  <SCORE.INTRA>
0

>  <SCORE.INTRA.DIHEDRAL>
0

>  <SCORE.INTRA.DIHEDRAL.0>
0

>  <SCORE.INTRA.POLAR>
0

>  <SCORE.INTRA.POLAR.0>
0

>  <SCORE.INTRA.REPUL>
0

>  <SCORE.INTRA.REPUL.0>
0

>  <SCORE.INTRA.SOLV>
0

>  <SCORE.INTRA.SOLV.lig_0>
-4.28901

>  <SCORE.INTRA.VDW>
0

>  <SCORE.INTRA.VDW.0>
0

>  <SCORE.INTRA.norm>
0

>  <SCORE.RESTR>
0

>  <SCORE.RESTR.CAVITY>
0

>  <SCORE.RESTR.norm>
0

>  <SCORE.SYSTEM>
0

>  <SCORE.SYSTEM.CONST>
0

>  <SCORE.SYSTEM.DIHEDRAL>
0

>  <SCORE.SYSTEM.SOLV>
0

>  <SCORE.SYSTEM.norm>
0

>  <SCORE.heavy>
10

>  <SCORE.norm>
-1.13477

>  <RMSD>
4.497

$$$$
ligand
 OpenBabel11021811423D
libRbt.so/2013.1/901 2013/11/27
 10 11  0  0  0  0  0  0  0  0999 V2000
   34.5946   16.7347    9.2608 N   0  0  0  0  0  0  0  0  0  0  0  0
   33.4127   17.4477    9.3431 C   0  0  0  0  0  0  0  0  0  0  0  0
   33.3618   18.7707    9.1367 N   0  0  0  0  0  0  0  0  0  0  0  0
   34.5717   19.3165    8.8482 C   0  0  0  0  0  0  0  0  0  0  0  0
   35.7890   18.6661    8.7513 C   0  0  0  0  0  0  0  0  0  0  0  0
   35.8574   17.2592    8.9672 C   0  0  0  0  0  0  0  0  0  0  0  0
   36.8244   16.4848    8.9314 O   0  0  0  0  0  0  0  0  0  0  0  0
   36.7478   19.5918    8.4436 N   0  0  0  0  0  0  0  0  0  0  0  0
   36.1137   20.7876    8.3538 C   0  0  0  0  0  0  0  0  0  0  0  0
   34.7716   20.6510    8.5987 N   0  0  0  0  0  0  0  0  0  0  0  0
  1  2  1  0  0  0  0
  1  6  1  0  0  0  0
  2  3  2  0  0  0  0
  3  4  1  0  0  0  0
  4  5  2  0  0  0  0
  4 10  1  0  0  0  0
  5  6  1  0  0  0  0
  5  8  1  0  0  0  0
  6  7  2  0  0  0  0
  8  9  1  0  0  0  0
  9 10  2  0  0  0  0
M  END
>  <CHROM.1>
35.23311304,18.53011662,8.86531502,1.61250368,-0.16233221,2.98139218

>  <Name>
ligand

>  <RI>
0

>  <Rbt.Current_Directory>
/home/itssahil/PROJECTS/Mol_Feturizer/New_Systems/rnas/2EEW

>  <Rbt.Executable>
rbdock ($Id: //depot/dev/client3/rdock/2013.1/src/exe/rbdock.cxx#4 $)

>  <Rbt.Library>
libRbt.so (2013.1, Build901 2013/11/27)

>  <Rbt.Parameter_File>
/export/apps/rDock/src/rDock_2013.1_src/data/scripts/dock_solv.prm

>  <Rbt.Receptor>
prm/blind_docking_100.prm

>  <SCORE>
-11.5288

>  <SCORE.INTER>
-11.5288

>  <SCORE.INTER.CONST>
1

>  <SCORE.INTER.POLAR>
0

>  <SCORE.INTER.ROT>
0

>  <SCORE.INTER.SOLV>
3.69524

>  <SCORE.INTER.VDW>
-12.5176

>  <SCORE.INTER.norm>
-1.15288

>  <SCORE.INTRA>
0

>  <SCORE.INTRA.DIHEDRAL>
0

>  <SCORE.INTRA.DIHEDRAL.0>
0

>  <SCORE.INTRA.POLAR>
0

>  <SCORE.INTRA.POLAR.0>
0

>  <SCORE.INTRA.REPUL>
0

>  <SCORE.INTRA.REPUL.0>
0

>  <SCORE.INTRA.SOLV>
0

>  <SCORE.INTRA.SOLV.lig_0>
-4.28901

>  <SCORE.INTRA.VDW>
0

>  <SCORE.INTRA.VDW.0>
0

>  <SCORE.INTRA.norm>
0

>  <SCORE.RESTR>
0

>  <SCORE.RESTR.CAVITY>
0

>  <SCORE.RESTR.norm>
0

>  <SCORE.SYSTEM>
0

>  <SCORE.SYSTEM.CONST>
0

>  <SCORE.SYSTEM.DIHEDRAL>
0

>  <SCORE.SYSTEM.SOLV>
0

>  <SCORE.SYSTEM.norm>
0

>  <SCORE.heavy>
10

>  <SCORE.norm>
-1.15288

>  <RMSD>
24.807

$$$$
ligand
 OpenBabel11021811423D
libRbt.so/2013.1/901 2013/11/27
 10 11  0  0  0  0  0  0  0  0999 V2000
   34.6956   16.7206    9.2360 N   0  0  0  0  0  0  0  0  0  0  0  0
   33.5316   17.4187    9.4998 C   0  0  0  0  0  0  0  0  0  0  0  0
   33.4370   18.7428    9.3176 N   0  0  0  0  0  0  0  0  0  0  0  0
   34.5853   19.3056    8.8593 C   0  0  0  0  0  0  0  0  0  0  0  0
   35.7815   18.6706    8.5766 C   0  0  0  0  0  0  0  0  0  0  0  0
   35.8956   17.2626    8.7646 C   0  0  0  0  0  0  0  0  0  0  0  0
   36.8546   16.5001    8.5780 O   0  0  0  0  0  0  0  0  0  0  0  0
   36.6746   19.6103    8.1406 N   0  0  0  0  0  0  0  0  0  0  0  0
   36.0219   20.7993    8.1584 C   0  0  0  0  0  0  0  0  0  0  0  0
   34.7322   20.6446    8.5975 N   0  0  0  0  0  0  0  0  0  0  0  0
  1  2  1  0  0  0  0
  1  6  1  0  0  0  0
  2  3  2  0  0  0  0
  3  4  1  0  0  0  0
  4  5  2  0  0  0  0
  4 10  1  0  0  0  0
  5  6  1  0  0  0  0
  5  8  1  0  0  0  0
  6  7  2  0  0  0  0
  8  9  1  0  0  0  0
  9 10  2  0  0  0  0
M  END
>  <CHROM.1>
35.25001453,18.52696805,8.76998317,1.57702170,-0.30711615,2.98320586

>  <Name>
ligand

>  <RI>
0

>  <Rbt.Current_Directory>
/home/itssahil/PROJECTS/Mol_Feturizer/New_Systems/rnas/2EEW

>  <Rbt.Executable>
rbdock ($Id: //depot/dev/client3/rdock/2013.1/src/exe/rbdock.cxx#4 $)

>  <Rbt.Library>
libRbt.so (2013.1, Build901 2013/11/27)

>  <Rbt.Parameter_File>
/export/apps/rDock/src/rDock_2013.1_src/data/scripts/dock_solv.prm

>  <Rbt.Receptor>
prm/blind_docking_80.prm

>  <SCORE>
-11.5108

>  <SCORE.INTER>
-11.5108

>  <SCORE.INTER.CONST>
1

>  <SCORE.INTER.POLAR>
0

>  <SCORE.INTER.ROT>
0

>  <SCORE.INTER.SOLV>
4.0456

>  <SCORE.INTER.VDW>
-12.6224

>  <SCORE.INTER.norm>
-1.15108

>  <SCORE.INTRA>
0

>  <SCORE.INTRA.DIHEDRAL>
0

>  <SCORE.INTRA.DIHEDRAL.0>
0

>  <SCORE.INTRA.POLAR>
0

>  <SCORE.INTRA.POLAR.0>
0

>  <SCORE.INTRA.REPUL>
0

>  <SCORE.INTRA.REPUL.0>
0

>  <SCORE.INTRA.SOLV>
0

>  <SCORE.INTRA.SOLV.lig_0>
-4.28901

>  <SCORE.INTRA.VDW>
0

>  <SCORE.INTRA.VDW.0>
0

>  <SCORE.INTRA.norm>
0

>  <SCORE.RESTR>
0

>  <SCORE.RESTR.CAVITY>
0

>  <SCORE.RESTR.norm>
0

>  <SCORE.SYSTEM>
0

>  <SCORE.SYSTEM.CONST>
0

>  <SCORE.SYSTEM.DIHEDRAL>
0

>  <SCORE.SYSTEM.SOLV>
0

>  <SCORE.SYSTEM.norm>
0

>  <SCORE.heavy>
10

>  <SCORE.norm>
-1.15108

>  <RMSD>
24.811

$$$$
ligand
 OpenBabel11021811423D
libRbt.so/2013.1/901 2013/11/27
 10 11  0  0  0  0  0  0  0  0999 V2000
   34.3092   20.7855    8.3778 N   0  0  0  0  0  0  0  0  0  0  0  0
   35.6497   21.0123    8.1263 C   0  0  0  0  0  0  0  0  0  0  0  0
   36.5657   20.0375    8.2074 N   0  0  0  0  0  0  0  0  0  0  0  0
   36.0408   18.8348    8.5583 C   0  0  0  0  0  0  0  0  0  0  0  0
   34.7161   18.5380    8.8247 C   0  0  0  0  0  0  0  0  0  0  0  0
   33.7314   19.5647    8.7410 C   0  0  0  0  0  0  0  0  0  0  0  0
   32.5078   19.5250    8.9338 O   0  0  0  0  0  0  0  0  0  0  0  0
   34.6278   17.2097    9.1387 N   0  0  0  0  0  0  0  0  0  0  0  0
   35.8868   16.7109    9.0600 C   0  0  0  0  0  0  0  0  0  0  0  0
   36.7805   17.6883    8.7050 N   0  0  0  0  0  0  0  0  0  0  0  0
  1  2  1  0  0  0  0
  1  6  1  0  0  0  0
  2  3  2  0  0  0  0
  3  4  1  0  0  0  0
  4  5  2  0  0  0  0
  4 10  1  0  0  0  0
  5  6  1  0  0  0  0
  5  8  1  0  0  0  0
  6  7  2  0  0  0  0
  8  9  1  0  0  0  0
  9 10  2  0  0  0  0
M  END
>  <CHROM.1>
35.03341575,19.00314222,8.67172079,-2.25352897,-0.14581255,2.91958600

>  <Name>
ligand

>  <RI>
0

>  <Rbt.Current_Directory>
/home/itssahil/PROJECTS/Mol_Feturizer/New_Systems/rnas/2EEW

>  <Rbt.Executable>
rbdock ($Id: //depot/dev/client3/rdock/2013.1/src/exe/rbdock.cxx#4 $)

>  <Rbt.Library>
libRbt.so (2013.1, Build901 2013/11/27)

>  <Rbt.Parameter_File>
/export/apps/rDock/src/rDock_2013.1_src/data/scripts/dock_solv.prm

>  <Rbt.Receptor>
prm/blind_docking_100.prm

>  <SCORE>
-11.7074

>  <SCORE.INTER>
-11.7074

>  <SCORE.INTER.CONST>
1

>  <SCORE.INTER.POLAR>
0

>  <SCORE.INTER.ROT>
0

>  <SCORE.INTER.SOLV>
2.38676

>  <SCORE.INTER.VDW>
-12.2005

>  <SCORE.INTER.norm>
-1.17074

>  <SCORE.INTRA>
0

>  <SCORE.INTRA.DIHEDRAL>
0

>  <SCORE.INTRA.DIHEDRAL.0>
0

>  <SCORE.INTRA.POLAR>
0

>  <SCORE.INTRA.POLAR.0>
0

>  <SCORE.INTRA.REPUL>
0

>  <SCORE.INTRA.REPUL.0>
0

>  <SCORE.INTRA.SOLV>
0

>  <SCORE.INTRA.SOLV.lig_0>
-4.28901

>  <SCORE.INTRA.VDW>
0

>  <SCORE.INTRA.VDW.0>
0

>  <SCORE.INTRA.norm>
0

>  <SCORE.RESTR>
0

>  <SCORE.RESTR.CAVITY>
0

>  <SCORE.RESTR.norm>
0

>  <SCORE.SYSTEM>
0

>  <SCORE.SYSTEM.CONST>
0

>  <SCORE.SYSTEM.DIHEDRAL>
0

>  <SCORE.SYSTEM.SOLV>
0

>  <SCORE.SYSTEM.norm>
0

>  <SCORE.heavy>
10

>  <SCORE.norm>
-1.17074

>  <RMSD>
24.917

$$$$
ligand
 OpenBabel11021811423D
libRbt.so/2013.1/901 2013/11/27
 10 11  0  0  0  0  0  0  0  0999 V2000
   35.3344   20.1616   10.4787 N   0  0  0  0  0  0  0  0  0  0  0  0
   35.5186   20.6689    9.2056 C   0  0  0  0  0  0  0  0  0  0  0  0
   35.9660   19.9125    8.1941 N   0  0  0  0  0  0  0  0  0  0  0  0
   36.2138   18.6263    8.5537 C   0  0  0  0  0  0  0  0  0  0  0  0
   36.0540   18.0540    9.8031 C   0  0  0  0  0  0  0  0  0  0  0  0
   35.5778   18.8465   10.8875 C   0  0  0  0  0  0  0  0  0  0  0  0
   35.3627   18.5468   12.0707 O   0  0  0  0  0  0  0  0  0  0  0  0
   36.4190   16.7382    9.7232 N   0  0  0  0  0  0  0  0  0  0  0  0
   36.7927   16.5197    8.4377 C   0  0  0  0  0  0  0  0  0  0  0  0
   36.6782   17.6645    7.6919 N   0  0  0  0  0  0  0  0  0  0  0  0
  1  2  1  0  0  0  0
  1  6  1  0  0  0  0
  2  3  2  0  0  0  0
  3  4  1  0  0  0  0
  4  5  2  0  0  0  0
  4 10  1  0  0  0  0
  5  6  1  0  0  0  0
  5  8  1  0  0  0  0
  6  7  2  0  0  0  0
  8  9  1  0  0  0  0
  9 10  2  0  0  0  0
M  END
>  <CHROM.1>
35.97923649,18.57581150,9.55293209,3.06101318,-1.22497583,2.32896024

>  <Name>
ligand

>  <RI>
0

>  <Rbt.Current_Directory>
/home/itssahil/PROJECTS/Mol_Feturizer/New_Systems/rnas/2EEW

>  <Rbt.Executable>
rbdock ($Id: //depot/dev/client3/rdock/2013.1/src/exe/rbdock.cxx#4 $)

>  <Rbt.Library>
libRbt.so (2013.1, Build901 2013/11/27)

>  <Rbt.Parameter_File>
/export/apps/rDock/src/rDock_2013.1_src/data/scripts/dock_solv.prm

>  <Rbt.Receptor>
prm/blind_docking_60.prm

>  <SCORE>
-13.57

>  <SCORE.INTER>
-13.57

>  <SCORE.INTER.CONST>
1

>  <SCORE.INTER.POLAR>
0

>  <SCORE.INTER.ROT>
0

>  <SCORE.INTER.SOLV>
4.45164

>  <SCORE.INTER.VDW>
-14.1306

>  <SCORE.INTER.norm>
-1.357

>  <SCORE.INTRA>
0

>  <SCORE.INTRA.DIHEDRAL>
0

>  <SCORE.INTRA.DIHEDRAL.0>
0

>  <SCORE.INTRA.POLAR>
0

>  <SCORE.INTRA.POLAR.0>
0

>  <SCORE.INTRA.REPUL>
0

>  <SCORE.INTRA.REPUL.0>
0

>  <SCORE.INTRA.SOLV>
0

>  <SCORE.INTRA.SOLV.lig_0>
-4.28901

>  <SCORE.INTRA.VDW>
0

>  <SCORE.INTRA.VDW.0>
0

>  <SCORE.INTRA.norm>
0

>  <SCORE.RESTR>
0

>  <SCORE.RESTR.CAVITY>
0

>  <SCORE.RESTR.norm>
0

>  <SCORE.SYSTEM>
0

>  <SCORE.SYSTEM.CONST>
0

>  <SCORE.SYSTEM.DIHEDRAL>
0

>  <SCORE.SYSTEM.SOLV>
0

>  <SCORE.SYSTEM.norm>
0

>  <SCORE.heavy>
10

>  <SCORE.norm>
-1.357

>  <RMSD>
25.648

$$$$
ligand
 OpenBabel11021811423D
libRbt.so/2013.1/901 2013/11/27
 10 11  0  0  0  0  0  0  0  0999 V2000
   35.3421   20.2108   10.4082 N   0  0  0  0  0  0  0  0  0  0  0  0
   35.5658   20.7065    9.1370 C   0  0  0  0  0  0  0  0  0  0  0  0
   36.0204   19.9349    8.1402 N   0  0  0  0  0  0  0  0  0  0  0  0
   36.2332   18.6461    8.5125 C   0  0  0  0  0  0  0  0  0  0  0  0
   36.0331   18.0847    9.7611 C   0  0  0  0  0  0  0  0  0  0  0  0
   35.5488   18.8934   10.8298 C   0  0  0  0  0  0  0  0  0  0  0  0
   35.3005   18.6054   12.0094 O   0  0  0  0  0  0  0  0  0  0  0  0
   36.3724   16.7613    9.6969 N   0  0  0  0  0  0  0  0  0  0  0  0
   36.7709   16.5274    8.4215 C   0  0  0  0  0  0  0  0  0  0  0  0
   36.6971   17.6698    7.6670 N   0  0  0  0  0  0  0  0  0  0  0  0
  1  2  1  0  0  0  0
  1  6  1  0  0  0  0
  2  3  2  0  0  0  0
  3  4  1  0  0  0  0
  4  5  2  0  0  0  0
  4 10  1  0  0  0  0
  5  6  1  0  0  0  0
  5  8  1  0  0  0  0
  6  7  2  0  0  0  0
  8  9  1  0  0  0  0
  9 10  2  0  0  0  0
M  END
>  <CHROM.1>
35.97488460,18.60649228,9.50636895,-3.13159697,-1.22299386,2.40835522

>  <Name>
ligand

>  <RI>
0

>  <Rbt.Current_Directory>
/home/itssahil/PROJECTS/Mol_Feturizer/New_Systems/rnas/2EEW

>  <Rbt.Executable>
rbdock ($Id: //depot/dev/client3/rdock/2013.1/src/exe/rbdock.cxx#4 $)

>  <Rbt.Library>
libRbt.so (2013.1, Build901 2013/11/27)

>  <Rbt.Parameter_File>
/export/apps/rDock/src/rDock_2013.1_src/data/scripts/dock_solv.prm

>  <Rbt.Receptor>
prm/blind_docking_80.prm

>  <SCORE>
-13.5508

>  <SCORE.INTER>
-13.5508

>  <SCORE.INTER.CONST>
1

>  <SCORE.INTER.POLAR>
0

>  <SCORE.INTER.ROT>
0

>  <SCORE.INTER.SOLV>
4.38822

>  <SCORE.INTER.VDW>
-14.0966

>  <SCORE.INTER.norm>
-1.35508

>  <SCORE.INTRA>
0

>  <SCORE.INTRA.DIHEDRAL>
0

>  <SCORE.INTRA.DIHEDRAL.0>
0

>  <SCORE.INTRA.POLAR>
0

>  <SCORE.INTRA.POLAR.0>
0

>  <SCORE.INTRA.REPUL>
0

>  <SCORE.INTRA.REPUL.0>
0

>  <SCORE.INTRA.SOLV>
0

>  <SCORE.INTRA.SOLV.lig_0>
-4.28901

>  <SCORE.INTRA.VDW>
0

>  <SCORE.INTRA.VDW.0>
0

>  <SCORE.INTRA.norm>
0

>  <SCORE.RESTR>
0

>  <SCORE.RESTR.CAVITY>
0

>  <SCORE.RESTR.norm>
0

>  <SCORE.SYSTEM>
0

>  <SCORE.SYSTEM.CONST>
0

>  <SCORE.SYSTEM.DIHEDRAL>
0

>  <SCORE.SYSTEM.SOLV>
0

>  <SCORE.SYSTEM.norm>
0

>  <SCORE.heavy>
10

>  <SCORE.norm>
-1.35508

>  <RMSD>
25.651

$$$$
ligand
 OpenBabel11021811423D
libRbt.so/2013.1/901 2013/11/27
 10 11  0  0  0  0  0  0  0  0999 V2000
   35.3375   20.2028   10.4175 N   0  0  0  0  0  0  0  0  0  0  0  0
   35.5456   20.6880    9.1396 C   0  0  0  0  0  0  0  0  0  0  0  0
   36.0000   19.9112    8.1467 N   0  0  0  0  0  0  0  0  0  0  0  0
   36.2292   18.6284    8.5301 C   0  0  0  0  0  0  0  0  0  0  0  0
   36.0452   18.0776    9.7858 C   0  0  0  0  0  0  0  0  0  0  0  0
   35.5614   18.8919   10.8505 C   0  0  0  0  0  0  0  0  0  0  0  0
   35.3258   18.6132   12.0349 O   0  0  0  0  0  0  0  0  0  0  0  0
   36.3977   16.7571    9.7320 N   0  0  0  0  0  0  0  0  0  0  0  0
   36.7881   16.5145    8.4558 C   0  0  0  0  0  0  0  0  0  0  0  0
   36.6962   17.6485    7.6906 N   0  0  0  0  0  0  0  0  0  0  0  0
  1  2  1  0  0  0  0
  1  6  1  0  0  0  0
  2  3  2  0  0  0  0
  3  4  1  0  0  0  0
  4  5  2  0  0  0  0
  4 10  1  0  0  0  0
  5  6  1  0  0  0  0
  5  8  1  0  0  0  0
  6  7  2  0  0  0  0
  8  9  1  0  0  0  0
  9 10  2  0  0  0  0
M  END
>  <CHROM.1>
35.97951091,18.59611717,9.52643647,3.11290365,-1.22193065,2.36198683

>  <Name>
ligand

>  <RI>
0

>  <Rbt.Current_Directory>
/home/itssahil/PROJECTS/Mol_Feturizer/New_Systems/rnas/2EEW

>  <Rbt.Executable>
rbdock ($Id: //depot/dev/client3/rdock/2013.1/src/exe/rbdock.cxx#4 $)

>  <Rbt.Library>
libRbt.so (2013.1, Build901 2013/11/27)

>  <Rbt.Parameter_File>
/export/apps/rDock/src/rDock_2013.1_src/data/scripts/dock_solv.prm

>  <Rbt.Receptor>
prm/blind_docking_60.prm

>  <SCORE>
-13.6073

>  <SCORE.INTER>
-13.6073

>  <SCORE.INTER.CONST>
1

>  <SCORE.INTER.POLAR>
0

>  <SCORE.INTER.ROT>
0

>  <SCORE.INTER.SOLV>
4.41572

>  <SCORE.INTER.VDW>
-14.1434

>  <SCORE.INTER.norm>
-1.36073

>  <SCORE.INTRA>
0

>  <SCORE.INTRA.DIHEDRAL>
0

>  <SCORE.INTRA.DIHEDRAL.0>
0

>  <SCORE.INTRA.POLAR>
0

>  <SCORE.INTRA.POLAR.0>
0

>  <SCORE.INTRA.REPUL>
0

>  <SCORE.INTRA.REPUL.0>
0

>  <SCORE.INTRA.SOLV>
0

>  <SCORE.INTRA.SOLV.lig_0>
-4.28901

>  <SCORE.INTRA.VDW>
0

>  <SCORE.INTRA.VDW.0>
0

>  <SCORE.INTRA.norm>
0

>  <SCORE.RESTR>
0

>  <SCORE.RESTR.CAVITY>
0

>  <SCORE.RESTR.norm>
0

>  <SCORE.SYSTEM>
0

>  <SCORE.SYSTEM.CONST>
0

>  <SCORE.SYSTEM.DIHEDRAL>
0

>  <SCORE.SYSTEM.SOLV>
0

>  <SCORE.SYSTEM.norm>
0

>  <SCORE.heavy>
10

>  <SCORE.norm>
-1.36073

>  <RMSD>
25.655

$$$$
ligand
 OpenBabel11021811423D
libRbt.so/2013.1/901 2013/11/27
 10 11  0  0  0  0  0  0  0  0999 V2000
   35.3738   20.1396   10.5182 N   0  0  0  0  0  0  0  0  0  0  0  0
   35.5437   20.6553    9.2465 C   0  0  0  0  0  0  0  0  0  0  0  0
   35.9784   19.9052    8.2247 N   0  0  0  0  0  0  0  0  0  0  0  0
   36.2290   18.6164    8.5727 C   0  0  0  0  0  0  0  0  0  0  0  0
   36.0832   18.0358    9.8201 C   0  0  0  0  0  0  0  0  0  0  0  0
   35.6206   18.8215   10.9153 C   0  0  0  0  0  0  0  0  0  0  0  0
   35.4190   18.5141   12.0988 O   0  0  0  0  0  0  0  0  0  0  0  0
   36.4458   16.7203    9.7271 N   0  0  0  0  0  0  0  0  0  0  0  0
   36.8042   16.5100    8.4359 C   0  0  0  0  0  0  0  0  0  0  0  0
   36.6822   17.6599    7.6992 N   0  0  0  0  0  0  0  0  0  0  0  0
  1  2  1  0  0  0  0
  1  6  1  0  0  0  0
  2  3  2  0  0  0  0
  3  4  1  0  0  0  0
  4  5  2  0  0  0  0
  4 10  1  0  0  0  0
  5  6  1  0  0  0  0
  5  8  1  0  0  0  0
  6  7  2  0  0  0  0
  8  9  1  0  0  0  0
  9 10  2  0  0  0  0
M  END
>  <CHROM.1>
36.00605634,18.55943162,9.57430883,3.03754286,-1.23372329,2.31355293

>  <Name>
ligand

>  <RI>
0

>  <Rbt.Current_Directory>
/home/itssahil/PROJECTS/Mol_Feturizer/New_Systems/rnas/2EEW

>  <Rbt.Executable>
rbdock ($Id: //depot/dev/client3/rdock/2013.1/src/exe/rbdock.cxx#4 $)

>  <Rbt.Library>
libRbt.so (2013.1, Build901 2013/11/27)

>  <Rbt.Parameter_File>
/export/apps/rDock/src/rDock_2013.1_src/data/scripts/dock_solv.prm

>  <Rbt.Receptor>
prm/blind_docking_80.prm

>  <SCORE>
-13.5964

>  <SCORE.INTER>
-13.5964

>  <SCORE.INTER.CONST>
1

>  <SCORE.INTER.POLAR>
0

>  <SCORE.INTER.ROT>
0

>  <SCORE.INTER.SOLV>
4.49532

>  <SCORE.INTER.VDW>
-14.1627

>  <SCORE.INTER.norm>
-1.35964

>  <SCORE.INTRA>
0

>  <SCORE.INTRA.DIHEDRAL>
0

>  <SCORE.INTRA.DIHEDRAL.0>
0

>  <SCORE.INTRA.POLAR>
0

>  <SCORE.INTRA.POLAR.0>
0

>  <SCORE.INTRA.REPUL>
0

>  <SCORE.INTRA.REPUL.0>
0

>  <SCORE.INTRA.SOLV>
0

>  <SCORE.INTRA.SOLV.lig_0>
-4.28901

>  <SCORE.INTRA.VDW>
0

>  <SCORE.INTRA.VDW.0>
0

>  <SCORE.INTRA.norm>
0

>  <SCORE.RESTR>
0

>  <SCORE.RESTR.CAVITY>
0

>  <SCORE.RESTR.norm>
0

>  <SCORE.SYSTEM>
0

>  <SCORE.SYSTEM.CONST>
0

>  <SCORE.SYSTEM.DIHEDRAL>
0

>  <SCORE.SYSTEM.SOLV>
0

>  <SCORE.SYSTEM.norm>
0

>  <SCORE.heavy>
10

>  <SCORE.norm>
-1.35964

>  <RMSD>
25.669

$$$$
ligand
 OpenBabel11021811423D
libRbt.so/2013.1/901 2013/11/27
 10 11  0  0  0  0  0  0  0  0999 V2000
   35.5588   20.3342   10.0511 N   0  0  0  0  0  0  0  0  0  0  0  0
   35.5449   19.5420   11.1843 C   0  0  0  0  0  0  0  0  0  0  0  0
   35.8700   18.2425   11.1503 N   0  0  0  0  0  0  0  0  0  0  0  0
   36.2028   17.8041    9.9084 C   0  0  0  0  0  0  0  0  0  0  0  0
   36.2367   18.5377    8.7359 C   0  0  0  0  0  0  0  0  0  0  0  0
   35.8946   19.9209    8.7579 C   0  0  0  0  0  0  0  0  0  0  0  0
   35.8572   20.7562    7.8430 O   0  0  0  0  0  0  0  0  0  0  0  0
   36.6236   17.7074    7.7202 N   0  0  0  0  0  0  0  0  0  0  0  0
   36.8230   16.4862    8.2760 C   0  0  0  0  0  0  0  0  0  0  0  0
   36.5710   16.5133    9.6235 N   0  0  0  0  0  0  0  0  0  0  0  0
  1  2  1  0  0  0  0
  1  6  1  0  0  0  0
  2  3  2  0  0  0  0
  3  4  1  0  0  0  0
  4  5  2  0  0  0  0
  4 10  1  0  0  0  0
  5  6  1  0  0  0  0
  5  8  1  0  0  0  0
  6  7  2  0  0  0  0
  8  9  1  0  0  0  0
  9 10  2  0  0  0  0
M  END
>  <CHROM.1>
36.11264106,18.62675876,9.29910880,2.62914342,1.27491445,-0.93120109

>  <Name>
ligand

>  <RI>
0

>  <Rbt.Current_Directory>
/home/itssahil/PROJECTS/Mol_Feturizer/New_Systems/rnas/2EEW

>  <Rbt.Executable>
rbdock ($Id: //depot/dev/client3/rdock/2013.1/src/exe/rbdock.cxx#4 $)

>  <Rbt.Library>
libRbt.so (2013.1, Build901 2013/11/27)

>  <Rbt.Parameter_File>
/export/apps/rDock/src/rDock_2013.1_src/data/scripts/dock_solv.prm

>  <Rbt.Receptor>
prm/blind_docking_80.prm

>  <SCORE>
-12.591

>  <SCORE.INTER>
-12.591

>  <SCORE.INTER.CONST>
1

>  <SCORE.INTER.POLAR>
0

>  <SCORE.INTER.ROT>
0

>  <SCORE.INTER.SOLV>
3.31505

>  <SCORE.INTER.VDW>
-13.099

>  <SCORE.INTER.norm>
-1.2591

>  <SCORE.INTRA>
0

>  <SCORE.INTRA.DIHEDRAL>
0

>  <SCORE.INTRA.DIHEDRAL.0>
0

>  <SCORE.INTRA.POLAR>
0

>  <SCORE.INTRA.POLAR.0>
0

>  <SCORE.INTRA.REPUL>
0

>  <SCORE.INTRA.REPUL.0>
0

>  <SCORE.INTRA.SOLV>
0

>  <SCORE.INTRA.SOLV.lig_0>
-4.28901

>  <SCORE.INTRA.VDW>
0

>  <SCORE.INTRA.VDW.0>
0

>  <SCORE.INTRA.norm>
0

>  <SCORE.RESTR>
0

>  <SCORE.RESTR.CAVITY>
0

>  <SCORE.RESTR.norm>
0

>  <SCORE.SYSTEM>
0

>  <SCORE.SYSTEM.CONST>
0

>  <SCORE.SYSTEM.DIHEDRAL>
0

>  <SCORE.SYSTEM.SOLV>
0

>  <SCORE.SYSTEM.norm>
0

>  <SCORE.heavy>
10

>  <SCORE.norm>
-1.2591

>  <RMSD>
25.791

$$$$
ligand
 OpenBabel11021811423D
libRbt.so/2013.1/901 2013/11/27
 10 11  0  0  0  0  0  0  0  0999 V2000
   35.6150   20.3878   10.0032 N   0  0  0  0  0  0  0  0  0  0  0  0
   35.4934   19.5995   11.1326 C   0  0  0  0  0  0  0  0  0  0  0  0
   35.7521   18.2848   11.1163 N   0  0  0  0  0  0  0  0  0  0  0  0
   36.1343   17.8275    9.8956 C   0  0  0  0  0  0  0  0  0  0  0  0
   36.2751   18.5562    8.7280 C   0  0  0  0  0  0  0  0  0  0  0  0
   36.0045   19.9553    8.7315 C   0  0  0  0  0  0  0  0  0  0  0  0
   36.0643   20.7896    7.8170 O   0  0  0  0  0  0  0  0  0  0  0  0
   36.6777   17.7051    7.7359 N   0  0  0  0  0  0  0  0  0  0  0  0
   36.7805   16.4762    8.3010 C   0  0  0  0  0  0  0  0  0  0  0  0
   36.4513   16.5188    9.6313 N   0  0  0  0  0  0  0  0  0  0  0  0
  1  2  1  0  0  0  0
  1  6  1  0  0  0  0
  2  3  2  0  0  0  0
  3  4  1  0  0  0  0
  4  5  2  0  0  0  0
  4 10  1  0  0  0  0
  5  6  1  0  0  0  0
  5  8  1  0  0  0  0
  6  7  2  0  0  0  0
  8  9  1  0  0  0  0
  9 10  2  0  0  0  0
M  END
>  <CHROM.1>
36.12294928,18.65256793,9.28305507,2.36104345,1.27125686,-0.67508124

>  <Name>
ligand

>  <RI>
0

>  <Rbt.Current_Directory>
/home/itssahil/PROJECTS/Mol_Feturizer/New_Systems/rnas/2EEW

>  <Rbt.Executable>
rbdock ($Id: //depot/dev/client3/rdock/2013.1/src/exe/rbdock.cxx#4 $)

>  <Rbt.Library>
libRbt.so (2013.1, Build901 2013/11/27)

>  <Rbt.Parameter_File>
/export/apps/rDock/src/rDock_2013.1_src/data/scripts/dock_solv.prm

>  <Rbt.Receptor>
prm/blind_docking_60.prm

>  <SCORE>
-12.6772

>  <SCORE.INTER>
-12.693

>  <SCORE.INTER.CONST>
1

>  <SCORE.INTER.POLAR>
0

>  <SCORE.INTER.ROT>
0

>  <SCORE.INTER.SOLV>
3.25368

>  <SCORE.INTER.VDW>
-13.1466

>  <SCORE.INTER.norm>
-1.2693

>  <SCORE.INTRA>
0

>  <SCORE.INTRA.DIHEDRAL>
0

>  <SCORE.INTRA.DIHEDRAL.0>
0

>  <SCORE.INTRA.POLAR>
0

>  <SCORE.INTRA.POLAR.0>
0

>  <SCORE.INTRA.REPUL>
0

>  <SCORE.INTRA.REPUL.0>
0

>  <SCORE.INTRA.SOLV>
0

>  <SCORE.INTRA.SOLV.lig_0>
-4.28901

>  <SCORE.INTRA.VDW>
0

>  <SCORE.INTRA.VDW.0>
0

>  <SCORE.INTRA.norm>
0

>  <SCORE.RESTR>
0.0157803

>  <SCORE.RESTR.CAVITY>
0.0157803

>  <SCORE.RESTR.norm>
0.00157803

>  <SCORE.SYSTEM>
0

>  <SCORE.SYSTEM.CONST>
0

>  <SCORE.SYSTEM.DIHEDRAL>
0

>  <SCORE.SYSTEM.SOLV>
0

>  <SCORE.SYSTEM.norm>
0

>  <SCORE.heavy>
10

>  <SCORE.norm>
-1.26772

>  <RMSD>
25.803

$$$$
ligand
 OpenBabel11021811423D
libRbt.so/2013.1/901 2013/11/27
 10 11  0  0  0  0  0  0  0  0999 V2000
   35.6130   20.3870    9.9998 N   0  0  0  0  0  0  0  0  0  0  0  0
   35.4944   19.6002   11.1307 C   0  0  0  0  0  0  0  0  0  0  0  0
   35.7590   18.2866   11.1168 N   0  0  0  0  0  0  0  0  0  0  0  0
   36.1437   17.8288    9.8972 C   0  0  0  0  0  0  0  0  0  0  0  0
   36.2817   18.5560    8.7283 C   0  0  0  0  0  0  0  0  0  0  0  0
   36.0048   19.9539    8.7291 C   0  0  0  0  0  0  0  0  0  0  0  0
   36.0613   20.7868    7.8131 O   0  0  0  0  0  0  0  0  0  0  0  0
   36.6884   17.7049    7.7379 N   0  0  0  0  0  0  0  0  0  0  0  0
   36.7964   16.4775    8.3052 C   0  0  0  0  0  0  0  0  0  0  0  0
   36.4666   16.5210    9.6353 N   0  0  0  0  0  0  0  0  0  0  0  0
  1  2  1  0  0  0  0
  1  6  1  0  0  0  0
  2  3  2  0  0  0  0
  3  4  1  0  0  0  0
  4  5  2  0  0  0  0
  4 10  1  0  0  0  0
  5  6  1  0  0  0  0
  5  8  1  0  0  0  0
  6  7  2  0  0  0  0
  8  9  1  0  0  0  0
  9 10  2  0  0  0  0
M  END
>  <CHROM.1>
36.12888385,18.65270389,9.28307540,2.37188219,1.26817875,-0.68725692

>  <Name>
ligand

>  <RI>
0

>  <Rbt.Current_Directory>
/home/itssahil/PROJECTS/Mol_Feturizer/New_Systems/rnas/2EEW

>  <Rbt.Executable>
rbdock ($Id: //depot/dev/client3/rdock/2013.1/src/exe/rbdock.cxx#4 $)

>  <Rbt.Library>
libRbt.so (2013.1, Build901 2013/11/27)

>  <Rbt.Parameter_File>
/export/apps/rDock/src/rDock_2013.1_src/data/scripts/dock_solv.prm

>  <Rbt.Receptor>
prm/blind_docking_60.prm

>  <SCORE>
-12.6846

>  <SCORE.INTER>
-12.7038

>  <SCORE.INTER.CONST>
1

>  <SCORE.INTER.POLAR>
0

>  <SCORE.INTER.ROT>
0

>  <SCORE.INTER.SOLV>
3.26294

>  <SCORE.INTER.VDW>
-13.1568

>  <SCORE.INTER.norm>
-1.27038

>  <SCORE.INTRA>
0

>  <SCORE.INTRA.DIHEDRAL>
0

>  <SCORE.INTRA.DIHEDRAL.0>
0

>  <SCORE.INTRA.POLAR>
0

>  <SCORE.INTRA.POLAR.0>
0

>  <SCORE.INTRA.REPUL>
0

>  <SCORE.INTRA.REPUL.0>
0

>  <SCORE.INTRA.SOLV>
0

>  <SCORE.INTRA.SOLV.lig_0>
-4.28901

>  <SCORE.INTRA.VDW>
0

>  <SCORE.INTRA.VDW.0>
0

>  <SCORE.INTRA.norm>
0

>  <SCORE.RESTR>
0.0191876

>  <SCORE.RESTR.CAVITY>
0.0191876

>  <SCORE.RESTR.norm>
0.00191876

>  <SCORE.SYSTEM>
0

>  <SCORE.SYSTEM.CONST>
0

>  <SCORE.SYSTEM.DIHEDRAL>
0

>  <SCORE.SYSTEM.SOLV>
0

>  <SCORE.SYSTEM.norm>
0

>  <SCORE.heavy>
10

>  <SCORE.norm>
-1.26846

>  <RMSD>
25.809

$$$$
ligand
 OpenBabel11021811423D
libRbt.so/2013.1/901 2013/11/27
 10 11  0  0  0  0  0  0  0  0999 V2000
   36.6805   17.2174   10.2778 N   0  0  0  0  0  0  0  0  0  0  0  0
   36.6859   18.1843   11.2662 C   0  0  0  0  0  0  0  0  0  0  0  0
   36.6102   19.4923   10.9851 N   0  0  0  0  0  0  0  0  0  0  0  0
   36.5327   19.7523    9.6541 C   0  0  0  0  0  0  0  0  0  0  0  0
   36.5238   18.8385    8.6153 C   0  0  0  0  0  0  0  0  0  0  0  0
   36.6025   17.4444    8.9000 C   0  0  0  0  0  0  0  0  0  0  0  0
   36.6099   16.4660    8.1393 O   0  0  0  0  0  0  0  0  0  0  0  0
   36.4344   19.5276    7.4372 N   0  0  0  0  0  0  0  0  0  0  0  0
   36.3877   20.8434    7.7634 C   0  0  0  0  0  0  0  0  0  0  0  0
   36.4471   21.0145    9.1225 N   0  0  0  0  0  0  0  0  0  0  0  0
  1  2  1  0  0  0  0
  1  6  1  0  0  0  0
  2  3  2  0  0  0  0
  3  4  1  0  0  0  0
  4  5  2  0  0  0  0
  4 10  1  0  0  0  0
  5  6  1  0  0  0  0
  5  8  1  0  0  0  0
  6  7  2  0  0  0  0
  8  9  1  0  0  0  0
  9 10  2  0  0  0  0
M  END
>  <CHROM.1>
36.55270937,18.83152837,9.19804506,-0.52348195,-1.50306143,0.75438304

>  <Name>
ligand

>  <RI>
0

>  <Rbt.Current_Directory>
/home/itssahil/PROJECTS/Mol_Feturizer/New_Systems/rnas/2EEW

>  <Rbt.Executable>
rbdock ($Id: //depot/dev/client3/rdock/2013.1/src/exe/rbdock.cxx#4 $)

>  <Rbt.Library>
libRbt.so (2013.1, Build901 2013/11/27)

>  <Rbt.Parameter_File>
/export/apps/rDock/src/rDock_2013.1_src/data/scripts/dock_solv.prm

>  <Rbt.Receptor>
prm/blind_docking_60.prm

>  <SCORE>
-13.047

>  <SCORE.INTER>
-13.047

>  <SCORE.INTER.CONST>
1

>  <SCORE.INTER.POLAR>
0

>  <SCORE.INTER.ROT>
0

>  <SCORE.INTER.SOLV>
5.37357

>  <SCORE.INTER.VDW>
-14.0892

>  <SCORE.INTER.norm>
-1.3047

>  <SCORE.INTRA>
0

>  <SCORE.INTRA.DIHEDRAL>
0

>  <SCORE.INTRA.DIHEDRAL.0>
0

>  <SCORE.INTRA.POLAR>
0

>  <SCORE.INTRA.POLAR.0>
0

>  <SCORE.INTRA.REPUL>
0

>  <SCORE.INTRA.REPUL.0>
0

>  <SCORE.INTRA.SOLV>
0

>  <SCORE.INTRA.SOLV.lig_0>
-4.28901

>  <SCORE.INTRA.VDW>
0

>  <SCORE.INTRA.VDW.0>
0

>  <SCORE.INTRA.norm>
0

>  <SCORE.RESTR>
0

>  <SCORE.RESTR.CAVITY>
0

>  <SCORE.RESTR.norm>
0

>  <SCORE.SYSTEM>
0

>  <SCORE.SYSTEM.CONST>
0

>  <SCORE.SYSTEM.DIHEDRAL>
0

>  <SCORE.SYSTEM.SOLV>
0

>  <SCORE.SYSTEM.norm>
0

>  <SCORE.heavy>
10

>  <SCORE.norm>
-1.3047

>  <RMSD>
26.158

$$$$
ligand
 OpenBabel11021811423D
libRbt.so/2013.1/901 2013/11/27
 10 11  0  0  0  0  0  0  0  0999 V2000
   36.1866   18.5815    7.7174 N   0  0  0  0  0  0  0  0  0  0  0  0
   36.6907   17.3107    7.9245 C   0  0  0  0  0  0  0  0  0  0  0  0
   36.9929   16.8537    9.1474 N   0  0  0  0  0  0  0  0  0  0  0  0
   36.7565   17.7583   10.1328 C   0  0  0  0  0  0  0  0  0  0  0  0
   36.2571   19.0414    9.9978 C   0  0  0  0  0  0  0  0  0  0  0  0
   35.9303   19.5397    8.7033 C   0  0  0  0  0  0  0  0  0  0  0  0
   35.4769   20.6391    8.3542 O   0  0  0  0  0  0  0  0  0  0  0  0
   36.1777   19.6049   11.2415 N   0  0  0  0  0  0  0  0  0  0  0  0
   36.6230   18.6696   12.1172 C   0  0  0  0  0  0  0  0  0  0  0  0
   36.9879   17.5204   11.4643 N   0  0  0  0  0  0  0  0  0  0  0  0
  1  2  1  0  0  0  0
  1  6  1  0  0  0  0
  2  3  2  0  0  0  0
  3  4  1  0  0  0  0
  4  5  2  0  0  0  0
  4 10  1  0  0  0  0
  5  6  1  0  0  0  0
  5  8  1  0  0  0  0
  6  7  2  0  0  0  0
  8  9  1  0  0  0  0
  9 10  2  0  0  0  0
M  END
>  <CHROM.1>
36.39061504,18.59006960,9.65284334,-2.15794670,-1.19648043,1.29554793

>  <Name>
ligand

>  <RI>
0

>  <Rbt.Current_Directory>
/home/itssahil/PROJECTS/Mol_Feturizer/New_Systems/rnas/2EEW

>  <Rbt.Executable>
rbdock ($Id: //depot/dev/client3/rdock/2013.1/src/exe/rbdock.cxx#4 $)

>  <Rbt.Library>
libRbt.so (2013.1, Build901 2013/11/27)

>  <Rbt.Parameter_File>
/export/apps/rDock/src/rDock_2013.1_src/data/scripts/dock_solv.prm

>  <Rbt.Receptor>
prm/blind_docking_100.prm

>  <SCORE>
-10.5619

>  <SCORE.INTER>
-10.5668

>  <SCORE.INTER.CONST>
1

>  <SCORE.INTER.POLAR>
0

>  <SCORE.INTER.ROT>
0

>  <SCORE.INTER.SOLV>
4.11329

>  <SCORE.INTER.VDW>
-12.0156

>  <SCORE.INTER.norm>
-1.05668

>  <SCORE.INTRA>
0

>  <SCORE.INTRA.DIHEDRAL>
0

>  <SCORE.INTRA.DIHEDRAL.0>
0

>  <SCORE.INTRA.POLAR>
0

>  <SCORE.INTRA.POLAR.0>
0

>  <SCORE.INTRA.REPUL>
0

>  <SCORE.INTRA.REPUL.0>
0

>  <SCORE.INTRA.SOLV>
0

>  <SCORE.INTRA.SOLV.lig_0>
-4.28901

>  <SCORE.INTRA.VDW>
0

>  <SCORE.INTRA.VDW.0>
0

>  <SCORE.INTRA.norm>
0

>  <SCORE.RESTR>
0.00494499

>  <SCORE.RESTR.CAVITY>
0.00494499

>  <SCORE.RESTR.norm>
0.000494499

>  <SCORE.SYSTEM>
0

>  <SCORE.SYSTEM.CONST>
0

>  <SCORE.SYSTEM.DIHEDRAL>
0

>  <SCORE.SYSTEM.SOLV>
0

>  <SCORE.SYSTEM.norm>
0

>  <SCORE.heavy>
10

>  <SCORE.norm>
-1.05619

>  <RMSD>
26.206

$$$$
ligand
 OpenBabel11021811423D
libRbt.so/2013.1/901 2013/11/27
 10 11  0  0  0  0  0  0  0  0999 V2000
   36.6714   16.9955   10.1488 N   0  0  0  0  0  0  0  0  0  0  0  0
   36.6842   16.6390    8.8129 C   0  0  0  0  0  0  0  0  0  0  0  0
   36.6222   17.5489    7.8311 N   0  0  0  0  0  0  0  0  0  0  0  0
   36.5446   18.8263    8.2865 C   0  0  0  0  0  0  0  0  0  0  0  0
   36.5259   19.2530    9.6024 C   0  0  0  0  0  0  0  0  0  0  0  0
   36.5924   18.2963   10.6564 C   0  0  0  0  0  0  0  0  0  0  0  0
   36.5906   18.4509   11.8861 O   0  0  0  0  0  0  0  0  0  0  0  0
   36.4395   20.6181    9.6106 N   0  0  0  0  0  0  0  0  0  0  0  0
   36.4088   21.0097    8.3122 C   0  0  0  0  0  0  0  0  0  0  0  0
   36.4713   19.9281    7.4718 N   0  0  0  0  0  0  0  0  0  0  0  0
  1  2  1  0  0  0  0
  1  6  1  0  0  0  0
  2  3  2  0  0  0  0
  3  4  1  0  0  0  0
  4  5  2  0  0  0  0
  4 10  1  0  0  0  0
  5  6  1  0  0  0  0
  5  8  1  0  0  0  0
  6  7  2  0  0  0  0
  8  9  1  0  0  0  0
  9 10  2  0  0  0  0
M  END
>  <CHROM.1>
36.55593440,18.74830952,9.31114095,-0.64538388,1.50792378,-1.66774023

>  <Name>
ligand

>  <RI>
0

>  <Rbt.Current_Directory>
/home/itssahil/PROJECTS/Mol_Feturizer/New_Systems/rnas/2EEW

>  <Rbt.Executable>
rbdock ($Id: //depot/dev/client3/rdock/2013.1/src/exe/rbdock.cxx#4 $)

>  <Rbt.Library>
libRbt.so (2013.1, Build901 2013/11/27)

>  <Rbt.Parameter_File>
/export/apps/rDock/src/rDock_2013.1_src/data/scripts/dock_solv.prm

>  <Rbt.Receptor>
prm/blind_docking_80.prm

>  <SCORE>
-15.0942

>  <SCORE.INTER>
-15.0942

>  <SCORE.INTER.CONST>
1

>  <SCORE.INTER.POLAR>
0

>  <SCORE.INTER.ROT>
0

>  <SCORE.INTER.SOLV>
4.98537

>  <SCORE.INTER.VDW>
-15.3246

>  <SCORE.INTER.norm>
-1.50942

>  <SCORE.INTRA>
0

>  <SCORE.INTRA.DIHEDRAL>
0

>  <SCORE.INTRA.DIHEDRAL.0>
0

>  <SCORE.INTRA.POLAR>
0

>  <SCORE.INTRA.POLAR.0>
0

>  <SCORE.INTRA.REPUL>
0

>  <SCORE.INTRA.REPUL.0>
0

>  <SCORE.INTRA.SOLV>
0

>  <SCORE.INTRA.SOLV.lig_0>
-4.28901

>  <SCORE.INTRA.VDW>
0

>  <SCORE.INTRA.VDW.0>
0

>  <SCORE.INTRA.norm>
0

>  <SCORE.RESTR>
0

>  <SCORE.RESTR.CAVITY>
0

>  <SCORE.RESTR.norm>
0

>  <SCORE.SYSTEM>
0

>  <SCORE.SYSTEM.CONST>
0

>  <SCORE.SYSTEM.DIHEDRAL>
0

>  <SCORE.SYSTEM.SOLV>
0

>  <SCORE.SYSTEM.norm>
0

>  <SCORE.heavy>
10

>  <SCORE.norm>
-1.50942

>  <RMSD>
26.214

$$$$
ligand
 OpenBabel11021811423D
libRbt.so/2013.1/901 2013/11/27
 10 11  0  0  0  0  0  0  0  0999 V2000
   36.6808   16.9986   10.1717 N   0  0  0  0  0  0  0  0  0  0  0  0
   36.6874   16.6350    8.8376 C   0  0  0  0  0  0  0  0  0  0  0  0
   36.6212   17.5396    7.8513 N   0  0  0  0  0  0  0  0  0  0  0  0
   36.5459   18.8195    8.3002 C   0  0  0  0  0  0  0  0  0  0  0  0
   36.5333   19.2532    9.6139 C   0  0  0  0  0  0  0  0  0  0  0  0
   36.6044   18.3020   10.6727 C   0  0  0  0  0  0  0  0  0  0  0  0
   36.6082   18.4632   11.9015 O   0  0  0  0  0  0  0  0  0  0  0  0
   36.4472   20.6183    9.6152 N   0  0  0  0  0  0  0  0  0  0  0  0
   36.4107   21.0030    8.3149 C   0  0  0  0  0  0  0  0  0  0  0  0
   36.4691   19.9170    7.4800 N   0  0  0  0  0  0  0  0  0  0  0  0
  1  2  1  0  0  0  0
  1  6  1  0  0  0  0
  2  3  2  0  0  0  0
  3  4  1  0  0  0  0
  4  5  2  0  0  0  0
  4 10  1  0  0  0  0
  5  6  1  0  0  0  0
  5  8  1  0  0  0  0
  6  7  2  0  0  0  0
  8  9  1  0  0  0  0
  9 10  2  0  0  0  0
M  END
>  <CHROM.1>
36.56188821,18.74693963,9.32519414,-0.57340088,1.50753536,-1.74490609

>  <Name>
ligand

>  <RI>
0

>  <Rbt.Current_Directory>
/home/itssahil/PROJECTS/Mol_Feturizer/New_Systems/rnas/2EEW

>  <Rbt.Executable>
rbdock ($Id: //depot/dev/client3/rdock/2013.1/src/exe/rbdock.cxx#4 $)

>  <Rbt.Library>
libRbt.so (2013.1, Build901 2013/11/27)

>  <Rbt.Parameter_File>
/export/apps/rDock/src/rDock_2013.1_src/data/scripts/dock_solv.prm

>  <Rbt.Receptor>
prm/blind_docking_80.prm

>  <SCORE>
-15.1036

>  <SCORE.INTER>
-15.1036

>  <SCORE.INTER.CONST>
1

>  <SCORE.INTER.POLAR>
0

>  <SCORE.INTER.ROT>
0

>  <SCORE.INTER.SOLV>
5.01279

>  <SCORE.INTER.VDW>
-15.34

>  <SCORE.INTER.norm>
-1.51036

>  <SCORE.INTRA>
0

>  <SCORE.INTRA.DIHEDRAL>
0

>  <SCORE.INTRA.DIHEDRAL.0>
0

>  <SCORE.INTRA.POLAR>
0

>  <SCORE.INTRA.POLAR.0>
0

>  <SCORE.INTRA.REPUL>
0

>  <SCORE.INTRA.REPUL.0>
0

>  <SCORE.INTRA.SOLV>
0

>  <SCORE.INTRA.SOLV.lig_0>
-4.28901

>  <SCORE.INTRA.VDW>
0

>  <SCORE.INTRA.VDW.0>
0

>  <SCORE.INTRA.norm>
0

>  <SCORE.RESTR>
0

>  <SCORE.RESTR.CAVITY>
0

>  <SCORE.RESTR.norm>
0

>  <SCORE.SYSTEM>
0

>  <SCORE.SYSTEM.CONST>
0

>  <SCORE.SYSTEM.DIHEDRAL>
0

>  <SCORE.SYSTEM.SOLV>
0

>  <SCORE.SYSTEM.norm>
0

>  <SCORE.heavy>
10

>  <SCORE.norm>
-1.51036

>  <RMSD>
26.220

$$$$
ligand
 OpenBabel11021811423D
libRbt.so/2013.1/901 2013/11/27
 10 11  0  0  0  0  0  0  0  0999 V2000
   36.6341   17.0180   10.1142 N   0  0  0  0  0  0  0  0  0  0  0  0
   36.6613   16.6793    8.7738 C   0  0  0  0  0  0  0  0  0  0  0  0
   36.6246   17.6030    7.8037 N   0  0  0  0  0  0  0  0  0  0  0  0
   36.5564   18.8751    8.2753 C   0  0  0  0  0  0  0  0  0  0  0  0
   36.5242   19.2843    9.5965 C   0  0  0  0  0  0  0  0  0  0  0  0
   36.5640   18.3127   10.6382 C   0  0  0  0  0  0  0  0  0  0  0  0
   36.5467   18.4509   11.8697 O   0  0  0  0  0  0  0  0  0  0  0  0
   36.4547   20.6501    9.6220 N   0  0  0  0  0  0  0  0  0  0  0  0
   36.4473   21.0594    8.3288 C   0  0  0  0  0  0  0  0  0  0  0  0
   36.5083   19.9886    7.4747 N   0  0  0  0  0  0  0  0  0  0  0  0
  1  2  1  0  0  0  0
  1  6  1  0  0  0  0
  2  3  2  0  0  0  0
  3  4  1  0  0  0  0
  4  5  2  0  0  0  0
  4 10  1  0  0  0  0
  5  6  1  0  0  0  0
  5  8  1  0  0  0  0
  6  7  2  0  0  0  0
  8  9  1  0  0  0  0
  9 10  2  0  0  0  0
M  END
>  <CHROM.1>
36.55218650,18.78319871,9.29882720,-0.90260951,1.51996781,-1.39741315

>  <Name>
ligand

>  <RI>
0

>  <Rbt.Current_Directory>
/home/itssahil/PROJECTS/Mol_Feturizer/New_Systems/rnas/2EEW

>  <Rbt.Executable>
rbdock ($Id: //depot/dev/client3/rdock/2013.1/src/exe/rbdock.cxx#4 $)

>  <Rbt.Library>
libRbt.so (2013.1, Build901 2013/11/27)

>  <Rbt.Parameter_File>
/export/apps/rDock/src/rDock_2013.1_src/data/scripts/dock_solv.prm

>  <Rbt.Receptor>
prm/blind_docking_60.prm

>  <SCORE>
-15.1241

>  <SCORE.INTER>
-15.1241

>  <SCORE.INTER.CONST>
1

>  <SCORE.INTER.POLAR>
0

>  <SCORE.INTER.ROT>
0

>  <SCORE.INTER.SOLV>
4.91337

>  <SCORE.INTER.VDW>
-15.3205

>  <SCORE.INTER.norm>
-1.51241

>  <SCORE.INTRA>
0

>  <SCORE.INTRA.DIHEDRAL>
0

>  <SCORE.INTRA.DIHEDRAL.0>
0

>  <SCORE.INTRA.POLAR>
0

>  <SCORE.INTRA.POLAR.0>
0

>  <SCORE.INTRA.REPUL>
0

>  <SCORE.INTRA.REPUL.0>
0

>  <SCORE.INTRA.SOLV>
0

>  <SCORE.INTRA.SOLV.lig_0>
-4.28901

>  <SCORE.INTRA.VDW>
0

>  <SCORE.INTRA.VDW.0>
0

>  <SCORE.INTRA.norm>
0

>  <SCORE.RESTR>
0

>  <SCORE.RESTR.CAVITY>
0

>  <SCORE.RESTR.norm>
0

>  <SCORE.SYSTEM>
0

>  <SCORE.SYSTEM.CONST>
0

>  <SCORE.SYSTEM.DIHEDRAL>
0

>  <SCORE.SYSTEM.SOLV>
0

>  <SCORE.SYSTEM.norm>
0

>  <SCORE.heavy>
10

>  <SCORE.norm>
-1.51241

>  <RMSD>
26.221

$$$$
ligand
 OpenBabel11021811423D
libRbt.so/2013.1/901 2013/11/27
 10 11  0  0  0  0  0  0  0  0999 V2000
   36.7006   16.9911   10.1433 N   0  0  0  0  0  0  0  0  0  0  0  0
   36.6950   16.6410    8.8057 C   0  0  0  0  0  0  0  0  0  0  0  0
   36.6174   17.5553    7.8292 N   0  0  0  0  0  0  0  0  0  0  0  0
   36.5438   18.8304    8.2916 C   0  0  0  0  0  0  0  0  0  0  0  0
   36.5429   19.2509    9.6097 C   0  0  0  0  0  0  0  0  0  0  0  0
   36.6263   18.2893   10.6581 C   0  0  0  0  0  0  0  0  0  0  0  0
   36.6417   18.4382   11.8884 O   0  0  0  0  0  0  0  0  0  0  0  0
   36.4541   20.6157    9.6255 N   0  0  0  0  0  0  0  0  0  0  0  0
   36.4042   21.0134    8.3296 C   0  0  0  0  0  0  0  0  0  0  0  0
   36.4568   19.9359    7.4833 N   0  0  0  0  0  0  0  0  0  0  0  0
  1  2  1  0  0  0  0
  1  6  1  0  0  0  0
  2  3  2  0  0  0  0
  3  4  1  0  0  0  0
  4  5  2  0  0  0  0
  4 10  1  0  0  0  0
  5  6  1  0  0  0  0
  5  8  1  0  0  0  0
  6  7  2  0  0  0  0
  8  9  1  0  0  0  0
  9 10  2  0  0  0  0
M  END
>  <CHROM.1>
36.56982749,18.74764627,9.31564109,-0.43736683,1.50319788,-1.87060160

>  <Name>
ligand

>  <RI>
0

>  <Rbt.Current_Directory>
/home/itssahil/PROJECTS/Mol_Feturizer/New_Systems/rnas/2EEW

>  <Rbt.Executable>
rbdock ($Id: //depot/dev/client3/rdock/2013.1/src/exe/rbdock.cxx#4 $)

>  <Rbt.Library>
libRbt.so (2013.1, Build901 2013/11/27)

>  <Rbt.Parameter_File>
/export/apps/rDock/src/rDock_2013.1_src/data/scripts/dock_solv.prm

>  <Rbt.Receptor>
prm/blind_docking_80.prm

>  <SCORE>
-15.1022

>  <SCORE.INTER>
-15.1022

>  <SCORE.INTER.CONST>
1

>  <SCORE.INTER.POLAR>
0

>  <SCORE.INTER.ROT>
0

>  <SCORE.INTER.SOLV>
5.04458

>  <SCORE.INTER.VDW>
-15.3497

>  <SCORE.INTER.norm>
-1.51022

>  <SCORE.INTRA>
0

>  <SCORE.INTRA.DIHEDRAL>
0

>  <SCORE.INTRA.DIHEDRAL.0>
0

>  <SCORE.INTRA.POLAR>
0

>  <SCORE.INTRA.POLAR.0>
0

>  <SCORE.INTRA.REPUL>
0

>  <SCORE.INTRA.REPUL.0>
0

>  <SCORE.INTRA.SOLV>
0

>  <SCORE.INTRA.SOLV.lig_0>
-4.28901

>  <SCORE.INTRA.VDW>
0

>  <SCORE.INTRA.VDW.0>
0

>  <SCORE.INTRA.norm>
0

>  <SCORE.RESTR>
0

>  <SCORE.RESTR.CAVITY>
0

>  <SCORE.RESTR.norm>
0

>  <SCORE.SYSTEM>
0

>  <SCORE.SYSTEM.CONST>
0

>  <SCORE.SYSTEM.DIHEDRAL>
0

>  <SCORE.SYSTEM.SOLV>
0

>  <SCORE.SYSTEM.norm>
0

>  <SCORE.heavy>
10

>  <SCORE.norm>
-1.51022

>  <RMSD>
26.226

$$$$
ligand
 OpenBabel11021811423D
libRbt.so/2013.1/901 2013/11/27
 10 11  0  0  0  0  0  0  0  0999 V2000
   36.6591   17.0315   10.1205 N   0  0  0  0  0  0  0  0  0  0  0  0
   36.6615   16.6882    8.7811 C   0  0  0  0  0  0  0  0  0  0  0  0
   36.6073   17.6085    7.8086 N   0  0  0  0  0  0  0  0  0  0  0  0
   36.5484   18.8822    8.2769 C   0  0  0  0  0  0  0  0  0  0  0  0
   36.5408   19.2961    9.5971 C   0  0  0  0  0  0  0  0  0  0  0  0
   36.5993   18.3281   10.6412 C   0  0  0  0  0  0  0  0  0  0  0  0
   36.6047   18.4705   11.8724 O   0  0  0  0  0  0  0  0  0  0  0  0
   36.4724   20.6620    9.6191 N   0  0  0  0  0  0  0  0  0  0  0  0
   36.4414   21.0669    8.3248 C   0  0  0  0  0  0  0  0  0  0  0  0
   36.4861   19.9930    7.4735 N   0  0  0  0  0  0  0  0  0  0  0  0
  1  2  1  0  0  0  0
  1  6  1  0  0  0  0
  2  3  2  0  0  0  0
  3  4  1  0  0  0  0
  4  5  2  0  0  0  0
  4 10  1  0  0  0  0
  5  6  1  0  0  0  0
  5  8  1  0  0  0  0
  6  7  2  0  0  0  0
  8  9  1  0  0  0  0
  9 10  2  0  0  0  0
M  END
>  <CHROM.1>
36.56301305,18.79394016,9.30067196,-0.53672233,1.52027416,-1.76630535

>  <Name>
ligand

>  <RI>
0

>  <Rbt.Current_Directory>
/home/itssahil/PROJECTS/Mol_Feturizer/New_Systems/rnas/2EEW

>  <Rbt.Executable>
rbdock ($Id: //depot/dev/client3/rdock/2013.1/src/exe/rbdock.cxx#4 $)

>  <Rbt.Library>
libRbt.so (2013.1, Build901 2013/11/27)

>  <Rbt.Parameter_File>
/export/apps/rDock/src/rDock_2013.1_src/data/scripts/dock_solv.prm

>  <Rbt.Receptor>
prm/blind_docking_80.prm

>  <SCORE>
-15.1644

>  <SCORE.INTER>
-15.1644

>  <SCORE.INTER.CONST>
1

>  <SCORE.INTER.POLAR>
0

>  <SCORE.INTER.ROT>
0

>  <SCORE.INTER.SOLV>
4.9734

>  <SCORE.INTER.VDW>
-15.3674

>  <SCORE.INTER.norm>
-1.51644

>  <SCORE.INTRA>
0

>  <SCORE.INTRA.DIHEDRAL>
0

>  <SCORE.INTRA.DIHEDRAL.0>
0

>  <SCORE.INTRA.POLAR>
0

>  <SCORE.INTRA.POLAR.0>
0

>  <SCORE.INTRA.REPUL>
0

>  <SCORE.INTRA.REPUL.0>
0

>  <SCORE.INTRA.SOLV>
0

>  <SCORE.INTRA.SOLV.lig_0>
-4.28901

>  <SCORE.INTRA.VDW>
0

>  <SCORE.INTRA.VDW.0>
0

>  <SCORE.INTRA.norm>
0

>  <SCORE.RESTR>
0

>  <SCORE.RESTR.CAVITY>
0

>  <SCORE.RESTR.norm>
0

>  <SCORE.SYSTEM>
0

>  <SCORE.SYSTEM.CONST>
0

>  <SCORE.SYSTEM.DIHEDRAL>
0

>  <SCORE.SYSTEM.SOLV>
0

>  <SCORE.SYSTEM.norm>
0

>  <SCORE.heavy>
10

>  <SCORE.norm>
-1.51644

>  <RMSD>
26.233

$$$$
ligand
 OpenBabel11021811423D
libRbt.so/2013.1/901 2013/11/27
 10 11  0  0  0  0  0  0  0  0999 V2000
   36.3778   18.9433    7.6098 N   0  0  0  0  0  0  0  0  0  0  0  0
   36.1394   20.2339    8.0452 C   0  0  0  0  0  0  0  0  0  0  0  0
   36.1348   20.5589    9.3452 N   0  0  0  0  0  0  0  0  0  0  0  0
   36.3815   19.5034   10.1638 C   0  0  0  0  0  0  0  0  0  0  0  0
   36.6259   18.1915    9.7984 C   0  0  0  0  0  0  0  0  0  0  0  0
   36.6350   17.8323    8.4194 C   0  0  0  0  0  0  0  0  0  0  0  0
   36.8286   16.7365    7.8737 O   0  0  0  0  0  0  0  0  0  0  0  0
   36.8226   17.4579   10.9359 N   0  0  0  0  0  0  0  0  0  0  0  0
   36.7001   18.3199   11.9760 C   0  0  0  0  0  0  0  0  0  0  0  0
   36.4274   19.5883   11.5327 N   0  0  0  0  0  0  0  0  0  0  0  0
  1  2  1  0  0  0  0
  1  6  1  0  0  0  0
  2  3  2  0  0  0  0
  3  4  1  0  0  0  0
  4  5  2  0  0  0  0
  4 10  1  0  0  0  0
  5  6  1  0  0  0  0
  5  8  1  0  0  0  0
  6  7  2  0  0  0  0
  8  9  1  0  0  0  0
  9 10  2  0  0  0  0
M  END
>  <CHROM.1>
36.51297461,18.70038925,9.53605129,1.62990715,1.36952149,-1.79503619

>  <Name>
ligand

>  <RI>
0

>  <Rbt.Current_Directory>
/home/itssahil/PROJECTS/Mol_Feturizer/New_Systems/rnas/2EEW

>  <Rbt.Executable>
rbdock ($Id: //depot/dev/client3/rdock/2013.1/src/exe/rbdock.cxx#4 $)

>  <Rbt.Library>
libRbt.so (2013.1, Build901 2013/11/27)

>  <Rbt.Parameter_File>
/export/apps/rDock/src/rDock_2013.1_src/data/scripts/dock_solv.prm

>  <Rbt.Receptor>
prm/blind_docking_80.prm

>  <SCORE>
-11.0762

>  <SCORE.INTER>
-11.1026

>  <SCORE.INTER.CONST>
1

>  <SCORE.INTER.POLAR>
0

>  <SCORE.INTER.ROT>
0

>  <SCORE.INTER.SOLV>
6.14256

>  <SCORE.INTER.VDW>
-13.0492

>  <SCORE.INTER.norm>
-1.11026

>  <SCORE.INTRA>
0

>  <SCORE.INTRA.DIHEDRAL>
0

>  <SCORE.INTRA.DIHEDRAL.0>
0

>  <SCORE.INTRA.POLAR>
0

>  <SCORE.INTRA.POLAR.0>
0

>  <SCORE.INTRA.REPUL>
0

>  <SCORE.INTRA.REPUL.0>
0

>  <SCORE.INTRA.SOLV>
0

>  <SCORE.INTRA.SOLV.lig_0>
-4.28901

>  <SCORE.INTRA.VDW>
0

>  <SCORE.INTRA.VDW.0>
0

>  <SCORE.INTRA.norm>
0

>  <SCORE.RESTR>
0.0263238

>  <SCORE.RESTR.CAVITY>
0.0263238

>  <SCORE.RESTR.norm>
0.00263238

>  <SCORE.SYSTEM>
0

>  <SCORE.SYSTEM.CONST>
0

>  <SCORE.SYSTEM.DIHEDRAL>
0

>  <SCORE.SYSTEM.SOLV>
0

>  <SCORE.SYSTEM.norm>
0

>  <SCORE.heavy>
10

>  <SCORE.norm>
-1.10762

>  <RMSD>
26.234

$$$$
ligand
 OpenBabel11021811423D
libRbt.so/2013.1/901 2013/11/27
 10 11  0  0  0  0  0  0  0  0999 V2000
   36.6206   17.7723    7.6192 N   0  0  0  0  0  0  0  0  0  0  0  0
   36.7567   16.5678    8.2844 C   0  0  0  0  0  0  0  0  0  0  0  0
   36.7972   16.4919    9.6217 N   0  0  0  0  0  0  0  0  0  0  0  0
   36.6951   17.7012   10.2318 C   0  0  0  0  0  0  0  0  0  0  0  0
   36.5588   18.9401    9.6314 C   0  0  0  0  0  0  0  0  0  0  0  0
   36.5130   19.0352    8.2102 C   0  0  0  0  0  0  0  0  0  0  0  0
   36.3972   20.0242    7.4724 O   0  0  0  0  0  0  0  0  0  0  0  0
   36.4921   19.8892   10.6140 N   0  0  0  0  0  0  0  0  0  0  0  0
   36.5851   19.2280   11.7948 C   0  0  0  0  0  0  0  0  0  0  0  0
   36.7119   17.8779   11.5926 N   0  0  0  0  0  0  0  0  0  0  0  0
  1  2  1  0  0  0  0
  1  6  1  0  0  0  0
  2  3  2  0  0  0  0
  3  4  1  0  0  0  0
  4  5  2  0  0  0  0
  4 10  1  0  0  0  0
  5  6  1  0  0  0  0
  5  8  1  0  0  0  0
  6  7  2  0  0  0  0
  8  9  1  0  0  0  0
  9 10  2  0  0  0  0
M  END
>  <CHROM.1>
36.60883918,18.38240494,9.46724594,-1.80472206,-1.47019442,1.31484540

>  <Name>
ligand

>  <RI>
0

>  <Rbt.Current_Directory>
/home/itssahil/PROJECTS/Mol_Feturizer/New_Systems/rnas/2EEW

>  <Rbt.Executable>
rbdock ($Id: //depot/dev/client3/rdock/2013.1/src/exe/rbdock.cxx#4 $)

>  <Rbt.Library>
libRbt.so (2013.1, Build901 2013/11/27)

>  <Rbt.Parameter_File>
/export/apps/rDock/src/rDock_2013.1_src/data/scripts/dock_solv.prm

>  <Rbt.Receptor>
prm/blind_docking_80.prm

>  <SCORE>
-11.4889

>  <SCORE.INTER>
-11.4889

>  <SCORE.INTER.CONST>
1

>  <SCORE.INTER.POLAR>
0

>  <SCORE.INTER.ROT>
0

>  <SCORE.INTER.SOLV>
5.11223

>  <SCORE.INTER.VDW>
-12.9633

>  <SCORE.INTER.norm>
-1.14889

>  <SCORE.INTRA>
0

>  <SCORE.INTRA.DIHEDRAL>
0

>  <SCORE.INTRA.DIHEDRAL.0>
0

>  <SCORE.INTRA.POLAR>
0

>  <SCORE.INTRA.POLAR.0>
0

>  <SCORE.INTRA.REPUL>
0

>  <SCORE.INTRA.REPUL.0>
0

>  <SCORE.INTRA.SOLV>
0

>  <SCORE.INTRA.SOLV.lig_0>
-4.28901

>  <SCORE.INTRA.VDW>
0

>  <SCORE.INTRA.VDW.0>
0

>  <SCORE.INTRA.norm>
0

>  <SCORE.RESTR>
0

>  <SCORE.RESTR.CAVITY>
0

>  <SCORE.RESTR.norm>
0

>  <SCORE.SYSTEM>
0

>  <SCORE.SYSTEM.CONST>
0

>  <SCORE.SYSTEM.DIHEDRAL>
0

>  <SCORE.SYSTEM.SOLV>
0

>  <SCORE.SYSTEM.norm>
0

>  <SCORE.heavy>
10

>  <SCORE.norm>
-1.14889

>  <RMSD>
26.312

$$$$
ligand
 OpenBabel11021811423D
libRbt.so/2013.1/901 2013/11/27
 10 11  0  0  0  0  0  0  0  0999 V2000
   36.6259   17.7726    7.6160 N   0  0  0  0  0  0  0  0  0  0  0  0
   36.7556   16.5697    8.2853 C   0  0  0  0  0  0  0  0  0  0  0  0
   36.7905   16.4978    9.6230 N   0  0  0  0  0  0  0  0  0  0  0  0
   36.6897   17.7092   10.2290 C   0  0  0  0  0  0  0  0  0  0  0  0
   36.5595   18.9468    9.6243 C   0  0  0  0  0  0  0  0  0  0  0  0
   36.5197   19.0377    8.2027 C   0  0  0  0  0  0  0  0  0  0  0  0
   36.4099   20.0248    7.4614 O   0  0  0  0  0  0  0  0  0  0  0  0
   36.4918   19.8990   10.6038 N   0  0  0  0  0  0  0  0  0  0  0  0
   36.5780   19.2411   11.7869 C   0  0  0  0  0  0  0  0  0  0  0  0
   36.7016   17.8900   11.5893 N   0  0  0  0  0  0  0  0  0  0  0  0
  1  2  1  0  0  0  0
  1  6  1  0  0  0  0
  2  3  2  0  0  0  0
  3  4  1  0  0  0  0
  4  5  2  0  0  0  0
  4 10  1  0  0  0  0
  5  6  1  0  0  0  0
  5  8  1  0  0  0  0
  6  7  2  0  0  0  0
  8  9  1  0  0  0  0
  9 10  2  0  0  0  0
M  END
>  <CHROM.1>
36.60853957,18.38839414,9.46205293,-1.77260309,-1.47412763,1.34378197

>  <Name>
ligand

>  <RI>
0

>  <Rbt.Current_Directory>
/home/itssahil/PROJECTS/Mol_Feturizer/New_Systems/rnas/2EEW

>  <Rbt.Executable>
rbdock ($Id: //depot/dev/client3/rdock/2013.1/src/exe/rbdock.cxx#4 $)

>  <Rbt.Library>
libRbt.so (2013.1, Build901 2013/11/27)

>  <Rbt.Parameter_File>
/export/apps/rDock/src/rDock_2013.1_src/data/scripts/dock_solv.prm

>  <Rbt.Receptor>
prm/blind_docking_80.prm

>  <SCORE>
-11.4854

>  <SCORE.INTER>
-11.4854

>  <SCORE.INTER.CONST>
1

>  <SCORE.INTER.POLAR>
0

>  <SCORE.INTER.ROT>
0

>  <SCORE.INTER.SOLV>
5.12198

>  <SCORE.INTER.VDW>
-12.9643

>  <SCORE.INTER.norm>
-1.14854

>  <SCORE.INTRA>
0

>  <SCORE.INTRA.DIHEDRAL>
0

>  <SCORE.INTRA.DIHEDRAL.0>
0

>  <SCORE.INTRA.POLAR>
0

>  <SCORE.INTRA.POLAR.0>
0

>  <SCORE.INTRA.REPUL>
0

>  <SCORE.INTRA.REPUL.0>
0

>  <SCORE.INTRA.SOLV>
0

>  <SCORE.INTRA.SOLV.lig_0>
-4.28901

>  <SCORE.INTRA.VDW>
0

>  <SCORE.INTRA.VDW.0>
0

>  <SCORE.INTRA.norm>
0

>  <SCORE.RESTR>
0

>  <SCORE.RESTR.CAVITY>
0

>  <SCORE.RESTR.norm>
0

>  <SCORE.SYSTEM>
0

>  <SCORE.SYSTEM.CONST>
0

>  <SCORE.SYSTEM.DIHEDRAL>
0

>  <SCORE.SYSTEM.SOLV>
0

>  <SCORE.SYSTEM.norm>
0

>  <SCORE.heavy>
10

>  <SCORE.norm>
-1.14854

>  <RMSD>
26.313

$$$$
ligand
 OpenBabel11021811423D
libRbt.so/2013.1/901 2013/11/27
 10 11  0  0  0  0  0  0  0  0999 V2000
   36.5969   17.8734    7.5889 N   0  0  0  0  0  0  0  0  0  0  0  0
   36.7541   16.6497    8.2132 C   0  0  0  0  0  0  0  0  0  0  0  0
   36.8128   16.5314    9.5466 N   0  0  0  0  0  0  0  0  0  0  0  0
   36.7060   17.7193   10.1967 C   0  0  0  0  0  0  0  0  0  0  0  0
   36.5490   18.9753    9.6382 C   0  0  0  0  0  0  0  0  0  0  0  0
   36.4838   19.1155    8.2216 C   0  0  0  0  0  0  0  0  0  0  0  0
   36.3481   20.1263    7.5175 O   0  0  0  0  0  0  0  0  0  0  0  0
   36.4852   19.8916   10.6517 N   0  0  0  0  0  0  0  0  0  0  0  0
   36.6004   19.1939   11.8093 C   0  0  0  0  0  0  0  0  0  0  0  0
   36.7387   17.8524   11.5621 N   0  0  0  0  0  0  0  0  0  0  0  0
  1  2  1  0  0  0  0
  1  6  1  0  0  0  0
  2  3  2  0  0  0  0
  3  4  1  0  0  0  0
  4  5  2  0  0  0  0
  4 10  1  0  0  0  0
  5  6  1  0  0  0  0
  5  8  1  0  0  0  0
  6  7  2  0  0  0  0
  8  9  1  0  0  0  0
  9 10  2  0  0  0  0
M  END
>  <CHROM.1>
36.60275482,18.42372844,9.45557710,-1.89179731,-1.45640865,1.26042648

>  <Name>
ligand

>  <RI>
0

>  <Rbt.Current_Directory>
/home/itssahil/PROJECTS/Mol_Feturizer/New_Systems/rnas/2EEW

>  <Rbt.Executable>
rbdock ($Id: //depot/dev/client3/rdock/2013.1/src/exe/rbdock.cxx#4 $)

>  <Rbt.Library>
libRbt.so (2013.1, Build901 2013/11/27)

>  <Rbt.Parameter_File>
/export/apps/rDock/src/rDock_2013.1_src/data/scripts/dock_solv.prm

>  <Rbt.Receptor>
prm/blind_docking_80.prm

>  <SCORE>
-11.5068

>  <SCORE.INTER>
-11.5068

>  <SCORE.INTER.CONST>
1

>  <SCORE.INTER.POLAR>
0

>  <SCORE.INTER.ROT>
0

>  <SCORE.INTER.SOLV>
4.98661

>  <SCORE.INTER.VDW>
-12.9334

>  <SCORE.INTER.norm>
-1.15068

>  <SCORE.INTRA>
0

>  <SCORE.INTRA.DIHEDRAL>
0

>  <SCORE.INTRA.DIHEDRAL.0>
0

>  <SCORE.INTRA.POLAR>
0

>  <SCORE.INTRA.POLAR.0>
0

>  <SCORE.INTRA.REPUL>
0

>  <SCORE.INTRA.REPUL.0>
0

>  <SCORE.INTRA.SOLV>
0

>  <SCORE.INTRA.SOLV.lig_0>
-4.28901

>  <SCORE.INTRA.VDW>
0

>  <SCORE.INTRA.VDW.0>
0

>  <SCORE.INTRA.norm>
0

>  <SCORE.RESTR>
0

>  <SCORE.RESTR.CAVITY>
0

>  <SCORE.RESTR.norm>
0

>  <SCORE.SYSTEM>
0

>  <SCORE.SYSTEM.CONST>
0

>  <SCORE.SYSTEM.DIHEDRAL>
0

>  <SCORE.SYSTEM.SOLV>
0

>  <SCORE.SYSTEM.norm>
0

>  <SCORE.heavy>
10

>  <SCORE.norm>
-1.15068

>  <RMSD>
26.320

$$$$
