@<TRIPOS>MOLECULE
2EEW_rdock.pdb
 1422 1589 0 0 0
SMALL
GASTEIGER

@<TRIPOS>ATOM
      1  C5'        3.7260    3.8220   22.6150 C.3    15  G15         0.2141
      2  O5'        4.8890    4.6310   22.4590 O.3    15  G15        -0.2176
      3  C4'        4.0430    2.3590   22.8220 C.3    15  G15         0.1802
      4  O4'        2.8050    1.6290   23.0150 O.3    15  G15        -0.3306
      5  C3'        4.7690    1.6250   21.7030 C.3    15  G15         0.1861
      6  O3'        6.1740    1.9210   21.7450 O.3    15  G15        -0.3112
      7  C2'        4.3480    0.1800   21.9580 C.3    15  G15         0.2309
      8  O2'        5.0240   -0.4380   23.0340 O.3    15  G15        -0.2156
      9  C1'        2.8860    0.3730   22.3660 C.3    15  G15         0.2408
     10  N1         0.2420   -2.2890   18.9290 N.ar   15  G15        -0.1709
     11  C2         1.0870   -2.7420   19.9150 C.ar   15  G15         0.2606
     12  N2         1.2400   -4.0730   19.9990 N.pl3  15  G15        -0.0859
     13  N3         1.7340   -1.9490   20.7570 N.ar   15  G15        -0.1918
     14  C4         1.4640   -0.6450   20.5280 C.ar   15  G15         0.1723
     15  C5         0.6370   -0.0910   19.5700 C.ar   15  G15         0.1748
     16  C6        -0.0510   -0.9520   18.6760 C.ar   15  G15         0.3023
     17  O6        -0.8300   -0.6520   17.7610 O.2    15  G15        -0.2633
     18  N7         0.6300    1.2930   19.6670 N.ar   15  G15        -0.2173
     19  C8         1.4350    1.5510   20.6610 C.ar   15  G15         0.1817
     20  N9         1.9700    0.4210   21.2310 N.ar   15  G15        -0.2693
     21  P          7.2800    0.7420   21.7430 P.3    16  G16         0.2141
     22  C5'        7.7380   -1.2190   20.0710 C.3    16  G16         0.1812
     23  O5'        6.8030   -0.3080   20.6440 O.3    16  G16        -0.3114
     24  C4'        7.0850   -2.5560   19.8090 C.3    16  G16         0.1773
     25  O4'        5.6580   -2.4610   20.0550 O.3    16  G16        -0.3307
     26  C3'        7.1910   -3.0610   18.3810 C.3    16  G16         0.1860
     27  O3'        8.4220   -3.7380   18.1740 O.3    16  G16        -0.3112
     28  C2'        5.9980   -4.0020   18.2830 C.3    16  G16         0.2309
     29  O2'        6.2430   -5.2700   18.8560 O.3    16  G16        -0.2156
     30  C1'        4.9550   -3.2460   19.1050 C.3    16  G16         0.2408
     31  N1         1.4350   -2.8080   15.4620 N.ar   16  G16        -0.1709
     32  C2         1.9890   -3.9440   16.0000 C.ar   16  G16         0.2606
     33  N2         1.5430   -5.1110   15.5040 N.pl3  16  G16        -0.0859
     34  N3         2.9120   -3.9380   16.9510 N.ar   16  G16        -0.1918
     35  C4         3.2410   -2.6820   17.3250 C.ar   16  G16         0.1723
     36  C5         2.7490   -1.4850   16.8480 C.ar   16  G16         0.1748
     37  C6         1.7590   -1.5060   15.8310 C.ar   16  G16         0.3023
     38  O6         1.1980   -0.5490   15.2820 O.2    16  G16        -0.2633
     39  N7         3.3480   -0.4130   17.4940 N.ar   16  G16        -0.2173
     40  C8         4.1760   -0.9650   18.3360 C.ar   16  G16         0.1817
     41  N9         4.1590   -2.3380   18.2890 N.ar   16  G16        -0.2693
     42  OP1        7.2830    0.0730   23.0720 O.3    16  G16        -0.4373
     43  OP2        8.5350    1.3530   21.2310 O.co2  16  G16        -0.5172
     44  P          9.1530   -3.6250   16.7500 P.3    17  A17         0.2141
     45  C5'        7.9090   -5.7690   15.8950 C.3    17  A17         0.1812
     46  O5'        8.1560   -4.3740   15.7630 O.3    17  A17        -0.3114
     47  C4'        7.3010   -6.2990   14.6250 C.3    17  A17         0.1773
     48  O4'        5.8700   -6.0620   14.6510 O.3    17  A17        -0.3307
     49  C3'        7.7750   -5.6120   13.3570 C.3    17  A17         0.1860
     50  O3'        8.9860   -6.1910   12.8920 O.3    17  A17        -0.3112
     51  C2'        6.6130   -5.8640   12.4050 C.3    17  A17         0.2309
     52  O2'        6.6330   -7.1510   11.8210 O.3    17  A17        -0.2156
     53  C1'        5.4190   -5.7210   13.3510 C.3    17  A17         0.2408
     54  N1         1.9260   -2.3920   11.5880 N.ar   17  A17        -0.2040
     55  C2         2.1370   -3.6910   11.3400 C.ar   17  A17         0.2016
     56  N3         3.0640   -4.5030   11.8360 N.ar   17  A17        -0.2048
     57  C4         3.8550   -3.8430   12.6980 C.ar   17  A17         0.1692
     58  C5         3.7660   -2.5090   13.0570 C.ar   17  A17         0.1518
     59  C6         2.7400   -1.7570   12.4600 C.ar   17  A17         0.1919
     60  N6         2.5290   -0.4590   12.7050 N.pl3  17  A17        -0.1054
     61  N7         4.7550   -2.1800   13.9740 N.ar   17  A17        -0.2193
     62  C8         5.4100   -3.3020   14.1460 C.ar   17  A17         0.1816
     63  N9         4.9200   -4.3490   13.4020 N.ar   17  A17        -0.2693
     64  OP1       10.4270   -4.3930   16.8080 O.3    17  A17        -0.4373
     65  OP2        9.1780   -2.1860   16.3720 O.co2  17  A17        -0.5172
     66  P          9.8150   -5.4550   11.7330 P.3    18  C18         0.2141
     67  C5'        8.9160   -4.8230    9.3660 C.3    18  C18         0.1812
     68  O5'        8.9640   -5.7590   10.4260 O.3    18  C18        -0.3114
     69  C4'        7.6300   -4.9710    8.6030 C.3    18  C18         0.1773
     70  O4'        6.5130   -4.6780    9.4800 O.3    18  C18        -0.3307
     71  C3'        7.4680   -4.0050    7.4500 C.3    18  C18         0.1860
     72  O3'        8.1290   -4.5190    6.3050 O.3    18  C18        -0.3112
     73  C2'        5.9540   -3.9480    7.2930 C.3    18  C18         0.2309
     74  O2'        5.4310   -5.0480    6.5780 O.3    18  C18        -0.2156
     75  C1'        5.5010   -4.0000    8.7540 C.3    18  C18         0.2420
     76  N1         5.3490   -2.6620    9.3410 N.ar   18  C18        -0.2535
     77  C2         4.2530   -1.8780    8.9690 C.ar   18  C18         0.3532
     78  O2         3.4300   -2.3370    8.1550 O.2    18  C18        -0.2443
     79  N3         4.1170   -0.6410    9.5030 N.ar   18  C18        -0.1739
     80  C4         5.0220   -0.1840   10.3710 C.ar   18  C18         0.1759
     81  N4         4.8480    1.0430   10.8670 N.pl3  18  C18        -0.1070
     82  C5         6.1450   -0.9650   10.7680 C.ar   18  C18         0.0566
     83  C6         6.2670   -2.1860   10.2350 C.ar   18  C18         0.0850
     84  OP1       11.1430   -6.1080   11.5800 O.2    18  C18        -0.5172
     85  OP2        9.7370   -3.9930   11.9990 O.co2  18  C18        -0.4373
     86  P          9.0950   -3.5620    5.4580 P.3    19  A19         0.2141
     87  C5'        6.9800   -3.3890    3.9380 C.3    19  A19         0.1812
     88  O5'        8.0760   -2.7330    4.5630 O.3    19  A19        -0.3114
     89  C4'        6.0150   -2.3800    3.3740 C.3    19  A19         0.1773
     90  O4'        5.1110   -1.9550    4.4290 O.3    19  A19        -0.3307
     91  C3'        6.6480   -1.0810    2.8990 C.3    19  A19         0.1860
     92  O3'        7.1690   -1.1920    1.5800 O.3    19  A19        -0.3112
     93  C2'        5.4720   -0.1190    2.9710 C.3    19  A19         0.2309
     94  O2'        4.5870   -0.2690    1.8770 O.3    19  A19        -0.2156
     95  C1'        4.7760   -0.5910    4.2460 C.3    19  A19         0.2408
     96  N1         3.8860    3.6070    7.0470 N.ar   19  A19        -0.2040
     97  C2         3.3280    3.1290    5.9310 C.ar   19  A19         0.2016
     98  N3         3.6130    2.0200    5.2540 N.ar   19  A19        -0.2048
     99  C4         4.6170    1.3470    5.8450 C.ar   19  A19         0.1692
    100  C5         5.2940    1.7090    6.9940 C.ar   19  A19         0.1518
    101  C6         4.8920    2.9100    7.6190 C.ar   19  A19         0.1919
    102  N6         5.4440    3.3940    8.7350 N.pl3  19  A19        -0.1054
    103  N7         6.2700    0.7690    7.3030 N.ar   19  A19        -0.2193
    104  C8         6.1590   -0.1260    6.3480 C.ar   19  A19         0.1816
    105  N9         5.1780    0.1630    5.4320 N.ar   19  A19        -0.2693
    106  OP1        9.9240   -4.4120    4.5670 O.2    19  A19        -0.5172
    107  OP2        9.7560   -2.6330    6.4080 O.co2  19  A19        -0.4373
    108  P          8.3480   -0.2060    1.1080 P.3    20  U20         0.2141
    109  C5'        6.5920    1.3970    0.0120 C.3    20  U20         0.1812
    110  O5'        7.6280    1.2090    0.9720 O.3    20  U20        -0.3114
    111  C4'        6.0070    2.7880    0.1170 C.3    20  U20         0.1773
    112  O4'        5.2950    2.9190    1.3810 O.3    20  U20        -0.3307
    113  C3'        7.0260    3.9170    0.1650 C.3    20  U20         0.1860
    114  O3'        7.4640    4.2990   -1.1330 O.3    20  U20        -0.3112
    115  C2'        6.2390    5.0320    0.8410 C.3    20  U20         0.2309
    116  O2'        5.3810    5.7270   -0.0410 O.3    20  U20        -0.2156
    117  C1'        5.4120    4.2490    1.8570 C.3    20  U20         0.2420
    118  N1         6.0330    4.2420    3.1860 N.ar   20  U20        -0.2534
    119  C2         5.7910    5.3370    3.9880 C.ar   20  U20         0.3546
    120  O2         5.0880    6.2700    3.6300 O.2    20  U20        -0.2443
    121  N3         6.4000    5.3030    5.2180 N.ar   20  U20        -0.1530
    122  C4         7.2100    4.3050    5.7170 C.ar   20  U20         0.2846
    123  O4         7.6730    4.4140    6.8530 O.2    20  U20        -0.2650
    124  C5         7.4130    3.2010    4.8240 C.ar   20  U20         0.0814
    125  C6         6.8290    3.2080    3.6180 C.ar   20  U20         0.0870
    126  OP1        8.8030   -0.6180   -0.2450 O.2    20  U20        -0.5172
    127  OP2        9.3300   -0.1290    2.2170 O.co2  20  U20        -0.4373
    128  P          8.9340    4.9250   -1.3200 P.3    21  A21         0.2141
    129  C5'        7.9500    7.2970   -0.7500 C.3    21  A21         0.1812
    130  O5'        8.9080    6.2790   -0.4740 O.3    21  A21        -0.3114
    131  C4'        8.2130    8.5330    0.0910 C.3    21  A21         0.1773
    132  O4'        7.6520    8.3520    1.4220 O.3    21  A21        -0.3307
    133  C3'        9.6850    8.8100    0.3650 C.3    21  A21         0.1860
    134  O3'       10.2500    9.5720   -0.6900 O.3    21  A21        -0.3112
    135  C2'        9.6410    9.6510    1.6350 C.3    21  A21         0.2309
    136  O2'        9.4580   11.0330    1.4000 O.3    21  A21        -0.2156
    137  C1'        8.4450    9.0490    2.3690 C.3    21  A21         0.2408
    138  N1         8.9310    8.7290    7.4430 N.ar   21  A21        -0.2040
    139  C2         8.5460    9.7170    6.6270 C.ar   21  A21         0.2016
    140  N3         8.4410    9.7220    5.3020 N.ar   21  A21        -0.2048
    141  C4         8.7850    8.5240    4.7950 C.ar   21  A21         0.1692
    142  C5         9.1990    7.4110    5.5010 C.ar   21  A21         0.1518
    143  C6         9.2700    7.5370    6.9040 C.ar   21  A21         0.1919
    144  N6         9.6480    6.5530    7.7260 N.pl3  21  A21        -0.1054
    145  N7         9.4710    6.3580    4.6370 N.ar   21  A21        -0.2193
    146  C8         9.2160    6.8510    3.4470 C.ar   21  A21         0.1816
    147  N9         8.8000    8.1590    3.4720 N.ar   21  A21        -0.2693
    148  OP1        9.1110    5.2670   -2.7540 O.2    21  A21        -0.5172
    149  OP2        9.8920    3.9990   -0.6610 O.co2  21  A21        -0.4373
    150  P         11.6840    9.1680   -1.2740 P.3    22  U22         0.2141
    151  C5'       13.9970    8.7460   -0.1010 C.3    22  U22         0.1812
    152  O5'       12.6510    9.2190   -0.0090 O.3    22  U22        -0.3114
    153  C4'       14.5360    8.3690    1.2650 C.3    22  U22         0.1773
    154  O4'       14.9920    9.5770    1.9320 O.3    22  U22        -0.3307
    155  C3'       13.5200    7.7460    2.2230 C.3    22  U22         0.1860
    156  O3'       14.1710    6.9960    3.2430 O.3    22  U22        -0.3112
    157  C2'       12.9060    8.9680    2.8940 C.3    22  U22         0.2309
    158  O2'       12.4230    8.6780    4.1920 O.3    22  U22        -0.2156
    159  C1'       14.1190    9.8890    2.9970 C.3    22  U22         0.2420
    160  N1        13.7980   11.3190    2.9580 N.ar   22  U22        -0.2534
    161  C2        13.9890   12.0340    4.1170 C.ar   22  U22         0.3546
    162  O2        14.4380   11.5320    5.1340 O.2    22  U22        -0.2443
    163  N3        13.6300   13.3560    4.0510 N.ar   22  U22        -0.1530
    164  C4        13.1090   14.0170    2.9670 C.ar   22  U22         0.2846
    165  O4        12.7480   15.1880    3.0920 O.2    22  U22        -0.2650
    166  C5        12.9660   13.2130    1.7930 C.ar   22  U22         0.0814
    167  C6        13.3100   11.9210    1.8280 C.ar   22  U22         0.0870
    168  OP1       12.0870   10.2200   -2.2370 O.2    22  U22        -0.5172
    169  OP2       11.5920    7.7580   -1.7220 O.co2  22  U22        -0.4373
    170  P         14.2800    5.4000    3.1270 P.3    23  A23         0.2141
    171  C5'       16.7680    6.0250    3.6620 C.3    23  A23         0.1812
    172  O5'       15.8510    5.1550    3.0100 O.3    23  A23        -0.3114
    173  C4'       17.9800    6.2620    2.7920 C.3    23  A23         0.1773
    174  O4'       17.5870    6.9160    1.5620 O.3    23  A23        -0.3307
    175  C3'       18.9980    7.2220    3.3760 C.3    23  A23         0.1860
    176  O3'       19.8280    6.5570    4.3180 O.3    23  A23        -0.3112
    177  C2'       19.7710    7.6720    2.1440 C.3    23  A23         0.2309
    178  O2'       20.8190    6.7920    1.8090 O.3    23  A23        -0.2156
    179  C1'       18.6850    7.6580    1.0630 C.3    23  A23         0.2408
    180  N1        17.1540   12.2720    2.7780 N.ar   23  A23        -0.2040
    181  C2        17.5250   11.1560    3.4190 C.ar   23  A23         0.2016
    182  N3        17.9060    9.9810    2.9140 N.ar   23  A23        -0.2048
    183  C4        17.8830   10.0120    1.5690 C.ar   23  A23         0.1692
    184  C5        17.5190   11.0810    0.7720 C.ar   23  A23         0.1518
    185  C6        17.1400   12.2670    1.4270 C.ar   23  A23         0.1919
    186  N6        16.7710   13.3760    0.7900 N.pl3  23  A23        -0.1054
    187  N7        17.6060   10.7430   -0.5730 N.ar   23  A23        -0.2193
    188  C8        18.0200    9.4990   -0.5600 C.ar   23  A23         0.1816
    189  N9        18.2130    8.9940    0.7040 N.ar   23  A23        -0.2693
    190  OP1       13.6460    4.9810    1.8520 O.2    23  A23        -0.5172
    191  OP2       13.8020    4.8210    4.4100 O.co2  23  A23        -0.4373
    192  P         19.5960    6.8110    5.8920 P.3    24  A24         0.2141
    193  C5'       19.3590    9.4170    5.7240 C.3    24  A24         0.1812
    194  O5'       20.1370    8.2910    6.1080 O.3    24  A24        -0.3114
    195  C4'       19.3350   10.4270    6.8390 C.3    24  A24         0.1773
    196  O4'       18.4530    9.9390    7.8770 O.3    24  A24        -0.3307
    197  C3'       20.6710   10.6360    7.5350 C.3    24  A24         0.1860
    198  O3'       21.4060   11.6450    6.8490 O.3    24  A24        -0.3112
    199  C2'       20.2540   11.0940    8.9310 C.3    24  A24         0.2309
    200  O2'       20.0010   12.4810    9.0210 O.3    24  A24        -0.2156
    201  C1'       18.9420   10.3370    9.1420 C.3    24  A24         0.2408
    202  N1        19.0490    8.5380   13.9470 N.ar   24  A24        -0.2040
    203  C2        18.9880    9.7840   13.4540 C.ar   24  A24         0.2016
    204  N3        18.9840   10.1880   12.1850 N.ar   24  A24        -0.2048
    205  C4        19.0560    9.1300   11.3570 C.ar   24  A24         0.1692
    206  C5        19.1330    7.7970   11.7170 C.ar   24  A24         0.1518
    207  C6        19.1210    7.5030   13.0840 C.ar   24  A24         0.1919
    208  N6        19.1680    6.2590   13.5710 N.pl3  24  A24        -0.1054
    209  N7        19.2020    6.9870   10.5940 N.ar   24  A24        -0.2193
    210  C8        19.1530    7.8360    9.5950 C.ar   24  A24         0.1816
    211  N9        19.0530    9.1480    9.9860 N.ar   24  A24        -0.2693
    212  OP1       20.4480    5.8850    6.6710 O.3    24  A24        -0.4373
    213  OP2       18.1240    6.8220    6.1260 O.co2  24  A24        -0.5172
    214  P         23.0030   11.5290    6.7230 P.3    25  U25         0.2141
    215  C5'       22.8760   10.2970    4.3930 C.3    25  U25         0.1812
    216  O5'       23.2680   11.4340    5.1530 O.3    25  U25        -0.3114
    217  C4'       22.3410   10.7280    3.0420 C.3    25  U25         0.1773
    218  O4'       20.9580   11.1470    3.1930 O.3    25  U25        -0.3307
    219  C3'       23.0150   11.9250    2.3810 C.3    25  U25         0.1860
    220  O3'       24.1850   11.5590    1.6560 O.3    25  U25        -0.3112
    221  C2'       21.9260   12.3930    1.4290 C.3    25  U25         0.2309
    222  O2'       21.8150   11.5760    0.2870 O.3    25  U25        -0.2156
    223  C1'       20.6820   12.2120    2.2960 C.3    25  U25         0.2420
    224  N1        20.3570   13.4140    3.0780 N.ar   25  U25        -0.2534
    225  C2        19.8150   14.4900    2.4000 C.ar   25  U25         0.3546
    226  O2        19.6130   14.4850    1.1970 O.2    25  U25        -0.2443
    227  N3        19.5190   15.5760    3.1820 N.ar   25  U25        -0.1530
    228  C4        19.7110   15.7000    4.5410 C.ar   25  U25         0.2846
    229  O4        19.3940   16.7510    5.1010 O.2    25  U25        -0.2650
    230  C5        20.2830   14.5520    5.1690 C.ar   25  U25         0.0814
    231  C6        20.5790   13.4740    4.4340 C.ar   25  U25         0.0870
    232  OP1       23.4340   10.2870    7.3990 O.3    25  U25        -0.4373
    233  OP2       23.5640   12.8330    7.1600 O.co2  25  U25        -0.5172
    234  P         25.3820   12.6240    1.4780 P.3    26  C26         0.2141
    235  C5'       24.6910   13.1670   -1.0120 C.3    26  C26         0.1812
    236  O5'       24.8860   13.6170    0.3300 O.3    26  C26        -0.3114
    237  C4'       24.1690   14.2970   -1.8810 C.3    26  C26         0.1773
    238  O4'       22.7890   14.6050   -1.5180 O.3    26  C26        -0.3307
    239  C3'       24.9030   15.6280   -1.7540 C.3    26  C26         0.1860
    240  O3'       26.0010   15.7070   -2.6470 O.3    26  C26        -0.3112
    241  C2'       23.8190   16.6170   -2.1440 C.3    26  C26         0.2309
    242  O2'       23.5950   16.6200   -3.5400 O.3    26  C26        -0.2156
    243  C1'       22.6200   16.0160   -1.4140 C.3    26  C26         0.2420
    244  N1        22.5800   16.3720    0.0210 N.ar   26  C26        -0.2535
    245  C2        22.0900   17.6350    0.4070 C.ar   26  C26         0.3532
    246  O2        21.6910   18.4240   -0.4700 O.2    26  C26        -0.2443
    247  N3        22.0650   17.9570    1.7270 N.ar   26  C26        -0.1739
    248  C4        22.4980   17.0740    2.6390 C.ar   26  C26         0.1759
    249  N4        22.4590   17.4230    3.9350 N.pl3  26  C26        -0.1070
    250  C5        22.9920   15.7890    2.2690 C.ar   26  C26         0.0566
    251  C6        23.0160   15.4850    0.9660 C.ar   26  C26         0.0850
    252  OP1       26.5790   11.8920    0.9940 O.2    26  C26        -0.5172
    253  OP2       25.4680   13.4060    2.7360 O.co2  26  C26        -0.4373
    254  P         27.3530   16.4350   -2.1710 P.3    27  G27         0.2141
    255  C5'       26.4260   18.2930   -3.7710 C.3    27  G27         0.1812
    256  O5'       27.1180   17.9600   -2.5730 O.3    27  G27        -0.3114
    257  C4'       26.0390   19.7490   -3.7610 C.3    27  G27         0.1773
    258  O4'       24.8120   19.9170   -3.0110 O.3    27  G27        -0.3307
    259  C3'       27.0030   20.6720   -3.0370 C.3    27  G27         0.1860
    260  O3'       28.1320   20.9860   -3.8380 O.3    27  G27        -0.3112
    261  C2'       26.1230   21.8880   -2.7810 C.3    27  G27         0.2309
    262  O2'       25.9850   22.7530   -3.8920 O.3    27  G27        -0.2156
    263  C1'       24.7840   21.2210   -2.4580 C.3    27  G27         0.2408
    264  N1        23.4730   23.7450    1.7180 N.ar   27  G27        -0.1709
    265  C2        23.6050   24.1900    0.4260 C.ar   27  G27         0.2606
    266  N2        23.3640   25.4850    0.2150 N.pl3  27  G27        -0.0859
    267  N3        23.9540   23.4190   -0.5890 N.ar   27  G27        -0.1918
    268  C4        24.1850   22.1480   -0.2000 C.ar   27  G27         0.1723
    269  C5        24.0940   21.6010    1.0620 C.ar   27  G27         0.1748
    270  C6        23.6960   22.4380    2.1420 C.ar   27  G27         0.3023
    271  O6        23.5320   22.1400    3.3380 O.2    27  G27        -0.2633
    272  N7        24.4310   20.2520    1.0380 N.ar   27  G27        -0.2173
    273  C8        24.7060   20.0100   -0.2170 C.ar   27  G27         0.1817
    274  N9        24.5700   21.1190   -1.0200 N.ar   27  G27        -0.2693
    275  OP1       28.4820   15.8970   -2.9760 O.2    27  G27        -0.5172
    276  OP2       27.3980   16.3480   -0.6810 O.co2  27  G27        -0.4373
    277  P         29.5020   21.4390   -3.1270 P.3    28  C28         0.2141
    278  C5'       29.5050   23.4140   -1.3740 C.3    28  C28         0.1812
    279  O5'       29.1820   22.9370   -2.6840 O.3    28  C28        -0.3114
    280  C4'       28.9330   24.8030   -1.1760 C.3    28  C28         0.1773
    281  O4'       27.5230   24.6680   -0.8490 O.3    28  C28        -0.3307
    282  C3'       29.5190   25.6080   -0.0250 C.3    28  C28         0.1860
    283  O3'       30.6500   26.3700   -0.4240 O.3    28  C28        -0.3112
    284  C2'       28.3630   26.5170    0.3490 C.3    28  C28         0.2309
    285  O2'       28.2000   27.6150   -0.5130 O.3    28  C28        -0.2156
    286  C1'       27.1830   25.5630    0.1940 C.3    28  C28         0.2420
    287  N1        26.9270   24.7870    1.4180 N.ar   28  C28        -0.2535
    288  C2        26.2750   25.4150    2.4720 C.ar   28  C28         0.3532
    289  O2        25.9210   26.5990    2.3310 O.2    28  C28        -0.2443
    290  N3        26.0380   24.7220    3.6200 N.ar   28  C28        -0.1739
    291  C4        26.4230   23.4500    3.7220 C.ar   28  C28         0.1759
    292  N4        26.1660   22.8080    4.8680 N.pl3  28  C28        -0.1070
    293  C5        27.0880   22.7770    2.6520 C.ar   28  C28         0.0566
    294  C6        27.3180   23.4790    1.5270 C.ar   28  C28         0.0850
    295  OP1       30.5820   21.4610   -4.1530 O.2    28  C28        -0.5172
    296  OP2       29.6750   20.6150   -1.8980 O.co2  28  C28        -0.4373
    297  P         31.7460   26.7660    0.6680 P.3    29  G29         0.2141
    298  C5'       30.8220   29.2240    0.7630 C.3    29  G29         0.1812
    299  O5'       31.0890   27.9960    1.4340 O.3    29  G29        -0.3114
    300  C4'       30.1370   30.1860    1.7010 C.3    29  G29         0.1773
    301  O4'       28.8470   29.6450    2.1040 O.3    29  G29        -0.3307
    302  C3'       30.8790   30.4010    3.0060 C.3    29  G29         0.1860
    303  O3'       31.8610   31.4030    2.8500 O.3    29  G29        -0.3112
    304  C2'       29.7620   30.8310    3.9430 C.3    29  G29         0.2309
    305  O2'       29.4060   32.1920    3.7660 O.3    29  G29        -0.2156
    306  C1'       28.6280   29.9120    3.4830 C.3    29  G29         0.2408
    307  N1        27.3830   27.6030    7.8290 N.ar   29  G29        -0.1709
    308  C2        27.3270   28.9370    7.4930 C.ar   29  G29         0.2606
    309  N2        26.8690   29.7790    8.4440 N.pl3  29  G29        -0.0859
    310  N3        27.6970   29.4200    6.3180 N.ar   29  G29        -0.1918
    311  C4        28.1490   28.4560    5.4930 C.ar   29  G29         0.1723
    312  C5        28.2600   27.1020    5.7290 C.ar   29  G29         0.1748
    313  C6        27.8410   26.5870    6.9950 C.ar   29  G29         0.3023
    314  O6        27.8370   25.4080    7.3910 O.2    29  G29        -0.2633
    315  N7        28.7840   26.4510    4.6220 N.ar   29  G29        -0.2173
    316  C8        28.9630   27.4010    3.7410 C.ar   29  G29         0.1817
    317  N9        28.5880   28.6420    4.2030 N.ar   29  G29        -0.2693
    318  OP1       32.9990   27.2350    0.0300 O.2    29  G29        -0.5172
    319  OP2       31.7860   25.6090    1.5980 O.co2  29  G29        -0.4373
    320  P         33.3150   31.1780    3.4870 P.3    30  U30         0.2141
    321  C5'       32.7170   32.8670    5.3930 C.3    30  U30         0.1812
    322  O5'       33.1190   31.5590    5.0150 O.3    30  U30        -0.3114
    323  C4'       32.3760   32.9020    6.8640 C.3    30  U30         0.1773
    324  O4'       31.1130   32.2170    7.1120 O.3    30  U30        -0.3307
    325  C3'       33.3410   32.1710    7.7800 C.3    30  U30         0.1860
    326  O3'       34.5120   32.9470    7.9950 O.3    30  U30        -0.3112
    327  C2'       32.4830   32.0470    9.0260 C.3    30  U30         0.2309
    328  O2'       32.3190   33.3080    9.6510 O.3    30  U30        -0.2156
    329  C1'       31.1490   31.6130    8.4010 C.3    30  U30         0.2420
    330  N1        31.0520   30.1540    8.2190 N.ar   30  U30        -0.2534
    331  C2        30.5680   29.4000    9.2680 C.ar   30  U30         0.3546
    332  O2        30.1760   29.8920   10.3110 O.2    30  U30        -0.2443
    333  N3        30.5530   28.0430    9.0510 N.ar   30  U30        -0.1530
    334  C4        30.9430   27.3810    7.9090 C.ar   30  U30         0.2846
    335  O4        30.8280   26.1560    7.8500 O.2    30  U30        -0.2650
    336  C5        31.4060   28.2330    6.8550 C.ar   30  U30         0.0814
    337  C6        31.4440   29.5600    7.0450 C.ar   30  U30         0.0870
    338  OP1       34.2520   32.1270    2.8590 O.2    30  U30        -0.5172
    339  OP2       33.5780   29.7130    3.4170 O.co2  30  U30        -0.4373
    340  P         35.8830   32.2170    8.4130 P.3    31  G31         0.2141
    341  C5'       35.6060   32.4840   11.0160 C.3    31  G31         0.1812
    342  O5'       35.5620   31.6360    9.8630 O.3    31  G31        -0.3114
    343  C4'       34.9670   31.8010   12.2050 C.3    31  G31         0.1773
    344  O4'       33.7020   31.2090   11.8050 O.3    31  G31        -0.3307
    345  C3'       35.7050   30.6270   12.8280 C.3    31  G31         0.1860
    346  O3'       36.7290   31.0570   13.7050 O.3    31  G31        -0.3112
    347  C2'       34.5770   29.9740   13.6070 C.3    31  G31         0.2309
    348  O2'       34.1650   30.7180   14.7320 O.3    31  G31        -0.2156
    349  C1'       33.4720   30.0310   12.5620 C.3    31  G31         0.2408
    350  N1        32.9990   25.0230   12.3430 N.ar   31  G31        -0.1709
    351  C2        32.8370   25.8840   13.4020 C.ar   31  G31         0.2606
    352  N2        32.4920   25.3430   14.5790 N.pl3  31  G31        -0.0859
    353  N3        32.9940   27.1910   13.3180 N.ar   31  G31        -0.1918
    354  C4        33.3350   27.5810   12.0760 C.ar   31  G31         0.1723
    355  C5        33.5220   26.8150   10.9520 C.ar   31  G31         0.1748
    356  C6        33.3420   25.4070   11.0490 C.ar   31  G31         0.3023
    357  O6        33.4430   24.5590   10.1610 O.2    31  G31        -0.2633
    358  N7        33.8670   27.6070    9.8690 N.ar   31  G31        -0.2173
    359  C8        33.8830   28.8240   10.3520 C.ar   31  G31         0.1817
    360  N9        33.5640   28.8720   11.6850 N.ar   31  G31        -0.2693
    361  OP1       36.9260   33.2730    8.5380 O.3    31  G31        -0.4373
    362  OP2       36.1010   31.0770    7.4910 O.co2  31  G31        -0.5172
    363  P         38.0540   30.1820   13.8550 P.3    32  G32         0.2141
    364  C5'       36.8860   29.0060   15.8990 C.3    32  G32         0.1812
    365  O5'       37.5870   28.8870   14.6620 O.3    32  G32        -0.3114
    366  C4'       36.5030   27.6360   16.4290 C.3    32  G32         0.1773
    367  O4'       35.4250   27.0770   15.6330 O.3    32  G32        -0.3307
    368  C3'       37.5710   26.5580   16.4040 C.3    32  G32         0.1860
    369  O3'       38.4580   26.6950   17.5130 O.3    32  G32        -0.3112
    370  C2'       36.7080   25.3020   16.4850 C.3    32  G32         0.2309
    371  O2'       36.0900   25.1060   17.7460 O.3    32  G32        -0.2156
    372  C1'       35.5970   25.6720   15.5070 C.3    32  G32         0.2408
    373  N1        36.2080   22.0510   12.0010 N.ar   32  G32        -0.1709
    374  C2        35.8680   21.9290   13.3180 C.ar   32  G32         0.2606
    375  N2        35.6940   20.6670   13.7690 N.pl3  32  G32        -0.0859
    376  N3        35.7170   22.9550   14.1410 N.ar   32  G32        -0.1918
    377  C4        35.9610   24.1330   13.5270 C.ar   32  G32         0.1723
    378  C5        36.3160   24.3610   12.2130 C.ar   32  G32         0.1748
    379  C6        36.4560   23.2470   11.3400 C.ar   32  G32         0.3023
    380  O6        36.7530   23.2360   10.1310 O.2    32  G32        -0.2633
    381  N7        36.4900   25.7170   11.9770 N.ar   32  G32        -0.2173
    382  C8        36.2470   26.2790   13.1320 C.ar   32  G32         0.1817
    383  N9        35.9210   25.3750   14.1150 N.ar   32  G32        -0.2693
    384  OP1       39.0150   30.9580   14.6870 O.3    32  G32        -0.4373
    385  OP2       38.4560   29.7090   12.5110 O.co2  32  G32        -0.5172
    386  P         39.9960   26.2680   17.3550 P.3    33  A33         0.2141
    387  C5'       39.1970   24.0820   18.5640 C.3    33  A33         0.1812
    388  O5'       39.9530   24.6720   17.5090 O.3    33  A33        -0.3114
    389  C4'       39.1420   22.5760   18.4040 C.3    33  A33         0.1773
    390  O4'       38.2750   22.2290   17.2940 O.3    33  A33        -0.3307
    391  C3'       40.4470   21.9120   18.0180 C.3    33  A33         0.1860
    392  O3'       41.3070   21.8240   19.1450 O.3    33  A33        -0.3112
    393  C2'       39.9440   20.5620   17.5190 C.3    33  A33         0.2309
    394  O2'       39.5360   19.6820   18.5510 O.3    33  A33        -0.2156
    395  C1'       38.6850   20.9890   16.7580 C.3    33  A33         0.2408
    396  N1        39.3770   18.4750   12.3880 N.ar   33  A33        -0.2040
    397  C2        39.2570   18.0700   13.6500 C.ar   33  A33         0.2016
    398  N3        39.0980   18.7960   14.7500 N.ar   33  A33        -0.2048
    399  C4        39.0630   20.1110   14.4500 C.ar   33  A33         0.1692
    400  C5        39.1810   20.6810   13.2020 C.ar   33  A33         0.1518
    401  C6        39.3420   19.8040   12.1230 C.ar   33  A33         0.1919
    402  N6        39.4540   20.2080   10.8590 N.pl3  33  A33        -0.1054
    403  N7        39.1070   22.0670   13.2800 N.ar   33  A33        -0.2193
    404  C8        38.9350   22.2980   14.5600 C.ar   33  A33         0.1816
    405  N9        38.8890   21.1500   15.3230 N.ar   33  A33        -0.2693
    406  OP1       40.7350   26.8200   18.5010 O.3    33  A33        -0.4373
    407  OP2       40.4410   26.5870   15.9760 O.co2  33  A33        -0.5172
    408  P         42.8990   21.8180   18.9320 P.3    34  U34         0.2141
    409  C5'       42.6380   19.2500   18.5990 C.3    34  U34         0.1812
    410  O5'       43.1650   20.4750   18.1200 O.3    34  U34        -0.3114
    411  C4'       43.0420   18.0810   17.7200 C.3    34  U34         0.1773
    412  O4'       42.3570   18.1920   16.4340 O.3    34  U34        -0.3307
    413  C3'       44.5330   18.0230   17.3740 C.3    34  U34         0.1860
    414  O3'       44.9780   16.6880   17.1740 O.3    34  U34        -0.3112
    415  C2'       44.6170   18.8220   16.0820 C.3    34  U34         0.2309
    416  O2'       45.6570   18.4130   15.2210 O.3    34  U34        -0.2156
    417  C1'       43.3020   18.4360   15.4150 C.3    34  U34         0.2420
    418  N1        42.8100   19.4430   14.4720 N.ar   34  U34        -0.2534
    419  C2        42.6320   19.0430   13.1610 C.ar   34  U34         0.3546
    420  O2        42.7410   17.8810   12.7990 O.2    34  U34        -0.2443
    421  N3        42.3240   20.0530   12.2860 N.ar   34  U34        -0.1530
    422  C4        42.1660   21.3900   12.5850 C.ar   34  U34         0.2846
    423  O4        42.0770   22.2010   11.6640 O.2    34  U34        -0.2650
    424  C5        42.2880   21.7080   13.9740 C.ar   34  U34         0.0814
    425  C6        42.5940   20.7440   14.8510 C.ar   34  U34         0.0870
    426  OP1       43.5130   21.6890   20.2850 O.3    34  U34        -0.4373
    427  OP2       43.2580   22.9700   18.0630 O.co2  34  U34        -0.5172
    428  P         46.0110   16.0340   18.2110 P.3    35  A35         0.2141
    429  C5'       44.5010   13.8880   18.1240 C.3    35  A35         0.1812
    430  O5'       45.8000   14.4650   18.0210 O.3    35  A35        -0.3114
    431  C4'       44.5810   12.3750   18.1200 C.3    35  A35         0.1773
    432  O4'       44.4620   11.9110   16.7430 O.3    35  A35        -0.3307
    433  C3'       45.9000   11.8020   18.6260 C.3    35  A35         0.1860
    434  O3'       45.7650   10.5210   19.2570 O.3    35  A35        -0.3112
    435  C2'       46.7470   11.7480   17.3590 C.3    35  A35         0.2309
    436  O2'       47.7390   10.7460   17.3980 O.3    35  A35        -0.2156
    437  C1'       45.7070   11.4180   16.2850 C.3    35  A35         0.2408
    438  N1        47.7510   10.7890   11.5990 N.ar   35  A35        -0.2040
    439  C2        47.4770    9.9240   12.5810 C.ar   35  A35         0.2016
    440  N3        46.9070   10.1440   13.7620 N.ar   35  A35        -0.2048
    441  C4        46.5920   11.4450   13.9050 C.ar   35  A35         0.1692
    442  C5        46.8000   12.4520   12.9800 C.ar   35  A35         0.1518
    443  C6        47.4210   12.0890   11.7710 C.ar   35  A35         0.1919
    444  N6        47.7100   12.9560   10.7920 N.pl3  35  A35        -0.1054
    445  N7        46.3430   13.6700   13.4690 N.ar   35  A35        -0.2193
    446  C8        45.8790   13.3760   14.6630 C.ar   35  A35         0.1816
    447  N9        46.0260   12.0540   15.0030 N.ar   35  A35        -0.2693
    448  OP1       45.5320   16.4170   19.5720 O.3    35  A35        -0.4373
    449  OP2       47.4010   16.3740   17.8050 O.co2  35  A35        -0.5172
    450  P         45.6380   10.4240   20.8690 P.3    36  U36         0.2141
    451  C5'       43.0680   10.7390   21.3710 C.3    36  U36         0.1812
    452  O5'       44.3560   11.3130   21.1920 O.3    36  U36        -0.3114
    453  C4'       42.3350   11.4780   22.4730 C.3    36  U36         0.1773
    454  O4'       43.2080   11.5050   23.6460 O.3    36  U36        -0.3307
    455  C3'       42.0080   12.9440   22.1660 C.3    36  U36         0.1860
    456  O3'       40.7590   13.3200   22.7360 O.3    36  U36        -0.3112
    457  C2'       43.1210   13.7010   22.8810 C.3    36  U36         0.2309
    458  O2'       42.7340   15.0160   23.2500 O.3    36  U36        -0.2156
    459  C1'       43.3070   12.8330   24.1220 C.3    36  U36         0.2420
    460  N1        44.5960   13.0020   24.8180 N.ar   36  U36        -0.2534
    461  C2        44.5760   13.6430   26.0460 C.ar   36  U36         0.3546
    462  O2        43.5540   14.0550   26.5540 O.2    36  U36        -0.2443
    463  N3        45.7980   13.7820   26.6550 N.ar   36  U36        -0.1530
    464  C4        47.0110   13.3460   26.1800 C.ar   36  U36         0.2846
    465  O4        48.0320   13.5380   26.8550 O.2    36  U36        -0.2650
    466  C5        46.9530   12.6900   24.9050 C.ar   36  U36         0.0814
    467  C6        45.7770   12.5460   24.2830 C.ar   36  U36         0.0870
    468  OP1       46.8030   11.0880   21.4930 O.3    36  U36        -0.4373
    469  OP2       45.3520    9.0010   21.1910 O.co2  36  U36        -0.5172
    470  P         39.3930   13.0290   21.9330 P.3    37  G37         0.2141
    471  C5'       39.3460   15.5130   21.0990 C.3    37  G37         0.1812
    472  O5'       39.3710   14.1250   20.7880 O.3    37  G37        -0.3114
    473  C4'       39.3090   16.3090   19.8180 C.3    37  G37         0.1773
    474  O4'       40.5800   16.1250   19.1260 O.3    37  G37        -0.3307
    475  C3'       38.2590   15.8140   18.8380 C.3    37  G37         0.1860
    476  O3'       36.9990   16.4300   19.1000 O.3    37  G37        -0.3112
    477  C2'       38.8620   16.2050   17.4950 C.3    37  G37         0.2309
    478  O2'       38.6440   17.5660   17.1860 O.3    37  G37        -0.2156
    479  C1'       40.3530   15.9440   17.7390 C.3    37  G37         0.2408
    480  N1        42.3030   12.9490   14.1160 N.ar   37  G37        -0.1709
    481  C2        42.0700   14.2940   14.0890 C.ar   37  G37         0.2606
    482  N2        42.4070   14.9400   12.9490 N.pl3  37  G37        -0.0859
    483  N3        41.5490   14.9740   15.1080 N.ar   37  G37        -0.1918
    484  C4        41.3070   14.1840   16.1770 C.ar   37  G37         0.1723
    485  C5        41.5160   12.8260   16.3080 C.ar   37  G37         0.1748
    486  C6        42.0410   12.1070   15.2070 C.ar   37  G37         0.3023
    487  O6        42.2630   10.8910   15.1200 O.2    37  G37        -0.2633
    488  N7        41.1510   12.3910   17.5720 N.ar   37  G37        -0.2173
    489  C8        40.7250   13.4710   18.1760 C.ar   37  G37         0.1817
    490  N9        40.7830   14.5910   17.3820 N.ar   37  G37        -0.2693
    491  OP1       38.2580   13.2920   22.8330 O.3    37  G37        -0.4373
    492  OP2       39.5300   11.6890   21.2920 O.co2  37  G37        -0.5172
    493  P         35.6340   15.6420   18.7720 P.3    38  G38         0.2141
    494  C5'       35.3200   16.8430   16.4350 C.3    38  G38         0.1812
    495  O5'       35.5640   15.6500   17.1790 O.3    38  G38        -0.3114
    496  C4'       35.5640   16.5760   14.9620 C.3    38  G38         0.1773
    497  O4'       36.9370   16.1360   14.8190 O.3    38  G38        -0.3307
    498  C3'       34.7600   15.4350   14.3590 C.3    38  G38         0.1860
    499  O3'       33.5070   15.9070   13.8830 O.3    38  G38        -0.3112
    500  C2'       35.6350   15.0300   13.1770 C.3    38  G38         0.2309
    501  O2'       35.4820   15.8630   12.0450 O.3    38  G38        -0.2156
    502  C1'       37.0450   15.2340   13.7400 C.3    38  G38         0.2408
    503  N1        39.6800   11.0790   12.5690 N.ar   38  G38        -0.1709
    504  C2        39.4860   12.2180   11.8320 C.ar   38  G38         0.2606
    505  N2        40.0270   12.2300   10.6020 N.pl3  38  G38        -0.0859
    506  N3        38.8210   13.2710   12.2680 N.ar   38  G38        -0.1918
    507  C4        38.3690   13.0960   13.5290 C.ar   38  G38         0.1723
    508  C5        38.5330   12.0090   14.3590 C.ar   38  G38         0.1748
    509  C6        39.2380   10.8840   13.8760 C.ar   38  G38         0.3023
    510  O6        39.4740    9.8210   14.4560 O.2    38  G38        -0.2633
    511  N7        37.9220   12.2250   15.5850 N.ar   38  G38        -0.2173
    512  C8        37.3960   13.4130   15.4740 C.ar   38  G38         0.1817
    513  N9        37.5970   13.9770   14.2360 N.ar   38  G38        -0.2693
    514  OP1       34.5050   16.4250   19.3180 O.3    38  G38        -0.4373
    515  OP2       35.7880   14.2150   19.1540 O.co2  38  G38        -0.5172
    516  P         32.1370   15.2090   14.3610 P.3    39  C39         0.2141
    517  C5'       30.6930   16.7030   16.0040 C.3    39  C39         0.1812
    518  O5'       31.2200   16.4700   14.7120 O.3    39  C39        -0.3114
    519  C4'       30.9140   18.1550   16.4050 C.3    39  C39         0.1773
    520  O4'       32.1290   18.6540   15.7870 O.3    39  C39        -0.3307
    521  C3'       29.8960   19.2100   15.9890 C.3    39  C39         0.1860
    522  O3'       28.7720   19.2240   16.8550 O.3    39  C39        -0.3112
    523  C2'       30.6930   20.4810   16.2400 C.3    39  C39         0.2309
    524  O2'       30.7560   20.7800   17.6210 O.3    39  C39        -0.2156
    525  C1'       32.0790   20.0740   15.7340 C.3    39  C39         0.2420
    526  N1        32.3130   20.5000   14.3440 N.ar   39  C39        -0.2535
    527  C2        32.4110   21.8690   14.0690 C.ar   39  C39         0.3532
    528  O2        32.2790   22.6740   15.0050 O.2    39  C39        -0.2443
    529  N3        32.6360   22.2720   12.7950 N.ar   39  C39        -0.1739
    530  C4        32.7480   21.3650   11.8160 C.ar   39  C39         0.1759
    531  N4        32.9630   21.8050   10.5550 N.pl3  39  C39        -0.1070
    532  C5        32.6430   19.9700   12.0730 C.ar   39  C39         0.0566
    533  C6        32.4310   19.5870   13.3370 C.ar   39  C39         0.0850
    534  OP1       32.3820   14.3650   15.5480 O.3    39  C39        -0.4373
    535  OP2       31.4910   14.6210   13.1780 O.co2  39  C39        -0.5172
    536  P         27.4170   19.9480   16.3930 P.3    40  A40         0.2141
    537  C5'       28.0210   22.1240   17.8000 C.3    40  A40         0.1812
    538  O5'       27.7320   21.5130   16.5320 O.3    40  A40        -0.3114
    539  C4'       27.9970   23.6470   17.6690 C.3    40  A40         0.1773
    540  O4'       29.2020   24.0910   16.9840 O.3    40  A40        -0.3307
    541  C3'       26.8670   24.1440   16.7870 C.3    40  A40         0.1860
    542  O3'       25.6680   24.3070   17.5130 O.3    40  A40        -0.3112
    543  C2'       27.4020   25.4540   16.2310 C.3    40  A40         0.2309
    544  O2'       27.1860   26.5630   17.0880 O.3    40  A40        -0.2156
    545  C1'       28.8850   25.1190   16.0540 C.3    40  A40         0.2408
    546  N1        29.8420   26.4710   11.1890 N.ar   40  A40        -0.2040
    547  C2        29.6490   27.1860   12.3130 C.ar   40  A40         0.2016
    548  N3        29.4440   26.7620   13.5600 N.ar   40  A40        -0.2048
    549  C4        29.4240   25.4180   13.6070 C.ar   40  A40         0.1692
    550  C5        29.6140   24.5440   12.5450 C.ar   40  A40         0.1518
    551  C6        29.8540   25.1230   11.2740 C.ar   40  A40         0.1919
    552  N6        30.1090   24.4170   10.1560 N.pl3  40  A40        -0.1054
    553  N7        29.5290   23.2230   12.9750 N.ar   40  A40        -0.2193
    554  C8        29.2840   23.3270   14.2620 C.ar   40  A40         0.1816
    555  N9        29.1900   24.6330   14.7060 N.ar   40  A40        -0.2693
    556  OP1       26.3480   19.5960   17.3620 O.3    40  A40        -0.4373
    557  OP2       27.2190   19.6790   14.9600 O.co2  40  A40        -0.5172
    558  P         24.2670   24.2940   16.7200 P.3    41  C41         0.2141
    559  C5'       24.2320   26.9070   16.5450 C.3    41  C41         0.1812
    560  O5'       24.2990   25.6490   15.8840 O.3    41  C41        -0.3114
    561  C4'       24.3880   28.0390   15.5450 C.3    41  C41         0.1773
    562  O4'       25.7170   27.9960   14.9490 O.3    41  C41        -0.3307
    563  C3'       23.5050   27.9890   14.3160 C.3    41  C41         0.1860
    564  O3'       22.1670   28.3380   14.6050 O.3    41  C41        -0.3112
    565  C2'       24.2220   28.9850   13.4300 C.3    41  C41         0.2309
    566  O2'       24.1500   30.3310   13.8960 O.3    41  C41        -0.2156
    567  C1'       25.6570   28.4870   13.6130 C.3    41  C41         0.2420
    568  N1        25.9820   27.3820   12.6820 N.ar   41  C41        -0.2535
    569  C2        26.4460   27.7100   11.4300 C.ar   41  C41         0.3532
    570  O2        26.6280   28.9110   11.1720 O.2    41  C41        -0.2443
    571  N3        26.6940   26.7260   10.5310 N.ar   41  C41        -0.1739
    572  C4        26.5010   25.4470   10.8730 C.ar   41  C41         0.1759
    573  N4        26.7430   24.5070    9.9570 N.pl3  41  C41        -0.1070
    574  C5        26.0530   25.0780   12.1650 C.ar   41  C41         0.0566
    575  C6        25.8110   26.0700   13.0340 C.ar   41  C41         0.0850
    576  OP1       23.2080   24.3520   17.7430 O.3    41  C41        -0.4373
    577  OP2       24.2900   23.1730   15.7480 O.co2  41  C41        -0.5172
    578  P         20.9870   27.7810   13.6740 P.3    42  G42         0.2141
    579  C5'       21.0130   29.8200   12.0420 C.3    42  G42         0.1812
    580  O5'       21.2560   28.4290   12.2490 O.3    42  G42        -0.3114
    581  C4'       21.4090   30.2180   10.6450 C.3    42  G42         0.1773
    582  O4'       22.7800   29.8120   10.4120 O.3    42  G42        -0.3307
    583  C3'       20.6510   29.5460    9.5150 C.3    42  G42         0.1860
    584  O3'       19.3990   30.1700    9.2940 O.3    42  G42        -0.3112
    585  C2'       21.6010   29.7780    8.3530 C.3    42  G42         0.2309
    586  O2'       21.5110   31.0820    7.8110 O.3    42  G42        -0.2156
    587  C1'       22.9590   29.5610    9.0330 C.3    42  G42         0.2408
    588  N1        25.0270   26.1670    5.9350 N.ar   42  G42        -0.1709
    589  C2        24.8610   27.5130    5.7620 C.ar   42  G42         0.2606
    590  N2        25.2520   28.0160    4.5790 N.pl3  42  G42        -0.0859
    591  N3        24.3440   28.3130    6.6760 N.ar   42  G42        -0.1918
    592  C4        23.9910   27.6400    7.7890 C.ar   42  G42         0.1723
    593  C5        24.1150   26.2970    8.0620 C.ar   42  G42         0.1748
    594  C6        24.6670   25.4520    7.0720 C.ar   42  G42         0.3023
    595  O6        24.8320   24.2310    7.1090 O.2    42  G42        -0.2633
    596  N7        23.6410   26.0070    9.3330 N.ar   42  G42        -0.2173
    597  C8        23.2290   27.1560    9.7920 C.ar   42  G42         0.1817
    598  N9        23.3870   28.1800    8.8890 N.ar   42  G42        -0.2693
    599  OP1       19.7390   28.3660   14.2180 O.3    42  G42        -0.4373
    600  OP2       21.1260   26.2980   13.5460 O.co2  42  G42        -0.5172
    601  P         18.3160   29.4630    8.3370 P.3    43  C43         0.2141
    602  C5'       19.1400   30.7670    6.2120 C.3    43  C43         0.1812
    603  O5'       18.9740   29.5200    6.8860 O.3    43  C43        -0.3114
    604  C4'       19.7160   30.5520    4.8270 C.3    43  C43         0.1773
    605  O4'       21.0200   29.9240    4.9220 O.3    43  C43        -0.3307
    606  C3'       18.9590   29.6080    3.9090 C.3    43  C43         0.1860
    607  O3'       17.8290   30.2320    3.3220 O.3    43  C43        -0.3112
    608  C2'       20.0230   29.3150    2.8680 C.3    43  C43         0.2309
    609  O2'       20.2450   30.4200    2.0170 O.3    43  C43        -0.2156
    610  C1'       21.2460   29.1290    3.7640 C.3    43  C43         0.2420
    611  N1        21.4300   27.7300    4.1810 N.ar   43  C43        -0.2535
    612  C2        22.0680   26.8420    3.2980 C.ar   43  C43         0.3532
    613  O2        22.4420   27.2580    2.1880 O.2    43  C43        -0.2443
    614  N3        22.2590   25.5580    3.6750 N.ar   43  C43        -0.1739
    615  C4        21.8390   25.1430    4.8710 C.ar   43  C43         0.1759
    616  N4        22.0620   23.8640    5.1970 N.pl3  43  C43        -0.1070
    617  C5        21.1750   26.0180    5.7840 C.ar   43  C43         0.0566
    618  C6        20.9940   27.2930    5.4020 C.ar   43  C43         0.0850
    619  OP1       17.0900   30.3060    8.3310 O.2    43  C43        -0.5172
    620  OP2       18.2290   28.0400    8.7560 O.co2  43  C43        -0.4373
    621  P         16.5260   29.3550    2.9970 P.3    44  A44         0.2141
    622  C5'       17.4650   29.0310    0.5630 C.3    44  A44         0.1812
    623  O5'       16.9770   28.4420    1.7660 O.3    44  A44        -0.3114
    624  C4'       18.0020   27.9670   -0.3710 C.3    44  A44         0.1773
    625  O4'       19.2460   27.4170    0.1460 O.3    44  A44        -0.3307
    626  C3'       17.1310   26.7400   -0.5740 C.3    44  A44         0.1860
    627  O3'       16.0970   27.0110   -1.5130 O.3    44  A44        -0.3112
    628  C2'       18.1480   25.7500   -1.1250 C.3    44  A44         0.2309
    629  O2'       18.4860   26.0080   -2.4750 O.3    44  A44        -0.2156
    630  C1'       19.3550   26.0510   -0.2330 C.3    44  A44         0.2408
    631  N1        20.5340   21.5110    1.9120 N.ar   44  A44        -0.2040
    632  C2        20.7120   21.9910    0.6700 C.ar   44  A44         0.2016
    633  N3        20.4000   23.1900    0.1760 N.ar   44  A44        -0.2048
    634  C4        19.8330   23.9590    1.1220 C.ar   44  A44         0.1692
    635  C5        19.5900   23.6100    2.4400 C.ar   44  A44         0.1518
    636  C6        19.9630   22.3150    2.8390 C.ar   44  A44         0.1919
    637  N6        19.7800   21.8410    4.0790 N.pl3  44  A44        -0.1054
    638  N7        18.9980   24.6610    3.1230 N.ar   44  A44        -0.2193
    639  C8        18.8870   25.6020    2.2200 C.ar   44  A44         0.1816
    640  N9        19.3610   25.2430    0.9840 N.ar   44  A44        -0.2693
    641  OP1       15.4520   30.2730    2.5510 O.2    44  A44        -0.5172
    642  OP2       16.2870   28.4580    4.1480 O.co2  44  A44        -0.4373
    643  P         14.8530   26.0040   -1.6360 P.3    45  A45         0.2141
    644  C5'       14.9880   23.4690   -2.2440 C.3    45  A45         0.1812
    645  O5'       15.4240   24.7960   -2.4940 O.3    45  A45        -0.3114
    646  C4'       15.8900   22.4870   -2.9430 C.3    45  A45         0.1773
    647  O4'       17.1900   22.4750   -2.2900 O.3    45  A45        -0.3307
    648  C3'       15.3950   21.0510   -2.8940 C.3    45  A45         0.1860
    649  O3'       14.6260   20.7820   -4.0500 O.3    45  A45        -0.3112
    650  C2'       16.6860   20.2510   -2.9120 C.3    45  A45         0.2309
    651  O2'       17.1930   20.1060   -4.2210 O.3    45  A45        -0.2156
    652  C1'       17.6030   21.1390   -2.0740 C.3    45  A45         0.2408
    653  N1        18.5780   17.7630    1.6970 N.ar   45  A45        -0.2040
    654  C2        18.7160   17.6890    0.3650 C.ar   45  A45         0.2016
    655  N3        18.4270   18.5980   -0.5650 N.ar   45  A45        -0.2048
    656  C4        17.9300   19.7140   -0.0010 C.ar   45  A45         0.1692
    657  C5        17.7250   19.9400    1.3500 C.ar   45  A45         0.1518
    658  C6        18.0780   18.9000    2.2340 C.ar   45  A45         0.1919
    659  N6        17.9520   18.9770    3.5640 N.pl3  45  A45        -0.1054
    660  N7        17.1980   21.2070    1.5600 N.ar   45  A45        -0.2193
    661  C8        17.1050   21.7140    0.3550 C.ar   45  A45         0.1816
    662  N9        17.5400   20.8700   -0.6370 N.ar   45  A45        -0.2693
    663  OP1       13.7850   26.6760   -2.4250 O.2    45  A45        -0.5172
    664  OP2       14.5450   25.4740   -0.2820 O.co2  45  A45        -0.4373
    665  P         13.1540   20.1800   -3.8900 P.3    46  G46         0.2141
    666  C5'       14.5220   17.9460   -4.0130 C.3    46  G46         0.1812
    667  O5'       13.4350   18.6760   -3.4470 O.3    46  G46        -0.3114
    668  C4'       14.7770   16.6850   -3.2220 C.3    46  G46         0.1773
    669  O4'       15.7080   16.9730   -2.1490 O.3    46  G46        -0.3307
    670  C3'       13.5590   16.0980   -2.5280 C.3    46  G46         0.1860
    671  O3'       12.8550   15.2340   -3.4060 O.3    46  G46        -0.3112
    672  C2'       14.1780   15.3250   -1.3740 C.3    46  G46         0.2309
    673  O2'       14.6370   14.0420   -1.7460 O.3    46  G46        -0.2156
    674  C1'       15.3500   16.2300   -0.9980 C.3    46  G46         0.2408
    675  N1        15.5030   17.1530    3.9780 N.ar   46  G46        -0.1709
    676  C2        15.9630   16.0650    3.2810 C.ar   46  G46         0.2606
    677  N2        16.5520   15.1000    4.0040 N.pl3  46  G46        -0.0859
    678  N3        15.8580   15.9350    1.9690 N.ar   46  G46        -0.1918
    679  C4        15.2600   17.0040    1.4020 C.ar   46  G46         0.1723
    680  C5        14.7760   18.1430    2.0060 C.ar   46  G46         0.1748
    681  C6        14.8820   18.2650    3.4140 C.ar   46  G46         0.3023
    682  O6        14.5030   19.1960    4.1380 O.2    46  G46        -0.2633
    683  N7        14.2410   19.0120    1.0650 N.ar   46  G46        -0.2173
    684  C8        14.4040   18.3950   -0.0730 C.ar   46  G46         0.1817
    685  N9        15.0160   17.1730    0.0620 N.ar   46  G46        -0.2693
    686  OP1       12.5020   20.1720   -5.2250 O.2    46  G46        -0.5172
    687  OP2       12.5060   20.9030   -2.7650 O.co2  46  G46        -0.4373
    688  P         11.2690   15.3850   -3.5460 P.3    47  C47         0.2141
    689  C5'       10.7390   13.2810   -2.0780 C.3    47  C47         0.1812
    690  O5'       10.7160   14.6950   -2.2260 O.3    47  C47        -0.3114
    691  C4'        9.6980   12.8530   -1.0730 C.3    47  C47         0.1773
    692  O4'       10.0570   13.3980    0.2290 O.3    47  C47        -0.3307
    693  C3'        8.2810   13.3540   -1.3640 C.3    47  C47         0.1860
    694  O3'        7.3200   12.3920   -0.9350 O.3    47  C47        -0.3112
    695  C2'        8.1890   14.6070   -0.5000 C.3    47  C47         0.2309
    696  O2'        6.8660   14.9550   -0.1370 O.3    47  C47        -0.2156
    697  C1'        8.9810   14.1650    0.7280 C.3    47  C47         0.2420
    698  N1         9.5190   15.2780    1.5210 N.ar   47  C47        -0.2535
    699  C2         9.4130   15.2140    2.9090 C.ar   47  C47         0.3532
    700  O2         8.9200   14.1990    3.4230 O.2    47  C47        -0.2443
    701  N3         9.8550   16.2540    3.6570 N.ar   47  C47        -0.1739
    702  C4        10.3980   17.3180    3.0620 C.ar   47  C47         0.1759
    703  N4        10.8050   18.3260    3.8370 N.pl3  47  C47        -0.1070
    704  C5        10.5440   17.3970    1.6450 C.ar   47  C47         0.0566
    705  C6        10.0950   16.3630    0.9190 C.ar   47  C47         0.0850
    706  OP1       10.8370   14.5810   -4.7140 O.2    47  C47        -0.5172
    707  OP2       10.9550   16.8350   -3.4950 O.co2  47  C47        -0.4373
    708  P          6.5640   11.4740   -2.0170 P.3    48  U48         0.2141
    709  C5'        4.5040   13.0700   -1.6900 C.3    48  U48         0.1812
    710  O5'        5.4060   12.4140   -2.5780 O.3    48  U48        -0.3114
    711  C4'        3.7290   14.1350   -2.4270 C.3    48  U48         0.1773
    712  O4'        2.8530   13.5000   -3.3920 O.3    48  U48        -0.3307
    713  C3'        2.8440   15.0220   -1.5510 C.3    48  U48         0.1860
    714  O3'        3.0830   16.3990   -1.8270 O.3    48  U48        -0.3112
    715  C2'        1.4170   14.6250   -1.9360 C.3    48  U48         0.2309
    716  O2'        0.5140   15.7140   -1.8960 O.3    48  U48        -0.2156
    717  C1'        1.6010   14.1450   -3.3730 C.3    48  U48         0.2420
    718  N1         0.5830   13.1820   -3.8180 N.ar   48  U48        -0.2534
    719  C2        -0.2650   13.5710   -4.8410 C.ar   48  U48         0.3546
    720  O2        -0.2010   14.6680   -5.3730 O.2    48  U48        -0.2443
    721  N3        -1.1880   12.6270   -5.2190 N.ar   48  U48        -0.1530
    722  C4        -1.3480   11.3640   -4.6890 C.ar   48  U48         0.2846
    723  O4        -2.2170   10.6210   -5.1480 O.2    48  U48        -0.2650
    724  C5        -0.4360   11.0380   -3.6340 C.ar   48  U48         0.0814
    725  C6         0.4750   11.9370   -3.2440 C.ar   48  U48         0.0870
    726  OP1        5.9300   10.3640   -1.2630 O.3    48  U48        -0.4373
    727  OP2        7.5090   11.1670   -3.1240 O.co2  48  U48        -0.5172
    728  P          4.2730   17.1720   -1.0670 P.3    49  U49         0.2141
    729  C5'        3.0830   16.6280    1.2130 C.3    49  U49         0.1812
    730  O5'        4.2570   16.5650    0.4070 O.3    49  U49        -0.3114
    731  C4'        3.4390   16.9410    2.6480 C.3    49  U49         0.1773
    732  O4'        3.3840   15.7150    3.4270 O.3    49  U49        -0.3307
    733  C3'        4.8490   17.4800    2.8580 C.3    49  U49         0.1860
    734  O3'        4.8940   18.2520    4.0570 O.3    49  U49        -0.3112
    735  C2'        5.6690   16.2010    3.0090 C.3    49  U49         0.2309
    736  O2'        6.8530   16.3840    3.7600 O.3    49  U49        -0.2156
    737  C1'        4.6940   15.3100    3.7760 C.3    49  U49         0.2420
    738  N1         4.8250   13.8630    3.5460 N.ar   49  U49        -0.2534
    739  C2         4.5560   13.0280    4.6170 C.ar   49  U49         0.3546
    740  O2         4.2160   13.4460    5.7130 O.2    49  U49        -0.2443
    741  N3         4.6990   11.6880    4.3600 N.ar   49  U49        -0.1530
    742  C4         5.0730   11.1050    3.1680 C.ar   49  U49         0.2846
    743  O4         5.1550    9.8740    3.0970 O.2    49  U49        -0.2650
    744  C5         5.3320   12.0320    2.1040 C.ar   49  U49         0.0814
    745  C6         5.2020   13.3480    2.3240 C.ar   49  U49         0.0870
    746  OP1        3.8870   18.6040   -0.9790 O.3    49  U49        -0.4373
    747  OP2        5.5570   16.7970   -1.7180 O.co2  49  U49        -0.5172
    748  P          6.0190   19.3880    4.2380 P.3    50  C50         0.2141
    749  C5'        4.7670   20.5410    6.2460 C.3    50  C50         0.1812
    750  O5'        5.8970   19.8140    5.7710 O.3    50  C50        -0.3114
    751  C4'        4.5720   20.2930    7.7230 C.3    50  C50         0.1773
    752  O4'        4.0170   18.9640    7.9050 O.3    50  C50        -0.3307
    753  C3'        5.8420   20.2930    8.5620 C.3    50  C50         0.1860
    754  O3'        6.1570   21.6040    9.0050 O.3    50  C50        -0.3112
    755  C2'        5.4500   19.4170    9.7440 C.3    50  C50         0.2309
    756  O2'        4.7130   20.1190   10.7240 O.3    50  C50        -0.2156
    757  C1'        4.5660   18.3710    9.0680 C.3    50  C50         0.2420
    758  N1         5.2870   17.1540    8.6690 N.ar   50  C50        -0.2535
    759  C2         5.6790   16.2540    9.6580 C.ar   50  C50         0.3532
    760  O2         5.4390   16.5270   10.8450 O.2    50  C50        -0.2443
    761  N3         6.3100   15.1120    9.3010 N.ar   50  C50        -0.1739
    762  C4         6.5560   14.8610    8.0130 C.ar   50  C50         0.1759
    763  N4         7.1640   13.7130    7.7060 N.pl3  50  C50        -0.1070
    764  C5         6.1850   15.7740    6.9840 C.ar   50  C50         0.0566
    765  C6         5.5590   16.8980    7.3540 C.ar   50  C50         0.0850
    766  OP1        5.6430   20.5500    3.3870 O.2    50  C50        -0.5172
    767  OP2        7.3480   18.7520    4.0620 O.co2  50  C50        -0.4373
    768  P          7.6730   21.9660    9.4010 P.3    51  U51         0.2141
    769  C5'        7.9480   20.9200   11.7890 C.3    51  U51         0.1812
    770  O5'        8.1210   20.7950   10.3830 O.3    51  U51        -0.3114
    771  C4'        8.4650   19.6880   12.4910 C.3    51  U51         0.1773
    772  O4'        7.8570   18.5000   11.9060 O.3    51  U51        -0.3307
    773  C3'        9.9540   19.4280   12.3530 C.3    51  U51         0.1860
    774  O3'       10.6950   20.1900   13.2970 O.3    51  U51        -0.3112
    775  C2'       10.0200   17.9410   12.6620 C.3    51  U51         0.2309
    776  O2'        9.8550   17.6710   14.0390 O.3    51  U51        -0.2156
    777  C1'        8.7980   17.4360   11.8970 C.3    51  U51         0.2420
    778  N1         9.1090   17.1050   10.5000 N.ar   51  U51        -0.2534
    779  C2         9.6200   15.8500   10.2330 C.ar   51  U51         0.3546
    780  O2         9.8180   15.0200   11.0990 O.2    51  U51        -0.2443
    781  N3         9.8900   15.6070    8.9100 N.ar   51  U51        -0.1530
    782  C4         9.7050   16.4750    7.8510 C.ar   51  U51         0.2846
    783  O4         9.9990   16.1140    6.7090 O.2    51  U51        -0.2650
    784  C5         9.1740   17.7490    8.2150 C.ar   51  U51         0.0814
    785  C6         8.9010   18.0130    9.4920 C.ar   51  U51         0.0870
    786  OP1        7.6660   23.2290   10.1890 O.3    51  U51        -0.4373
    787  OP2        8.4880   21.8720    8.1620 O.co2  51  U51        -0.5172
    788  P         12.2450   20.5150   13.0160 P.3    52  A52         0.2141
    789  C5'       13.0610   18.2010   13.9690 C.3    52  A52         0.1812
    790  O5'       12.9230   19.0800   12.8560 O.3    52  A52        -0.3114
    791  C4'       13.7690   16.9350   13.5440 C.3    52  A52         0.1773
    792  O4'       12.9480   16.2360   12.5690 O.3    52  A52        -0.3307
    793  C3'       15.1010   17.1430   12.8340 C.3    52  A52         0.1860
    794  O3'       16.1630   17.2660   13.7830 O.3    52  A52        -0.3112
    795  C2'       15.2320   15.8570   12.0240 C.3    52  A52         0.2309
    796  O2'       15.7120   14.7720   12.7960 O.3    52  A52        -0.2156
    797  C1'       13.7790   15.5990   11.6140 C.3    52  A52         0.2408
    798  N1        13.8880   14.7380    6.5390 N.ar   52  A52        -0.2040
    799  C2        14.3000   14.0110    7.5850 C.ar   52  A52         0.2016
    800  N3        14.2430   14.2930    8.8840 N.ar   52  A52        -0.2048
    801  C4        13.6760   15.4960    9.0840 C.ar   52  A52         0.1692
    802  C5        13.2020   16.3610    8.1110 C.ar   52  A52         0.1518
    803  C6        13.3280   15.9450    6.7700 C.ar   52  A52         0.1919
    804  N6        12.9330   16.6760    5.7190 N.pl3  52  A52        -0.1054
    805  N7        12.6800   17.5100    8.6910 N.ar   52  A52        -0.2193
    806  C8        12.8490   17.3190    9.9790 C.ar   52  A52         0.1816
    807  N9        13.4460   16.1210   10.2880 N.ar   52  A52        -0.2693
    808  OP1       12.7990   21.1630   14.2320 O.3    52  A52        -0.4373
    809  OP2       12.3490   21.2030   11.7010 O.co2  52  A52        -0.5172
    810  P         17.3880   18.2730   13.4920 P.3    53  C53         0.2141
    811  C5'       19.0030   16.3930   12.6210 C.3    53  C53         0.1812
    812  O5'       18.2310   17.5630   12.3420 O.3    53  C53        -0.3114
    813  C4'       19.3920   15.7010   11.3340 C.3    53  C53         0.1773
    814  O4'       18.1830   15.4010   10.5920 O.3    53  C53        -0.3307
    815  C3'       20.2450   16.5280   10.3810 C.3    53  C53         0.1860
    816  O3'       21.6320   16.3330   10.6560 O.3    53  C53        -0.3112
    817  C2'       19.8920   15.9340    9.0180 C.3    53  C53         0.2309
    818  O2'       20.6580   14.7950    8.6850 O.3    53  C53        -0.2156
    819  C1'       18.4260   15.5400    9.2040 C.3    53  C53         0.2420
    820  N1        17.5010   16.5480    8.6670 N.ar   53  C53        -0.2535
    821  C2        16.9300   16.3360    7.4070 C.ar   53  C53         0.3532
    822  O2        17.1820   15.2850    6.8060 O.2    53  C53        -0.2443
    823  N3        16.1150   17.2830    6.8830 N.ar   53  C53        -0.1739
    824  C4        15.8560   18.3980    7.5730 C.ar   53  C53         0.1759
    825  N4        15.0640   19.3150    7.0120 N.pl3  53  C53        -0.1070
    826  C5        16.4030   18.6250    8.8700 C.ar   53  C53         0.0566
    827  C6        17.2120   17.6820    9.3740 C.ar   53  C53         0.0850
    828  OP1       18.2340   18.3130   14.7110 O.3    53  C53        -0.4373
    829  OP2       16.8340   19.5350   12.9410 O.co2  53  C53        -0.5172
    830  P         22.4780   17.4730   11.4250 P.3    54  C54         0.2141
    831  C5'       22.7810   16.8080   13.9490 C.3    54  C54         0.1812
    832  O5'       23.2010   16.6710   12.6000 O.3    54  C54        -0.3114
    833  C4'       22.5240   15.4500   14.5860 C.3    54  C54         0.1773
    834  O4'       21.8580   14.5430   13.6800 O.3    54  C54        -0.3307
    835  C3'       23.7070   14.5920   14.9940 C.3    54  C54         0.1860
    836  O3'       24.3860   15.0810   16.1390 O.3    54  C54        -0.3112
    837  C2'       23.0070   13.2770   15.3190 C.3    54  C54         0.2309
    838  O2'       22.4000   13.2520   16.5920 O.3    54  C54        -0.2156
    839  C1'       21.9240   13.2360   14.2400 C.3    54  C54         0.2420
    840  N1        22.2760   12.2640   13.1960 N.ar   54  C54        -0.2535
    841  C2        22.2210   10.9110   13.5220 C.ar   54  C54         0.3532
    842  O2        21.8500   10.5890   14.6680 O.2    54  C54        -0.2443
    843  N3        22.5670    9.9910   12.5900 N.ar   54  C54        -0.1739
    844  C4        22.9430   10.3880   11.3690 C.ar   54  C54         0.1759
    845  N4        23.2700    9.4500   10.4730 N.pl3  54  C54        -0.1070
    846  C5        22.9970   11.7630   11.0100 C.ar   54  C54         0.0566
    847  C6        22.6580   12.6590   11.9460 C.ar   54  C54         0.0850
    848  OP1       21.5440   18.4630   12.0210 O.3    54  C54        -0.4373
    849  OP2       23.5280   17.9390   10.4850 O.co2  54  C54        -0.5172
    850  P         25.8620   14.5280   16.4850 P.3    55  G55         0.2141
    851  C5'       25.1260   12.9810   18.4590 C.3    55  G55         0.1812
    852  O5'       25.6020   13.0910   17.1220 O.3    55  G55        -0.3114
    853  C4'       25.1590   11.5450   18.9270 C.3    55  G55         0.1773
    854  O4'       24.2950   10.7350   18.0910 O.3    55  G55        -0.3307
    855  C3'       26.5000   10.8350   18.8700 C.3    55  G55         0.1860
    856  O3'       27.2650   11.1270   20.0300 O.3    55  G55        -0.3112
    857  C2'       26.0650    9.3760   18.8770 C.3    55  G55         0.2309
    858  O2'       25.6620    8.9280   20.1550 O.3    55  G55        -0.2156
    859  C1'       24.8360    9.4320   17.9720 C.3    55  G55         0.2408
    860  N1        25.4950    5.9440   14.3690 N.ar   55  G55        -0.1709
    861  C2        25.2630    5.7760   15.7070 C.ar   55  G55         0.2606
    862  N2        25.1800    4.5070   16.1370 N.pl3  55  G55        -0.0859
    863  N3        25.1240    6.7760   16.5620 N.ar   55  G55        -0.1918
    864  C4        25.2550    7.9740   15.9570 C.ar   55  G55         0.1723
    865  C5        25.5000    8.2480   14.6310 C.ar   55  G55         0.1748
    866  C6        25.6230    7.1710   13.7260 C.ar   55  G55         0.3023
    867  O6        25.8050    7.2110   12.5060 O.2    55  G55        -0.2633
    868  N7        25.5770    9.6180   14.4160 N.ar   55  G55        -0.2173
    869  C8        25.3630   10.1400   15.5930 C.ar   55  G55         0.1817
    870  N9        25.1460    9.1980   16.5670 N.ar   55  G55        -0.2693
    871  OP1       26.4130   15.3890   17.5660 O.3    55  G55        -0.4373
    872  OP2       26.6060   14.3740   15.2160 O.co2  55  G55        -0.5172
    873  P         28.8690   11.0900   19.9510 P.3    56  G56         0.2141
    874  C5'       29.1000    8.7890   21.1790 C.3    56  G56         0.1812
    875  O5'       29.2220    9.5400   19.9830 O.3    56  G56        -0.3114
    876  C4'       29.2110    7.3190   20.8690 C.3    56  G56         0.1773
    877  O4'       28.1620    6.9760   19.9230 O.3    56  G56        -0.3307
    878  C3'       30.4740    6.8830   20.1450 C.3    56  G56         0.1860
    879  O3'       31.5650    6.6830   21.0400 O.3    56  G56        -0.3112
    880  C2'       30.0120    5.5650   19.5540 C.3    56  G56         0.2309
    881  O2'       29.8700    4.5770   20.5480 O.3    56  G56        -0.2156
    882  C1'       28.6210    5.9540   19.0560 C.3    56  G56         0.2408
    883  N1        28.7250    4.8170   14.1180 N.ar   56  G56        -0.1709
    884  C2        28.6880    3.9740   15.2010 C.ar   56  G56         0.2606
    885  N2        28.6820    2.6490   14.9390 N.pl3  56  G56        -0.0859
    886  N3        28.6550    4.3930   16.4500 N.ar   56  G56        -0.1918
    887  C4        28.6580    5.7430   16.5350 C.ar   56  G56         0.1723
    888  C5        28.6880    6.6700   15.5180 C.ar   56  G56         0.1748
    889  C6        28.7220    6.2150   14.1860 C.ar   56  G56         0.3023
    890  O6        28.7420    6.8880   13.1470 O.2    56  G56        -0.2633
    891  N7        28.6830    7.9610   16.0250 N.ar   56  G56        -0.2173
    892  C8        28.6550    7.8010   17.3190 C.ar   56  G56         0.1817
    893  N9        28.6410    6.4800   17.6960 N.ar   56  G56        -0.2693
    894  OP1       29.4040   11.7320   21.1800 O.3    56  G56        -0.4373
    895  OP2       29.2550   11.5970   18.6100 O.co2  56  G56        -0.5172
    896  P         33.0590    6.5610   20.4620 P.3    57  G57         0.2141
    897  C5'       32.8810    3.9320   20.4250 C.3    57  G57         0.1812
    898  O5'       33.1280    5.1470   19.7300 O.3    57  G57        -0.3114
    899  C4'       32.9400    2.7570   19.4660 C.3    57  G57         0.1773
    900  O4'       31.8100    2.8040   18.5440 O.3    57  G57        -0.3307
    901  C3'       34.1520    2.6690   18.5570 C.3    57  G57         0.1860
    902  O3'       35.2440    2.0480   19.2220 O.3    57  G57        -0.3112
    903  C2'       33.6320    1.7580   17.4550 C.3    57  G57         0.2309
    904  O2'       33.6030    0.3990   17.8410 O.3    57  G57        -0.2156
    905  C1'       32.2030    2.2780   17.2820 C.3    57  G57         0.2408
    906  N1        32.1290    3.4300   12.3260 N.ar   57  G57        -0.1709
    907  C2        32.2270    2.2000   12.9370 C.ar   57  G57         0.2606
    908  N2        32.3510    1.1390   12.1260 N.pl3  57  G57        -0.0859
    909  N3        32.2130    2.0230   14.2490 N.ar   57  G57        -0.1918
    910  C4        32.1210    3.1910   14.9150 C.ar   57  G57         0.1723
    911  C5        32.0290    4.4680   14.4020 C.ar   57  G57         0.1748
    912  C6        32.0200    4.6450   12.9920 C.ar   57  G57         0.3023
    913  O6        31.9300    5.7050   12.3430 O.2    57  G57        -0.2633
    914  N7        31.9530    5.4050   15.4240 N.ar   57  G57        -0.2173
    915  C8        32.0020    4.6930   16.5220 C.ar   57  G57         0.1817
    916  N9        32.1090    3.3430   16.2850 N.ar   57  G57        -0.2693
    917  OP1       33.9920    6.5580   21.6090 O.3    57  G57        -0.4373
    918  OP2       33.2190    7.5660   19.3810 O.co2  57  G57        -0.5172
    919  P         36.7460    2.4620   18.8530 P.3    58  C58         0.2141
    920  C5'       37.3410    0.8790   16.8210 C.3    58  C58         0.1812
    921  O5'       36.8750    2.1450   17.2890 O.3    58  C58        -0.3114
    922  C4'       37.0680    0.7150   15.3300 C.3    58  C58         0.1773
    923  O4'       35.7420    1.2030   14.9560 O.3    58  C58        -0.3307
    924  C3'       37.9890    1.4590   14.3850 C.3    58  C58         0.1860
    925  O3'       39.2360    0.7940   14.2510 O.3    58  C58        -0.3112
    926  C2'       37.1850    1.4040   13.0960 C.3    58  C58         0.2309
    927  O2'       37.2210    0.1380   12.4800 O.3    58  C58        -0.2156
    928  C1'       35.7830    1.7130   13.6230 C.3    58  C58         0.2420
    929  N1        35.5410    3.1690   13.6730 N.ar   58  C58        -0.2535
    930  C2        35.3650    3.8610   12.4760 C.ar   58  C58         0.3532
    931  O2        35.4060    3.2180   11.3960 O.2    58  C58        -0.2443
    932  N3        35.1570    5.2090   12.5160 N.ar   58  C58        -0.1739
    933  C4        35.1100    5.8440   13.6930 C.ar   58  C58         0.1759
    934  N4        34.8870    7.1550   13.6940 N.pl3  58  C58        -0.1070
    935  C5        35.2860    5.1530   14.9290 C.ar   58  C58         0.0566
    936  C6        35.4980    3.8330   14.8720 C.ar   58  C58         0.0850
    937  OP1       37.6660    1.5650   19.5910 O.3    58  C58        -0.4373
    938  OP2       36.8580    3.9370   19.0380 O.co2  58  C58        -0.5172
    939  P         40.5870    1.6540   14.2430 P.3    59  A59         0.2141
    940  C5'       40.8810    1.2380   11.6600 C.3    59  A59         0.1812
    941  O5'       40.7010    2.1640   12.7290 O.3    59  A59        -0.3114
    942  C4'       40.4350    1.8460   10.3470 C.3    59  A59         0.1773
    943  O4'       39.1140    2.4210   10.4950 O.3    59  A59        -0.3307
    944  C3'       41.2870    2.9820    9.8010 C.3    59  A59         0.1860
    945  O3'       42.3250    2.4560    8.9890 O.3    59  A59        -0.3112
    946  C2'       40.3050    3.7040    8.8920 C.3    59  A59         0.2309
    947  O2'       40.1710    3.0400    7.6520 O.3    59  A59        -0.2156
    948  C1'       39.0100    3.5820    9.6890 C.3    59  A59         0.2408
    949  N1        37.7830    8.5660    9.8890 N.ar   59  A59        -0.2040
    950  C2        38.0540    7.7490    8.8650 C.ar   59  A59         0.2016
    951  N3        38.3730    6.4600    8.8840 N.ar   59  A59        -0.2048
    952  C4        38.4340    6.0010   10.1480 C.ar   59  A59         0.1692
    953  C5        38.1930    6.7200   11.3010 C.ar   59  A59         0.1518
    954  C6        37.8270    8.0650   11.1440 C.ar   59  A59         0.1919
    955  N6        37.5090    8.8570   12.1570 N.pl3  59  A59        -0.1054
    956  N7        38.3710    5.9230   12.4250 N.ar   59  A59        -0.2193
    957  C8        38.6950    4.7520   11.9310 C.ar   59  A59         0.1816
    958  N9        38.7360    4.7250   10.5590 N.ar   59  A59        -0.2693
    959  OP1       41.7190    0.7360   14.5330 O.2    59  A59        -0.5172
    960  OP2       40.3840    2.8590   15.0910 O.co2  59  A59        -0.4373
    961  P         43.7850    3.0970    9.0630 P.3    60  C60         0.2141
    962  C5'       42.9170    4.6040    7.0790 C.3    60  C60         0.1812
    963  O5'       43.6210    4.5020    8.3220 O.3    60  C60        -0.3114
    964  C4'       42.6730    6.0570    6.7310 C.3    60  C60         0.1773
    965  O4'       41.4350    6.5080    7.3520 O.3    60  C60        -0.3307
    966  C3'       43.7330    7.0220    7.2420 C.3    60  C60         0.1860
    967  O3'       44.7930    7.1570    6.3100 O.3    60  C60        -0.3112
    968  C2'       42.9590    8.3270    7.3640 C.3    60  C60         0.2309
    969  O2'       42.8060    8.9950    6.1290 O.3    60  C60        -0.2156
    970  C1'       41.6080    7.8240    7.8620 C.3    60  C60         0.2420
    971  N1        41.5330    7.7810    9.3310 N.ar   60  C60        -0.2535
    972  C2        41.1360    8.9360   10.0080 C.ar   60  C60         0.3532
    973  O2        40.9010    9.9640    9.3510 O.2    60  C60        -0.2443
    974  N3        41.0220    8.9080   11.3560 N.ar   60  C60        -0.1739
    975  C4        41.2980    7.7880   12.0270 C.ar   60  C60         0.1759
    976  N4        41.1490    7.8070   13.3580 N.pl3  60  C60        -0.1070
    977  C5        41.7340    6.6030   11.3660 C.ar   60  C60         0.0566
    978  C6        41.8350    6.6430   10.0270 C.ar   60  C60         0.0850
    979  OP1       44.7050    2.2300    8.2830 O.2    60  C60        -0.5172
    980  OP2       44.0720    3.3720   10.4870 O.co2  60  C60        -0.4373
    981  P         46.2080    7.7260    6.8040 P.3    61  C61         0.2141
    982  C5'       45.6380   10.1200    5.8680 C.3    61  C61         0.1812
    983  O5'       45.9620    9.2910    6.9810 O.3    61  C61        -0.3114
    984  C4'       45.1780   11.4830    6.3470 C.3    61  C61         0.1773
    985  O4'       44.0050   11.3380    7.1960 O.3    61  C61        -0.3307
    986  C3'       46.1770   12.2350    7.2110 C.3    61  C61         0.1860
    987  O3'       47.0870   12.9590    6.3920 O.3    61  C61        -0.3112
    988  C2'       45.2770   13.1740    8.0050 C.3    61  C61         0.2309
    989  O2'       44.9060   14.3200    7.2710 O.3    61  C61        -0.2156
    990  C1'       44.0490   12.2950    8.2430 C.3    61  C61         0.2420
    991  N1        44.0630   11.5800    9.5310 N.ar   61  C61        -0.2535
    992  C2        43.7220   12.2770   10.6990 C.ar   61  C61         0.3532
    993  O2        43.4360   13.4890   10.6180 O.2    61  C61        -0.2443
    994  N3        43.7130   11.6170   11.8820 N.ar   61  C61        -0.1739
    995  C4        44.0290   10.3150   11.9220 C.ar   61  C61         0.1759
    996  N4        44.0010    9.6940   13.1030 N.pl3  61  C61        -0.1070
    997  C5        44.3870    9.5910   10.7490 C.ar   61  C61         0.0566
    998  C6        44.3940   10.2560    9.5890 C.ar   61  C61         0.0850
    999  OP1       47.1920    7.5170    5.7150 O.2    61  C61        -0.5172
   1000  OP2       46.4770    7.1790    8.1540 O.co2  61  C61        -0.4373
   1001  P         48.6550   12.6170    6.4540 P.3    62  G62         0.2141
   1002  C5'       50.5900   13.5900    7.9300 C.3    62  G62         0.1812
   1003  O5'       49.1940   13.4830    7.6750 O.3    62  G62        -0.3114
   1004  C4'       50.8200   14.3010    9.2400 C.3    62  G62         0.1773
   1005  O4'       50.5710   13.3660   10.3260 O.3    62  G62        -0.3307
   1006  C3'       52.2510   14.7840    9.4550 C.3    62  G62         0.1860
   1007  O3'       52.2380   15.8390   10.4090 O.3    62  G62        -0.3112
   1008  C2'       52.9240   13.5610   10.0710 C.3    62  G62         0.2309
   1009  O2'       54.0240   13.9010   10.8910 O.3    62  G62        -0.2156
   1010  C1'       51.7950   13.0170   10.9400 C.3    62  G62         0.2408
   1011  N1        50.6730    9.4980   14.3740 N.ar   62  G62        -0.1709
   1012  C2        50.5000   10.8580   14.4200 C.ar   62  G62         0.2606
   1013  N2        49.9510   11.3530   15.5400 N.pl3  62  G62        -0.0859
   1014  N3        50.8350   11.6750   13.4400 N.ar   62  G62        -0.1918
   1015  C4        51.3560   11.0120   12.3850 C.ar   62  G62         0.1723
   1016  C5        51.5660    9.6600   12.2330 C.ar   62  G62         0.1748
   1017  C6        51.2120    8.7940   13.3020 C.ar   62  G62         0.3023
   1018  O6        51.3310    7.5670   13.3730 O.2    62  G62        -0.2633
   1019  N7        52.1180    9.3840   10.9880 N.ar   62  G62        -0.2173
   1020  C8        52.2360   10.5560   10.4210 C.ar   62  G62         0.1817
   1021  N9        51.7980   11.5850   11.2210 N.ar   62  G62        -0.2693
   1022  OP1       49.2910   13.1250    5.2130 O.2    62  G62        -0.5172
   1023  OP2       48.7840   11.1820    6.8090 O.co2  62  G62        -0.4373
   1024  P         53.0360   17.1990   10.1160 P.3    63  U63         0.2141
   1025  C5'       50.5450   17.9990    9.8410 C.3    63  U63         0.1812
   1026  O5'       51.9270   18.1980    9.5570 O.3    63  U63        -0.3114
   1027  C4'       49.9810   19.2140   10.5300 C.3    63  U63         0.1773
   1028  O4'       48.9370   18.7510   11.4300 O.3    63  U63        -0.3307
   1029  C3'       50.9850   19.9390   11.4150 C.3    63  U63         0.1860
   1030  O3'       50.9580   21.3740   11.4440 O.3    63  U63        -0.3112
   1031  C2'       50.8510   19.2410   12.7660 C.3    63  U63         0.2309
   1032  O2'       51.0760   20.1080   13.8590 O.3    63  U63        -0.2156
   1033  C1'       49.3810   18.8190   12.7770 C.3    63  U63         0.2420
   1034  N1        49.2250   17.4890   13.3860 N.ar   63  U63        -0.2534
   1035  C2        48.5920   17.4010   14.6120 C.ar   63  U63         0.3546
   1036  O2        48.1160   18.3660   15.1860 O.2    63  U63        -0.2443
   1037  N3        48.5340   16.1350   15.1430 N.ar   63  U63        -0.1530
   1038  C4        49.0200   14.9750   14.5790 C.ar   63  U63         0.2846
   1039  O4        48.8930   13.9070   15.1830 O.2    63  U63        -0.2650
   1040  C5        49.6370   15.1470   13.3020 C.ar   63  U63         0.0814
   1041  C6        49.7140   16.3650   12.7630 C.ar   63  U63         0.0870
   1042  OP1       53.9970   16.9280    9.0190 O.2    63  U63        -0.5172
   1043  OP2       53.5260   17.7340   11.4080 O.co2  63  U63        -0.4373
   1044  P         49.6240   22.1840   11.0550 P.3    64  A64         0.2141
   1045  C5'       48.7050   22.9540    8.7250 C.3    64  A64         0.1812
   1046  O5'       49.4830   22.0240    9.4750 O.3    64  A64        -0.3114
   1047  C4'       47.8100   22.2330    7.7440 C.3    64  A64         0.1773
   1048  O4'       47.9120   20.7980    7.9350 O.3    64  A64        -0.3307
   1049  C3'       46.3270   22.5530    7.8670 C.3    64  A64         0.1860
   1050  O3'       46.0240   23.7110    7.0910 O.3    64  A64        -0.3112
   1051  C2'       45.6680   21.2940    7.3050 C.3    64  A64         0.2309
   1052  O2'       45.5850   21.2950    5.8930 O.3    64  A64        -0.2156
   1053  C1'       46.6380   20.2010    7.7610 C.3    64  A64         0.2408
   1054  N1        46.7430   15.8050   10.4100 N.ar   64  A64        -0.2040
   1055  C2        47.1290   16.1190    9.1630 C.ar   64  A64         0.2016
   1056  N3        47.0540   17.2880    8.5280 N.ar   64  A64        -0.2048
   1057  C4        46.4990   18.2200    9.3180 C.ar   64  A64         0.1692
   1058  C5        46.0500   18.0490   10.6160 C.ar   64  A64         0.1518
   1059  C6        46.1910   16.7700   11.1770 C.ar   64  A64         0.1919
   1060  N6        45.8150   16.4610   12.4220 N.pl3  64  A64        -0.1054
   1061  N7        45.5330   19.2360   11.1170 N.ar   64  A64        -0.2193
   1062  C8        45.6840   20.0860   10.1300 C.ar   64  A64         0.1816
   1063  N9        46.2760   19.5410    9.0150 N.ar   64  A64        -0.2693
   1064  OP1       49.9010   23.6140   11.3290 O.2    64  A64        -0.5172
   1065  OP2       48.4660   21.5270   11.7090 O.co2  64  A64        -0.4373
   1066  P         44.6230   24.4760    7.2970 P.3    65  A65         0.2141
   1067  C5'       43.6600   23.3740    5.1280 C.3    65  A65         0.1812
   1068  O5'       43.5650   23.5600    6.5360 O.3    65  A65        -0.3114
   1069  C4'       42.6280   22.3840    4.6370 C.3    65  A65         0.1773
   1070  O4'       42.8550   21.0860    5.2740 O.3    65  A65        -0.3307
   1071  C3'       41.1900   22.7600    5.0040 C.3    65  A65         0.1860
   1072  O3'       40.3160   22.0870    4.1060 O.3    65  A65        -0.3112
   1073  C2'       41.0330   22.1160    6.3790 C.3    65  A65         0.2309
   1074  O2'       39.6920   21.8210    6.7100 O.3    65  A65        -0.2156
   1075  C1'       41.7890   20.8130    6.1520 C.3    65  A65         0.2408
   1076  N1        43.2220   16.1900    7.8190 N.ar   65  A65        -0.2040
   1077  C2        43.0380   16.6890    6.5900 C.ar   65  A65         0.2016
   1078  N3        42.7280   17.9330    6.2240 N.ar   65  A65        -0.2048
   1079  C4        42.6090   18.7290    7.3010 C.ar   65  A65         0.1692
   1080  C5        42.7840   18.3690    8.6240 C.ar   65  A65         0.1518
   1081  C6        43.0980   17.0210    8.8810 C.ar   65  A65         0.1919
   1082  N6        43.2730   16.5230   10.1090 N.pl3  65  A65        -0.1054
   1083  N7        42.5950   19.4630    9.4600 N.ar   65  A65        -0.2193
   1084  C8        42.2970   20.4410    8.6370 C.ar   65  A65         0.1816
   1085  N9        42.2400   20.0540    7.3200 N.ar   65  A65        -0.2693
   1086  OP1       44.7050   25.7680    6.5710 O.2    65  A65        -0.5172
   1087  OP2       44.2850   24.4660    8.7450 O.co2  65  A65        -0.4373
   1088  P         39.0600   22.8550    3.4600 P.3    66  A66         0.2141
   1089  C5'       37.5610   20.9060    4.4110 C.3    66  A66         0.1812
   1090  O5'       37.9770   21.7020    3.2930 O.3    66  A66        -0.3114
   1091  C4'       37.8560   19.4430    4.1470 C.3    66  A66         0.1773
   1092  O4'       39.2010   19.1280    4.6110 O.3    66  A66        -0.3307
   1093  C3'       37.0120   18.4310    4.8990 C.3    66  A66         0.1860
   1094  O3'       35.7410   18.2350    4.2990 O.3    66  A66        -0.3112
   1095  C2'       37.8680   17.1950    4.7320 C.3    66  A66         0.2309
   1096  O2'       37.8330   16.7090    3.4080 O.3    66  A66        -0.2156
   1097  C1'       39.2420   17.7750    5.0600 C.3    66  A66         0.2408
   1098  N1        39.8130   14.7920    9.1830 N.ar   66  A66        -0.2040
   1099  C2        39.8060   14.5250    7.8720 C.ar   66  A66         0.2016
   1100  N3        39.6940   15.3660    6.8400 N.ar   66  A66        -0.2048
   1101  C4        39.5880   16.6350    7.2730 C.ar   66  A66         0.1692
   1102  C5        39.5930   17.0660    8.5870 C.ar   66  A66         0.1518
   1103  C6        39.6980   16.0780    9.5810 C.ar   66  A66         0.1919
   1104  N6        39.6780   16.3460   10.8880 N.pl3  66  A66        -0.1054
   1105  N7        39.4700   18.4490    8.6530 N.ar   66  A66        -0.2193
   1106  C8        39.3780   18.8150    7.3960 C.ar   66  A66         0.1816
   1107  N9        39.4140   17.7640    6.5100 N.ar   66  A66        -0.2693
   1108  OP1       39.4700   23.3160    2.1030 O.2    66  A66        -0.5172
   1109  OP2       38.5200   23.8460    4.4360 O.co2  66  A66        -0.4373
   1110  P         34.4200   18.3040    5.2000 P.3    67  U67         0.2141
   1111  C5'       34.0490   15.8670    6.1610 C.3    67  U67         0.1812
   1112  O5'       34.6490   17.1620    6.2910 O.3    67  U67        -0.3114
   1113  C4'       35.0040   14.8900    5.5070 C.3    67  U67         0.1773
   1114  O4'       36.2470   14.7740    6.2720 O.3    67  U67        -0.3307
   1115  C3'       34.4790   13.4620    5.4320 C.3    67  U67         0.1860
   1116  O3'       33.6730   13.2880    4.2710 O.3    67  U67        -0.3112
   1117  C2'       35.7660   12.6680    5.3140 C.3    67  U67         0.2309
   1118  O2'       36.2900   12.7400    4.0040 O.3    67  U67        -0.2156
   1119  C1'       36.6670   13.4100    6.3040 C.3    67  U67         0.2420
   1120  N1        36.5640   12.9130    7.6910 N.ar   67  U67        -0.2534
   1121  C2        37.0100   11.6200    7.9690 C.ar   67  U67         0.3546
   1122  O2        37.5030   10.8890    7.1310 O.2    67  U67        -0.2443
   1123  N3        36.8600   11.2160    9.2770 N.ar   67  U67        -0.1530
   1124  C4        36.3310   11.9470   10.3160 C.ar   67  U67         0.2846
   1125  O4        36.2550   11.4370   11.4400 O.2    67  U67        -0.2650
   1126  C5        35.9070   13.2750    9.9560 C.ar   67  U67         0.0814
   1127  C6        36.0370   13.6980    8.6890 C.ar   67  U67         0.0870
   1128  OP1       33.2500   17.9240    4.3430 O.2    67  U67        -0.5172
   1129  OP2       34.4280   19.6230    5.8740 O.co2  67  U67        -0.4373
   1130  P         32.2510   12.5660    4.3910 P.3    68  G68         0.2141
   1131  C5'       33.1410   10.4340    3.1340 C.3    68  G68         0.1812
   1132  O5'       32.6200   11.0120    4.3340 O.3    68  G68        -0.3114
   1133  C4'       33.9120    9.1630    3.4290 C.3    68  G68         0.1773
   1134  O4'       34.8930    9.4020    4.4720 O.3    68  G68        -0.3307
   1135  C3'       33.1030    7.9840    3.9420 C.3    68  G68         0.1860
   1136  O3'       32.5290    7.2580    2.8650 O.3    68  G68        -0.3112
   1137  C2'       34.1700    7.1460    4.6350 C.3    68  G68         0.2309
   1138  O2'       34.9470    6.3660    3.7490 O.3    68  G68        -0.2156
   1139  C1'       35.0400    8.2310    5.2600 C.3    68  G68         0.2408
   1140  N1        34.8920    6.5420   10.0520 N.ar   68  G68        -0.1709
   1141  C2        35.2860    5.8880    8.9070 C.ar   68  G68         0.2606
   1142  N2        35.7210    4.6240    9.0490 N.pl3  68  G68        -0.0859
   1143  N3        35.2590    6.4350    7.7000 N.ar   68  G68        -0.1918
   1144  C4        34.7940    7.7050    7.7270 C.ar   68  G68         0.1723
   1145  C5        34.3710    8.4450    8.8100 C.ar   68  G68         0.1748
   1146  C6        34.4240    7.8580   10.1040 C.ar   68  G68         0.3023
   1147  O6        34.1330    8.3730   11.1980 O.2    68  G68        -0.2633
   1148  N7        33.9510    9.7070    8.4120 N.ar   68  G68        -0.2173
   1149  C8        34.1420    9.7210    7.1180 C.ar   68  G68         0.1817
   1150  N9        34.6660    8.5410    6.6390 N.ar   68  G68        -0.2693
   1151  OP1       31.4600   12.9140    3.1860 O.2    68  G68        -0.5172
   1152  OP2       31.6880   12.8520    5.7340 O.co2  68  G68        -0.4373
   1153  P         31.0000    6.7910    2.9600 P.3    69  U69         0.2141
   1154  C5'       32.0430    4.4560    3.5570 C.3    69  U69         0.1812
   1155  O5'       31.1010    5.4900    3.8830 O.3    69  U69        -0.3114
   1156  C4'       32.2480    3.5090    4.7260 C.3    69  U69         0.1773
   1157  O4'       33.0850    4.1170    5.7440 O.3    69  U69        -0.3307
   1158  C3'       31.0040    3.0700    5.4760 C.3    69  U69         0.1860
   1159  O3'       30.4010    1.9820    4.8040 O.3    69  U69        -0.3112
   1160  C2'       31.5870    2.6300    6.8140 C.3    69  U69         0.2309
   1161  O2'       32.2040    1.3540    6.7700 O.3    69  U69        -0.2156
   1162  C1'       32.6480    3.7040    7.0300 C.3    69  U69         0.2420
   1163  N1        32.1480    4.8830    7.7530 N.ar   69  U69        -0.2534
   1164  C2        32.0120    4.7730    9.1180 C.ar   69  U69         0.3546
   1165  O2        32.2320    3.7300    9.7140 O.2    69  U69        -0.2443
   1166  N3        31.6000    5.9180    9.7560 N.ar   69  U69        -0.1530
   1167  C4        31.3020    7.1340    9.1770 C.ar   69  U69         0.2846
   1168  O4        31.0180    8.1030    9.9000 O.2    69  U69        -0.2650
   1169  C5        31.4360    7.1600    7.7530 C.ar   69  U69         0.0814
   1170  C6        31.8440    6.0630    7.1040 C.ar   69  U69         0.0870
   1171  OP1       30.5650    6.3890    1.5940 O.2    69  U69        -0.5172
   1172  OP2       30.2480    7.8410    3.6820 O.co2  69  U69        -0.4373
   1173  P         28.8070    1.8480    4.7990 P.3    70  C70         0.2141
   1174  C5'       29.1310   -0.2610    6.3340 C.3    70  C70         0.1812
   1175  O5'       28.5140    1.0140    6.1300 O.3    70  C70        -0.3114
   1176  C4'       29.0780   -0.6550    7.7930 C.3    70  C70         0.1773
   1177  O4'       29.9390    0.2150    8.5700 O.3    70  C70        -0.3307
   1178  C3'       27.7250   -0.5500    8.4800 C.3    70  C70         0.1860
   1179  O3'       26.9680   -1.7260    8.2440 O.3    70  C70        -0.3112
   1180  C2'       28.1390   -0.4800    9.9410 C.3    70  C70         0.2309
   1181  O2'       28.5260   -1.7410   10.4540 O.3    70  C70        -0.2156
   1182  C1'       29.3700    0.4180    9.8530 C.3    70  C70         0.2420
   1183  N1        29.0730    1.8460   10.0060 N.ar   70  C70        -0.2535
   1184  C2        29.0440    2.3840   11.2890 C.ar   70  C70         0.3532
   1185  O2        29.2030    1.6300   12.2590 O.2    70  C70        -0.2443
   1186  N3        28.8360    3.7020   11.4510 N.ar   70  C70        -0.1739
   1187  C4        28.6360    4.4810   10.3910 C.ar   70  C70         0.1759
   1188  N4        28.4520    5.7840   10.6090 N.pl3  70  C70        -0.1070
   1189  C5        28.6200    3.9590    9.0620 C.ar   70  C70         0.0566
   1190  C6        28.8450    2.6430    8.9170 C.ar   70  C70         0.0850
   1191  OP1       28.4530    1.0320    3.6160 O.2    70  C70        -0.5172
   1192  OP2       28.2390    3.2080    4.9600 O.co2  70  C70        -0.4373
   1193  P         25.3810   -1.6250    8.0310 P.3    71  C71         0.2141
   1194  C5'       24.5970   -2.4560   10.4020 C.3    71  C71         0.1812
   1195  O5'       24.8160   -1.3730    9.5040 O.3    71  C71        -0.3114
   1196  C4'       24.6090   -1.9640   11.8360 C.3    71  C71         0.1773
   1197  O4'       25.7060   -1.0350   12.0130 O.3    71  C71        -0.3307
   1198  C3'       23.4090   -1.1570   12.3100 C.3    71  C71         0.1860
   1199  O3'       22.3240   -1.9860   12.6820 O.3    71  C71        -0.3112
   1200  C2'       23.9950   -0.4870   13.5420 C.3    71  C71         0.2309
   1201  O2'       24.1700   -1.3960   14.6100 O.3    71  C71        -0.2156
   1202  C1'       25.3620   -0.0780   13.0080 C.3    71  C71         0.2420
   1203  N1        25.3470    1.2580   12.3930 N.ar   71  C71        -0.2535
   1204  C2        25.3910    2.3930   13.2270 C.ar   71  C71         0.3532
   1205  O2        25.4030    2.2410   14.4600 O.2    71  C71        -0.2443
   1206  N3        25.4120    3.6190   12.6660 N.ar   71  C71        -0.1739
   1207  C4        25.3760    3.7460   11.3390 C.ar   71  C71         0.1759
   1208  N4        25.3980    4.9710   10.8380 N.pl3  71  C71        -0.1070
   1209  C5        25.3140    2.6190   10.4730 C.ar   71  C71         0.0566
   1210  C6        25.2990    1.4040   11.0370 C.ar   71  C71         0.0850
   1211  OP1       24.9120   -2.9500    7.5720 O.3    71  C71        -0.4373
   1212  OP2       25.1070   -0.4270    7.2060 O.co2  71  C71        -0.5172
   1213  P         20.8220   -1.4700   12.4630 P.3    72  G72         0.2141
   1214  C5'       21.0310   -0.6010   14.9390 C.3    72  G72         0.1812
   1215  O5'       20.6170   -0.3690   13.5960 O.3    72  G72        -0.3114
   1216  C4'       20.8780    0.6670   15.7470 C.3    72  G72         0.1773
   1217  O4'       22.0160    1.5290   15.5040 O.3    72  G72        -0.3307
   1218  C3'       19.6960    1.5260   15.3480 C.3    72  G72         0.1860
   1219  O3'       18.5190    1.0760   15.9840 O.3    72  G72        -0.3112
   1220  C2'       20.1020    2.9010   15.8560 C.3    72  G72         0.2309
   1221  O2'       19.8280    3.1090   17.2230 O.3    72  G72        -0.2156
   1222  C1'       21.6100    2.8870   15.5960 C.3    72  G72         0.2408
   1223  N1        22.3880    7.3320   13.3740 N.ar   72  G72        -0.1709
   1224  C2        22.2310    7.0250   14.7050 C.ar   72  G72         0.2606
   1225  N2        22.2420    8.0440   15.5750 N.pl3  72  G72        -0.0859
   1226  N3        22.0730    5.8060   15.1590 N.ar   72  G72        -0.1918
   1227  C4        22.0850    4.8950   14.1710 C.ar   72  G72         0.1723
   1228  C5        22.2440    5.0860   12.8170 C.ar   72  G72         0.1748
   1229  C6        22.4080    6.4040   12.3340 C.ar   72  G72         0.3023
   1230  O6        22.5540    6.7850   11.1660 O.2    72  G72        -0.2633
   1231  N7        22.1970    3.8730   12.1390 N.ar   72  G72        -0.2173
   1232  C8        22.0010    2.9870   13.0790 C.ar   72  G72         0.1817
   1233  N9        21.9010    3.5490   14.3330 N.ar   72  G72        -0.2693
   1234  OP1       19.9100   -2.6030   12.7180 O.3    72  G72        -0.4373
   1235  OP2       20.7660   -0.7590   11.1720 O.co2  72  G72        -0.5172
   1236  P         17.0950    1.5330   15.4080 P.3    73  A73         0.2141
   1237  C5'       15.6550    3.6860   15.8390 C.3    73  A73         0.1812
   1238  O5'       16.8780    2.9820   16.0370 O.3    73  A73        -0.3114
   1239  C4'       15.7700    5.0990   16.3570 C.3    73  A73         0.1773
   1240  O4'       16.7540    5.8210   15.5690 O.3    73  A73        -0.3307
   1241  C3'       14.5030    5.9230   16.2210 C.3    73  A73         0.1860
   1242  O3'       13.6680    5.7190   17.3520 O.3    73  A73        -0.3112
   1243  C2'       15.0560    7.3400   16.1800 C.3    73  A73         0.2309
   1244  O2'       15.4560    7.8040   17.4540 O.3    73  A73        -0.2156
   1245  C1'       16.3000    7.1400   15.3200 C.3    73  A73         0.2408
   1246  N1        15.6300   10.3910   11.3720 N.ar   73  A73        -0.2040
   1247  C2        15.7090   10.5900   12.6920 C.ar   73  A73         0.2016
   1248  N3        15.8510    9.6990   13.6730 N.ar   73  A73        -0.2048
   1249  C4        15.9140    8.4530   13.1780 C.ar   73  A73         0.1692
   1250  C5        15.8350    8.0880   11.8460 C.ar   73  A73         0.1518
   1251  C6        15.6910    9.1220   10.9070 C.ar   73  A73         0.1919
   1252  N6        15.6180    8.9180    9.5900 N.pl3  73  A73        -0.1054
   1253  N7        15.9240    6.7100   11.7100 N.ar   73  A73        -0.2193
   1254  C8        16.0640    6.2800   12.9410 C.ar   73  A73         0.1816
   1255  N9        16.0890    7.2830   13.8780 N.ar   73  A73        -0.2693
   1256  OP1       16.0670    0.6150   15.9510 O.3    73  A73        -0.4373
   1257  OP2       17.2310    1.6920   13.9490 O.co2  73  A73        -0.5172
   1258  P         12.0770    5.9100   17.2110 P.3    74  C74         0.2141
   1259  C5'       12.1730    8.4700   17.7690 C.3    74  C74         0.1812
   1260  O5'       11.9140    7.4440   16.8210 O.3    74  C74        -0.3114
   1261  C4'       12.0190    9.8190   17.1180 C.3    74  C74         0.1773
   1262  O4'       13.0340    9.9560   16.0870 O.3    74  C74        -0.3307
   1263  C3'       10.7120   10.0210   16.3690 C.3    74  C74         0.1860
   1264  O3'        9.6840   10.4610   17.2410 O.3    74  C74        -0.3112
   1265  C2'       11.0990   11.1000   15.3710 C.3    74  C74         0.2309
   1266  O2'       11.2060   12.3810   15.9620 O.3    74  C74        -0.2156
   1267  C1'       12.4840   10.6130   14.9580 C.3    74  C74         0.2420
   1268  N1        12.4560    9.6650   13.8350 N.ar   74  C74        -0.2535
   1269  C2        12.4260   10.1710   12.5420 C.ar   74  C74         0.3532
   1270  O2        12.4050   11.3950   12.3880 O.2    74  C74        -0.2443
   1271  N3        12.4220    9.3190   11.4910 N.ar   74  C74        -0.1739
   1272  C4        12.4460    8.0040   11.7040 C.ar   74  C74         0.1759
   1273  N4        12.4640    7.1990   10.6390 N.pl3  74  C74        -0.1070
   1274  C5        12.4610    7.4550   13.0180 C.ar   74  C74         0.0566
   1275  C6        12.4650    8.3150   14.0460 C.ar   74  C74         0.0850
   1276  OP1       11.4980    5.7020   18.5610 O.3    74  C74        -0.4373
   1277  OP2       11.5980    5.0940   16.0670 O.co2  74  C74        -0.5172
   1278  P          8.1600   10.0660   16.9300 P.3    75  U75         0.2141
   1279  C5'        8.0940   12.3830   15.7290 C.3    75  U75         0.1812
   1280  O5'        7.7730   11.0020   15.7060 O.3    75  U75        -0.3114
   1281  C4'        7.8950   12.9820   14.3650 C.3    75  U75         0.1773
   1282  O4'        8.9910   12.5690   13.5060 O.3    75  U75        -0.3307
   1283  C3'        6.6610   12.4960   13.6270 C.3    75  U75         0.1860
   1284  O3'        5.4880   13.1850   14.0250 O.3    75  U75        -0.3112
   1285  C2'        7.0340   12.7610   12.1790 C.3    75  U75         0.2309
   1286  O2'        6.9050   14.1260   11.8340 O.3    75  U75        -0.2156
   1287  C1'        8.5120   12.3730   12.1850 C.3    75  U75         0.2420
   1288  N1         8.7060   10.9630   11.8190 N.ar   75  U75        -0.2534
   1289  C2         8.8070   10.6760   10.4830 C.ar   75  U75         0.3546
   1290  O2         8.7420   11.5390    9.6200 O.2    75  U75        -0.2443
   1291  N3         8.9850    9.3500   10.1840 N.ar   75  U75        -0.1530
   1292  C4         9.0650    8.3040   11.0720 C.ar   75  U75         0.2846
   1293  O4         9.2340    7.1630   10.6450 O.2    75  U75        -0.2650
   1294  C5         8.9490    8.6800   12.4490 C.ar   75  U75         0.0814
   1295  C6         8.7790    9.9670   12.7680 C.ar   75  U75         0.0870
   1296  OP1        7.3460   10.4580   18.1140 O.3    75  U75        -0.4373
   1297  OP2        8.1400    8.6620   16.4530 O.co2  75  U75        -0.5172
   1298  P          4.0800   12.4140   14.0050 P.3    76  A76         0.2141
   1299  C5'        3.6570   13.6580   11.7460 C.3    76  A76         0.1812
   1300  O5'        3.6580   12.4370   12.4720 O.3    76  A76        -0.3114
   1301  C4'        3.3300   13.4080   10.2950 C.3    76  A76         0.1773
   1302  O4'        4.5310   12.9700    9.6030 O.3    76  A76        -0.3307
   1303  C3'        2.3240   12.3010   10.0280 C.3    76  A76         0.1860
   1304  O3'        0.9900   12.7770   10.1560 O.3    76  A76        -0.3112
   1305  C2'        2.6630   11.9190    8.5920 C.3    76  A76         0.2309
   1306  O2'        2.1440   12.8500    7.6660 O.3    76  A76        -0.2156
   1307  C1'        4.1890   12.0200    8.6060 C.3    76  A76         0.2408
   1308  N1         5.8370    7.4870    6.8260 N.ar   76  A76        -0.2040
   1309  C2         5.3370    8.5680    6.2130 C.ar   76  A76         0.2016
   1310  N3         4.9510    9.7290    6.7350 N.ar   76  A76        -0.2048
   1311  C4         5.1220    9.7310    8.0670 C.ar   76  A76         0.1692
   1312  C5         5.6280    8.7010    8.8390 C.ar   76  A76         0.1518
   1313  C6         5.9990    7.5210    8.1660 C.ar   76  A76         0.1919
   1314  N6         6.4960    6.4410    8.7740 N.pl3  76  A76        -0.1054
   1315  N7         5.6630    9.0640   10.1790 N.ar   76  A76        -0.2193
   1316  C8         5.1820   10.2840   10.1870 C.ar   76  A76         0.1816
   1317  N9         4.8160   10.7430    8.9460 N.ar   76  A76        -0.2693
   1318  OP1        3.1090   13.2230   14.7820 O.3    76  A76        -0.4373
   1319  OP2        4.3350   11.0000   14.3870 O.co2  76  A76        -0.5172
   1320  P         -0.1690   11.7790   10.6560 P.3    77  U77         0.2141
   1321  C5'       -1.1070   11.1960    8.2810 C.3    77  U77         0.1812
   1322  O5'       -0.3810   10.7800    9.4320 O.3    77  U77        -0.3114
   1323  C4'       -1.0660   10.1350    7.2050 C.3    77  U77         0.1773
   1324  O4'        0.3220    9.8110    6.9080 O.3    77  U77        -0.3307
   1325  C3'       -1.6640    8.7900    7.5970 C.3    77  U77         0.1860
   1326  O3'       -3.0780    8.7390    7.4550 O.3    77  U77        -0.3112
   1327  C2'       -0.9770    7.8350    6.6310 C.3    77  U77         0.2309
   1328  O2'       -1.5710    7.8210    5.3480 O.3    77  U77        -0.2156
   1329  C1'        0.4270    8.4360    6.5610 C.3    77  U77         0.2420
   1330  N1         1.3530    7.7660    7.4840 N.ar   77  U77        -0.2534
   1331  C2         1.9430    6.5990    7.0420 C.ar   77  U77         0.3546
   1332  O2         1.7440    6.1390    5.9360 O.2    77  U77        -0.2443
   1333  N3         2.7730    5.9880    7.9450 N.ar   77  U77        -0.1530
   1334  C4         3.0690    6.4160    9.2190 C.ar   77  U77         0.2846
   1335  O4         3.8370    5.7490    9.9170 O.2    77  U77        -0.2650
   1336  C5         2.4270    7.6390    9.6030 C.ar   77  U77         0.0814
   1337  C6         1.6120    8.2600    8.7390 C.ar   77  U77         0.0870
   1338  OP1       -1.3990   12.5890   10.8050 O.2    77  U77        -0.5172
   1339  OP2        0.3430   11.0070   11.8160 O.co2  77  U77        -0.4373
   1340  P         -3.9110    7.6080    8.2430 P.3    78  G78         0.2141
   1341  C5'       -4.3070    5.8360    6.3620 C.3    78  G78         0.1812
   1342  O5'       -3.5510    6.2530    7.4890 O.3    78  G78        -0.3114
   1343  C4'       -3.6760    4.6240    5.7200 C.3    78  G78         0.1773
   1344  O4'       -2.2310    4.7820    5.7020 O.3    78  G78        -0.3307
   1345  C3'       -3.8860    3.3210    6.4740 C.3    78  G78         0.1860
   1346  O3'       -5.1320    2.7320    6.1220 O.3    78  G78        -0.3112
   1347  C2'       -2.7200    2.4740    5.9840 C.3    78  G78         0.2309
   1348  O2'       -2.9680    1.9050    4.7160 O.3    78  G78        -0.2156
   1349  C1'       -1.6110    3.5180    5.8700 C.3    78  G78         0.2408
   1350  N1         2.1300    1.2140    8.4120 N.ar   78  G78        -0.1709
   1351  C2         1.5080    0.8370    7.2480 C.ar   78  G78         0.2606
   1352  N2         1.9410   -0.3070    6.6870 N.pl3  78  G78        -0.0859
   1353  N3         0.5330    1.5290    6.6740 N.ar   78  G78        -0.1918
   1354  C4         0.2270    2.6470    7.3710 C.ar   78  G78         0.1723
   1355  C5         0.7880    3.1110    8.5420 C.ar   78  G78         0.1748
   1356  C6         1.8320    2.3580    9.1470 C.ar   78  G78         0.3023
   1357  O6         2.4560    2.6020   10.1910 O.2    78  G78        -0.2633
   1358  N7         0.1900    4.3020    8.9350 N.ar   78  G78        -0.2173
   1359  C8        -0.7080    4.5330    8.0150 C.ar   78  G78         0.1817
   1360  N9        -0.7380    3.5690    7.0370 N.ar   78  G78        -0.2693
   1361  OP1       -5.3620    7.8660    8.0530 O.2    78  G78        -0.5172
   1362  OP2       -3.3520    7.5320    9.6150 O.co2  78  G78        -0.4373
   1363  P         -5.8560    1.7290    7.1490 P.3    79  U79         0.2141
   1364  C5'       -4.7700   -0.2270    5.7900 C.3    79  U79         0.1812
   1365  O5'       -4.9950    0.3930    7.0500 O.3    79  U79        -0.3114
   1366  C4'       -3.9870   -1.5030    5.9660 C.3    79  U79         0.1773
   1367  O4'       -2.5830   -1.1800    6.1500 O.3    79  U79        -0.3307
   1368  C3'       -4.3510   -2.3180    7.1950 C.3    79  U79         0.1860
   1369  O3'       -5.4540   -3.1700    6.9150 O.3    79  U79        -0.3112
   1370  C2'       -3.0770   -3.1200    7.4320 C.3    79  U79         0.2309
   1371  O2'       -2.9790   -4.2580    6.5990 O.3    79  U79        -0.2156
   1372  C1'       -2.0000   -2.0980    7.0610 C.3    79  U79         0.2420
   1373  N1        -1.4960   -1.3480    8.2190 N.ar   79  U79        -0.2534
   1374  C2        -0.4210   -1.8790    8.9060 C.ar   79  U79         0.3546
   1375  O2         0.1140   -2.9290    8.5890 O.2    79  U79        -0.2443
   1376  N3         0.0050   -1.1350    9.9780 N.ar   79  U79        -0.1530
   1377  C4        -0.5230    0.0580   10.4220 C.ar   79  U79         0.2846
   1378  O4        -0.0220    0.6120   11.4010 O.2    79  U79        -0.2650
   1379  C5        -1.6330    0.5410    9.6590 C.ar   79  U79         0.0814
   1380  C6        -2.0700   -0.1610    8.6090 C.ar   79  U79         0.0870
   1381  OP1       -7.2160    1.4440    6.6170 O.2    79  U79        -0.5172
   1382  OP2       -5.7010    2.2920    8.5160 O.co2  79  U79        -0.4373
   1383  P         -6.1610   -3.9750    8.1110 P.3    80  C80         0.2141
   1384  C5'       -5.1830   -5.6450    9.8900 C.3    80  C80         0.1812
   1385  O5'       -5.0010   -4.9030    8.6890 O.3    80  C80        -0.3114
   1386  C4'       -3.9000   -6.3520   10.2630 C.3    80  C80         0.1773
   1387  O4'       -2.7740   -5.4760    9.9960 O.3    80  C80        -0.3307
   1388  C3'       -3.7530   -6.7340   11.7270 C.3    80  C80         0.1860
   1389  O3'       -4.3530   -7.9980   11.9750 O.3    80  C80        -0.3112
   1390  C2'       -2.2410   -6.8070   11.8880 C.3    80  C80         0.2309
   1391  O2'       -1.6900   -8.0260   11.4310 O.3    80  C80        -0.2156
   1392  C1'       -1.7860   -5.6480   11.0000 C.3    80  C80         0.2420
   1393  N1        -1.6750   -4.3840   11.7410 N.ar   80  C80        -0.2535
   1394  C2        -0.7210   -4.2760   12.7570 C.ar   80  C80         0.3532
   1395  O2         0.0090   -5.2500   13.0020 O.2    80  C80        -0.2443
   1396  N3        -0.6190   -3.1140   13.4450 N.ar   80  C80        -0.1739
   1397  C4        -1.4240   -2.0910   13.1510 C.ar   80  C80         0.1759
   1398  N4        -1.2900   -0.9660   13.8570 N.pl3  80  C80        -0.1070
   1399  C5        -2.4020   -2.1750   12.1200 C.ar   80  C80         0.0566
   1400  C6        -2.4920   -3.3280   11.4460 C.ar   80  C80         0.0850
   1401  OP1       -7.2090   -4.8430    7.5100 O.2    80  C80        -0.5172
   1402  OP2       -6.5330   -2.9890    9.1590 O.co2  80  C80        -0.4373
   1403  P         -5.1510   -8.2420   13.3470 P.3    81  C81         0.2141
   1404  C5'       -3.3710   -9.7040   14.6130 C.3    81  C81         0.1813
   1405  O5'       -4.0050   -8.4380   14.4370 O.3    81  C81        -0.3114
   1406  C4'       -2.2310   -9.5890   15.6010 C.3    81  C81         0.1801
   1407  O4'       -1.4050   -8.4490   15.2430 O.3    81  C81        -0.3306
   1408  C3'       -2.6350   -9.3160   17.0410 C.3    81  C81         0.2161
   1409  O3'       -3.1190  -10.4620   17.7560 O.3    81  C81        -0.2175
   1410  C2'       -1.3800   -8.6670   17.6100 C.3    81  C81         0.2338
   1411  O2'       -0.3770   -9.6060   17.9420 O.3    81  C81        -0.2155
   1412  C1'       -0.9160   -7.8230   16.4200 C.3    81  C81         0.2421
   1413  N1        -1.4160   -6.4380   16.4500 N.ar   81  C81        -0.2535
   1414  C2        -0.8550   -5.5370   17.3650 C.ar   81  C81         0.3532
   1415  O2         0.0460   -5.9340   18.1240 O.2    81  C81        -0.2443
   1416  N3        -1.3070   -4.2620   17.3990 N.ar   81  C81        -0.1739
   1417  C4        -2.2760   -3.8750   16.5670 C.ar   81  C81         0.1759
   1418  N4        -2.6890   -2.6070   16.6360 N.pl3  81  C81        -0.1070
   1419  C5        -2.8660   -4.7710   15.6270 C.ar   81  C81         0.0566
   1420  C6        -2.4100   -6.0300   15.6030 C.ar   81  C81         0.0850
   1421  OP1       -5.8980   -9.5190   13.2110 O.2    81  C81        -0.5172
   1422  OP2       -5.8860   -6.9910   13.6700 O.co2  81  C81        -0.4373
@<TRIPOS>BOND
     1   720   719    2
     2   686   665    2
     3   721   719   ar
     4   721   722   ar
     5   723   722    2
     6   719   718   ar
     7   706   688    2
     8   722   724   ar
     9   651   650    1
    10   295   277    2
    11   649   665    1
    12   649   648    1
    13   666   667    1
    14   666   668    1
    15   262   261    1
    16   665   667    1
    17   665   687    1
    18   260   277    1
    19   260   259    1
    20   718   717    1
    21   718   725   ar
    22   255   257    1
    23   255   256    1
    24   257   259    1
    25   257   258    1
    26   724   725   ar
    27   688   707    1
    28   688   671    1
    29   688   690    1
    30   242   241    1
    31   671   670    1
    32   712   717    1
    33   712   711    1
    34   717   715    1
    35   668   670    1
    36   668   669    1
    37   277   279    1
    38   277   296    1
    39   727   708    2
    40   259   261    1
    41   258   263    1
    42   275   254    2
    43   646   648    1
    44   646   647    1
    45   646   644    1
    46   650   648    1
    47   650   652    1
    48   261   263    1
    49   148   128    2
    50   279   278    1
    51   240   254    1
    52   240   239    1
    53   710   708    1
    54   710   709    1
    55   256   254    1
    56   670   672    1
    57   645   644    1
    58   645   643    1
    59   629   628    1
    60   263   274    1
    61   711   709    1
    62   711   713    1
    63   663   643    2
    64   647   652    1
    65   168   150    2
    66   690   689    1
    67   254   276    1
    68   669   674    1
    69   241   239    1
    70   241   243    1
    71   689   691    1
    72   652   662    1
    73   708   726    1
    74   708   694    1
    75   715   716    1
    76   715   713    1
    77   237   239    1
    78   237   238    1
    79   237   235    1
    80   714   713    1
    81   714   728    1
    82   673   672    1
    83   169   150    1
    84   747   728    2
    85   643   627    1
    86   643   664    1
    87   238   243    1
    88   627   626    1
    89   243   244    1
    90   278   280    1
    91   672   674    1
    92   693   691    1
    93   693   694    1
    94   693   695    1
    95   128   114    1
    96   128   149    1
    97   128   130    1
    98   150   134    1
    99   150   152    1
   100   280   281    1
   101   280   282    1
   102   114   113    1
   103   628   626    1
   104   628   630    1
   105   691   692    1
   106   728   746    1
   107   728   730    1
   108   274   273   ar
   109   274   268   ar
   110   235   236    1
   111   674   685    1
   112   281   286    1
   113   129   130    1
   114   129   131    1
   115   134   133    1
   116   662   656   ar
   117   662   661   ar
   118   267   268   ar
   119   267   265   ar
   120   626   624    1
   121   187   188   ar
   122   187   184   ar
   123   655   656   ar
   124   655   654   ar
   125   188   189   ar
   126   285   284    1
   127   695   696    1
   128   695   697    1
   129   246   245    2
   130   283   282    1
   131   283   297    1
   132   624   625    1
   133   624   622    1
   134   126   108    2
   135   630   625    1
   136   630   640    1
   137   273   272   ar
   138   268   269   ar
   139   151   152    1
   140   151   153    1
   141   684   685   ar
   142   684   683   ar
   143   116   115    1
   144   282   284    1
   145   656   657   ar
   146   109   111    1
   147   109   110    1
   148   244   245   ar
   149   244   251   ar
   150   318   297    2
   151   685   679   ar
   152   131   133    1
   153   131   132    1
   154   111   113    1
   155   111   112    1
   156   113   115    1
   157   633   632   ar
   158   633   634   ar
   159   286   284    1
   160   286   287    1
   161   266   265    1
   162   692   697    1
   163   222   221    1
   164   236   234    1
   165   661   660   ar
   166   654   653   ar
   167   133   135    1
   168   245   247   ar
   169   730   729    1
   170   265   264   ar
   171   622   623    1
   172   297   299    1
   173   297   319    1
   174   632   631   ar
   175   189   179    1
   176   189   183   ar
   177   697   698    1
   178   298   299    1
   179   298   300    1
   180   184   185   ar
   181   184   183   ar
   182   186   185    1
   183   115   117    1
   184   705   698   ar
   185   705   704   ar
   186   251   250   ar
   187   110   108    1
   188   640   634   ar
   189   640   639   ar
   190   252   234    2
   191   272   269   ar
   192   269   270   ar
   193   179   174    1
   194   179   177    1
   195   683   680   ar
   196   108    92    1
   197   108   127    1
   198   634   635   ar
   199   226   225    2
   200   729   731    1
   201   153   154    1
   202   153   155    1
   203   657   660   ar
   204   657   658   ar
   205   112   117    1
   206   136   135    1
   207   679   678   ar
   208   679   680   ar
   209   287   294   ar
   210   287   288   ar
   211   132   137    1
   212   185   180   ar
   213   221   223    1
   214   221   219    1
   215   234   220    1
   216   234   253    1
   217   698   699   ar
   218   294   293   ar
   219   174   173    1
   220   183   182   ar
   221    92    91    1
   222  1171  1153    2
   223   135   137    1
   224   704   702   ar
   225   220   219    1
   226   653   658   ar
   227   300   301    1
   228   300   302    1
   229   264   270   ar
   230   247   248   ar
   231   623   621    1
   232   166   167   ar
   233   166   164   ar
   234   178   177    1
   235   167   160   ar
   236   190   170    2
   237   117   118    1
   238    94    93    1
   239   631   636   ar
   240   154   159    1
   241   678   676   ar
   242   680   681   ar
   243   609   608    1
   244  1108  1088    2
   245   301   306    1
   246   744   745   ar
   247   744   742   ar
   248   270   271    2
   249   177   175    1
   250   613   612    2
   251   639   638   ar
   252   155   157    1
   253   155   156    1
   254   658   659    1
   255   250   248   ar
   256   223   224    1
   257   223   218    1
   258   745   738   ar
   259   289   288    2
   260   137   147    1
   261   219   217    1
   262   225   224   ar
   263   225   227   ar
   264   635   636   ar
   265   635   638   ar
   266   288   290   ar
   267   641   621    2
   268   248   249    1
   269   731   733    1
   270   731   732    1
   271   293   291   ar
   272   180   181   ar
   273   173   175    1
   274   173   171    1
   275   636   637    1
   276   303   302    1
   277   303   320    1
   278   733   735    1
   279   733   734    1
   280   338   320    2
   281  1136  1153    1
   282  1136  1135    1
   283   608   610    1
   284   608   606    1
   285   157   159    1
   286   157   158    1
   287    91    93    1
   288    91    89    1
   289   699   700    2
   290   699   701   ar
   291   182   181   ar
   292   160   159    1
   293   160   161   ar
   294  1153  1172    1
   295  1153  1155    1
   296   164   165    2
   297   164   163   ar
   298    93    95    1
   299   621   607    1
   300   621   642    1
   301   302   304    1
   302   735   736    1
   303   735   737    1
   304   172   170    1
   305   172   171    1
   306   217   218    1
   307   217   215    1
   308   702   701   ar
   309   702   703    1
   310   224   231   ar
   311   743   742    2
   312   170   156    1
   313   170   191    1
   314  1131  1133    1
   315  1131  1132    1
   316   742   741   ar
   317   227   228   ar
   318   118   125   ar
   319   118   119   ar
   320  1151  1130    2
   321   676   675   ar
   322   676   677    1
   323  1090  1088    1
   324  1090  1089    1
   325   612   614   ar
   326   612   611   ar
   327   607   606    1
   328    89    87    1
   329    89    90    1
   330   175   176    1
   331   766   748    2
   332  1096  1095    1
   333   681   675   ar
   334   681   682    2
   335   339   320    1
   336   732   737    1
   337  1133  1135    1
   338  1133  1134    1
   339   146   147   ar
   340   146   145   ar
   341  1088  1072    1
   342  1088  1109    1
   343   147   141   ar
   344   306   304    1
   345   306   317    1
   346   320   322    1
   347   738   737    1
   348   738   739   ar
   349  1154  1155    1
   350  1154  1156    1
   351  1191  1173    2
   352   125   124   ar
   353   290   291   ar
   354   120   119    2
   355   614   615   ar
   356   291   292    1
   357   316   317   ar
   358   316   315   ar
   359  1138  1137    1
   360   610   611    1
   361   610   605    1
   362   305   304    1
   363   606   604    1
   364    87    88    1
   365  1135  1137    1
   366   119   121   ar
   367  1118  1117    1
   368   163   161   ar
   369   734   748    1
   370   767   748    1
   371  1072  1071    1
   372   161   162    2
   373  1091  1089    1
   374  1091  1092    1
   375  1091  1093    1
   376   611   618   ar
   377   317   311   ar
   378   748   750    1
   379    95    90    1
   380    95   105    1
   381  1116  1130    1
   382  1116  1115    1
   383  1094  1093    1
   384  1094  1110    1
   385   176   192    1
   386  1132  1130    1
   387  1128  1110    2
   388   741   739   ar
   389  1130  1152    1
   390   215   216    1
   391   231   230   ar
   392  1134  1139    1
   393   228   229    2
   394   228   230   ar
   395    88    86    1
   396   106    86    2
   397   590   589    1
   398  1092  1097    1
   399   739   740    2
   400   315   312   ar
   401  1137  1139    1
   402   145   142   ar
   403  1069  1071    1
   404  1069  1067    1
   405  1069  1070    1
   406  1348  1347    1
   407  1156  1158    1
   408  1156  1157    1
   409  1095  1093    1
   410  1095  1097    1
   411   141   140   ar
   412   141   142   ar
   413  1173  1159    1
   414  1173  1192    1
   415  1173  1175    1
   416  1159  1158    1
   417   124   122   ar
   418   604   605    1
   419   604   602    1
   420   615   616    1
   421   615   617   ar
   422  1071  1073    1
   423   322   321    1
   424  1097  1107    1
   425  1067  1068    1
   426   216   214    1
   427  1110  1129    1
   428  1110  1112    1
   429  1022  1001    2
   430   121   122   ar
   431    98    99   ar
   432    98    97   ar
   433  1139  1150    1
   434  1070  1075    1
   435   140   139   ar
   436  1117  1115    1
   437  1117  1119    1
   438  1328  1327    1
   439   321   323    1
   440   618   617   ar
   441   105    99   ar
   442   105   104   ar
   443  1115  1113    1
   444    86    72    1
   445    86   107    1
   446  1158  1160    1
   447   311   312   ar
   448   311   310   ar
   449   142   143   ar
   450  1113  1111    1
   451  1113  1114    1
   452  1344  1343    1
   453  1344  1349    1
   454   999   981    2
   455   122   123    2
   456   804   803    1
   457  1343  1341    1
   458  1343  1345    1
   459   193   194    1
   460   193   195    1
   461   312   313   ar
   462  1157  1162    1
   463   589   588   ar
   464   589   591   ar
   465   750   749    1
   466  1364  1366    1
   467  1364  1365    1
   468    99   100   ar
   469   982   984    1
   470   982   983    1
   471  1349  1347    1
   472  1349  1360    1
   473   192   194    1
   474   192   213    2
   475   192   212    1
   476  1052  1051    1
   477    97    96   ar
   478   588   594   ar
   479  1332  1331    2
   480  1366  1367    1
   481  1366  1368    1
   482  1347  1345    1
   483  1346  1345    1
   484  1346  1363    1
   485   969   968    1
   486  1175  1174    1
   487  1367  1372    1
   488  1075  1073    1
   489  1075  1085    1
   490  1111  1112    1
   491   602   603    1
   492  1309  1310   ar
   493  1309  1308   ar
   494  1078  1077   ar
   495  1078  1079   ar
   496   749   751    1
   497  1114  1119    1
   498  1119  1120    1
   499    72    71    1
   500   967   981    1
   501   967   966    1
   502   310   308   ar
   503  1174  1176    1
   504   984   985    1
   505   984   986    1
   506   104   103   ar
   507  1341  1342    1
   508  1073  1074    1
   509   987  1001    1
   510   987   986    1
   511  1001  1023    1
   512  1001  1003    1
   513  1107  1101   ar
   514  1107  1106   ar
   515  1068  1066    1
   516   798   803   ar
   517   798   799   ar
   518  1329  1327    1
   519  1329  1324    1
   520  1329  1330    1
   521  1086  1066    2
   522    74    73    1
   523  1077  1076   ar
   524  1371  1370    1
   525  1381  1363    2
   526   139   138   ar
   527  1327  1325    1
   528  1150  1149   ar
   529  1150  1144   ar
   530  1353  1351   ar
   531  1353  1354   ar
   532   591   592   ar
   533  1352  1351    1
   534   783   782    2
   535   214   198    1
   536   214   233    2
   537   214   232    1
   538   964   962    1
   539   964   966    1
   540   964   965    1
   541  1310  1311   ar
   542  1161  1160    1
   543   803   802   ar
   544   981   983    1
   545   981  1000    1
   546   822   821    2
   547  1160  1162    1
   548  1308  1313   ar
   549   195   197    1
   550   195   196    1
   551  1100  1101   ar
   552  1100  1099   ar
   553   198   197    1
   554   336   337   ar
   555   336   334   ar
   556   323   324    1
   557   323   325    1
   558   823   821   ar
   559   823   824   ar
   560   603   601    1
   561   143   138   ar
   562   143   144    1
   563  1324  1323    1
   564  1369  1368    1
   565  1369  1383    1
   566   764   765   ar
   567   764   762   ar
   568   100   103   ar
   569   100   101   ar
   570   313   314    2
   571   313   307   ar
   572   825   824    1
   573  1162  1163    1
   574  1360  1354   ar
   575  1360  1359   ar
   576  1331  1330   ar
   577  1331  1333   ar
   578   337   330   ar
   579    96   101   ar
   580  1365  1363    1
   581  1372  1370    1
   582  1372  1373    1
   583   594   595    2
   584   594   593   ar
   585   962   963    1
   586  1050  1066    1
   587  1050  1049    1
   588  1170  1163   ar
   589  1170  1169   ar
   590   324   329    1
   591  1149  1148   ar
   592  1122  1121    2
   593  1363  1382    1
   594  1368  1370    1
   595   985   990    1
   596  1323  1325    1
   597  1323  1321    1
   598  1212  1193    2
   599   986   988    1
   600   966   968    1
   601  1351  1350   ar
   602   989   988    1
   603  1101  1102   ar
   604    73    71    1
   605    73    75    1
   606  1066  1087    1
   607  1079  1085   ar
   608  1079  1080   ar
   609  1051  1053    1
   610  1051  1049    1
   611  1085  1084   ar
   612   965   970    1
   613   765   758   ar
   614   968   970    1
   615  1354  1355   ar
   616  1106  1105   ar
   617   821   820   ar
   618    71    69    1
   619  1326  1325    1
   620  1326  1340    1
   621  1330  1337   ar
   622  1342  1340    1
   623   362   340    2
   624   308   307   ar
   625   308   309    1
   626  1401  1383    2
   627   197   199    1
   628  1211  1193    1
   629   824   826   ar
   630   799   800   ar
   631   101   102    1
   632   947   946    1
   633  1306  1305    1
   634  1003  1002    1
   635  1120  1121   ar
   636  1120  1127   ar
   637  1143  1144   ar
   638  1143  1141   ar
   639   763   762    1
   640   751   752    1
   641   751   753    1
   642  1144  1145   ar
   643  1047  1049    1
   644  1047  1048    1
   645  1047  1045    1
   646  1163  1164   ar
   647  1169  1167   ar
   648  1053  1048    1
   649  1053  1063    1
   650   325   326    1
   651   325   327    1
   652   592   593   ar
   653   592   598   ar
   654  1176  1178    1
   655  1176  1177    1
   656   586   585    1
   657  1076  1081   ar
   658   335   334    2
   659   782   784   ar
   660   782   781   ar
   661   970   971    1
   662  1099  1098   ar
   663   196   201    1
   664   752   757    1
   665   334   333   ar
   666  1002  1004    1
   667  1333  1334   ar
   668  1121  1123   ar
   669   326   340    1
   670   988   990    1
   671   762   761   ar
   672  1359  1358   ar
   673  1193  1179    1
   674  1193  1195    1
   675  1361  1340    2
   676   593   596   ar
   677  1311  1312   ar
   678  1311  1317   ar
   679  1383  1385    1
   680  1383  1402    1
   681   802   805   ar
   682   802   801   ar
   683    78    77    2
   684   787   768    2
   685  1313  1314    1
   686  1313  1312   ar
   687   784   785   ar
   688   330   329    1
   689   330   331   ar
   690  1373  1380   ar
   691  1373  1374   ar
   692   990   991    1
   693  1340  1362    1
   694  1179  1178    1
   695  1321  1322    1
   696   979   961    2
   697   963   961    1
   698   619   601    2
   699   601   620    1
   700   601   584    1
   701   585   587    1
   702   585   583    1
   703   329   327    1
   704  1148  1145   ar
   705  1350  1356   ar
   706   340   361    1
   707   340   342    1
   708  1178  1180    1
   709  1056  1055   ar
   710  1056  1057   ar
   711  1355  1358   ar
   712  1355  1356   ar
   713   753   754    1
   714   753   755    1
   715  1177  1182    1
   716  1102  1105   ar
   717  1102  1103   ar
   718  1375  1374    2
   719  1305  1307    1
   720  1305  1303    1
   721    69    67    1
   722    69    70    1
   723  1307  1317    1
   724  1307  1302    1
   725  1380  1379   ar
   726  1080  1081   ar
   727  1080  1083   ar
   728  1084  1083   ar
   729   820   819    1
   730   820   827   ar
   731   758   757    1
   732   758   759   ar
   733   818   817    1
   734  1385  1384    1
   735  1127  1126   ar
   736   805   806   ar
   737  1045  1046    1
   738  1337  1336   ar
   739    75    76    1
   740    75    70    1
   741  1145  1146   ar
   742  1312  1315   ar
   743   950   951   ar
   744   950   949   ar
   745   826   827   ar
   746  1081  1082    1
   747   800   801   ar
   748   951   952   ar
   749   598   587    1
   750   598   597   ar
   751   946   948    1
   752   946   944    1
   753  1374  1376   ar
   754  1141  1142    1
   755  1141  1140   ar
   756   781   779   ar
   757  1190  1189   ar
   758  1190  1183   ar
   759   199   200    1
   760   199   201    1
   761  1317  1316   ar
   762    77    76   ar
   763    77    79   ar
   764   945   961    1
   765   945   944    1
   766   754   768    1
   767  1063  1057   ar
   768  1063  1062   ar
   769   817   819    1
   770   817   815    1
   771  1042  1024    2
   772   327   328    1
   773   587   582    1
   774   333   331   ar
   775  1189  1187   ar
   776   961   980    1
   777   757   755    1
   778   801   807   ar
   779  1164  1165    2
   780  1164  1166   ar
   781   201   211    1
   782  1356  1357    2
   783  1055  1054   ar
   784  1167  1166   ar
   785  1167  1168    2
   786  1098  1103   ar
   787   819   814    1
   788  1334  1336   ar
   789  1334  1335    2
   790  1004  1006    1
   791  1004  1005    1
   792   331   332    2
   793  1123  1124   ar
   794   584   583    1
   795   761   759   ar
   796  1057  1058   ar
   797   971   972   ar
   798   971   978   ar
   799   596   597   ar
   800    76    83   ar
   801   973   972    2
   802    67    68    1
   803   768   786    1
   804   768   770    1
   805  1322  1320    1
   806  1006  1008    1
   807  1006  1007    1
   808  1046  1044    1
   809   785   778   ar
   810    79    80   ar
   811  1195  1194    1
   812   583   581    1
   813   991   998   ar
   814   991   992   ar
   815  1026  1025    1
   816  1026  1024    1
   817  1103  1104    1
   818   998   997   ar
   819  1252  1251    1
   820   210   211   ar
   821   210   209   ar
   822  1302  1301    1
   823  1290  1289    2
   824   759   760    2
   825  1379  1377   ar
   826   948   943    1
   827   948   958    1
   828   755   756    1
   829   944   942    1
   830  1025  1027    1
   831  1182  1180    1
   832  1182  1183    1
   833   342   341    1
   834   358   359   ar
   835   358   355   ar
   836   949   954   ar
   837  1384  1386    1
   838  1180  1181    1
   839  1126  1124   ar
   840   573   572    1
   841  1376  1377   ar
   842   806   807   ar
   843   211   205   ar
   844  1387  1386    1
   845  1387  1392    1
   846  1183  1184   ar
   847   972   974   ar
   848   978   977   ar
   849  1303  1304    1
   850  1303  1301    1
   851  1140  1146   ar
   852  1008  1009    1
   853  1008  1010    1
   854  1146  1147    2
   855  1024  1007    1
   856  1024  1043    1
   857  1062  1061   ar
   858   380   379    2
   859   952   958   ar
   860   952   953   ar
   861  1304  1320    1
   862   552   551    1
   863   357   356    2
   864  1315  1316   ar
   865  1291  1289   ar
   866  1291  1292   ar
   867   779   778   ar
   868   779   780    2
   869    83    82   ar
   870  1386  1388    1
   871   807   797    1
   872  1301  1299    1
   873  1124  1125    2
   874  1005  1010    1
   875   942   943    1
   876   942   940    1
   877   359   360   ar
   878    80    82   ar
   879    80    81    1
   880   815   816    1
   881   815   813    1
   882   770   769    1
   883  1187  1188    1
   884  1187  1186   ar
   885  1194  1196    1
   886  1054  1059   ar
   887   582   581    1
   888  1020  1019   ar
   889  1020  1021   ar
   890  1377  1378    2
   891    68    66    1
   892  1209  1210   ar
   893  1209  1207   ar
   894   845   844    1
   895  1289  1288   ar
   896   849   830    2
   897   778   777    1
   898  1027  1029    1
   899  1027  1028    1
   900   571   572   ar
   901   571   569   ar
   902   531   530    1
   903   958   957   ar
   904   814   813    1
   905   209   206   ar
   906   505   504    1
   907  1058  1061   ar
   908  1058  1059   ar
   909   993   992    2
   910  1273  1272    1
   911   581   579    1
   912  1293  1292    2
   913   816   830    1
   914  1320  1338    2
   915  1320  1339    1
   916   992   994   ar
   917   997   995   ar
   918   444   443    1
   919  1208  1207    1
   920   402   401    1
   921   572   574   ar
   922  1251  1246   ar
   923  1251  1250   ar
   924  1010  1021    1
   925   355   356   ar
   926   355   354   ar
   927  1019  1016   ar
   928  1392  1393    1
   929  1392  1390    1
   930   846   844   ar
   931   846   847   ar
   932   341   343    1
   933  1210  1203   ar
   934   356   350   ar
   935  1044  1064    2
   936  1044  1030    1
   937  1044  1065    1
   938  1292  1294   ar
   939   954   953   ar
   940   954   955    1
   941  1230  1229    2
   942   570   569    2
   943  1235  1213    2
   944  1059  1060    1
   945   546   551   ar
   946   546   547   ar
   947  1021  1015   ar
   948   551   550   ar
   949  1184  1186   ar
   950  1184  1185    2
   951   953   956   ar
   952   813   811    1
   953  1207  1206   ar
   954   379   373   ar
   955   379   378   ar
   956    55    54   ar
   957    55    56   ar
   958   974   975   ar
   959   205   206   ar
   960   205   204   ar
   961   977   975   ar
   962   844   843   ar
   963  1246  1247   ar
   964   931   930    2
   965  1029  1030    1
   966  1029  1031    1
   967   830   848    1
   968   830   832    1
   969   569   568   ar
   970  1028  1033    1
   971  1391  1390    1
   972  1400  1393   ar
   973  1400  1399   ar
   974  1271  1272   ar
   975  1271  1269   ar
   976    84    66    2
   977    54    59   ar
   978   438   443   ar
   979   438   439   ar
   980   797   795    1
   981   797   792    1
   982   940   941    1
   983   423   422    2
   984   360   354   ar
   985   360   349    1
   986   809   788    2
   987  1272  1274   ar
   988  1253  1250   ar
   989  1253  1254   ar
   990   206   207   ar
   991  1388  1390    1
   992  1388  1389    1
   993    66    85    1
   994    66    50    1
   995  1393  1394   ar
   996  1299  1300    1
   997   443   442   ar
   998   769   771    1
   999   344   343    1
  1000   344   349    1
  1001   530   532   ar
  1002   530   529   ar
  1003  1288  1287    1
  1004  1288  1295   ar
  1005    52    51    1
  1006   504   506   ar
  1007   504   503   ar
  1008  1286  1285    1
  1009  1196  1197    1
  1010  1196  1198    1
  1011    56    57   ar
  1012  1250  1249   ar
  1013   994   995   ar
  1014   777   772    1
  1015   777   775    1
  1016   772   771    1
  1017   995   996    1
  1018   957   956   ar
  1019   847   840   ar
  1020  1389  1403    1
  1021   381   378   ar
  1022   381   382   ar
  1023   373   374   ar
  1024  1197  1202    1
  1025   795   796    1
  1026   795   793    1
  1027   975   976    1
  1028   579   580    1
  1029   501   500    1
  1030   532   533   ar
  1031   354   353   ar
  1032  1399  1397   ar
  1033   401   396   ar
  1034   401   400   ar
  1035   908   907    1
  1036  1231  1228   ar
  1037  1231  1232   ar
  1038   574   575   ar
  1039  1285  1287    1
  1040  1285  1283    1
  1041   204   203   ar
  1042  1287  1282    1
  1043   343   345    1
  1044   378   377   ar
  1045  1016  1015   ar
  1046  1016  1017   ar
  1047   580   578    1
  1048   506   507   ar
  1049   421   422   ar
  1050   421   419   ar
  1051  1198  1199    1
  1052  1198  1200    1
  1053   547   548   ar
  1054   906   907   ar
  1055   906   912   ar
  1056  1229  1228   ar
  1057  1229  1223   ar
  1058   812   811    1
  1059   812   810    1
  1060   913   912    2
  1061   350   351   ar
  1062   773   771    1
  1063   773   775    1
  1064   773   774    1
  1065  1015  1014   ar
  1066   396   397   ar
  1067  1270  1269    2
  1068  1203  1202    1
  1069  1203  1204   ar
  1070    51    53    1
  1071    51    49    1
  1072  1294  1295   ar
  1073    59    60    1
  1074    59    58   ar
  1075  1213  1199    1
  1076  1213  1234    1
  1077  1213  1215    1
  1078  1300  1298    1
  1079   930   932   ar
  1080   930   929   ar
  1081   927   926    1
  1082   867   866    2
  1083   385   363    2
  1084   932   933   ar
  1085  1269  1268   ar
  1086   550   553   ar
  1087   550   549   ar
  1088   349   347    1
  1089   792   791    1
  1090   503   509   ar
  1091   439   440   ar
  1092   422   424   ar
  1093   843   841   ar
  1094   832   831    1
  1095   775   776    1
  1096  1206  1204   ar
  1097   568   575   ar
  1098   568   567    1
  1099  1247  1248   ar
  1100    57    58   ar
  1101    57    63   ar
  1102   941   939    1
  1103  1394  1395    2
  1104  1394  1396   ar
  1105  1041  1040   ar
  1106  1041  1034   ar
  1107  1031  1033    1
  1108  1031  1032    1
  1109  1033  1034    1
  1110   529   527   ar
  1111   420   419    2
  1112  1228  1227   ar
  1113   345   347    1
  1114   345   346    1
  1115   793   791    1
  1116   793   794    1
  1117   790   788    1
  1118   790   789    1
  1119    50    49    1
  1120   907   909   ar
  1121  1254  1255   ar
  1122   829   810    2
  1123   482   481    1
  1124   553   554   ar
  1125   442   445   ar
  1126   442   441   ar
  1127   912   911   ar
  1128  1202  1200    1
  1129   788   774    1
  1130   788   808    1
  1131  1274  1275   ar
  1132    58    61   ar
  1133  1232  1233   ar
  1134   207   208    1
  1135   207   202   ar
  1136   926   928    1
  1137   926   924    1
  1138   382   383   ar
  1139   890   889    2
  1140  1397  1396   ar
  1141  1397  1398    1
  1142   419   418   ar
  1143   500   502    1
  1144   500   498    1
  1145   535   516    2
  1146  1249  1248   ar
  1147  1249  1255   ar
  1148   840   841   ar
  1149   840   839    1
  1150   400   403   ar
  1151   400   399   ar
  1152  1421  1403    2
  1153  1204  1205    2
  1154   403   404   ar
  1155  1017  1018    2
  1156  1017  1011   ar
  1157  1040  1038   ar
  1158   374   375    1
  1159   374   376   ar
  1160   353   351   ar
  1161   533   526   ar
  1162  1403  1422    1
  1163  1403  1405    1
  1164    53    63    1
  1165    53    48    1
  1166    49    47    1
  1167  1223  1224   ar
  1168  1034  1035   ar
  1169   351   352    1
  1170    63    62   ar
  1171   565   567    1
  1172   565   566    1
  1173   565   563    1
  1174  1014  1012   ar
  1175   203   202   ar
  1176   445   446   ar
  1177   810   794    1
  1178   810   828    1
  1179  1282  1281    1
  1180   841   842    2
  1181   377   383   ar
  1182   377   376   ar
  1183   507   513   ar
  1184   507   508   ar
  1185  1200  1201    1
  1186   791   789    1
  1187   600   578    2
  1188   548   549   ar
  1189  1215  1214    1
  1190   549   555   ar
  1191   347   348    1
  1192   567   562    1
  1193   928   929    1
  1194   928   923    1
  1195  1283  1284    1
  1196  1283  1281    1
  1197   397   398   ar
  1198   929   936   ar
  1199   578   599    1
  1200   578   564    1
  1201   834   839    1
  1202   834   833    1
  1203   933   934    1
  1204   933   935   ar
  1205   346   363    1
  1206   866   860   ar
  1207   866   865   ar
  1208   502   513    1
  1209   502   497    1
  1210   440   441   ar
  1211  1268  1275   ar
  1212  1268  1267    1
  1213   363   365    1
  1214   363   384    1
  1215   509   508   ar
  1216   509   510    2
  1217  1255  1245    1
  1218   499   498    1
  1219   499   516    1
  1220   441   447   ar
  1221   831   833    1
  1222  1257  1236    2
  1223    61    62   ar
  1224   424   425   ar
  1225  1298  1284    1
  1226  1298  1319    2
  1227  1298  1318    1
  1228   527   526   ar
  1229   527   528    2
  1230   481   480   ar
  1231   481   483   ar
  1232   383   372    1
  1233   480   486   ar
  1234   883   889   ar
  1235   883   884   ar
  1236  1227  1233   ar
  1237  1227  1226   ar
  1238   889   888   ar
  1239   513   512   ar
  1240   839   837    1
  1241   939   925    1
  1242   939   959    2
  1243   939   960    1
  1244   909   910   ar
  1245   925   924    1
  1246   554   555   ar
  1247   563   564    1
  1248   563   561    1
  1249  1233  1222    1
  1250   526   525    1
  1251   508   511   ar
  1252   498   496    1
  1253   516   518    1
  1254   516   534    1
  1255  1281  1279    1
  1256   860   861   ar
  1257  1011  1012   ar
  1258   924   922    1
  1259   911   910   ar
  1260   911   914   ar
  1261   868   865   ar
  1262   868   869   ar
  1263  1012  1013    1
  1264  1405  1404    1
  1265   399   398   ar
  1266   399   405   ar
  1267   418   425   ar
  1268   418   417    1
  1269   404   405   ar
  1270  1038  1037   ar
  1271  1038  1039    2
  1272   833   835    1
  1273  1035  1037   ar
  1274  1035  1036    2
  1275  1404  1406    1
  1276    47    48    1
  1277    47    45    1
  1278   865   864   ar
  1279   365   364    1
  1280   446   447   ar
  1281  1224  1226   ar
  1282  1224  1225    1
  1283   555   545    1
  1284   518   517    1
  1285   497   496    1
  1286   936   935   ar
  1287   910   916   ar
  1288  1214  1216    1
  1289   885   884    1
  1290   562   561    1
  1291   923   922    1
  1292  1267  1265    1
  1293  1267  1262    1
  1294   557   536    2
  1295   496   494    1
  1296   835   837    1
  1297   835   836    1
  1298   447   437    1
  1299   483   484   ar
  1300   487   486    2
  1301   884   886   ar
  1302   486   485   ar
  1303   872   850    2
  1304   416   415    1
  1305  1407  1406    1
  1306  1407  1412    1
  1307    38    37    2
  1308   837   838    1
  1309  1245  1240    1
  1310  1245  1243    1
  1311   405   395    1
  1312   922   920    1
  1313  1218  1216    1
  1314  1218  1220    1
  1315  1218  1219    1
  1316  1265  1266    1
  1317  1265  1263    1
  1318  1236  1256    1
  1319  1236  1219    1
  1320  1236  1238    1
  1321   417   415    1
  1322   417   412    1
  1323   914   915   ar
  1324    31    37   ar
  1325    31    32   ar
  1326   512   511   ar
  1327    33    32    1
  1328  1217  1222    1
  1329  1217  1216    1
  1330   372   367    1
  1331   372   370    1
  1332   888   891   ar
  1333   888   887   ar
  1334   561   559    1
  1335  1240  1239    1
  1336   869   870   ar
  1337  1222  1220    1
  1338  1406  1408    1
  1339  1420  1419   ar
  1340  1420  1413   ar
  1341  1419  1417   ar
  1342   367   366    1
  1343  1280  1279    1
  1344  1280  1278    1
  1345   861   862    1
  1346   861   863   ar
  1347   525   520    1
  1348   525   523    1
  1349   577   558    2
  1350    46    45    1
  1351    46    44    1
  1352   520   519    1
  1353    37    36   ar
  1354  1237  1238    1
  1355  1237  1239    1
  1356  1220  1221    1
  1357   560   559    1
  1358   560   558    1
  1359   364   366    1
  1360   864   863   ar
  1361   864   870   ar
  1362   407   386    2
  1363   521   523    1
  1364   521   519    1
  1365   521   522    1
  1366    32    34   ar
  1367   517   519    1
  1368   891   892   ar
  1369   545   543    1
  1370   545   540    1
  1371  1277  1258    2
  1372   415   413    1
  1373  1262  1261    1
  1374   836   850    1
  1375   484   485   ar
  1376   484   490   ar
  1377  1243  1241    1
  1378  1243  1244    1
  1379  1241  1239    1
  1380  1241  1242    1
  1381   543   541    1
  1382   543   544    1
  1383   523   524    1
  1384   437   432    1
  1385   437   435    1
  1386   916   915   ar
  1387   916   905    1
  1388   485   488   ar
  1389  1263  1261    1
  1390  1263  1264    1
  1391    65    44    2
  1392   536   538    1
  1393   536   522    1
  1394   536   556    1
  1395   368   366    1
  1396   368   370    1
  1397   368   369    1
  1398  1412  1413    1
  1399  1412  1410    1
  1400   412   411    1
  1401   494   495    1
  1402   886   887   ar
  1403  1413  1414   ar
  1404  1297  1278    2
  1405   850   852    1
  1406   850   871    1
  1407   370   371    1
  1408   538   537    1
  1409   887   893   ar
  1410  1417  1418    1
  1411  1417  1416   ar
  1412   870   859    1
  1413   558   542    1
  1414   558   576    1
  1415   432   431    1
  1416    44    64    1
  1417    44    27    1
  1418   395   390    1
  1419   395   393    1
  1420   541   542    1
  1421   541   539    1
  1422  1260  1258    1
  1423  1260  1259    1
  1424   920   921    1
  1425    36    35   ar
  1426    36    39   ar
  1427  1278  1264    1
  1428  1278  1296    1
  1429    34    35   ar
  1430   540   539    1
  1431  1408  1410    1
  1432  1408  1409    1
  1433  1261  1259    1
  1434   852   851    1
  1435   414   413    1
  1436   414   428    1
  1437   495   493    1
  1438   478   477    1
  1439  1258  1242    1
  1440  1258  1276    1
  1441   905   903    1
  1442   905   900    1
  1443   921   919    1
  1444   390   389    1
  1445   892   893   ar
  1446    35    41   ar
  1447   386   388    1
  1448   386   369    1
  1449   386   406    1
  1450   435   436    1
  1451   435   433    1
  1452  1414  1416   ar
  1453  1414  1415    2
  1454   413   411    1
  1455   490   479    1
  1456   490   489   ar
  1457   903   904    1
  1458   903   901    1
  1459    39    40   ar
  1460   477   479    1
  1461   477   475    1
  1462   388   387    1
  1463   393   391    1
  1464   393   394    1
  1465   488   489   ar
  1466  1410  1411    1
  1467   539   537    1
  1468   893   882    1
  1469   411   409    1
  1470   479   474    1
  1471    17    16    2
  1472   449   428    2
  1473   859   854    1
  1474   859   857    1
  1475   391   389    1
  1476   391   392    1
  1477   430   429    1
  1478   430   428    1
  1479   427   408    2
  1480   854   853    1
  1481   410   409    1
  1482   410   408    1
  1483   431   429    1
  1484   431   433    1
  1485    27    26    1
  1486   428   448    1
  1487    28    26    1
  1488    28    29    1
  1489    28    30    1
  1490    41    40   ar
  1491    41    30    1
  1492    26    24    1
  1493   389   387    1
  1494   851   853    1
  1495   900   899    1
  1496   901   902    1
  1497   901   899    1
  1498   895   873    2
  1499   433   434    1
  1500    16    10   ar
  1501    16    15   ar
  1502   493   476    1
  1503   493   515    2
  1504   493   514    1
  1505   475   476    1
  1506   475   473    1
  1507   919   938    2
  1508   919   902    1
  1509   919   937    1
  1510   855   857    1
  1511   855   853    1
  1512   855   856    1
  1513   857   858    1
  1514    10    11   ar
  1515   408   392    1
  1516   408   426    1
  1517   882   880    1
  1518   882   877    1
  1519    30    25    1
  1520   474   473    1
  1521   434   450    1
  1522   918   896    2
  1523   899   897    1
  1524   880   878    1
  1525   880   881    1
  1526    15    18   ar
  1527    15    14   ar
  1528    18    19   ar
  1529   898   897    1
  1530   898   896    1
  1531    24    25    1
  1532    24    22    1
  1533   473   471    1
  1534    11    12    1
  1535    11    13   ar
  1536   877   876    1
  1537   873   875    1
  1538   873   856    1
  1539   873   894    1
  1540   875   874    1
  1541    22    23    1
  1542   878   876    1
  1543   878   879    1
  1544   896   879    1
  1545   896   917    1
  1546    14    13   ar
  1547    14    20   ar
  1548    23    21    1
  1549    19    20   ar
  1550   472   471    1
  1551   472   470    1
  1552   450   469    2
  1553   450   452    1
  1554   450   468    1
  1555   876   874    1
  1556   452   451    1
  1557    20     9    1
  1558    43    21    2
  1559   492   470    2
  1560   451   453    1
  1561     5     6    1
  1562     5     7    1
  1563     5     3    1
  1564    21     6    1
  1565    21    42    1
  1566   470   456    1
  1567   470   491    1
  1568     7     9    1
  1569     7     8    1
  1570   455   453    1
  1571   455   456    1
  1572   455   457    1
  1573     9     4    1
  1574     2     1    1
  1575   453   454    1
  1576     1     3    1
  1577     3     4    1
  1578   457   458    1
  1579   457   459    1
  1580   454   459    1
  1581   459   460    1
  1582   467   460   ar
  1583   467   466   ar
  1584   460   461   ar
  1585   466   464   ar
  1586   461   462    2
  1587   461   463   ar
  1588   464   463   ar
  1589   464   465    2
