ligand
  PyMOL2.2          3D                             0

 22 24  0  0  0  0  0  0  0  0999 V2000
    4.5200    1.9210   20.1020 C   0  0  0  0  0  0  0  0  0  0  0  0
    5.1450    2.4670   18.9610 C   0  0  0  0  0  0  0  0  0  0  0  0
    6.4960    2.2170   18.7360 C   0  0  0  0  0  0  0  0  0  0  0  0
    7.2150    1.4260   19.6490 C   0  0  0  0  0  0  0  0  0  0  0  0
    6.5910    0.8850   20.8000 C   0  0  0  0  0  0  0  0  0  0  0  0
    5.2440    1.1360   21.0230 C   0  0  0  0  0  0  0  0  0  0  0  0
    3.0300    2.2030   20.3750 C   0  0  0  0  0  0  0  0  0  0  0  0
    2.7460    3.4920   21.1860 C   0  0  0  0  0  0  0  0  0  0  0  0
    1.2680    3.7200   21.4810 C   0  0  0  0  0  0  0  0  0  0  0  0
    0.2280    3.1890   20.7120 C   0  0  0  0  0  0  0  0  0  0  0  0
   -0.9340    3.6010   21.2830 N   0  0  0  0  0  0  0  0  0  0  0  0
   -0.7210    4.3840   22.4000 C   0  0  0  0  0  0  0  0  0  0  0  0
    0.6560    4.4850   22.5650 C   0  0  0  0  0  0  0  0  0  0  0  0
    1.1320    5.2640   23.6870 C   0  0  0  0  0  0  0  0  0  0  0  0
    2.4980    5.4010   23.9180 O   0  0  0  0  0  0  0  0  0  0  0  0
    0.2090    5.8740   24.5260 N   0  0  0  0  0  0  0  0  0  0  0  0
   -1.1350    5.7390   24.3310 C   0  0  0  0  0  0  0  0  0  0  0  0
   -1.6120    5.0240   23.3000 N   0  0  0  0  0  0  0  0  0  0  0  0
   -2.0710    6.3890   25.2540 N   0  0  0  0  0  0  0  0  0  0  0  0
    8.6760    1.1760   19.3840 C   0  0  0  0  0  0  0  0  0  0  0  0
    9.1190    0.0290   19.3970 O   0  0  0  0  0  0  0  0  0  0  0  0
    9.5370    2.2990   19.1240 N   0  0  0  0  0  0  0  0  0  0  0  0
  1  2  4  0  0  0  0
  1  6  4  0  0  0  0
  1  7  1  0  0  0  0
  2  3  4  0  0  0  0
  3  4  4  0  0  0  0
  4  5  4  0  0  0  0
  4 20  1  0  0  0  0
  5  6  4  0  0  0  0
  7  8  1  0  0  0  0
  8  9  1  0  0  0  0
  9 10  4  0  0  0  0
  9 13  4  0  0  0  0
 10 11  4  0  0  0  0
 11 12  4  0  0  0  0
 12 13  4  0  0  0  0
 12 18  4  0  0  0  0
 13 14  4  0  0  0  0
 14 15  1  0  0  0  0
 14 16  4  0  0  0  0
 16 17  4  0  0  0  0
 17 18  4  0  0  0  0
 17 19  1  0  0  0  0
 20 21  2  0  0  0  0
 20 22  1  0  0  0  0
M  END
$$$$
