ligand
 OpenBabel11021811503D
libRbt.so/2013.1/901 2013/11/27
 22 24  0  0  0  0  0  0  0  0999 V2000
    4.4123    1.7304   20.0103 C   0  0  0  0  0  0  0  0  0  0  0  0
    5.0762    2.1521   18.8389 C   0  0  0  0  0  0  0  0  0  0  0  0
    6.4035    1.7843   18.6353 C   0  0  0  0  0  0  0  0  0  0  0  0
    7.0602    1.0001   19.5996 C   0  0  0  0  0  0  0  0  0  0  0  0
    6.3977    0.5840   20.7806 C   0  0  0  0  0  0  0  0  0  0  0  0
    5.0745    0.9524   20.9822 C   0  0  0  0  0  0  0  0  0  0  0  0
    2.9491    2.1439   20.2593 C   0  0  0  0  0  0  0  0  0  0  0  0
    2.7189    3.0039   21.5271 C   0  0  0  0  0  0  0  0  0  0  0  0
    1.2540    3.3340   21.7889 C   0  0  0  0  0  0  0  0  0  0  0  0
    0.1883    2.7661   21.0840 C   0  0  0  0  0  0  0  0  0  0  0  0
   -0.9516    3.2962   21.5993 N   0  0  0  0  0  0  0  0  0  0  0  0
   -0.6994    4.1935   22.6178 C   0  0  0  0  0  0  0  0  0  0  0  0
    0.6813    4.2483   22.7741 C   0  0  0  0  0  0  0  0  0  0  0  0
    1.1961    5.1299   23.7989 C   0  0  0  0  0  0  0  0  0  0  0  0
    2.5675    5.2287   24.0165 O   0  0  0  0  0  0  0  0  0  0  0  0
    0.3048    5.8765   24.5580 N   0  0  0  0  0  0  0  0  0  0  0  0
   -1.0445    5.7829   24.3759 C   0  0  0  0  0  0  0  0  0  0  0  0
   -1.5571    4.9754   23.4341 N   0  0  0  0  0  0  0  0  0  0  0  0
   -1.9467    6.5795   25.2138 N   0  0  0  0  0  0  0  0  0  0  0  0
    8.4971    0.6212   19.3564 C   0  0  0  0  0  0  0  0  0  0  0  0
    8.7690   -0.3791   18.6951 O   0  0  0  0  0  0  0  0  0  0  0  0
    9.5367    1.4439   19.9154 N   0  0  0  0  0  0  0  0  0  0  0  0
  1  2  2  0  0  0  0
  1  6  1  0  0  0  0
  1  7  1  0  0  0  0
  2  3  1  0  0  0  0
  3  4  2  0  0  0  0
  4  5  1  0  0  0  0
  4 20  1  0  0  0  0
  5  6  2  0  0  0  0
  7  8  1  0  0  0  0
  8  9  1  0  0  0  0
  9 10  2  0  0  0  0
  9 13  1  0  0  0  0
 10 11  1  0  0  0  0
 11 12  1  0  0  0  0
 12 13  2  0  0  0  0
 12 18  1  0  0  0  0
 13 14  1  0  0  0  0
 14 15  1  0  0  0  0
 14 16  2  0  0  0  0
 16 17  1  0  0  0  0
 17 18  2  0  0  0  0
 17 19  1  0  0  0  0
 20 21  2  0  0  0  0
 20 22  1  0  0  0  0
M  END
>  <CHROM.1>
-118.29913630,-86.17128416,-176.85836187,8.99650925,3.04224654,3.04677531
21.57392911,0.63776580,0.07885817,-2.25564015

>  <Name>
ligand

>  <RI>
0

>  <Rbt.Current_Directory>
/home/itssahil/PROJECTS/Mol_Feturizer/New_Systems/rnas/4LVY

>  <Rbt.Executable>
rbdock ($Id: //depot/dev/client3/rdock/2013.1/src/exe/rbdock.cxx#4 $)

>  <Rbt.Library>
libRbt.so (2013.1, Build901 2013/11/27)

>  <Rbt.Parameter_File>
/export/apps/rDock/src/rDock_2013.1_src/data/scripts/dock_solv.prm

>  <Rbt.Receptor>
prm/pocket_docking_2.prm

>  <SCORE>
-13.4422

>  <SCORE.INTER>
-13.6224

>  <SCORE.INTER.CONST>
1

>  <SCORE.INTER.POLAR>
0

>  <SCORE.INTER.ROT>
4

>  <SCORE.INTER.SOLV>
18.6834

>  <SCORE.INTER.VDW>
-21.5761

>  <SCORE.INTER.norm>
-0.619202

>  <SCORE.INTRA>
0.180203

>  <SCORE.INTRA.DIHEDRAL>
0.022489

>  <SCORE.INTRA.DIHEDRAL.0>
6.18831

>  <SCORE.INTRA.POLAR>
0

>  <SCORE.INTRA.POLAR.0>
0

>  <SCORE.INTRA.REPUL>
0

>  <SCORE.INTRA.REPUL.0>
0

>  <SCORE.INTRA.SOLV>
-0.00748081

>  <SCORE.INTRA.SOLV.lig_0>
-44.3465

>  <SCORE.INTRA.VDW>
0.172699

>  <SCORE.INTRA.VDW.0>
-0.778272

>  <SCORE.INTRA.norm>
0.00819105

>  <SCORE.RESTR>
0

>  <SCORE.RESTR.CAVITY>
0

>  <SCORE.RESTR.norm>
0

>  <SCORE.SYSTEM>
0

>  <SCORE.SYSTEM.CONST>
0

>  <SCORE.SYSTEM.DIHEDRAL>
0

>  <SCORE.SYSTEM.SOLV>
0

>  <SCORE.SYSTEM.norm>
0

>  <SCORE.heavy>
22

>  <SCORE.norm>
-0.611011

>  <RMSD>
0.465

$$$$
ligand
 OpenBabel11021811503D
libRbt.so/2013.1/901 2013/11/27
 22 24  0  0  0  0  0  0  0  0999 V2000
    4.4753    1.6234   20.1702 C   0  0  0  0  0  0  0  0  0  0  0  0
    5.1750    0.8343   21.1073 C   0  0  0  0  0  0  0  0  0  0  0  0
    6.5031    0.4971   20.8611 C   0  0  0  0  0  0  0  0  0  0  0  0
    7.1246    0.9472   19.6832 C   0  0  0  0  0  0  0  0  0  0  0  0
    6.4204    1.7317   18.7369 C   0  0  0  0  0  0  0  0  0  0  0  0
    5.0959    2.0662   18.9839 C   0  0  0  0  0  0  0  0  0  0  0  0
    2.9996    1.9903   20.4191 C   0  0  0  0  0  0  0  0  0  0  0  0
    2.7617    3.0002   21.5695 C   0  0  0  0  0  0  0  0  0  0  0  0
    1.2899    3.2970   21.8328 C   0  0  0  0  0  0  0  0  0  0  0  0
    0.2360    2.6875   21.1453 C   0  0  0  0  0  0  0  0  0  0  0  0
   -0.9149    3.1977   21.6564 N   0  0  0  0  0  0  0  0  0  0  0  0
   -0.6812    4.1214   22.6555 C   0  0  0  0  0  0  0  0  0  0  0  0
    0.6983    4.2154   22.8030 C   0  0  0  0  0  0  0  0  0  0  0  0
    1.1950    5.1304   23.8072 C   0  0  0  0  0  0  0  0  0  0  0  0
    2.5645    5.2694   24.0152 O   0  0  0  0  0  0  0  0  0  0  0  0
    0.2882    5.8684   24.5564 N   0  0  0  0  0  0  0  0  0  0  0  0
   -1.0591    5.7359   24.3838 C   0  0  0  0  0  0  0  0  0  0  0  0
   -1.5550    4.8967   23.4609 N   0  0  0  0  0  0  0  0  0  0  0  0
   -1.9776    6.5252   25.2107 N   0  0  0  0  0  0  0  0  0  0  0  0
    8.5601    0.5634   19.4396 C   0  0  0  0  0  0  0  0  0  0  0  0
    8.8283   -0.4579   18.8095 O   0  0  0  0  0  0  0  0  0  0  0  0
    9.6028    1.4065   19.9612 N   0  0  0  0  0  0  0  0  0  0  0  0
  1  2  2  0  0  0  0
  1  6  1  0  0  0  0
  1  7  1  0  0  0  0
  2  3  1  0  0  0  0
  3  4  2  0  0  0  0
  4  5  1  0  0  0  0
  4 20  1  0  0  0  0
  5  6  2  0  0  0  0
  7  8  1  0  0  0  0
  8  9  1  0  0  0  0
  9 10  2  0  0  0  0
  9 13  1  0  0  0  0
 10 11  1  0  0  0  0
 11 12  1  0  0  0  0
 12 13  2  0  0  0  0
 12 18  1  0  0  0  0
 13 14  1  0  0  0  0
 14 15  1  0  0  0  0
 14 16  2  0  0  0  0
 16 17  1  0  0  0  0
 17 18  2  0  0  0  0
 17 19  1  0  0  0  0
 20 21  2  0  0  0  0
 20 22  1  0  0  0  0
M  END
>  <CHROM.1>
70.33883927,91.57470324,-177.44510122,2.27956758,3.07526516,2.98861992,21.63684988
0.63266904,0.06255624,-2.29014038

>  <Name>
ligand

>  <RI>
0

>  <Rbt.Current_Directory>
/home/itssahil/PROJECTS/Mol_Feturizer/New_Systems/rnas/4LVY

>  <Rbt.Executable>
rbdock ($Id: //depot/dev/client3/rdock/2013.1/src/exe/rbdock.cxx#4 $)

>  <Rbt.Library>
libRbt.so (2013.1, Build901 2013/11/27)

>  <Rbt.Parameter_File>
/export/apps/rDock/src/rDock_2013.1_src/data/scripts/dock_solv.prm

>  <Rbt.Receptor>
prm/pocket_docking_2.prm

>  <SCORE>
-13.4619

>  <SCORE.INTER>
-13.6354

>  <SCORE.INTER.CONST>
1

>  <SCORE.INTER.POLAR>
0

>  <SCORE.INTER.ROT>
4

>  <SCORE.INTER.SOLV>
18.5533

>  <SCORE.INTER.VDW>
-21.5414

>  <SCORE.INTER.norm>
-0.619791

>  <SCORE.INTRA>
0.173462

>  <SCORE.INTRA.DIHEDRAL>
0.112816

>  <SCORE.INTRA.DIHEDRAL.0>
6.18831

>  <SCORE.INTRA.POLAR>
0

>  <SCORE.INTRA.POLAR.0>
0

>  <SCORE.INTRA.REPUL>
0

>  <SCORE.INTRA.REPUL.0>
0

>  <SCORE.INTRA.SOLV>
-0.00881549

>  <SCORE.INTRA.SOLV.lig_0>
-44.3465

>  <SCORE.INTRA.VDW>
0.121462

>  <SCORE.INTRA.VDW.0>
-0.778272

>  <SCORE.INTRA.norm>
0.00788465

>  <SCORE.RESTR>
0

>  <SCORE.RESTR.CAVITY>
0

>  <SCORE.RESTR.norm>
0

>  <SCORE.SYSTEM>
0

>  <SCORE.SYSTEM.CONST>
0

>  <SCORE.SYSTEM.DIHEDRAL>
0

>  <SCORE.SYSTEM.SOLV>
0

>  <SCORE.SYSTEM.norm>
0

>  <SCORE.heavy>
22

>  <SCORE.norm>
-0.611907

>  <RMSD>
0.499

$$$$
ligand
 OpenBabel11021811503D
libRbt.so/2013.1/901 2013/11/27
 22 24  0  0  0  0  0  0  0  0999 V2000
    4.4712    1.5267   20.3567 C   0  0  0  0  0  0  0  0  0  0  0  0
    5.2820    0.8152   21.2661 C   0  0  0  0  0  0  0  0  0  0  0  0
    6.6106    0.5566   20.9400 C   0  0  0  0  0  0  0  0  0  0  0  0
    7.1220    1.0076   19.7107 C   0  0  0  0  0  0  0  0  0  0  0  0
    6.3064    1.7139   18.7926 C   0  0  0  0  0  0  0  0  0  0  0  0
    4.9817    1.9701   19.1192 C   0  0  0  0  0  0  0  0  0  0  0  0
    2.9940    1.8054   20.6946 C   0  0  0  0  0  0  0  0  0  0  0  0
    2.7437    3.0893   21.5246 C   0  0  0  0  0  0  0  0  0  0  0  0
    1.2707    3.3620   21.8067 C   0  0  0  0  0  0  0  0  0  0  0  0
    0.2183    2.7400   21.1282 C   0  0  0  0  0  0  0  0  0  0  0  0
   -0.9342    3.2297   21.6554 N   0  0  0  0  0  0  0  0  0  0  0  0
   -0.7030    4.1517   22.6567 C   0  0  0  0  0  0  0  0  0  0  0  0
    0.6765    4.2662   22.7886 C   0  0  0  0  0  0  0  0  0  0  0  0
    1.1708    5.1836   23.7918 C   0  0  0  0  0  0  0  0  0  0  0  0
    2.5404    5.3425   23.9845 O   0  0  0  0  0  0  0  0  0  0  0  0
    0.2617    5.9036   24.5554 N   0  0  0  0  0  0  0  0  0  0  0  0
   -1.0853    5.7512   24.3978 C   0  0  0  0  0  0  0  0  0  0  0  0
   -1.5791    4.9093   23.4764 N   0  0  0  0  0  0  0  0  0  0  0  0
   -2.0061    6.5220   25.2396 N   0  0  0  0  0  0  0  0  0  0  0  0
    8.5607    0.7096   19.3813 C   0  0  0  0  0  0  0  0  0  0  0  0
    9.2387    0.0206   20.1413 O   0  0  0  0  0  0  0  0  0  0  0  0
    9.1226    1.2492   18.1717 N   0  0  0  0  0  0  0  0  0  0  0  0
  1  2  2  0  0  0  0
  1  6  1  0  0  0  0
  1  7  1  0  0  0  0
  2  3  1  0  0  0  0
  3  4  2  0  0  0  0
  4  5  1  0  0  0  0
  4 20  1  0  0  0  0
  5  6  2  0  0  0  0
  7  8  1  0  0  0  0
  8  9  1  0  0  0  0
  9 10  2  0  0  0  0
  9 13  1  0  0  0  0
 10 11  1  0  0  0  0
 11 12  1  0  0  0  0
 12 13  2  0  0  0  0
 12 18  1  0  0  0  0
 13 14  1  0  0  0  0
 14 15  1  0  0  0  0
 14 16  2  0  0  0  0
 16 17  1  0  0  0  0
 17 18  2  0  0  0  0
 17 19  1  0  0  0  0
 20 21  2  0  0  0  0
 20 22  1  0  0  0  0
M  END
>  <CHROM.1>
86.63627338,4.18580671,178.21231709,-15.33956743,3.06106726,3.02354840,21.65748900
0.62488603,0.07896566,-2.25832238

>  <Name>
ligand

>  <RI>
0

>  <Rbt.Current_Directory>
/home/itssahil/PROJECTS/Mol_Feturizer/New_Systems/rnas/4LVY

>  <Rbt.Executable>
rbdock ($Id: //depot/dev/client3/rdock/2013.1/src/exe/rbdock.cxx#4 $)

>  <Rbt.Library>
libRbt.so (2013.1, Build901 2013/11/27)

>  <Rbt.Parameter_File>
/export/apps/rDock/src/rDock_2013.1_src/data/scripts/dock_solv.prm

>  <Rbt.Receptor>
prm/pocket_docking_2.prm

>  <SCORE>
-13.0425

>  <SCORE.INTER>
-13.4614

>  <SCORE.INTER.CONST>
1

>  <SCORE.INTER.POLAR>
0

>  <SCORE.INTER.ROT>
4

>  <SCORE.INTER.SOLV>
18.4006

>  <SCORE.INTER.VDW>
-21.3745

>  <SCORE.INTER.norm>
-0.611881

>  <SCORE.INTRA>
0.418914

>  <SCORE.INTRA.DIHEDRAL>
0.123776

>  <SCORE.INTRA.DIHEDRAL.0>
6.18831

>  <SCORE.INTRA.POLAR>
0

>  <SCORE.INTRA.POLAR.0>
0

>  <SCORE.INTRA.REPUL>
0

>  <SCORE.INTRA.REPUL.0>
0

>  <SCORE.INTRA.SOLV>
0.00736559

>  <SCORE.INTRA.SOLV.lig_0>
-44.3465

>  <SCORE.INTRA.VDW>
0.353343

>  <SCORE.INTRA.VDW.0>
-0.778272

>  <SCORE.INTRA.norm>
0.0190416

>  <SCORE.RESTR>
0

>  <SCORE.RESTR.CAVITY>
0

>  <SCORE.RESTR.norm>
0

>  <SCORE.SYSTEM>
0

>  <SCORE.SYSTEM.CONST>
0

>  <SCORE.SYSTEM.DIHEDRAL>
0

>  <SCORE.SYSTEM.SOLV>
0

>  <SCORE.SYSTEM.norm>
0

>  <SCORE.heavy>
22

>  <SCORE.norm>
-0.59284

>  <RMSD>
0.523

$$$$
ligand
 OpenBabel11021811503D
libRbt.so/2013.1/901 2013/11/27
 22 24  0  0  0  0  0  0  0  0999 V2000
    4.5095    1.3952   20.5812 C   0  0  0  0  0  0  0  0  0  0  0  0
    5.3714    0.6256   21.3907 C   0  0  0  0  0  0  0  0  0  0  0  0
    6.6774    0.3913   20.9690 C   0  0  0  0  0  0  0  0  0  0  0  0
    7.1154    0.9242   19.7441 C   0  0  0  0  0  0  0  0  0  0  0  0
    6.2481    1.6892   18.9259 C   0  0  0  0  0  0  0  0  0  0  0  0
    4.9461    1.9211   19.3477 C   0  0  0  0  0  0  0  0  0  0  0  0
    3.0558    1.6487   21.0250 C   0  0  0  0  0  0  0  0  0  0  0  0
    2.7611    3.0911   21.5073 C   0  0  0  0  0  0  0  0  0  0  0  0
    1.2871    3.3552   21.7921 C   0  0  0  0  0  0  0  0  0  0  0  0
    0.2370    2.7298   21.1131 C   0  0  0  0  0  0  0  0  0  0  0  0
   -0.9173    3.2120   21.6433 N   0  0  0  0  0  0  0  0  0  0  0  0
   -0.6895    4.1321   22.6471 C   0  0  0  0  0  0  0  0  0  0  0  0
    0.6896    4.2533   22.7776 C   0  0  0  0  0  0  0  0  0  0  0  0
    1.1805    5.1701   23.7830 C   0  0  0  0  0  0  0  0  0  0  0  0
    2.5494    5.3356   23.9744 O   0  0  0  0  0  0  0  0  0  0  0  0
    0.2687    5.8830   24.5500 N   0  0  0  0  0  0  0  0  0  0  0  0
   -1.0778    5.7242   24.3937 C   0  0  0  0  0  0  0  0  0  0  0  0
   -1.5685    4.8826   23.4703 N   0  0  0  0  0  0  0  0  0  0  0  0
   -2.0014    6.4876   25.2391 N   0  0  0  0  0  0  0  0  0  0  0  0
    8.5310    0.6509   19.3099 C   0  0  0  0  0  0  0  0  0  0  0  0
    8.8182   -0.4194   18.7770 O   0  0  0  0  0  0  0  0  0  0  0  0
    9.5336    1.6577   19.5358 N   0  0  0  0  0  0  0  0  0  0  0  0
  1  2  2  0  0  0  0
  1  6  1  0  0  0  0
  1  7  1  0  0  0  0
  2  3  1  0  0  0  0
  3  4  2  0  0  0  0
  4  5  1  0  0  0  0
  4 20  1  0  0  0  0
  5  6  2  0  0  0  0
  7  8  1  0  0  0  0
  8  9  1  0  0  0  0
  9 10  2  0  0  0  0
  9 13  1  0  0  0  0
 10 11  1  0  0  0  0
 11 12  1  0  0  0  0
 12 13  2  0  0  0  0
 12 18  1  0  0  0  0
 13 14  1  0  0  0  0
 14 15  1  0  0  0  0
 14 16  2  0  0  0  0
 16 17  1  0  0  0  0
 17 18  2  0  0  0  0
 17 19  1  0  0  0  0
 20 21  2  0  0  0  0
 20 22  1  0  0  0  0
M  END
>  <CHROM.1>
107.35225156,81.03423073,173.57063023,-31.13708183,3.06998025,2.97285942
21.68839553,0.63361087,0.01677493,-2.35786116

>  <Name>
ligand

>  <RI>
0

>  <Rbt.Current_Directory>
/home/itssahil/PROJECTS/Mol_Feturizer/New_Systems/rnas/4LVY

>  <Rbt.Executable>
rbdock ($Id: //depot/dev/client3/rdock/2013.1/src/exe/rbdock.cxx#4 $)

>  <Rbt.Library>
libRbt.so (2013.1, Build901 2013/11/27)

>  <Rbt.Parameter_File>
/export/apps/rDock/src/rDock_2013.1_src/data/scripts/dock_solv.prm

>  <Rbt.Receptor>
prm/pocket_docking_2.prm

>  <SCORE>
-13.5533

>  <SCORE.INTER>
-13.5621

>  <SCORE.INTER.CONST>
1

>  <SCORE.INTER.POLAR>
0

>  <SCORE.INTER.ROT>
4

>  <SCORE.INTER.SOLV>
18.5493

>  <SCORE.INTER.VDW>
-21.4911

>  <SCORE.INTER.norm>
-0.616458

>  <SCORE.INTRA>
0.00882363

>  <SCORE.INTRA.DIHEDRAL>
0.294677

>  <SCORE.INTRA.DIHEDRAL.0>
6.18831

>  <SCORE.INTRA.POLAR>
0

>  <SCORE.INTRA.POLAR.0>
0

>  <SCORE.INTRA.REPUL>
0

>  <SCORE.INTRA.REPUL.0>
0

>  <SCORE.INTRA.SOLV>
-0.00862479

>  <SCORE.INTRA.SOLV.lig_0>
-44.3465

>  <SCORE.INTRA.VDW>
-0.134202

>  <SCORE.INTRA.VDW.0>
-0.778272

>  <SCORE.INTRA.norm>
0.000401074

>  <SCORE.RESTR>
0

>  <SCORE.RESTR.CAVITY>
0

>  <SCORE.RESTR.norm>
0

>  <SCORE.SYSTEM>
0

>  <SCORE.SYSTEM.CONST>
0

>  <SCORE.SYSTEM.DIHEDRAL>
0

>  <SCORE.SYSTEM.SOLV>
0

>  <SCORE.SYSTEM.norm>
0

>  <SCORE.heavy>
22

>  <SCORE.norm>
-0.616057

>  <RMSD>
0.527

$$$$
ligand
 OpenBabel11021811503D
libRbt.so/2013.1/901 2013/11/27
 22 24  0  0  0  0  0  0  0  0999 V2000
    4.4728    1.3941   20.5505 C   0  0  0  0  0  0  0  0  0  0  0  0
    4.9538    1.9233   19.3343 C   0  0  0  0  0  0  0  0  0  0  0  0
    6.2747    1.6896   18.9619 C   0  0  0  0  0  0  0  0  0  0  0  0
    7.1074    0.9315   19.8034 C   0  0  0  0  0  0  0  0  0  0  0  0
    6.6285    0.4075   21.0293 C   0  0  0  0  0  0  0  0  0  0  0  0
    5.3112    0.6422   21.3993 C   0  0  0  0  0  0  0  0  0  0  0  0
    3.0186    1.6587   20.9858 C   0  0  0  0  0  0  0  0  0  0  0  0
    2.7382    3.0961   21.4911 C   0  0  0  0  0  0  0  0  0  0  0  0
    1.2679    3.3681   21.7871 C   0  0  0  0  0  0  0  0  0  0  0  0
    0.2093    2.7457   21.1185 C   0  0  0  0  0  0  0  0  0  0  0  0
   -0.9384    3.2348   21.6566 N   0  0  0  0  0  0  0  0  0  0  0  0
   -0.6981    4.1569   22.6557 C   0  0  0  0  0  0  0  0  0  0  0  0
    0.6826    4.2720   22.7746 C   0  0  0  0  0  0  0  0  0  0  0  0
    1.1859    5.1894   23.7732 C   0  0  0  0  0  0  0  0  0  0  0  0
    2.5572    5.3489   23.9531 O   0  0  0  0  0  0  0  0  0  0  0  0
    0.2838    5.9089   24.5455 N   0  0  0  0  0  0  0  0  0  0  0  0
   -1.0646    5.7560   24.4006 C   0  0  0  0  0  0  0  0  0  0  0  0
   -1.5667    4.9140   23.4837 N   0  0  0  0  0  0  0  0  0  0  0  0
   -1.9778    6.5263   25.2511 N   0  0  0  0  0  0  0  0  0  0  0  0
    8.5331    0.6986   19.3787 C   0  0  0  0  0  0  0  0  0  0  0  0
    8.8255   -0.2931   18.7131 O   0  0  0  0  0  0  0  0  0  0  0  0
    9.5389    1.6498   19.7705 N   0  0  0  0  0  0  0  0  0  0  0  0
  1  2  2  0  0  0  0
  1  6  1  0  0  0  0
  1  7  1  0  0  0  0
  2  3  1  0  0  0  0
  3  4  2  0  0  0  0
  4  5  1  0  0  0  0
  4 20  1  0  0  0  0
  5  6  2  0  0  0  0
  7  8  1  0  0  0  0
  8  9  1  0  0  0  0
  9 10  2  0  0  0  0
  9 13  1  0  0  0  0
 10 11  1  0  0  0  0
 11 12  1  0  0  0  0
 12 13  2  0  0  0  0
 12 18  1  0  0  0  0
 13 14  1  0  0  0  0
 14 15  1  0  0  0  0
 14 16  2  0  0  0  0
 16 17  1  0  0  0  0
 17 18  2  0  0  0  0
 17 19  1  0  0  0  0
 20 21  2  0  0  0  0
 20 22  1  0  0  0  0
M  END
>  <CHROM.1>
-73.96667764,-90.97277805,174.42213075,-30.07018103,3.06232919,2.99576671
21.70211683,0.63073840,0.02310383,-2.35315418

>  <Name>
ligand

>  <RI>
0

>  <Rbt.Current_Directory>
/home/itssahil/PROJECTS/Mol_Feturizer/New_Systems/rnas/4LVY

>  <Rbt.Executable>
rbdock ($Id: //depot/dev/client3/rdock/2013.1/src/exe/rbdock.cxx#4 $)

>  <Rbt.Library>
libRbt.so (2013.1, Build901 2013/11/27)

>  <Rbt.Parameter_File>
/export/apps/rDock/src/rDock_2013.1_src/data/scripts/dock_solv.prm

>  <Rbt.Receptor>
prm/pocket_docking_2.prm

>  <SCORE>
-13.5492

>  <SCORE.INTER>
-13.4773

>  <SCORE.INTER.CONST>
1

>  <SCORE.INTER.POLAR>
0

>  <SCORE.INTER.ROT>
4

>  <SCORE.INTER.SOLV>
18.4815

>  <SCORE.INTER.VDW>
-21.4121

>  <SCORE.INTER.norm>
-0.612607

>  <SCORE.INTRA>
-0.0718268

>  <SCORE.INTRA.DIHEDRAL>
0.0984402

>  <SCORE.INTRA.DIHEDRAL.0>
6.18831

>  <SCORE.INTRA.POLAR>
0

>  <SCORE.INTRA.POLAR.0>
0

>  <SCORE.INTRA.REPUL>
0

>  <SCORE.INTRA.REPUL.0>
0

>  <SCORE.INTRA.SOLV>
-0.0073109

>  <SCORE.INTRA.SOLV.lig_0>
-44.3465

>  <SCORE.INTRA.VDW>
-0.117391

>  <SCORE.INTRA.VDW.0>
-0.778272

>  <SCORE.INTRA.norm>
-0.00326485

>  <SCORE.RESTR>
0

>  <SCORE.RESTR.CAVITY>
0

>  <SCORE.RESTR.norm>
0

>  <SCORE.SYSTEM>
0

>  <SCORE.SYSTEM.CONST>
0

>  <SCORE.SYSTEM.DIHEDRAL>
0

>  <SCORE.SYSTEM.SOLV>
0

>  <SCORE.SYSTEM.norm>
0

>  <SCORE.heavy>
22

>  <SCORE.norm>
-0.615872

>  <RMSD>
0.528

$$$$
ligand
 OpenBabel11021811503D
libRbt.so/2013.1/901 2013/11/27
 22 24  0  0  0  0  0  0  0  0999 V2000
    4.4798    1.3783   20.5506 C   0  0  0  0  0  0  0  0  0  0  0  0
    4.9907    1.8736   19.3323 C   0  0  0  0  0  0  0  0  0  0  0  0
    6.3140    1.6107   18.9886 C   0  0  0  0  0  0  0  0  0  0  0  0
    7.1191    0.8573   19.8607 C   0  0  0  0  0  0  0  0  0  0  0  0
    6.6102    0.3675   21.0886 C   0  0  0  0  0  0  0  0  0  0  0  0
    5.2907    0.6313   21.4299 C   0  0  0  0  0  0  0  0  0  0  0  0
    3.0228    1.6756   20.9542 C   0  0  0  0  0  0  0  0  0  0  0  0
    2.7733    3.1044   21.4985 C   0  0  0  0  0  0  0  0  0  0  0  0
    1.3039    3.4158   21.7581 C   0  0  0  0  0  0  0  0  0  0  0  0
    0.2476    2.8523   21.0358 C   0  0  0  0  0  0  0  0  0  0  0  0
   -0.9002    3.3616   21.5548 N   0  0  0  0  0  0  0  0  0  0  0  0
   -0.6621    4.2407   22.5923 C   0  0  0  0  0  0  0  0  0  0  0  0
    0.7170    4.3051   22.7579 C   0  0  0  0  0  0  0  0  0  0  0  0
    1.2177    5.1708   23.8029 C   0  0  0  0  0  0  0  0  0  0  0  0
    2.5870    5.2778   24.0306 O   0  0  0  0  0  0  0  0  0  0  0  0
    0.3152    5.8939   24.5714 N   0  0  0  0  0  0  0  0  0  0  0  0
   -1.0321    5.7916   24.3795 C   0  0  0  0  0  0  0  0  0  0  0  0
   -1.5318    4.9984   23.4188 N   0  0  0  0  0  0  0  0  0  0  0  0
   -1.9464    6.5632   25.2276 N   0  0  0  0  0  0  0  0  0  0  0  0
    8.5480    0.5924   19.4665 C   0  0  0  0  0  0  0  0  0  0  0  0
    8.8466   -0.4518   18.8899 O   0  0  0  0  0  0  0  0  0  0  0  0
    9.5495    1.5759   19.7824 N   0  0  0  0  0  0  0  0  0  0  0  0
  1  2  2  0  0  0  0
  1  6  1  0  0  0  0
  1  7  1  0  0  0  0
  2  3  1  0  0  0  0
  3  4  2  0  0  0  0
  4  5  1  0  0  0  0
  4 20  1  0  0  0  0
  5  6  2  0  0  0  0
  7  8  1  0  0  0  0
  8  9  1  0  0  0  0
  9 10  2  0  0  0  0
  9 13  1  0  0  0  0
 10 11  1  0  0  0  0
 11 12  1  0  0  0  0
 12 13  2  0  0  0  0
 12 18  1  0  0  0  0
 13 14  1  0  0  0  0
 14 15  1  0  0  0  0
 14 16  2  0  0  0  0
 16 17  1  0  0  0  0
 17 18  2  0  0  0  0
 17 19  1  0  0  0  0
 20 21  2  0  0  0  0
 20 22  1  0  0  0  0
M  END
>  <CHROM.1>
-77.22315293,-94.84691256,174.22014195,-30.14151241,3.08601416,2.98826182
21.71090506,0.63187309,0.06630888,-2.32004222

>  <Name>
ligand

>  <RI>
0

>  <Rbt.Current_Directory>
/home/itssahil/PROJECTS/Mol_Feturizer/New_Systems/rnas/4LVY

>  <Rbt.Executable>
rbdock ($Id: //depot/dev/client3/rdock/2013.1/src/exe/rbdock.cxx#4 $)

>  <Rbt.Library>
libRbt.so (2013.1, Build901 2013/11/27)

>  <Rbt.Parameter_File>
/export/apps/rDock/src/rDock_2013.1_src/data/scripts/dock_solv.prm

>  <Rbt.Receptor>
prm/pocket_docking_3.prm

>  <SCORE>
-13.4633

>  <SCORE.INTER>
-13.3823

>  <SCORE.INTER.CONST>
1

>  <SCORE.INTER.POLAR>
0

>  <SCORE.INTER.ROT>
4

>  <SCORE.INTER.SOLV>
18.4222

>  <SCORE.INTER.VDW>
-21.3289

>  <SCORE.INTER.norm>
-0.608284

>  <SCORE.INTRA>
-0.0810269

>  <SCORE.INTRA.DIHEDRAL>
0.100089

>  <SCORE.INTRA.DIHEDRAL.0>
6.18831

>  <SCORE.INTRA.POLAR>
0

>  <SCORE.INTRA.POLAR.0>
0

>  <SCORE.INTRA.REPUL>
0

>  <SCORE.INTRA.REPUL.0>
0

>  <SCORE.INTRA.SOLV>
-0.00711548

>  <SCORE.INTRA.SOLV.lig_0>
-44.3465

>  <SCORE.INTRA.VDW>
-0.127514

>  <SCORE.INTRA.VDW.0>
-0.778272

>  <SCORE.INTRA.norm>
-0.00368304

>  <SCORE.RESTR>
0

>  <SCORE.RESTR.CAVITY>
0

>  <SCORE.RESTR.norm>
0

>  <SCORE.SYSTEM>
0

>  <SCORE.SYSTEM.CONST>
0

>  <SCORE.SYSTEM.DIHEDRAL>
0

>  <SCORE.SYSTEM.SOLV>
0

>  <SCORE.SYSTEM.norm>
0

>  <SCORE.heavy>
22

>  <SCORE.norm>
-0.611967

>  <RMSD>
0.530

$$$$
ligand
 OpenBabel11021811503D
libRbt.so/2013.1/901 2013/11/27
 22 24  0  0  0  0  0  0  0  0999 V2000
    4.4485    1.6917   20.0818 C   0  0  0  0  0  0  0  0  0  0  0  0
    5.1611    2.0735   18.9256 C   0  0  0  0  0  0  0  0  0  0  0  0
    6.4754    1.6454   18.7600 C   0  0  0  0  0  0  0  0  0  0  0  0
    7.0710    0.8410   19.7471 C   0  0  0  0  0  0  0  0  0  0  0  0
    6.3598    0.4647   20.9131 C   0  0  0  0  0  0  0  0  0  0  0  0
    5.0495    0.8932   21.0767 C   0  0  0  0  0  0  0  0  0  0  0  0
    2.9991    2.1718   20.2888 C   0  0  0  0  0  0  0  0  0  0  0  0
    2.7557    2.9756   21.5906 C   0  0  0  0  0  0  0  0  0  0  0  0
    1.2928    3.3308   21.8298 C   0  0  0  0  0  0  0  0  0  0  0  0
    0.2289    2.7850   21.1052 C   0  0  0  0  0  0  0  0  0  0  0  0
   -0.9097    3.3333   21.6041 N   0  0  0  0  0  0  0  0  0  0  0  0
   -0.6582    4.2218   22.6305 C   0  0  0  0  0  0  0  0  0  0  0  0
    0.7204    4.2513   22.8095 C   0  0  0  0  0  0  0  0  0  0  0  0
    1.2340    5.1194   23.8463 C   0  0  0  0  0  0  0  0  0  0  0  0
    2.6032    5.1927   24.0868 O   0  0  0  0  0  0  0  0  0  0  0  0
    0.3438    5.8787   24.5940 N   0  0  0  0  0  0  0  0  0  0  0  0
   -1.0038    5.8100   24.3896 C   0  0  0  0  0  0  0  0  0  0  0  0
   -1.5152    5.0157   23.4360 N   0  0  0  0  0  0  0  0  0  0  0  0
   -1.9053    6.6193   25.2160 N   0  0  0  0  0  0  0  0  0  0  0  0
    8.4954    0.3966   19.5450 C   0  0  0  0  0  0  0  0  0  0  0  0
    8.7358   -0.6762   18.9944 O   0  0  0  0  0  0  0  0  0  0  0  0
    9.5604    1.2439   20.0120 N   0  0  0  0  0  0  0  0  0  0  0  0
  1  2  2  0  0  0  0
  1  6  1  0  0  0  0
  1  7  1  0  0  0  0
  2  3  1  0  0  0  0
  3  4  2  0  0  0  0
  4  5  1  0  0  0  0
  4 20  1  0  0  0  0
  5  6  2  0  0  0  0
  7  8  1  0  0  0  0
  8  9  1  0  0  0  0
  9 10  2  0  0  0  0
  9 13  1  0  0  0  0
 10 11  1  0  0  0  0
 11 12  1  0  0  0  0
 12 13  2  0  0  0  0
 12 18  1  0  0  0  0
 13 14  1  0  0  0  0
 14 15  1  0  0  0  0
 14 16  2  0  0  0  0
 16 17  1  0  0  0  0
 17 18  2  0  0  0  0
 17 19  1  0  0  0  0
 20 21  2  0  0  0  0
 20 22  1  0  0  0  0
M  END
>  <CHROM.1>
-122.02521310,-92.16689926,-174.87473015,11.63354455,3.07167932,2.99252119
21.64877085,0.63931438,0.11206155,-2.25167359

>  <Name>
ligand

>  <RI>
0

>  <Rbt.Current_Directory>
/home/itssahil/PROJECTS/Mol_Feturizer/New_Systems/rnas/4LVY

>  <Rbt.Executable>
rbdock ($Id: //depot/dev/client3/rdock/2013.1/src/exe/rbdock.cxx#4 $)

>  <Rbt.Library>
libRbt.so (2013.1, Build901 2013/11/27)

>  <Rbt.Parameter_File>
/export/apps/rDock/src/rDock_2013.1_src/data/scripts/dock_solv.prm

>  <Rbt.Receptor>
prm/pocket_docking_3.prm

>  <SCORE>
-13.3351

>  <SCORE.INTER>
-13.5789

>  <SCORE.INTER.CONST>
1

>  <SCORE.INTER.POLAR>
0

>  <SCORE.INTER.ROT>
4

>  <SCORE.INTER.SOLV>
18.6683

>  <SCORE.INTER.VDW>
-21.5421

>  <SCORE.INTER.norm>
-0.617224

>  <SCORE.INTRA>
0.235624

>  <SCORE.INTRA.DIHEDRAL>
0.101968

>  <SCORE.INTRA.DIHEDRAL.0>
6.18831

>  <SCORE.INTRA.POLAR>
0

>  <SCORE.INTRA.POLAR.0>
0

>  <SCORE.INTRA.REPUL>
0

>  <SCORE.INTRA.REPUL.0>
0

>  <SCORE.INTRA.SOLV>
-0.00740087

>  <SCORE.INTRA.SOLV.lig_0>
-44.3465

>  <SCORE.INTRA.VDW>
0.18834

>  <SCORE.INTRA.VDW.0>
-0.778272

>  <SCORE.INTRA.norm>
0.0107102

>  <SCORE.RESTR>
0.00817956

>  <SCORE.RESTR.CAVITY>
0.00817956

>  <SCORE.RESTR.norm>
0.000371798

>  <SCORE.SYSTEM>
0

>  <SCORE.SYSTEM.CONST>
0

>  <SCORE.SYSTEM.DIHEDRAL>
0

>  <SCORE.SYSTEM.SOLV>
0

>  <SCORE.SYSTEM.norm>
0

>  <SCORE.heavy>
22

>  <SCORE.norm>
-0.606142

>  <RMSD>
0.537

$$$$
ligand
 OpenBabel11021811503D
libRbt.so/2013.1/901 2013/11/27
 22 24  0  0  0  0  0  0  0  0999 V2000
    4.4390    1.3529   20.5874 C   0  0  0  0  0  0  0  0  0  0  0  0
    4.9014    1.8796   19.3629 C   0  0  0  0  0  0  0  0  0  0  0  0
    6.2087    1.6233   18.9586 C   0  0  0  0  0  0  0  0  0  0  0  0
    7.0464    0.8453   19.7767 C   0  0  0  0  0  0  0  0  0  0  0  0
    6.5863    0.3238   21.0109 C   0  0  0  0  0  0  0  0  0  0  0  0
    5.2827    0.5811   21.4127 C   0  0  0  0  0  0  0  0  0  0  0  0
    3.0005    1.6423   21.0578 C   0  0  0  0  0  0  0  0  0  0  0  0
    2.7411    3.1010   21.5101 C   0  0  0  0  0  0  0  0  0  0  0  0
    1.2728    3.4098   21.7787 C   0  0  0  0  0  0  0  0  0  0  0  0
    0.2126    2.8362   21.0702 C   0  0  0  0  0  0  0  0  0  0  0  0
   -0.9327    3.3463   21.5938 N   0  0  0  0  0  0  0  0  0  0  0  0
   -0.6893    4.2358   22.6212 C   0  0  0  0  0  0  0  0  0  0  0  0
    0.6909    4.3063   22.7750 C   0  0  0  0  0  0  0  0  0  0  0  0
    1.1971    5.1833   23.8080 C   0  0  0  0  0  0  0  0  0  0  0  0
    2.5677    5.2970   24.0236 O   0  0  0  0  0  0  0  0  0  0  0  0
    0.2983    5.9104   24.5771 N   0  0  0  0  0  0  0  0  0  0  0  0
   -1.0502    5.8018   24.3971 C   0  0  0  0  0  0  0  0  0  0  0  0
   -1.5548    4.9981   23.4478 N   0  0  0  0  0  0  0  0  0  0  0  0
   -1.9603    6.5780   25.2454 N   0  0  0  0  0  0  0  0  0  0  0  0
    8.4572    0.5881   19.3177 C   0  0  0  0  0  0  0  0  0  0  0  0
    9.1171   -0.3167   19.8256 O   0  0  0  0  0  0  0  0  0  0  0  0
    9.0146    1.4210   18.2854 N   0  0  0  0  0  0  0  0  0  0  0  0
  1  2  2  0  0  0  0
  1  6  1  0  0  0  0
  1  7  1  0  0  0  0
  2  3  1  0  0  0  0
  3  4  2  0  0  0  0
  4  5  1  0  0  0  0
  4 20  1  0  0  0  0
  5  6  2  0  0  0  0
  7  8  1  0  0  0  0
  8  9  1  0  0  0  0
  9 10  2  0  0  0  0
  9 13  1  0  0  0  0
 10 11  1  0  0  0  0
 11 12  1  0  0  0  0
 12 13  2  0  0  0  0
 12 18  1  0  0  0  0
 13 14  1  0  0  0  0
 14 15  1  0  0  0  0
 14 16  2  0  0  0  0
 16 17  1  0  0  0  0
 17 18  2  0  0  0  0
 17 19  1  0  0  0  0
 20 21  2  0  0  0  0
 20 22  1  0  0  0  0
M  END
>  <CHROM.1>
-71.05771614,-163.27352824,171.70854168,-33.59638310,3.04228612,2.98323879
21.69269561,0.64067272,0.07769210,-2.29277833

>  <Name>
ligand

>  <RI>
0

>  <Rbt.Current_Directory>
/home/itssahil/PROJECTS/Mol_Feturizer/New_Systems/rnas/4LVY

>  <Rbt.Executable>
rbdock ($Id: //depot/dev/client3/rdock/2013.1/src/exe/rbdock.cxx#4 $)

>  <Rbt.Library>
libRbt.so (2013.1, Build901 2013/11/27)

>  <Rbt.Parameter_File>
/export/apps/rDock/src/rDock_2013.1_src/data/scripts/dock_solv.prm

>  <Rbt.Receptor>
prm/pocket_docking_3.prm

>  <SCORE>
-13.136

>  <SCORE.INTER>
-13.4136

>  <SCORE.INTER.CONST>
1

>  <SCORE.INTER.POLAR>
0

>  <SCORE.INTER.ROT>
4

>  <SCORE.INTER.SOLV>
18.5909

>  <SCORE.INTER.VDW>
-21.4061

>  <SCORE.INTER.norm>
-0.609711

>  <SCORE.INTRA>
0.26956

>  <SCORE.INTRA.DIHEDRAL>
0.310288

>  <SCORE.INTRA.DIHEDRAL.0>
6.18831

>  <SCORE.INTRA.POLAR>
0

>  <SCORE.INTRA.POLAR.0>
0

>  <SCORE.INTRA.REPUL>
0

>  <SCORE.INTRA.REPUL.0>
0

>  <SCORE.INTRA.SOLV>
0.00921023

>  <SCORE.INTRA.SOLV.lig_0>
-44.3465

>  <SCORE.INTRA.VDW>
0.109811

>  <SCORE.INTRA.VDW.0>
-0.778272

>  <SCORE.INTRA.norm>
0.0122527

>  <SCORE.RESTR>
0.00804537

>  <SCORE.RESTR.CAVITY>
0.00804537

>  <SCORE.RESTR.norm>
0.000365699

>  <SCORE.SYSTEM>
0

>  <SCORE.SYSTEM.CONST>
0

>  <SCORE.SYSTEM.DIHEDRAL>
0

>  <SCORE.SYSTEM.SOLV>
0

>  <SCORE.SYSTEM.norm>
0

>  <SCORE.heavy>
22

>  <SCORE.norm>
-0.597092

>  <RMSD>
0.572

$$$$
ligand
 OpenBabel11021811503D
libRbt.so/2013.1/901 2013/11/27
 22 24  0  0  0  0  0  0  0  0999 V2000
    4.4250    1.5122   20.3193 C   0  0  0  0  0  0  0  0  0  0  0  0
    4.9549    2.0314   19.1192 C   0  0  0  0  0  0  0  0  0  0  0  0
    6.2879    1.7889   18.7991 C   0  0  0  0  0  0  0  0  0  0  0  0
    7.0838    1.0320   19.6766 C   0  0  0  0  0  0  0  0  0  0  0  0
    6.5556    0.5181   20.8864 C   0  0  0  0  0  0  0  0  0  0  0  0
    5.2264    0.7616   21.2042 C   0  0  0  0  0  0  0  0  0  0  0  0
    2.9566    1.7867   20.6969 C   0  0  0  0  0  0  0  0  0  0  0  0
    2.7242    3.0735   21.5277 C   0  0  0  0  0  0  0  0  0  0  0  0
    1.2552    3.3671   21.8092 C   0  0  0  0  0  0  0  0  0  0  0  0
    0.1945    2.7675   21.1234 C   0  0  0  0  0  0  0  0  0  0  0  0
   -0.9512    3.2709   21.6525 N   0  0  0  0  0  0  0  0  0  0  0  0
   -0.7075    4.1807   22.6620 C   0  0  0  0  0  0  0  0  0  0  0  0
    0.6733    4.2722   22.7976 C   0  0  0  0  0  0  0  0  0  0  0  0
    1.1800    5.1731   23.8096 C   0  0  0  0  0  0  0  0  0  0  0  0
    2.5515    5.3087   24.0063 O   0  0  0  0  0  0  0  0  0  0  0  0
    0.2808    5.9009   24.5775 N   0  0  0  0  0  0  0  0  0  0  0  0
   -1.0682    5.7713   24.4159 C   0  0  0  0  0  0  0  0  0  0  0  0
   -1.5733    4.9451   23.4864 N   0  0  0  0  0  0  0  0  0  0  0  0
   -1.9784    6.5494   25.2624 N   0  0  0  0  0  0  0  0  0  0  0  0
    8.5235    0.7894   19.3082 C   0  0  0  0  0  0  0  0  0  0  0  0
    8.8120    0.3581   18.1934 O   0  0  0  0  0  0  0  0  0  0  0  0
    9.5457    1.0643   20.2827 N   0  0  0  0  0  0  0  0  0  0  0  0
  1  2  2  0  0  0  0
  1  6  1  0  0  0  0
  1  7  1  0  0  0  0
  2  3  1  0  0  0  0
  3  4  2  0  0  0  0
  4  5  1  0  0  0  0
  4 20  1  0  0  0  0
  5  6  2  0  0  0  0
  7  8  1  0  0  0  0
  8  9  1  0  0  0  0
  9 10  2  0  0  0  0
  9 13  1  0  0  0  0
 10 11  1  0  0  0  0
 11 12  1  0  0  0  0
 12 13  2  0  0  0  0
 12 18  1  0  0  0  0
 13 14  1  0  0  0  0
 14 15  1  0  0  0  0
 14 16  2  0  0  0  0
 16 17  1  0  0  0  0
 17 18  2  0  0  0  0
 17 19  1  0  0  0  0
 20 21  2  0  0  0  0
 20 22  1  0  0  0  0
M  END
>  <CHROM.1>
-89.65917581,-50.56496299,176.25255840,-15.79860562,3.04496914,3.04363416
21.64731573,0.63118821,0.06816467,-2.26300488

>  <Name>
ligand

>  <RI>
0

>  <Rbt.Current_Directory>
/home/itssahil/PROJECTS/Mol_Feturizer/New_Systems/rnas/4LVY

>  <Rbt.Executable>
rbdock ($Id: //depot/dev/client3/rdock/2013.1/src/exe/rbdock.cxx#4 $)

>  <Rbt.Library>
libRbt.so (2013.1, Build901 2013/11/27)

>  <Rbt.Parameter_File>
/export/apps/rDock/src/rDock_2013.1_src/data/scripts/dock_solv.prm

>  <Rbt.Receptor>
prm/pocket_docking_2.prm

>  <SCORE>
-13.319

>  <SCORE.INTER>
-13.4353

>  <SCORE.INTER.CONST>
1

>  <SCORE.INTER.POLAR>
0

>  <SCORE.INTER.ROT>
4

>  <SCORE.INTER.SOLV>
18.7472

>  <SCORE.INTER.VDW>
-21.4726

>  <SCORE.INTER.norm>
-0.610694

>  <SCORE.INTRA>
0.116306

>  <SCORE.INTRA.DIHEDRAL>
0.038689

>  <SCORE.INTRA.DIHEDRAL.0>
6.18831

>  <SCORE.INTRA.POLAR>
0

>  <SCORE.INTRA.POLAR.0>
0

>  <SCORE.INTRA.REPUL>
0

>  <SCORE.INTRA.REPUL.0>
0

>  <SCORE.INTRA.SOLV>
-0.00149456

>  <SCORE.INTRA.SOLV.lig_0>
-44.3465

>  <SCORE.INTRA.VDW>
0.0977085

>  <SCORE.INTRA.VDW.0>
-0.778272

>  <SCORE.INTRA.norm>
0.00528662

>  <SCORE.RESTR>
0

>  <SCORE.RESTR.CAVITY>
0

>  <SCORE.RESTR.norm>
0

>  <SCORE.SYSTEM>
0

>  <SCORE.SYSTEM.CONST>
0

>  <SCORE.SYSTEM.DIHEDRAL>
0

>  <SCORE.SYSTEM.SOLV>
0

>  <SCORE.SYSTEM.norm>
0

>  <SCORE.heavy>
22

>  <SCORE.norm>
-0.605408

>  <RMSD>
0.589

$$$$
ligand
 OpenBabel11021811503D
libRbt.so/2013.1/901 2013/11/27
 22 24  0  0  0  0  0  0  0  0999 V2000
    4.5339    1.3945   20.5804 C   0  0  0  0  0  0  0  0  0  0  0  0
    5.4310    0.6176   21.3434 C   0  0  0  0  0  0  0  0  0  0  0  0
    6.7233    0.4046   20.8713 C   0  0  0  0  0  0  0  0  0  0  0  0
    7.1127    0.9661   19.6427 C   0  0  0  0  0  0  0  0  0  0  0  0
    6.2101    1.7385   18.8711 C   0  0  0  0  0  0  0  0  0  0  0  0
    4.9217    1.9491   19.3431 C   0  0  0  0  0  0  0  0  0  0  0  0
    3.0946    1.6247   21.0800 C   0  0  0  0  0  0  0  0  0  0  0  0
    2.7710    3.0820   21.4941 C   0  0  0  0  0  0  0  0  0  0  0  0
    1.2933    3.3277   21.7760 C   0  0  0  0  0  0  0  0  0  0  0  0
    0.2525    2.6857   21.0981 C   0  0  0  0  0  0  0  0  0  0  0  0
   -0.9088    3.1545   21.6249 N   0  0  0  0  0  0  0  0  0  0  0  0
   -0.6947    4.0815   22.6253 C   0  0  0  0  0  0  0  0  0  0  0  0
    0.6825    4.2216   22.7571 C   0  0  0  0  0  0  0  0  0  0  0  0
    1.1598    5.1488   23.7595 C   0  0  0  0  0  0  0  0  0  0  0  0
    2.5261    5.3332   23.9521 O   0  0  0  0  0  0  0  0  0  0  0  0
    0.2375    5.8526   24.5225 N   0  0  0  0  0  0  0  0  0  0  0  0
   -1.1065    5.6752   24.3651 C   0  0  0  0  0  0  0  0  0  0  0  0
   -1.5846    4.8235   23.4444 N   0  0  0  0  0  0  0  0  0  0  0  0
   -2.0414    6.4296   25.2062 N   0  0  0  0  0  0  0  0  0  0  0  0
    8.5146    0.7155   19.1535 C   0  0  0  0  0  0  0  0  0  0  0  0
    8.7095   -0.0172   18.1854 O   0  0  0  0  0  0  0  0  0  0  0  0
    9.6126    1.3409   19.8413 N   0  0  0  0  0  0  0  0  0  0  0  0
  1  2  2  0  0  0  0
  1  6  1  0  0  0  0
  1  7  1  0  0  0  0
  2  3  1  0  0  0  0
  3  4  2  0  0  0  0
  4  5  1  0  0  0  0
  4 20  1  0  0  0  0
  5  6  2  0  0  0  0
  7  8  1  0  0  0  0
  8  9  1  0  0  0  0
  9 10  2  0  0  0  0
  9 13  1  0  0  0  0
 10 11  1  0  0  0  0
 11 12  1  0  0  0  0
 12 13  2  0  0  0  0
 12 18  1  0  0  0  0
 13 14  1  0  0  0  0
 14 15  1  0  0  0  0
 14 16  2  0  0  0  0
 16 17  1  0  0  0  0
 17 18  2  0  0  0  0
 17 19  1  0  0  0  0
 20 21  2  0  0  0  0
 20 22  1  0  0  0  0
M  END
>  <CHROM.1>
112.06953890,109.59737861,171.00844073,-33.76663361,3.06535778,2.96655424
21.64125055,0.63271092,0.02677237,-2.32167946

>  <Name>
ligand

>  <RI>
0

>  <Rbt.Current_Directory>
/home/itssahil/PROJECTS/Mol_Feturizer/New_Systems/rnas/4LVY

>  <Rbt.Executable>
rbdock ($Id: //depot/dev/client3/rdock/2013.1/src/exe/rbdock.cxx#4 $)

>  <Rbt.Library>
libRbt.so (2013.1, Build901 2013/11/27)

>  <Rbt.Parameter_File>
/export/apps/rDock/src/rDock_2013.1_src/data/scripts/dock_solv.prm

>  <Rbt.Receptor>
prm/pocket_docking_2.prm

>  <SCORE>
-13.4769

>  <SCORE.INTER>
-13.5551

>  <SCORE.INTER.CONST>
1

>  <SCORE.INTER.POLAR>
0

>  <SCORE.INTER.ROT>
4

>  <SCORE.INTER.SOLV>
18.7555

>  <SCORE.INTER.VDW>
-21.5552

>  <SCORE.INTER.norm>
-0.61614

>  <SCORE.INTRA>
0.0781754

>  <SCORE.INTRA.DIHEDRAL>
0.428537

>  <SCORE.INTRA.DIHEDRAL.0>
6.18831

>  <SCORE.INTRA.POLAR>
0

>  <SCORE.INTRA.POLAR.0>
0

>  <SCORE.INTRA.REPUL>
0

>  <SCORE.INTRA.REPUL.0>
0

>  <SCORE.INTRA.SOLV>
-0.00620032

>  <SCORE.INTRA.SOLV.lig_0>
-44.3465

>  <SCORE.INTRA.VDW>
-0.132993

>  <SCORE.INTRA.VDW.0>
-0.778272

>  <SCORE.INTRA.norm>
0.00355343

>  <SCORE.RESTR>
0

>  <SCORE.RESTR.CAVITY>
0

>  <SCORE.RESTR.norm>
0

>  <SCORE.SYSTEM>
0

>  <SCORE.SYSTEM.CONST>
0

>  <SCORE.SYSTEM.DIHEDRAL>
0

>  <SCORE.SYSTEM.SOLV>
0

>  <SCORE.SYSTEM.norm>
0

>  <SCORE.heavy>
22

>  <SCORE.norm>
-0.612587

>  <RMSD>
0.601

$$$$
ligand
 OpenBabel11021811503D
libRbt.so/2013.1/901 2013/11/27
 22 24  0  0  0  0  0  0  0  0999 V2000
    4.5167    1.4077   20.5899 C   0  0  0  0  0  0  0  0  0  0  0  0
    5.3933    0.6182   21.3639 C   0  0  0  0  0  0  0  0  0  0  0  0
    6.6909    0.3940   20.9119 C   0  0  0  0  0  0  0  0  0  0  0  0
    7.1060    0.9566   19.6924 C   0  0  0  0  0  0  0  0  0  0  0  0
    6.2240    1.7416   18.9096 C   0  0  0  0  0  0  0  0  0  0  0  0
    4.9303    1.9634   19.3616 C   0  0  0  0  0  0  0  0  0  0  0  0
    3.0719    1.6506   21.0671 C   0  0  0  0  0  0  0  0  0  0  0  0
    2.7609    3.1061   21.4969 C   0  0  0  0  0  0  0  0  0  0  0  0
    1.2858    3.3605   21.7847 C   0  0  0  0  0  0  0  0  0  0  0  0
    0.2384    2.7314   21.1047 C   0  0  0  0  0  0  0  0  0  0  0  0
   -0.9180    3.2048   21.6383 N   0  0  0  0  0  0  0  0  0  0  0  0
   -0.6942    4.1226   22.6451 C   0  0  0  0  0  0  0  0  0  0  0  0
    0.6843    4.2515   22.7742 C   0  0  0  0  0  0  0  0  0  0  0  0
    1.1711    5.1675   23.7823 C   0  0  0  0  0  0  0  0  0  0  0  0
    2.5393    5.3403   23.9725 O   0  0  0  0  0  0  0  0  0  0  0  0
    0.2562    5.8722   24.5531 N   0  0  0  0  0  0  0  0  0  0  0  0
   -1.0895    5.7060   24.3980 C   0  0  0  0  0  0  0  0  0  0  0  0
   -1.5765    4.8649   23.4722 N   0  0  0  0  0  0  0  0  0  0  0  0
   -2.0165    6.4609   25.2474 N   0  0  0  0  0  0  0  0  0  0  0  0
    8.5129    0.6936   19.2248 C   0  0  0  0  0  0  0  0  0  0  0  0
    8.7124    0.1584   18.1359 O   0  0  0  0  0  0  0  0  0  0  0  0
    9.6098    1.0726   20.0753 N   0  0  0  0  0  0  0  0  0  0  0  0
  1  2  2  0  0  0  0
  1  6  1  0  0  0  0
  1  7  1  0  0  0  0
  2  3  1  0  0  0  0
  3  4  2  0  0  0  0
  4  5  1  0  0  0  0
  4 20  1  0  0  0  0
  5  6  2  0  0  0  0
  7  8  1  0  0  0  0
  8  9  1  0  0  0  0
  9 10  2  0  0  0  0
  9 13  1  0  0  0  0
 10 11  1  0  0  0  0
 11 12  1  0  0  0  0
 12 13  2  0  0  0  0
 12 18  1  0  0  0  0
 13 14  1  0  0  0  0
 14 15  1  0  0  0  0
 14 16  2  0  0  0  0
 16 17  1  0  0  0  0
 17 18  2  0  0  0  0
 17 19  1  0  0  0  0
 20 21  2  0  0  0  0
 20 22  1  0  0  0  0
M  END
>  <CHROM.1>
111.43464218,122.00388519,172.23973374,-33.60656601,3.06389993,2.98096139
21.67106557,0.63261862,0.05299448,-2.29460972

>  <Name>
ligand

>  <RI>
0

>  <Rbt.Current_Directory>
/home/itssahil/PROJECTS/Mol_Feturizer/New_Systems/rnas/4LVY

>  <Rbt.Executable>
rbdock ($Id: //depot/dev/client3/rdock/2013.1/src/exe/rbdock.cxx#4 $)

>  <Rbt.Library>
libRbt.so (2013.1, Build901 2013/11/27)

>  <Rbt.Parameter_File>
/export/apps/rDock/src/rDock_2013.1_src/data/scripts/dock_solv.prm

>  <Rbt.Receptor>
prm/pocket_docking_2.prm

>  <SCORE>
-13.4226

>  <SCORE.INTER>
-13.4852

>  <SCORE.INTER.CONST>
1

>  <SCORE.INTER.POLAR>
0

>  <SCORE.INTER.ROT>
4

>  <SCORE.INTER.SOLV>
18.75

>  <SCORE.INTER.VDW>
-21.5068

>  <SCORE.INTER.norm>
-0.612962

>  <SCORE.INTRA>
0.0625487

>  <SCORE.INTRA.DIHEDRAL>
0.329834

>  <SCORE.INTRA.DIHEDRAL.0>
6.18831

>  <SCORE.INTRA.POLAR>
0

>  <SCORE.INTRA.POLAR.0>
0

>  <SCORE.INTRA.REPUL>
0

>  <SCORE.INTRA.REPUL.0>
0

>  <SCORE.INTRA.SOLV>
-0.00291695

>  <SCORE.INTRA.SOLV.lig_0>
-44.3465

>  <SCORE.INTRA.VDW>
-0.10091

>  <SCORE.INTRA.VDW.0>
-0.778272

>  <SCORE.INTRA.norm>
0.00284312

>  <SCORE.RESTR>
0

>  <SCORE.RESTR.CAVITY>
0

>  <SCORE.RESTR.norm>
0

>  <SCORE.SYSTEM>
0

>  <SCORE.SYSTEM.CONST>
0

>  <SCORE.SYSTEM.DIHEDRAL>
0

>  <SCORE.SYSTEM.SOLV>
0

>  <SCORE.SYSTEM.norm>
0

>  <SCORE.heavy>
22

>  <SCORE.norm>
-0.610119

>  <RMSD>
0.636

$$$$
ligand
 OpenBabel11021811503D
libRbt.so/2013.1/901 2013/11/27
 22 24  0  0  0  0  0  0  0  0999 V2000
    4.4486    1.3887   20.5164 C   0  0  0  0  0  0  0  0  0  0  0  0
    5.1916    0.6127   21.4309 C   0  0  0  0  0  0  0  0  0  0  0  0
    6.5185    0.3030   21.1448 C   0  0  0  0  0  0  0  0  0  0  0  0
    7.0955    0.7674   19.9500 C   0  0  0  0  0  0  0  0  0  0  0  0
    6.3478    1.5386   19.0264 C   0  0  0  0  0  0  0  0  0  0  0  0
    5.0247    1.8458   19.3131 C   0  0  0  0  0  0  0  0  0  0  0  0
    2.9738    1.7251   20.8095 C   0  0  0  0  0  0  0  0  0  0  0  0
    2.7401    3.0868   21.5103 C   0  0  0  0  0  0  0  0  0  0  0  0
    1.2703    3.4094   21.7531 C   0  0  0  0  0  0  0  0  0  0  0  0
    0.2191    2.8686   21.0064 C   0  0  0  0  0  0  0  0  0  0  0  0
   -0.9309    3.3816   21.5165 N   0  0  0  0  0  0  0  0  0  0  0  0
   -0.6993    4.2416   22.5714 C   0  0  0  0  0  0  0  0  0  0  0  0
    0.6778    4.2889   22.7583 C   0  0  0  0  0  0  0  0  0  0  0  0
    1.1717    5.1326   23.8243 C   0  0  0  0  0  0  0  0  0  0  0  0
    2.5384    5.2216   24.0738 O   0  0  0  0  0  0  0  0  0  0  0  0
    0.2653    5.8529   24.5908 N   0  0  0  0  0  0  0  0  0  0  0  0
   -1.0800    5.7678   24.3775 C   0  0  0  0  0  0  0  0  0  0  0  0
   -1.5734    4.9952   23.3970 N   0  0  0  0  0  0  0  0  0  0  0  0
   -1.9989    6.5354   25.2243 N   0  0  0  0  0  0  0  0  0  0  0  0
    8.5307    0.4133   19.6633 C   0  0  0  0  0  0  0  0  0  0  0  0
    8.8058   -0.3540   18.7427 O   0  0  0  0  0  0  0  0  0  0  0  0
    9.5644    0.9818   20.4869 N   0  0  0  0  0  0  0  0  0  0  0  0
  1  2  2  0  0  0  0
  1  6  1  0  0  0  0
  1  7  1  0  0  0  0
  2  3  1  0  0  0  0
  3  4  2  0  0  0  0
  4  5  1  0  0  0  0
  4 20  1  0  0  0  0
  5  6  2  0  0  0  0
  7  8  1  0  0  0  0
  8  9  1  0  0  0  0
  9 10  2  0  0  0  0
  9 13  1  0  0  0  0
 10 11  1  0  0  0  0
 11 12  1  0  0  0  0
 12 13  2  0  0  0  0
 12 18  1  0  0  0  0
 13 14  1  0  0  0  0
 14 15  1  0  0  0  0
 14 16  2  0  0  0  0
 16 17  1  0  0  0  0
 17 18  2  0  0  0  0
 17 19  1  0  0  0  0
 20 21  2  0  0  0  0
 20 22  1  0  0  0  0
M  END
>  <CHROM.1>
94.24875534,111.85545063,178.42469506,-24.05415178,3.05123482,2.93917844
21.74317470,0.62067174,0.13489463,-2.25272718

>  <Name>
ligand

>  <RI>
0

>  <Rbt.Current_Directory>
/home/itssahil/PROJECTS/Mol_Feturizer/New_Systems/rnas/4LVY

>  <Rbt.Executable>
rbdock ($Id: //depot/dev/client3/rdock/2013.1/src/exe/rbdock.cxx#4 $)

>  <Rbt.Library>
libRbt.so (2013.1, Build901 2013/11/27)

>  <Rbt.Parameter_File>
/export/apps/rDock/src/rDock_2013.1_src/data/scripts/dock_solv.prm

>  <Rbt.Receptor>
prm/pocket_docking_3.prm

>  <SCORE>
-13.3406

>  <SCORE.INTER>
-13.3615

>  <SCORE.INTER.CONST>
1

>  <SCORE.INTER.POLAR>
0

>  <SCORE.INTER.ROT>
4

>  <SCORE.INTER.SOLV>
18.7069

>  <SCORE.INTER.VDW>
-21.41

>  <SCORE.INTER.norm>
-0.607342

>  <SCORE.INTRA>
0.0208701

>  <SCORE.INTRA.DIHEDRAL>
0.144365

>  <SCORE.INTRA.DIHEDRAL.0>
6.18831

>  <SCORE.INTRA.POLAR>
0

>  <SCORE.INTRA.POLAR.0>
0

>  <SCORE.INTRA.REPUL>
0

>  <SCORE.INTRA.REPUL.0>
0

>  <SCORE.INTRA.SOLV>
-0.0056716

>  <SCORE.INTRA.SOLV.lig_0>
-44.3465

>  <SCORE.INTRA.VDW>
-0.0484765

>  <SCORE.INTRA.VDW.0>
-0.778272

>  <SCORE.INTRA.norm>
0.000948641

>  <SCORE.RESTR>
0

>  <SCORE.RESTR.CAVITY>
0

>  <SCORE.RESTR.norm>
0

>  <SCORE.SYSTEM>
0

>  <SCORE.SYSTEM.CONST>
0

>  <SCORE.SYSTEM.DIHEDRAL>
0

>  <SCORE.SYSTEM.SOLV>
0

>  <SCORE.SYSTEM.norm>
0

>  <SCORE.heavy>
22

>  <SCORE.norm>
-0.606393

>  <RMSD>
0.653

$$$$
ligand
 OpenBabel11021811503D
libRbt.so/2013.1/901 2013/11/27
 22 24  0  0  0  0  0  0  0  0999 V2000
    4.4444    1.3512   20.5819 C   0  0  0  0  0  0  0  0  0  0  0  0
    4.9394    1.8570   19.3613 C   0  0  0  0  0  0  0  0  0  0  0  0
    6.2588    1.5992   18.9993 C   0  0  0  0  0  0  0  0  0  0  0  0
    7.0759    0.8406   19.8554 C   0  0  0  0  0  0  0  0  0  0  0  0
    6.5830    0.3401   21.0856 C   0  0  0  0  0  0  0  0  0  0  0  0
    5.2673    0.5988   21.4452 C   0  0  0  0  0  0  0  0  0  0  0  0
    2.9919    1.6426   21.0057 C   0  0  0  0  0  0  0  0  0  0  0  0
    2.7365    3.0816   21.5194 C   0  0  0  0  0  0  0  0  0  0  0  0
    1.2667    3.3896   21.7809 C   0  0  0  0  0  0  0  0  0  0  0  0
    0.2107    2.8221   21.0614 C   0  0  0  0  0  0  0  0  0  0  0  0
   -0.9375    3.3292   21.5814 N   0  0  0  0  0  0  0  0  0  0  0  0
   -0.7000    4.2108   22.6171 C   0  0  0  0  0  0  0  0  0  0  0  0
    0.6792    4.2790   22.7802 C   0  0  0  0  0  0  0  0  0  0  0  0
    1.1794    5.1479   23.8229 C   0  0  0  0  0  0  0  0  0  0  0  0
    2.5487    5.2589   24.0480 O   0  0  0  0  0  0  0  0  0  0  0  0
    0.2763    5.8699   24.5916 N   0  0  0  0  0  0  0  0  0  0  0  0
   -1.0711    5.7637   24.4022 C   0  0  0  0  0  0  0  0  0  0  0  0
   -1.5703    4.9676   23.4438 N   0  0  0  0  0  0  0  0  0  0  0  0
   -1.9860    6.5343   25.2506 N   0  0  0  0  0  0  0  0  0  0  0  0
    8.5003    0.5814   19.4416 C   0  0  0  0  0  0  0  0  0  0  0  0
    8.7635    0.3035   18.2731 O   0  0  0  0  0  0  0  0  0  0  0  0
    9.5375    0.6586   20.4357 N   0  0  0  0  0  0  0  0  0  0  0  0
  1  2  2  0  0  0  0
  1  6  1  0  0  0  0
  1  7  1  0  0  0  0
  2  3  1  0  0  0  0
  3  4  2  0  0  0  0
  4  5  1  0  0  0  0
  4 20  1  0  0  0  0
  5  6  2  0  0  0  0
  7  8  1  0  0  0  0
  8  9  1  0  0  0  0
  9 10  2  0  0  0  0
  9 13  1  0  0  0  0
 10 11  1  0  0  0  0
 11 12  1  0  0  0  0
 12 13  2  0  0  0  0
 12 18  1  0  0  0  0
 13 14  1  0  0  0  0
 14 15  1  0  0  0  0
 14 16  2  0  0  0  0
 16 17  1  0  0  0  0
 17 18  2  0  0  0  0
 17 19  1  0  0  0  0
 20 21  2  0  0  0  0
 20 22  1  0  0  0  0
M  END
>  <CHROM.1>
-75.24771123,-41.31937901,173.42521966,-31.37112033,3.04634602,2.96327982
21.72559252,0.62650098,0.11490127,-2.24657959

>  <Name>
ligand

>  <RI>
0

>  <Rbt.Current_Directory>
/home/itssahil/PROJECTS/Mol_Feturizer/New_Systems/rnas/4LVY

>  <Rbt.Executable>
rbdock ($Id: //depot/dev/client3/rdock/2013.1/src/exe/rbdock.cxx#4 $)

>  <Rbt.Library>
libRbt.so (2013.1, Build901 2013/11/27)

>  <Rbt.Parameter_File>
/export/apps/rDock/src/rDock_2013.1_src/data/scripts/dock_solv.prm

>  <Rbt.Receptor>
prm/pocket_docking_2.prm

>  <SCORE>
-13.2886

>  <SCORE.INTER>
-13.3863

>  <SCORE.INTER.CONST>
1

>  <SCORE.INTER.POLAR>
0

>  <SCORE.INTER.ROT>
4

>  <SCORE.INTER.SOLV>
18.7914

>  <SCORE.INTER.VDW>
-21.4546

>  <SCORE.INTER.norm>
-0.608467

>  <SCORE.INTRA>
0.0976367

>  <SCORE.INTRA.DIHEDRAL>
0.195494

>  <SCORE.INTRA.DIHEDRAL.0>
6.18831

>  <SCORE.INTRA.POLAR>
0

>  <SCORE.INTRA.POLAR.0>
0

>  <SCORE.INTRA.REPUL>
0

>  <SCORE.INTRA.REPUL.0>
0

>  <SCORE.INTRA.SOLV>
0.00107903

>  <SCORE.INTRA.SOLV.lig_0>
-44.3465

>  <SCORE.INTRA.VDW>
-0.000649863

>  <SCORE.INTRA.VDW.0>
-0.778272

>  <SCORE.INTRA.norm>
0.00443803

>  <SCORE.RESTR>
0

>  <SCORE.RESTR.CAVITY>
0

>  <SCORE.RESTR.norm>
0

>  <SCORE.SYSTEM>
0

>  <SCORE.SYSTEM.CONST>
0

>  <SCORE.SYSTEM.DIHEDRAL>
0

>  <SCORE.SYSTEM.SOLV>
0

>  <SCORE.SYSTEM.norm>
0

>  <SCORE.heavy>
22

>  <SCORE.norm>
-0.604029

>  <RMSD>
0.710

$$$$
ligand
 OpenBabel11021811503D
libRbt.so/2013.1/901 2013/11/27
 22 24  0  0  0  0  0  0  0  0999 V2000
    4.9243    1.3192   20.3976 C   0  0  0  0  0  0  0  0  0  0  0  0
    5.8993    0.5772   21.0973 C   0  0  0  0  0  0  0  0  0  0  0  0
    7.1684    0.4247   20.5456 C   0  0  0  0  0  0  0  0  0  0  0  0
    7.4573    1.0111   19.3011 C   0  0  0  0  0  0  0  0  0  0  0  0
    6.4764    1.7484   18.5931 C   0  0  0  0  0  0  0  0  0  0  0  0
    5.2113    1.8988   19.1444 C   0  0  0  0  0  0  0  0  0  0  0  0
    3.5096    1.4823   20.9858 C   0  0  0  0  0  0  0  0  0  0  0  0
    2.9742    2.9359   21.0088 C   0  0  0  0  0  0  0  0  0  0  0  0
    1.4811    3.0369   21.2985 C   0  0  0  0  0  0  0  0  0  0  0  0
    0.5045    2.2922   20.6302 C   0  0  0  0  0  0  0  0  0  0  0  0
   -0.6942    2.6477   21.1619 N   0  0  0  0  0  0  0  0  0  0  0  0
   -0.5664    3.5967   22.1564 C   0  0  0  0  0  0  0  0  0  0  0  0
    0.7911    3.8720   22.2790 C   0  0  0  0  0  0  0  0  0  0  0  0
    1.1807    4.8471   23.2738 C   0  0  0  0  0  0  0  0  0  0  0  0
    2.5234    5.1657   23.4571 O   0  0  0  0  0  0  0  0  0  0  0  0
    0.1981    5.4612   24.0390 N   0  0  0  0  0  0  0  0  0  0  0  0
   -1.1228    5.1519   23.8907 C   0  0  0  0  0  0  0  0  0  0  0  0
   -1.5203    4.2523   22.9772 N   0  0  0  0  0  0  0  0  0  0  0  0
   -2.1225    5.8156   24.7339 N   0  0  0  0  0  0  0  0  0  0  0  0
    8.8362    0.8259   18.7253 C   0  0  0  0  0  0  0  0  0  0  0  0
    9.2208   -0.2930   18.3903 O   0  0  0  0  0  0  0  0  0  0  0  0
    9.6897    1.9753   18.5827 N   0  0  0  0  0  0  0  0  0  0  0  0
  1  2  2  0  0  0  0
  1  6  1  0  0  0  0
  1  7  1  0  0  0  0
  2  3  1  0  0  0  0
  3  4  2  0  0  0  0
  4  5  1  0  0  0  0
  4 20  1  0  0  0  0
  5  6  2  0  0  0  0
  7  8  1  0  0  0  0
  8  9  1  0  0  0  0
  9 10  2  0  0  0  0
  9 13  1  0  0  0  0
 10 11  1  0  0  0  0
 11 12  1  0  0  0  0
 12 13  2  0  0  0  0
 12 18  1  0  0  0  0
 13 14  1  0  0  0  0
 14 15  1  0  0  0  0
 14 16  2  0  0  0  0
 16 17  1  0  0  0  0
 17 18  2  0  0  0  0
 17 19  1  0  0  0  0
 20 21  2  0  0  0  0
 20 22  1  0  0  0  0
M  END
>  <CHROM.1>
130.86787931,65.69144196,167.13159263,-49.74607250,3.27019587,2.75918658
21.23907583,0.57608476,-0.06081341,-2.39941022

>  <Name>
ligand

>  <RI>
0

>  <Rbt.Current_Directory>
/home/itssahil/PROJECTS/Mol_Feturizer/New_Systems/rnas/4LVY

>  <Rbt.Executable>
rbdock ($Id: //depot/dev/client3/rdock/2013.1/src/exe/rbdock.cxx#4 $)

>  <Rbt.Library>
libRbt.so (2013.1, Build901 2013/11/27)

>  <Rbt.Parameter_File>
/export/apps/rDock/src/rDock_2013.1_src/data/scripts/dock_solv.prm

>  <Rbt.Receptor>
prm/pocket_docking_3.prm

>  <SCORE>
-13.1116

>  <SCORE.INTER>
-13.3117

>  <SCORE.INTER.CONST>
1

>  <SCORE.INTER.POLAR>
0

>  <SCORE.INTER.ROT>
4

>  <SCORE.INTER.SOLV>
16.7578

>  <SCORE.INTER.VDW>
-20.7271

>  <SCORE.INTER.norm>
-0.605076

>  <SCORE.INTRA>
0.200026

>  <SCORE.INTRA.DIHEDRAL>
0.674915

>  <SCORE.INTRA.DIHEDRAL.0>
6.18831

>  <SCORE.INTRA.POLAR>
0

>  <SCORE.INTRA.POLAR.0>
0

>  <SCORE.INTRA.REPUL>
0

>  <SCORE.INTRA.REPUL.0>
0

>  <SCORE.INTRA.SOLV>
0.00920016

>  <SCORE.INTRA.SOLV.lig_0>
-44.3465

>  <SCORE.INTRA.VDW>
-0.142032

>  <SCORE.INTRA.VDW.0>
-0.778272

>  <SCORE.INTRA.norm>
0.00909209

>  <SCORE.RESTR>
0

>  <SCORE.RESTR.CAVITY>
0

>  <SCORE.RESTR.norm>
0

>  <SCORE.SYSTEM>
0

>  <SCORE.SYSTEM.CONST>
0

>  <SCORE.SYSTEM.DIHEDRAL>
0

>  <SCORE.SYSTEM.SOLV>
0

>  <SCORE.SYSTEM.norm>
0

>  <SCORE.heavy>
22

>  <SCORE.norm>
-0.595984

>  <RMSD>
0.770

$$$$
ligand
 OpenBabel11021811503D
libRbt.so/2013.1/901 2013/11/27
 22 24  0  0  0  0  0  0  0  0999 V2000
    4.9368    1.2966   20.4307 C   0  0  0  0  0  0  0  0  0  0  0  0
    5.8823    0.5297   21.1436 C   0  0  0  0  0  0  0  0  0  0  0  0
    7.1642    0.3697   20.6245 C   0  0  0  0  0  0  0  0  0  0  0  0
    7.4950    0.9738   19.3990 C   0  0  0  0  0  0  0  0  0  0  0  0
    6.5438    1.7363   18.6774 C   0  0  0  0  0  0  0  0  0  0  0  0
    5.2659    1.8940   19.1964 C   0  0  0  0  0  0  0  0  0  0  0  0
    3.5085    1.4685   20.9826 C   0  0  0  0  0  0  0  0  0  0  0  0
    2.9679    2.9200   20.9582 C   0  0  0  0  0  0  0  0  0  0  0  0
    1.4812    3.0282   21.2766 C   0  0  0  0  0  0  0  0  0  0  0  0
    0.4891    2.2823   20.6328 C   0  0  0  0  0  0  0  0  0  0  0  0
   -0.6977    2.6455   21.1856 N   0  0  0  0  0  0  0  0  0  0  0  0
   -0.5471    3.6008   22.1709 C   0  0  0  0  0  0  0  0  0  0  0  0
    0.8134    3.8722   22.2648 C   0  0  0  0  0  0  0  0  0  0  0  0
    1.2258    4.8525   23.2452 C   0  0  0  0  0  0  0  0  0  0  0  0
    2.5730    5.1677   23.3998 O   0  0  0  0  0  0  0  0  0  0  0  0
    0.2607    5.4751   24.0255 N   0  0  0  0  0  0  0  0  0  0  0  0
   -1.0640    5.1694   23.9054 C   0  0  0  0  0  0  0  0  0  0  0  0
   -1.4824    4.2651   23.0060 N   0  0  0  0  0  0  0  0  0  0  0  0
   -2.0446    5.8421   24.7636 N   0  0  0  0  0  0  0  0  0  0  0  0
    8.8869    0.7801   18.8582 C   0  0  0  0  0  0  0  0  0  0  0  0
    9.1299   -0.1554   18.0980 O   0  0  0  0  0  0  0  0  0  0  0  0
    9.9196    1.7013   19.2518 N   0  0  0  0  0  0  0  0  0  0  0  0
  1  2  2  0  0  0  0
  1  6  1  0  0  0  0
  1  7  1  0  0  0  0
  2  3  1  0  0  0  0
  3  4  2  0  0  0  0
  4  5  1  0  0  0  0
  4 20  1  0  0  0  0
  5  6  2  0  0  0  0
  7  8  1  0  0  0  0
  8  9  1  0  0  0  0
  9 10  2  0  0  0  0
  9 13  1  0  0  0  0
 10 11  1  0  0  0  0
 11 12  1  0  0  0  0
 12 13  2  0  0  0  0
 12 18  1  0  0  0  0
 13 14  1  0  0  0  0
 14 15  1  0  0  0  0
 14 16  2  0  0  0  0
 16 17  1  0  0  0  0
 17 18  2  0  0  0  0
 17 19  1  0  0  0  0
 20 21  2  0  0  0  0
 20 22  1  0  0  0  0
M  END
>  <CHROM.1>
133.46053666,91.47667919,169.87289321,-51.74517074,3.30124949,2.74555162
21.27366528,0.57356721,-0.03323538,-2.37649543

>  <Name>
ligand

>  <RI>
0

>  <Rbt.Current_Directory>
/home/itssahil/PROJECTS/Mol_Feturizer/New_Systems/rnas/4LVY

>  <Rbt.Executable>
rbdock ($Id: //depot/dev/client3/rdock/2013.1/src/exe/rbdock.cxx#4 $)

>  <Rbt.Library>
libRbt.so (2013.1, Build901 2013/11/27)

>  <Rbt.Parameter_File>
/export/apps/rDock/src/rDock_2013.1_src/data/scripts/dock_solv.prm

>  <Rbt.Receptor>
prm/pocket_docking_5.prm

>  <SCORE>
-13.1178

>  <SCORE.INTER>
-13.1851

>  <SCORE.INTER.CONST>
1

>  <SCORE.INTER.POLAR>
0

>  <SCORE.INTER.ROT>
4

>  <SCORE.INTER.SOLV>
16.6502

>  <SCORE.INTER.VDW>
-20.6068

>  <SCORE.INTER.norm>
-0.599321

>  <SCORE.INTRA>
0.0672992

>  <SCORE.INTRA.DIHEDRAL>
0.434354

>  <SCORE.INTRA.DIHEDRAL.0>
6.18831

>  <SCORE.INTRA.POLAR>
0

>  <SCORE.INTRA.POLAR.0>
0

>  <SCORE.INTRA.REPUL>
0

>  <SCORE.INTRA.REPUL.0>
0

>  <SCORE.INTRA.SOLV>
0.0126379

>  <SCORE.INTRA.SOLV.lig_0>
-44.3465

>  <SCORE.INTRA.VDW>
-0.156197

>  <SCORE.INTRA.VDW.0>
-0.778272

>  <SCORE.INTRA.norm>
0.00305906

>  <SCORE.RESTR>
0

>  <SCORE.RESTR.CAVITY>
0

>  <SCORE.RESTR.norm>
0

>  <SCORE.SYSTEM>
0

>  <SCORE.SYSTEM.CONST>
0

>  <SCORE.SYSTEM.DIHEDRAL>
0

>  <SCORE.SYSTEM.SOLV>
0

>  <SCORE.SYSTEM.norm>
0

>  <SCORE.heavy>
22

>  <SCORE.norm>
-0.596262

>  <RMSD>
0.793

$$$$
ligand
 OpenBabel11021811503D
libRbt.so/2013.1/901 2013/11/27
 22 24  0  0  0  0  0  0  0  0999 V2000
    4.4430    1.4936   20.3605 C   0  0  0  0  0  0  0  0  0  0  0  0
    4.9527    2.0146   19.1524 C   0  0  0  0  0  0  0  0  0  0  0  0
    6.2803    1.7728   18.8098 C   0  0  0  0  0  0  0  0  0  0  0  0
    7.0909    1.0149   19.6728 C   0  0  0  0  0  0  0  0  0  0  0  0
    6.5830    0.4992   20.8906 C   0  0  0  0  0  0  0  0  0  0  0  0
    5.2592    0.7420   21.2308 C   0  0  0  0  0  0  0  0  0  0  0  0
    2.9810    1.7672   20.7629 C   0  0  0  0  0  0  0  0  0  0  0  0
    2.7476    3.1033   21.5115 C   0  0  0  0  0  0  0  0  0  0  0  0
    1.2788    3.4086   21.7816 C   0  0  0  0  0  0  0  0  0  0  0  0
    0.2193    2.8308   21.0755 C   0  0  0  0  0  0  0  0  0  0  0  0
   -0.9267    3.3387   21.5998 N   0  0  0  0  0  0  0  0  0  0  0  0
   -0.6843    4.2307   22.6254 C   0  0  0  0  0  0  0  0  0  0  0  0
    0.6959    4.3052   22.7771 C   0  0  0  0  0  0  0  0  0  0  0  0
    1.2011    5.1854   23.8078 C   0  0  0  0  0  0  0  0  0  0  0  0
    2.5718    5.3032   24.0212 O   0  0  0  0  0  0  0  0  0  0  0  0
    0.3015    5.9114   24.5768 N   0  0  0  0  0  0  0  0  0  0  0  0
   -1.0470    5.7988   24.3989 C   0  0  0  0  0  0  0  0  0  0  0  0
   -1.5507    4.9921   23.4518 N   0  0  0  0  0  0  0  0  0  0  0  0
   -1.9580    6.5741   25.2472 N   0  0  0  0  0  0  0  0  0  0  0  0
    8.5243    0.7731   19.2802 C   0  0  0  0  0  0  0  0  0  0  0  0
    9.3403    1.6920   19.3236 O   0  0  0  0  0  0  0  0  0  0  0  0
    8.9143   -0.5433   18.8503 N   0  0  0  0  0  0  0  0  0  0  0  0
  1  2  2  0  0  0  0
  1  6  1  0  0  0  0
  1  7  1  0  0  0  0
  2  3  1  0  0  0  0
  3  4  2  0  0  0  0
  4  5  1  0  0  0  0
  4 20  1  0  0  0  0
  5  6  2  0  0  0  0
  7  8  1  0  0  0  0
  8  9  1  0  0  0  0
  9 10  2  0  0  0  0
  9 13  1  0  0  0  0
 10 11  1  0  0  0  0
 11 12  1  0  0  0  0
 12 13  2  0  0  0  0
 12 18  1  0  0  0  0
 13 14  1  0  0  0  0
 14 15  1  0  0  0  0
 14 16  2  0  0  0  0
 16 17  1  0  0  0  0
 17 18  2  0  0  0  0
 17 19  1  0  0  0  0
 20 21  2  0  0  0  0
 20 22  1  0  0  0  0
M  END
>  <CHROM.1>
-85.48340798,71.80736361,174.60120166,-20.46758874,3.06033954,3.05142055
21.63578471,0.63889493,0.02955219,-2.32708679

>  <Name>
ligand

>  <RI>
0

>  <Rbt.Current_Directory>
/home/itssahil/PROJECTS/Mol_Feturizer/New_Systems/rnas/4LVY

>  <Rbt.Executable>
rbdock ($Id: //depot/dev/client3/rdock/2013.1/src/exe/rbdock.cxx#4 $)

>  <Rbt.Library>
libRbt.so (2013.1, Build901 2013/11/27)

>  <Rbt.Parameter_File>
/export/apps/rDock/src/rDock_2013.1_src/data/scripts/dock_solv.prm

>  <Rbt.Receptor>
prm/pocket_docking_3.prm

>  <SCORE>
-13.4324

>  <SCORE.INTER>
-13.4773

>  <SCORE.INTER.CONST>
1

>  <SCORE.INTER.POLAR>
0

>  <SCORE.INTER.ROT>
4

>  <SCORE.INTER.SOLV>
18.6497

>  <SCORE.INTER.VDW>
-21.4681

>  <SCORE.INTER.norm>
-0.612602

>  <SCORE.INTRA>
0.0346404

>  <SCORE.INTRA.DIHEDRAL>
0.109422

>  <SCORE.INTRA.DIHEDRAL.0>
6.18831

>  <SCORE.INTRA.POLAR>
0

>  <SCORE.INTRA.POLAR.0>
0

>  <SCORE.INTRA.REPUL>
0

>  <SCORE.INTRA.REPUL.0>
0

>  <SCORE.INTRA.SOLV>
-0.00774578

>  <SCORE.INTRA.SOLV.lig_0>
-44.3465

>  <SCORE.INTRA.VDW>
-0.0161977

>  <SCORE.INTRA.VDW.0>
-0.778272

>  <SCORE.INTRA.norm>
0.00157456

>  <SCORE.RESTR>
0.0101699

>  <SCORE.RESTR.CAVITY>
0.0101699

>  <SCORE.RESTR.norm>
0.00046227

>  <SCORE.SYSTEM>
0

>  <SCORE.SYSTEM.CONST>
0

>  <SCORE.SYSTEM.DIHEDRAL>
0

>  <SCORE.SYSTEM.SOLV>
0

>  <SCORE.SYSTEM.norm>
0

>  <SCORE.heavy>
22

>  <SCORE.norm>
-0.610566

>  <RMSD>
0.809

$$$$
ligand
 OpenBabel11021811503D
libRbt.so/2013.1/901 2013/11/27
 22 24  0  0  0  0  0  0  0  0999 V2000
    4.4510    1.3630   20.5904 C   0  0  0  0  0  0  0  0  0  0  0  0
    5.2441    0.5784   21.4541 C   0  0  0  0  0  0  0  0  0  0  0  0
    6.5607    0.2932   21.1029 C   0  0  0  0  0  0  0  0  0  0  0  0
    7.0779    0.7905   19.8939 C   0  0  0  0  0  0  0  0  0  0  0  0
    6.2797    1.5705   19.0213 C   0  0  0  0  0  0  0  0  0  0  0  0
    4.9669    1.8532   19.3729 C   0  0  0  0  0  0  0  0  0  0  0  0
    2.9865    1.6727   20.9558 C   0  0  0  0  0  0  0  0  0  0  0  0
    2.7418    3.0892   21.5333 C   0  0  0  0  0  0  0  0  0  0  0  0
    1.2708    3.4117   21.7689 C   0  0  0  0  0  0  0  0  0  0  0  0
    0.2229    2.8656   21.0214 C   0  0  0  0  0  0  0  0  0  0  0  0
   -0.9296    3.3804   21.5243 N   0  0  0  0  0  0  0  0  0  0  0  0
   -0.7027    4.2467   22.5751 C   0  0  0  0  0  0  0  0  0  0  0  0
    0.6737    4.2964   22.7668 C   0  0  0  0  0  0  0  0  0  0  0  0
    1.1628    5.1467   23.8298 C   0  0  0  0  0  0  0  0  0  0  0  0
    2.5285    5.2384   24.0838 O   0  0  0  0  0  0  0  0  0  0  0  0
    0.2529    5.8704   24.5888 N   0  0  0  0  0  0  0  0  0  0  0  0
   -1.0915    5.7828   24.3711 C   0  0  0  0  0  0  0  0  0  0  0  0
   -1.5805    5.0041   23.3932 N   0  0  0  0  0  0  0  0  0  0  0  0
   -2.0143    6.5543   25.2100 N   0  0  0  0  0  0  0  0  0  0  0  0
    8.5032    0.4624   19.5363 C   0  0  0  0  0  0  0  0  0  0  0  0
    9.4248    0.8485   20.2531 O   0  0  0  0  0  0  0  0  0  0  0  0
    8.7625   -0.3004   18.3443 N   0  0  0  0  0  0  0  0  0  0  0  0
  1  2  2  0  0  0  0
  1  6  1  0  0  0  0
  1  7  1  0  0  0  0
  2  3  1  0  0  0  0
  3  4  2  0  0  0  0
  4  5  1  0  0  0  0
  4 20  1  0  0  0  0
  5  6  2  0  0  0  0
  7  8  1  0  0  0  0
  8  9  1  0  0  0  0
  9 10  2  0  0  0  0
  9 13  1  0  0  0  0
 10 11  1  0  0  0  0
 11 12  1  0  0  0  0
 12 13  2  0  0  0  0
 12 18  1  0  0  0  0
 13 14  1  0  0  0  0
 14 15  1  0  0  0  0
 14 16  2  0  0  0  0
 16 17  1  0  0  0  0
 17 18  2  0  0  0  0
 17 19  1  0  0  0  0
 20 21  2  0  0  0  0
 20 22  1  0  0  0  0
M  END
>  <CHROM.1>
101.58440901,-62.30558912,174.83637206,-29.13614624,3.04101344,2.94776122
21.72969657,0.62806888,0.12517599,-2.25574008

>  <Name>
ligand

>  <RI>
0

>  <Rbt.Current_Directory>
/home/itssahil/PROJECTS/Mol_Feturizer/New_Systems/rnas/4LVY

>  <Rbt.Executable>
rbdock ($Id: //depot/dev/client3/rdock/2013.1/src/exe/rbdock.cxx#4 $)

>  <Rbt.Library>
libRbt.so (2013.1, Build901 2013/11/27)

>  <Rbt.Parameter_File>
/export/apps/rDock/src/rDock_2013.1_src/data/scripts/dock_solv.prm

>  <Rbt.Receptor>
prm/pocket_docking_3.prm

>  <SCORE>
-13.2584

>  <SCORE.INTER>
-13.2925

>  <SCORE.INTER.CONST>
1

>  <SCORE.INTER.POLAR>
0

>  <SCORE.INTER.ROT>
4

>  <SCORE.INTER.SOLV>
19.0925

>  <SCORE.INTER.VDW>
-21.4925

>  <SCORE.INTER.norm>
-0.604204

>  <SCORE.INTRA>
0.0340415

>  <SCORE.INTRA.DIHEDRAL>
0.221694

>  <SCORE.INTRA.DIHEDRAL.0>
6.18831

>  <SCORE.INTRA.POLAR>
0

>  <SCORE.INTRA.POLAR.0>
0

>  <SCORE.INTRA.REPUL>
0

>  <SCORE.INTRA.REPUL.0>
0

>  <SCORE.INTRA.SOLV>
-0.00422614

>  <SCORE.INTRA.SOLV.lig_0>
-44.3465

>  <SCORE.INTRA.VDW>
-0.0746924

>  <SCORE.INTRA.VDW.0>
-0.778272

>  <SCORE.INTRA.norm>
0.00154734

>  <SCORE.RESTR>
0

>  <SCORE.RESTR.CAVITY>
0

>  <SCORE.RESTR.norm>
0

>  <SCORE.SYSTEM>
0

>  <SCORE.SYSTEM.CONST>
0

>  <SCORE.SYSTEM.DIHEDRAL>
0

>  <SCORE.SYSTEM.SOLV>
0

>  <SCORE.SYSTEM.norm>
0

>  <SCORE.heavy>
22

>  <SCORE.norm>
-0.602656

>  <RMSD>
0.820

$$$$
ligand
 OpenBabel11021811503D
libRbt.so/2013.1/901 2013/11/27
 22 24  0  0  0  0  0  0  0  0999 V2000
    3.8504    1.7212   20.4409 C   0  0  0  0  0  0  0  0  0  0  0  0
    4.5117    0.9294   21.4034 C   0  0  0  0  0  0  0  0  0  0  0  0
    5.8272    0.5341   21.1765 C   0  0  0  0  0  0  0  0  0  0  0  0
    6.4743    0.9292   19.9927 C   0  0  0  0  0  0  0  0  0  0  0  0
    5.8084    1.7162   19.0211 C   0  0  0  0  0  0  0  0  0  0  0  0
    4.4965    2.1088   19.2488 C   0  0  0  0  0  0  0  0  0  0  0  0
    2.3886    2.1521   20.6685 C   0  0  0  0  0  0  0  0  0  0  0  0
    2.2105    3.5651   21.2780 C   0  0  0  0  0  0  0  0  0  0  0  0
    0.7551    3.9604   21.4995 C   0  0  0  0  0  0  0  0  0  0  0  0
   -0.2730    3.6931   20.5903 C   0  0  0  0  0  0  0  0  0  0  0  0
   -1.4168    4.1861   21.1330 N   0  0  0  0  0  0  0  0  0  0  0  0
   -1.2030    4.7718   22.3649 C   0  0  0  0  0  0  0  0  0  0  0  0
    0.1549    4.6511   22.6385 C   0  0  0  0  0  0  0  0  0  0  0  0
    0.6273    5.1945   23.8931 C   0  0  0  0  0  0  0  0  0  0  0  0
    1.9733    5.1018   24.2364 O   0  0  0  0  0  0  0  0  0  0  0  0
   -0.2784    5.8111   24.7460 N   0  0  0  0  0  0  0  0  0  0  0  0
   -1.6056    5.8978   24.4401 C   0  0  0  0  0  0  0  0  0  0  0  0
   -2.0787    5.4049   23.2846 N   0  0  0  0  0  0  0  0  0  0  0  0
   -2.5264    6.5440   25.3808 N   0  0  0  0  0  0  0  0  0  0  0  0
    7.8952    0.4831   19.7705 C   0  0  0  0  0  0  0  0  0  0  0  0
    8.1289   -0.5366   19.1243 O   0  0  0  0  0  0  0  0  0  0  0  0
    8.9647    1.2652   20.3313 N   0  0  0  0  0  0  0  0  0  0  0  0
  1  2  2  0  0  0  0
  1  6  1  0  0  0  0
  1  7  1  0  0  0  0
  2  3  1  0  0  0  0
  3  4  2  0  0  0  0
  4  5  1  0  0  0  0
  4 20  1  0  0  0  0
  5  6  2  0  0  0  0
  7  8  1  0  0  0  0
  8  9  1  0  0  0  0
  9 10  2  0  0  0  0
  9 13  1  0  0  0  0
 10 11  1  0  0  0  0
 11 12  1  0  0  0  0
 12 13  2  0  0  0  0
 12 18  1  0  0  0  0
 13 14  1  0  0  0  0
 14 15  1  0  0  0  0
 14 16  2  0  0  0  0
 16 17  1  0  0  0  0
 17 18  2  0  0  0  0
 17 19  1  0  0  0  0
 20 21  2  0  0  0  0
 20 22  1  0  0  0  0
M  END
>  <CHROM.1>
96.28408765,94.37494635,-179.65261268,-41.25544471,2.48648546,3.20665961
21.70275550,0.58346790,0.28043297,-2.06754781

>  <Name>
ligand

>  <RI>
0

>  <Rbt.Current_Directory>
/home/itssahil/PROJECTS/Mol_Feturizer/New_Systems/rnas/4LVY

>  <Rbt.Executable>
rbdock ($Id: //depot/dev/client3/rdock/2013.1/src/exe/rbdock.cxx#4 $)

>  <Rbt.Library>
libRbt.so (2013.1, Build901 2013/11/27)

>  <Rbt.Parameter_File>
/export/apps/rDock/src/rDock_2013.1_src/data/scripts/dock_solv.prm

>  <Rbt.Receptor>
prm/pocket_docking_2.prm

>  <SCORE>
-13.5785

>  <SCORE.INTER>
-13.3807

>  <SCORE.INTER.CONST>
1

>  <SCORE.INTER.POLAR>
0

>  <SCORE.INTER.ROT>
4

>  <SCORE.INTER.SOLV>
21.3862

>  <SCORE.INTER.VDW>
-22.3159

>  <SCORE.INTER.norm>
-0.608213

>  <SCORE.INTRA>
-0.197774

>  <SCORE.INTRA.DIHEDRAL>
0.145003

>  <SCORE.INTRA.DIHEDRAL.0>
6.18831

>  <SCORE.INTRA.POLAR>
0

>  <SCORE.INTRA.POLAR.0>
0

>  <SCORE.INTRA.REPUL>
0

>  <SCORE.INTRA.REPUL.0>
0

>  <SCORE.INTRA.SOLV>
-0.00848505

>  <SCORE.INTRA.SOLV.lig_0>
-44.3465

>  <SCORE.INTRA.VDW>
-0.266033

>  <SCORE.INTRA.VDW.0>
-0.778272

>  <SCORE.INTRA.norm>
-0.00898975

>  <SCORE.RESTR>
0

>  <SCORE.RESTR.CAVITY>
0

>  <SCORE.RESTR.norm>
0

>  <SCORE.SYSTEM>
0

>  <SCORE.SYSTEM.CONST>
0

>  <SCORE.SYSTEM.DIHEDRAL>
0

>  <SCORE.SYSTEM.SOLV>
0

>  <SCORE.SYSTEM.norm>
0

>  <SCORE.heavy>
22

>  <SCORE.norm>
-0.617203

>  <RMSD>
0.821

$$$$
ligand
 OpenBabel11021811503D
libRbt.so/2013.1/901 2013/11/27
 22 24  0  0  0  0  0  0  0  0999 V2000
    3.7775    1.7544   20.4247 C   0  0  0  0  0  0  0  0  0  0  0  0
    4.4723    0.9620   21.3628 C   0  0  0  0  0  0  0  0  0  0  0  0
    5.7824    0.5752   21.0940 C   0  0  0  0  0  0  0  0  0  0  0  0
    6.3909    0.9794   19.8929 C   0  0  0  0  0  0  0  0  0  0  0  0
    5.6913    1.7671   18.9458 C   0  0  0  0  0  0  0  0  0  0  0  0
    4.3848    2.1511   19.2153 C   0  0  0  0  0  0  0  0  0  0  0  0
    2.3210    2.1759   20.6988 C   0  0  0  0  0  0  0  0  0  0  0  0
    2.1520    3.5956   21.2952 C   0  0  0  0  0  0  0  0  0  0  0  0
    0.6998    3.9963   21.5276 C   0  0  0  0  0  0  0  0  0  0  0  0
   -0.3344    3.7412   20.6220 C   0  0  0  0  0  0  0  0  0  0  0  0
   -1.4728    4.2355   21.1748 N   0  0  0  0  0  0  0  0  0  0  0  0
   -1.2496    4.8104   22.4100 C   0  0  0  0  0  0  0  0  0  0  0  0
    0.1092    4.6810   22.6753 C   0  0  0  0  0  0  0  0  0  0  0  0
    0.5911    5.2122   23.9315 C   0  0  0  0  0  0  0  0  0  0  0  0
    1.9384    5.1102   24.2668 O   0  0  0  0  0  0  0  0  0  0  0  0
   -0.3070    5.8265   24.7941 N   0  0  0  0  0  0  0  0  0  0  0  0
   -1.6354    5.9220   24.4961 C   0  0  0  0  0  0  0  0  0  0  0  0
   -2.1171    5.4406   23.3394 N   0  0  0  0  0  0  0  0  0  0  0  0
   -2.5479    6.5654   25.4468 N   0  0  0  0  0  0  0  0  0  0  0  0
    7.8068    0.5424   19.6254 C   0  0  0  0  0  0  0  0  0  0  0  0
    8.0266   -0.5130   19.0340 O   0  0  0  0  0  0  0  0  0  0  0  0
    8.8885    1.3759   20.0787 N   0  0  0  0  0  0  0  0  0  0  0  0
  1  2  2  0  0  0  0
  1  6  1  0  0  0  0
  1  7  1  0  0  0  0
  2  3  1  0  0  0  0
  3  4  2  0  0  0  0
  4  5  1  0  0  0  0
  4 20  1  0  0  0  0
  5  6  2  0  0  0  0
  7  8  1  0  0  0  0
  8  9  1  0  0  0  0
  9 10  2  0  0  0  0
  9 13  1  0  0  0  0
 10 11  1  0  0  0  0
 11 12  1  0  0  0  0
 12 13  2  0  0  0  0
 12 18  1  0  0  0  0
 13 14  1  0  0  0  0
 14 15  1  0  0  0  0
 14 16  2  0  0  0  0
 16 17  1  0  0  0  0
 17 18  2  0  0  0  0
 17 19  1  0  0  0  0
 20 21  2  0  0  0  0
 20 22  1  0  0  0  0
M  END
>  <CHROM.1>
97.38770164,90.19669623,178.75527420,-42.35589315,2.42688619,3.24364839,21.68889941
0.59829814,0.27154438,-2.06601814

>  <Name>
ligand

>  <RI>
0

>  <Rbt.Current_Directory>
/home/itssahil/PROJECTS/Mol_Feturizer/New_Systems/rnas/4LVY

>  <Rbt.Executable>
rbdock ($Id: //depot/dev/client3/rdock/2013.1/src/exe/rbdock.cxx#4 $)

>  <Rbt.Library>
libRbt.so (2013.1, Build901 2013/11/27)

>  <Rbt.Parameter_File>
/export/apps/rDock/src/rDock_2013.1_src/data/scripts/dock_solv.prm

>  <Rbt.Receptor>
prm/pocket_docking_2.prm

>  <SCORE>
-13.5556

>  <SCORE.INTER>
-13.3485

>  <SCORE.INTER.CONST>
1

>  <SCORE.INTER.POLAR>
0

>  <SCORE.INTER.ROT>
4

>  <SCORE.INTER.SOLV>
21.871

>  <SCORE.INTER.VDW>
-22.456

>  <SCORE.INTER.norm>
-0.60675

>  <SCORE.INTRA>
-0.207127

>  <SCORE.INTRA.DIHEDRAL>
0.149555

>  <SCORE.INTRA.DIHEDRAL.0>
6.18831

>  <SCORE.INTRA.POLAR>
0

>  <SCORE.INTRA.POLAR.0>
0

>  <SCORE.INTRA.REPUL>
0

>  <SCORE.INTRA.REPUL.0>
0

>  <SCORE.INTRA.SOLV>
-0.00871741

>  <SCORE.INTRA.SOLV.lig_0>
-44.3465

>  <SCORE.INTRA.VDW>
-0.277545

>  <SCORE.INTRA.VDW.0>
-0.778272

>  <SCORE.INTRA.norm>
-0.00941485

>  <SCORE.RESTR>
0

>  <SCORE.RESTR.CAVITY>
0

>  <SCORE.RESTR.norm>
0

>  <SCORE.SYSTEM>
0

>  <SCORE.SYSTEM.CONST>
0

>  <SCORE.SYSTEM.DIHEDRAL>
0

>  <SCORE.SYSTEM.SOLV>
0

>  <SCORE.SYSTEM.norm>
0

>  <SCORE.heavy>
22

>  <SCORE.norm>
-0.616164

>  <RMSD>
0.843

$$$$
ligand
 OpenBabel11021811503D
libRbt.so/2013.1/901 2013/11/27
 22 24  0  0  0  0  0  0  0  0999 V2000
    3.7498    1.7086   20.5052 C   0  0  0  0  0  0  0  0  0  0  0  0
    4.3723    2.1145   19.3059 C   0  0  0  0  0  0  0  0  0  0  0  0
    5.6868    1.7313   19.0541 C   0  0  0  0  0  0  0  0  0  0  0  0
    6.3723    0.9475   19.9986 C   0  0  0  0  0  0  0  0  0  0  0  0
    5.7516    0.5472   21.2075 C   0  0  0  0  0  0  0  0  0  0  0  0
    4.4411    0.9310   21.4571 C   0  0  0  0  0  0  0  0  0  0  0  0
    2.3015    2.1394   20.8071 C   0  0  0  0  0  0  0  0  0  0  0  0
    2.1194    3.6446   21.1247 C   0  0  0  0  0  0  0  0  0  0  0  0
    0.6734    4.0463   21.3920 C   0  0  0  0  0  0  0  0  0  0  0  0
   -0.3766    3.8232   20.4961 C   0  0  0  0  0  0  0  0  0  0  0  0
   -1.5031    4.3075   21.0813 N   0  0  0  0  0  0  0  0  0  0  0  0
   -1.2568    4.8450   22.3289 C   0  0  0  0  0  0  0  0  0  0  0  0
    0.1053    4.7005   22.5685 C   0  0  0  0  0  0  0  0  0  0  0  0
    0.6102    5.1923   23.8316 C   0  0  0  0  0  0  0  0  0  0  0  0
    1.9621    5.0733   24.1420 O   0  0  0  0  0  0  0  0  0  0  0  0
   -0.2703    5.7861   24.7260 N   0  0  0  0  0  0  0  0  0  0  0  0
   -1.6027    5.8975   24.4523 C   0  0  0  0  0  0  0  0  0  0  0  0
   -2.1057    5.4525   23.2901 N   0  0  0  0  0  0  0  0  0  0  0  0
   -2.4961    6.5178   25.4359 N   0  0  0  0  0  0  0  0  0  0  0  0
    7.7947    0.5517   19.7033 C   0  0  0  0  0  0  0  0  0  0  0  0
    8.0346   -0.5091   19.1294 O   0  0  0  0  0  0  0  0  0  0  0  0
    8.8590    1.4306   20.1094 N   0  0  0  0  0  0  0  0  0  0  0  0
  1  2  2  0  0  0  0
  1  6  1  0  0  0  0
  1  7  1  0  0  0  0
  2  3  1  0  0  0  0
  3  4  2  0  0  0  0
  4  5  1  0  0  0  0
  4 20  1  0  0  0  0
  5  6  2  0  0  0  0
  7  8  1  0  0  0  0
  8  9  1  0  0  0  0
  9 10  2  0  0  0  0
  9 13  1  0  0  0  0
 10 11  1  0  0  0  0
 11 12  1  0  0  0  0
 12 13  2  0  0  0  0
 12 18  1  0  0  0  0
 13 14  1  0  0  0  0
 14 15  1  0  0  0  0
 14 16  2  0  0  0  0
 16 17  1  0  0  0  0
 17 18  2  0  0  0  0
 17 19  1  0  0  0  0
 20 21  2  0  0  0  0
 20 22  1  0  0  0  0
M  END
>  <CHROM.1>
-70.26853645,-91.77848333,178.85654721,-56.12521299,2.42113679,3.24245107
21.67812949,0.58051353,0.29109430,-2.05099717

>  <Name>
ligand

>  <RI>
0

>  <Rbt.Current_Directory>
/home/itssahil/PROJECTS/Mol_Feturizer/New_Systems/rnas/4LVY

>  <Rbt.Executable>
rbdock ($Id: //depot/dev/client3/rdock/2013.1/src/exe/rbdock.cxx#4 $)

>  <Rbt.Library>
libRbt.so (2013.1, Build901 2013/11/27)

>  <Rbt.Parameter_File>
/export/apps/rDock/src/rDock_2013.1_src/data/scripts/dock_solv.prm

>  <Rbt.Receptor>
prm/pocket_docking_2.prm

>  <SCORE>
-13.8939

>  <SCORE.INTER>
-13.5089

>  <SCORE.INTER.CONST>
1

>  <SCORE.INTER.POLAR>
0

>  <SCORE.INTER.ROT>
4

>  <SCORE.INTER.SOLV>
21.5797

>  <SCORE.INTER.VDW>
-22.4658

>  <SCORE.INTER.norm>
-0.614041

>  <SCORE.INTRA>
-0.385018

>  <SCORE.INTRA.DIHEDRAL>
-0.0347056

>  <SCORE.INTRA.DIHEDRAL.0>
6.18831

>  <SCORE.INTRA.POLAR>
0

>  <SCORE.INTRA.POLAR.0>
0

>  <SCORE.INTRA.REPUL>
0

>  <SCORE.INTRA.REPUL.0>
0

>  <SCORE.INTRA.SOLV>
0.0270709

>  <SCORE.INTRA.SOLV.lig_0>
-44.3465

>  <SCORE.INTRA.VDW>
-0.3812

>  <SCORE.INTRA.VDW.0>
-0.778272

>  <SCORE.INTRA.norm>
-0.0175008

>  <SCORE.RESTR>
0

>  <SCORE.RESTR.CAVITY>
0

>  <SCORE.RESTR.norm>
0

>  <SCORE.SYSTEM>
0

>  <SCORE.SYSTEM.CONST>
0

>  <SCORE.SYSTEM.DIHEDRAL>
0

>  <SCORE.SYSTEM.SOLV>
0

>  <SCORE.SYSTEM.norm>
0

>  <SCORE.heavy>
22

>  <SCORE.norm>
-0.631542

>  <RMSD>
0.869

$$$$
ligand
 OpenBabel11021811503D
libRbt.so/2013.1/901 2013/11/27
 22 24  0  0  0  0  0  0  0  0999 V2000
    3.7646    1.7973   20.3531 C   0  0  0  0  0  0  0  0  0  0  0  0
    4.4240    2.1934   19.1704 C   0  0  0  0  0  0  0  0  0  0  0  0
    5.7484    1.8154   18.9666 C   0  0  0  0  0  0  0  0  0  0  0  0
    6.4067    1.0466   19.9422 C   0  0  0  0  0  0  0  0  0  0  0  0
    5.7488    0.6562   21.1345 C   0  0  0  0  0  0  0  0  0  0  0  0
    4.4285    1.0347   21.3362 C   0  0  0  0  0  0  0  0  0  0  0  0
    2.3047    2.2225   20.6021 C   0  0  0  0  0  0  0  0  0  0  0  0
    2.1323    3.6061   21.2771 C   0  0  0  0  0  0  0  0  0  0  0  0
    0.6782    4.0001   21.5098 C   0  0  0  0  0  0  0  0  0  0  0  0
   -0.3552    3.7389   20.6050 C   0  0  0  0  0  0  0  0  0  0  0  0
   -1.4957    4.2284   21.1578 N   0  0  0  0  0  0  0  0  0  0  0  0
   -1.2746    4.8060   22.3922 C   0  0  0  0  0  0  0  0  0  0  0  0
    0.0850    4.6835   22.6570 C   0  0  0  0  0  0  0  0  0  0  0  0
    0.5649    5.2186   23.9122 C   0  0  0  0  0  0  0  0  0  0  0  0
    1.9129    5.1235   24.2468 O   0  0  0  0  0  0  0  0  0  0  0  0
   -0.3356    5.8296   24.7745 N   0  0  0  0  0  0  0  0  0  0  0  0
   -1.6646    5.9184   24.4770 C   0  0  0  0  0  0  0  0  0  0  0  0
   -2.1446    5.4332   23.3212 N   0  0  0  0  0  0  0  0  0  0  0  0
   -2.5797    6.5586   25.4275 N   0  0  0  0  0  0  0  0  0  0  0  0
    7.8404    0.6563   19.6985 C   0  0  0  0  0  0  0  0  0  0  0  0
    8.1279   -0.0874   18.7624 O   0  0  0  0  0  0  0  0  0  0  0  0
    8.8578    1.1623   20.5811 N   0  0  0  0  0  0  0  0  0  0  0  0
  1  2  2  0  0  0  0
  1  6  1  0  0  0  0
  1  7  1  0  0  0  0
  2  3  1  0  0  0  0
  3  4  2  0  0  0  0
  4  5  1  0  0  0  0
  4 20  1  0  0  0  0
  5  6  2  0  0  0  0
  7  8  1  0  0  0  0
  8  9  1  0  0  0  0
  9 10  2  0  0  0  0
  9 13  1  0  0  0  0
 10 11  1  0  0  0  0
 11 12  1  0  0  0  0
 12 13  2  0  0  0  0
 12 18  1  0  0  0  0
 13 14  1  0  0  0  0
 14 15  1  0  0  0  0
 14 16  2  0  0  0  0
 16 17  1  0  0  0  0
 17 18  2  0  0  0  0
 17 19  1  0  0  0  0
 20 21  2  0  0  0  0
 20 22  1  0  0  0  0
M  END
>  <CHROM.1>
-86.71378214,-64.53330635,179.96188232,-38.79728626,2.41858500,3.27939523
21.68506254,0.58165554,0.27839353,-2.04074326

>  <Name>
ligand

>  <RI>
0

>  <Rbt.Current_Directory>
/home/itssahil/PROJECTS/Mol_Feturizer/New_Systems/rnas/4LVY

>  <Rbt.Executable>
rbdock ($Id: //depot/dev/client3/rdock/2013.1/src/exe/rbdock.cxx#4 $)

>  <Rbt.Library>
libRbt.so (2013.1, Build901 2013/11/27)

>  <Rbt.Parameter_File>
/export/apps/rDock/src/rDock_2013.1_src/data/scripts/dock_solv.prm

>  <Rbt.Receptor>
prm/pocket_docking_2.prm

>  <SCORE>
-13.6371

>  <SCORE.INTER>
-13.4094

>  <SCORE.INTER.CONST>
1

>  <SCORE.INTER.POLAR>
0

>  <SCORE.INTER.ROT>
4

>  <SCORE.INTER.SOLV>
21.6076

>  <SCORE.INTER.VDW>
-22.4088

>  <SCORE.INTER.norm>
-0.609517

>  <SCORE.INTRA>
-0.227742

>  <SCORE.INTRA.DIHEDRAL>
-0.035056

>  <SCORE.INTRA.DIHEDRAL.0>
6.18831

>  <SCORE.INTRA.POLAR>
0

>  <SCORE.INTRA.POLAR.0>
0

>  <SCORE.INTRA.REPUL>
0

>  <SCORE.INTRA.REPUL.0>
0

>  <SCORE.INTRA.SOLV>
-0.00475778

>  <SCORE.INTRA.SOLV.lig_0>
-44.3465

>  <SCORE.INTRA.VDW>
-0.207835

>  <SCORE.INTRA.VDW.0>
-0.778272

>  <SCORE.INTRA.norm>
-0.0103519

>  <SCORE.RESTR>
0

>  <SCORE.RESTR.CAVITY>
0

>  <SCORE.RESTR.norm>
0

>  <SCORE.SYSTEM>
0

>  <SCORE.SYSTEM.CONST>
0

>  <SCORE.SYSTEM.DIHEDRAL>
0

>  <SCORE.SYSTEM.SOLV>
0

>  <SCORE.SYSTEM.norm>
0

>  <SCORE.heavy>
22

>  <SCORE.norm>
-0.619869

>  <RMSD>
0.877

$$$$
ligand
 OpenBabel11021811503D
libRbt.so/2013.1/901 2013/11/27
 22 24  0  0  0  0  0  0  0  0999 V2000
    3.7742    1.7299   20.5266 C   0  0  0  0  0  0  0  0  0  0  0  0
    4.4632    0.9345   21.4665 C   0  0  0  0  0  0  0  0  0  0  0  0
    5.7736    0.5451   21.2026 C   0  0  0  0  0  0  0  0  0  0  0  0
    6.3881    0.9497   20.0048 C   0  0  0  0  0  0  0  0  0  0  0  0
    5.6943    1.7404   19.0560 C   0  0  0  0  0  0  0  0  0  0  0  0
    4.3875    2.1271   19.3205 C   0  0  0  0  0  0  0  0  0  0  0  0
    2.3176    2.1543   20.7952 C   0  0  0  0  0  0  0  0  0  0  0  0
    2.1338    3.6350   21.2122 C   0  0  0  0  0  0  0  0  0  0  0  0
    0.6824    4.0282   21.4615 C   0  0  0  0  0  0  0  0  0  0  0  0
   -0.3581    3.7831   20.5603 C   0  0  0  0  0  0  0  0  0  0  0  0
   -1.4936    4.2663   21.1288 N   0  0  0  0  0  0  0  0  0  0  0  0
   -1.2623    4.8243   22.3703 C   0  0  0  0  0  0  0  0  0  0  0  0
    0.0989    4.6949   22.6233 C   0  0  0  0  0  0  0  0  0  0  0  0
    0.5890    5.2096   23.8832 C   0  0  0  0  0  0  0  0  0  0  0  0
    1.9391    5.1066   24.2065 O   0  0  0  0  0  0  0  0  0  0  0  0
   -0.3040    5.8090   24.7613 N   0  0  0  0  0  0  0  0  0  0  0  0
   -1.6349    5.9050   24.4749 C   0  0  0  0  0  0  0  0  0  0  0  0
   -2.1243    5.4387   23.3153 N   0  0  0  0  0  0  0  0  0  0  0  0
   -2.5418    6.5322   25.4418 N   0  0  0  0  0  0  0  0  0  0  0  0
    7.8041    0.5099   19.7426 C   0  0  0  0  0  0  0  0  0  0  0  0
    8.0238   -0.5251   19.1161 O   0  0  0  0  0  0  0  0  0  0  0  0
    8.8858    1.3163   20.2423 N   0  0  0  0  0  0  0  0  0  0  0  0
  1  2  2  0  0  0  0
  1  6  1  0  0  0  0
  1  7  1  0  0  0  0
  2  3  1  0  0  0  0
  3  4  2  0  0  0  0
  4  5  1  0  0  0  0
  4 20  1  0  0  0  0
  5  6  2  0  0  0  0
  7  8  1  0  0  0  0
  8  9  1  0  0  0  0
  9 10  2  0  0  0  0
  9 13  1  0  0  0  0
 10 11  1  0  0  0  0
 11 12  1  0  0  0  0
 12 13  2  0  0  0  0
 12 18  1  0  0  0  0
 13 14  1  0  0  0  0
 14 15  1  0  0  0  0
 14 16  2  0  0  0  0
 16 17  1  0  0  0  0
 17 18  2  0  0  0  0
 17 19  1  0  0  0  0
 20 21  2  0  0  0  0
 20 22  1  0  0  0  0
M  END
>  <CHROM.1>
105.21683205,92.33949956,179.59017129,-50.98759218,2.42101940,3.23491631
21.71321538,0.58252586,0.28879521,-2.05643538

>  <Name>
ligand

>  <RI>
0

>  <Rbt.Current_Directory>
/home/itssahil/PROJECTS/Mol_Feturizer/New_Systems/rnas/4LVY

>  <Rbt.Executable>
rbdock ($Id: //depot/dev/client3/rdock/2013.1/src/exe/rbdock.cxx#4 $)

>  <Rbt.Library>
libRbt.so (2013.1, Build901 2013/11/27)

>  <Rbt.Parameter_File>
/export/apps/rDock/src/rDock_2013.1_src/data/scripts/dock_solv.prm

>  <Rbt.Receptor>
prm/pocket_docking_2.prm

>  <SCORE>
-13.7475

>  <SCORE.INTER>
-13.4652

>  <SCORE.INTER.CONST>
1

>  <SCORE.INTER.POLAR>
0

>  <SCORE.INTER.ROT>
4

>  <SCORE.INTER.SOLV>
21.6541

>  <SCORE.INTER.VDW>
-22.4615

>  <SCORE.INTER.norm>
-0.612056

>  <SCORE.INTRA>
-0.282228

>  <SCORE.INTRA.DIHEDRAL>
0.11819

>  <SCORE.INTRA.DIHEDRAL.0>
6.18831

>  <SCORE.INTRA.POLAR>
0

>  <SCORE.INTRA.POLAR.0>
0

>  <SCORE.INTRA.REPUL>
0

>  <SCORE.INTRA.REPUL.0>
0

>  <SCORE.INTRA.SOLV>
0.0106051

>  <SCORE.INTRA.SOLV.lig_0>
-44.3465

>  <SCORE.INTRA.VDW>
-0.346625

>  <SCORE.INTRA.VDW.0>
-0.778272

>  <SCORE.INTRA.norm>
-0.0128285

>  <SCORE.RESTR>
0

>  <SCORE.RESTR.CAVITY>
0

>  <SCORE.RESTR.norm>
0

>  <SCORE.SYSTEM>
0

>  <SCORE.SYSTEM.CONST>
0

>  <SCORE.SYSTEM.DIHEDRAL>
0

>  <SCORE.SYSTEM.SOLV>
0

>  <SCORE.SYSTEM.norm>
0

>  <SCORE.heavy>
22

>  <SCORE.norm>
-0.624884

>  <RMSD>
0.878

$$$$
ligand
 OpenBabel11021811503D
libRbt.so/2013.1/901 2013/11/27
 22 24  0  0  0  0  0  0  0  0999 V2000
    4.4697    1.3369   20.6558 C   0  0  0  0  0  0  0  0  0  0  0  0
    4.9521    1.8440   19.4307 C   0  0  0  0  0  0  0  0  0  0  0  0
    6.2682    1.5879   19.0557 C   0  0  0  0  0  0  0  0  0  0  0  0
    7.0945    0.8298   19.9034 C   0  0  0  0  0  0  0  0  0  0  0  0
    6.6142    0.3281   21.1381 C   0  0  0  0  0  0  0  0  0  0  0  0
    5.3018    0.5851   21.5106 C   0  0  0  0  0  0  0  0  0  0  0  0
    3.0211    1.6264   21.0938 C   0  0  0  0  0  0  0  0  0  0  0  0
    2.7459    3.0910   21.5173 C   0  0  0  0  0  0  0  0  0  0  0  0
    1.2738    3.3903   21.7759 C   0  0  0  0  0  0  0  0  0  0  0  0
    0.2223    2.8114   21.0589 C   0  0  0  0  0  0  0  0  0  0  0  0
   -0.9298    3.3135   21.5751 N   0  0  0  0  0  0  0  0  0  0  0  0
   -0.6992    4.2027   22.6058 C   0  0  0  0  0  0  0  0  0  0  0  0
    0.6794    4.2814   22.7696 C   0  0  0  0  0  0  0  0  0  0  0  0
    1.1728    5.1597   23.8076 C   0  0  0  0  0  0  0  0  0  0  0  0
    2.5411    5.2815   24.0331 O   0  0  0  0  0  0  0  0  0  0  0  0
    0.2641    5.8800   24.5715 N   0  0  0  0  0  0  0  0  0  0  0  0
   -1.0824    5.7634   24.3817 C   0  0  0  0  0  0  0  0  0  0  0  0
   -1.5753    4.9582   23.4275 N   0  0  0  0  0  0  0  0  0  0  0  0
   -2.0033    6.5325   25.2248 N   0  0  0  0  0  0  0  0  0  0  0  0
    8.5151    0.5725   19.4757 C   0  0  0  0  0  0  0  0  0  0  0  0
    9.3693    1.4466   19.6113 O   0  0  0  0  0  0  0  0  0  0  0  0
    8.8478   -0.7049   18.9033 N   0  0  0  0  0  0  0  0  0  0  0  0
  1  2  2  0  0  0  0
  1  6  1  0  0  0  0
  1  7  1  0  0  0  0
  2  3  1  0  0  0  0
  3  4  2  0  0  0  0
  4  5  1  0  0  0  0
  4 20  1  0  0  0  0
  5  6  2  0  0  0  0
  7  8  1  0  0  0  0
  8  9  1  0  0  0  0
  9 10  2  0  0  0  0
  9 13  1  0  0  0  0
 10 11  1  0  0  0  0
 11 12  1  0  0  0  0
 12 13  2  0  0  0  0
 12 18  1  0  0  0  0
 13 14  1  0  0  0  0
 14 15  1  0  0  0  0
 14 16  2  0  0  0  0
 16 17  1  0  0  0  0
 17 18  2  0  0  0  0
 17 19  1  0  0  0  0
 20 21  2  0  0  0  0
 20 22  1  0  0  0  0
M  END
>  <CHROM.1>
-71.17513379,78.82062845,172.70171840,-34.84030486,3.05285397,2.95685199
21.73946772,0.63179619,0.05682434,-2.33772004

>  <Name>
ligand

>  <RI>
0

>  <Rbt.Current_Directory>
/home/itssahil/PROJECTS/Mol_Feturizer/New_Systems/rnas/4LVY

>  <Rbt.Executable>
rbdock ($Id: //depot/dev/client3/rdock/2013.1/src/exe/rbdock.cxx#4 $)

>  <Rbt.Library>
libRbt.so (2013.1, Build901 2013/11/27)

>  <Rbt.Parameter_File>
/export/apps/rDock/src/rDock_2013.1_src/data/scripts/dock_solv.prm

>  <Rbt.Receptor>
prm/pocket_docking_2.prm

>  <SCORE>
-13.5475

>  <SCORE.INTER>
-13.4917

>  <SCORE.INTER.CONST>
1

>  <SCORE.INTER.POLAR>
0

>  <SCORE.INTER.ROT>
4

>  <SCORE.INTER.SOLV>
18.6324

>  <SCORE.INTER.VDW>
-21.4719

>  <SCORE.INTER.norm>
-0.61326

>  <SCORE.INTRA>
-0.0558087

>  <SCORE.INTRA.DIHEDRAL>
0.248131

>  <SCORE.INTRA.DIHEDRAL.0>
6.18831

>  <SCORE.INTRA.POLAR>
0

>  <SCORE.INTRA.POLAR.0>
0

>  <SCORE.INTRA.REPUL>
0

>  <SCORE.INTRA.REPUL.0>
0

>  <SCORE.INTRA.SOLV>
-0.00852601

>  <SCORE.INTRA.SOLV.lig_0>
-44.3465

>  <SCORE.INTRA.VDW>
-0.175611

>  <SCORE.INTRA.VDW.0>
-0.778272

>  <SCORE.INTRA.norm>
-0.00253676

>  <SCORE.RESTR>
0

>  <SCORE.RESTR.CAVITY>
0

>  <SCORE.RESTR.norm>
0

>  <SCORE.SYSTEM>
0

>  <SCORE.SYSTEM.CONST>
0

>  <SCORE.SYSTEM.DIHEDRAL>
0

>  <SCORE.SYSTEM.SOLV>
0

>  <SCORE.SYSTEM.norm>
0

>  <SCORE.heavy>
22

>  <SCORE.norm>
-0.615796

>  <RMSD>
0.888

$$$$
ligand
 OpenBabel11021811503D
libRbt.so/2013.1/901 2013/11/27
 22 24  0  0  0  0  0  0  0  0999 V2000
    4.0195    1.7205   20.3786 C   0  0  0  0  0  0  0  0  0  0  0  0
    4.7488    0.9065   21.2707 C   0  0  0  0  0  0  0  0  0  0  0  0
    6.0621    0.5613   20.9634 C   0  0  0  0  0  0  0  0  0  0  0  0
    6.6393    1.0285   19.7698 C   0  0  0  0  0  0  0  0  0  0  0  0
    5.9051    1.8381   18.8685 C   0  0  0  0  0  0  0  0  0  0  0  0
    4.5954    2.1806   19.1764 C   0  0  0  0  0  0  0  0  0  0  0  0
    2.5592    2.0967   20.6952 C   0  0  0  0  0  0  0  0  0  0  0  0
    2.3504    3.5500   21.1894 C   0  0  0  0  0  0  0  0  0  0  0  0
    0.8899    3.9143   21.4295 C   0  0  0  0  0  0  0  0  0  0  0  0
   -0.1464    3.6089   20.5419 C   0  0  0  0  0  0  0  0  0  0  0  0
   -1.2925    4.0830   21.0966 N   0  0  0  0  0  0  0  0  0  0  0  0
   -1.0724    4.6924   22.3158 C   0  0  0  0  0  0  0  0  0  0  0  0
    0.2924    4.6080   22.5682 C   0  0  0  0  0  0  0  0  0  0  0  0
    0.7725    5.1816   23.8063 C   0  0  0  0  0  0  0  0  0  0  0  0
    2.1258    5.1259   24.1281 O   0  0  0  0  0  0  0  0  0  0  0  0
   -0.1334    5.7896   24.6651 N   0  0  0  0  0  0  0  0  0  0  0  0
   -1.4672    5.8402   24.3804 C   0  0  0  0  0  0  0  0  0  0  0  0
   -1.9475    5.3187   23.2407 N   0  0  0  0  0  0  0  0  0  0  0  0
   -2.3874    6.4789   25.3269 N   0  0  0  0  0  0  0  0  0  0  0  0
    8.0595    0.6357   19.4598 C   0  0  0  0  0  0  0  0  0  0  0  0
    8.9951    1.2964   19.9071 O   0  0  0  0  0  0  0  0  0  0  0  0
    8.2965   -0.5158   18.6304 N   0  0  0  0  0  0  0  0  0  0  0  0
  1  2  2  0  0  0  0
  1  6  1  0  0  0  0
  1  7  1  0  0  0  0
  2  3  1  0  0  0  0
  3  4  2  0  0  0  0
  4  5  1  0  0  0  0
  4 20  1  0  0  0  0
  5  6  2  0  0  0  0
  7  8  1  0  0  0  0
  8  9  1  0  0  0  0
  9 10  2  0  0  0  0
  9 13  1  0  0  0  0
 10 11  1  0  0  0  0
 11 12  1  0  0  0  0
 12 13  2  0  0  0  0
 12 18  1  0  0  0  0
 13 14  1  0  0  0  0
 14 15  1  0  0  0  0
 14 16  2  0  0  0  0
 16 17  1  0  0  0  0
 17 18  2  0  0  0  0
 17 19  1  0  0  0  0
 20 21  2  0  0  0  0
 20 22  1  0  0  0  0
M  END
>  <CHROM.1>
104.59657012,-85.71792661,177.17673445,-45.44838763,2.63538684,3.21164505
21.57857175,0.59896810,0.24062199,-2.08616571

>  <Name>
ligand

>  <RI>
0

>  <Rbt.Current_Directory>
/home/itssahil/PROJECTS/Mol_Feturizer/New_Systems/rnas/4LVY

>  <Rbt.Executable>
rbdock ($Id: //depot/dev/client3/rdock/2013.1/src/exe/rbdock.cxx#4 $)

>  <Rbt.Library>
libRbt.so (2013.1, Build901 2013/11/27)

>  <Rbt.Parameter_File>
/export/apps/rDock/src/rDock_2013.1_src/data/scripts/dock_solv.prm

>  <Rbt.Receptor>
prm/pocket_docking_3.prm

>  <SCORE>
-13.4185

>  <SCORE.INTER>
-13.1768

>  <SCORE.INTER.CONST>
1

>  <SCORE.INTER.POLAR>
0

>  <SCORE.INTER.ROT>
4

>  <SCORE.INTER.SOLV>
21.0502

>  <SCORE.INTER.VDW>
-22.0679

>  <SCORE.INTER.norm>
-0.598946

>  <SCORE.INTRA>
-0.241714

>  <SCORE.INTRA.DIHEDRAL>
0.104526

>  <SCORE.INTRA.DIHEDRAL.0>
6.18831

>  <SCORE.INTRA.POLAR>
0

>  <SCORE.INTRA.POLAR.0>
0

>  <SCORE.INTRA.REPUL>
0

>  <SCORE.INTRA.REPUL.0>
0

>  <SCORE.INTRA.SOLV>
-0.00281528

>  <SCORE.INTRA.SOLV.lig_0>
-44.3465

>  <SCORE.INTRA.VDW>
-0.292569

>  <SCORE.INTRA.VDW.0>
-0.778272

>  <SCORE.INTRA.norm>
-0.010987

>  <SCORE.RESTR>
0

>  <SCORE.RESTR.CAVITY>
0

>  <SCORE.RESTR.norm>
0

>  <SCORE.SYSTEM>
0

>  <SCORE.SYSTEM.CONST>
0

>  <SCORE.SYSTEM.DIHEDRAL>
0

>  <SCORE.SYSTEM.SOLV>
0

>  <SCORE.SYSTEM.norm>
0

>  <SCORE.heavy>
22

>  <SCORE.norm>
-0.609933

>  <RMSD>
0.895

$$$$
ligand
 OpenBabel11021811503D
libRbt.so/2013.1/901 2013/11/27
 22 24  0  0  0  0  0  0  0  0999 V2000
    3.7383    1.7553   20.3721 C   0  0  0  0  0  0  0  0  0  0  0  0
    4.4715    2.1284   19.2258 C   0  0  0  0  0  0  0  0  0  0  0  0
    5.7902    1.7033   19.0894 C   0  0  0  0  0  0  0  0  0  0  0  0
    6.3695    0.9107   20.0956 C   0  0  0  0  0  0  0  0  0  0  0  0
    5.6375    0.5432   21.2514 C   0  0  0  0  0  0  0  0  0  0  0  0
    4.3229    0.9687   21.3859 C   0  0  0  0  0  0  0  0  0  0  0  0
    2.2836    2.2324   20.5467 C   0  0  0  0  0  0  0  0  0  0  0  0
    2.1272    3.6335   21.1887 C   0  0  0  0  0  0  0  0  0  0  0  0
    0.6789    4.0368   21.4401 C   0  0  0  0  0  0  0  0  0  0  0  0
   -0.3627    3.8084   20.5358 C   0  0  0  0  0  0  0  0  0  0  0  0
   -1.4947    4.2961   21.1075 N   0  0  0  0  0  0  0  0  0  0  0  0
   -1.2600    4.8412   22.3540 C   0  0  0  0  0  0  0  0  0  0  0  0
    0.0998    4.6982   22.6072 C   0  0  0  0  0  0  0  0  0  0  0  0
    0.5929    5.1976   23.8719 C   0  0  0  0  0  0  0  0  0  0  0  0
    1.9419    5.0805   24.1957 O   0  0  0  0  0  0  0  0  0  0  0  0
   -0.2959    5.7968   24.7545 N   0  0  0  0  0  0  0  0  0  0  0  0
   -1.6256    5.9066   24.4677 C   0  0  0  0  0  0  0  0  0  0  0  0
   -2.1177    5.4546   23.3035 N   0  0  0  0  0  0  0  0  0  0  0  0
   -2.5282    6.5329   25.4391 N   0  0  0  0  0  0  0  0  0  0  0  0
    7.7990    0.4693   19.9249 C   0  0  0  0  0  0  0  0  0  0  0  0
    8.0549   -0.5899   19.3553 O   0  0  0  0  0  0  0  0  0  0  0  0
    8.8502    1.3032   20.4442 N   0  0  0  0  0  0  0  0  0  0  0  0
  1  2  2  0  0  0  0
  1  6  1  0  0  0  0
  1  7  1  0  0  0  0
  2  3  1  0  0  0  0
  3  4  2  0  0  0  0
  4  5  1  0  0  0  0
  4 20  1  0  0  0  0
  5  6  2  0  0  0  0
  7  8  1  0  0  0  0
  8  9  1  0  0  0  0
  9 10  2  0  0  0  0
  9 13  1  0  0  0  0
 10 11  1  0  0  0  0
 11 12  1  0  0  0  0
 12 13  2  0  0  0  0
 12 18  1  0  0  0  0
 13 14  1  0  0  0  0
 14 15  1  0  0  0  0
 14 16  2  0  0  0  0
 16 17  1  0  0  0  0
 17 18  2  0  0  0  0
 17 19  1  0  0  0  0
 20 21  2  0  0  0  0
 20 22  1  0  0  0  0
M  END
>  <CHROM.1>
-85.50078840,-90.07989139,-175.87571064,-41.82670154,2.41431009,3.23404331
21.71746488,0.57118051,0.30556859,-2.04398200

>  <Name>
ligand

>  <RI>
0

>  <Rbt.Current_Directory>
/home/itssahil/PROJECTS/Mol_Feturizer/New_Systems/rnas/4LVY

>  <Rbt.Executable>
rbdock ($Id: //depot/dev/client3/rdock/2013.1/src/exe/rbdock.cxx#4 $)

>  <Rbt.Library>
libRbt.so (2013.1, Build901 2013/11/27)

>  <Rbt.Parameter_File>
/export/apps/rDock/src/rDock_2013.1_src/data/scripts/dock_solv.prm

>  <Rbt.Receptor>
prm/pocket_docking_5.prm

>  <SCORE>
-13.8017

>  <SCORE.INTER>
-13.5288

>  <SCORE.INTER.CONST>
1

>  <SCORE.INTER.POLAR>
0

>  <SCORE.INTER.ROT>
4

>  <SCORE.INTER.SOLV>
21.519

>  <SCORE.INTER.VDW>
-22.4588

>  <SCORE.INTER.norm>
-0.614944

>  <SCORE.INTRA>
-0.272935

>  <SCORE.INTRA.DIHEDRAL>
0.0130967

>  <SCORE.INTRA.DIHEDRAL.0>
6.18831

>  <SCORE.INTRA.POLAR>
0

>  <SCORE.INTRA.POLAR.0>
0

>  <SCORE.INTRA.REPUL>
0

>  <SCORE.INTRA.REPUL.0>
0

>  <SCORE.INTRA.SOLV>
-0.0073069

>  <SCORE.INTRA.SOLV.lig_0>
-44.3465

>  <SCORE.INTRA.VDW>
-0.27583

>  <SCORE.INTRA.VDW.0>
-0.778272

>  <SCORE.INTRA.norm>
-0.0124061

>  <SCORE.RESTR>
0

>  <SCORE.RESTR.CAVITY>
0

>  <SCORE.RESTR.norm>
0

>  <SCORE.SYSTEM>
0

>  <SCORE.SYSTEM.CONST>
0

>  <SCORE.SYSTEM.DIHEDRAL>
0

>  <SCORE.SYSTEM.SOLV>
0

>  <SCORE.SYSTEM.norm>
0

>  <SCORE.heavy>
22

>  <SCORE.norm>
-0.627351

>  <RMSD>
0.903

$$$$
ligand
 OpenBabel11021811503D
libRbt.so/2013.1/901 2013/11/27
 22 24  0  0  0  0  0  0  0  0999 V2000
    3.7032    1.7301   20.4202 C   0  0  0  0  0  0  0  0  0  0  0  0
    4.3929    2.0977   19.2456 C   0  0  0  0  0  0  0  0  0  0  0  0
    5.7129    1.6905   19.0720 C   0  0  0  0  0  0  0  0  0  0  0  0
    6.3368    0.9211   20.0695 C   0  0  0  0  0  0  0  0  0  0  0  0
    5.6484    0.5592   21.2536 C   0  0  0  0  0  0  0  0  0  0  0  0
    4.3325    0.9668   21.4252 C   0  0  0  0  0  0  0  0  0  0  0  0
    2.2478    2.1878   20.6357 C   0  0  0  0  0  0  0  0  0  0  0  0
    2.0885    3.6369   21.1597 C   0  0  0  0  0  0  0  0  0  0  0  0
    0.6416    4.0433   21.4146 C   0  0  0  0  0  0  0  0  0  0  0  0
   -0.3976    3.8426   20.5010 C   0  0  0  0  0  0  0  0  0  0  0  0
   -1.5289    4.3239   21.0795 N   0  0  0  0  0  0  0  0  0  0  0  0
   -1.2960    4.8381   22.3395 C   0  0  0  0  0  0  0  0  0  0  0  0
    0.0618    4.6806   22.5946 C   0  0  0  0  0  0  0  0  0  0  0  0
    0.5528    5.1471   23.8728 C   0  0  0  0  0  0  0  0  0  0  0  0
    1.8996    5.0139   24.1991 O   0  0  0  0  0  0  0  0  0  0  0  0
   -0.3360    5.7309   24.7656 N   0  0  0  0  0  0  0  0  0  0  0  0
   -1.6639    5.8557   24.4761 C   0  0  0  0  0  0  0  0  0  0  0  0
   -2.1539    5.4343   23.2997 N   0  0  0  0  0  0  0  0  0  0  0  0
   -2.5665    6.4647   25.4584 N   0  0  0  0  0  0  0  0  0  0  0  0
    7.7666    0.4988   19.8584 C   0  0  0  0  0  0  0  0  0  0  0  0
    8.0205   -0.5530   19.2742 O   0  0  0  0  0  0  0  0  0  0  0  0
    8.8207    1.3418   20.3564 N   0  0  0  0  0  0  0  0  0  0  0  0
  1  2  2  0  0  0  0
  1  6  1  0  0  0  0
  1  7  1  0  0  0  0
  2  3  1  0  0  0  0
  3  4  2  0  0  0  0
  4  5  1  0  0  0  0
  4 20  1  0  0  0  0
  5  6  2  0  0  0  0
  7  8  1  0  0  0  0
  8  9  1  0  0  0  0
  9 10  2  0  0  0  0
  9 13  1  0  0  0  0
 10 11  1  0  0  0  0
 11 12  1  0  0  0  0
 12 13  2  0  0  0  0
 12 18  1  0  0  0  0
 13 14  1  0  0  0  0
 14 15  1  0  0  0  0
 14 16  2  0  0  0  0
 16 17  1  0  0  0  0
 17 18  2  0  0  0  0
 17 19  1  0  0  0  0
 20 21  2  0  0  0  0
 20 22  1  0  0  0  0
M  END
>  <CHROM.1>
-80.94996629,-88.78066822,-177.75302038,-48.41780055,2.37833269,3.22201831
21.70839045,0.56653104,0.30992698,-2.02534616

>  <Name>
ligand

>  <RI>
0

>  <Rbt.Current_Directory>
/home/itssahil/PROJECTS/Mol_Feturizer/New_Systems/rnas/4LVY

>  <Rbt.Executable>
rbdock ($Id: //depot/dev/client3/rdock/2013.1/src/exe/rbdock.cxx#4 $)

>  <Rbt.Library>
libRbt.so (2013.1, Build901 2013/11/27)

>  <Rbt.Parameter_File>
/export/apps/rDock/src/rDock_2013.1_src/data/scripts/dock_solv.prm

>  <Rbt.Receptor>
prm/pocket_docking_2.prm

>  <SCORE>
-13.8062

>  <SCORE.INTER>
-13.4494

>  <SCORE.INTER.CONST>
1

>  <SCORE.INTER.POLAR>
0

>  <SCORE.INTER.ROT>
4

>  <SCORE.INTER.SOLV>
21.6919

>  <SCORE.INTER.VDW>
-22.4636

>  <SCORE.INTER.norm>
-0.611338

>  <SCORE.INTRA>
-0.356767

>  <SCORE.INTRA.DIHEDRAL>
-0.0373191

>  <SCORE.INTRA.DIHEDRAL.0>
6.18831

>  <SCORE.INTRA.POLAR>
0

>  <SCORE.INTRA.POLAR.0>
0

>  <SCORE.INTRA.REPUL>
0

>  <SCORE.INTRA.REPUL.0>
0

>  <SCORE.INTRA.SOLV>
0.00484471

>  <SCORE.INTRA.SOLV.lig_0>
-44.3465

>  <SCORE.INTRA.VDW>
-0.34053

>  <SCORE.INTRA.VDW.0>
-0.778272

>  <SCORE.INTRA.norm>
-0.0162167

>  <SCORE.RESTR>
0

>  <SCORE.RESTR.CAVITY>
0

>  <SCORE.RESTR.norm>
0

>  <SCORE.SYSTEM>
0

>  <SCORE.SYSTEM.CONST>
0

>  <SCORE.SYSTEM.DIHEDRAL>
0

>  <SCORE.SYSTEM.SOLV>
0

>  <SCORE.SYSTEM.norm>
0

>  <SCORE.heavy>
22

>  <SCORE.norm>
-0.627554

>  <RMSD>
0.924

$$$$
ligand
 OpenBabel11021811503D
libRbt.so/2013.1/901 2013/11/27
 22 24  0  0  0  0  0  0  0  0999 V2000
    3.7062    1.6880   20.4739 C   0  0  0  0  0  0  0  0  0  0  0  0
    4.3990    2.0789   19.3086 C   0  0  0  0  0  0  0  0  0  0  0  0
    5.7177    1.6706   19.1279 C   0  0  0  0  0  0  0  0  0  0  0  0
    6.3372    0.8770   20.1090 C   0  0  0  0  0  0  0  0  0  0  0  0
    5.6458    0.4917   21.2839 C   0  0  0  0  0  0  0  0  0  0  0  0
    4.3313    0.9004   21.4626 C   0  0  0  0  0  0  0  0  0  0  0  0
    2.2522    2.1464   20.6975 C   0  0  0  0  0  0  0  0  0  0  0  0
    2.0943    3.6113   21.1759 C   0  0  0  0  0  0  0  0  0  0  0  0
    0.6491    4.0217   21.4341 C   0  0  0  0  0  0  0  0  0  0  0  0
   -0.3988    3.7932   20.5372 C   0  0  0  0  0  0  0  0  0  0  0  0
   -1.5253    4.2883   21.1134 N   0  0  0  0  0  0  0  0  0  0  0  0
   -1.2809    4.8383   22.3559 C   0  0  0  0  0  0  0  0  0  0  0  0
    0.0798    4.6909   22.6015 C   0  0  0  0  0  0  0  0  0  0  0  0
    0.5826    5.1943   23.8609 C   0  0  0  0  0  0  0  0  0  0  0  0
    1.9330    5.0731   24.1770 O   0  0  0  0  0  0  0  0  0  0  0  0
   -0.2984    5.8012   24.7460 N   0  0  0  0  0  0  0  0  0  0  0  0
   -1.6294    5.9150   24.4667 C   0  0  0  0  0  0  0  0  0  0  0  0
   -2.1304    5.4596   23.3076 N   0  0  0  0  0  0  0  0  0  0  0  0
   -2.5235    6.5496   25.4406 N   0  0  0  0  0  0  0  0  0  0  0  0
    7.7657    0.4540   19.8904 C   0  0  0  0  0  0  0  0  0  0  0  0
    8.0161   -0.6287   19.3642 O   0  0  0  0  0  0  0  0  0  0  0  0
    8.8231    1.3335   20.3131 N   0  0  0  0  0  0  0  0  0  0  0  0
  1  2  2  0  0  0  0
  1  6  1  0  0  0  0
  1  7  1  0  0  0  0
  2  3  1  0  0  0  0
  3  4  2  0  0  0  0
  4  5  1  0  0  0  0
  4 20  1  0  0  0  0
  5  6  2  0  0  0  0
  7  8  1  0  0  0  0
  8  9  1  0  0  0  0
  9 10  2  0  0  0  0
  9 13  1  0  0  0  0
 10 11  1  0  0  0  0
 11 12  1  0  0  0  0
 12 13  2  0  0  0  0
 12 18  1  0  0  0  0
 13 14  1  0  0  0  0
 14 15  1  0  0  0  0
 14 16  2  0  0  0  0
 16 17  1  0  0  0  0
 17 18  2  0  0  0  0
 17 19  1  0  0  0  0
 20 21  2  0  0  0  0
 20 22  1  0  0  0  0
M  END
>  <CHROM.1>
-77.60699514,-93.71302324,-178.03098104,-48.67652501,2.39060631,3.21368134
21.72959857,0.57654956,0.30071100,-2.05910717

>  <Name>
ligand

>  <RI>
0

>  <Rbt.Current_Directory>
/home/itssahil/PROJECTS/Mol_Feturizer/New_Systems/rnas/4LVY

>  <Rbt.Executable>
rbdock ($Id: //depot/dev/client3/rdock/2013.1/src/exe/rbdock.cxx#4 $)

>  <Rbt.Library>
libRbt.so (2013.1, Build901 2013/11/27)

>  <Rbt.Parameter_File>
/export/apps/rDock/src/rDock_2013.1_src/data/scripts/dock_solv.prm

>  <Rbt.Receptor>
prm/pocket_docking_3.prm

>  <SCORE>
-13.8384

>  <SCORE.INTER>
-13.4873

>  <SCORE.INTER.CONST>
1

>  <SCORE.INTER.POLAR>
0

>  <SCORE.INTER.ROT>
4

>  <SCORE.INTER.SOLV>
21.7021

>  <SCORE.INTER.VDW>
-22.4922

>  <SCORE.INTER.norm>
-0.613058

>  <SCORE.INTRA>
-0.351087

>  <SCORE.INTRA.DIHEDRAL>
-0.0354677

>  <SCORE.INTRA.DIHEDRAL.0>
6.18831

>  <SCORE.INTRA.POLAR>
0

>  <SCORE.INTRA.POLAR.0>
0

>  <SCORE.INTRA.REPUL>
0

>  <SCORE.INTRA.REPUL.0>
0

>  <SCORE.INTRA.SOLV>
0.00570534

>  <SCORE.INTRA.SOLV.lig_0>
-44.3465

>  <SCORE.INTRA.VDW>
-0.336206

>  <SCORE.INTRA.VDW.0>
-0.778272

>  <SCORE.INTRA.norm>
-0.0159585

>  <SCORE.RESTR>
0

>  <SCORE.RESTR.CAVITY>
0

>  <SCORE.RESTR.norm>
0

>  <SCORE.SYSTEM>
0

>  <SCORE.SYSTEM.CONST>
0

>  <SCORE.SYSTEM.DIHEDRAL>
0

>  <SCORE.SYSTEM.SOLV>
0

>  <SCORE.SYSTEM.norm>
0

>  <SCORE.heavy>
22

>  <SCORE.norm>
-0.629017

>  <RMSD>
0.925

$$$$
ligand
 OpenBabel11021811503D
libRbt.so/2013.1/901 2013/11/27
 22 24  0  0  0  0  0  0  0  0999 V2000
    4.9017    1.8624   19.4693 C   0  0  0  0  0  0  0  0  0  0  0  0
    5.6312    2.2905   18.3400 C   0  0  0  0  0  0  0  0  0  0  0  0
    6.9509    1.8762   18.1813 C   0  0  0  0  0  0  0  0  0  0  0  0
    7.5348    1.0396   19.1484 C   0  0  0  0  0  0  0  0  0  0  0  0
    6.8065    0.6168   20.2875 C   0  0  0  0  0  0  0  0  0  0  0  0
    5.4910    1.0315   20.4444 C   0  0  0  0  0  0  0  0  0  0  0  0
    3.4460    2.3264   19.6689 C   0  0  0  0  0  0  0  0  0  0  0  0
    2.9265    2.2421   21.1259 C   0  0  0  0  0  0  0  0  0  0  0  0
    1.4566    2.6164   21.2775 C   0  0  0  0  0  0  0  0  0  0  0  0
    0.4299    2.0779   20.4960 C   0  0  0  0  0  0  0  0  0  0  0  0
   -0.7289    2.6432   20.9243 N   0  0  0  0  0  0  0  0  0  0  0  0
   -0.5265    3.5363   21.9576 C   0  0  0  0  0  0  0  0  0  0  0  0
    0.8397    3.5508   22.2162 C   0  0  0  0  0  0  0  0  0  0  0  0
    1.3029    4.4203   23.2752 C   0  0  0  0  0  0  0  0  0  0  0  0
    2.6567    4.4792   23.5942 O   0  0  0  0  0  0  0  0  0  0  0  0
    0.3803    5.1956   23.9649 N   0  0  0  0  0  0  0  0  0  0  0  0
   -0.9540    5.1414   23.6830 C   0  0  0  0  0  0  0  0  0  0  0  0
   -1.4189    4.3462   22.7067 N   0  0  0  0  0  0  0  0  0  0  0  0
   -1.8918    5.9674   24.4503 N   0  0  0  0  0  0  0  0  0  0  0  0
    8.9652    0.6111   18.9545 C   0  0  0  0  0  0  0  0  0  0  0  0
    9.2237   -0.4109   18.3215 O   0  0  0  0  0  0  0  0  0  0  0  0
   10.0142    1.4125   19.5266 N   0  0  0  0  0  0  0  0  0  0  0  0
  1  2  2  0  0  0  0
  1  6  1  0  0  0  0
  1  7  1  0  0  0  0
  2  3  1  0  0  0  0
  3  4  2  0  0  0  0
  4  5  1  0  0  0  0
  4 20  1  0  0  0  0
  5  6  2  0  0  0  0
  7  8  1  0  0  0  0
  8  9  1  0  0  0  0
  9 10  2  0  0  0  0
  9 13  1  0  0  0  0
 10 11  1  0  0  0  0
 11 12  1  0  0  0  0
 12 13  2  0  0  0  0
 12 18  1  0  0  0  0
 13 14  1  0  0  0  0
 14 15  1  0  0  0  0
 14 16  2  0  0  0  0
 16 17  1  0  0  0  0
 17 18  2  0  0  0  0
 17 19  1  0  0  0  0
 20 21  2  0  0  0  0
 20 22  1  0  0  0  0
M  END
>  <CHROM.1>
-158.73822988,-89.16364603,-176.04000024,50.43355690,3.33638964,2.69575062
21.03676284,0.56277897,0.05997178,-2.20123045

>  <Name>
ligand

>  <RI>
0

>  <Rbt.Current_Directory>
/home/itssahil/PROJECTS/Mol_Feturizer/New_Systems/rnas/4LVY

>  <Rbt.Executable>
rbdock ($Id: //depot/dev/client3/rdock/2013.1/src/exe/rbdock.cxx#4 $)

>  <Rbt.Library>
libRbt.so (2013.1, Build901 2013/11/27)

>  <Rbt.Parameter_File>
/export/apps/rDock/src/rDock_2013.1_src/data/scripts/dock_solv.prm

>  <Rbt.Receptor>
prm/pocket_docking_3.prm

>  <SCORE>
-13.7021

>  <SCORE.INTER>
-14.0806

>  <SCORE.INTER.CONST>
1

>  <SCORE.INTER.POLAR>
0

>  <SCORE.INTER.ROT>
4

>  <SCORE.INTER.SOLV>
16.0684

>  <SCORE.INTER.VDW>
-21.0099

>  <SCORE.INTER.norm>
-0.640029

>  <SCORE.INTRA>
0.378586

>  <SCORE.INTRA.DIHEDRAL>
0.116443

>  <SCORE.INTRA.DIHEDRAL.0>
6.18831

>  <SCORE.INTRA.POLAR>
0

>  <SCORE.INTRA.POLAR.0>
0

>  <SCORE.INTRA.REPUL>
0

>  <SCORE.INTRA.REPUL.0>
0

>  <SCORE.INTRA.SOLV>
0.0079227

>  <SCORE.INTRA.SOLV.lig_0>
-44.3465

>  <SCORE.INTRA.VDW>
0.316403

>  <SCORE.INTRA.VDW.0>
-0.778272

>  <SCORE.INTRA.norm>
0.0172085

>  <SCORE.RESTR>
0

>  <SCORE.RESTR.CAVITY>
0

>  <SCORE.RESTR.norm>
0

>  <SCORE.SYSTEM>
0

>  <SCORE.SYSTEM.CONST>
0

>  <SCORE.SYSTEM.DIHEDRAL>
0

>  <SCORE.SYSTEM.SOLV>
0

>  <SCORE.SYSTEM.norm>
0

>  <SCORE.heavy>
22

>  <SCORE.norm>
-0.622821

>  <RMSD>
0.940

$$$$
ligand
 OpenBabel11021811503D
libRbt.so/2013.1/901 2013/11/27
 22 24  0  0  0  0  0  0  0  0999 V2000
    4.9400    1.8224   19.5590 C   0  0  0  0  0  0  0  0  0  0  0  0
    5.5305    0.9823   20.5265 C   0  0  0  0  0  0  0  0  0  0  0  0
    6.8433    0.5537   20.3501 C   0  0  0  0  0  0  0  0  0  0  0  0
    7.5582    0.9638   19.2113 C   0  0  0  0  0  0  0  0  0  0  0  0
    6.9633    1.7995   18.2342 C   0  0  0  0  0  0  0  0  0  0  0  0
    5.6540    2.2253   18.4116 C   0  0  0  0  0  0  0  0  0  0  0  0
    3.4822    2.2910   19.7303 C   0  0  0  0  0  0  0  0  0  0  0  0
    2.9531    2.2640   21.1861 C   0  0  0  0  0  0  0  0  0  0  0  0
    1.4842    2.6507   21.3140 C   0  0  0  0  0  0  0  0  0  0  0  0
    0.4672    2.1293   20.5085 C   0  0  0  0  0  0  0  0  0  0  0  0
   -0.6941    2.7015   20.9207 N   0  0  0  0  0  0  0  0  0  0  0  0
   -0.5026    3.5829   21.9661 C   0  0  0  0  0  0  0  0  0  0  0  0
    0.8586    3.5820   22.2500 C   0  0  0  0  0  0  0  0  0  0  0  0
    1.3101    4.4371   23.3258 C   0  0  0  0  0  0  0  0  0  0  0  0
    2.6583    4.4802   23.6703 O   0  0  0  0  0  0  0  0  0  0  0  0
    0.3821    5.2146   24.0056 N   0  0  0  0  0  0  0  0  0  0  0  0
   -0.9472    5.1756   23.6986 C   0  0  0  0  0  0  0  0  0  0  0  0
   -1.4012    4.3941   22.7063 N   0  0  0  0  0  0  0  0  0  0  0  0
   -1.8914    6.0032   24.4563 N   0  0  0  0  0  0  0  0  0  0  0  0
    8.9745    0.4811   19.0429 C   0  0  0  0  0  0  0  0  0  0  0  0
    9.2256   -0.4395   18.2673 O   0  0  0  0  0  0  0  0  0  0  0  0
   10.0184    1.1101   19.8075 N   0  0  0  0  0  0  0  0  0  0  0  0
  1  2  2  0  0  0  0
  1  6  1  0  0  0  0
  1  7  1  0  0  0  0
  2  3  1  0  0  0  0
  3  4  2  0  0  0  0
  4  5  1  0  0  0  0
  4 20  1  0  0  0  0
  5  6  2  0  0  0  0
  7  8  1  0  0  0  0
  8  9  1  0  0  0  0
  9 10  2  0  0  0  0
  9 13  1  0  0  0  0
 10 11  1  0  0  0  0
 11 12  1  0  0  0  0
 12 13  2  0  0  0  0
 12 18  1  0  0  0  0
 13 14  1  0  0  0  0
 14 15  1  0  0  0  0
 14 16  2  0  0  0  0
 16 17  1  0  0  0  0
 17 18  2  0  0  0  0
 17 19  1  0  0  0  0
 20 21  2  0  0  0  0
 20 22  1  0  0  0  0
M  END
>  <CHROM.1>
22.77730071,101.95125409,-176.45397929,47.63745169,3.35530930,2.67464736
21.08780755,0.56339788,0.09599915,-2.17320568

>  <Name>
ligand

>  <RI>
0

>  <Rbt.Current_Directory>
/home/itssahil/PROJECTS/Mol_Feturizer/New_Systems/rnas/4LVY

>  <Rbt.Executable>
rbdock ($Id: //depot/dev/client3/rdock/2013.1/src/exe/rbdock.cxx#4 $)

>  <Rbt.Library>
libRbt.so (2013.1, Build901 2013/11/27)

>  <Rbt.Parameter_File>
/export/apps/rDock/src/rDock_2013.1_src/data/scripts/dock_solv.prm

>  <Rbt.Receptor>
prm/pocket_docking_2.prm

>  <SCORE>
-13.9534

>  <SCORE.INTER>
-14.1653

>  <SCORE.INTER.CONST>
1

>  <SCORE.INTER.POLAR>
0

>  <SCORE.INTER.ROT>
4

>  <SCORE.INTER.SOLV>
16.1626

>  <SCORE.INTER.VDW>
-21.0978

>  <SCORE.INTER.norm>
-0.643878

>  <SCORE.INTRA>
0.211881

>  <SCORE.INTRA.DIHEDRAL>
0.0127819

>  <SCORE.INTRA.DIHEDRAL.0>
6.18831

>  <SCORE.INTRA.POLAR>
0

>  <SCORE.INTRA.POLAR.0>
0

>  <SCORE.INTRA.REPUL>
0

>  <SCORE.INTRA.REPUL.0>
0

>  <SCORE.INTRA.SOLV>
0.000207993

>  <SCORE.INTRA.SOLV.lig_0>
-44.3465

>  <SCORE.INTRA.VDW>
0.205386

>  <SCORE.INTRA.VDW.0>
-0.778272

>  <SCORE.INTRA.norm>
0.00963097

>  <SCORE.RESTR>
0

>  <SCORE.RESTR.CAVITY>
0

>  <SCORE.RESTR.norm>
0

>  <SCORE.SYSTEM>
0

>  <SCORE.SYSTEM.CONST>
0

>  <SCORE.SYSTEM.DIHEDRAL>
0

>  <SCORE.SYSTEM.SOLV>
0

>  <SCORE.SYSTEM.norm>
0

>  <SCORE.heavy>
22

>  <SCORE.norm>
-0.634247

>  <RMSD>
0.945

$$$$
ligand
 OpenBabel11021811503D
libRbt.so/2013.1/901 2013/11/27
 22 24  0  0  0  0  0  0  0  0999 V2000
    4.9389    1.8515   19.4891 C   0  0  0  0  0  0  0  0  0  0  0  0
    5.6749    2.2544   18.3549 C   0  0  0  0  0  0  0  0  0  0  0  0
    6.9922    1.8282   18.2078 C   0  0  0  0  0  0  0  0  0  0  0  0
    7.5672    1.0048   19.1914 C   0  0  0  0  0  0  0  0  0  0  0  0
    6.8324    0.6072   20.3354 C   0  0  0  0  0  0  0  0  0  0  0  0
    5.5193    1.0338   20.4807 C   0  0  0  0  0  0  0  0  0  0  0  0
    3.4859    2.3290   19.6759 C   0  0  0  0  0  0  0  0  0  0  0  0
    2.9367    2.2048   21.1191 C   0  0  0  0  0  0  0  0  0  0  0  0
    1.4677    2.5886   21.2534 C   0  0  0  0  0  0  0  0  0  0  0  0
    0.4479    2.0634   20.4540 C   0  0  0  0  0  0  0  0  0  0  0  0
   -0.7126    2.6340   20.8707 N   0  0  0  0  0  0  0  0  0  0  0  0
   -0.5179    3.5180   21.9132 C   0  0  0  0  0  0  0  0  0  0  0  0
    0.8447    3.5205   22.1905 C   0  0  0  0  0  0  0  0  0  0  0  0
    1.2997    4.3789   23.2622 C   0  0  0  0  0  0  0  0  0  0  0  0
    2.6494    4.4255   23.6001 O   0  0  0  0  0  0  0  0  0  0  0  0
    0.3733    5.1558   23.9450 N   0  0  0  0  0  0  0  0  0  0  0  0
   -0.9573    5.1134   23.6446 C   0  0  0  0  0  0  0  0  0  0  0  0
   -1.4146    4.3288   22.6562 N   0  0  0  0  0  0  0  0  0  0  0  0
   -1.8996    5.9405   24.4052 N   0  0  0  0  0  0  0  0  0  0  0  0
    8.9951    0.5629   19.0097 C   0  0  0  0  0  0  0  0  0  0  0  0
    9.2453   -0.5102   18.4641 O   0  0  0  0  0  0  0  0  0  0  0  0
   10.0519    1.4129   19.4902 N   0  0  0  0  0  0  0  0  0  0  0  0
  1  2  2  0  0  0  0
  1  6  1  0  0  0  0
  1  7  1  0  0  0  0
  2  3  1  0  0  0  0
  3  4  2  0  0  0  0
  4  5  1  0  0  0  0
  4 20  1  0  0  0  0
  5  6  2  0  0  0  0
  7  8  1  0  0  0  0
  8  9  1  0  0  0  0
  9 10  2  0  0  0  0
  9 13  1  0  0  0  0
 10 11  1  0  0  0  0
 11 12  1  0  0  0  0
 12 13  2  0  0  0  0
 12 18  1  0  0  0  0
 13 14  1  0  0  0  0
 14 15  1  0  0  0  0
 14 16  2  0  0  0  0
 16 17  1  0  0  0  0
 17 18  2  0  0  0  0
 17 19  1  0  0  0  0
 20 21  2  0  0  0  0
 20 22  1  0  0  0  0
M  END
>  <CHROM.1>
-161.78931944,-93.39503500,-175.78937043,51.84178502,3.35332040,2.66645603
21.03737288,0.55520150,0.06950151,-2.19637742

>  <Name>
ligand

>  <RI>
0

>  <Rbt.Current_Directory>
/home/itssahil/PROJECTS/Mol_Feturizer/New_Systems/rnas/4LVY

>  <Rbt.Executable>
rbdock ($Id: //depot/dev/client3/rdock/2013.1/src/exe/rbdock.cxx#4 $)

>  <Rbt.Library>
libRbt.so (2013.1, Build901 2013/11/27)

>  <Rbt.Parameter_File>
/export/apps/rDock/src/rDock_2013.1_src/data/scripts/dock_solv.prm

>  <Rbt.Receptor>
prm/pocket_docking_2.prm

>  <SCORE>
-13.6957

>  <SCORE.INTER>
-14.1055

>  <SCORE.INTER.CONST>
1

>  <SCORE.INTER.POLAR>
0

>  <SCORE.INTER.ROT>
4

>  <SCORE.INTER.SOLV>
15.9063

>  <SCORE.INTER.VDW>
-20.9725

>  <SCORE.INTER.norm>
-0.641161

>  <SCORE.INTRA>
0.409798

>  <SCORE.INTRA.DIHEDRAL>
0.120357

>  <SCORE.INTRA.DIHEDRAL.0>
6.18831

>  <SCORE.INTRA.POLAR>
0

>  <SCORE.INTRA.POLAR.0>
0

>  <SCORE.INTRA.REPUL>
0

>  <SCORE.INTRA.REPUL.0>
0

>  <SCORE.INTRA.SOLV>
0.0119485

>  <SCORE.INTRA.SOLV.lig_0>
-44.3465

>  <SCORE.INTRA.VDW>
0.343646

>  <SCORE.INTRA.VDW.0>
-0.778272

>  <SCORE.INTRA.norm>
0.0186272

>  <SCORE.RESTR>
0

>  <SCORE.RESTR.CAVITY>
0

>  <SCORE.RESTR.norm>
0

>  <SCORE.SYSTEM>
0

>  <SCORE.SYSTEM.CONST>
0

>  <SCORE.SYSTEM.DIHEDRAL>
0

>  <SCORE.SYSTEM.SOLV>
0

>  <SCORE.SYSTEM.norm>
0

>  <SCORE.heavy>
22

>  <SCORE.norm>
-0.622534

>  <RMSD>
0.961

$$$$
ligand
 OpenBabel11021811503D
libRbt.so/2013.1/901 2013/11/27
 22 24  0  0  0  0  0  0  0  0999 V2000
    3.7588    1.7069   20.4804 C   0  0  0  0  0  0  0  0  0  0  0  0
    4.3747    2.1277   19.2827 C   0  0  0  0  0  0  0  0  0  0  0  0
    5.6912    1.7563   19.0238 C   0  0  0  0  0  0  0  0  0  0  0  0
    6.3852    0.9695   19.9595 C   0  0  0  0  0  0  0  0  0  0  0  0
    5.7712    0.5542   21.1667 C   0  0  0  0  0  0  0  0  0  0  0  0
    4.4586    0.9262   21.4234 C   0  0  0  0  0  0  0  0  0  0  0  0
    2.3083    2.1244   20.7903 C   0  0  0  0  0  0  0  0  0  0  0  0
    2.1303    3.6024   21.2188 C   0  0  0  0  0  0  0  0  0  0  0  0
    0.6803    3.9993   21.4710 C   0  0  0  0  0  0  0  0  0  0  0  0
   -0.3656    3.7411   20.5797 C   0  0  0  0  0  0  0  0  0  0  0  0
   -1.4976    4.2326   21.1481 N   0  0  0  0  0  0  0  0  0  0  0  0
   -1.2589    4.8084   22.3800 C   0  0  0  0  0  0  0  0  0  0  0  0
    0.1038    4.6827   22.6266 C   0  0  0  0  0  0  0  0  0  0  0  0
    0.6014    5.2155   23.8759 C   0  0  0  0  0  0  0  0  0  0  0  0
    1.9535    5.1172   24.1926 O   0  0  0  0  0  0  0  0  0  0  0  0
   -0.2863    5.8276   24.7507 N   0  0  0  0  0  0  0  0  0  0  0  0
   -1.6189    5.9195   24.4709 C   0  0  0  0  0  0  0  0  0  0  0  0
   -2.1153    5.4365   23.3211 N   0  0  0  0  0  0  0  0  0  0  0  0
   -2.5200    6.5607   25.4340 N   0  0  0  0  0  0  0  0  0  0  0  0
    7.8097    0.5867   19.6566 C   0  0  0  0  0  0  0  0  0  0  0  0
    8.6375    0.5187   20.5632 O   0  0  0  0  0  0  0  0  0  0  0  0
    8.1801    0.3109   18.2939 N   0  0  0  0  0  0  0  0  0  0  0  0
  1  2  2  0  0  0  0
  1  6  1  0  0  0  0
  1  7  1  0  0  0  0
  2  3  1  0  0  0  0
  3  4  2  0  0  0  0
  4  5  1  0  0  0  0
  4 20  1  0  0  0  0
  5  6  2  0  0  0  0
  7  8  1  0  0  0  0
  8  9  1  0  0  0  0
  9 10  2  0  0  0  0
  9 13  1  0  0  0  0
 10 11  1  0  0  0  0
 11 12  1  0  0  0  0
 12 13  2  0  0  0  0
 12 18  1  0  0  0  0
 13 14  1  0  0  0  0
 14 15  1  0  0  0  0
 14 16  2  0  0  0  0
 16 17  1  0  0  0  0
 17 18  2  0  0  0  0
 17 19  1  0  0  0  0
 20 21  2  0  0  0  0
 20 22  1  0  0  0  0
M  END
>  <CHROM.1>
-74.39312818,143.97732917,177.95938807,-49.64786237,2.42278968,3.24264510
21.68597734,0.57490265,0.31025612,-2.00515972

>  <Name>
ligand

>  <RI>
0

>  <Rbt.Current_Directory>
/home/itssahil/PROJECTS/Mol_Feturizer/New_Systems/rnas/4LVY

>  <Rbt.Executable>
rbdock ($Id: //depot/dev/client3/rdock/2013.1/src/exe/rbdock.cxx#4 $)

>  <Rbt.Library>
libRbt.so (2013.1, Build901 2013/11/27)

>  <Rbt.Parameter_File>
/export/apps/rDock/src/rDock_2013.1_src/data/scripts/dock_solv.prm

>  <Rbt.Receptor>
prm/pocket_docking_2.prm

>  <SCORE>
-13.5604

>  <SCORE.INTER>
-13.392

>  <SCORE.INTER.CONST>
1

>  <SCORE.INTER.POLAR>
0

>  <SCORE.INTER.ROT>
4

>  <SCORE.INTER.SOLV>
22.0722

>  <SCORE.INTER.VDW>
-22.5521

>  <SCORE.INTER.norm>
-0.608727

>  <SCORE.INTRA>
-0.16843

>  <SCORE.INTRA.DIHEDRAL>
-0.0263355

>  <SCORE.INTRA.DIHEDRAL.0>
6.18831

>  <SCORE.INTRA.POLAR>
0

>  <SCORE.INTRA.POLAR.0>
0

>  <SCORE.INTRA.REPUL>
0

>  <SCORE.INTRA.REPUL.0>
0

>  <SCORE.INTRA.SOLV>
0.0195734

>  <SCORE.INTRA.SOLV.lig_0>
-44.3465

>  <SCORE.INTRA.VDW>
-0.165049

>  <SCORE.INTRA.VDW.0>
-0.778272

>  <SCORE.INTRA.norm>
-0.00765593

>  <SCORE.RESTR>
0

>  <SCORE.RESTR.CAVITY>
0

>  <SCORE.RESTR.norm>
0

>  <SCORE.SYSTEM>
0

>  <SCORE.SYSTEM.CONST>
0

>  <SCORE.SYSTEM.DIHEDRAL>
0

>  <SCORE.SYSTEM.SOLV>
0

>  <SCORE.SYSTEM.norm>
0

>  <SCORE.heavy>
22

>  <SCORE.norm>
-0.616383

>  <RMSD>
0.966

$$$$
ligand
 OpenBabel11021811503D
libRbt.so/2013.1/901 2013/11/27
 22 24  0  0  0  0  0  0  0  0999 V2000
    4.9359    1.8150   19.5574 C   0  0  0  0  0  0  0  0  0  0  0  0
    5.5310    0.9868   20.5324 C   0  0  0  0  0  0  0  0  0  0  0  0
    6.8431    0.5564   20.3554 C   0  0  0  0  0  0  0  0  0  0  0  0
    7.5529    0.9529   19.2085 C   0  0  0  0  0  0  0  0  0  0  0  0
    6.9535    1.7767   18.2242 C   0  0  0  0  0  0  0  0  0  0  0  0
    5.6448    2.2042   18.4021 C   0  0  0  0  0  0  0  0  0  0  0  0
    3.4788    2.2853   19.7295 C   0  0  0  0  0  0  0  0  0  0  0  0
    2.9502    2.2581   21.1854 C   0  0  0  0  0  0  0  0  0  0  0  0
    1.4811    2.6438   21.3137 C   0  0  0  0  0  0  0  0  0  0  0  0
    0.4641    2.1213   20.5089 C   0  0  0  0  0  0  0  0  0  0  0  0
   -0.6974    2.6930   20.9213 N   0  0  0  0  0  0  0  0  0  0  0  0
   -0.5061    3.5750   21.9661 C   0  0  0  0  0  0  0  0  0  0  0  0
    0.8552    3.5752   22.2495 C   0  0  0  0  0  0  0  0  0  0  0  0
    1.3066    4.4312   23.3246 C   0  0  0  0  0  0  0  0  0  0  0  0
    2.6548    4.4754   23.6686 O   0  0  0  0  0  0  0  0  0  0  0  0
    0.3783    5.2084   24.0044 N   0  0  0  0  0  0  0  0  0  0  0  0
   -0.9511    5.1684   23.6980 C   0  0  0  0  0  0  0  0  0  0  0  0
   -1.4050    4.3860   22.7063 N   0  0  0  0  0  0  0  0  0  0  0  0
   -1.8956    5.9957   24.4556 N   0  0  0  0  0  0  0  0  0  0  0  0
    8.9686    0.4686   19.0398 C   0  0  0  0  0  0  0  0  0  0  0  0
    9.2708   -0.2338   18.0768 O   0  0  0  0  0  0  0  0  0  0  0  0
    9.9507    0.8364   20.0247 N   0  0  0  0  0  0  0  0  0  0  0  0
  1  2  2  0  0  0  0
  1  6  1  0  0  0  0
  1  7  1  0  0  0  0
  2  3  1  0  0  0  0
  3  4  2  0  0  0  0
  4  5  1  0  0  0  0
  4 20  1  0  0  0  0
  5  6  2  0  0  0  0
  7  8  1  0  0  0  0
  8  9  1  0  0  0  0
  9 10  2  0  0  0  0
  9 13  1  0  0  0  0
 10 11  1  0  0  0  0
 11 12  1  0  0  0  0
 12 13  2  0  0  0  0
 12 18  1  0  0  0  0
 13 14  1  0  0  0  0
 14 15  1  0  0  0  0
 14 16  2  0  0  0  0
 16 17  1  0  0  0  0
 17 18  2  0  0  0  0
 17 19  1  0  0  0  0
 20 21  2  0  0  0  0
 20 22  1  0  0  0  0
M  END
>  <CHROM.1>
22.01509101,118.50272640,-176.34094459,47.66007205,3.35099966,2.66581362
21.08681130,0.56135374,0.11329030,-2.14559173

>  <Name>
ligand

>  <RI>
0

>  <Rbt.Current_Directory>
/home/itssahil/PROJECTS/Mol_Feturizer/New_Systems/rnas/4LVY

>  <Rbt.Executable>
rbdock ($Id: //depot/dev/client3/rdock/2013.1/src/exe/rbdock.cxx#4 $)

>  <Rbt.Library>
libRbt.so (2013.1, Build901 2013/11/27)

>  <Rbt.Parameter_File>
/export/apps/rDock/src/rDock_2013.1_src/data/scripts/dock_solv.prm

>  <Rbt.Receptor>
prm/pocket_docking_7.prm

>  <SCORE>
-13.9154

>  <SCORE.INTER>
-14.1628

>  <SCORE.INTER.CONST>
1

>  <SCORE.INTER.POLAR>
0

>  <SCORE.INTER.ROT>
4

>  <SCORE.INTER.SOLV>
16.1952

>  <SCORE.INTER.VDW>
-21.107

>  <SCORE.INTER.norm>
-0.643765

>  <SCORE.INTRA>
0.247471

>  <SCORE.INTRA.DIHEDRAL>
-0.00293914

>  <SCORE.INTRA.DIHEDRAL.0>
6.18831

>  <SCORE.INTRA.POLAR>
0

>  <SCORE.INTRA.POLAR.0>
0

>  <SCORE.INTRA.REPUL>
0

>  <SCORE.INTRA.REPUL.0>
0

>  <SCORE.INTRA.SOLV>
0.00397091

>  <SCORE.INTRA.SOLV.lig_0>
-44.3465

>  <SCORE.INTRA.VDW>
0.246955

>  <SCORE.INTRA.VDW.0>
-0.778272

>  <SCORE.INTRA.norm>
0.0112487

>  <SCORE.RESTR>
0

>  <SCORE.RESTR.CAVITY>
0

>  <SCORE.RESTR.norm>
0

>  <SCORE.SYSTEM>
0

>  <SCORE.SYSTEM.CONST>
0

>  <SCORE.SYSTEM.DIHEDRAL>
0

>  <SCORE.SYSTEM.SOLV>
0

>  <SCORE.SYSTEM.norm>
0

>  <SCORE.heavy>
22

>  <SCORE.norm>
-0.632516

>  <RMSD>
0.980

$$$$
ligand
 OpenBabel11021811503D
libRbt.so/2013.1/901 2013/11/27
 22 24  0  0  0  0  0  0  0  0999 V2000
    4.9291    1.8689   19.4773 C   0  0  0  0  0  0  0  0  0  0  0  0
    5.5433    1.0278   20.4291 C   0  0  0  0  0  0  0  0  0  0  0  0
    6.8594    0.6188   20.2318 C   0  0  0  0  0  0  0  0  0  0  0  0
    7.5541    1.0496   19.0881 C   0  0  0  0  0  0  0  0  0  0  0  0
    6.9355    1.8864   18.1269 C   0  0  0  0  0  0  0  0  0  0  0  0
    5.6229    2.2926   18.3250 C   0  0  0  0  0  0  0  0  0  0  0  0
    3.4674    2.3160   19.6716 C   0  0  0  0  0  0  0  0  0  0  0  0
    2.9448    2.2292   21.1274 C   0  0  0  0  0  0  0  0  0  0  0  0
    1.4743    2.6021   21.2763 C   0  0  0  0  0  0  0  0  0  0  0  0
    0.4497    2.0635   20.4921 C   0  0  0  0  0  0  0  0  0  0  0  0
   -0.7105    2.6274   20.9187 N   0  0  0  0  0  0  0  0  0  0  0  0
   -0.5110    3.5197   21.9532 C   0  0  0  0  0  0  0  0  0  0  0  0
    0.8547    3.5350   22.2146 C   0  0  0  0  0  0  0  0  0  0  0  0
    1.3150    4.4040   23.2754 C   0  0  0  0  0  0  0  0  0  0  0  0
    2.6681    4.4637   23.5973 O   0  0  0  0  0  0  0  0  0  0  0  0
    0.3903    5.1778   23.9640 N   0  0  0  0  0  0  0  0  0  0  0  0
   -0.9434    5.1227   23.6793 C   0  0  0  0  0  0  0  0  0  0  0  0
   -1.4056    4.3281   22.7013 N   0  0  0  0  0  0  0  0  0  0  0  0
   -1.8835    5.9472   24.4454 N   0  0  0  0  0  0  0  0  0  0  0  0
    8.9745    0.5879   18.8971 C   0  0  0  0  0  0  0  0  0  0  0  0
    9.2386   -0.2656   18.0522 O   0  0  0  0  0  0  0  0  0  0  0  0
   10.0068    1.1570   19.7220 N   0  0  0  0  0  0  0  0  0  0  0  0
  1  2  2  0  0  0  0
  1  6  1  0  0  0  0
  1  7  1  0  0  0  0
  2  3  1  0  0  0  0
  3  4  2  0  0  0  0
  4  5  1  0  0  0  0
  4 20  1  0  0  0  0
  5  6  2  0  0  0  0
  7  8  1  0  0  0  0
  8  9  1  0  0  0  0
  9 10  2  0  0  0  0
  9 13  1  0  0  0  0
 10 11  1  0  0  0  0
 11 12  1  0  0  0  0
 12 13  2  0  0  0  0
 12 18  1  0  0  0  0
 13 14  1  0  0  0  0
 14 15  1  0  0  0  0
 14 16  2  0  0  0  0
 16 17  1  0  0  0  0
 17 18  2  0  0  0  0
 17 19  1  0  0  0  0
 20 21  2  0  0  0  0
 20 22  1  0  0  0  0
M  END
>  <CHROM.1>
21.10295825,106.30592123,-176.72115972,50.45944305,3.35146711,2.68197255
21.01972372,0.56454380,0.07384430,-2.17421439

>  <Name>
ligand

>  <RI>
0

>  <Rbt.Current_Directory>
/home/itssahil/PROJECTS/Mol_Feturizer/New_Systems/rnas/4LVY

>  <Rbt.Executable>
rbdock ($Id: //depot/dev/client3/rdock/2013.1/src/exe/rbdock.cxx#4 $)

>  <Rbt.Library>
libRbt.so (2013.1, Build901 2013/11/27)

>  <Rbt.Parameter_File>
/export/apps/rDock/src/rDock_2013.1_src/data/scripts/dock_solv.prm

>  <Rbt.Receptor>
prm/pocket_docking_2.prm

>  <SCORE>
-13.8425

>  <SCORE.INTER>
-14.0721

>  <SCORE.INTER.CONST>
1

>  <SCORE.INTER.POLAR>
0

>  <SCORE.INTER.ROT>
4

>  <SCORE.INTER.SOLV>
16.0888

>  <SCORE.INTER.VDW>
-21.011

>  <SCORE.INTER.norm>
-0.639642

>  <SCORE.INTRA>
0.22966

>  <SCORE.INTRA.DIHEDRAL>
0.00694197

>  <SCORE.INTRA.DIHEDRAL.0>
6.18831

>  <SCORE.INTRA.POLAR>
0

>  <SCORE.INTRA.POLAR.0>
0

>  <SCORE.INTRA.REPUL>
0

>  <SCORE.INTRA.REPUL.0>
0

>  <SCORE.INTRA.SOLV>
0.00851613

>  <SCORE.INTRA.SOLV.lig_0>
-44.3465

>  <SCORE.INTRA.VDW>
0.221931

>  <SCORE.INTRA.VDW.0>
-0.778272

>  <SCORE.INTRA.norm>
0.0104391

>  <SCORE.RESTR>
0

>  <SCORE.RESTR.CAVITY>
0

>  <SCORE.RESTR.norm>
0

>  <SCORE.SYSTEM>
0

>  <SCORE.SYSTEM.CONST>
0

>  <SCORE.SYSTEM.DIHEDRAL>
0

>  <SCORE.SYSTEM.SOLV>
0

>  <SCORE.SYSTEM.norm>
0

>  <SCORE.heavy>
22

>  <SCORE.norm>
-0.629203

>  <RMSD>
0.988

$$$$
ligand
 OpenBabel11021811503D
libRbt.so/2013.1/901 2013/11/27
 22 24  0  0  0  0  0  0  0  0999 V2000
    3.8805    1.7674   20.3045 C   0  0  0  0  0  0  0  0  0  0  0  0
    4.5129    2.1843   19.1142 C   0  0  0  0  0  0  0  0  0  0  0  0
    5.8378    1.8248   18.8819 C   0  0  0  0  0  0  0  0  0  0  0  0
    6.5234    1.0538   19.8367 C   0  0  0  0  0  0  0  0  0  0  0  0
    5.8925    0.6426   21.0366 C   0  0  0  0  0  0  0  0  0  0  0  0
    4.5717    1.0026   21.2668 C   0  0  0  0  0  0  0  0  0  0  0  0
    2.4204    2.1719   20.5851 C   0  0  0  0  0  0  0  0  0  0  0  0
    2.2322    3.6129   21.1217 C   0  0  0  0  0  0  0  0  0  0  0  0
    0.7765    3.9932   21.3657 C   0  0  0  0  0  0  0  0  0  0  0  0
   -0.2577    3.7436   20.4584 C   0  0  0  0  0  0  0  0  0  0  0  0
   -1.3998    4.2151   21.0236 N   0  0  0  0  0  0  0  0  0  0  0  0
   -1.1790    4.7694   22.2686 C   0  0  0  0  0  0  0  0  0  0  0  0
    0.1820    4.6499   22.5276 C   0  0  0  0  0  0  0  0  0  0  0  0
    0.6618    5.1630   23.7921 C   0  0  0  0  0  0  0  0  0  0  0  0
    2.0112    5.0695   24.1215 O   0  0  0  0  0  0  0  0  0  0  0  0
   -0.2402    5.7512   24.6686 N   0  0  0  0  0  0  0  0  0  0  0  0
   -1.5705    5.8377   24.3761 C   0  0  0  0  0  0  0  0  0  0  0  0
   -2.0505    5.3726   23.2121 N   0  0  0  0  0  0  0  0  0  0  0  0
   -2.4871    6.4532   25.3414 N   0  0  0  0  0  0  0  0  0  0  0  0
    7.9570    0.6838   19.5623 C   0  0  0  0  0  0  0  0  0  0  0  0
    8.8331    1.5463   19.5852 O   0  0  0  0  0  0  0  0  0  0  0  0
    8.2764   -0.6880   19.2687 N   0  0  0  0  0  0  0  0  0  0  0  0
  1  2  2  0  0  0  0
  1  6  1  0  0  0  0
  1  7  1  0  0  0  0
  2  3  1  0  0  0  0
  3  4  2  0  0  0  0
  4  5  1  0  0  0  0
  4 20  1  0  0  0  0
  5  6  2  0  0  0  0
  7  8  1  0  0  0  0
  8  9  1  0  0  0  0
  9 10  2  0  0  0  0
  9 13  1  0  0  0  0
 10 11  1  0  0  0  0
 11 12  1  0  0  0  0
 12 13  2  0  0  0  0
 12 18  1  0  0  0  0
 13 14  1  0  0  0  0
 14 15  1  0  0  0  0
 14 16  2  0  0  0  0
 16 17  1  0  0  0  0
 17 18  2  0  0  0  0
 17 19  1  0  0  0  0
 20 21  2  0  0  0  0
 20 22  1  0  0  0  0
M  END
>  <CHROM.1>
-79.74688979,69.72952057,178.94309101,-46.13508111,2.52261018,3.25192787
21.57286827,0.57950629,0.26937481,-2.04601070

>  <Name>
ligand

>  <RI>
0

>  <Rbt.Current_Directory>
/home/itssahil/PROJECTS/Mol_Feturizer/New_Systems/rnas/4LVY

>  <Rbt.Executable>
rbdock ($Id: //depot/dev/client3/rdock/2013.1/src/exe/rbdock.cxx#4 $)

>  <Rbt.Library>
libRbt.so (2013.1, Build901 2013/11/27)

>  <Rbt.Parameter_File>
/export/apps/rDock/src/rDock_2013.1_src/data/scripts/dock_solv.prm

>  <Rbt.Receptor>
prm/pocket_docking_2.prm

>  <SCORE>
-13.664

>  <SCORE.INTER>
-13.3647

>  <SCORE.INTER.CONST>
1

>  <SCORE.INTER.POLAR>
0

>  <SCORE.INTER.ROT>
4

>  <SCORE.INTER.SOLV>
21.2433

>  <SCORE.INTER.VDW>
-22.2576

>  <SCORE.INTER.norm>
-0.607488

>  <SCORE.INTRA>
-0.299307

>  <SCORE.INTRA.DIHEDRAL>
-0.00777507

>  <SCORE.INTRA.DIHEDRAL.0>
6.18831

>  <SCORE.INTRA.POLAR>
0

>  <SCORE.INTRA.POLAR.0>
0

>  <SCORE.INTRA.REPUL>
0

>  <SCORE.INTRA.REPUL.0>
0

>  <SCORE.INTRA.SOLV>
-0.00117445

>  <SCORE.INTRA.SOLV.lig_0>
-44.3465

>  <SCORE.INTRA.VDW>
-0.294832

>  <SCORE.INTRA.VDW.0>
-0.778272

>  <SCORE.INTRA.norm>
-0.0136049

>  <SCORE.RESTR>
0

>  <SCORE.RESTR.CAVITY>
0

>  <SCORE.RESTR.norm>
0

>  <SCORE.SYSTEM>
0

>  <SCORE.SYSTEM.CONST>
0

>  <SCORE.SYSTEM.DIHEDRAL>
0

>  <SCORE.SYSTEM.SOLV>
0

>  <SCORE.SYSTEM.norm>
0

>  <SCORE.heavy>
22

>  <SCORE.norm>
-0.621093

>  <RMSD>
0.991

$$$$
ligand
 OpenBabel11021811503D
libRbt.so/2013.1/901 2013/11/27
 22 24  0  0  0  0  0  0  0  0999 V2000
    4.9404    1.8781   19.4802 C   0  0  0  0  0  0  0  0  0  0  0  0
    5.5475    1.0301   20.4304 C   0  0  0  0  0  0  0  0  0  0  0  0
    6.8567    0.6021   20.2271 C   0  0  0  0  0  0  0  0  0  0  0  0
    7.5514    1.0209   19.0790 C   0  0  0  0  0  0  0  0  0  0  0  0
    6.9398    1.8648   18.1194 C   0  0  0  0  0  0  0  0  0  0  0  0
    5.6341    2.2898   18.3236 C   0  0  0  0  0  0  0  0  0  0  0  0
    3.4862    2.3462   19.6813 C   0  0  0  0  0  0  0  0  0  0  0  0
    2.9511    2.2152   21.1292 C   0  0  0  0  0  0  0  0  0  0  0  0
    1.4814    2.5913   21.2781 C   0  0  0  0  0  0  0  0  0  0  0  0
    0.4549    2.0510   20.4976 C   0  0  0  0  0  0  0  0  0  0  0  0
   -0.7038    2.6189   20.9230 N   0  0  0  0  0  0  0  0  0  0  0  0
   -0.5015    3.5154   21.9532 C   0  0  0  0  0  0  0  0  0  0  0  0
    0.8645    3.5296   22.2130 C   0  0  0  0  0  0  0  0  0  0  0  0
    1.3276    4.4025   23.2693 C   0  0  0  0  0  0  0  0  0  0  0  0
    2.6812    4.4613   23.5893 O   0  0  0  0  0  0  0  0  0  0  0  0
    0.4051    5.1811   23.9554 N   0  0  0  0  0  0  0  0  0  0  0  0
   -0.9290    5.1270   23.6726 C   0  0  0  0  0  0  0  0  0  0  0  0
   -1.3938    4.3288   22.6987 N   0  0  0  0  0  0  0  0  0  0  0  0
   -1.8667    5.9566   24.4361 N   0  0  0  0  0  0  0  0  0  0  0  0
    8.9642    0.5388   18.8816 C   0  0  0  0  0  0  0  0  0  0  0  0
    9.2433   -0.1817   17.9250 O   0  0  0  0  0  0  0  0  0  0  0  0
    9.9711    0.9304   19.8318 N   0  0  0  0  0  0  0  0  0  0  0  0
  1  2  2  0  0  0  0
  1  6  1  0  0  0  0
  1  7  1  0  0  0  0
  2  3  1  0  0  0  0
  3  4  2  0  0  0  0
  4  5  1  0  0  0  0
  4 20  1  0  0  0  0
  5  6  2  0  0  0  0
  7  8  1  0  0  0  0
  8  9  1  0  0  0  0
  9 10  2  0  0  0  0
  9 13  1  0  0  0  0
 10 11  1  0  0  0  0
 11 12  1  0  0  0  0
 12 13  2  0  0  0  0
 12 18  1  0  0  0  0
 13 14  1  0  0  0  0
 14 15  1  0  0  0  0
 14 16  2  0  0  0  0
 16 17  1  0  0  0  0
 17 18  2  0  0  0  0
 17 19  1  0  0  0  0
 20 21  2  0  0  0  0
 20 22  1  0  0  0  0
M  END
>  <CHROM.1>
18.71765491,116.04860698,-175.86551505,52.65655235,3.35750066,2.67070709
21.01558418,0.56654862,0.08561084,-2.16028026

>  <Name>
ligand

>  <RI>
0

>  <Rbt.Current_Directory>
/home/itssahil/PROJECTS/Mol_Feturizer/New_Systems/rnas/4LVY

>  <Rbt.Executable>
rbdock ($Id: //depot/dev/client3/rdock/2013.1/src/exe/rbdock.cxx#4 $)

>  <Rbt.Library>
libRbt.so (2013.1, Build901 2013/11/27)

>  <Rbt.Parameter_File>
/export/apps/rDock/src/rDock_2013.1_src/data/scripts/dock_solv.prm

>  <Rbt.Receptor>
prm/pocket_docking_4.prm

>  <SCORE>
-13.8213

>  <SCORE.INTER>
-14.0932

>  <SCORE.INTER.CONST>
1

>  <SCORE.INTER.POLAR>
0

>  <SCORE.INTER.ROT>
4

>  <SCORE.INTER.SOLV>
16.0542

>  <SCORE.INTER.VDW>
-21.0135

>  <SCORE.INTER.norm>
-0.640599

>  <SCORE.INTRA>
0.271873

>  <SCORE.INTRA.DIHEDRAL>
0.0285145

>  <SCORE.INTRA.DIHEDRAL.0>
6.18831

>  <SCORE.INTRA.POLAR>
0

>  <SCORE.INTRA.POLAR.0>
0

>  <SCORE.INTRA.REPUL>
0

>  <SCORE.INTRA.REPUL.0>
0

>  <SCORE.INTRA.SOLV>
0.016935

>  <SCORE.INTRA.SOLV.lig_0>
-44.3465

>  <SCORE.INTRA.VDW>
0.249148

>  <SCORE.INTRA.VDW.0>
-0.778272

>  <SCORE.INTRA.norm>
0.0123579

>  <SCORE.RESTR>
0

>  <SCORE.RESTR.CAVITY>
0

>  <SCORE.RESTR.norm>
0

>  <SCORE.SYSTEM>
0

>  <SCORE.SYSTEM.CONST>
0

>  <SCORE.SYSTEM.DIHEDRAL>
0

>  <SCORE.SYSTEM.SOLV>
0

>  <SCORE.SYSTEM.norm>
0

>  <SCORE.heavy>
22

>  <SCORE.norm>
-0.628241

>  <RMSD>
1.019

$$$$
ligand
 OpenBabel11021811503D
libRbt.so/2013.1/901 2013/11/27
 22 24  0  0  0  0  0  0  0  0999 V2000
    4.9684    1.8601   19.4619 C   0  0  0  0  0  0  0  0  0  0  0  0
    5.6951    2.2577   18.3198 C   0  0  0  0  0  0  0  0  0  0  0  0
    7.0041    1.8137   18.1535 C   0  0  0  0  0  0  0  0  0  0  0  0
    7.5803    0.9778   19.1259 C   0  0  0  0  0  0  0  0  0  0  0  0
    6.8550    0.5855   20.2778 C   0  0  0  0  0  0  0  0  0  0  0  0
    5.5502    1.0298   20.4422 C   0  0  0  0  0  0  0  0  0  0  0  0
    3.5249    2.3572   19.6698 C   0  0  0  0  0  0  0  0  0  0  0  0
    2.8909    1.9749   21.0307 C   0  0  0  0  0  0  0  0  0  0  0  0
    1.4665    2.4868   21.2111 C   0  0  0  0  0  0  0  0  0  0  0  0
    0.3794    2.0549   20.4453 C   0  0  0  0  0  0  0  0  0  0  0  0
   -0.7123    2.7252   20.8980 N   0  0  0  0  0  0  0  0  0  0  0  0
   -0.4072    3.5870   21.9326 C   0  0  0  0  0  0  0  0  0  0  0  0
    0.9585    3.4688   22.1663 C   0  0  0  0  0  0  0  0  0  0  0  0
    1.5213    4.2822   23.2218 C   0  0  0  0  0  0  0  0  0  0  0  0
    2.8799    4.2089   23.5164 O   0  0  0  0  0  0  0  0  0  0  0  0
    0.6894    5.1369   23.9326 N   0  0  0  0  0  0  0  0  0  0  0  0
   -0.6487    5.2126   23.6748 C   0  0  0  0  0  0  0  0  0  0  0  0
   -1.2047    4.4728   22.7025 N   0  0  0  0  0  0  0  0  0  0  0  0
   -1.4895    6.1186   24.4638 N   0  0  0  0  0  0  0  0  0  0  0  0
    8.9993    0.5168   18.9235 C   0  0  0  0  0  0  0  0  0  0  0  0
    9.2262   -0.5914   18.4412 O   0  0  0  0  0  0  0  0  0  0  0  0
   10.0754    1.3904   19.3094 N   0  0  0  0  0  0  0  0  0  0  0  0
  1  2  2  0  0  0  0
  1  6  1  0  0  0  0
  1  7  1  0  0  0  0
  2  3  1  0  0  0  0
  3  4  2  0  0  0  0
  4  5  1  0  0  0  0
  4 20  1  0  0  0  0
  5  6  2  0  0  0  0
  7  8  1  0  0  0  0
  8  9  1  0  0  0  0
  9 10  2  0  0  0  0
  9 13  1  0  0  0  0
 10 11  1  0  0  0  0
 11 12  1  0  0  0  0
 12 13  2  0  0  0  0
 12 18  1  0  0  0  0
 13 14  1  0  0  0  0
 14 15  1  0  0  0  0
 14 16  2  0  0  0  0
 16 17  1  0  0  0  0
 17 18  2  0  0  0  0
 17 19  1  0  0  0  0
 20 21  2  0  0  0  0
 20 22  1  0  0  0  0
M  END
>  <CHROM.1>
-173.74137761,-97.65076534,179.66345412,65.74679485,3.44607322,2.65007373
21.00573694,0.57274991,0.06554980,-2.20790392

>  <Name>
ligand

>  <RI>
0

>  <Rbt.Current_Directory>
/home/itssahil/PROJECTS/Mol_Feturizer/New_Systems/rnas/4LVY

>  <Rbt.Executable>
rbdock ($Id: //depot/dev/client3/rdock/2013.1/src/exe/rbdock.cxx#4 $)

>  <Rbt.Library>
libRbt.so (2013.1, Build901 2013/11/27)

>  <Rbt.Parameter_File>
/export/apps/rDock/src/rDock_2013.1_src/data/scripts/dock_solv.prm

>  <Rbt.Receptor>
prm/pocket_docking_3.prm

>  <SCORE>
-13.6832

>  <SCORE.INTER>
-14.0481

>  <SCORE.INTER.CONST>
1

>  <SCORE.INTER.POLAR>
0

>  <SCORE.INTER.ROT>
4

>  <SCORE.INTER.SOLV>
15.3902

>  <SCORE.INTER.VDW>
-20.7621

>  <SCORE.INTER.norm>
-0.638552

>  <SCORE.INTRA>
0.36491

>  <SCORE.INTRA.DIHEDRAL>
0.0279842

>  <SCORE.INTRA.DIHEDRAL.0>
6.18831

>  <SCORE.INTRA.POLAR>
0

>  <SCORE.INTRA.POLAR.0>
0

>  <SCORE.INTRA.REPUL>
0

>  <SCORE.INTRA.REPUL.0>
0

>  <SCORE.INTRA.SOLV>
0.0559019

>  <SCORE.INTRA.SOLV.lig_0>
-44.3465

>  <SCORE.INTRA.VDW>
0.322967

>  <SCORE.INTRA.VDW.0>
-0.778272

>  <SCORE.INTRA.norm>
0.0165868

>  <SCORE.RESTR>
0

>  <SCORE.RESTR.CAVITY>
0

>  <SCORE.RESTR.norm>
0

>  <SCORE.SYSTEM>
0

>  <SCORE.SYSTEM.CONST>
0

>  <SCORE.SYSTEM.DIHEDRAL>
0

>  <SCORE.SYSTEM.SOLV>
0

>  <SCORE.SYSTEM.norm>
0

>  <SCORE.heavy>
22

>  <SCORE.norm>
-0.621965

>  <RMSD>
1.026

$$$$
ligand
 OpenBabel11021811503D
libRbt.so/2013.1/901 2013/11/27
 22 24  0  0  0  0  0  0  0  0999 V2000
    3.7436    1.7361   20.4877 C   0  0  0  0  0  0  0  0  0  0  0  0
    4.3590    2.1349   19.2823 C   0  0  0  0  0  0  0  0  0  0  0  0
    5.6741    1.7553   19.0280 C   0  0  0  0  0  0  0  0  0  0  0  0
    6.3671    0.9823   19.9758 C   0  0  0  0  0  0  0  0  0  0  0  0
    5.7536    0.5893   21.1907 C   0  0  0  0  0  0  0  0  0  0  0  0
    4.4424    0.9693   21.4428 C   0  0  0  0  0  0  0  0  0  0  0  0
    2.2947    2.1630   20.7924 C   0  0  0  0  0  0  0  0  0  0  0  0
    2.1086    3.6685   21.1067 C   0  0  0  0  0  0  0  0  0  0  0  0
    0.6626    4.0655   21.3804 C   0  0  0  0  0  0  0  0  0  0  0  0
   -0.3895    3.8457   20.4860 C   0  0  0  0  0  0  0  0  0  0  0  0
   -1.5154    4.3240   21.0773 N   0  0  0  0  0  0  0  0  0  0  0  0
   -1.2667    4.8544   22.3275 C   0  0  0  0  0  0  0  0  0  0  0  0
    0.0963    4.7113   22.5624 C   0  0  0  0  0  0  0  0  0  0  0  0
    0.6038    5.1964   23.8271 C   0  0  0  0  0  0  0  0  0  0  0  0
    1.9567    5.0782   24.1331 O   0  0  0  0  0  0  0  0  0  0  0  0
   -0.2755    5.7828   24.7276 N   0  0  0  0  0  0  0  0  0  0  0  0
   -1.6089    5.8932   24.4583 C   0  0  0  0  0  0  0  0  0  0  0  0
   -2.1141    5.4543   23.2947 N   0  0  0  0  0  0  0  0  0  0  0  0
   -2.5008    6.5056   25.4481 N   0  0  0  0  0  0  0  0  0  0  0  0
    7.7900    0.5904   19.6775 C   0  0  0  0  0  0  0  0  0  0  0  0
    8.6838    0.8488   20.4815 O   0  0  0  0  0  0  0  0  0  0  0  0
    8.0804   -0.0815   18.4388 N   0  0  0  0  0  0  0  0  0  0  0  0
  1  2  2  0  0  0  0
  1  6  1  0  0  0  0
  1  7  1  0  0  0  0
  2  3  1  0  0  0  0
  3  4  2  0  0  0  0
  4  5  1  0  0  0  0
  4 20  1  0  0  0  0
  5  6  2  0  0  0  0
  7  8  1  0  0  0  0
  8  9  1  0  0  0  0
  9 10  2  0  0  0  0
  9 13  1  0  0  0  0
 10 11  1  0  0  0  0
 11 12  1  0  0  0  0
 12 13  2  0  0  0  0
 12 18  1  0  0  0  0
 13 14  1  0  0  0  0
 14 15  1  0  0  0  0
 14 16  2  0  0  0  0
 16 17  1  0  0  0  0
 17 18  2  0  0  0  0
 17 19  1  0  0  0  0
 20 21  2  0  0  0  0
 20 22  1  0  0  0  0
M  END
>  <CHROM.1>
-70.61292868,125.78140590,179.00568586,-56.66928442,2.41270667,3.25916181
21.66322599,0.56978332,0.31473697,-2.00322407

>  <Name>
ligand

>  <RI>
0

>  <Rbt.Current_Directory>
/home/itssahil/PROJECTS/Mol_Feturizer/New_Systems/rnas/4LVY

>  <Rbt.Executable>
rbdock ($Id: //depot/dev/client3/rdock/2013.1/src/exe/rbdock.cxx#4 $)

>  <Rbt.Library>
libRbt.so (2013.1, Build901 2013/11/27)

>  <Rbt.Parameter_File>
/export/apps/rDock/src/rDock_2013.1_src/data/scripts/dock_solv.prm

>  <Rbt.Receptor>
prm/pocket_docking_2.prm

>  <SCORE>
-13.6975

>  <SCORE.INTER>
-13.3812

>  <SCORE.INTER.CONST>
1

>  <SCORE.INTER.POLAR>
0

>  <SCORE.INTER.ROT>
4

>  <SCORE.INTER.SOLV>
22.1613

>  <SCORE.INTER.VDW>
-22.5746

>  <SCORE.INTER.norm>
-0.608236

>  <SCORE.INTRA>
-0.316325

>  <SCORE.INTRA.DIHEDRAL>
-0.0191228

>  <SCORE.INTRA.DIHEDRAL.0>
6.18831

>  <SCORE.INTRA.POLAR>
0

>  <SCORE.INTRA.POLAR.0>
0

>  <SCORE.INTRA.REPUL>
0

>  <SCORE.INTRA.REPUL.0>
0

>  <SCORE.INTRA.SOLV>
0.0342006

>  <SCORE.INTRA.SOLV.lig_0>
-44.3465

>  <SCORE.INTRA.VDW>
-0.323864

>  <SCORE.INTRA.VDW.0>
-0.778272

>  <SCORE.INTRA.norm>
-0.0143784

>  <SCORE.RESTR>
0

>  <SCORE.RESTR.CAVITY>
0

>  <SCORE.RESTR.norm>
0

>  <SCORE.SYSTEM>
0

>  <SCORE.SYSTEM.CONST>
0

>  <SCORE.SYSTEM.DIHEDRAL>
0

>  <SCORE.SYSTEM.SOLV>
0

>  <SCORE.SYSTEM.norm>
0

>  <SCORE.heavy>
22

>  <SCORE.norm>
-0.622615

>  <RMSD>
1.027

$$$$
ligand
 OpenBabel11021811503D
libRbt.so/2013.1/901 2013/11/27
 22 24  0  0  0  0  0  0  0  0999 V2000
    3.8733    1.7390   20.4082 C   0  0  0  0  0  0  0  0  0  0  0  0
    4.5481    0.9610   21.3726 C   0  0  0  0  0  0  0  0  0  0  0  0
    5.8660    0.5767   21.1407 C   0  0  0  0  0  0  0  0  0  0  0  0
    6.5021    0.9691   19.9500 C   0  0  0  0  0  0  0  0  0  0  0  0
    5.8227    1.7423   18.9767 C   0  0  0  0  0  0  0  0  0  0  0  0
    4.5084    2.1239   19.2094 C   0  0  0  0  0  0  0  0  0  0  0  0
    2.4088    2.1574   20.6415 C   0  0  0  0  0  0  0  0  0  0  0  0
    2.2162    3.6061   21.1554 C   0  0  0  0  0  0  0  0  0  0  0  0
    0.7597    3.9838   21.3990 C   0  0  0  0  0  0  0  0  0  0  0  0
   -0.2747    3.7269   20.4941 C   0  0  0  0  0  0  0  0  0  0  0  0
   -1.4175    4.1982   21.0581 N   0  0  0  0  0  0  0  0  0  0  0  0
   -1.1969    4.7593   22.3001 C   0  0  0  0  0  0  0  0  0  0  0  0
    0.1647    4.6448   22.5583 C   0  0  0  0  0  0  0  0  0  0  0  0
    0.6445    5.1654   23.8196 C   0  0  0  0  0  0  0  0  0  0  0  0
    1.9945    5.0772   24.1481 O   0  0  0  0  0  0  0  0  0  0  0  0
   -0.2582    5.7556   24.6941 N   0  0  0  0  0  0  0  0  0  0  0  0
   -1.5890    5.8371   24.4027 C   0  0  0  0  0  0  0  0  0  0  0  0
   -2.0690    5.3649   23.2415 N   0  0  0  0  0  0  0  0  0  0  0  0
   -2.5062    6.4550   25.3658 N   0  0  0  0  0  0  0  0  0  0  0  0
    7.9259    0.5352   19.7226 C   0  0  0  0  0  0  0  0  0  0  0  0
    8.8511    1.3186   19.9284 O   0  0  0  0  0  0  0  0  0  0  0  0
    8.1785   -0.8024   19.2566 N   0  0  0  0  0  0  0  0  0  0  0  0
  1  2  2  0  0  0  0
  1  6  1  0  0  0  0
  1  7  1  0  0  0  0
  2  3  1  0  0  0  0
  3  4  2  0  0  0  0
  4  5  1  0  0  0  0
  4 20  1  0  0  0  0
  5  6  2  0  0  0  0
  7  8  1  0  0  0  0
  8  9  1  0  0  0  0
  9 10  2  0  0  0  0
  9 13  1  0  0  0  0
 10 11  1  0  0  0  0
 11 12  1  0  0  0  0
 12 13  2  0  0  0  0
 12 18  1  0  0  0  0
 13 14  1  0  0  0  0
 14 15  1  0  0  0  0
 14 16  2  0  0  0  0
 16 17  1  0  0  0  0
 17 18  2  0  0  0  0
 17 19  1  0  0  0  0
 20 21  2  0  0  0  0
 20 22  1  0  0  0  0
M  END
>  <CHROM.1>
100.04929788,-100.42271523,-179.03260312,-46.80930929,2.50313000,3.20893994
21.64332553,0.57527210,0.28383087,-2.05170521

>  <Name>
ligand

>  <RI>
0

>  <Rbt.Current_Directory>
/home/itssahil/PROJECTS/Mol_Feturizer/New_Systems/rnas/4LVY

>  <Rbt.Executable>
rbdock ($Id: //depot/dev/client3/rdock/2013.1/src/exe/rbdock.cxx#4 $)

>  <Rbt.Library>
libRbt.so (2013.1, Build901 2013/11/27)

>  <Rbt.Parameter_File>
/export/apps/rDock/src/rDock_2013.1_src/data/scripts/dock_solv.prm

>  <Rbt.Receptor>
prm/pocket_docking_2.prm

>  <SCORE>
-13.5789

>  <SCORE.INTER>
-13.3065

>  <SCORE.INTER.CONST>
1

>  <SCORE.INTER.POLAR>
0

>  <SCORE.INTER.ROT>
4

>  <SCORE.INTER.SOLV>
21.4915

>  <SCORE.INTER.VDW>
-22.3015

>  <SCORE.INTER.norm>
-0.604841

>  <SCORE.INTRA>
-0.272415

>  <SCORE.INTRA.DIHEDRAL>
0.0870334

>  <SCORE.INTRA.DIHEDRAL.0>
6.18831

>  <SCORE.INTRA.POLAR>
0

>  <SCORE.INTRA.POLAR.0>
0

>  <SCORE.INTRA.REPUL>
0

>  <SCORE.INTRA.REPUL.0>
0

>  <SCORE.INTRA.SOLV>
0.00144727

>  <SCORE.INTRA.SOLV.lig_0>
-44.3465

>  <SCORE.INTRA.VDW>
-0.316655

>  <SCORE.INTRA.VDW.0>
-0.778272

>  <SCORE.INTRA.norm>
-0.0123825

>  <SCORE.RESTR>
0

>  <SCORE.RESTR.CAVITY>
0

>  <SCORE.RESTR.norm>
0

>  <SCORE.SYSTEM>
0

>  <SCORE.SYSTEM.CONST>
0

>  <SCORE.SYSTEM.DIHEDRAL>
0

>  <SCORE.SYSTEM.SOLV>
0

>  <SCORE.SYSTEM.norm>
0

>  <SCORE.heavy>
22

>  <SCORE.norm>
-0.617223

>  <RMSD>
1.029

$$$$
ligand
 OpenBabel11021811503D
libRbt.so/2013.1/901 2013/11/27
 22 24  0  0  0  0  0  0  0  0999 V2000
    4.9769    1.8008   19.5941 C   0  0  0  0  0  0  0  0  0  0  0  0
    5.5367    0.9547   20.5747 C   0  0  0  0  0  0  0  0  0  0  0  0
    6.8206    0.4492   20.3893 C   0  0  0  0  0  0  0  0  0  0  0  0
    7.5374    0.7890   19.2287 C   0  0  0  0  0  0  0  0  0  0  0  0
    6.9729    1.6308   18.2389 C   0  0  0  0  0  0  0  0  0  0  0  0
    5.6923    2.1332   18.4253 C   0  0  0  0  0  0  0  0  0  0  0  0
    3.5503    2.3541   19.7756 C   0  0  0  0  0  0  0  0  0  0  0  0
    2.8338    1.9033   21.0730 C   0  0  0  0  0  0  0  0  0  0  0  0
    1.4257    2.4667   21.2256 C   0  0  0  0  0  0  0  0  0  0  0  0
    0.3395    2.0764   20.4365 C   0  0  0  0  0  0  0  0  0  0  0  0
   -0.7360    2.7854   20.8685 N   0  0  0  0  0  0  0  0  0  0  0  0
   -0.4209    3.6334   21.9115 C   0  0  0  0  0  0  0  0  0  0  0  0
    0.9344    3.4647   22.1729 C   0  0  0  0  0  0  0  0  0  0  0  0
    1.5048    4.2547   23.2419 C   0  0  0  0  0  0  0  0  0  0  0  0
    2.8535    4.1311   23.5642 O   0  0  0  0  0  0  0  0  0  0  0  0
    0.6903    5.1379   23.9379 N   0  0  0  0  0  0  0  0  0  0  0  0
   -0.6385    5.2632   23.6529 C   0  0  0  0  0  0  0  0  0  0  0  0
   -1.2011    4.5463   22.6674 N   0  0  0  0  0  0  0  0  0  0  0  0
   -1.4617    6.1979   24.4270 N   0  0  0  0  0  0  0  0  0  0  0  0
    8.9217    0.2240   19.0513 C   0  0  0  0  0  0  0  0  0  0  0  0
    9.0733   -0.9105   18.6019 O   0  0  0  0  0  0  0  0  0  0  0  0
   10.0541    1.0306   19.4219 N   0  0  0  0  0  0  0  0  0  0  0  0
  1  2  2  0  0  0  0
  1  6  1  0  0  0  0
  1  7  1  0  0  0  0
  2  3  1  0  0  0  0
  3  4  2  0  0  0  0
  4  5  1  0  0  0  0
  4 20  1  0  0  0  0
  5  6  2  0  0  0  0
  7  8  1  0  0  0  0
  8  9  1  0  0  0  0
  9 10  2  0  0  0  0
  9 13  1  0  0  0  0
 10 11  1  0  0  0  0
 11 12  1  0  0  0  0
 12 13  2  0  0  0  0
 12 18  1  0  0  0  0
 13 14  1  0  0  0  0
 14 15  1  0  0  0  0
 14 16  2  0  0  0  0
 16 17  1  0  0  0  0
 17 18  2  0  0  0  0
 17 19  1  0  0  0  0
 20 21  2  0  0  0  0
 20 22  1  0  0  0  0
M  END
>  <CHROM.1>
-0.24461338,82.64152449,179.96114814,70.19395474,3.42049999,2.57542098,21.05849111
0.57757506,0.10598173,-2.20247880

>  <Name>
ligand

>  <RI>
0

>  <Rbt.Current_Directory>
/home/itssahil/PROJECTS/Mol_Feturizer/New_Systems/rnas/4LVY

>  <Rbt.Executable>
rbdock ($Id: //depot/dev/client3/rdock/2013.1/src/exe/rbdock.cxx#4 $)

>  <Rbt.Library>
libRbt.so (2013.1, Build901 2013/11/27)

>  <Rbt.Parameter_File>
/export/apps/rDock/src/rDock_2013.1_src/data/scripts/dock_solv.prm

>  <Rbt.Receptor>
prm/pocket_docking_2.prm

>  <SCORE>
-13.6709

>  <SCORE.INTER>
-13.9295

>  <SCORE.INTER.CONST>
1

>  <SCORE.INTER.POLAR>
0

>  <SCORE.INTER.ROT>
4

>  <SCORE.INTER.SOLV>
15.5124

>  <SCORE.INTER.VDW>
-20.7238

>  <SCORE.INTER.norm>
-0.633158

>  <SCORE.INTRA>
0.258621

>  <SCORE.INTRA.DIHEDRAL>
0.065744

>  <SCORE.INTRA.DIHEDRAL.0>
6.18831

>  <SCORE.INTRA.POLAR>
0

>  <SCORE.INTRA.POLAR.0>
0

>  <SCORE.INTRA.REPUL>
0

>  <SCORE.INTRA.REPUL.0>
0

>  <SCORE.INTRA.SOLV>
0.0699873

>  <SCORE.INTRA.SOLV.lig_0>
-44.3465

>  <SCORE.INTRA.VDW>
0.190755

>  <SCORE.INTRA.VDW.0>
-0.778272

>  <SCORE.INTRA.norm>
0.0117555

>  <SCORE.RESTR>
0

>  <SCORE.RESTR.CAVITY>
0

>  <SCORE.RESTR.norm>
0

>  <SCORE.SYSTEM>
0

>  <SCORE.SYSTEM.CONST>
0

>  <SCORE.SYSTEM.DIHEDRAL>
0

>  <SCORE.SYSTEM.SOLV>
0

>  <SCORE.SYSTEM.norm>
0

>  <SCORE.heavy>
22

>  <SCORE.norm>
-0.621403

>  <RMSD>
1.052

$$$$
ligand
 OpenBabel11021811503D
libRbt.so/2013.1/901 2013/11/27
 22 24  0  0  0  0  0  0  0  0999 V2000
    4.9681    1.8629   19.4961 C   0  0  0  0  0  0  0  0  0  0  0  0
    5.5613    1.0061   20.4473 C   0  0  0  0  0  0  0  0  0  0  0  0
    6.8709    0.5741   20.2555 C   0  0  0  0  0  0  0  0  0  0  0  0
    7.5799    0.9975   19.1179 C   0  0  0  0  0  0  0  0  0  0  0  0
    6.9823    1.8501   18.1573 C   0  0  0  0  0  0  0  0  0  0  0  0
    5.6762    2.2792   18.3499 C   0  0  0  0  0  0  0  0  0  0  0  0
    3.5138    2.3357   19.6843 C   0  0  0  0  0  0  0  0  0  0  0  0
    2.9518    2.1683   21.1182 C   0  0  0  0  0  0  0  0  0  0  0  0
    1.4863    2.5648   21.2547 C   0  0  0  0  0  0  0  0  0  0  0  0
    0.4604    2.0459   20.4590 C   0  0  0  0  0  0  0  0  0  0  0  0
   -0.6944    2.6274   20.8766 N   0  0  0  0  0  0  0  0  0  0  0  0
   -0.4900    3.5125   21.9163 C   0  0  0  0  0  0  0  0  0  0  0  0
    0.8732    3.5045   22.1906 C   0  0  0  0  0  0  0  0  0  0  0  0
    1.3377    4.3620   23.2589 C   0  0  0  0  0  0  0  0  0  0  0  0
    2.6885    4.3983   23.5936 O   0  0  0  0  0  0  0  0  0  0  0  0
    0.4193    5.1485   23.9415 N   0  0  0  0  0  0  0  0  0  0  0  0
   -0.9122    5.1164   23.6442 C   0  0  0  0  0  0  0  0  0  0  0  0
   -1.3782    4.3329   22.6589 N   0  0  0  0  0  0  0  0  0  0  0  0
   -1.8459    5.9535   24.4045 N   0  0  0  0  0  0  0  0  0  0  0  0
    8.9927    0.5108   18.9328 C   0  0  0  0  0  0  0  0  0  0  0  0
    9.3175   -0.0639   17.8953 O   0  0  0  0  0  0  0  0  0  0  0  0
    9.9453    0.7247   19.9897 N   0  0  0  0  0  0  0  0  0  0  0  0
  1  2  2  0  0  0  0
  1  6  1  0  0  0  0
  1  7  1  0  0  0  0
  2  3  1  0  0  0  0
  3  4  2  0  0  0  0
  4  5  1  0  0  0  0
  4 20  1  0  0  0  0
  5  6  2  0  0  0  0
  7  8  1  0  0  0  0
  8  9  1  0  0  0  0
  9 10  2  0  0  0  0
  9 13  1  0  0  0  0
 10 11  1  0  0  0  0
 11 12  1  0  0  0  0
 12 13  2  0  0  0  0
 12 18  1  0  0  0  0
 13 14  1  0  0  0  0
 14 15  1  0  0  0  0
 14 16  2  0  0  0  0
 16 17  1  0  0  0  0
 17 18  2  0  0  0  0
 17 19  1  0  0  0  0
 20 21  2  0  0  0  0
 20 22  1  0  0  0  0
M  END
>  <CHROM.1>
17.42244737,125.00340801,-176.47985221,54.06043288,3.37580954,2.64908646
21.01737659,0.55828649,0.10566617,-2.13657276

>  <Name>
ligand

>  <RI>
0

>  <Rbt.Current_Directory>
/home/itssahil/PROJECTS/Mol_Feturizer/New_Systems/rnas/4LVY

>  <Rbt.Executable>
rbdock ($Id: //depot/dev/client3/rdock/2013.1/src/exe/rbdock.cxx#4 $)

>  <Rbt.Library>
libRbt.so (2013.1, Build901 2013/11/27)

>  <Rbt.Parameter_File>
/export/apps/rDock/src/rDock_2013.1_src/data/scripts/dock_solv.prm

>  <Rbt.Receptor>
prm/pocket_docking_3.prm

>  <SCORE>
-13.7945

>  <SCORE.INTER>
-14.087

>  <SCORE.INTER.CONST>
1

>  <SCORE.INTER.POLAR>
0

>  <SCORE.INTER.ROT>
4

>  <SCORE.INTER.SOLV>
15.8763

>  <SCORE.INTER.VDW>
-20.9501

>  <SCORE.INTER.norm>
-0.640318

>  <SCORE.INTRA>
0.29254

>  <SCORE.INTRA.DIHEDRAL>
0.00104042

>  <SCORE.INTRA.DIHEDRAL.0>
6.18831

>  <SCORE.INTRA.POLAR>
0

>  <SCORE.INTRA.POLAR.0>
0

>  <SCORE.INTRA.REPUL>
0

>  <SCORE.INTRA.REPUL.0>
0

>  <SCORE.INTRA.SOLV>
0.0236022

>  <SCORE.INTRA.SOLV.lig_0>
-44.3465

>  <SCORE.INTRA.VDW>
0.280219

>  <SCORE.INTRA.VDW.0>
-0.778272

>  <SCORE.INTRA.norm>
0.0132973

>  <SCORE.RESTR>
0

>  <SCORE.RESTR.CAVITY>
0

>  <SCORE.RESTR.norm>
0

>  <SCORE.SYSTEM>
0

>  <SCORE.SYSTEM.CONST>
0

>  <SCORE.SYSTEM.DIHEDRAL>
0

>  <SCORE.SYSTEM.SOLV>
0

>  <SCORE.SYSTEM.norm>
0

>  <SCORE.heavy>
22

>  <SCORE.norm>
-0.627021

>  <RMSD>
1.057

$$$$
ligand
 OpenBabel11021811503D
libRbt.so/2013.1/901 2013/11/27
 22 24  0  0  0  0  0  0  0  0999 V2000
    4.9237    1.7989   19.5795 C   0  0  0  0  0  0  0  0  0  0  0  0
    5.6705    2.1753   18.4431 C   0  0  0  0  0  0  0  0  0  0  0  0
    6.9811    1.7258   18.3067 C   0  0  0  0  0  0  0  0  0  0  0  0
    7.5388    0.9056   19.3030 C   0  0  0  0  0  0  0  0  0  0  0  0
    6.7932    0.5347   20.4490 C   0  0  0  0  0  0  0  0  0  0  0  0
    5.4868    0.9845   20.5836 C   0  0  0  0  0  0  0  0  0  0  0  0
    3.4781    2.3025   19.7543 C   0  0  0  0  0  0  0  0  0  0  0  0
    2.9290    2.2259   21.2009 C   0  0  0  0  0  0  0  0  0  0  0  0
    1.4632    2.6256   21.3244 C   0  0  0  0  0  0  0  0  0  0  0  0
    0.4441    2.1133   20.5158 C   0  0  0  0  0  0  0  0  0  0  0  0
   -0.7133    2.6958   20.9246 N   0  0  0  0  0  0  0  0  0  0  0  0
   -0.5172    3.5753   21.9707 C   0  0  0  0  0  0  0  0  0  0  0  0
    0.8431    3.5623   22.2587 C   0  0  0  0  0  0  0  0  0  0  0  0
    1.2989    4.4132   23.3359 C   0  0  0  0  0  0  0  0  0  0  0  0
    2.6464    4.4443   23.6845 O   0  0  0  0  0  0  0  0  0  0  0  0
    0.3758    5.1988   24.0131 N   0  0  0  0  0  0  0  0  0  0  0  0
   -0.9528    5.1717   23.7021 C   0  0  0  0  0  0  0  0  0  0  0  0
   -1.4108    4.3943   22.7083 N   0  0  0  0  0  0  0  0  0  0  0  0
   -1.8919    6.0075   24.4571 N   0  0  0  0  0  0  0  0  0  0  0  0
    8.9600    0.4381   19.1326 C   0  0  0  0  0  0  0  0  0  0  0  0
    9.7952    0.6689   20.0051 O   0  0  0  0  0  0  0  0  0  0  0  0
    9.3186   -0.2726   17.9342 N   0  0  0  0  0  0  0  0  0  0  0  0
  1  2  2  0  0  0  0
  1  6  1  0  0  0  0
  1  7  1  0  0  0  0
  2  3  1  0  0  0  0
  3  4  2  0  0  0  0
  4  5  1  0  0  0  0
  4 20  1  0  0  0  0
  5  6  2  0  0  0  0
  7  8  1  0  0  0  0
  8  9  1  0  0  0  0
  9 10  2  0  0  0  0
  9 13  1  0  0  0  0
 10 11  1  0  0  0  0
 11 12  1  0  0  0  0
 12 13  2  0  0  0  0
 12 18  1  0  0  0  0
 13 14  1  0  0  0  0
 14 15  1  0  0  0  0
 14 16  2  0  0  0  0
 16 17  1  0  0  0  0
 17 18  2  0  0  0  0
 17 19  1  0  0  0  0
 20 21  2  0  0  0  0
 20 22  1  0  0  0  0
M  END
>  <CHROM.1>
-160.89144264,123.86933874,-175.39600743,49.93383173,3.34070819,2.64963609
21.11790653,0.55756935,0.12449058,-2.13779846

>  <Name>
ligand

>  <RI>
0

>  <Rbt.Current_Directory>
/home/itssahil/PROJECTS/Mol_Feturizer/New_Systems/rnas/4LVY

>  <Rbt.Executable>
rbdock ($Id: //depot/dev/client3/rdock/2013.1/src/exe/rbdock.cxx#4 $)

>  <Rbt.Library>
libRbt.so (2013.1, Build901 2013/11/27)

>  <Rbt.Parameter_File>
/export/apps/rDock/src/rDock_2013.1_src/data/scripts/dock_solv.prm

>  <Rbt.Receptor>
prm/pocket_docking_2.prm

>  <SCORE>
-13.6594

>  <SCORE.INTER>
-14.1491

>  <SCORE.INTER.CONST>
1

>  <SCORE.INTER.POLAR>
0

>  <SCORE.INTER.ROT>
4

>  <SCORE.INTER.SOLV>
16.2917

>  <SCORE.INTER.VDW>
-21.13

>  <SCORE.INTER.norm>
-0.643142

>  <SCORE.INTRA>
0.489715

>  <SCORE.INTRA.DIHEDRAL>
0.155797

>  <SCORE.INTRA.DIHEDRAL.0>
6.18831

>  <SCORE.INTRA.POLAR>
0

>  <SCORE.INTRA.POLAR.0>
0

>  <SCORE.INTRA.REPUL>
0

>  <SCORE.INTRA.REPUL.0>
0

>  <SCORE.INTRA.SOLV>
0.0114643

>  <SCORE.INTRA.SOLV.lig_0>
-44.3465

>  <SCORE.INTRA.VDW>
0.406084

>  <SCORE.INTRA.VDW.0>
-0.778272

>  <SCORE.INTRA.norm>
0.0222598

>  <SCORE.RESTR>
0

>  <SCORE.RESTR.CAVITY>
0

>  <SCORE.RESTR.norm>
0

>  <SCORE.SYSTEM>
0

>  <SCORE.SYSTEM.CONST>
0

>  <SCORE.SYSTEM.DIHEDRAL>
0

>  <SCORE.SYSTEM.SOLV>
0

>  <SCORE.SYSTEM.norm>
0

>  <SCORE.heavy>
22

>  <SCORE.norm>
-0.620882

>  <RMSD>
1.074

$$$$
ligand
 OpenBabel11021811503D
libRbt.so/2013.1/901 2013/11/27
 22 24  0  0  0  0  0  0  0  0999 V2000
    4.9285    1.8096   19.5647 C   0  0  0  0  0  0  0  0  0  0  0  0
    5.5297    0.9793   20.5342 C   0  0  0  0  0  0  0  0  0  0  0  0
    6.8514    0.5761   20.3644 C   0  0  0  0  0  0  0  0  0  0  0  0
    7.5646    1.0017   19.2302 C   0  0  0  0  0  0  0  0  0  0  0  0
    6.9593    1.8276   18.2512 C   0  0  0  0  0  0  0  0  0  0  0  0
    5.6411    2.2280   18.4220 C   0  0  0  0  0  0  0  0  0  0  0  0
    3.4611    2.2500   19.7287 C   0  0  0  0  0  0  0  0  0  0  0  0
    2.9670    2.3469   21.1937 C   0  0  0  0  0  0  0  0  0  0  0  0
    1.4851    2.6801   21.3223 C   0  0  0  0  0  0  0  0  0  0  0  0
    0.4874    2.1225   20.5170 C   0  0  0  0  0  0  0  0  0  0  0  0
   -0.6937    2.6522   20.9298 N   0  0  0  0  0  0  0  0  0  0  0  0
   -0.5339    3.5395   21.9754 C   0  0  0  0  0  0  0  0  0  0  0  0
    0.8265    3.5879   22.2588 C   0  0  0  0  0  0  0  0  0  0  0  0
    1.2472    4.4585   23.3347 C   0  0  0  0  0  0  0  0  0  0  0  0
    2.5930    4.5502   23.6788 O   0  0  0  0  0  0  0  0  0  0  0  0
    0.2918    5.2016   24.0151 N   0  0  0  0  0  0  0  0  0  0  0  0
   -1.0352    5.1146   23.7086 C   0  0  0  0  0  0  0  0  0  0  0  0
   -1.4611    4.3174   22.7161 N   0  0  0  0  0  0  0  0  0  0  0  0
   -2.0086    5.9072   24.4668 N   0  0  0  0  0  0  0  0  0  0  0  0
    8.9907    0.5464   19.0690 C   0  0  0  0  0  0  0  0  0  0  0  0
    9.8697    0.9964   19.8017 O   0  0  0  0  0  0  0  0  0  0  0  0
    9.3018   -0.4135   18.0433 N   0  0  0  0  0  0  0  0  0  0  0  0
  1  2  2  0  0  0  0
  1  6  1  0  0  0  0
  1  7  1  0  0  0  0
  2  3  1  0  0  0  0
  3  4  2  0  0  0  0
  4  5  1  0  0  0  0
  4 20  1  0  0  0  0
  5  6  2  0  0  0  0
  7  8  1  0  0  0  0
  8  9  1  0  0  0  0
  9 10  2  0  0  0  0
  9 13  1  0  0  0  0
 10 11  1  0  0  0  0
 11 12  1  0  0  0  0
 12 13  2  0  0  0  0
 12 18  1  0  0  0  0
 13 14  1  0  0  0  0
 14 15  1  0  0  0  0
 14 16  2  0  0  0  0
 16 17  1  0  0  0  0
 17 18  2  0  0  0  0
 17 19  1  0  0  0  0
 20 21  2  0  0  0  0
 20 22  1  0  0  0  0
M  END
>  <CHROM.1>
28.63100532,-71.11103350,-175.55877769,41.67115939,3.33113665,2.67844144
21.09637903,0.55752614,0.09312944,-2.16475004

>  <Name>
ligand

>  <RI>
0

>  <Rbt.Current_Directory>
/home/itssahil/PROJECTS/Mol_Feturizer/New_Systems/rnas/4LVY

>  <Rbt.Executable>
rbdock ($Id: //depot/dev/client3/rdock/2013.1/src/exe/rbdock.cxx#4 $)

>  <Rbt.Library>
libRbt.so (2013.1, Build901 2013/11/27)

>  <Rbt.Parameter_File>
/export/apps/rDock/src/rDock_2013.1_src/data/scripts/dock_solv.prm

>  <Rbt.Receptor>
prm/pocket_docking_2.prm

>  <SCORE>
-13.9588

>  <SCORE.INTER>
-14.1566

>  <SCORE.INTER.CONST>
1

>  <SCORE.INTER.POLAR>
0

>  <SCORE.INTER.ROT>
4

>  <SCORE.INTER.SOLV>
16.391

>  <SCORE.INTER.VDW>
-21.1681

>  <SCORE.INTER.norm>
-0.643484

>  <SCORE.INTRA>
0.197823

>  <SCORE.INTRA.DIHEDRAL>
-0.00561851

>  <SCORE.INTRA.DIHEDRAL.0>
6.18831

>  <SCORE.INTRA.POLAR>
0

>  <SCORE.INTRA.POLAR.0>
0

>  <SCORE.INTRA.REPUL>
0

>  <SCORE.INTRA.REPUL.0>
0

>  <SCORE.INTRA.SOLV>
-0.00593172

>  <SCORE.INTRA.SOLV.lig_0>
-44.3465

>  <SCORE.INTRA.VDW>
0.203598

>  <SCORE.INTRA.VDW.0>
-0.778272

>  <SCORE.INTRA.norm>
0.00899196

>  <SCORE.RESTR>
0

>  <SCORE.RESTR.CAVITY>
0

>  <SCORE.RESTR.norm>
0

>  <SCORE.SYSTEM>
0

>  <SCORE.SYSTEM.CONST>
0

>  <SCORE.SYSTEM.DIHEDRAL>
0

>  <SCORE.SYSTEM.SOLV>
0

>  <SCORE.SYSTEM.norm>
0

>  <SCORE.heavy>
22

>  <SCORE.norm>
-0.634492

>  <RMSD>
1.083

$$$$
ligand
 OpenBabel11021811503D
libRbt.so/2013.1/901 2013/11/27
 22 24  0  0  0  0  0  0  0  0999 V2000
    3.7675    1.7336   20.5563 C   0  0  0  0  0  0  0  0  0  0  0  0
    4.3383    2.1537   19.3364 C   0  0  0  0  0  0  0  0  0  0  0  0
    5.6427    1.7781   19.0267 C   0  0  0  0  0  0  0  0  0  0  0  0
    6.3694    0.9878   19.9342 C   0  0  0  0  0  0  0  0  0  0  0  0
    5.8008    0.5732   21.1636 C   0  0  0  0  0  0  0  0  0  0  0  0
    4.5003    0.9493   21.4710 C   0  0  0  0  0  0  0  0  0  0  0  0
    2.3314    2.1555   20.9222 C   0  0  0  0  0  0  0  0  0  0  0  0
    2.1219    3.6806   21.0959 C   0  0  0  0  0  0  0  0  0  0  0  0
    0.6756    4.0752   21.3720 C   0  0  0  0  0  0  0  0  0  0  0  0
   -0.3767    3.8579   20.4774 C   0  0  0  0  0  0  0  0  0  0  0  0
   -1.5027    4.3329   21.0711 N   0  0  0  0  0  0  0  0  0  0  0  0
   -1.2538    4.8588   22.3232 C   0  0  0  0  0  0  0  0  0  0  0  0
    0.1095    4.7160   22.5567 C   0  0  0  0  0  0  0  0  0  0  0  0
    0.6172    5.1969   23.8229 C   0  0  0  0  0  0  0  0  0  0  0  0
    1.9705    5.0788   24.1276 O   0  0  0  0  0  0  0  0  0  0  0  0
   -0.2621    5.7791   24.7262 N   0  0  0  0  0  0  0  0  0  0  0  0
   -1.5957    5.8892   24.4580 C   0  0  0  0  0  0  0  0  0  0  0  0
   -2.1012    5.4543   23.2931 N   0  0  0  0  0  0  0  0  0  0  0  0
   -2.4876    6.4971   25.4507 N   0  0  0  0  0  0  0  0  0  0  0  0
    7.7798    0.6006   19.5763 C   0  0  0  0  0  0  0  0  0  0  0  0
    8.6160    1.4686   19.3323 O   0  0  0  0  0  0  0  0  0  0  0  0
    8.1239   -0.7953   19.5198 N   0  0  0  0  0  0  0  0  0  0  0  0
  1  2  2  0  0  0  0
  1  6  1  0  0  0  0
  1  7  1  0  0  0  0
  2  3  1  0  0  0  0
  3  4  2  0  0  0  0
  4  5  1  0  0  0  0
  4 20  1  0  0  0  0
  5  6  2  0  0  0  0
  7  8  1  0  0  0  0
  8  9  1  0  0  0  0
  9 10  2  0  0  0  0
  9 13  1  0  0  0  0
 10 11  1  0  0  0  0
 11 12  1  0  0  0  0
 12 13  2  0  0  0  0
 12 18  1  0  0  0  0
 13 14  1  0  0  0  0
 14 15  1  0  0  0  0
 14 16  2  0  0  0  0
 16 17  1  0  0  0  0
 17 18  2  0  0  0  0
 17 19  1  0  0  0  0
 20 21  2  0  0  0  0
 20 22  1  0  0  0  0
M  END
>  <CHROM.1>
-63.26432834,57.17560949,176.41224293,-62.71298493,2.42302043,3.26091820
21.65491288,0.57602654,0.30798762,-2.01466003

>  <Name>
ligand

>  <RI>
0

>  <Rbt.Current_Directory>
/home/itssahil/PROJECTS/Mol_Feturizer/New_Systems/rnas/4LVY

>  <Rbt.Executable>
rbdock ($Id: //depot/dev/client3/rdock/2013.1/src/exe/rbdock.cxx#4 $)

>  <Rbt.Library>
libRbt.so (2013.1, Build901 2013/11/27)

>  <Rbt.Parameter_File>
/export/apps/rDock/src/rDock_2013.1_src/data/scripts/dock_solv.prm

>  <Rbt.Receptor>
prm/pocket_docking_2.prm

>  <SCORE>
-13.7093

>  <SCORE.INTER>
-13.4222

>  <SCORE.INTER.CONST>
1

>  <SCORE.INTER.POLAR>
0

>  <SCORE.INTER.ROT>
4

>  <SCORE.INTER.SOLV>
21.7999

>  <SCORE.INTER.VDW>
-22.4815

>  <SCORE.INTER.norm>
-0.610101

>  <SCORE.INTRA>
-0.287114

>  <SCORE.INTRA.DIHEDRAL>
0.0545993

>  <SCORE.INTRA.DIHEDRAL.0>
6.18831

>  <SCORE.INTRA.POLAR>
0

>  <SCORE.INTRA.POLAR.0>
0

>  <SCORE.INTRA.REPUL>
0

>  <SCORE.INTRA.REPUL.0>
0

>  <SCORE.INTRA.SOLV>
0.050841

>  <SCORE.INTRA.SOLV.lig_0>
-44.3465

>  <SCORE.INTRA.VDW>
-0.339834

>  <SCORE.INTRA.VDW.0>
-0.778272

>  <SCORE.INTRA.norm>
-0.0130506

>  <SCORE.RESTR>
0

>  <SCORE.RESTR.CAVITY>
0

>  <SCORE.RESTR.norm>
0

>  <SCORE.SYSTEM>
0

>  <SCORE.SYSTEM.CONST>
0

>  <SCORE.SYSTEM.DIHEDRAL>
0

>  <SCORE.SYSTEM.SOLV>
0

>  <SCORE.SYSTEM.norm>
0

>  <SCORE.heavy>
22

>  <SCORE.norm>
-0.623152

>  <RMSD>
1.104

$$$$
ligand
 OpenBabel11021811503D
libRbt.so/2013.1/901 2013/11/27
 22 24  0  0  0  0  0  0  0  0999 V2000
    4.8843    1.9349   19.3663 C   0  0  0  0  0  0  0  0  0  0  0  0
    5.5923    2.4692   18.2691 C   0  0  0  0  0  0  0  0  0  0  0  0
    6.9329    2.1374   18.0934 C   0  0  0  0  0  0  0  0  0  0  0  0
    7.5591    1.2768   19.0118 C   0  0  0  0  0  0  0  0  0  0  0  0
    6.8520    0.7471   20.1192 C   0  0  0  0  0  0  0  0  0  0  0  0
    5.5155    1.0797   20.2931 C   0  0  0  0  0  0  0  0  0  0  0  0
    3.4050    2.3065   19.5851 C   0  0  0  0  0  0  0  0  0  0  0  0
    2.9912    2.5004   21.0653 C   0  0  0  0  0  0  0  0  0  0  0  0
    1.4989    2.7422   21.2602 C   0  0  0  0  0  0  0  0  0  0  0  0
    0.5013    2.0996   20.5207 C   0  0  0  0  0  0  0  0  0  0  0  0
   -0.6901    2.5646   20.9792 N   0  0  0  0  0  0  0  0  0  0  0  0
   -0.5374    3.4897   21.9926 C   0  0  0  0  0  0  0  0  0  0  0  0
    0.8293    3.6325   22.2056 C   0  0  0  0  0  0  0  0  0  0  0  0
    1.2445    4.5583   23.2365 C   0  0  0  0  0  0  0  0  0  0  0  0
    2.5968    4.7452   23.5097 O   0  0  0  0  0  0  0  0  0  0  0  0
    0.2773    5.2582   23.9454 N   0  0  0  0  0  0  0  0  0  0  0  0
   -1.0547    5.0784   23.7087 C   0  0  0  0  0  0  0  0  0  0  0  0
   -1.4758    4.2278   22.7595 N   0  0  0  0  0  0  0  0  0  0  0  0
   -2.0392    5.8287   24.4949 N   0  0  0  0  0  0  0  0  0  0  0  0
    9.0111    0.9388   18.8007 C   0  0  0  0  0  0  0  0  0  0  0  0
    9.8882    1.6923   19.2192 O   0  0  0  0  0  0  0  0  0  0  0  0
    9.3479   -0.2712   18.0989 N   0  0  0  0  0  0  0  0  0  0  0  0
  1  2  2  0  0  0  0
  1  6  1  0  0  0  0
  1  7  1  0  0  0  0
  2  3  1  0  0  0  0
  3  4  2  0  0  0  0
  4  5  1  0  0  0  0
  4 20  1  0  0  0  0
  5  6  2  0  0  0  0
  7  8  1  0  0  0  0
  8  9  1  0  0  0  0
  9 10  2  0  0  0  0
  9 13  1  0  0  0  0
 10 11  1  0  0  0  0
 11 12  1  0  0  0  0
 12 13  2  0  0  0  0
 12 18  1  0  0  0  0
 13 14  1  0  0  0  0
 14 15  1  0  0  0  0
 14 16  2  0  0  0  0
 16 17  1  0  0  0  0
 17 18  2  0  0  0  0
 17 19  1  0  0  0  0
 20 21  2  0  0  0  0
 20 22  1  0  0  0  0
M  END
>  <CHROM.1>
-141.99354139,84.41345078,-174.75513441,38.10541569,3.32557504,2.80763022
20.97598370,0.55958709,-0.00026522,-2.23830520

>  <Name>
ligand

>  <RI>
0

>  <Rbt.Current_Directory>
/home/itssahil/PROJECTS/Mol_Feturizer/New_Systems/rnas/4LVY

>  <Rbt.Executable>
rbdock ($Id: //depot/dev/client3/rdock/2013.1/src/exe/rbdock.cxx#4 $)

>  <Rbt.Library>
libRbt.so (2013.1, Build901 2013/11/27)

>  <Rbt.Parameter_File>
/export/apps/rDock/src/rDock_2013.1_src/data/scripts/dock_solv.prm

>  <Rbt.Receptor>
prm/pocket_docking_2.prm

>  <SCORE>
-13.5517

>  <SCORE.INTER>
-13.8241

>  <SCORE.INTER.CONST>
1

>  <SCORE.INTER.POLAR>
0

>  <SCORE.INTER.ROT>
4

>  <SCORE.INTER.SOLV>
16.0287

>  <SCORE.INTER.VDW>
-20.8256

>  <SCORE.INTER.norm>
-0.628368

>  <SCORE.INTRA>
0.272362

>  <SCORE.INTRA.DIHEDRAL>
0.212185

>  <SCORE.INTRA.DIHEDRAL.0>
6.18831

>  <SCORE.INTRA.POLAR>
0

>  <SCORE.INTRA.POLAR.0>
0

>  <SCORE.INTRA.REPUL>
0

>  <SCORE.INTRA.REPUL.0>
0

>  <SCORE.INTRA.SOLV>
-0.00888915

>  <SCORE.INTRA.SOLV.lig_0>
-44.3465

>  <SCORE.INTRA.VDW>
0.170713

>  <SCORE.INTRA.VDW.0>
-0.778272

>  <SCORE.INTRA.norm>
0.0123801

>  <SCORE.RESTR>
0

>  <SCORE.RESTR.CAVITY>
0

>  <SCORE.RESTR.norm>
0

>  <SCORE.SYSTEM>
0

>  <SCORE.SYSTEM.CONST>
0

>  <SCORE.SYSTEM.DIHEDRAL>
0

>  <SCORE.SYSTEM.SOLV>
0

>  <SCORE.SYSTEM.norm>
0

>  <SCORE.heavy>
22

>  <SCORE.norm>
-0.615988

>  <RMSD>
1.113

$$$$
ligand
 OpenBabel11021811503D
libRbt.so/2013.1/901 2013/11/27
 22 24  0  0  0  0  0  0  0  0999 V2000
    5.0183    1.8680   19.7298 C   0  0  0  0  0  0  0  0  0  0  0  0
    5.7268    2.1504   18.5429 C   0  0  0  0  0  0  0  0  0  0  0  0
    6.9706    1.5613   18.3325 C   0  0  0  0  0  0  0  0  0  0  0  0
    7.5002    0.6961   19.3057 C   0  0  0  0  0  0  0  0  0  0  0  0
    6.7941    0.4190   20.5021 C   0  0  0  0  0  0  0  0  0  0  0  0
    5.5544    1.0080   20.7104 C   0  0  0  0  0  0  0  0  0  0  0  0
    3.6487    2.5258   19.9860 C   0  0  0  0  0  0  0  0  0  0  0  0
    2.7380    1.7722   20.9874 C   0  0  0  0  0  0  0  0  0  0  0  0
    1.3714    2.4185   21.1826 C   0  0  0  0  0  0  0  0  0  0  0  0
    0.2445    2.1070   20.4158 C   0  0  0  0  0  0  0  0  0  0  0  0
   -0.7746    2.8742   20.8839 N   0  0  0  0  0  0  0  0  0  0  0  0
   -0.3828    3.6859   21.9296 C   0  0  0  0  0  0  0  0  0  0  0  0
    0.9655    3.4308   22.1548 C   0  0  0  0  0  0  0  0  0  0  0  0
    1.6091    4.1687   23.2195 C   0  0  0  0  0  0  0  0  0  0  0  0
    2.9550    3.9581   23.5062 O   0  0  0  0  0  0  0  0  0  0  0  0
    0.8676    5.0899   23.9471 N   0  0  0  0  0  0  0  0  0  0  0  0
   -0.4575    5.3004   23.6971 C   0  0  0  0  0  0  0  0  0  0  0  0
   -1.0868    4.6338   22.7167 N   0  0  0  0  0  0  0  0  0  0  0  0
   -1.2026    6.2724   24.5037 N   0  0  0  0  0  0  0  0  0  0  0  0
    8.8496    0.0769   19.0549 C   0  0  0  0  0  0  0  0  0  0  0  0
    8.9335   -1.0236   18.5127 O   0  0  0  0  0  0  0  0  0  0  0  0
   10.0290    0.7913   19.4657 N   0  0  0  0  0  0  0  0  0  0  0  0
  1  2  2  0  0  0  0
  1  6  1  0  0  0  0
  1  7  1  0  0  0  0
  2  3  1  0  0  0  0
  3  4  2  0  0  0  0
  4  5  1  0  0  0  0
  4 20  1  0  0  0  0
  5  6  2  0  0  0  0
  7  8  1  0  0  0  0
  8  9  1  0  0  0  0
  9 10  2  0  0  0  0
  9 13  1  0  0  0  0
 10 11  1  0  0  0  0
 11 12  1  0  0  0  0
 12 13  2  0  0  0  0
 12 18  1  0  0  0  0
 13 14  1  0  0  0  0
 14 15  1  0  0  0  0
 14 16  2  0  0  0  0
 16 17  1  0  0  0  0
 17 18  2  0  0  0  0
 17 19  1  0  0  0  0
 20 21  2  0  0  0  0
 20 22  1  0  0  0  0
M  END
>  <CHROM.1>
157.50412658,-92.43937125,-177.90708084,90.18835653,3.44905257,2.54915533
21.09249151,0.58650558,0.11834496,-2.20645427

>  <Name>
ligand

>  <RI>
0

>  <Rbt.Current_Directory>
/home/itssahil/PROJECTS/Mol_Feturizer/New_Systems/rnas/4LVY

>  <Rbt.Executable>
rbdock ($Id: //depot/dev/client3/rdock/2013.1/src/exe/rbdock.cxx#4 $)

>  <Rbt.Library>
libRbt.so (2013.1, Build901 2013/11/27)

>  <Rbt.Parameter_File>
/export/apps/rDock/src/rDock_2013.1_src/data/scripts/dock_solv.prm

>  <Rbt.Receptor>
prm/pocket_docking_3.prm

>  <SCORE>
-13.4571

>  <SCORE.INTER>
-13.4572

>  <SCORE.INTER.CONST>
1

>  <SCORE.INTER.POLAR>
0

>  <SCORE.INTER.ROT>
4

>  <SCORE.INTER.SOLV>
15.1383

>  <SCORE.INTER.VDW>
-20.2842

>  <SCORE.INTER.norm>
-0.611691

>  <SCORE.INTRA>
7.66913e-05

>  <SCORE.INTRA.DIHEDRAL>
-0.0312245

>  <SCORE.INTRA.DIHEDRAL.0>
6.18831

>  <SCORE.INTRA.POLAR>
0

>  <SCORE.INTRA.POLAR.0>
0

>  <SCORE.INTRA.REPUL>
0

>  <SCORE.INTRA.REPUL.0>
0

>  <SCORE.INTRA.SOLV>
0.151188

>  <SCORE.INTRA.SOLV.lig_0>
-44.3465

>  <SCORE.INTRA.VDW>
-0.0599051

>  <SCORE.INTRA.VDW.0>
-0.778272

>  <SCORE.INTRA.norm>
3.48597e-06

>  <SCORE.RESTR>
0

>  <SCORE.RESTR.CAVITY>
0

>  <SCORE.RESTR.norm>
0

>  <SCORE.SYSTEM>
0

>  <SCORE.SYSTEM.CONST>
0

>  <SCORE.SYSTEM.DIHEDRAL>
0

>  <SCORE.SYSTEM.SOLV>
0

>  <SCORE.SYSTEM.norm>
0

>  <SCORE.heavy>
22

>  <SCORE.norm>
-0.611687

>  <RMSD>
1.113

$$$$
ligand
 OpenBabel11021811503D
libRbt.so/2013.1/901 2013/11/27
 22 24  0  0  0  0  0  0  0  0999 V2000
    3.7359    1.7366   20.4348 C   0  0  0  0  0  0  0  0  0  0  0  0
    4.3980    2.1187   19.2489 C   0  0  0  0  0  0  0  0  0  0  0  0
    5.7167    1.7222   19.0439 C   0  0  0  0  0  0  0  0  0  0  0  0
    6.3669    0.9489   20.0214 C   0  0  0  0  0  0  0  0  0  0  0  0
    5.7065    0.5725   21.2168 C   0  0  0  0  0  0  0  0  0  0  0  0
    4.3918    0.9694   21.4197 C   0  0  0  0  0  0  0  0  0  0  0  0
    2.2824    2.1823   20.6851 C   0  0  0  0  0  0  0  0  0  0  0  0
    2.1178    3.6565   21.1315 C   0  0  0  0  0  0  0  0  0  0  0  0
    0.6722    4.0616   21.3952 C   0  0  0  0  0  0  0  0  0  0  0  0
   -0.3737    3.8540   20.4908 C   0  0  0  0  0  0  0  0  0  0  0  0
   -1.5014    4.3364   21.0752 N   0  0  0  0  0  0  0  0  0  0  0  0
   -1.2598    4.8581   22.3305 C   0  0  0  0  0  0  0  0  0  0  0  0
    0.1002    4.7045   22.5761 C   0  0  0  0  0  0  0  0  0  0  0  0
    0.6000    5.1791   23.8478 C   0  0  0  0  0  0  0  0  0  0  0  0
    1.9496    5.0502   24.1645 O   0  0  0  0  0  0  0  0  0  0  0  0
   -0.2830    5.7663   24.7441 N   0  0  0  0  0  0  0  0  0  0  0  0
   -1.6132    5.8870   24.4641 C   0  0  0  0  0  0  0  0  0  0  0  0
   -2.1115    5.4581   23.2939 N   0  0  0  0  0  0  0  0  0  0  0  0
   -2.5095    6.4998   25.4499 N   0  0  0  0  0  0  0  0  0  0  0  0
    7.7947    0.5384   19.7763 C   0  0  0  0  0  0  0  0  0  0  0  0
    8.6687    1.3926   19.6406 O   0  0  0  0  0  0  0  0  0  0  0  0
    8.1111   -0.8630   19.6983 N   0  0  0  0  0  0  0  0  0  0  0  0
  1  2  2  0  0  0  0
  1  6  1  0  0  0  0
  1  7  1  0  0  0  0
  2  3  1  0  0  0  0
  3  4  2  0  0  0  0
  4  5  1  0  0  0  0
  4 20  1  0  0  0  0
  5  6  2  0  0  0  0
  7  8  1  0  0  0  0
  8  9  1  0  0  0  0
  9 10  2  0  0  0  0
  9 13  1  0  0  0  0
 10 11  1  0  0  0  0
 11 12  1  0  0  0  0
 12 13  2  0  0  0  0
 12 18  1  0  0  0  0
 13 14  1  0  0  0  0
 14 15  1  0  0  0  0
 14 16  2  0  0  0  0
 16 17  1  0  0  0  0
 17 18  2  0  0  0  0
 17 19  1  0  0  0  0
 20 21  2  0  0  0  0
 20 22  1  0  0  0  0
M  END
>  <CHROM.1>
-76.94531273,60.97242585,-178.97659754,-51.42646382,2.41321328,3.24254968
21.68217974,0.56828707,0.31497244,-2.01711682

>  <Name>
ligand

>  <RI>
0

>  <Rbt.Current_Directory>
/home/itssahil/PROJECTS/Mol_Feturizer/New_Systems/rnas/4LVY

>  <Rbt.Executable>
rbdock ($Id: //depot/dev/client3/rdock/2013.1/src/exe/rbdock.cxx#4 $)

>  <Rbt.Library>
libRbt.so (2013.1, Build901 2013/11/27)

>  <Rbt.Parameter_File>
/export/apps/rDock/src/rDock_2013.1_src/data/scripts/dock_solv.prm

>  <Rbt.Receptor>
prm/pocket_docking_3.prm

>  <SCORE>
-13.8052

>  <SCORE.INTER>
-13.4847

>  <SCORE.INTER.CONST>
1

>  <SCORE.INTER.POLAR>
0

>  <SCORE.INTER.ROT>
4

>  <SCORE.INTER.SOLV>
21.8257

>  <SCORE.INTER.VDW>
-22.5317

>  <SCORE.INTER.norm>
-0.61294

>  <SCORE.INTRA>
-0.320491

>  <SCORE.INTRA.DIHEDRAL>
-0.0198727

>  <SCORE.INTRA.DIHEDRAL.0>
6.18831

>  <SCORE.INTRA.POLAR>
0

>  <SCORE.INTRA.POLAR.0>
0

>  <SCORE.INTRA.REPUL>
0

>  <SCORE.INTRA.REPUL.0>
0

>  <SCORE.INTRA.SOLV>
0.0149085

>  <SCORE.INTRA.SOLV.lig_0>
-44.3465

>  <SCORE.INTRA.VDW>
-0.318009

>  <SCORE.INTRA.VDW.0>
-0.778272

>  <SCORE.INTRA.norm>
-0.0145678

>  <SCORE.RESTR>
0

>  <SCORE.RESTR.CAVITY>
0

>  <SCORE.RESTR.norm>
0

>  <SCORE.SYSTEM>
0

>  <SCORE.SYSTEM.CONST>
0

>  <SCORE.SYSTEM.DIHEDRAL>
0

>  <SCORE.SYSTEM.SOLV>
0

>  <SCORE.SYSTEM.norm>
0

>  <SCORE.heavy>
22

>  <SCORE.norm>
-0.627508

>  <RMSD>
1.120

$$$$
ligand
 OpenBabel11021811503D
libRbt.so/2013.1/901 2013/11/27
 22 24  0  0  0  0  0  0  0  0999 V2000
    4.9182    1.8085   19.5388 C   0  0  0  0  0  0  0  0  0  0  0  0
    5.6549    2.2150   18.4063 C   0  0  0  0  0  0  0  0  0  0  0  0
    6.9756    1.7980   18.2640 C   0  0  0  0  0  0  0  0  0  0  0  0
    7.5533    0.9801   19.2507 C   0  0  0  0  0  0  0  0  0  0  0  0
    6.8177    0.5790   20.3930 C   0  0  0  0  0  0  0  0  0  0  0  0
    5.5012    0.9964   20.5334 C   0  0  0  0  0  0  0  0  0  0  0  0
    3.4612    2.2760   19.7201 C   0  0  0  0  0  0  0  0  0  0  0  0
    2.9530    2.2807   21.1836 C   0  0  0  0  0  0  0  0  0  0  0  0
    1.4765    2.6336   21.3208 C   0  0  0  0  0  0  0  0  0  0  0  0
    0.4648    2.0772   20.5323 C   0  0  0  0  0  0  0  0  0  0  0  0
   -0.7060    2.6269   20.9483 N   0  0  0  0  0  0  0  0  0  0  0  0
   -0.5259    3.5265   21.9800 C   0  0  0  0  0  0  0  0  0  0  0  0
    0.8375    3.5622   22.2505 C   0  0  0  0  0  0  0  0  0  0  0  0
    1.2785    4.4423   23.3104 C   0  0  0  0  0  0  0  0  0  0  0  0
    2.6284    4.5224   23.6410 O   0  0  0  0  0  0  0  0  0  0  0  0
    0.3384    5.2063   23.9890 N   0  0  0  0  0  0  0  0  0  0  0  0
   -0.9923    5.1313   23.6956 C   0  0  0  0  0  0  0  0  0  0  0  0
   -1.4368    4.3258   22.7182 N   0  0  0  0  0  0  0  0  0  0  0  0
   -1.9490    5.9461   24.4515 N   0  0  0  0  0  0  0  0  0  0  0  0
    8.9849    0.5481   19.0742 C   0  0  0  0  0  0  0  0  0  0  0  0
    9.8973    1.2258   19.5438 O   0  0  0  0  0  0  0  0  0  0  0  0
    9.2609   -0.6610   18.3448 N   0  0  0  0  0  0  0  0  0  0  0  0
  1  2  2  0  0  0  0
  1  6  1  0  0  0  0
  1  7  1  0  0  0  0
  2  3  1  0  0  0  0
  3  4  2  0  0  0  0
  4  5  1  0  0  0  0
  4 20  1  0  0  0  0
  5  6  2  0  0  0  0
  7  8  1  0  0  0  0
  8  9  1  0  0  0  0
  9 10  2  0  0  0  0
  9 13  1  0  0  0  0
 10 11  1  0  0  0  0
 11 12  1  0  0  0  0
 12 13  2  0  0  0  0
 12 18  1  0  0  0  0
 13 14  1  0  0  0  0
 14 15  1  0  0  0  0
 14 16  2  0  0  0  0
 16 17  1  0  0  0  0
 17 18  2  0  0  0  0
 17 19  1  0  0  0  0
 20 21  2  0  0  0  0
 20 22  1  0  0  0  0
M  END
>  <CHROM.1>
-156.08345459,91.00599684,-175.11040690,46.60156830,3.33787106,2.66964293
21.09256365,0.56033723,0.06998479,-2.20461585

>  <Name>
ligand

>  <RI>
0

>  <Rbt.Current_Directory>
/home/itssahil/PROJECTS/Mol_Feturizer/New_Systems/rnas/4LVY

>  <Rbt.Executable>
rbdock ($Id: //depot/dev/client3/rdock/2013.1/src/exe/rbdock.cxx#4 $)

>  <Rbt.Library>
libRbt.so (2013.1, Build901 2013/11/27)

>  <Rbt.Parameter_File>
/export/apps/rDock/src/rDock_2013.1_src/data/scripts/dock_solv.prm

>  <Rbt.Receptor>
prm/pocket_docking_2.prm

>  <SCORE>
-13.7369

>  <SCORE.INTER>
-14.1541

>  <SCORE.INTER.CONST>
1

>  <SCORE.INTER.POLAR>
0

>  <SCORE.INTER.ROT>
4

>  <SCORE.INTER.SOLV>
16.202

>  <SCORE.INTER.VDW>
-21.1034

>  <SCORE.INTER.norm>
-0.643369

>  <SCORE.INTRA>
0.417212

>  <SCORE.INTRA.DIHEDRAL>
0.205837

>  <SCORE.INTRA.DIHEDRAL.0>
6.18831

>  <SCORE.INTRA.POLAR>
0

>  <SCORE.INTRA.POLAR.0>
0

>  <SCORE.INTRA.REPUL>
0

>  <SCORE.INTRA.REPUL.0>
0

>  <SCORE.INTRA.SOLV>
-0.00364819

>  <SCORE.INTRA.SOLV.lig_0>
-44.3465

>  <SCORE.INTRA.VDW>
0.316118

>  <SCORE.INTRA.VDW.0>
-0.778272

>  <SCORE.INTRA.norm>
0.0189642

>  <SCORE.RESTR>
0

>  <SCORE.RESTR.CAVITY>
0

>  <SCORE.RESTR.norm>
0

>  <SCORE.SYSTEM>
0

>  <SCORE.SYSTEM.CONST>
0

>  <SCORE.SYSTEM.DIHEDRAL>
0

>  <SCORE.SYSTEM.SOLV>
0

>  <SCORE.SYSTEM.norm>
0

>  <SCORE.heavy>
22

>  <SCORE.norm>
-0.624405

>  <RMSD>
1.121

$$$$
ligand
 OpenBabel11021811503D
libRbt.so/2013.1/901 2013/11/27
 22 24  0  0  0  0  0  0  0  0999 V2000
    3.7796    1.7203   20.6277 C   0  0  0  0  0  0  0  0  0  0  0  0
    4.5109    0.9037   21.5159 C   0  0  0  0  0  0  0  0  0  0  0  0
    5.8049    0.5154   21.1796 C   0  0  0  0  0  0  0  0  0  0  0  0
    6.3609    0.9422   19.9611 C   0  0  0  0  0  0  0  0  0  0  0  0
    5.6244    1.7543   19.0640 C   0  0  0  0  0  0  0  0  0  0  0  0
    4.3340    2.1398   19.4008 C   0  0  0  0  0  0  0  0  0  0  0  0
    2.3399    2.1440   20.9768 C   0  0  0  0  0  0  0  0  0  0  0  0
    2.1229    3.6716   21.1154 C   0  0  0  0  0  0  0  0  0  0  0  0
    0.6751    4.0654   21.3843 C   0  0  0  0  0  0  0  0  0  0  0  0
   -0.3740    3.8402   20.4878 C   0  0  0  0  0  0  0  0  0  0  0  0
   -1.5028    4.3170   21.0747 N   0  0  0  0  0  0  0  0  0  0  0  0
   -1.2588    4.8516   22.3241 C   0  0  0  0  0  0  0  0  0  0  0  0
    0.1040    4.7129   22.5630 C   0  0  0  0  0  0  0  0  0  0  0  0
    0.6067    5.2029   23.8276 C   0  0  0  0  0  0  0  0  0  0  0  0
    1.9592    5.0894   24.1375 O   0  0  0  0  0  0  0  0  0  0  0  0
   -0.2765    5.7894   24.7242 N   0  0  0  0  0  0  0  0  0  0  0  0
   -1.6095    5.8953   24.4510 C   0  0  0  0  0  0  0  0  0  0  0  0
   -2.1105    5.4518   23.2874 N   0  0  0  0  0  0  0  0  0  0  0  0
   -2.5057    6.5080   25.4369 N   0  0  0  0  0  0  0  0  0  0  0  0
    7.7603    0.5031   19.6201 C   0  0  0  0  0  0  0  0  0  0  0  0
    8.6754    1.3239   19.5897 O   0  0  0  0  0  0  0  0  0  0  0  0
    8.0008   -0.8847   19.3264 N   0  0  0  0  0  0  0  0  0  0  0  0
  1  2  2  0  0  0  0
  1  6  1  0  0  0  0
  1  7  1  0  0  0  0
  2  3  1  0  0  0  0
  3  4  2  0  0  0  0
  4  5  1  0  0  0  0
  4 20  1  0  0  0  0
  5  6  2  0  0  0  0
  7  8  1  0  0  0  0
  8  9  1  0  0  0  0
  9 10  2  0  0  0  0
  9 13  1  0  0  0  0
 10 11  1  0  0  0  0
 11 12  1  0  0  0  0
 12 13  2  0  0  0  0
 12 18  1  0  0  0  0
 13 14  1  0  0  0  0
 14 15  1  0  0  0  0
 14 16  2  0  0  0  0
 16 17  1  0  0  0  0
 17 18  2  0  0  0  0
 17 19  1  0  0  0  0
 20 21  2  0  0  0  0
 20 22  1  0  0  0  0
M  END
>  <CHROM.1>
118.59045942,-111.56179896,176.78543786,-63.71508953,2.41572898,3.23462463
21.67708512,0.58026867,0.30686101,-2.03362856

>  <Name>
ligand

>  <RI>
0

>  <Rbt.Current_Directory>
/home/itssahil/PROJECTS/Mol_Feturizer/New_Systems/rnas/4LVY

>  <Rbt.Executable>
rbdock ($Id: //depot/dev/client3/rdock/2013.1/src/exe/rbdock.cxx#4 $)

>  <Rbt.Library>
libRbt.so (2013.1, Build901 2013/11/27)

>  <Rbt.Parameter_File>
/export/apps/rDock/src/rDock_2013.1_src/data/scripts/dock_solv.prm

>  <Rbt.Receptor>
prm/pocket_docking_2.prm

>  <SCORE>
-13.6209

>  <SCORE.INTER>
-13.3146

>  <SCORE.INTER.CONST>
1

>  <SCORE.INTER.POLAR>
0

>  <SCORE.INTER.ROT>
4

>  <SCORE.INTER.SOLV>
22.193

>  <SCORE.INTER.VDW>
-22.5407

>  <SCORE.INTER.norm>
-0.605207

>  <SCORE.INTRA>
-0.306332

>  <SCORE.INTRA.DIHEDRAL>
0.0576066

>  <SCORE.INTRA.DIHEDRAL.0>
6.18831

>  <SCORE.INTRA.POLAR>
0

>  <SCORE.INTRA.POLAR.0>
0

>  <SCORE.INTRA.REPUL>
0

>  <SCORE.INTRA.REPUL.0>
0

>  <SCORE.INTRA.SOLV>
0.0543136

>  <SCORE.INTRA.SOLV.lig_0>
-44.3465

>  <SCORE.INTRA.VDW>
-0.362292

>  <SCORE.INTRA.VDW.0>
-0.778272

>  <SCORE.INTRA.norm>
-0.0139242

>  <SCORE.RESTR>
0

>  <SCORE.RESTR.CAVITY>
0

>  <SCORE.RESTR.norm>
0

>  <SCORE.SYSTEM>
0

>  <SCORE.SYSTEM.CONST>
0

>  <SCORE.SYSTEM.DIHEDRAL>
0

>  <SCORE.SYSTEM.SOLV>
0

>  <SCORE.SYSTEM.norm>
0

>  <SCORE.heavy>
22

>  <SCORE.norm>
-0.619131

>  <RMSD>
1.124

$$$$
ligand
 OpenBabel11021811503D
libRbt.so/2013.1/901 2013/11/27
 22 24  0  0  0  0  0  0  0  0999 V2000
    5.0544    1.2839   20.7886 C   0  0  0  0  0  0  0  0  0  0  0  0
    5.4557    1.7459   19.5173 C   0  0  0  0  0  0  0  0  0  0  0  0
    6.6406    1.2724   18.9604 C   0  0  0  0  0  0  0  0  0  0  0  0
    7.4177    0.3431   19.6736 C   0  0  0  0  0  0  0  0  0  0  0  0
    7.0208   -0.1145   20.9542 C   0  0  0  0  0  0  0  0  0  0  0  0
    5.8394    0.3594   21.5081 C   0  0  0  0  0  0  0  0  0  0  0  0
    3.7550    1.8116   21.4267 C   0  0  0  0  0  0  0  0  0  0  0  0
    2.8726    2.6778   20.4933 C   0  0  0  0  0  0  0  0  0  0  0  0
    1.4315    2.8218   20.9685 C   0  0  0  0  0  0  0  0  0  0  0  0
    0.3560    2.1134   20.4240 C   0  0  0  0  0  0  0  0  0  0  0  0
   -0.7550    2.5005   21.1035 N   0  0  0  0  0  0  0  0  0  0  0  0
   -0.4740    3.4361   22.0791 C   0  0  0  0  0  0  0  0  0  0  0  0
    0.8962    3.6686   22.0320 C   0  0  0  0  0  0  0  0  0  0  0  0
    1.4377    4.6222   22.9752 C   0  0  0  0  0  0  0  0  0  0  0  0
    2.8022    4.8980   22.9904 O   0  0  0  0  0  0  0  0  0  0  0  0
    0.5784    5.2590   23.8607 N   0  0  0  0  0  0  0  0  0  0  0  0
   -0.7598    4.9917   23.8776 C   0  0  0  0  0  0  0  0  0  0  0  0
   -1.2965    4.1131   23.0164 N   0  0  0  0  0  0  0  0  0  0  0  0
   -1.6247    5.6779   24.8428 N   0  0  0  0  0  0  0  0  0  0  0  0
    8.6971   -0.1483   19.0501 C   0  0  0  0  0  0  0  0  0  0  0  0
    8.9271   -1.3542   18.9801 O   0  0  0  0  0  0  0  0  0  0  0  0
    9.6402    0.8154   18.5481 N   0  0  0  0  0  0  0  0  0  0  0  0
  1  2  2  0  0  0  0
  1  6  1  0  0  0  0
  1  7  1  0  0  0  0
  2  3  1  0  0  0  0
  3  4  2  0  0  0  0
  4  5  1  0  0  0  0
  4 20  1  0  0  0  0
  5  6  2  0  0  0  0
  7  8  1  0  0  0  0
  8  9  1  0  0  0  0
  9 10  2  0  0  0  0
  9 13  1  0  0  0  0
 10 11  1  0  0  0  0
 11 12  1  0  0  0  0
 12 13  2  0  0  0  0
 12 18  1  0  0  0  0
 13 14  1  0  0  0  0
 14 15  1  0  0  0  0
 14 16  2  0  0  0  0
 16 17  1  0  0  0  0
 17 18  2  0  0  0  0
 17 19  1  0  0  0  0
 20 21  2  0  0  0  0
 20 22  1  0  0  0  0
M  END
>  <CHROM.1>
8.72827482,-129.51285836,161.90881030,-102.49451070,3.35731080,2.42447190
21.29818747,-0.59608227,-0.05599990,0.78896502

>  <Name>
ligand

>  <RI>
0

>  <Rbt.Current_Directory>
/home/itssahil/PROJECTS/Mol_Feturizer/New_Systems/rnas/4LVY

>  <Rbt.Executable>
rbdock ($Id: //depot/dev/client3/rdock/2013.1/src/exe/rbdock.cxx#4 $)

>  <Rbt.Library>
libRbt.so (2013.1, Build901 2013/11/27)

>  <Rbt.Parameter_File>
/export/apps/rDock/src/rDock_2013.1_src/data/scripts/dock_solv.prm

>  <Rbt.Receptor>
prm/pocket_docking_2.prm

>  <SCORE>
-11.7946

>  <SCORE.INTER>
-12.5885

>  <SCORE.INTER.CONST>
1

>  <SCORE.INTER.POLAR>
0

>  <SCORE.INTER.ROT>
4

>  <SCORE.INTER.SOLV>
16.174

>  <SCORE.INTER.VDW>
-20.0504

>  <SCORE.INTER.norm>
-0.572206

>  <SCORE.INTRA>
0.793932

>  <SCORE.INTRA.DIHEDRAL>
1.25816

>  <SCORE.INTRA.DIHEDRAL.0>
6.18831

>  <SCORE.INTRA.POLAR>
0

>  <SCORE.INTRA.POLAR.0>
0

>  <SCORE.INTRA.REPUL>
0

>  <SCORE.INTRA.REPUL.0>
0

>  <SCORE.INTRA.SOLV>
0.216992

>  <SCORE.INTRA.SOLV.lig_0>
-44.3465

>  <SCORE.INTRA.VDW>
0.0563532

>  <SCORE.INTRA.VDW.0>
-0.778272

>  <SCORE.INTRA.norm>
0.0360878

>  <SCORE.RESTR>
0

>  <SCORE.RESTR.CAVITY>
0

>  <SCORE.RESTR.norm>
0

>  <SCORE.SYSTEM>
0

>  <SCORE.SYSTEM.CONST>
0

>  <SCORE.SYSTEM.DIHEDRAL>
0

>  <SCORE.SYSTEM.SOLV>
0

>  <SCORE.SYSTEM.norm>
0

>  <SCORE.heavy>
22

>  <SCORE.norm>
-0.536119

>  <RMSD>
1.124

$$$$
ligand
 OpenBabel11021811503D
libRbt.so/2013.1/901 2013/11/27
 22 24  0  0  0  0  0  0  0  0999 V2000
    4.9192    1.8215   19.5417 C   0  0  0  0  0  0  0  0  0  0  0  0
    5.5275    1.0023   20.5161 C   0  0  0  0  0  0  0  0  0  0  0  0
    6.8439    0.5867   20.3348 C   0  0  0  0  0  0  0  0  0  0  0  0
    7.5446    0.9891   19.1844 C   0  0  0  0  0  0  0  0  0  0  0  0
    6.9318    1.8038   18.2007 C   0  0  0  0  0  0  0  0  0  0  0  0
    5.6190    2.2165   18.3829 C   0  0  0  0  0  0  0  0  0  0  0  0
    3.4573    2.2752   19.7185 C   0  0  0  0  0  0  0  0  0  0  0  0
    2.9643    2.3368   21.1858 C   0  0  0  0  0  0  0  0  0  0  0  0
    1.4825    2.6667   21.3235 C   0  0  0  0  0  0  0  0  0  0  0  0
    0.4802    2.1005   20.5300 C   0  0  0  0  0  0  0  0  0  0  0  0
   -0.6992    2.6298   20.9483 N   0  0  0  0  0  0  0  0  0  0  0  0
   -0.5338    3.5250   21.9862 C   0  0  0  0  0  0  0  0  0  0  0  0
    0.8286    3.5792   22.2587 C   0  0  0  0  0  0  0  0  0  0  0  0
    1.2551    4.4587   23.3250 C   0  0  0  0  0  0  0  0  0  0  0  0
    2.6033    4.5567   23.6579 O   0  0  0  0  0  0  0  0  0  0  0  0
    0.3029    5.2039   24.0076 N   0  0  0  0  0  0  0  0  0  0  0  0
   -1.0262    5.1110   23.7120 C   0  0  0  0  0  0  0  0  0  0  0  0
   -1.4574    4.3055   22.7286 N   0  0  0  0  0  0  0  0  0  0  0  0
   -1.9959    5.9062   24.4722 N   0  0  0  0  0  0  0  0  0  0  0  0
    8.9651    0.5208   19.0111 C   0  0  0  0  0  0  0  0  0  0  0  0
    9.8972    1.2085   19.4239 O   0  0  0  0  0  0  0  0  0  0  0  0
    9.2072   -0.7348   18.3518 N   0  0  0  0  0  0  0  0  0  0  0  0
  1  2  2  0  0  0  0
  1  6  1  0  0  0  0
  1  7  1  0  0  0  0
  2  3  1  0  0  0  0
  3  4  2  0  0  0  0
  4  5  1  0  0  0  0
  4 20  1  0  0  0  0
  5  6  2  0  0  0  0
  7  8  1  0  0  0  0
  8  9  1  0  0  0  0
  9 10  2  0  0  0  0
  9 13  1  0  0  0  0
 10 11  1  0  0  0  0
 11 12  1  0  0  0  0
 12 13  2  0  0  0  0
 12 18  1  0  0  0  0
 13 14  1  0  0  0  0
 14 15  1  0  0  0  0
 14 16  2  0  0  0  0
 16 17  1  0  0  0  0
 17 18  2  0  0  0  0
 17 19  1  0  0  0  0
 20 21  2  0  0  0  0
 20 22  1  0  0  0  0
M  END
>  <CHROM.1>
25.97005316,-91.82466006,-174.80621687,43.50875152,3.32496766,2.67027813
21.07942187,0.56549949,0.06967023,-2.20001070

>  <Name>
ligand

>  <RI>
0

>  <Rbt.Current_Directory>
/home/itssahil/PROJECTS/Mol_Feturizer/New_Systems/rnas/4LVY

>  <Rbt.Executable>
rbdock ($Id: //depot/dev/client3/rdock/2013.1/src/exe/rbdock.cxx#4 $)

>  <Rbt.Library>
libRbt.so (2013.1, Build901 2013/11/27)

>  <Rbt.Parameter_File>
/export/apps/rDock/src/rDock_2013.1_src/data/scripts/dock_solv.prm

>  <Rbt.Receptor>
prm/pocket_docking_2.prm

>  <SCORE>
-13.9856

>  <SCORE.INTER>
-14.1897

>  <SCORE.INTER.CONST>
1

>  <SCORE.INTER.POLAR>
0

>  <SCORE.INTER.ROT>
4

>  <SCORE.INTER.SOLV>
16.427

>  <SCORE.INTER.VDW>
-21.2022

>  <SCORE.INTER.norm>
-0.644988

>  <SCORE.INTRA>
0.204117

>  <SCORE.INTRA.DIHEDRAL>
0.015011

>  <SCORE.INTRA.DIHEDRAL.0>
6.18831

>  <SCORE.INTRA.POLAR>
0

>  <SCORE.INTRA.POLAR.0>
0

>  <SCORE.INTRA.REPUL>
0

>  <SCORE.INTRA.REPUL.0>
0

>  <SCORE.INTRA.SOLV>
-0.00723494

>  <SCORE.INTRA.SOLV.lig_0>
-44.3465

>  <SCORE.INTRA.VDW>
0.200229

>  <SCORE.INTRA.VDW.0>
-0.778272

>  <SCORE.INTRA.norm>
0.00927806

>  <SCORE.RESTR>
0

>  <SCORE.RESTR.CAVITY>
0

>  <SCORE.RESTR.norm>
0

>  <SCORE.SYSTEM>
0

>  <SCORE.SYSTEM.CONST>
0

>  <SCORE.SYSTEM.DIHEDRAL>
0

>  <SCORE.SYSTEM.SOLV>
0

>  <SCORE.SYSTEM.norm>
0

>  <SCORE.heavy>
22

>  <SCORE.norm>
-0.63571

>  <RMSD>
1.125

$$$$
ligand
 OpenBabel11021811503D
libRbt.so/2013.1/901 2013/11/27
 22 24  0  0  0  0  0  0  0  0999 V2000
    4.9162    1.8540   19.4712 C   0  0  0  0  0  0  0  0  0  0  0  0
    5.6442    2.3007   18.3482 C   0  0  0  0  0  0  0  0  0  0  0  0
    6.9688    1.9025   18.1895 C   0  0  0  0  0  0  0  0  0  0  0  0
    7.5592    1.0633   19.1504 C   0  0  0  0  0  0  0  0  0  0  0  0
    6.8323    0.6216   20.2834 C   0  0  0  0  0  0  0  0  0  0  0  0
    5.5119    1.0203   20.4402 C   0  0  0  0  0  0  0  0  0  0  0  0
    3.4550    2.3000   19.6709 C   0  0  0  0  0  0  0  0  0  0  0  0
    2.9769    2.3344   21.1441 C   0  0  0  0  0  0  0  0  0  0  0  0
    1.4961    2.6591   21.3028 C   0  0  0  0  0  0  0  0  0  0  0  0
    0.4837    2.0826   20.5297 C   0  0  0  0  0  0  0  0  0  0  0  0
   -0.6911    2.6102   20.9626 N   0  0  0  0  0  0  0  0  0  0  0  0
   -0.5132    3.5141   21.9909 C   0  0  0  0  0  0  0  0  0  0  0  0
    0.8532    3.5761   22.2413 C   0  0  0  0  0  0  0  0  0  0  0  0
    1.2928    4.4656   23.2939 C   0  0  0  0  0  0  0  0  0  0  0  0
    2.6456    4.5718   23.6046 O   0  0  0  0  0  0  0  0  0  0  0  0
    0.3483    5.2121   23.9858 N   0  0  0  0  0  0  0  0  0  0  0  0
   -0.9849    5.1113   23.7121 C   0  0  0  0  0  0  0  0  0  0  0  0
   -1.4282    4.2965   22.7419 N   0  0  0  0  0  0  0  0  0  0  0  0
   -1.9458    5.9083   24.4815 N   0  0  0  0  0  0  0  0  0  0  0  0
    8.9947    0.6523   18.9567 C   0  0  0  0  0  0  0  0  0  0  0  0
    9.9047    1.3992   19.3121 O   0  0  0  0  0  0  0  0  0  0  0  0
    9.2770   -0.6194   18.3459 N   0  0  0  0  0  0  0  0  0  0  0  0
  1  2  2  0  0  0  0
  1  6  1  0  0  0  0
  1  7  1  0  0  0  0
  2  3  1  0  0  0  0
  3  4  2  0  0  0  0
  4  5  1  0  0  0  0
  4 20  1  0  0  0  0
  5  6  2  0  0  0  0
  7  8  1  0  0  0  0
  8  9  1  0  0  0  0
  9 10  2  0  0  0  0
  9 13  1  0  0  0  0
 10 11  1  0  0  0  0
 11 12  1  0  0  0  0
 12 13  2  0  0  0  0
 12 18  1  0  0  0  0
 13 14  1  0  0  0  0
 14 15  1  0  0  0  0
 14 16  2  0  0  0  0
 16 17  1  0  0  0  0
 17 18  2  0  0  0  0
 17 19  1  0  0  0  0
 20 21  2  0  0  0  0
 20 22  1  0  0  0  0
M  END
>  <CHROM.1>
-152.76162477,82.95791386,-174.88721352,45.02053811,3.34730521,2.70618674
21.04961736,0.56444660,0.04457354,-2.21790149

>  <Name>
ligand

>  <RI>
0

>  <Rbt.Current_Directory>
/home/itssahil/PROJECTS/Mol_Feturizer/New_Systems/rnas/4LVY

>  <Rbt.Executable>
rbdock ($Id: //depot/dev/client3/rdock/2013.1/src/exe/rbdock.cxx#4 $)

>  <Rbt.Library>
libRbt.so (2013.1, Build901 2013/11/27)

>  <Rbt.Parameter_File>
/export/apps/rDock/src/rDock_2013.1_src/data/scripts/dock_solv.prm

>  <Rbt.Receptor>
prm/pocket_docking_4.prm

>  <SCORE>
-13.6732

>  <SCORE.INTER>
-14.0614

>  <SCORE.INTER.CONST>
1

>  <SCORE.INTER.POLAR>
0

>  <SCORE.INTER.ROT>
4

>  <SCORE.INTER.SOLV>
16.1696

>  <SCORE.INTER.VDW>
-21.0308

>  <SCORE.INTER.norm>
-0.639155

>  <SCORE.INTRA>
0.388197

>  <SCORE.INTRA.DIHEDRAL>
0.215426

>  <SCORE.INTRA.DIHEDRAL.0>
6.18831

>  <SCORE.INTRA.POLAR>
0

>  <SCORE.INTRA.POLAR.0>
0

>  <SCORE.INTRA.REPUL>
0

>  <SCORE.INTRA.REPUL.0>
0

>  <SCORE.INTRA.SOLV>
-0.00760063

>  <SCORE.INTRA.SOLV.lig_0>
-44.3465

>  <SCORE.INTRA.VDW>
0.284285

>  <SCORE.INTRA.VDW.0>
-0.778272

>  <SCORE.INTRA.norm>
0.0176453

>  <SCORE.RESTR>
0

>  <SCORE.RESTR.CAVITY>
0

>  <SCORE.RESTR.norm>
0

>  <SCORE.SYSTEM>
0

>  <SCORE.SYSTEM.CONST>
0

>  <SCORE.SYSTEM.DIHEDRAL>
0

>  <SCORE.SYSTEM.SOLV>
0

>  <SCORE.SYSTEM.norm>
0

>  <SCORE.heavy>
22

>  <SCORE.norm>
-0.621509

>  <RMSD>
1.128

$$$$
ligand
 OpenBabel11021811503D
libRbt.so/2013.1/901 2013/11/27
 22 24  0  0  0  0  0  0  0  0999 V2000
    5.0665    1.1480   20.6641 C   0  0  0  0  0  0  0  0  0  0  0  0
    5.9631    0.3756   21.4322 C   0  0  0  0  0  0  0  0  0  0  0  0
    7.2576    0.1649   20.9649 C   0  0  0  0  0  0  0  0  0  0  0  0
    7.6495    0.7238   19.7361 C   0  0  0  0  0  0  0  0  0  0  0  0
    6.7473    1.4917   18.9593 C   0  0  0  0  0  0  0  0  0  0  0  0
    5.4568    1.7001   19.4265 C   0  0  0  0  0  0  0  0  0  0  0  0
    3.6250    1.3758   21.1584 C   0  0  0  0  0  0  0  0  0  0  0  0
    3.0204    2.7560   20.7988 C   0  0  0  0  0  0  0  0  0  0  0  0
    1.5312    2.8732   21.1022 C   0  0  0  0  0  0  0  0  0  0  0  0
    0.5388    2.1558   20.4274 C   0  0  0  0  0  0  0  0  0  0  0  0
   -0.6506    2.5183   20.9752 N   0  0  0  0  0  0  0  0  0  0  0  0
   -0.5013    3.4460   21.9867 C   0  0  0  0  0  0  0  0  0  0  0  0
    0.8610    3.6991   22.1039 C   0  0  0  0  0  0  0  0  0  0  0  0
    1.2724    4.6490   23.1142 C   0  0  0  0  0  0  0  0  0  0  0  0
    2.6210    4.9445   23.2930 O   0  0  0  0  0  0  0  0  0  0  0  0
    0.3048    5.2624   23.8988 N   0  0  0  0  0  0  0  0  0  0  0  0
   -1.0217    4.9753   23.7549 C   0  0  0  0  0  0  0  0  0  0  0  0
   -1.4392    4.0994   22.8275 N   0  0  0  0  0  0  0  0  0  0  0  0
   -2.0050    5.6370   24.6185 N   0  0  0  0  0  0  0  0  0  0  0  0
    9.0536    0.4756   19.2521 C   0  0  0  0  0  0  0  0  0  0  0  0
   10.0116    0.9261   19.8776 O   0  0  0  0  0  0  0  0  0  0  0  0
    9.2487   -0.2879   18.0484 N   0  0  0  0  0  0  0  0  0  0  0  0
  1  2  2  0  0  0  0
  1  6  1  0  0  0  0
  1  7  1  0  0  0  0
  2  3  1  0  0  0  0
  3  4  2  0  0  0  0
  4  5  1  0  0  0  0
  4 20  1  0  0  0  0
  5  6  2  0  0  0  0
  7  8  1  0  0  0  0
  8  9  1  0  0  0  0
  9 10  2  0  0  0  0
  9 13  1  0  0  0  0
 10 11  1  0  0  0  0
 11 12  1  0  0  0  0
 12 13  2  0  0  0  0
 12 18  1  0  0  0  0
 13 14  1  0  0  0  0
 14 15  1  0  0  0  0
 14 16  2  0  0  0  0
 16 17  1  0  0  0  0
 17 18  2  0  0  0  0
 17 19  1  0  0  0  0
 20 21  2  0  0  0  0
 20 22  1  0  0  0  0
M  END
>  <CHROM.1>
146.02377790,-65.05916451,170.83816252,-67.27521987,3.39179388,2.54360411
21.32287523,0.53802489,0.06587723,-2.29473648

>  <Name>
ligand

>  <RI>
0

>  <Rbt.Current_Directory>
/home/itssahil/PROJECTS/Mol_Feturizer/New_Systems/rnas/4LVY

>  <Rbt.Executable>
rbdock ($Id: //depot/dev/client3/rdock/2013.1/src/exe/rbdock.cxx#4 $)

>  <Rbt.Library>
libRbt.so (2013.1, Build901 2013/11/27)

>  <Rbt.Parameter_File>
/export/apps/rDock/src/rDock_2013.1_src/data/scripts/dock_solv.prm

>  <Rbt.Receptor>
prm/pocket_docking_2.prm

>  <SCORE>
-13.0463

>  <SCORE.INTER>
-13.1554

>  <SCORE.INTER.CONST>
1

>  <SCORE.INTER.POLAR>
0

>  <SCORE.INTER.ROT>
4

>  <SCORE.INTER.SOLV>
16.0551

>  <SCORE.INTER.VDW>
-20.3886

>  <SCORE.INTER.norm>
-0.597973

>  <SCORE.INTRA>
0.109129

>  <SCORE.INTRA.DIHEDRAL>
0.278537

>  <SCORE.INTRA.DIHEDRAL.0>
6.18831

>  <SCORE.INTRA.POLAR>
0

>  <SCORE.INTRA.POLAR.0>
0

>  <SCORE.INTRA.REPUL>
0

>  <SCORE.INTRA.REPUL.0>
0

>  <SCORE.INTRA.SOLV>
0.0663926

>  <SCORE.INTRA.SOLV.lig_0>
-44.3465

>  <SCORE.INTRA.VDW>
-0.0633357

>  <SCORE.INTRA.VDW.0>
-0.778272

>  <SCORE.INTRA.norm>
0.0049604

>  <SCORE.RESTR>
0

>  <SCORE.RESTR.CAVITY>
0

>  <SCORE.RESTR.norm>
0

>  <SCORE.SYSTEM>
0

>  <SCORE.SYSTEM.CONST>
0

>  <SCORE.SYSTEM.DIHEDRAL>
0

>  <SCORE.SYSTEM.SOLV>
0

>  <SCORE.SYSTEM.norm>
0

>  <SCORE.heavy>
22

>  <SCORE.norm>
-0.593012

>  <RMSD>
1.151

$$$$
ligand
 OpenBabel11021811503D
libRbt.so/2013.1/901 2013/11/27
 22 24  0  0  0  0  0  0  0  0999 V2000
    4.9997    1.8365   19.6101 C   0  0  0  0  0  0  0  0  0  0  0  0
    5.7400    2.1675   18.4555 C   0  0  0  0  0  0  0  0  0  0  0  0
    7.0138    1.6327   18.2835 C   0  0  0  0  0  0  0  0  0  0  0  0
    7.5416    0.7730   19.2626 C   0  0  0  0  0  0  0  0  0  0  0  0
    6.8032    0.4474   20.4269 C   0  0  0  0  0  0  0  0  0  0  0  0
    5.5335    0.9822   20.5970 C   0  0  0  0  0  0  0  0  0  0  0  0
    3.5957    2.4342   19.8242 C   0  0  0  0  0  0  0  0  0  0  0  0
    2.8266    1.8757   21.0475 C   0  0  0  0  0  0  0  0  0  0  0  0
    1.4251    2.4531   21.2089 C   0  0  0  0  0  0  0  0  0  0  0  0
    0.3305    2.0749   20.4255 C   0  0  0  0  0  0  0  0  0  0  0  0
   -0.7353    2.7942   20.8645 N   0  0  0  0  0  0  0  0  0  0  0  0
   -0.4057    3.6375   21.9068 C   0  0  0  0  0  0  0  0  0  0  0  0
    0.9493    3.4548   22.1602 C   0  0  0  0  0  0  0  0  0  0  0  0
    1.5337    4.2376   23.2270 C   0  0  0  0  0  0  0  0  0  0  0  0
    2.8829    4.0999   23.5414 O   0  0  0  0  0  0  0  0  0  0  0  0
    0.7322    5.1281   23.9288 N   0  0  0  0  0  0  0  0  0  0  0  0
   -0.5969    5.2671   23.6515 C   0  0  0  0  0  0  0  0  0  0  0  0
   -1.1723    4.5572   22.6683 N   0  0  0  0  0  0  0  0  0  0  0  0
   -1.4062    6.2090   24.4315 N   0  0  0  0  0  0  0  0  0  0  0  0
    8.9237    0.2131   19.0538 C   0  0  0  0  0  0  0  0  0  0  0  0
    9.2620   -0.2006   17.9463 O   0  0  0  0  0  0  0  0  0  0  0  0
    9.8304    0.1665   20.1699 N   0  0  0  0  0  0  0  0  0  0  0  0
  1  2  2  0  0  0  0
  1  6  1  0  0  0  0
  1  7  1  0  0  0  0
  2  3  1  0  0  0  0
  3  4  2  0  0  0  0
  4  5  1  0  0  0  0
  4 20  1  0  0  0  0
  5  6  2  0  0  0  0
  7  8  1  0  0  0  0
  8  9  1  0  0  0  0
  9 10  2  0  0  0  0
  9 13  1  0  0  0  0
 10 11  1  0  0  0  0
 11 12  1  0  0  0  0
 12 13  2  0  0  0  0
 12 18  1  0  0  0  0
 13 14  1  0  0  0  0
 14 15  1  0  0  0  0
 14 16  2  0  0  0  0
 16 17  1  0  0  0  0
 17 18  2  0  0  0  0
 17 19  1  0  0  0  0
 20 21  2  0  0  0  0
 20 22  1  0  0  0  0
M  END
>  <CHROM.1>
173.64601248,-42.89881393,-178.19906747,76.17841104,3.43772830,2.57620940
21.06319792,0.56729096,0.15666547,-2.12449566

>  <Name>
ligand

>  <RI>
0

>  <Rbt.Current_Directory>
/home/itssahil/PROJECTS/Mol_Feturizer/New_Systems/rnas/4LVY

>  <Rbt.Executable>
rbdock ($Id: //depot/dev/client3/rdock/2013.1/src/exe/rbdock.cxx#4 $)

>  <Rbt.Library>
libRbt.so (2013.1, Build901 2013/11/27)

>  <Rbt.Parameter_File>
/export/apps/rDock/src/rDock_2013.1_src/data/scripts/dock_solv.prm

>  <Rbt.Receptor>
prm/pocket_docking_3.prm

>  <SCORE>
-13.4369

>  <SCORE.INTER>
-13.886

>  <SCORE.INTER.CONST>
1

>  <SCORE.INTER.POLAR>
0

>  <SCORE.INTER.ROT>
4

>  <SCORE.INTER.SOLV>
15.2379

>  <SCORE.INTER.VDW>
-20.6033

>  <SCORE.INTER.norm>
-0.631181

>  <SCORE.INTRA>
0.449054

>  <SCORE.INTRA.DIHEDRAL>
0.0507979

>  <SCORE.INTRA.DIHEDRAL.0>
6.18831

>  <SCORE.INTRA.POLAR>
0

>  <SCORE.INTRA.POLAR.0>
0

>  <SCORE.INTRA.REPUL>
0

>  <SCORE.INTRA.REPUL.0>
0

>  <SCORE.INTRA.SOLV>
0.101786

>  <SCORE.INTRA.SOLV.lig_0>
-44.3465

>  <SCORE.INTRA.VDW>
0.372762

>  <SCORE.INTRA.VDW.0>
-0.778272

>  <SCORE.INTRA.norm>
0.0204115

>  <SCORE.RESTR>
0

>  <SCORE.RESTR.CAVITY>
0

>  <SCORE.RESTR.norm>
0

>  <SCORE.SYSTEM>
0

>  <SCORE.SYSTEM.CONST>
0

>  <SCORE.SYSTEM.DIHEDRAL>
0

>  <SCORE.SYSTEM.SOLV>
0

>  <SCORE.SYSTEM.norm>
0

>  <SCORE.heavy>
22

>  <SCORE.norm>
-0.610769

>  <RMSD>
1.154

$$$$
ligand
 OpenBabel11021811503D
libRbt.so/2013.1/901 2013/11/27
 22 24  0  0  0  0  0  0  0  0999 V2000
    5.0085    1.3546   20.7155 C   0  0  0  0  0  0  0  0  0  0  0  0
    5.9521    0.5181   21.3483 C   0  0  0  0  0  0  0  0  0  0  0  0
    7.1235    0.1785   20.6768 C   0  0  0  0  0  0  0  0  0  0  0  0
    7.3464    0.6735   19.3801 C   0  0  0  0  0  0  0  0  0  0  0  0
    6.3954    1.5057   18.7399 C   0  0  0  0  0  0  0  0  0  0  0  0
    5.2277    1.8427   19.4108 C   0  0  0  0  0  0  0  0  0  0  0  0
    3.6989    1.7253   21.4379 C   0  0  0  0  0  0  0  0  0  0  0  0
    3.0770    3.0786   21.0116 C   0  0  0  0  0  0  0  0  0  0  0  0
    1.5703    3.1584   21.2279 C   0  0  0  0  0  0  0  0  0  0  0  0
    0.6331    2.4700   20.4515 C   0  0  0  0  0  0  0  0  0  0  0  0
   -0.5934    2.7841   20.9444 N   0  0  0  0  0  0  0  0  0  0  0  0
   -0.5219    3.6516   22.0161 C   0  0  0  0  0  0  0  0  0  0  0  0
    0.8263    3.9145   22.2327 C   0  0  0  0  0  0  0  0  0  0  0  0
    1.1592    4.8075   23.3208 C   0  0  0  0  0  0  0  0  0  0  0  0
    2.4892    5.1089   23.6004 O   0  0  0  0  0  0  0  0  0  0  0  0
    0.1352    5.3606   24.0782 N   0  0  0  0  0  0  0  0  0  0  0  0
   -1.1750    5.0658   23.8354 C   0  0  0  0  0  0  0  0  0  0  0  0
   -1.5203    4.2416   22.8337 N   0  0  0  0  0  0  0  0  0  0  0  0
   -2.2203    5.6621   24.6733 N   0  0  0  0  0  0  0  0  0  0  0  0
    8.6192    0.2861   18.6750 C   0  0  0  0  0  0  0  0  0  0  0  0
    9.2742    1.1341   18.0717 O   0  0  0  0  0  0  0  0  0  0  0  0
    9.0458   -1.0874   18.7160 N   0  0  0  0  0  0  0  0  0  0  0  0
  1  2  2  0  0  0  0
  1  6  1  0  0  0  0
  1  7  1  0  0  0  0
  2  3  1  0  0  0  0
  3  4  2  0  0  0  0
  4  5  1  0  0  0  0
  4 20  1  0  0  0  0
  5  6  2  0  0  0  0
  7  8  1  0  0  0  0
  8  9  1  0  0  0  0
  9 10  2  0  0  0  0
  9 13  1  0  0  0  0
 10 11  1  0  0  0  0
 11 12  1  0  0  0  0
 12 13  2  0  0  0  0
 12 18  1  0  0  0  0
 13 14  1  0  0  0  0
 14 15  1  0  0  0  0
 14 16  2  0  0  0  0
 16 17  1  0  0  0  0
 17 18  2  0  0  0  0
 17 19  1  0  0  0  0
 20 21  2  0  0  0  0
 20 22  1  0  0  0  0
M  END
>  <CHROM.1>
152.88145559,-135.32664366,154.54078825,-72.09893798,3.24792251,2.64921492
21.26866833,-0.59965946,-0.08725046,0.89905770

>  <Name>
ligand

>  <RI>
0

>  <Rbt.Current_Directory>
/home/itssahil/PROJECTS/Mol_Feturizer/New_Systems/rnas/4LVY

>  <Rbt.Executable>
rbdock ($Id: //depot/dev/client3/rdock/2013.1/src/exe/rbdock.cxx#4 $)

>  <Rbt.Library>
libRbt.so (2013.1, Build901 2013/11/27)

>  <Rbt.Parameter_File>
/export/apps/rDock/src/rDock_2013.1_src/data/scripts/dock_solv.prm

>  <Rbt.Receptor>
prm/pocket_docking_2.prm

>  <SCORE>
-11.5004

>  <SCORE.INTER>
-12.7733

>  <SCORE.INTER.CONST>
1

>  <SCORE.INTER.POLAR>
0

>  <SCORE.INTER.ROT>
4

>  <SCORE.INTER.SOLV>
17.0612

>  <SCORE.INTER.VDW>
-20.4692

>  <SCORE.INTER.norm>
-0.580602

>  <SCORE.INTRA>
1.27283

>  <SCORE.INTRA.DIHEDRAL>
2.29135

>  <SCORE.INTRA.DIHEDRAL.0>
6.18831

>  <SCORE.INTRA.POLAR>
0

>  <SCORE.INTRA.POLAR.0>
0

>  <SCORE.INTRA.REPUL>
0

>  <SCORE.INTRA.REPUL.0>
0

>  <SCORE.INTRA.SOLV>
0.0909063

>  <SCORE.INTRA.SOLV.lig_0>
-44.3465

>  <SCORE.INTRA.VDW>
0.0817003

>  <SCORE.INTRA.VDW.0>
-0.778272

>  <SCORE.INTRA.norm>
0.0578558

>  <SCORE.RESTR>
0

>  <SCORE.RESTR.CAVITY>
0

>  <SCORE.RESTR.norm>
0

>  <SCORE.SYSTEM>
0

>  <SCORE.SYSTEM.CONST>
0

>  <SCORE.SYSTEM.DIHEDRAL>
0

>  <SCORE.SYSTEM.SOLV>
0

>  <SCORE.SYSTEM.norm>
0

>  <SCORE.heavy>
22

>  <SCORE.norm>
-0.522747

>  <RMSD>
1.158

$$$$
ligand
 OpenBabel11021811503D
libRbt.so/2013.1/901 2013/11/27
 22 24  0  0  0  0  0  0  0  0999 V2000
    5.0523    1.8161   19.8919 C   0  0  0  0  0  0  0  0  0  0  0  0
    5.5776    0.9207   20.8473 C   0  0  0  0  0  0  0  0  0  0  0  0
    6.7885    0.2825   20.5930 C   0  0  0  0  0  0  0  0  0  0  0  0
    7.4671    0.5398   19.3890 C   0  0  0  0  0  0  0  0  0  0  0  0
    6.9360    1.4314   18.4246 C   0  0  0  0  0  0  0  0  0  0  0  0
    5.7281    2.0662   18.6797 C   0  0  0  0  0  0  0  0  0  0  0  0
    3.7045    2.5169   20.1501 C   0  0  0  0  0  0  0  0  0  0  0  0
    2.7076    1.7158   21.0244 C   0  0  0  0  0  0  0  0  0  0  0  0
    1.3605    2.4047   21.2095 C   0  0  0  0  0  0  0  0  0  0  0  0
    0.2286    2.1251   20.4377 C   0  0  0  0  0  0  0  0  0  0  0  0
   -0.7688    2.9252   20.8972 N   0  0  0  0  0  0  0  0  0  0  0  0
   -0.3577    3.7287   21.9419 C   0  0  0  0  0  0  0  0  0  0  0  0
    0.9808    3.4330   22.1755 C   0  0  0  0  0  0  0  0  0  0  0  0
    1.6411    4.1550   23.2409 C   0  0  0  0  0  0  0  0  0  0  0  0
    2.9783    3.9041   23.5359 O   0  0  0  0  0  0  0  0  0  0  0  0
    0.9245    5.1016   23.9609 N   0  0  0  0  0  0  0  0  0  0  0  0
   -0.3921    5.3518   23.7027 C   0  0  0  0  0  0  0  0  0  0  0  0
   -1.0364    4.7010   22.7214 N   0  0  0  0  0  0  0  0  0  0  0  0
   -1.1112    6.3496   24.5014 N   0  0  0  0  0  0  0  0  0  0  0  0
    8.7720   -0.1681   19.1373 C   0  0  0  0  0  0  0  0  0  0  0  0
    8.7775   -1.3394   18.7631 O   0  0  0  0  0  0  0  0  0  0  0  0
   10.0024    0.5471   19.3488 N   0  0  0  0  0  0  0  0  0  0  0  0
  1  2  2  0  0  0  0
  1  6  1  0  0  0  0
  1  7  1  0  0  0  0
  2  3  1  0  0  0  0
  3  4  2  0  0  0  0
  4  5  1  0  0  0  0
  4 20  1  0  0  0  0
  5  6  2  0  0  0  0
  7  8  1  0  0  0  0
  8  9  1  0  0  0  0
  9 10  2  0  0  0  0
  9 13  1  0  0  0  0
 10 11  1  0  0  0  0
 11 12  1  0  0  0  0
 12 13  2  0  0  0  0
 12 18  1  0  0  0  0
 13 14  1  0  0  0  0
 14 15  1  0  0  0  0
 14 16  2  0  0  0  0
 16 17  1  0  0  0  0
 17 18  2  0  0  0  0
 17 19  1  0  0  0  0
 20 21  2  0  0  0  0
 20 22  1  0  0  0  0
M  END
>  <CHROM.1>
-29.59687608,78.59577141,-177.33393664,96.63502181,3.45237196,2.48972646
21.15120971,0.59806137,0.13568407,-2.22719387

>  <Name>
ligand

>  <RI>
0

>  <Rbt.Current_Directory>
/home/itssahil/PROJECTS/Mol_Feturizer/New_Systems/rnas/4LVY

>  <Rbt.Executable>
rbdock ($Id: //depot/dev/client3/rdock/2013.1/src/exe/rbdock.cxx#4 $)

>  <Rbt.Library>
libRbt.so (2013.1, Build901 2013/11/27)

>  <Rbt.Parameter_File>
/export/apps/rDock/src/rDock_2013.1_src/data/scripts/dock_solv.prm

>  <Rbt.Receptor>
prm/pocket_docking_4.prm

>  <SCORE>
-13.3355

>  <SCORE.INTER>
-13.2682

>  <SCORE.INTER.CONST>
1

>  <SCORE.INTER.POLAR>
0

>  <SCORE.INTER.ROT>
4

>  <SCORE.INTER.SOLV>
15.0502

>  <SCORE.INTER.VDW>
-20.1289

>  <SCORE.INTER.norm>
-0.603101

>  <SCORE.INTRA>
-0.0672815

>  <SCORE.INTRA.DIHEDRAL>
0.176971

>  <SCORE.INTRA.DIHEDRAL.0>
6.18831

>  <SCORE.INTRA.POLAR>
0

>  <SCORE.INTRA.POLAR.0>
0

>  <SCORE.INTRA.REPUL>
0

>  <SCORE.INTRA.REPUL.0>
0

>  <SCORE.INTRA.SOLV>
0.178061

>  <SCORE.INTRA.SOLV.lig_0>
-44.3465

>  <SCORE.INTRA.VDW>
-0.244798

>  <SCORE.INTRA.VDW.0>
-0.778272

>  <SCORE.INTRA.norm>
-0.00305825

>  <SCORE.RESTR>
0

>  <SCORE.RESTR.CAVITY>
0

>  <SCORE.RESTR.norm>
0

>  <SCORE.SYSTEM>
0

>  <SCORE.SYSTEM.CONST>
0

>  <SCORE.SYSTEM.DIHEDRAL>
0

>  <SCORE.SYSTEM.SOLV>
0

>  <SCORE.SYSTEM.norm>
0

>  <SCORE.heavy>
22

>  <SCORE.norm>
-0.606159

>  <RMSD>
1.161

$$$$
ligand
 OpenBabel11021811503D
libRbt.so/2013.1/901 2013/11/27
 22 24  0  0  0  0  0  0  0  0999 V2000
    5.0049    1.8544   19.6096 C   0  0  0  0  0  0  0  0  0  0  0  0
    5.5520    0.9702   20.5632 C   0  0  0  0  0  0  0  0  0  0  0  0
    6.8192    0.4341   20.3506 C   0  0  0  0  0  0  0  0  0  0  0  0
    7.5319    0.7815   19.1898 C   0  0  0  0  0  0  0  0  0  0  0  0
    6.9798    1.6618   18.2269 C   0  0  0  0  0  0  0  0  0  0  0  0
    5.7159    2.1948   18.4403 C   0  0  0  0  0  0  0  0  0  0  0  0
    3.5964    2.4424   19.8211 C   0  0  0  0  0  0  0  0  0  0  0  0
    2.8337    1.8876   21.0501 C   0  0  0  0  0  0  0  0  0  0  0  0
    1.4303    2.4600   21.2129 C   0  0  0  0  0  0  0  0  0  0  0  0
    0.3360    2.0768   20.4316 C   0  0  0  0  0  0  0  0  0  0  0  0
   -0.7318    2.7926   20.8714 N   0  0  0  0  0  0  0  0  0  0  0  0
   -0.4038    3.6384   21.9122 C   0  0  0  0  0  0  0  0  0  0  0  0
    0.9522    3.4610   22.1638 C   0  0  0  0  0  0  0  0  0  0  0  0
    1.5354    4.2472   23.2288 C   0  0  0  0  0  0  0  0  0  0  0  0
    2.8855    4.1149   23.5413 O   0  0  0  0  0  0  0  0  0  0  0  0
    0.7315    5.1355   23.9307 N   0  0  0  0  0  0  0  0  0  0  0  0
   -0.5984    5.2693   23.6553 C   0  0  0  0  0  0  0  0  0  0  0  0
   -1.1727    4.5561   22.6737 N   0  0  0  0  0  0  0  0  0  0  0  0
   -1.4100    6.2091   24.4354 N   0  0  0  0  0  0  0  0  0  0  0  0
    8.8979    0.1830   18.9825 C   0  0  0  0  0  0  0  0  0  0  0  0
    9.6743    0.0721   19.9296 O   0  0  0  0  0  0  0  0  0  0  0  0
    9.2751   -0.2468   17.6622 N   0  0  0  0  0  0  0  0  0  0  0  0
  1  2  2  0  0  0  0
  1  6  1  0  0  0  0
  1  7  1  0  0  0  0
  2  3  1  0  0  0  0
  3  4  2  0  0  0  0
  4  5  1  0  0  0  0
  4 20  1  0  0  0  0
  5  6  2  0  0  0  0
  7  8  1  0  0  0  0
  8  9  1  0  0  0  0
  9 10  2  0  0  0  0
  9 13  1  0  0  0  0
 10 11  1  0  0  0  0
 11 12  1  0  0  0  0
 12 13  2  0  0  0  0
 12 18  1  0  0  0  0
 13 14  1  0  0  0  0
 14 15  1  0  0  0  0
 14 16  2  0  0  0  0
 16 17  1  0  0  0  0
 17 18  2  0  0  0  0
 17 19  1  0  0  0  0
 20 21  2  0  0  0  0
 20 22  1  0  0  0  0
M  END
>  <CHROM.1>
-5.31104968,-40.64119334,-178.47961165,75.90164385,3.43243741,2.57560638
21.03952760,0.57623103,0.15529149,-2.12279943

>  <Name>
ligand

>  <RI>
0

>  <Rbt.Current_Directory>
/home/itssahil/PROJECTS/Mol_Feturizer/New_Systems/rnas/4LVY

>  <Rbt.Executable>
rbdock ($Id: //depot/dev/client3/rdock/2013.1/src/exe/rbdock.cxx#4 $)

>  <Rbt.Library>
libRbt.so (2013.1, Build901 2013/11/27)

>  <Rbt.Parameter_File>
/export/apps/rDock/src/rDock_2013.1_src/data/scripts/dock_solv.prm

>  <Rbt.Receptor>
prm/pocket_docking_3.prm

>  <SCORE>
-13.476

>  <SCORE.INTER>
-13.8616

>  <SCORE.INTER.CONST>
1

>  <SCORE.INTER.POLAR>
0

>  <SCORE.INTER.ROT>
4

>  <SCORE.INTER.SOLV>
15.4282

>  <SCORE.INTER.VDW>
-20.6505

>  <SCORE.INTER.norm>
-0.630074

>  <SCORE.INTRA>
0.385672

>  <SCORE.INTRA.DIHEDRAL>
0.09917

>  <SCORE.INTRA.DIHEDRAL.0>
6.18831

>  <SCORE.INTRA.POLAR>
0

>  <SCORE.INTRA.POLAR.0>
0

>  <SCORE.INTRA.REPUL>
0

>  <SCORE.INTRA.REPUL.0>
0

>  <SCORE.INTRA.SOLV>
0.101489

>  <SCORE.INTRA.SOLV.lig_0>
-44.3465

>  <SCORE.INTRA.VDW>
0.285343

>  <SCORE.INTRA.VDW.0>
-0.778272

>  <SCORE.INTRA.norm>
0.0175306

>  <SCORE.RESTR>
0

>  <SCORE.RESTR.CAVITY>
0

>  <SCORE.RESTR.norm>
0

>  <SCORE.SYSTEM>
0

>  <SCORE.SYSTEM.CONST>
0

>  <SCORE.SYSTEM.DIHEDRAL>
0

>  <SCORE.SYSTEM.SOLV>
0

>  <SCORE.SYSTEM.norm>
0

>  <SCORE.heavy>
22

>  <SCORE.norm>
-0.612544

>  <RMSD>
1.182

$$$$
ligand
 OpenBabel11021811503D
libRbt.so/2013.1/901 2013/11/27
 22 24  0  0  0  0  0  0  0  0999 V2000
    5.0889    1.1190   20.7973 C   0  0  0  0  0  0  0  0  0  0  0  0
    5.5333    1.6275   19.5585 C   0  0  0  0  0  0  0  0  0  0  0  0
    6.7903    1.2652   19.0820 C   0  0  0  0  0  0  0  0  0  0  0  0
    7.5960    0.4001   19.8427 C   0  0  0  0  0  0  0  0  0  0  0  0
    7.1549   -0.1037   21.0911 C   0  0  0  0  0  0  0  0  0  0  0  0
    5.9015    0.2592   21.5648 C   0  0  0  0  0  0  0  0  0  0  0  0
    3.7078    1.5243   21.3472 C   0  0  0  0  0  0  0  0  0  0  0  0
    2.8745    2.4378   20.4139 C   0  0  0  0  0  0  0  0  0  0  0  0
    1.4684    2.7237   20.9283 C   0  0  0  0  0  0  0  0  0  0  0  0
    0.3168    2.0993   20.4394 C   0  0  0  0  0  0  0  0  0  0  0  0
   -0.7323    2.6034   21.1403 N   0  0  0  0  0  0  0  0  0  0  0  0
   -0.3371    3.5374   22.0771 C   0  0  0  0  0  0  0  0  0  0  0  0
    1.0459    3.6449   21.9808 C   0  0  0  0  0  0  0  0  0  0  0  0
    1.7009    4.5726   22.8768 C   0  0  0  0  0  0  0  0  0  0  0  0
    3.0842    4.7253   22.8414 O   0  0  0  0  0  0  0  0  0  0  0  0
    0.9315    5.3086   23.7679 N   0  0  0  0  0  0  0  0  0  0  0  0
   -0.4239    5.1628   23.8341 C   0  0  0  0  0  0  0  0  0  0  0  0
   -1.0647    4.3116   23.0177 N   0  0  0  0  0  0  0  0  0  0  0  0
   -1.1919    5.9507   24.8035 N   0  0  0  0  0  0  0  0  0  0  0  0
    8.9530    0.0289   19.3061 C   0  0  0  0  0  0  0  0  0  0  0  0
    9.0815   -0.9512   18.5748 O   0  0  0  0  0  0  0  0  0  0  0  0
   10.0880    0.8350   19.6697 N   0  0  0  0  0  0  0  0  0  0  0  0
  1  2  2  0  0  0  0
  1  6  1  0  0  0  0
  1  7  1  0  0  0  0
  2  3  1  0  0  0  0
  3  4  2  0  0  0  0
  4  5  1  0  0  0  0
  4 20  1  0  0  0  0
  5  6  2  0  0  0  0
  7  8  1  0  0  0  0
  8  9  1  0  0  0  0
  9 10  2  0  0  0  0
  9 13  1  0  0  0  0
 10 11  1  0  0  0  0
 11 12  1  0  0  0  0
 12 13  2  0  0  0  0
 12 18  1  0  0  0  0
 13 14  1  0  0  0  0
 14 15  1  0  0  0  0
 14 16  2  0  0  0  0
 16 17  1  0  0  0  0
 17 18  2  0  0  0  0
 17 19  1  0  0  0  0
 20 21  2  0  0  0  0
 20 22  1  0  0  0  0
M  END
>  <CHROM.1>
2.93963383,-89.22693147,174.98842673,-102.56518305,3.52683103,2.44053703
21.33364578,0.57755803,0.07529250,-2.35604417

>  <Name>
ligand

>  <RI>
0

>  <Rbt.Current_Directory>
/home/itssahil/PROJECTS/Mol_Feturizer/New_Systems/rnas/4LVY

>  <Rbt.Executable>
rbdock ($Id: //depot/dev/client3/rdock/2013.1/src/exe/rbdock.cxx#4 $)

>  <Rbt.Library>
libRbt.so (2013.1, Build901 2013/11/27)

>  <Rbt.Parameter_File>
/export/apps/rDock/src/rDock_2013.1_src/data/scripts/dock_solv.prm

>  <Rbt.Receptor>
prm/pocket_docking_4.prm

>  <SCORE>
-12.3899

>  <SCORE.INTER>
-12.5545

>  <SCORE.INTER.CONST>
1

>  <SCORE.INTER.POLAR>
0

>  <SCORE.INTER.ROT>
4

>  <SCORE.INTER.SOLV>
14.706

>  <SCORE.INTER.VDW>
-19.5383

>  <SCORE.INTER.norm>
-0.57066

>  <SCORE.INTRA>
0.164566

>  <SCORE.INTRA.DIHEDRAL>
0.0716833

>  <SCORE.INTRA.DIHEDRAL.0>
6.18831

>  <SCORE.INTRA.POLAR>
0

>  <SCORE.INTRA.POLAR.0>
0

>  <SCORE.INTRA.REPUL>
0

>  <SCORE.INTRA.REPUL.0>
0

>  <SCORE.INTRA.SOLV>
0.209744

>  <SCORE.INTRA.SOLV.lig_0>
-44.3465

>  <SCORE.INTRA.VDW>
0.0238522

>  <SCORE.INTRA.VDW.0>
-0.778272

>  <SCORE.INTRA.norm>
0.00748026

>  <SCORE.RESTR>
0

>  <SCORE.RESTR.CAVITY>
0

>  <SCORE.RESTR.norm>
0

>  <SCORE.SYSTEM>
0

>  <SCORE.SYSTEM.CONST>
0

>  <SCORE.SYSTEM.DIHEDRAL>
0

>  <SCORE.SYSTEM.SOLV>
0

>  <SCORE.SYSTEM.norm>
0

>  <SCORE.heavy>
22

>  <SCORE.norm>
-0.563179

>  <RMSD>
1.188

$$$$
ligand
 OpenBabel11021811503D
libRbt.so/2013.1/901 2013/11/27
 22 24  0  0  0  0  0  0  0  0999 V2000
    5.1765    1.9677   19.9716 C   0  0  0  0  0  0  0  0  0  0  0  0
    5.6664    2.2965   18.6900 C   0  0  0  0  0  0  0  0  0  0  0  0
    6.8221    1.6782   18.2205 C   0  0  0  0  0  0  0  0  0  0  0  0
    7.4820    0.7378   19.0307 C   0  0  0  0  0  0  0  0  0  0  0  0
    6.9965    0.4137   20.3215 C   0  0  0  0  0  0  0  0  0  0  0  0
    5.8444    1.0319   20.7881 C   0  0  0  0  0  0  0  0  0  0  0  0
    3.9089    2.6562   20.5132 C   0  0  0  0  0  0  0  0  0  0  0  0
    2.7880    1.6923   20.9762 C   0  0  0  0  0  0  0  0  0  0  0  0
    1.4374    2.3702   21.1758 C   0  0  0  0  0  0  0  0  0  0  0  0
    0.2958    2.0708   20.4262 C   0  0  0  0  0  0  0  0  0  0  0  0
   -0.7018    2.8664   20.8931 N   0  0  0  0  0  0  0  0  0  0  0  0
   -0.2814    3.6858   21.9218 C   0  0  0  0  0  0  0  0  0  0  0  0
    1.0636    3.4058   22.1364 C   0  0  0  0  0  0  0  0  0  0  0  0
    1.7343    4.1463   23.1824 C   0  0  0  0  0  0  0  0  0  0  0  0
    3.0786    3.9118   23.4579 O   0  0  0  0  0  0  0  0  0  0  0  0
    1.0203    5.0941   23.9034 N   0  0  0  0  0  0  0  0  0  0  0  0
   -0.3027    5.3286   23.6644 C   0  0  0  0  0  0  0  0  0  0  0  0
   -0.9567    4.6603   22.7014 N   0  0  0  0  0  0  0  0  0  0  0  0
   -1.0184    6.3284   24.4637 N   0  0  0  0  0  0  0  0  0  0  0  0
    8.7326    0.0883   18.5002 C   0  0  0  0  0  0  0  0  0  0  0  0
    8.6797   -1.0290   17.9894 O   0  0  0  0  0  0  0  0  0  0  0  0
    9.9817    0.7940   18.6088 N   0  0  0  0  0  0  0  0  0  0  0  0
  1  2  2  0  0  0  0
  1  6  1  0  0  0  0
  1  7  1  0  0  0  0
  2  3  1  0  0  0  0
  3  4  2  0  0  0  0
  4  5  1  0  0  0  0
  4 20  1  0  0  0  0
  5  6  2  0  0  0  0
  7  8  1  0  0  0  0
  8  9  1  0  0  0  0
  9 10  2  0  0  0  0
  9 13  1  0  0  0  0
 10 11  1  0  0  0  0
 11 12  1  0  0  0  0
 12 13  2  0  0  0  0
 12 18  1  0  0  0  0
 13 14  1  0  0  0  0
 14 15  1  0  0  0  0
 14 16  2  0  0  0  0
 16 17  1  0  0  0  0
 17 18  2  0  0  0  0
 17 19  1  0  0  0  0
 20 21  2  0  0  0  0
 20 22  1  0  0  0  0
M  END
>  <CHROM.1>
125.55375263,-98.26131174,-165.58714300,116.49030359,3.51898271,2.56660292
21.00810026,-0.62346162,-0.05920547,0.88580440

>  <Name>
ligand

>  <RI>
0

>  <Rbt.Current_Directory>
/home/itssahil/PROJECTS/Mol_Feturizer/New_Systems/rnas/4LVY

>  <Rbt.Executable>
rbdock ($Id: //depot/dev/client3/rdock/2013.1/src/exe/rbdock.cxx#4 $)

>  <Rbt.Library>
libRbt.so (2013.1, Build901 2013/11/27)

>  <Rbt.Parameter_File>
/export/apps/rDock/src/rDock_2013.1_src/data/scripts/dock_solv.prm

>  <Rbt.Receptor>
prm/pocket_docking_2.prm

>  <SCORE>
-12.4837

>  <SCORE.INTER>
-12.452

>  <SCORE.INTER.CONST>
1

>  <SCORE.INTER.POLAR>
0

>  <SCORE.INTER.ROT>
4

>  <SCORE.INTER.SOLV>
14.7926

>  <SCORE.INTER.VDW>
-19.4989

>  <SCORE.INTER.norm>
-0.566001

>  <SCORE.INTRA>
-0.0316476

>  <SCORE.INTRA.DIHEDRAL>
0.814732

>  <SCORE.INTRA.DIHEDRAL.0>
6.18831

>  <SCORE.INTRA.POLAR>
0

>  <SCORE.INTRA.POLAR.0>
0

>  <SCORE.INTRA.REPUL>
0

>  <SCORE.INTRA.REPUL.0>
0

>  <SCORE.INTRA.SOLV>
0.271118

>  <SCORE.INTRA.SOLV.lig_0>
-44.3465

>  <SCORE.INTRA.VDW>
-0.574573

>  <SCORE.INTRA.VDW.0>
-0.778272

>  <SCORE.INTRA.norm>
-0.00143853

>  <SCORE.RESTR>
0

>  <SCORE.RESTR.CAVITY>
0

>  <SCORE.RESTR.norm>
0

>  <SCORE.SYSTEM>
0

>  <SCORE.SYSTEM.CONST>
0

>  <SCORE.SYSTEM.DIHEDRAL>
0

>  <SCORE.SYSTEM.SOLV>
0

>  <SCORE.SYSTEM.norm>
0

>  <SCORE.heavy>
22

>  <SCORE.norm>
-0.56744

>  <RMSD>
1.214

$$$$
ligand
 OpenBabel11021811503D
libRbt.so/2013.1/901 2013/11/27
 22 24  0  0  0  0  0  0  0  0999 V2000
    5.1189    1.1725   20.8238 C   0  0  0  0  0  0  0  0  0  0  0  0
    5.8909    0.2281   21.5328 C   0  0  0  0  0  0  0  0  0  0  0  0
    7.1133   -0.1861   21.0107 C   0  0  0  0  0  0  0  0  0  0  0  0
    7.5577    0.3425   19.7862 C   0  0  0  0  0  0  0  0  0  0  0  0
    6.7792    1.2837   19.0686 C   0  0  0  0  0  0  0  0  0  0  0  0
    5.5603    1.6948   19.5905 C   0  0  0  0  0  0  0  0  0  0  0  0
    3.7556    1.6278   21.3791 C   0  0  0  0  0  0  0  0  0  0  0  0
    2.8428    2.3529   20.3589 C   0  0  0  0  0  0  0  0  0  0  0  0
    1.4555    2.6803   20.8988 C   0  0  0  0  0  0  0  0  0  0  0  0
    0.2800    2.0699   20.4510 C   0  0  0  0  0  0  0  0  0  0  0  0
   -0.7416    2.6120   21.1642 N   0  0  0  0  0  0  0  0  0  0  0  0
   -0.3051    3.5580   22.0700 C   0  0  0  0  0  0  0  0  0  0  0  0
    1.0772    3.6336   21.9394 C   0  0  0  0  0  0  0  0  0  0  0  0
    1.7724    4.5668   22.7986 C   0  0  0  0  0  0  0  0  0  0  0  0
    3.1573    4.6891   22.7280 O   0  0  0  0  0  0  0  0  0  0  0  0
    1.0396    5.3390   23.6902 N   0  0  0  0  0  0  0  0  0  0  0  0
   -0.3165    5.2237   23.7909 C   0  0  0  0  0  0  0  0  0  0  0  0
   -0.9941    4.3685   23.0091 N   0  0  0  0  0  0  0  0  0  0  0  0
   -1.0450    6.0494   24.7595 N   0  0  0  0  0  0  0  0  0  0  0  0
    8.8809   -0.1269   19.2420 C   0  0  0  0  0  0  0  0  0  0  0  0
    8.9281   -1.0859   18.4739 O   0  0  0  0  0  0  0  0  0  0  0  0
   10.0798    0.5608   19.6419 N   0  0  0  0  0  0  0  0  0  0  0  0
  1  2  2  0  0  0  0
  1  6  1  0  0  0  0
  1  7  1  0  0  0  0
  2  3  1  0  0  0  0
  3  4  2  0  0  0  0
  4  5  1  0  0  0  0
  4 20  1  0  0  0  0
  5  6  2  0  0  0  0
  7  8  1  0  0  0  0
  8  9  1  0  0  0  0
  9 10  2  0  0  0  0
  9 13  1  0  0  0  0
 10 11  1  0  0  0  0
 11 12  1  0  0  0  0
 12 13  2  0  0  0  0
 12 18  1  0  0  0  0
 13 14  1  0  0  0  0
 14 15  1  0  0  0  0
 14 16  2  0  0  0  0
 16 17  1  0  0  0  0
 17 18  2  0  0  0  0
 17 19  1  0  0  0  0
 20 21  2  0  0  0  0
 20 22  1  0  0  0  0
M  END
>  <CHROM.1>
-164.26251854,91.81584373,174.82326741,-111.38080272,3.54138808,2.41976414
21.29819073,0.59292568,0.07750783,-2.37086542

>  <Name>
ligand

>  <RI>
0

>  <Rbt.Current_Directory>
/home/itssahil/PROJECTS/Mol_Feturizer/New_Systems/rnas/4LVY

>  <Rbt.Executable>
rbdock ($Id: //depot/dev/client3/rdock/2013.1/src/exe/rbdock.cxx#4 $)

>  <Rbt.Library>
libRbt.so (2013.1, Build901 2013/11/27)

>  <Rbt.Parameter_File>
/export/apps/rDock/src/rDock_2013.1_src/data/scripts/dock_solv.prm

>  <Rbt.Receptor>
prm/pocket_docking_4.prm

>  <SCORE>
-12.1483

>  <SCORE.INTER>
-12.4048

>  <SCORE.INTER.CONST>
1

>  <SCORE.INTER.POLAR>
0

>  <SCORE.INTER.ROT>
4

>  <SCORE.INTER.SOLV>
14.4328

>  <SCORE.INTER.VDW>
-19.3474

>  <SCORE.INTER.norm>
-0.563853

>  <SCORE.INTRA>
0.256509

>  <SCORE.INTRA.DIHEDRAL>
0.20615

>  <SCORE.INTRA.DIHEDRAL.0>
6.18831

>  <SCORE.INTRA.POLAR>
0

>  <SCORE.INTRA.POLAR.0>
0

>  <SCORE.INTRA.REPUL>
0

>  <SCORE.INTRA.REPUL.0>
0

>  <SCORE.INTRA.SOLV>
0.248981

>  <SCORE.INTRA.SOLV.lig_0>
-44.3465

>  <SCORE.INTRA.VDW>
0.0289438

>  <SCORE.INTRA.VDW.0>
-0.778272

>  <SCORE.INTRA.norm>
0.0116595

>  <SCORE.RESTR>
0

>  <SCORE.RESTR.CAVITY>
0

>  <SCORE.RESTR.norm>
0

>  <SCORE.SYSTEM>
0

>  <SCORE.SYSTEM.CONST>
0

>  <SCORE.SYSTEM.DIHEDRAL>
0

>  <SCORE.SYSTEM.SOLV>
0

>  <SCORE.SYSTEM.norm>
0

>  <SCORE.heavy>
22

>  <SCORE.norm>
-0.552193

>  <RMSD>
1.254

$$$$
ligand
 OpenBabel11021811503D
libRbt.so/2013.1/901 2013/11/27
 22 24  0  0  0  0  0  0  0  0999 V2000
    5.1019    2.1019   19.9849 C   0  0  0  0  0  0  0  0  0  0  0  0
    5.7842    1.1750   20.8009 C   0  0  0  0  0  0  0  0  0  0  0  0
    6.9467    0.5730   20.3271 C   0  0  0  0  0  0  0  0  0  0  0  0
    7.4209    0.8977   19.0442 C   0  0  0  0  0  0  0  0  0  0  0  0
    6.7316    1.8211   18.2201 C   0  0  0  0  0  0  0  0  0  0  0  0
    5.5722    2.4197   18.6940 C   0  0  0  0  0  0  0  0  0  0  0  0
    3.8041    2.7635   20.4873 C   0  0  0  0  0  0  0  0  0  0  0  0
    2.7019    1.7764   20.9465 C   0  0  0  0  0  0  0  0  0  0  0  0
    1.3419    2.4300   21.1621 C   0  0  0  0  0  0  0  0  0  0  0  0
    0.2047    2.1330   20.4048 C   0  0  0  0  0  0  0  0  0  0  0  0
   -0.8041    2.9027   20.8907 N   0  0  0  0  0  0  0  0  0  0  0  0
   -0.3955    3.7024   21.9393 C   0  0  0  0  0  0  0  0  0  0  0  0
    0.9533    3.4363   22.1476 C   0  0  0  0  0  0  0  0  0  0  0  0
    1.6133    4.1604   23.2118 C   0  0  0  0  0  0  0  0  0  0  0  0
    2.9608    3.9382   23.4821 O   0  0  0  0  0  0  0  0  0  0  0  0
    0.8859    5.0799   23.9555 N   0  0  0  0  0  0  0  0  0  0  0  0
   -0.4403    5.3015   23.7217 C   0  0  0  0  0  0  0  0  0  0  0  0
   -1.0846    4.6479   22.7423 N   0  0  0  0  0  0  0  0  0  0  0  0
   -1.1701    6.2711   24.5450 N   0  0  0  0  0  0  0  0  0  0  0  0
    8.6775    0.2278   18.5548 C   0  0  0  0  0  0  0  0  0  0  0  0
    9.7557    0.8159   18.6168 O   0  0  0  0  0  0  0  0  0  0  0  0
    8.5898   -1.1014   18.0113 N   0  0  0  0  0  0  0  0  0  0  0  0
  1  2  2  0  0  0  0
  1  6  1  0  0  0  0
  1  7  1  0  0  0  0
  2  3  1  0  0  0  0
  3  4  2  0  0  0  0
  4  5  1  0  0  0  0
  4 20  1  0  0  0  0
  5  6  2  0  0  0  0
  7  8  1  0  0  0  0
  8  9  1  0  0  0  0
  9 10  2  0  0  0  0
  9 13  1  0  0  0  0
 10 11  1  0  0  0  0
 11 12  1  0  0  0  0
 12 13  2  0  0  0  0
 12 18  1  0  0  0  0
 13 14  1  0  0  0  0
 14 15  1  0  0  0  0
 14 16  2  0  0  0  0
 16 17  1  0  0  0  0
 17 18  2  0  0  0  0
 17 19  1  0  0  0  0
 20 21  2  0  0  0  0
 20 22  1  0  0  0  0
M  END
>  <CHROM.1>
-54.33332456,-99.17354178,-168.01784088,115.62397252,3.42134707,2.63410252
21.02868473,-0.61277579,-0.06331203,0.91020232

>  <Name>
ligand

>  <RI>
0

>  <Rbt.Current_Directory>
/home/itssahil/PROJECTS/Mol_Feturizer/New_Systems/rnas/4LVY

>  <Rbt.Executable>
rbdock ($Id: //depot/dev/client3/rdock/2013.1/src/exe/rbdock.cxx#4 $)

>  <Rbt.Library>
libRbt.so (2013.1, Build901 2013/11/27)

>  <Rbt.Parameter_File>
/export/apps/rDock/src/rDock_2013.1_src/data/scripts/dock_solv.prm

>  <Rbt.Receptor>
prm/pocket_docking_2.prm

>  <SCORE>
-12.3378

>  <SCORE.INTER>
-12.1847

>  <SCORE.INTER.CONST>
1

>  <SCORE.INTER.POLAR>
0

>  <SCORE.INTER.ROT>
4

>  <SCORE.INTER.SOLV>
15.7647

>  <SCORE.INTER.VDW>
-19.6447

>  <SCORE.INTER.norm>
-0.553849

>  <SCORE.INTRA>
-0.154552

>  <SCORE.INTRA.DIHEDRAL>
0.607647

>  <SCORE.INTRA.DIHEDRAL.0>
6.18831

>  <SCORE.INTRA.POLAR>
0

>  <SCORE.INTRA.POLAR.0>
0

>  <SCORE.INTRA.REPUL>
0

>  <SCORE.INTRA.REPUL.0>
0

>  <SCORE.INTRA.SOLV>
0.26712

>  <SCORE.INTRA.SOLV.lig_0>
-44.3465

>  <SCORE.INTRA.VDW>
-0.591935

>  <SCORE.INTRA.VDW.0>
-0.778272

>  <SCORE.INTRA.norm>
-0.00702508

>  <SCORE.RESTR>
0.00144283

>  <SCORE.RESTR.CAVITY>
0.00144283

>  <SCORE.RESTR.norm>
6.55833e-05

>  <SCORE.SYSTEM>
0

>  <SCORE.SYSTEM.CONST>
0

>  <SCORE.SYSTEM.DIHEDRAL>
0

>  <SCORE.SYSTEM.SOLV>
0

>  <SCORE.SYSTEM.norm>
0

>  <SCORE.heavy>
22

>  <SCORE.norm>
-0.560809

>  <RMSD>
1.314

$$$$
ligand
 OpenBabel11021811503D
libRbt.so/2013.1/901 2013/11/27
 22 24  0  0  0  0  0  0  0  0999 V2000
    5.1006    1.2392   20.8757 C   0  0  0  0  0  0  0  0  0  0  0  0
    5.6151    1.7348   19.6591 C   0  0  0  0  0  0  0  0  0  0  0  0
    6.8087    1.2193   19.1611 C   0  0  0  0  0  0  0  0  0  0  0  0
    7.4817    0.2150   19.8784 C   0  0  0  0  0  0  0  0  0  0  0  0
    6.9710   -0.2769   21.1049 C   0  0  0  0  0  0  0  0  0  0  0  0
    5.7811    0.2389   21.6002 C   0  0  0  0  0  0  0  0  0  0  0  0
    3.7902    1.8116   21.4496 C   0  0  0  0  0  0  0  0  0  0  0  0
    2.8512    2.4683   20.4070 C   0  0  0  0  0  0  0  0  0  0  0  0
    1.4451    2.7386   20.9296 C   0  0  0  0  0  0  0  0  0  0  0  0
    0.2938    2.1272   20.4238 C   0  0  0  0  0  0  0  0  0  0  0  0
   -0.7554    2.6108   21.1389 N   0  0  0  0  0  0  0  0  0  0  0  0
   -0.3606    3.5184   22.1014 C   0  0  0  0  0  0  0  0  0  0  0  0
    1.0223    3.6296   22.0077 C   0  0  0  0  0  0  0  0  0  0  0  0
    1.6769    4.5323   22.9291 C   0  0  0  0  0  0  0  0  0  0  0  0
    3.0601    4.6871   22.8976 O   0  0  0  0  0  0  0  0  0  0  0  0
    0.9072    5.2425   23.8407 N   0  0  0  0  0  0  0  0  0  0  0  0
   -0.4480    5.0938   23.9033 C   0  0  0  0  0  0  0  0  0  0  0  0
   -1.0885    4.2654   23.0635 N   0  0  0  0  0  0  0  0  0  0  0  0
   -1.2163    5.8537   24.8947 N   0  0  0  0  0  0  0  0  0  0  0  0
    8.7731   -0.3208   19.3195 C   0  0  0  0  0  0  0  0  0  0  0  0
    9.8195   -0.1964   19.9533 O   0  0  0  0  0  0  0  0  0  0  0  0
    8.7582   -0.9701   18.0357 N   0  0  0  0  0  0  0  0  0  0  0  0
  1  2  2  0  0  0  0
  1  6  1  0  0  0  0
  1  7  1  0  0  0  0
  2  3  1  0  0  0  0
  3  4  2  0  0  0  0
  4  5  1  0  0  0  0
  4 20  1  0  0  0  0
  5  6  2  0  0  0  0
  7  8  1  0  0  0  0
  8  9  1  0  0  0  0
  9 10  2  0  0  0  0
  9 13  1  0  0  0  0
 10 11  1  0  0  0  0
 11 12  1  0  0  0  0
 12 13  2  0  0  0  0
 12 18  1  0  0  0  0
 13 14  1  0  0  0  0
 14 15  1  0  0  0  0
 14 16  2  0  0  0  0
 16 17  1  0  0  0  0
 17 18  2  0  0  0  0
 17 19  1  0  0  0  0
 20 21  2  0  0  0  0
 20 22  1  0  0  0  0
M  END
>  <CHROM.1>
23.46170251,118.17738016,166.87351750,-115.92849948,3.47352140,2.37078243
21.37036274,-0.58840474,-0.14968429,0.87379681

>  <Name>
ligand

>  <RI>
0

>  <Rbt.Current_Directory>
/home/itssahil/PROJECTS/Mol_Feturizer/New_Systems/rnas/4LVY

>  <Rbt.Executable>
rbdock ($Id: //depot/dev/client3/rdock/2013.1/src/exe/rbdock.cxx#4 $)

>  <Rbt.Library>
libRbt.so (2013.1, Build901 2013/11/27)

>  <Rbt.Parameter_File>
/export/apps/rDock/src/rDock_2013.1_src/data/scripts/dock_solv.prm

>  <Rbt.Receptor>
prm/pocket_docking_2.prm

>  <SCORE>
-11.5784

>  <SCORE.INTER>
-11.8914

>  <SCORE.INTER.CONST>
1

>  <SCORE.INTER.POLAR>
0

>  <SCORE.INTER.ROT>
4

>  <SCORE.INTER.SOLV>
15.6232

>  <SCORE.INTER.VDW>
-19.402

>  <SCORE.INTER.norm>
-0.540518

>  <SCORE.INTRA>
0.310474

>  <SCORE.INTRA.DIHEDRAL>
0.644448

>  <SCORE.INTRA.DIHEDRAL.0>
6.18831

>  <SCORE.INTRA.POLAR>
0

>  <SCORE.INTRA.POLAR.0>
0

>  <SCORE.INTRA.REPUL>
0

>  <SCORE.INTRA.REPUL.0>
0

>  <SCORE.INTRA.SOLV>
0.275092

>  <SCORE.INTRA.SOLV.lig_0>
-44.3465

>  <SCORE.INTRA.VDW>
-0.149296

>  <SCORE.INTRA.VDW.0>
-0.778272

>  <SCORE.INTRA.norm>
0.0141125

>  <SCORE.RESTR>
0.00256772

>  <SCORE.RESTR.CAVITY>
0.00256772

>  <SCORE.RESTR.norm>
0.000116715

>  <SCORE.SYSTEM>
0

>  <SCORE.SYSTEM.CONST>
0

>  <SCORE.SYSTEM.DIHEDRAL>
0

>  <SCORE.SYSTEM.SOLV>
0

>  <SCORE.SYSTEM.norm>
0

>  <SCORE.heavy>
22

>  <SCORE.norm>
-0.526289

>  <RMSD>
1.367

$$$$
ligand
 OpenBabel11021811503D
libRbt.so/2013.1/901 2013/11/27
 22 24  0  0  0  0  0  0  0  0999 V2000
    5.1023    1.3109   20.8491 C   0  0  0  0  0  0  0  0  0  0  0  0
    5.5714    1.7758   19.6023 C   0  0  0  0  0  0  0  0  0  0  0  0
    6.7784    1.2938   19.1030 C   0  0  0  0  0  0  0  0  0  0  0  0
    7.5098    0.3533   19.8490 C   0  0  0  0  0  0  0  0  0  0  0  0
    7.0447   -0.1072   21.1054 C   0  0  0  0  0  0  0  0  0  0  0  0
    5.8413    0.3751   21.6019 C   0  0  0  0  0  0  0  0  0  0  0  0
    3.7774    1.8477   21.4240 C   0  0  0  0  0  0  0  0  0  0  0  0
    2.8459    2.5315   20.3922 C   0  0  0  0  0  0  0  0  0  0  0  0
    1.4182    2.7288   20.8884 C   0  0  0  0  0  0  0  0  0  0  0  0
    0.3109    2.0516   20.3684 C   0  0  0  0  0  0  0  0  0  0  0  0
   -0.7754    2.4828   21.0612 N   0  0  0  0  0  0  0  0  0  0  0  0
   -0.4475    3.4182   22.0222 C   0  0  0  0  0  0  0  0  0  0  0  0
    0.9287    3.6039   21.9511 C   0  0  0  0  0  0  0  0  0  0  0  0
    1.5170    4.5481   22.8756 C   0  0  0  0  0  0  0  0  0  0  0  0
    2.8900    4.7779   22.8664 O   0  0  0  0  0  0  0  0  0  0  0  0
    0.6939    5.2224   23.7677 N   0  0  0  0  0  0  0  0  0  0  0  0
   -0.6521    5.0006   23.8084 C   0  0  0  0  0  0  0  0  0  0  0  0
   -1.2317    4.1319   22.9651 N   0  0  0  0  0  0  0  0  0  0  0  0
   -1.4778    5.7252   24.7798 N   0  0  0  0  0  0  0  0  0  0  0  0
    8.8144   -0.1471   19.2879 C   0  0  0  0  0  0  0  0  0  0  0  0
    9.7354    0.6381   19.0706 O   0  0  0  0  0  0  0  0  0  0  0  0
    8.9571   -1.5510   19.0073 N   0  0  0  0  0  0  0  0  0  0  0  0
  1  2  2  0  0  0  0
  1  6  1  0  0  0  0
  1  7  1  0  0  0  0
  2  3  1  0  0  0  0
  3  4  2  0  0  0  0
  4  5  1  0  0  0  0
  4 20  1  0  0  0  0
  5  6  2  0  0  0  0
  7  8  1  0  0  0  0
  8  9  1  0  0  0  0
  9 10  2  0  0  0  0
  9 13  1  0  0  0  0
 10 11  1  0  0  0  0
 11 12  1  0  0  0  0
 12 13  2  0  0  0  0
 12 18  1  0  0  0  0
 13 14  1  0  0  0  0
 14 15  1  0  0  0  0
 14 16  2  0  0  0  0
 16 17  1  0  0  0  0
 17 18  2  0  0  0  0
 17 19  1  0  0  0  0
 20 21  2  0  0  0  0
 20 22  1  0  0  0  0
M  END
>  <CHROM.1>
18.13793698,60.87417562,165.11247729,-112.03977439,3.41917961,2.40054456
21.32263574,-0.57435433,-0.07525450,0.78504377

>  <Name>
ligand

>  <RI>
0

>  <Rbt.Current_Directory>
/home/itssahil/PROJECTS/Mol_Feturizer/New_Systems/rnas/4LVY

>  <Rbt.Executable>
rbdock ($Id: //depot/dev/client3/rdock/2013.1/src/exe/rbdock.cxx#4 $)

>  <Rbt.Library>
libRbt.so (2013.1, Build901 2013/11/27)

>  <Rbt.Parameter_File>
/export/apps/rDock/src/rDock_2013.1_src/data/scripts/dock_solv.prm

>  <Rbt.Receptor>
prm/pocket_docking_2.prm

>  <SCORE>
-11.5514

>  <SCORE.INTER>
-12.0197

>  <SCORE.INTER.CONST>
1

>  <SCORE.INTER.POLAR>
0

>  <SCORE.INTER.ROT>
4

>  <SCORE.INTER.SOLV>
15.4029

>  <SCORE.INTER.VDW>
-19.4141

>  <SCORE.INTER.norm>
-0.546349

>  <SCORE.INTRA>
0.462225

>  <SCORE.INTRA.DIHEDRAL>
0.838429

>  <SCORE.INTRA.DIHEDRAL.0>
6.18831

>  <SCORE.INTRA.POLAR>
0

>  <SCORE.INTRA.POLAR.0>
0

>  <SCORE.INTRA.REPUL>
0

>  <SCORE.INTRA.REPUL.0>
0

>  <SCORE.INTRA.SOLV>
0.25542

>  <SCORE.INTRA.SOLV.lig_0>
-44.3465

>  <SCORE.INTRA.VDW>
-0.0846998

>  <SCORE.INTRA.VDW.0>
-0.778272

>  <SCORE.INTRA.norm>
0.0210102

>  <SCORE.RESTR>
0.00610426

>  <SCORE.RESTR.CAVITY>
0.00610426

>  <SCORE.RESTR.norm>
0.000277466

>  <SCORE.SYSTEM>
0

>  <SCORE.SYSTEM.CONST>
0

>  <SCORE.SYSTEM.DIHEDRAL>
0

>  <SCORE.SYSTEM.SOLV>
0

>  <SCORE.SYSTEM.norm>
0

>  <SCORE.heavy>
22

>  <SCORE.norm>
-0.525062

>  <RMSD>
1.385

$$$$
ligand
 OpenBabel11021811503D
libRbt.so/2013.1/901 2013/11/27
 22 24  0  0  0  0  0  0  0  0999 V2000
    3.6449    2.1177   19.6671 C   0  0  0  0  0  0  0  0  0  0  0  0
    3.8522    1.3161   20.8096 C   0  0  0  0  0  0  0  0  0  0  0  0
    5.1172    0.7888   21.0544 C   0  0  0  0  0  0  0  0  0  0  0  0
    6.1663    1.0626   20.1596 C   0  0  0  0  0  0  0  0  0  0  0  0
    5.9573    1.8595   19.0071 C   0  0  0  0  0  0  0  0  0  0  0  0
    4.6951    2.3838   18.7644 C   0  0  0  0  0  0  0  0  0  0  0  0
    2.2467    2.6941   19.3722 C   0  0  0  0  0  0  0  0  0  0  0  0
    1.1781    2.4052   20.4559 C   0  0  0  0  0  0  0  0  0  0  0  0
    1.3863    3.1858   21.7486 C   0  0  0  0  0  0  0  0  0  0  0  0
    2.5357    3.0933   22.5393 C   0  0  0  0  0  0  0  0  0  0  0  0
    2.3571    3.9319   23.5933 N   0  0  0  0  0  0  0  0  0  0  0  0
    1.1405    4.5829   23.5456 C   0  0  0  0  0  0  0  0  0  0  0  0
    0.4932    4.1441   22.3958 C   0  0  0  0  0  0  0  0  0  0  0  0
   -0.8161    4.6952   22.1231 C   0  0  0  0  0  0  0  0  0  0  0  0
   -1.5184    4.3074   20.9853 O   0  0  0  0  0  0  0  0  0  0  0  0
   -1.3618    5.6117   23.0120 N   0  0  0  0  0  0  0  0  0  0  0  0
   -0.6850    6.0213   24.1240 C   0  0  0  0  0  0  0  0  0  0  0  0
    0.5315    5.5306   24.4084 N   0  0  0  0  0  0  0  0  0  0  0  0
   -1.2964    7.0040   25.0246 N   0  0  0  0  0  0  0  0  0  0  0  0
    7.5229    0.4752   20.4458 C   0  0  0  0  0  0  0  0  0  0  0  0
    7.7990    0.0798   21.5769 O   0  0  0  0  0  0  0  0  0  0  0  0
    8.4838    0.3932   19.3780 N   0  0  0  0  0  0  0  0  0  0  0  0
  1  2  2  0  0  0  0
  1  6  1  0  0  0  0
  1  7  1  0  0  0  0
  2  3  1  0  0  0  0
  3  4  2  0  0  0  0
  4  5  1  0  0  0  0
  4 20  1  0  0  0  0
  5  6  2  0  0  0  0
  7  8  1  0  0  0  0
  8  9  1  0  0  0  0
  9 10  2  0  0  0  0
  9 13  1  0  0  0  0
 10 11  1  0  0  0  0
 11 12  1  0  0  0  0
 12 13  2  0  0  0  0
 12 18  1  0  0  0  0
 13 14  1  0  0  0  0
 14 15  1  0  0  0  0
 14 16  2  0  0  0  0
 16 17  1  0  0  0  0
 17 18  2  0  0  0  0
 17 19  1  0  0  0  0
 20 21  2  0  0  0  0
 20 22  1  0  0  0  0
M  END
>  <CHROM.1>
4.12775550,-18.92531348,71.36011747,-59.59490493,2.66625855,3.09396701,21.57673538
0.53773592,0.39354451,-1.94852992

>  <Name>
ligand

>  <RI>
0

>  <Rbt.Current_Directory>
/home/itssahil/PROJECTS/Mol_Feturizer/New_Systems/rnas/4LVY

>  <Rbt.Executable>
rbdock ($Id: //depot/dev/client3/rdock/2013.1/src/exe/rbdock.cxx#4 $)

>  <Rbt.Library>
libRbt.so (2013.1, Build901 2013/11/27)

>  <Rbt.Parameter_File>
/export/apps/rDock/src/rDock_2013.1_src/data/scripts/dock_solv.prm

>  <Rbt.Receptor>
prm/pocket_docking_2.prm

>  <SCORE>
-10.6208

>  <SCORE.INTER>
-11.3375

>  <SCORE.INTER.CONST>
1

>  <SCORE.INTER.POLAR>
0

>  <SCORE.INTER.ROT>
4

>  <SCORE.INTER.SOLV>
20.6332

>  <SCORE.INTER.VDW>
-20.7028

>  <SCORE.INTER.norm>
-0.515342

>  <SCORE.INTRA>
0.716761

>  <SCORE.INTRA.DIHEDRAL>
0.558424

>  <SCORE.INTRA.DIHEDRAL.0>
6.18831

>  <SCORE.INTRA.POLAR>
0

>  <SCORE.INTRA.POLAR.0>
0

>  <SCORE.INTRA.REPUL>
0

>  <SCORE.INTRA.REPUL.0>
0

>  <SCORE.INTRA.SOLV>
0.051358

>  <SCORE.INTRA.SOLV.lig_0>
-44.3465

>  <SCORE.INTRA.VDW>
0.41187

>  <SCORE.INTRA.VDW.0>
-0.778272

>  <SCORE.INTRA.norm>
0.03258

>  <SCORE.RESTR>
0

>  <SCORE.RESTR.CAVITY>
0

>  <SCORE.RESTR.norm>
0

>  <SCORE.SYSTEM>
0

>  <SCORE.SYSTEM.CONST>
0

>  <SCORE.SYSTEM.DIHEDRAL>
0

>  <SCORE.SYSTEM.SOLV>
0

>  <SCORE.SYSTEM.norm>
0

>  <SCORE.heavy>
22

>  <SCORE.norm>
-0.482762

>  <RMSD>
2.162

$$$$
ligand
 OpenBabel11021811503D
libRbt.so/2013.1/901 2013/11/27
 22 24  0  0  0  0  0  0  0  0999 V2000
    3.6185    2.1914   19.5801 C   0  0  0  0  0  0  0  0  0  0  0  0
    3.9230    1.3970   20.7056 C   0  0  0  0  0  0  0  0  0  0  0  0
    5.2209    0.9232   20.8770 C   0  0  0  0  0  0  0  0  0  0  0  0
    6.2058    1.2430   19.9263 C   0  0  0  0  0  0  0  0  0  0  0  0
    5.8991    2.0326   18.7908 C   0  0  0  0  0  0  0  0  0  0  0  0
    4.6043    2.5036   18.6213 C   0  0  0  0  0  0  0  0  0  0  0  0
    2.1829    2.7087   19.3664 C   0  0  0  0  0  0  0  0  0  0  0  0
    1.1871    2.3630   20.5016 C   0  0  0  0  0  0  0  0  0  0  0  0
    1.4105    3.1621   21.7803 C   0  0  0  0  0  0  0  0  0  0  0  0
    2.5689    3.0805   22.5589 C   0  0  0  0  0  0  0  0  0  0  0  0
    2.4029    3.9344   23.6026 N   0  0  0  0  0  0  0  0  0  0  0  0
    1.1860    4.5853   23.5595 C   0  0  0  0  0  0  0  0  0  0  0  0
    0.5253    4.1302   22.4238 C   0  0  0  0  0  0  0  0  0  0  0  0
   -0.7868    4.6779   22.1583 C   0  0  0  0  0  0  0  0  0  0  0  0
   -1.5024    4.2740   21.0345 O   0  0  0  0  0  0  0  0  0  0  0  0
   -1.3219    5.6075   23.0400 N   0  0  0  0  0  0  0  0  0  0  0  0
   -0.6321    6.0329   24.1381 C   0  0  0  0  0  0  0  0  0  0  0  0
    0.5874    5.5457   24.4155 N   0  0  0  0  0  0  0  0  0  0  0  0
   -1.2327    7.0289   25.0313 N   0  0  0  0  0  0  0  0  0  0  0  0
    7.5998    0.7130   20.1336 C   0  0  0  0  0  0  0  0  0  0  0  0
    8.4751    1.4411   20.5981 O   0  0  0  0  0  0  0  0  0  0  0  0
    7.8854   -0.6504   19.7734 N   0  0  0  0  0  0  0  0  0  0  0  0
  1  2  2  0  0  0  0
  1  6  1  0  0  0  0
  1  7  1  0  0  0  0
  2  3  1  0  0  0  0
  3  4  2  0  0  0  0
  4  5  1  0  0  0  0
  4 20  1  0  0  0  0
  5  6  2  0  0  0  0
  7  8  1  0  0  0  0
  8  9  1  0  0  0  0
  9 10  2  0  0  0  0
  9 13  1  0  0  0  0
 10 11  1  0  0  0  0
 11 12  1  0  0  0  0
 12 13  2  0  0  0  0
 12 18  1  0  0  0  0
 13 14  1  0  0  0  0
 14 15  1  0  0  0  0
 14 16  2  0  0  0  0
 16 17  1  0  0  0  0
 17 18  2  0  0  0  0
 17 19  1  0  0  0  0
 20 21  2  0  0  0  0
 20 22  1  0  0  0  0
M  END
>  <CHROM.1>
3.66841596,-100.52851113,72.64939841,-63.68242164,2.69696723,3.15734108,21.50112428
0.58918404,0.31381100,-2.03394081

>  <Name>
ligand

>  <RI>
0

>  <Rbt.Current_Directory>
/home/itssahil/PROJECTS/Mol_Feturizer/New_Systems/rnas/4LVY

>  <Rbt.Executable>
rbdock ($Id: //depot/dev/client3/rdock/2013.1/src/exe/rbdock.cxx#4 $)

>  <Rbt.Library>
libRbt.so (2013.1, Build901 2013/11/27)

>  <Rbt.Parameter_File>
/export/apps/rDock/src/rDock_2013.1_src/data/scripts/dock_solv.prm

>  <Rbt.Receptor>
prm/pocket_docking_2.prm

>  <SCORE>
-10.675

>  <SCORE.INTER>
-11.0436

>  <SCORE.INTER.CONST>
1

>  <SCORE.INTER.POLAR>
0

>  <SCORE.INTER.ROT>
4

>  <SCORE.INTER.SOLV>
21.2292

>  <SCORE.INTER.VDW>
-20.7055

>  <SCORE.INTER.norm>
-0.501984

>  <SCORE.INTRA>
0.349145

>  <SCORE.INTRA.DIHEDRAL>
0.629674

>  <SCORE.INTRA.DIHEDRAL.0>
6.18831

>  <SCORE.INTRA.POLAR>
0

>  <SCORE.INTRA.POLAR.0>
0

>  <SCORE.INTRA.REPUL>
0

>  <SCORE.INTRA.REPUL.0>
0

>  <SCORE.INTRA.SOLV>
0.0521956

>  <SCORE.INTRA.SOLV.lig_0>
-44.3465

>  <SCORE.INTRA.VDW>
0.00821005

>  <SCORE.INTRA.VDW.0>
-0.778272

>  <SCORE.INTRA.norm>
0.0158702

>  <SCORE.RESTR>
0.0195067

>  <SCORE.RESTR.CAVITY>
0.0195067

>  <SCORE.RESTR.norm>
0.000886668

>  <SCORE.SYSTEM>
0

>  <SCORE.SYSTEM.CONST>
0

>  <SCORE.SYSTEM.DIHEDRAL>
0

>  <SCORE.SYSTEM.SOLV>
0

>  <SCORE.SYSTEM.norm>
0

>  <SCORE.heavy>
22

>  <SCORE.norm>
-0.485227

>  <RMSD>
2.198

$$$$
ligand
 OpenBabel11021811503D
libRbt.so/2013.1/901 2013/11/27
 22 24  0  0  0  0  0  0  0  0999 V2000
    3.7555    2.1064   19.6269 C   0  0  0  0  0  0  0  0  0  0  0  0
    3.9828    1.3294   20.7824 C   0  0  0  0  0  0  0  0  0  0  0  0
    5.2514    0.8052   21.0151 C   0  0  0  0  0  0  0  0  0  0  0  0
    6.2841    1.0577   20.0953 C   0  0  0  0  0  0  0  0  0  0  0  0
    6.0549    1.8298   18.9299 C   0  0  0  0  0  0  0  0  0  0  0  0
    4.7891    2.3511   18.6993 C   0  0  0  0  0  0  0  0  0  0  0  0
    2.3529    2.6789   19.3455 C   0  0  0  0  0  0  0  0  0  0  0  0
    1.2869    2.3573   20.4226 C   0  0  0  0  0  0  0  0  0  0  0  0
    1.4692    3.1361   21.7202 C   0  0  0  0  0  0  0  0  0  0  0  0
    2.6110    3.0575   22.5234 C   0  0  0  0  0  0  0  0  0  0  0  0
    2.4084    3.8896   23.5783 N   0  0  0  0  0  0  0  0  0  0  0  0
    1.1831    4.5229   23.5193 C   0  0  0  0  0  0  0  0  0  0  0  0
    0.5551    4.0789   22.3608 C   0  0  0  0  0  0  0  0  0  0  0  0
   -0.7590    4.6118   22.0754 C   0  0  0  0  0  0  0  0  0  0  0  0
   -1.4429    4.2180   20.9285 O   0  0  0  0  0  0  0  0  0  0  0  0
   -1.3280    5.5170   22.9613 N   0  0  0  0  0  0  0  0  0  0  0  0
   -0.6696    5.9324   24.0823 C   0  0  0  0  0  0  0  0  0  0  0  0
    0.5507    5.4584   24.3786 N   0  0  0  0  0  0  0  0  0  0  0  0
   -1.3053    6.9028   24.9794 N   0  0  0  0  0  0  0  0  0  0  0  0
    7.6449    0.4742   20.3690 C   0  0  0  0  0  0  0  0  0  0  0  0
    8.4064    1.0266   21.1609 O   0  0  0  0  0  0  0  0  0  0  0  0
    8.0349   -0.7299   19.6848 N   0  0  0  0  0  0  0  0  0  0  0  0
  1  2  2  0  0  0  0
  1  6  1  0  0  0  0
  1  7  1  0  0  0  0
  2  3  1  0  0  0  0
  3  4  2  0  0  0  0
  4  5  1  0  0  0  0
  4 20  1  0  0  0  0
  5  6  2  0  0  0  0
  7  8  1  0  0  0  0
  8  9  1  0  0  0  0
  9 10  2  0  0  0  0
  9 13  1  0  0  0  0
 10 11  1  0  0  0  0
 11 12  1  0  0  0  0
 12 13  2  0  0  0  0
 12 18  1  0  0  0  0
 13 14  1  0  0  0  0
 14 15  1  0  0  0  0
 14 16  2  0  0  0  0
 16 17  1  0  0  0  0
 17 18  2  0  0  0  0
 17 19  1  0  0  0  0
 20 21  2  0  0  0  0
 20 22  1  0  0  0  0
M  END
>  <CHROM.1>
1.32780761,-80.56366909,72.82047861,-60.31708640,2.74557425,3.05047329,21.53095176
0.55355071,0.35850617,-1.99747670

>  <Name>
ligand

>  <RI>
0

>  <Rbt.Current_Directory>
/home/itssahil/PROJECTS/Mol_Feturizer/New_Systems/rnas/4LVY

>  <Rbt.Executable>
rbdock ($Id: //depot/dev/client3/rdock/2013.1/src/exe/rbdock.cxx#4 $)

>  <Rbt.Library>
libRbt.so (2013.1, Build901 2013/11/27)

>  <Rbt.Parameter_File>
/export/apps/rDock/src/rDock_2013.1_src/data/scripts/dock_solv.prm

>  <Rbt.Receptor>
prm/pocket_docking_3.prm

>  <SCORE>
-10.7199

>  <SCORE.INTER>
-11.2097

>  <SCORE.INTER.CONST>
1

>  <SCORE.INTER.POLAR>
0

>  <SCORE.INTER.ROT>
4

>  <SCORE.INTER.SOLV>
20.8058

>  <SCORE.INTER.VDW>
-20.6751

>  <SCORE.INTER.norm>
-0.509532

>  <SCORE.INTRA>
0.489758

>  <SCORE.INTRA.DIHEDRAL>
0.660133

>  <SCORE.INTRA.DIHEDRAL.0>
6.18831

>  <SCORE.INTRA.POLAR>
0

>  <SCORE.INTRA.POLAR.0>
0

>  <SCORE.INTRA.REPUL>
0

>  <SCORE.INTRA.REPUL.0>
0

>  <SCORE.INTRA.SOLV>
0.0404644

>  <SCORE.INTRA.SOLV.lig_0>
-44.3465

>  <SCORE.INTRA.VDW>
0.139459

>  <SCORE.INTRA.VDW.0>
-0.778272

>  <SCORE.INTRA.norm>
0.0222617

>  <SCORE.RESTR>
0

>  <SCORE.RESTR.CAVITY>
0

>  <SCORE.RESTR.norm>
0

>  <SCORE.SYSTEM>
0

>  <SCORE.SYSTEM.CONST>
0

>  <SCORE.SYSTEM.DIHEDRAL>
0

>  <SCORE.SYSTEM.SOLV>
0

>  <SCORE.SYSTEM.norm>
0

>  <SCORE.heavy>
22

>  <SCORE.norm>
-0.48727

>  <RMSD>
2.200

$$$$
ligand
 OpenBabel11021811503D
libRbt.so/2013.1/901 2013/11/27
 22 24  0  0  0  0  0  0  0  0999 V2000
    3.3019    2.4254   19.1664 C   0  0  0  0  0  0  0  0  0  0  0  0
    4.6559    2.3580   18.7756 C   0  0  0  0  0  0  0  0  0  0  0  0
    5.5722    1.7038   19.5946 C   0  0  0  0  0  0  0  0  0  0  0  0
    5.1339    1.1224   20.7971 C   0  0  0  0  0  0  0  0  0  0  0  0
    3.7765    1.1976   21.1954 C   0  0  0  0  0  0  0  0  0  0  0  0
    2.8645    1.8509   20.3777 C   0  0  0  0  0  0  0  0  0  0  0  0
    2.2786    3.1612   18.2801 C   0  0  0  0  0  0  0  0  0  0  0  0
    1.5046    4.3034   18.9845 C   0  0  0  0  0  0  0  0  0  0  0  0
    0.5889    3.8257   20.1057 C   0  0  0  0  0  0  0  0  0  0  0  0
    0.1456    2.5067   20.2423 C   0  0  0  0  0  0  0  0  0  0  0  0
   -0.6385    2.4677   21.3512 N   0  0  0  0  0  0  0  0  0  0  0  0
   -0.7413    3.7002   21.9648 C   0  0  0  0  0  0  0  0  0  0  0  0
    0.0198    4.5892   21.2138 C   0  0  0  0  0  0  0  0  0  0  0  0
    0.0713    5.9620   21.6668 C   0  0  0  0  0  0  0  0  0  0  0  0
    0.8206    6.9046   20.9683 O   0  0  0  0  0  0  0  0  0  0  0  0
   -0.6382    6.3252   22.8038 N   0  0  0  0  0  0  0  0  0  0  0  0
   -1.3647    5.4154   23.5158 C   0  0  0  0  0  0  0  0  0  0  0  0
   -1.4352    4.1335   23.1242 N   0  0  0  0  0  0  0  0  0  0  0  0
   -2.0843    5.8438   24.7197 N   0  0  0  0  0  0  0  0  0  0  0  0
    6.1470    0.4258   21.6664 C   0  0  0  0  0  0  0  0  0  0  0  0
    6.1146    0.5666   22.8875 O   0  0  0  0  0  0  0  0  0  0  0  0
    7.1497   -0.3960   21.0425 N   0  0  0  0  0  0  0  0  0  0  0  0
  1  2  2  0  0  0  0
  1  6  1  0  0  0  0
  1  7  1  0  0  0  0
  2  3  1  0  0  0  0
  3  4  2  0  0  0  0
  4  5  1  0  0  0  0
  4 20  1  0  0  0  0
  5  6  2  0  0  0  0
  7  8  1  0  0  0  0
  8  9  1  0  0  0  0
  9 10  2  0  0  0  0
  9 13  1  0  0  0  0
 10 11  1  0  0  0  0
 11 12  1  0  0  0  0
 12 13  2  0  0  0  0
 12 18  1  0  0  0  0
 13 14  1  0  0  0  0
 14 15  1  0  0  0  0
 14 16  2  0  0  0  0
 16 17  1  0  0  0  0
 17 18  2  0  0  0  0
 17 19  1  0  0  0  0
 20 21  2  0  0  0  0
 20 22  1  0  0  0  0
M  END
>  <CHROM.1>
-123.16427563,138.70268175,-65.47967915,-19.02941015,1.95430216,3.23868696
21.15114965,0.09569406,0.62661993,-1.35089051

>  <Name>
ligand

>  <RI>
0

>  <Rbt.Current_Directory>
/home/itssahil/PROJECTS/Mol_Feturizer/New_Systems/rnas/4LVY

>  <Rbt.Executable>
rbdock ($Id: //depot/dev/client3/rdock/2013.1/src/exe/rbdock.cxx#4 $)

>  <Rbt.Library>
libRbt.so (2013.1, Build901 2013/11/27)

>  <Rbt.Parameter_File>
/export/apps/rDock/src/rDock_2013.1_src/data/scripts/dock_solv.prm

>  <Rbt.Receptor>
prm/pocket_docking_8.prm

>  <SCORE>
-16.0593

>  <SCORE.INTER>
-16.3259

>  <SCORE.INTER.CONST>
1

>  <SCORE.INTER.POLAR>
0

>  <SCORE.INTER.ROT>
4

>  <SCORE.INTER.SOLV>
18.3527

>  <SCORE.INTER.VDW>
-23.2682

>  <SCORE.INTER.norm>
-0.742086

>  <SCORE.INTRA>
0.266632

>  <SCORE.INTRA.DIHEDRAL>
0.162292

>  <SCORE.INTRA.DIHEDRAL.0>
6.18831

>  <SCORE.INTRA.POLAR>
0

>  <SCORE.INTRA.POLAR.0>
0

>  <SCORE.INTRA.REPUL>
0

>  <SCORE.INTRA.REPUL.0>
0

>  <SCORE.INTRA.SOLV>
0.00226194

>  <SCORE.INTRA.SOLV.lig_0>
-44.3465

>  <SCORE.INTRA.VDW>
0.184355

>  <SCORE.INTRA.VDW.0>
-0.778272

>  <SCORE.INTRA.norm>
0.0121197

>  <SCORE.RESTR>
0

>  <SCORE.RESTR.CAVITY>
0

>  <SCORE.RESTR.norm>
0

>  <SCORE.SYSTEM>
0

>  <SCORE.SYSTEM.CONST>
0

>  <SCORE.SYSTEM.DIHEDRAL>
0

>  <SCORE.SYSTEM.SOLV>
0

>  <SCORE.SYSTEM.norm>
0

>  <SCORE.heavy>
22

>  <SCORE.norm>
-0.729967

>  <RMSD>
2.349

$$$$
ligand
 OpenBabel11021811503D
libRbt.so/2013.1/901 2013/11/27
 22 24  0  0  0  0  0  0  0  0999 V2000
    3.3206    2.4006   19.2314 C   0  0  0  0  0  0  0  0  0  0  0  0
    2.8482    1.8022   20.4186 C   0  0  0  0  0  0  0  0  0  0  0  0
    3.7383    1.1132   21.2380 C   0  0  0  0  0  0  0  0  0  0  0  0
    5.0918    1.0242   20.8690 C   0  0  0  0  0  0  0  0  0  0  0  0
    5.5656    1.6165   19.6725 C   0  0  0  0  0  0  0  0  0  0  0  0
    4.6765    2.3025   18.8565 C   0  0  0  0  0  0  0  0  0  0  0  0
    2.3452    3.1514   18.3047 C   0  0  0  0  0  0  0  0  0  0  0  0
    1.5343    4.2819   18.9862 C   0  0  0  0  0  0  0  0  0  0  0  0
    0.6177    3.7944   20.1023 C   0  0  0  0  0  0  0  0  0  0  0  0
    0.1625    2.4775   20.2188 C   0  0  0  0  0  0  0  0  0  0  0  0
   -0.6185    2.4277   21.3295 N   0  0  0  0  0  0  0  0  0  0  0  0
   -0.7078    3.6509   21.9635 C   0  0  0  0  0  0  0  0  0  0  0  0
    0.0592    4.5449   21.2246 C   0  0  0  0  0  0  0  0  0  0  0  0
    0.1249    5.9095   21.6999 C   0  0  0  0  0  0  0  0  0  0  0  0
    0.8808    6.8565   21.0144 O   0  0  0  0  0  0  0  0  0  0  0  0
   -0.5777    6.2607   22.8449 N   0  0  0  0  0  0  0  0  0  0  0  0
   -1.3105    5.3461   23.5444 C   0  0  0  0  0  0  0  0  0  0  0  0
   -1.3941    4.0714   23.1321 N   0  0  0  0  0  0  0  0  0  0  0  0
   -2.0222    5.7613   24.7575 N   0  0  0  0  0  0  0  0  0  0  0  0
    6.0315    0.2686   21.7708 C   0  0  0  0  0  0  0  0  0  0  0  0
    6.9633   -0.3753   21.2922 O   0  0  0  0  0  0  0  0  0  0  0  0
    5.8137    0.3101   23.1924 N   0  0  0  0  0  0  0  0  0  0  0  0
  1  2  2  0  0  0  0
  1  6  1  0  0  0  0
  1  7  1  0  0  0  0
  2  3  1  0  0  0  0
  3  4  2  0  0  0  0
  4  5  1  0  0  0  0
  4 20  1  0  0  0  0
  5  6  2  0  0  0  0
  7  8  1  0  0  0  0
  8  9  1  0  0  0  0
  9 10  2  0  0  0  0
  9 13  1  0  0  0  0
 10 11  1  0  0  0  0
 11 12  1  0  0  0  0
 12 13  2  0  0  0  0
 12 18  1  0  0  0  0
 13 14  1  0  0  0  0
 14 15  1  0  0  0  0
 14 16  2  0  0  0  0
 16 17  1  0  0  0  0
 17 18  2  0  0  0  0
 17 19  1  0  0  0  0
 20 21  2  0  0  0  0
 20 22  1  0  0  0  0
M  END
>  <CHROM.1>
55.22734222,145.39900391,-62.26175128,-21.73063011,1.95540600,3.16927909
21.19639463,0.05716940,0.64367292,-1.30469500

>  <Name>
ligand

>  <RI>
0

>  <Rbt.Current_Directory>
/home/itssahil/PROJECTS/Mol_Feturizer/New_Systems/rnas/4LVY

>  <Rbt.Executable>
rbdock ($Id: //depot/dev/client3/rdock/2013.1/src/exe/rbdock.cxx#4 $)

>  <Rbt.Library>
libRbt.so (2013.1, Build901 2013/11/27)

>  <Rbt.Parameter_File>
/export/apps/rDock/src/rDock_2013.1_src/data/scripts/dock_solv.prm

>  <Rbt.Receptor>
prm/pocket_docking_4.prm

>  <SCORE>
-16.3811

>  <SCORE.INTER>
-16.64

>  <SCORE.INTER.CONST>
1

>  <SCORE.INTER.POLAR>
0

>  <SCORE.INTER.ROT>
4

>  <SCORE.INTER.SOLV>
18.2158

>  <SCORE.INTER.VDW>
-23.4319

>  <SCORE.INTER.norm>
-0.756363

>  <SCORE.INTRA>
0.25891

>  <SCORE.INTRA.DIHEDRAL>
0.0202047

>  <SCORE.INTRA.DIHEDRAL.0>
6.18831

>  <SCORE.INTRA.POLAR>
0

>  <SCORE.INTRA.POLAR.0>
0

>  <SCORE.INTRA.REPUL>
0

>  <SCORE.INTRA.REPUL.0>
0

>  <SCORE.INTRA.SOLV>
0.00449627

>  <SCORE.INTRA.SOLV.lig_0>
-44.3465

>  <SCORE.INTRA.VDW>
0.246559

>  <SCORE.INTRA.VDW.0>
-0.778272

>  <SCORE.INTRA.norm>
0.0117686

>  <SCORE.RESTR>
0

>  <SCORE.RESTR.CAVITY>
0

>  <SCORE.RESTR.norm>
0

>  <SCORE.SYSTEM>
0

>  <SCORE.SYSTEM.CONST>
0

>  <SCORE.SYSTEM.DIHEDRAL>
0

>  <SCORE.SYSTEM.SOLV>
0

>  <SCORE.SYSTEM.norm>
0

>  <SCORE.heavy>
22

>  <SCORE.norm>
-0.744594

>  <RMSD>
2.400

$$$$
ligand
 OpenBabel11021811503D
libRbt.so/2013.1/901 2013/11/27
 22 24  0  0  0  0  0  0  0  0999 V2000
    3.4050    2.4355   21.7001 C   0  0  0  0  0  0  0  0  0  0  0  0
    3.4586    2.1644   20.3165 C   0  0  0  0  0  0  0  0  0  0  0  0
    4.5760    1.5236   19.7882 C   0  0  0  0  0  0  0  0  0  0  0  0
    5.6321    1.1581   20.6410 C   0  0  0  0  0  0  0  0  0  0  0  0
    5.5838    1.4382   22.0288 C   0  0  0  0  0  0  0  0  0  0  0  0
    4.4691    2.0780   22.5536 C   0  0  0  0  0  0  0  0  0  0  0  0
    2.1836    3.1601   22.2977 C   0  0  0  0  0  0  0  0  0  0  0  0
    1.9276    4.5817   21.7378 C   0  0  0  0  0  0  0  0  0  0  0  0
    1.3554    5.5530   22.7637 C   0  0  0  0  0  0  0  0  0  0  0  0
    2.0271    6.6914   23.2196 C   0  0  0  0  0  0  0  0  0  0  0  0
    1.2056    7.3019   24.1132 N   0  0  0  0  0  0  0  0  0  0  0  0
    0.0135    6.6252   24.2775 C   0  0  0  0  0  0  0  0  0  0  0  0
    0.0624    5.5140   23.4430 C   0  0  0  0  0  0  0  0  0  0  0  0
   -1.0904    4.6402   23.4373 C   0  0  0  0  0  0  0  0  0  0  0  0
   -1.1140    3.5137   22.6198 O   0  0  0  0  0  0  0  0  0  0  0  0
   -2.1687    4.9392   24.2594 N   0  0  0  0  0  0  0  0  0  0  0  0
   -2.1767    6.0477   25.0556 C   0  0  0  0  0  0  0  0  0  0  0  0
   -1.1242    6.8800   25.0863 N   0  0  0  0  0  0  0  0  0  0  0  0
   -3.3460    6.3301   25.8944 N   0  0  0  0  0  0  0  0  0  0  0  0
    6.8307    0.4711   20.0422 C   0  0  0  0  0  0  0  0  0  0  0  0
    7.3482   -0.4835   20.6193 O   0  0  0  0  0  0  0  0  0  0  0  0
    7.3574    0.9553   18.7939 N   0  0  0  0  0  0  0  0  0  0  0  0
  1  2  2  0  0  0  0
  1  6  1  0  0  0  0
  1  7  1  0  0  0  0
  2  3  1  0  0  0  0
  3  4  2  0  0  0  0
  4  5  1  0  0  0  0
  4 20  1  0  0  0  0
  5  6  2  0  0  0  0
  7  8  1  0  0  0  0
  8  9  1  0  0  0  0
  9 10  2  0  0  0  0
  9 13  1  0  0  0  0
 10 11  1  0  0  0  0
 11 12  1  0  0  0  0
 12 13  2  0  0  0  0
 12 18  1  0  0  0  0
 13 14  1  0  0  0  0
 14 15  1  0  0  0  0
 14 16  2  0  0  0  0
 16 17  1  0  0  0  0
 17 18  2  0  0  0  0
 17 19  1  0  0  0  0
 20 21  2  0  0  0  0
 20 22  1  0  0  0  0
M  END
>  <CHROM.1>
-60.75314628,-137.83823768,-146.03477895,115.32323660,2.07699638,3.78555843
22.49499452,0.68492222,-0.26230799,-2.77346662

>  <Name>
ligand

>  <RI>
0

>  <Rbt.Current_Directory>
/home/itssahil/PROJECTS/Mol_Feturizer/New_Systems/rnas/4LVY

>  <Rbt.Executable>
rbdock ($Id: //depot/dev/client3/rdock/2013.1/src/exe/rbdock.cxx#4 $)

>  <Rbt.Library>
libRbt.so (2013.1, Build901 2013/11/27)

>  <Rbt.Parameter_File>
/export/apps/rDock/src/rDock_2013.1_src/data/scripts/dock_solv.prm

>  <Rbt.Receptor>
prm/pocket_docking_4.prm

>  <SCORE>
-10.9299

>  <SCORE.INTER>
-12.4149

>  <SCORE.INTER.CONST>
1

>  <SCORE.INTER.POLAR>
0

>  <SCORE.INTER.ROT>
4

>  <SCORE.INTER.SOLV>
22.9813

>  <SCORE.INTER.VDW>
-22.2037

>  <SCORE.INTER.norm>
-0.564313

>  <SCORE.INTRA>
1.48494

>  <SCORE.INTRA.DIHEDRAL>
3.73723

>  <SCORE.INTRA.DIHEDRAL.0>
6.18831

>  <SCORE.INTRA.POLAR>
0

>  <SCORE.INTRA.POLAR.0>
0

>  <SCORE.INTRA.REPUL>
0

>  <SCORE.INTRA.REPUL.0>
0

>  <SCORE.INTRA.SOLV>
0.275215

>  <SCORE.INTRA.SOLV.lig_0>
-44.3465

>  <SCORE.INTRA.VDW>
-0.521286

>  <SCORE.INTRA.VDW.0>
-0.778272

>  <SCORE.INTRA.norm>
0.0674972

>  <SCORE.RESTR>
0

>  <SCORE.RESTR.CAVITY>
0

>  <SCORE.RESTR.norm>
0

>  <SCORE.SYSTEM>
0

>  <SCORE.SYSTEM.CONST>
0

>  <SCORE.SYSTEM.DIHEDRAL>
0

>  <SCORE.SYSTEM.SOLV>
0

>  <SCORE.SYSTEM.norm>
0

>  <SCORE.heavy>
22

>  <SCORE.norm>
-0.496816

>  <RMSD>
2.637

$$$$
ligand
 OpenBabel11021811503D
libRbt.so/2013.1/901 2013/11/27
 22 24  0  0  0  0  0  0  0  0999 V2000
    3.3760    3.4617   19.7405 C   0  0  0  0  0  0  0  0  0  0  0  0
    3.1321    3.2126   21.1076 C   0  0  0  0  0  0  0  0  0  0  0  0
    3.7945    2.1642   21.7403 C   0  0  0  0  0  0  0  0  0  0  0  0
    4.6942    1.3710   21.0071 C   0  0  0  0  0  0  0  0  0  0  0  0
    4.9329    1.6140   19.6321 C   0  0  0  0  0  0  0  0  0  0  0  0
    4.2709    2.6594   19.0028 C   0  0  0  0  0  0  0  0  0  0  0  0
    2.6375    4.6068   19.0210 C   0  0  0  0  0  0  0  0  0  0  0  0
    1.1285    4.3586   18.7738 C   0  0  0  0  0  0  0  0  0  0  0  0
    0.3796    3.8510   20.0005 C   0  0  0  0  0  0  0  0  0  0  0  0
    0.1112    2.5012   20.2475 C   0  0  0  0  0  0  0  0  0  0  0  0
   -0.5613    2.4428   21.4266 N   0  0  0  0  0  0  0  0  0  0  0  0
   -0.7562    3.6917   21.9820 C   0  0  0  0  0  0  0  0  0  0  0  0
   -0.1766    4.6127   21.1164 C   0  0  0  0  0  0  0  0  0  0  0  0
   -0.2499    6.0082   21.4902 C   0  0  0  0  0  0  0  0  0  0  0  0
    0.3163    6.9844   20.6751 O   0  0  0  0  0  0  0  0  0  0  0  0
   -0.8943    6.3588   22.6691 N   0  0  0  0  0  0  0  0  0  0  0  0
   -1.4407    5.4186   23.4937 C   0  0  0  0  0  0  0  0  0  0  0  0
   -1.3916    4.1149   23.1781 N   0  0  0  0  0  0  0  0  0  0  0  0
   -2.0969    5.8369   24.7367 N   0  0  0  0  0  0  0  0  0  0  0  0
    5.3929    0.2405   21.7150 C   0  0  0  0  0  0  0  0  0  0  0  0
    4.7557   -0.5245   22.4368 O   0  0  0  0  0  0  0  0  0  0  0  0
    6.8114    0.0796   21.5358 N   0  0  0  0  0  0  0  0  0  0  0  0
  1  2  2  0  0  0  0
  1  6  1  0  0  0  0
  1  7  1  0  0  0  0
  2  3  1  0  0  0  0
  3  4  2  0  0  0  0
  4  5  1  0  0  0  0
  4 20  1  0  0  0  0
  5  6  2  0  0  0  0
  7  8  1  0  0  0  0
  8  9  1  0  0  0  0
  9 10  2  0  0  0  0
  9 13  1  0  0  0  0
 10 11  1  0  0  0  0
 11 12  1  0  0  0  0
 12 13  2  0  0  0  0
 12 18  1  0  0  0  0
 13 14  1  0  0  0  0
 14 15  1  0  0  0  0
 14 16  2  0  0  0  0
 16 17  1  0  0  0  0
 17 18  2  0  0  0  0
 17 19  1  0  0  0  0
 20 21  2  0  0  0  0
 20 22  1  0  0  0  0
M  END
>  <CHROM.1>
-71.14504583,46.28007236,47.69484236,-96.67631063,1.71177332,3.43441952,21.24389698
-0.18430322,0.63001297,-0.96170271

>  <Name>
ligand

>  <RI>
0

>  <Rbt.Current_Directory>
/home/itssahil/PROJECTS/Mol_Feturizer/New_Systems/rnas/4LVY

>  <Rbt.Executable>
rbdock ($Id: //depot/dev/client3/rdock/2013.1/src/exe/rbdock.cxx#4 $)

>  <Rbt.Library>
libRbt.so (2013.1, Build901 2013/11/27)

>  <Rbt.Parameter_File>
/export/apps/rDock/src/rDock_2013.1_src/data/scripts/dock_solv.prm

>  <Rbt.Receptor>
prm/pocket_docking_4.prm

>  <SCORE>
-13.2983

>  <SCORE.INTER>
-12.2669

>  <SCORE.INTER.CONST>
1

>  <SCORE.INTER.POLAR>
0

>  <SCORE.INTER.ROT>
4

>  <SCORE.INTER.SOLV>
19.528

>  <SCORE.INTER.VDW>
-20.9539

>  <SCORE.INTER.norm>
-0.557586

>  <SCORE.INTRA>
-1.03136

>  <SCORE.INTRA.DIHEDRAL>
0.551344

>  <SCORE.INTRA.DIHEDRAL.0>
6.18831

>  <SCORE.INTRA.POLAR>
0

>  <SCORE.INTRA.POLAR.0>
0

>  <SCORE.INTRA.REPUL>
0

>  <SCORE.INTRA.REPUL.0>
0

>  <SCORE.INTRA.SOLV>
0.188842

>  <SCORE.INTRA.SOLV.lig_0>
-44.3465

>  <SCORE.INTRA.VDW>
-1.40145

>  <SCORE.INTRA.VDW.0>
-0.778272

>  <SCORE.INTRA.norm>
-0.0468801

>  <SCORE.RESTR>
0

>  <SCORE.RESTR.CAVITY>
0

>  <SCORE.RESTR.norm>
0

>  <SCORE.SYSTEM>
0

>  <SCORE.SYSTEM.CONST>
0

>  <SCORE.SYSTEM.DIHEDRAL>
0

>  <SCORE.SYSTEM.SOLV>
0

>  <SCORE.SYSTEM.norm>
0

>  <SCORE.heavy>
22

>  <SCORE.norm>
-0.604466

>  <RMSD>
2.674

$$$$
ligand
 OpenBabel11021811503D
libRbt.so/2013.1/901 2013/11/27
 22 24  0  0  0  0  0  0  0  0999 V2000
    3.4643    1.8320   20.5015 C   0  0  0  0  0  0  0  0  0  0  0  0
    4.0109    1.0367   21.5308 C   0  0  0  0  0  0  0  0  0  0  0  0
    5.3187    0.5735   21.4155 C   0  0  0  0  0  0  0  0  0  0  0  0
    6.0725    0.9048   20.2761 C   0  0  0  0  0  0  0  0  0  0  0  0
    5.5218    1.6954   19.2375 C   0  0  0  0  0  0  0  0  0  0  0  0
    4.2173    2.1557   19.3539 C   0  0  0  0  0  0  0  0  0  0  0  0
    2.0125    2.3376   20.6053 C   0  0  0  0  0  0  0  0  0  0  0  0
    1.6552    3.0305   21.9440 C   0  0  0  0  0  0  0  0  0  0  0  0
    0.4565    3.9675   21.8509 C   0  0  0  0  0  0  0  0  0  0  0  0
   -0.7812    3.7127   22.4494 C   0  0  0  0  0  0  0  0  0  0  0  0
   -1.5863    4.7663   22.1530 N   0  0  0  0  0  0  0  0  0  0  0  0
   -0.9452    5.7162   21.3831 C   0  0  0  0  0  0  0  0  0  0  0  0
    0.3490    5.2551   21.1688 C   0  0  0  0  0  0  0  0  0  0  0  0
    1.2269    6.0919   20.3806 C   0  0  0  0  0  0  0  0  0  0  0  0
    2.5387    5.6968   20.1330 O   0  0  0  0  0  0  0  0  0  0  0  0
    0.7424    7.2902   19.8733 N   0  0  0  0  0  0  0  0  0  0  0  0
   -0.5337    7.7077   20.1179 C   0  0  0  0  0  0  0  0  0  0  0  0
   -1.3757    6.9565   20.8448 N   0  0  0  0  0  0  0  0  0  0  0  0
   -0.9946    8.9892   19.5740 N   0  0  0  0  0  0  0  0  0  0  0  0
    7.4824    0.3861   20.1749 C   0  0  0  0  0  0  0  0  0  0  0  0
    7.6908   -0.7718   19.8172 O   0  0  0  0  0  0  0  0  0  0  0  0
    8.5716    1.2647   20.5093 N   0  0  0  0  0  0  0  0  0  0  0  0
  1  2  2  0  0  0  0
  1  6  1  0  0  0  0
  1  7  1  0  0  0  0
  2  3  1  0  0  0  0
  3  4  2  0  0  0  0
  4  5  1  0  0  0  0
  4 20  1  0  0  0  0
  5  6  2  0  0  0  0
  7  8  1  0  0  0  0
  8  9  1  0  0  0  0
  9 10  2  0  0  0  0
  9 13  1  0  0  0  0
 10 11  1  0  0  0  0
 11 12  1  0  0  0  0
 12 13  2  0  0  0  0
 12 18  1  0  0  0  0
 13 14  1  0  0  0  0
 14 15  1  0  0  0  0
 14 16  2  0  0  0  0
 16 17  1  0  0  0  0
 17 18  2  0  0  0  0
 17 19  1  0  0  0  0
 20 21  2  0  0  0  0
 20 22  1  0  0  0  0
M  END
>  <CHROM.1>
50.36727079,79.83902079,157.84629298,110.61830579,2.51849305,3.69251939,20.67967141
0.58541278,-0.40090470,2.69483962

>  <Name>
ligand

>  <RI>
0

>  <Rbt.Current_Directory>
/home/itssahil/PROJECTS/Mol_Feturizer/New_Systems/rnas/4LVY

>  <Rbt.Executable>
rbdock ($Id: //depot/dev/client3/rdock/2013.1/src/exe/rbdock.cxx#4 $)

>  <Rbt.Library>
libRbt.so (2013.1, Build901 2013/11/27)

>  <Rbt.Parameter_File>
/export/apps/rDock/src/rDock_2013.1_src/data/scripts/dock_solv.prm

>  <Rbt.Receptor>
prm/pocket_docking_8.prm

>  <SCORE>
-12.6945

>  <SCORE.INTER>
-13.0823

>  <SCORE.INTER.CONST>
1

>  <SCORE.INTER.POLAR>
0

>  <SCORE.INTER.ROT>
4

>  <SCORE.INTER.SOLV>
14.6441

>  <SCORE.INTER.VDW>
-19.8696

>  <SCORE.INTER.norm>
-0.59465

>  <SCORE.INTRA>
0.387853

>  <SCORE.INTRA.DIHEDRAL>
1.85889

>  <SCORE.INTRA.DIHEDRAL.0>
6.18831

>  <SCORE.INTRA.POLAR>
0

>  <SCORE.INTRA.POLAR.0>
0

>  <SCORE.INTRA.REPUL>
0

>  <SCORE.INTRA.REPUL.0>
0

>  <SCORE.INTRA.SOLV>
0.241907

>  <SCORE.INTRA.SOLV.lig_0>
-44.3465

>  <SCORE.INTRA.VDW>
-0.662544

>  <SCORE.INTRA.VDW.0>
-0.778272

>  <SCORE.INTRA.norm>
0.0176297

>  <SCORE.RESTR>
0

>  <SCORE.RESTR.CAVITY>
0

>  <SCORE.RESTR.norm>
0

>  <SCORE.SYSTEM>
0

>  <SCORE.SYSTEM.CONST>
0

>  <SCORE.SYSTEM.DIHEDRAL>
0

>  <SCORE.SYSTEM.SOLV>
0

>  <SCORE.SYSTEM.norm>
0

>  <SCORE.heavy>
22

>  <SCORE.norm>
-0.577021

>  <RMSD>
2.675

$$$$
ligand
 OpenBabel11021811503D
libRbt.so/2013.1/901 2013/11/27
 22 24  0  0  0  0  0  0  0  0999 V2000
    3.9113    2.1620   20.3606 C   0  0  0  0  0  0  0  0  0  0  0  0
    4.9389    2.1256   19.3944 C   0  0  0  0  0  0  0  0  0  0  0  0
    6.0222    1.2712   19.5805 C   0  0  0  0  0  0  0  0  0  0  0  0
    6.0751    0.4601   20.7274 C   0  0  0  0  0  0  0  0  0  0  0  0
    5.0487    0.5025   21.7029 C   0  0  0  0  0  0  0  0  0  0  0  0
    3.9696    1.3556   21.5159 C   0  0  0  0  0  0  0  0  0  0  0  0
    2.7143    3.1151   20.1785 C   0  0  0  0  0  0  0  0  0  0  0  0
    1.3294    2.4918   20.4841 C   0  0  0  0  0  0  0  0  0  0  0  0
    0.2990    3.4976   20.9843 C   0  0  0  0  0  0  0  0  0  0  0  0
   -0.6416    3.2207   21.9810 C   0  0  0  0  0  0  0  0  0  0  0  0
   -1.3736    4.3517   22.1568 N   0  0  0  0  0  0  0  0  0  0  0  0
   -0.9670    5.3747   21.3237 C   0  0  0  0  0  0  0  0  0  0  0  0
    0.0892    4.8816   20.5655 C   0  0  0  0  0  0  0  0  0  0  0  0
    0.6937    5.7827   19.6090 C   0  0  0  0  0  0  0  0  0  0  0  0
    1.7609    5.3589   18.8219 O   0  0  0  0  0  0  0  0  0  0  0  0
    0.1931    7.0719   19.4855 N   0  0  0  0  0  0  0  0  0  0  0  0
   -0.8400    7.5162   20.2588 C   0  0  0  0  0  0  0  0  0  0  0  0
   -1.4249    6.7073   21.1561 N   0  0  0  0  0  0  0  0  0  0  0  0
   -1.3232    8.8920   20.1032 N   0  0  0  0  0  0  0  0  0  0  0  0
    7.2608   -0.4507   20.9061 C   0  0  0  0  0  0  0  0  0  0  0  0
    7.3299   -1.1902   21.8860 O   0  0  0  0  0  0  0  0  0  0  0  0
    8.3058   -0.4326   19.9173 N   0  0  0  0  0  0  0  0  0  0  0  0
  1  2  2  0  0  0  0
  1  6  1  0  0  0  0
  1  7  1  0  0  0  0
  2  3  1  0  0  0  0
  3  4  2  0  0  0  0
  4  5  1  0  0  0  0
  4 20  1  0  0  0  0
  5  6  2  0  0  0  0
  7  8  1  0  0  0  0
  8  9  1  0  0  0  0
  9 10  2  0  0  0  0
  9 13  1  0  0  0  0
 10 11  1  0  0  0  0
 11 12  1  0  0  0  0
 12 13  2  0  0  0  0
 12 18  1  0  0  0  0
 13 14  1  0  0  0  0
 14 15  1  0  0  0  0
 14 16  2  0  0  0  0
 16 17  1  0  0  0  0
 17 18  2  0  0  0  0
 17 19  1  0  0  0  0
 20 21  2  0  0  0  0
 20 22  1  0  0  0  0
M  END
>  <CHROM.1>
135.99133944,-178.81340725,150.80904485,-141.78335638,2.42530010,3.39098862
20.58387755,-0.58502522,0.43917298,-0.60530168

>  <Name>
ligand

>  <RI>
0

>  <Rbt.Current_Directory>
/home/itssahil/PROJECTS/Mol_Feturizer/New_Systems/rnas/4LVY

>  <Rbt.Executable>
rbdock ($Id: //depot/dev/client3/rdock/2013.1/src/exe/rbdock.cxx#4 $)

>  <Rbt.Library>
libRbt.so (2013.1, Build901 2013/11/27)

>  <Rbt.Parameter_File>
/export/apps/rDock/src/rDock_2013.1_src/data/scripts/dock_solv.prm

>  <Rbt.Receptor>
prm/pocket_docking_8.prm

>  <SCORE>
-10.2081

>  <SCORE.INTER>
-12.3972

>  <SCORE.INTER.CONST>
1

>  <SCORE.INTER.POLAR>
0

>  <SCORE.INTER.ROT>
4

>  <SCORE.INTER.SOLV>
17.1785

>  <SCORE.INTER.VDW>
-20.2576

>  <SCORE.INTER.norm>
-0.56351

>  <SCORE.INTRA>
2.18908

>  <SCORE.INTRA.DIHEDRAL>
2.92477

>  <SCORE.INTRA.DIHEDRAL.0>
6.18831

>  <SCORE.INTRA.POLAR>
0

>  <SCORE.INTRA.POLAR.0>
0

>  <SCORE.INTRA.REPUL>
0

>  <SCORE.INTRA.REPUL.0>
0

>  <SCORE.INTRA.SOLV>
0.405223

>  <SCORE.INTRA.SOLV.lig_0>
-44.3465

>  <SCORE.INTRA.VDW>
0.524087

>  <SCORE.INTRA.VDW.0>
-0.778272

>  <SCORE.INTRA.norm>
0.0995038

>  <SCORE.RESTR>
0

>  <SCORE.RESTR.CAVITY>
0

>  <SCORE.RESTR.norm>
0

>  <SCORE.SYSTEM>
0

>  <SCORE.SYSTEM.CONST>
0

>  <SCORE.SYSTEM.DIHEDRAL>
0

>  <SCORE.SYSTEM.SOLV>
0

>  <SCORE.SYSTEM.norm>
0

>  <SCORE.heavy>
22

>  <SCORE.norm>
-0.464006

>  <RMSD>
2.909

$$$$
ligand
 OpenBabel11021811503D
libRbt.so/2013.1/901 2013/11/27
 22 24  0  0  0  0  0  0  0  0999 V2000
    1.4212    2.2822   20.4047 C   0  0  0  0  0  0  0  0  0  0  0  0
    2.1989    1.6162   21.3754 C   0  0  0  0  0  0  0  0  0  0  0  0
    3.5657    1.4563   21.1644 C   0  0  0  0  0  0  0  0  0  0  0  0
    4.1481    1.9600   19.9882 C   0  0  0  0  0  0  0  0  0  0  0  0
    3.3668    2.6205   19.0083 C   0  0  0  0  0  0  0  0  0  0  0  0
    2.0039    2.7783   19.2202 C   0  0  0  0  0  0  0  0  0  0  0  0
   -0.0958    2.4516   20.6146 C   0  0  0  0  0  0  0  0  0  0  0  0
   -0.5824    3.9188   20.7169 C   0  0  0  0  0  0  0  0  0  0  0  0
   -0.3548    4.5483   22.0864 C   0  0  0  0  0  0  0  0  0  0  0  0
   -1.2789    4.4919   23.1341 C   0  0  0  0  0  0  0  0  0  0  0  0
   -0.7250    5.1532   24.1838 N   0  0  0  0  0  0  0  0  0  0  0  0
    0.5286    5.6506   23.8881 C   0  0  0  0  0  0  0  0  0  0  0  0
    0.8053    5.2909   22.5737 C   0  0  0  0  0  0  0  0  0  0  0  0
    2.0814    5.7017   22.0305 C   0  0  0  0  0  0  0  0  0  0  0  0
    2.4286    5.3692   20.7240 O   0  0  0  0  0  0  0  0  0  0  0  0
    2.9511    6.4334   22.8282 N   0  0  0  0  0  0  0  0  0  0  0  0
    2.6411    6.7554   24.1176 C   0  0  0  0  0  0  0  0  0  0  0  0
    1.4659    6.3910   24.6540 N   0  0  0  0  0  0  0  0  0  0  0  0
    3.5996    7.5158   24.9261 N   0  0  0  0  0  0  0  0  0  0  0  0
    5.6275    1.7685   19.7832 C   0  0  0  0  0  0  0  0  0  0  0  0
    6.1844    0.7577   20.2075 O   0  0  0  0  0  0  0  0  0  0  0  0
    6.3707    2.7881   19.0918 N   0  0  0  0  0  0  0  0  0  0  0  0
  1  2  2  0  0  0  0
  1  6  1  0  0  0  0
  1  7  1  0  0  0  0
  2  3  1  0  0  0  0
  3  4  2  0  0  0  0
  4  5  1  0  0  0  0
  4 20  1  0  0  0  0
  5  6  2  0  0  0  0
  7  8  1  0  0  0  0
  8  9  1  0  0  0  0
  9 10  2  0  0  0  0
  9 13  1  0  0  0  0
 10 11  1  0  0  0  0
 11 12  1  0  0  0  0
 12 13  2  0  0  0  0
 12 18  1  0  0  0  0
 13 14  1  0  0  0  0
 14 15  1  0  0  0  0
 14 16  2  0  0  0  0
 16 17  1  0  0  0  0
 17 18  2  0  0  0  0
 17 19  1  0  0  0  0
 20 21  2  0  0  0  0
 20 22  1  0  0  0  0
M  END
>  <CHROM.1>
117.58109342,33.46906047,-79.61135769,-89.52230670,2.23949157,4.00756663
21.67266004,0.97276371,-0.06587854,-2.42581365

>  <Name>
ligand

>  <RI>
0

>  <Rbt.Current_Directory>
/home/itssahil/PROJECTS/Mol_Feturizer/New_Systems/rnas/4LVY

>  <Rbt.Executable>
rbdock ($Id: //depot/dev/client3/rdock/2013.1/src/exe/rbdock.cxx#4 $)

>  <Rbt.Library>
libRbt.so (2013.1, Build901 2013/11/27)

>  <Rbt.Parameter_File>
/export/apps/rDock/src/rDock_2013.1_src/data/scripts/dock_solv.prm

>  <Rbt.Receptor>
prm/pocket_docking_8.prm

>  <SCORE>
-17.9576

>  <SCORE.INTER>
-17.4455

>  <SCORE.INTER.CONST>
1

>  <SCORE.INTER.POLAR>
0

>  <SCORE.INTER.ROT>
4

>  <SCORE.INTER.SOLV>
7.42138

>  <SCORE.INTER.VDW>
-20.3708

>  <SCORE.INTER.norm>
-0.792976

>  <SCORE.INTRA>
-0.512119

>  <SCORE.INTRA.DIHEDRAL>
1.45965

>  <SCORE.INTRA.DIHEDRAL.0>
6.18831

>  <SCORE.INTRA.POLAR>
0

>  <SCORE.INTRA.POLAR.0>
0

>  <SCORE.INTRA.REPUL>
0

>  <SCORE.INTRA.REPUL.0>
0

>  <SCORE.INTRA.SOLV>
0.531533

>  <SCORE.INTRA.SOLV.lig_0>
-44.3465

>  <SCORE.INTRA.VDW>
-1.50771

>  <SCORE.INTRA.VDW.0>
-0.778272

>  <SCORE.INTRA.norm>
-0.0232781

>  <SCORE.RESTR>
0

>  <SCORE.RESTR.CAVITY>
0

>  <SCORE.RESTR.norm>
0

>  <SCORE.SYSTEM>
0

>  <SCORE.SYSTEM.CONST>
0

>  <SCORE.SYSTEM.DIHEDRAL>
0

>  <SCORE.SYSTEM.SOLV>
0

>  <SCORE.SYSTEM.norm>
0

>  <SCORE.heavy>
22

>  <SCORE.norm>
-0.816254

>  <RMSD>
3.215

$$$$
ligand
 OpenBabel11021811503D
libRbt.so/2013.1/901 2013/11/27
 22 24  0  0  0  0  0  0  0  0999 V2000
    1.4440    2.2669   20.4036 C   0  0  0  0  0  0  0  0  0  0  0  0
    2.2382    1.5921   21.3547 C   0  0  0  0  0  0  0  0  0  0  0  0
    3.6039    1.4477   21.1259 C   0  0  0  0  0  0  0  0  0  0  0  0
    4.1687    1.9754   19.9517 C   0  0  0  0  0  0  0  0  0  0  0  0
    3.3708    2.6449   18.9915 C   0  0  0  0  0  0  0  0  0  0  0  0
    2.0091    2.7872   19.2210 C   0  0  0  0  0  0  0  0  0  0  0  0
   -0.0720    2.4196   20.6332 C   0  0  0  0  0  0  0  0  0  0  0  0
   -0.5746    3.8815   20.7331 C   0  0  0  0  0  0  0  0  0  0  0  0
   -0.3270    4.5256   22.0922 C   0  0  0  0  0  0  0  0  0  0  0  0
   -1.2453    4.5004   23.1463 C   0  0  0  0  0  0  0  0  0  0  0  0
   -0.6728    5.1660   24.1833 N   0  0  0  0  0  0  0  0  0  0  0  0
    0.5876    5.6364   23.8730 C   0  0  0  0  0  0  0  0  0  0  0  0
    0.8494    5.2537   22.5621 C   0  0  0  0  0  0  0  0  0  0  0  0
    2.1292    5.6338   22.0054 C   0  0  0  0  0  0  0  0  0  0  0  0
    2.4621    5.2770   20.7016 O   0  0  0  0  0  0  0  0  0  0  0  0
    3.0171    6.3604   22.7875 N   0  0  0  0  0  0  0  0  0  0  0  0
    2.7212    6.7058   24.0742 C   0  0  0  0  0  0  0  0  0  0  0  0
    1.5430    6.3702   24.6228 N   0  0  0  0  0  0  0  0  0  0  0  0
    3.6984    7.4598   24.8662 N   0  0  0  0  0  0  0  0  0  0  0  0
    5.6473    1.8003   19.7272 C   0  0  0  0  0  0  0  0  0  0  0  0
    6.2207    0.7952   20.1431 O   0  0  0  0  0  0  0  0  0  0  0  0
    6.3703    2.8285   19.0272 N   0  0  0  0  0  0  0  0  0  0  0  0
  1  2  2  0  0  0  0
  1  6  1  0  0  0  0
  1  7  1  0  0  0  0
  2  3  1  0  0  0  0
  3  4  2  0  0  0  0
  4  5  1  0  0  0  0
  4 20  1  0  0  0  0
  5  6  2  0  0  0  0
  7  8  1  0  0  0  0
  8  9  1  0  0  0  0
  9 10  2  0  0  0  0
  9 13  1  0  0  0  0
 10 11  1  0  0  0  0
 11 12  1  0  0  0  0
 12 13  2  0  0  0  0
 12 18  1  0  0  0  0
 13 14  1  0  0  0  0
 14 15  1  0  0  0  0
 14 16  2  0  0  0  0
 16 17  1  0  0  0  0
 17 18  2  0  0  0  0
 17 19  1  0  0  0  0
 20 21  2  0  0  0  0
 20 22  1  0  0  0  0
M  END
>  <CHROM.1>
118.88704724,32.57624144,-79.19186561,-91.47539702,2.27788706,3.99007381
21.64955011,0.96860994,-0.07511528,-2.42128778

>  <Name>
ligand

>  <RI>
0

>  <Rbt.Current_Directory>
/home/itssahil/PROJECTS/Mol_Feturizer/New_Systems/rnas/4LVY

>  <Rbt.Executable>
rbdock ($Id: //depot/dev/client3/rdock/2013.1/src/exe/rbdock.cxx#4 $)

>  <Rbt.Library>
libRbt.so (2013.1, Build901 2013/11/27)

>  <Rbt.Parameter_File>
/export/apps/rDock/src/rDock_2013.1_src/data/scripts/dock_solv.prm

>  <Rbt.Receptor>
prm/pocket_docking_4.prm

>  <SCORE>
-18.0362

>  <SCORE.INTER>
-17.4922

>  <SCORE.INTER.CONST>
1

>  <SCORE.INTER.POLAR>
0

>  <SCORE.INTER.ROT>
4

>  <SCORE.INTER.SOLV>
6.944

>  <SCORE.INTER.VDW>
-20.2428

>  <SCORE.INTER.norm>
-0.795098

>  <SCORE.INTRA>
-0.544081

>  <SCORE.INTRA.DIHEDRAL>
1.39723

>  <SCORE.INTRA.DIHEDRAL.0>
6.18831

>  <SCORE.INTRA.POLAR>
0

>  <SCORE.INTRA.POLAR.0>
0

>  <SCORE.INTRA.REPUL>
0

>  <SCORE.INTRA.REPUL.0>
0

>  <SCORE.INTRA.SOLV>
0.607514

>  <SCORE.INTRA.SOLV.lig_0>
-44.3465

>  <SCORE.INTRA.VDW>
-1.54645

>  <SCORE.INTRA.VDW.0>
-0.778272

>  <SCORE.INTRA.norm>
-0.024731

>  <SCORE.RESTR>
0

>  <SCORE.RESTR.CAVITY>
0

>  <SCORE.RESTR.norm>
0

>  <SCORE.SYSTEM>
0

>  <SCORE.SYSTEM.CONST>
0

>  <SCORE.SYSTEM.DIHEDRAL>
0

>  <SCORE.SYSTEM.SOLV>
0

>  <SCORE.SYSTEM.norm>
0

>  <SCORE.heavy>
22

>  <SCORE.norm>
-0.819829

>  <RMSD>
3.223

$$$$
ligand
 OpenBabel11021811503D
libRbt.so/2013.1/901 2013/11/27
 22 24  0  0  0  0  0  0  0  0999 V2000
    1.4789    2.2372   20.3815 C   0  0  0  0  0  0  0  0  0  0  0  0
    2.0586    2.7530   19.2031 C   0  0  0  0  0  0  0  0  0  0  0  0
    3.4315    2.6316   19.0067 C   0  0  0  0  0  0  0  0  0  0  0  0
    4.2174    1.9983   19.9853 C   0  0  0  0  0  0  0  0  0  0  0  0
    3.6381    1.4884   21.1732 C   0  0  0  0  0  0  0  0  0  0  0  0
    2.2690    1.6111   21.3676 C   0  0  0  0  0  0  0  0  0  0  0  0
   -0.0363    2.3794   20.6224 C   0  0  0  0  0  0  0  0  0  0  0  0
   -0.5512    3.8380   20.7072 C   0  0  0  0  0  0  0  0  0  0  0  0
   -0.3246    4.4923   22.0651 C   0  0  0  0  0  0  0  0  0  0  0  0
   -1.2567    4.4703   23.1070 C   0  0  0  0  0  0  0  0  0  0  0  0
   -0.7010    5.1455   24.1469 N   0  0  0  0  0  0  0  0  0  0  0  0
    0.5614    5.6192   23.8503 C   0  0  0  0  0  0  0  0  0  0  0  0
    0.8423    5.2288   22.5456 C   0  0  0  0  0  0  0  0  0  0  0  0
    2.1278    5.6106   22.0035 C   0  0  0  0  0  0  0  0  0  0  0  0
    2.4796    5.2464   20.7067 O   0  0  0  0  0  0  0  0  0  0  0  0
    3.0021    6.3465   22.7923 N   0  0  0  0  0  0  0  0  0  0  0  0
    2.6875    6.6993   24.0726 C   0  0  0  0  0  0  0  0  0  0  0  0
    1.5035    6.3623   24.6077 N   0  0  0  0  0  0  0  0  0  0  0  0
    3.6508    7.4628   24.8723 N   0  0  0  0  0  0  0  0  0  0  0  0
    5.7003    1.8854   19.7496 C   0  0  0  0  0  0  0  0  0  0  0  0
    6.2909    2.7491   19.1036 O   0  0  0  0  0  0  0  0  0  0  0  0
    6.4047    0.7514   20.2862 N   0  0  0  0  0  0  0  0  0  0  0  0
  1  2  2  0  0  0  0
  1  6  1  0  0  0  0
  1  7  1  0  0  0  0
  2  3  1  0  0  0  0
  3  4  2  0  0  0  0
  4  5  1  0  0  0  0
  4 20  1  0  0  0  0
  5  6  2  0  0  0  0
  7  8  1  0  0  0  0
  8  9  1  0  0  0  0
  9 10  2  0  0  0  0
  9 13  1  0  0  0  0
 10 11  1  0  0  0  0
 11 12  1  0  0  0  0
 12 13  2  0  0  0  0
 12 18  1  0  0  0  0
 13 14  1  0  0  0  0
 14 15  1  0  0  0  0
 14 16  2  0  0  0  0
 16 17  1  0  0  0  0
 17 18  2  0  0  0  0
 17 19  1  0  0  0  0
 20 21  2  0  0  0  0
 20 22  1  0  0  0  0
M  END
>  <CHROM.1>
-61.57936159,30.92010308,-80.43846229,-91.69316222,2.29081183,3.98804091
21.64881582,0.95163680,-0.07287582,-2.41826786

>  <Name>
ligand

>  <RI>
0

>  <Rbt.Current_Directory>
/home/itssahil/PROJECTS/Mol_Feturizer/New_Systems/rnas/4LVY

>  <Rbt.Executable>
rbdock ($Id: //depot/dev/client3/rdock/2013.1/src/exe/rbdock.cxx#4 $)

>  <Rbt.Library>
libRbt.so (2013.1, Build901 2013/11/27)

>  <Rbt.Parameter_File>
/export/apps/rDock/src/rDock_2013.1_src/data/scripts/dock_solv.prm

>  <Rbt.Receptor>
prm/pocket_docking_5.prm

>  <SCORE>
-17.6927

>  <SCORE.INTER>
-17.2035

>  <SCORE.INTER.CONST>
1

>  <SCORE.INTER.POLAR>
0

>  <SCORE.INTER.ROT>
4

>  <SCORE.INTER.SOLV>
7.36795

>  <SCORE.INTER.VDW>
-20.1917

>  <SCORE.INTER.norm>
-0.781979

>  <SCORE.INTRA>
-0.489154

>  <SCORE.INTRA.DIHEDRAL>
1.55313

>  <SCORE.INTRA.DIHEDRAL.0>
6.18831

>  <SCORE.INTRA.POLAR>
0

>  <SCORE.INTRA.POLAR.0>
0

>  <SCORE.INTRA.REPUL>
0

>  <SCORE.INTRA.REPUL.0>
0

>  <SCORE.INTRA.SOLV>
0.622311

>  <SCORE.INTRA.SOLV.lig_0>
-44.3465

>  <SCORE.INTRA.VDW>
-1.57687

>  <SCORE.INTRA.VDW.0>
-0.778272

>  <SCORE.INTRA.norm>
-0.0222343

>  <SCORE.RESTR>
0

>  <SCORE.RESTR.CAVITY>
0

>  <SCORE.RESTR.norm>
0

>  <SCORE.SYSTEM>
0

>  <SCORE.SYSTEM.CONST>
0

>  <SCORE.SYSTEM.DIHEDRAL>
0

>  <SCORE.SYSTEM.SOLV>
0

>  <SCORE.SYSTEM.norm>
0

>  <SCORE.heavy>
22

>  <SCORE.norm>
-0.804213

>  <RMSD>
3.258

$$$$
ligand
 OpenBabel11021811503D
libRbt.so/2013.1/901 2013/11/27
 22 24  0  0  0  0  0  0  0  0999 V2000
    1.4419    2.2435   20.3928 C   0  0  0  0  0  0  0  0  0  0  0  0
    2.0087    2.7305   19.1961 C   0  0  0  0  0  0  0  0  0  0  0  0
    3.3751    2.5797   18.9758 C   0  0  0  0  0  0  0  0  0  0  0  0
    4.1673    1.9460   19.9489 C   0  0  0  0  0  0  0  0  0  0  0  0
    3.6012    1.4651   21.1552 C   0  0  0  0  0  0  0  0  0  0  0  0
    2.2387    1.6170   21.3733 C   0  0  0  0  0  0  0  0  0  0  0  0
   -0.0655    2.4184   20.6599 C   0  0  0  0  0  0  0  0  0  0  0  0
   -0.5502    3.8877   20.7364 C   0  0  0  0  0  0  0  0  0  0  0  0
   -0.3326    4.5371   22.0982 C   0  0  0  0  0  0  0  0  0  0  0  0
   -1.2746    4.5178   23.1312 C   0  0  0  0  0  0  0  0  0  0  0  0
   -0.7248    5.1869   24.1781 N   0  0  0  0  0  0  0  0  0  0  0  0
    0.5431    5.6540   23.8946 C   0  0  0  0  0  0  0  0  0  0  0  0
    0.8340    5.2654   22.5916 C   0  0  0  0  0  0  0  0  0  0  0  0
    2.1268    5.6412   22.0627 C   0  0  0  0  0  0  0  0  0  0  0  0
    2.4887    5.2784   20.7682 O   0  0  0  0  0  0  0  0  0  0  0  0
    2.9978    6.3698   22.8617 N   0  0  0  0  0  0  0  0  0  0  0  0
    2.6732    6.7211   24.1399 C   0  0  0  0  0  0  0  0  0  0  0  0
    1.4823    6.3896   24.6630 N   0  0  0  0  0  0  0  0  0  0  0  0
    3.6334    7.4768   24.9508 N   0  0  0  0  0  0  0  0  0  0  0  0
    5.6430    1.8011   19.6872 C   0  0  0  0  0  0  0  0  0  0  0  0
    6.2100    2.5635   18.9066 O   0  0  0  0  0  0  0  0  0  0  0  0
    6.3684    0.7560   20.3593 N   0  0  0  0  0  0  0  0  0  0  0  0
  1  2  2  0  0  0  0
  1  6  1  0  0  0  0
  1  7  1  0  0  0  0
  2  3  1  0  0  0  0
  3  4  2  0  0  0  0
  4  5  1  0  0  0  0
  4 20  1  0  0  0  0
  5  6  2  0  0  0  0
  7  8  1  0  0  0  0
  8  9  1  0  0  0  0
  9 10  2  0  0  0  0
  9 13  1  0  0  0  0
 10 11  1  0  0  0  0
 11 12  1  0  0  0  0
 12 13  2  0  0  0  0
 12 18  1  0  0  0  0
 13 14  1  0  0  0  0
 14 15  1  0  0  0  0
 14 16  2  0  0  0  0
 16 17  1  0  0  0  0
 17 18  2  0  0  0  0
 17 19  1  0  0  0  0
 20 21  2  0  0  0  0
 20 22  1  0  0  0  0
M  END
>  <CHROM.1>
-61.75383174,23.40930873,-82.59519985,-90.68222551,2.26420406,3.98894591
21.66528419,0.97561183,-0.06562222,-2.40991576

>  <Name>
ligand

>  <RI>
0

>  <Rbt.Current_Directory>
/home/itssahil/PROJECTS/Mol_Feturizer/New_Systems/rnas/4LVY

>  <Rbt.Executable>
rbdock ($Id: //depot/dev/client3/rdock/2013.1/src/exe/rbdock.cxx#4 $)

>  <Rbt.Library>
libRbt.so (2013.1, Build901 2013/11/27)

>  <Rbt.Parameter_File>
/export/apps/rDock/src/rDock_2013.1_src/data/scripts/dock_solv.prm

>  <Rbt.Receptor>
prm/pocket_docking_8.prm

>  <SCORE>
-17.738

>  <SCORE.INTER>
-17.4643

>  <SCORE.INTER.CONST>
1

>  <SCORE.INTER.POLAR>
0

>  <SCORE.INTER.ROT>
4

>  <SCORE.INTER.SOLV>
8.04658

>  <SCORE.INTER.VDW>
-20.5917

>  <SCORE.INTER.norm>
-0.793832

>  <SCORE.INTRA>
-0.273735

>  <SCORE.INTRA.DIHEDRAL>
1.86558

>  <SCORE.INTRA.DIHEDRAL.0>
6.18831

>  <SCORE.INTRA.POLAR>
0

>  <SCORE.INTRA.POLAR.0>
0

>  <SCORE.INTRA.REPUL>
0

>  <SCORE.INTRA.REPUL.0>
0

>  <SCORE.INTRA.SOLV>
0.570887

>  <SCORE.INTRA.SOLV.lig_0>
-44.3465

>  <SCORE.INTRA.VDW>
-1.49197

>  <SCORE.INTRA.VDW.0>
-0.778272

>  <SCORE.INTRA.norm>
-0.0124425

>  <SCORE.RESTR>
0

>  <SCORE.RESTR.CAVITY>
0

>  <SCORE.RESTR.norm>
0

>  <SCORE.SYSTEM>
0

>  <SCORE.SYSTEM.CONST>
0

>  <SCORE.SYSTEM.DIHEDRAL>
0

>  <SCORE.SYSTEM.SOLV>
0

>  <SCORE.SYSTEM.norm>
0

>  <SCORE.heavy>
22

>  <SCORE.norm>
-0.806274

>  <RMSD>
3.270

$$$$
ligand
 OpenBabel11021811503D
libRbt.so/2013.1/901 2013/11/27
 22 24  0  0  0  0  0  0  0  0999 V2000
    1.4134    2.2562   20.3813 C   0  0  0  0  0  0  0  0  0  0  0  0
    1.9997    2.7994   19.2186 C   0  0  0  0  0  0  0  0  0  0  0  0
    3.3683    2.6515   19.0100 C   0  0  0  0  0  0  0  0  0  0  0  0
    4.1431    1.9646   19.9607 C   0  0  0  0  0  0  0  0  0  0  0  0
    3.5573    1.4269   21.1332 C   0  0  0  0  0  0  0  0  0  0  0  0
    2.1927    1.5761   21.3398 C   0  0  0  0  0  0  0  0  0  0  0  0
   -0.0966    2.4268   20.6359 C   0  0  0  0  0  0  0  0  0  0  0  0
   -0.5822    3.8947   20.7321 C   0  0  0  0  0  0  0  0  0  0  0  0
   -0.3352    4.5364   22.0926 C   0  0  0  0  0  0  0  0  0  0  0  0
   -1.2542    4.5101   23.1459 C   0  0  0  0  0  0  0  0  0  0  0  0
   -0.6820    5.1737   24.1844 N   0  0  0  0  0  0  0  0  0  0  0  0
    0.5789    5.6437   23.8758 C   0  0  0  0  0  0  0  0  0  0  0  0
    0.8414    5.2629   22.5644 C   0  0  0  0  0  0  0  0  0  0  0  0
    2.1219    5.6431   22.0093 C   0  0  0  0  0  0  0  0  0  0  0  0
    2.4554    5.2882   20.7052 O   0  0  0  0  0  0  0  0  0  0  0  0
    3.0097    6.3679   22.7932 N   0  0  0  0  0  0  0  0  0  0  0  0
    2.7130    6.7114   24.0803 C   0  0  0  0  0  0  0  0  0  0  0  0
    1.5342    6.3757   24.6275 N   0  0  0  0  0  0  0  0  0  0  0  0
    3.6902    7.4633   24.8742 N   0  0  0  0  0  0  0  0  0  0  0  0
    5.6216    1.8239   19.7125 C   0  0  0  0  0  0  0  0  0  0  0  0
    6.0568    1.8121   18.5625 O   0  0  0  0  0  0  0  0  0  0  0  0
    6.5064    1.6978   20.8400 N   0  0  0  0  0  0  0  0  0  0  0  0
  1  2  2  0  0  0  0
  1  6  1  0  0  0  0
  1  7  1  0  0  0  0
  2  3  1  0  0  0  0
  3  4  2  0  0  0  0
  4  5  1  0  0  0  0
  4 20  1  0  0  0  0
  5  6  2  0  0  0  0
  7  8  1  0  0  0  0
  8  9  1  0  0  0  0
  9 10  2  0  0  0  0
  9 13  1  0  0  0  0
 10 11  1  0  0  0  0
 11 12  1  0  0  0  0
 12 13  2  0  0  0  0
 12 18  1  0  0  0  0
 13 14  1  0  0  0  0
 14 15  1  0  0  0  0
 14 16  2  0  0  0  0
 16 17  1  0  0  0  0
 17 18  2  0  0  0  0
 17 19  1  0  0  0  0
 20 21  2  0  0  0  0
 20 22  1  0  0  0  0
M  END
>  <CHROM.1>
-59.78074523,-27.98243457,-80.62262039,-90.74351399,2.26190867,3.99589261
21.65097507,0.97870497,-0.05331274,-2.39405470

>  <Name>
ligand

>  <RI>
0

>  <Rbt.Current_Directory>
/home/itssahil/PROJECTS/Mol_Feturizer/New_Systems/rnas/4LVY

>  <Rbt.Executable>
rbdock ($Id: //depot/dev/client3/rdock/2013.1/src/exe/rbdock.cxx#4 $)

>  <Rbt.Library>
libRbt.so (2013.1, Build901 2013/11/27)

>  <Rbt.Parameter_File>
/export/apps/rDock/src/rDock_2013.1_src/data/scripts/dock_solv.prm

>  <Rbt.Receptor>
prm/pocket_docking_8.prm

>  <SCORE>
-17.7508

>  <SCORE.INTER>
-17.3687

>  <SCORE.INTER.CONST>
1

>  <SCORE.INTER.POLAR>
0

>  <SCORE.INTER.ROT>
4

>  <SCORE.INTER.SOLV>
7.24625

>  <SCORE.INTER.VDW>
-20.2612

>  <SCORE.INTER.norm>
-0.789487

>  <SCORE.INTRA>
-0.382144

>  <SCORE.INTRA.DIHEDRAL>
1.64105

>  <SCORE.INTRA.DIHEDRAL.0>
6.18831

>  <SCORE.INTRA.POLAR>
0

>  <SCORE.INTRA.POLAR.0>
0

>  <SCORE.INTRA.REPUL>
0

>  <SCORE.INTRA.REPUL.0>
0

>  <SCORE.INTRA.SOLV>
0.596414

>  <SCORE.INTRA.SOLV.lig_0>
-44.3465

>  <SCORE.INTRA.VDW>
-1.50088

>  <SCORE.INTRA.VDW.0>
-0.778272

>  <SCORE.INTRA.norm>
-0.0173702

>  <SCORE.RESTR>
0

>  <SCORE.RESTR.CAVITY>
0

>  <SCORE.RESTR.norm>
0

>  <SCORE.SYSTEM>
0

>  <SCORE.SYSTEM.CONST>
0

>  <SCORE.SYSTEM.DIHEDRAL>
0

>  <SCORE.SYSTEM.SOLV>
0

>  <SCORE.SYSTEM.norm>
0

>  <SCORE.heavy>
22

>  <SCORE.norm>
-0.806857

>  <RMSD>
3.273

$$$$
ligand
 OpenBabel11021811503D
libRbt.so/2013.1/901 2013/11/27
 22 24  0  0  0  0  0  0  0  0999 V2000
    1.4453    2.2603   20.3814 C   0  0  0  0  0  0  0  0  0  0  0  0
    2.0165    2.7671   19.1950 C   0  0  0  0  0  0  0  0  0  0  0  0
    3.3811    2.6069   18.9705 C   0  0  0  0  0  0  0  0  0  0  0  0
    4.1672    1.9442   19.9292 C   0  0  0  0  0  0  0  0  0  0  0  0
    3.5967    1.4432   21.1252 C   0  0  0  0  0  0  0  0  0  0  0  0
    2.2359    1.6045   21.3475 C   0  0  0  0  0  0  0  0  0  0  0  0
   -0.0601    2.4451   20.6533 C   0  0  0  0  0  0  0  0  0  0  0  0
   -0.5334    3.9176   20.7393 C   0  0  0  0  0  0  0  0  0  0  0  0
   -0.3138    4.5554   22.1063 C   0  0  0  0  0  0  0  0  0  0  0  0
   -1.2567    4.5325   23.1384 C   0  0  0  0  0  0  0  0  0  0  0  0
   -0.7046    5.1909   24.1909 N   0  0  0  0  0  0  0  0  0  0  0  0
    0.5657    5.6543   23.9119 C   0  0  0  0  0  0  0  0  0  0  0  0
    0.8558    5.2744   22.6061 C   0  0  0  0  0  0  0  0  0  0  0  0
    2.1507    5.6482   22.0810 C   0  0  0  0  0  0  0  0  0  0  0  0
    2.5118    5.2938   20.7841 O   0  0  0  0  0  0  0  0  0  0  0  0
    3.0245    6.3666   22.8863 N   0  0  0  0  0  0  0  0  0  0  0  0
    2.7006    6.7094   24.1670 C   0  0  0  0  0  0  0  0  0  0  0  0
    1.5078    6.3795   24.6866 N   0  0  0  0  0  0  0  0  0  0  0  0
    3.6637    7.4544   24.9843 N   0  0  0  0  0  0  0  0  0  0  0  0
    5.6412    1.7896   19.6634 C   0  0  0  0  0  0  0  0  0  0  0  0
    6.2091    2.5423   18.8742 O   0  0  0  0  0  0  0  0  0  0  0  0
    6.3639    0.7466   20.3417 N   0  0  0  0  0  0  0  0  0  0  0  0
  1  2  2  0  0  0  0
  1  6  1  0  0  0  0
  1  7  1  0  0  0  0
  2  3  1  0  0  0  0
  3  4  2  0  0  0  0
  4  5  1  0  0  0  0
  4 20  1  0  0  0  0
  5  6  2  0  0  0  0
  7  8  1  0  0  0  0
  8  9  1  0  0  0  0
  9 10  2  0  0  0  0
  9 13  1  0  0  0  0
 10 11  1  0  0  0  0
 11 12  1  0  0  0  0
 12 13  2  0  0  0  0
 12 18  1  0  0  0  0
 13 14  1  0  0  0  0
 14 15  1  0  0  0  0
 14 16  2  0  0  0  0
 16 17  1  0  0  0  0
 17 18  2  0  0  0  0
 17 19  1  0  0  0  0
 20 21  2  0  0  0  0
 20 22  1  0  0  0  0
M  END
>  <CHROM.1>
-60.82282313,21.64521000,-82.88085823,-90.47954798,2.27723394,3.99235685
21.66691372,0.98240529,-0.06238593,-2.40298062

>  <Name>
ligand

>  <RI>
0

>  <Rbt.Current_Directory>
/home/itssahil/PROJECTS/Mol_Feturizer/New_Systems/rnas/4LVY

>  <Rbt.Executable>
rbdock ($Id: //depot/dev/client3/rdock/2013.1/src/exe/rbdock.cxx#4 $)

>  <Rbt.Library>
libRbt.so (2013.1, Build901 2013/11/27)

>  <Rbt.Parameter_File>
/export/apps/rDock/src/rDock_2013.1_src/data/scripts/dock_solv.prm

>  <Rbt.Receptor>
prm/pocket_docking_4.prm

>  <SCORE>
-17.749

>  <SCORE.INTER>
-17.5277

>  <SCORE.INTER.CONST>
1

>  <SCORE.INTER.POLAR>
0

>  <SCORE.INTER.ROT>
4

>  <SCORE.INTER.SOLV>
8.12961

>  <SCORE.INTER.VDW>
-20.6617

>  <SCORE.INTER.norm>
-0.796713

>  <SCORE.INTRA>
-0.22128

>  <SCORE.INTRA.DIHEDRAL>
1.9127

>  <SCORE.INTRA.DIHEDRAL.0>
6.18831

>  <SCORE.INTRA.POLAR>
0

>  <SCORE.INTRA.POLAR.0>
0

>  <SCORE.INTRA.REPUL>
0

>  <SCORE.INTRA.REPUL.0>
0

>  <SCORE.INTRA.SOLV>
0.564959

>  <SCORE.INTRA.SOLV.lig_0>
-44.3465

>  <SCORE.INTRA.VDW>
-1.46011

>  <SCORE.INTRA.VDW.0>
-0.778272

>  <SCORE.INTRA.norm>
-0.0100582

>  <SCORE.RESTR>
0

>  <SCORE.RESTR.CAVITY>
0

>  <SCORE.RESTR.norm>
0

>  <SCORE.SYSTEM>
0

>  <SCORE.SYSTEM.CONST>
0

>  <SCORE.SYSTEM.DIHEDRAL>
0

>  <SCORE.SYSTEM.SOLV>
0

>  <SCORE.SYSTEM.norm>
0

>  <SCORE.heavy>
22

>  <SCORE.norm>
-0.806771

>  <RMSD>
3.274

$$$$
ligand
 OpenBabel11021811503D
libRbt.so/2013.1/901 2013/11/27
 22 24  0  0  0  0  0  0  0  0999 V2000
    1.3798    2.2654   20.3701 C   0  0  0  0  0  0  0  0  0  0  0  0
    1.9677    2.8021   19.2052 C   0  0  0  0  0  0  0  0  0  0  0  0
    3.3350    2.6449   18.9948 C   0  0  0  0  0  0  0  0  0  0  0  0
    4.1070    1.9555   19.9461 C   0  0  0  0  0  0  0  0  0  0  0  0
    3.5196    1.4244   21.1207 C   0  0  0  0  0  0  0  0  0  0  0  0
    2.1563    1.5828   21.3291 C   0  0  0  0  0  0  0  0  0  0  0  0
   -0.1287    2.4462   20.6266 C   0  0  0  0  0  0  0  0  0  0  0  0
   -0.6041    3.9173   20.7244 C   0  0  0  0  0  0  0  0  0  0  0  0
   -0.3677    4.5506   22.0907 C   0  0  0  0  0  0  0  0  0  0  0  0
   -1.2791    4.4854   23.1490 C   0  0  0  0  0  0  0  0  0  0  0  0
   -0.7203    5.1538   24.1916 N   0  0  0  0  0  0  0  0  0  0  0  0
    0.5244    5.6641   23.8812 C   0  0  0  0  0  0  0  0  0  0  0  0
    0.7899    5.3061   22.5640 C   0  0  0  0  0  0  0  0  0  0  0  0
    2.0553    5.7299   22.0059 C   0  0  0  0  0  0  0  0  0  0  0  0
    2.3912    5.3997   20.6959 O   0  0  0  0  0  0  0  0  0  0  0  0
    2.9262    6.4716   22.7930 N   0  0  0  0  0  0  0  0  0  0  0  0
    2.6275    6.7917   24.0856 C   0  0  0  0  0  0  0  0  0  0  0  0
    1.4624    6.4153   24.6357 N   0  0  0  0  0  0  0  0  0  0  0  0
    3.5870    7.5631   24.8824 N   0  0  0  0  0  0  0  0  0  0  0  0
    5.5841    1.8048   19.6959 C   0  0  0  0  0  0  0  0  0  0  0  0
    6.0203    1.8133   18.5462 O   0  0  0  0  0  0  0  0  0  0  0  0
    6.4666    1.6453   20.8210 N   0  0  0  0  0  0  0  0  0  0  0  0
  1  2  2  0  0  0  0
  1  6  1  0  0  0  0
  1  7  1  0  0  0  0
  2  3  1  0  0  0  0
  3  4  2  0  0  0  0
  4  5  1  0  0  0  0
  4 20  1  0  0  0  0
  5  6  2  0  0  0  0
  7  8  1  0  0  0  0
  8  9  1  0  0  0  0
  9 10  2  0  0  0  0
  9 13  1  0  0  0  0
 10 11  1  0  0  0  0
 11 12  1  0  0  0  0
 12 13  2  0  0  0  0
 12 18  1  0  0  0  0
 13 14  1  0  0  0  0
 14 15  1  0  0  0  0
 14 16  2  0  0  0  0
 16 17  1  0  0  0  0
 17 18  2  0  0  0  0
 17 19  1  0  0  0  0
 20 21  2  0  0  0  0
 20 22  1  0  0  0  0
M  END
>  <CHROM.1>
-59.96466327,-26.57898767,-81.38160632,-88.36989326,2.21357905,4.02106515
21.64530426,0.98805469,-0.05978285,-2.40470105

>  <Name>
ligand

>  <RI>
0

>  <Rbt.Current_Directory>
/home/itssahil/PROJECTS/Mol_Feturizer/New_Systems/rnas/4LVY

>  <Rbt.Executable>
rbdock ($Id: //depot/dev/client3/rdock/2013.1/src/exe/rbdock.cxx#4 $)

>  <Rbt.Library>
libRbt.so (2013.1, Build901 2013/11/27)

>  <Rbt.Parameter_File>
/export/apps/rDock/src/rDock_2013.1_src/data/scripts/dock_solv.prm

>  <Rbt.Receptor>
prm/pocket_docking_5.prm

>  <SCORE>
-17.6743

>  <SCORE.INTER>
-17.3856

>  <SCORE.INTER.CONST>
1

>  <SCORE.INTER.POLAR>
0

>  <SCORE.INTER.ROT>
4

>  <SCORE.INTER.SOLV>
7.78769

>  <SCORE.INTER.VDW>
-20.4529

>  <SCORE.INTER.norm>
-0.790253

>  <SCORE.INTRA>
-0.288732

>  <SCORE.INTRA.DIHEDRAL>
1.74838

>  <SCORE.INTRA.DIHEDRAL.0>
6.18831

>  <SCORE.INTRA.POLAR>
0

>  <SCORE.INTRA.POLAR.0>
0

>  <SCORE.INTRA.REPUL>
0

>  <SCORE.INTRA.REPUL.0>
0

>  <SCORE.INTRA.SOLV>
0.507828

>  <SCORE.INTRA.SOLV.lig_0>
-44.3465

>  <SCORE.INTRA.VDW>
-1.41684

>  <SCORE.INTRA.VDW.0>
-0.778272

>  <SCORE.INTRA.norm>
-0.0131242

>  <SCORE.RESTR>
0

>  <SCORE.RESTR.CAVITY>
0

>  <SCORE.RESTR.norm>
0

>  <SCORE.SYSTEM>
0

>  <SCORE.SYSTEM.CONST>
0

>  <SCORE.SYSTEM.DIHEDRAL>
0

>  <SCORE.SYSTEM.SOLV>
0

>  <SCORE.SYSTEM.norm>
0

>  <SCORE.heavy>
22

>  <SCORE.norm>
-0.803377

>  <RMSD>
3.275

$$$$
ligand
 OpenBabel11021811503D
libRbt.so/2013.1/901 2013/11/27
 22 24  0  0  0  0  0  0  0  0999 V2000
    1.3192    2.3086   20.3857 C   0  0  0  0  0  0  0  0  0  0  0  0
    2.1096    1.5931   21.3098 C   0  0  0  0  0  0  0  0  0  0  0  0
    3.4706    1.4318   21.0647 C   0  0  0  0  0  0  0  0  0  0  0  0
    4.0344    1.9833   19.9010 C   0  0  0  0  0  0  0  0  0  0  0  0
    3.2402    2.6937   18.9676 C   0  0  0  0  0  0  0  0  0  0  0  0
    1.8832    2.8529   19.2134 C   0  0  0  0  0  0  0  0  0  0  0  0
   -0.1919    2.4806   20.6332 C   0  0  0  0  0  0  0  0  0  0  0  0
   -0.6742    3.9489   20.7407 C   0  0  0  0  0  0  0  0  0  0  0  0
   -0.4228    4.5805   22.1049 C   0  0  0  0  0  0  0  0  0  0  0  0
   -1.3343    4.5378   23.1643 C   0  0  0  0  0  0  0  0  0  0  0  0
   -0.7602    5.1968   24.2046 N   0  0  0  0  0  0  0  0  0  0  0  0
    0.4948    5.6795   23.8915 C   0  0  0  0  0  0  0  0  0  0  0  0
    0.7512    5.3122   22.5751 C   0  0  0  0  0  0  0  0  0  0  0  0
    2.0248    5.7073   22.0147 C   0  0  0  0  0  0  0  0  0  0  0  0
    2.3521    5.3665   20.7052 O   0  0  0  0  0  0  0  0  0  0  0  0
    2.9123    6.4323   22.7988 N   0  0  0  0  0  0  0  0  0  0  0  0
    2.6218    6.7621   24.0909 C   0  0  0  0  0  0  0  0  0  0  0  0
    1.4495    6.4124   24.6431 N   0  0  0  0  0  0  0  0  0  0  0  0
    3.5985    7.5149   24.8846 N   0  0  0  0  0  0  0  0  0  0  0  0
    5.5077    1.7892   19.6582 C   0  0  0  0  0  0  0  0  0  0  0  0
    6.1148    0.8862   20.2309 O   0  0  0  0  0  0  0  0  0  0  0  0
    6.1861    2.6798   18.7544 N   0  0  0  0  0  0  0  0  0  0  0  0
  1  2  2  0  0  0  0
  1  6  1  0  0  0  0
  1  7  1  0  0  0  0
  2  3  1  0  0  0  0
  3  4  2  0  0  0  0
  4  5  1  0  0  0  0
  4 20  1  0  0  0  0
  5  6  2  0  0  0  0
  7  8  1  0  0  0  0
  8  9  1  0  0  0  0
  9 10  2  0  0  0  0
  9 13  1  0  0  0  0
 10 11  1  0  0  0  0
 11 12  1  0  0  0  0
 12 13  2  0  0  0  0
 12 18  1  0  0  0  0
 13 14  1  0  0  0  0
 14 15  1  0  0  0  0
 14 16  2  0  0  0  0
 16 17  1  0  0  0  0
 17 18  2  0  0  0  0
 17 19  1  0  0  0  0
 20 21  2  0  0  0  0
 20 22  1  0  0  0  0
M  END
>  <CHROM.1>
120.48934351,20.03874616,-80.13566227,-90.10732383,2.16436384,4.02832851
21.63732180,0.98608359,-0.07659224,-2.41623971

>  <Name>
ligand

>  <RI>
0

>  <Rbt.Current_Directory>
/home/itssahil/PROJECTS/Mol_Feturizer/New_Systems/rnas/4LVY

>  <Rbt.Executable>
rbdock ($Id: //depot/dev/client3/rdock/2013.1/src/exe/rbdock.cxx#4 $)

>  <Rbt.Library>
libRbt.so (2013.1, Build901 2013/11/27)

>  <Rbt.Parameter_File>
/export/apps/rDock/src/rDock_2013.1_src/data/scripts/dock_solv.prm

>  <Rbt.Receptor>
prm/pocket_docking_6.prm

>  <SCORE>
-18.0126

>  <SCORE.INTER>
-17.6913

>  <SCORE.INTER.CONST>
1

>  <SCORE.INTER.POLAR>
0

>  <SCORE.INTER.ROT>
4

>  <SCORE.INTER.SOLV>
7.82236

>  <SCORE.INTER.VDW>
-20.6683

>  <SCORE.INTER.norm>
-0.804151

>  <SCORE.INTRA>
-0.321233

>  <SCORE.INTRA.DIHEDRAL>
1.52341

>  <SCORE.INTRA.DIHEDRAL.0>
6.18831

>  <SCORE.INTRA.POLAR>
0

>  <SCORE.INTRA.POLAR.0>
0

>  <SCORE.INTRA.REPUL>
0

>  <SCORE.INTRA.REPUL.0>
0

>  <SCORE.INTRA.SOLV>
0.562257

>  <SCORE.INTRA.SOLV.lig_0>
-44.3465

>  <SCORE.INTRA.VDW>
-1.36407

>  <SCORE.INTRA.VDW.0>
-0.778272

>  <SCORE.INTRA.norm>
-0.0146015

>  <SCORE.RESTR>
0

>  <SCORE.RESTR.CAVITY>
0

>  <SCORE.RESTR.norm>
0

>  <SCORE.SYSTEM>
0

>  <SCORE.SYSTEM.CONST>
0

>  <SCORE.SYSTEM.DIHEDRAL>
0

>  <SCORE.SYSTEM.SOLV>
0

>  <SCORE.SYSTEM.norm>
0

>  <SCORE.heavy>
22

>  <SCORE.norm>
-0.818753

>  <RMSD>
3.276

$$$$
ligand
 OpenBabel11021811503D
libRbt.so/2013.1/901 2013/11/27
 22 24  0  0  0  0  0  0  0  0999 V2000
    1.3324    2.3060   20.4234 C   0  0  0  0  0  0  0  0  0  0  0  0
    2.1422    1.5761   21.3190 C   0  0  0  0  0  0  0  0  0  0  0  0
    3.4946    1.4066   21.0351 C   0  0  0  0  0  0  0  0  0  0  0  0
    4.0307    1.9643   19.8613 C   0  0  0  0  0  0  0  0  0  0  0  0
    3.2168    2.6894   18.9565 C   0  0  0  0  0  0  0  0  0  0  0  0
    1.8683    2.8566   19.2409 C   0  0  0  0  0  0  0  0  0  0  0  0
   -0.1699    2.4874   20.7139 C   0  0  0  0  0  0  0  0  0  0  0  0
   -0.6471    3.9589   20.7973 C   0  0  0  0  0  0  0  0  0  0  0  0
   -0.4003    4.6096   22.1535 C   0  0  0  0  0  0  0  0  0  0  0  0
   -1.3061    4.5630   23.2175 C   0  0  0  0  0  0  0  0  0  0  0  0
   -0.7386    5.2429   24.2479 N   0  0  0  0  0  0  0  0  0  0  0  0
    0.5066    5.7434   23.9237 C   0  0  0  0  0  0  0  0  0  0  0  0
    0.7632    5.3662   22.6101 C   0  0  0  0  0  0  0  0  0  0  0  0
    2.0274    5.7768   22.0394 C   0  0  0  0  0  0  0  0  0  0  0  0
    2.3545    5.4273   20.7321 O   0  0  0  0  0  0  0  0  0  0  0  0
    2.9059    6.5252   22.8114 N   0  0  0  0  0  0  0  0  0  0  0  0
    2.6158    6.8642   24.1012 C   0  0  0  0  0  0  0  0  0  0  0  0
    1.4521    6.5006   24.6627 N   0  0  0  0  0  0  0  0  0  0  0  0
    3.5831    7.6420   24.8821 N   0  0  0  0  0  0  0  0  0  0  0  0
    5.4952    1.7612   19.5764 C   0  0  0  0  0  0  0  0  0  0  0  0
    6.1431    0.9415   20.2248 O   0  0  0  0  0  0  0  0  0  0  0  0
    6.1170    2.5448   18.5423 N   0  0  0  0  0  0  0  0  0  0  0  0
  1  2  2  0  0  0  0
  1  6  1  0  0  0  0
  1  7  1  0  0  0  0
  2  3  1  0  0  0  0
  3  4  2  0  0  0  0
  4  5  1  0  0  0  0
  4 20  1  0  0  0  0
  5  6  2  0  0  0  0
  7  8  1  0  0  0  0
  8  9  1  0  0  0  0
  9 10  2  0  0  0  0
  9 13  1  0  0  0  0
 10 11  1  0  0  0  0
 11 12  1  0  0  0  0
 12 13  2  0  0  0  0
 12 18  1  0  0  0  0
 13 14  1  0  0  0  0
 14 15  1  0  0  0  0
 14 16  2  0  0  0  0
 16 17  1  0  0  0  0
 17 18  2  0  0  0  0
 17 19  1  0  0  0  0
 20 21  2  0  0  0  0
 20 22  1  0  0  0  0
M  END
>  <CHROM.1>
122.58253955,12.43144028,-82.36016336,-88.76962473,2.16884880,4.05692830
21.64329273,1.00509666,-0.09550185,-2.42793581

>  <Name>
ligand

>  <RI>
0

>  <Rbt.Current_Directory>
/home/itssahil/PROJECTS/Mol_Feturizer/New_Systems/rnas/4LVY

>  <Rbt.Executable>
rbdock ($Id: //depot/dev/client3/rdock/2013.1/src/exe/rbdock.cxx#4 $)

>  <Rbt.Library>
libRbt.so (2013.1, Build901 2013/11/27)

>  <Rbt.Parameter_File>
/export/apps/rDock/src/rDock_2013.1_src/data/scripts/dock_solv.prm

>  <Rbt.Receptor>
prm/pocket_docking_6.prm

>  <SCORE>
-18.0735

>  <SCORE.INTER>
-18.0057

>  <SCORE.INTER.CONST>
1

>  <SCORE.INTER.POLAR>
0

>  <SCORE.INTER.ROT>
4

>  <SCORE.INTER.SOLV>
8.41995

>  <SCORE.INTER.VDW>
-21.0771

>  <SCORE.INTER.norm>
-0.818439

>  <SCORE.INTRA>
-0.0678031

>  <SCORE.INTRA.DIHEDRAL>
1.84161

>  <SCORE.INTRA.DIHEDRAL.0>
6.18831

>  <SCORE.INTRA.POLAR>
0

>  <SCORE.INTRA.POLAR.0>
0

>  <SCORE.INTRA.REPUL>
0

>  <SCORE.INTRA.REPUL.0>
0

>  <SCORE.INTRA.SOLV>
0.510559

>  <SCORE.INTRA.SOLV.lig_0>
-44.3465

>  <SCORE.INTRA.VDW>
-1.24389

>  <SCORE.INTRA.VDW.0>
-0.778272

>  <SCORE.INTRA.norm>
-0.00308196

>  <SCORE.RESTR>
0

>  <SCORE.RESTR.CAVITY>
0

>  <SCORE.RESTR.norm>
0

>  <SCORE.SYSTEM>
0

>  <SCORE.SYSTEM.CONST>
0

>  <SCORE.SYSTEM.DIHEDRAL>
0

>  <SCORE.SYSTEM.SOLV>
0

>  <SCORE.SYSTEM.norm>
0

>  <SCORE.heavy>
22

>  <SCORE.norm>
-0.821521

>  <RMSD>
3.286

$$$$
ligand
 OpenBabel11021811503D
libRbt.so/2013.1/901 2013/11/27
 22 24  0  0  0  0  0  0  0  0999 V2000
    1.4243    2.2453   20.3778 C   0  0  0  0  0  0  0  0  0  0  0  0
    2.0014    2.7638   19.1993 C   0  0  0  0  0  0  0  0  0  0  0  0
    3.3692    2.6162   18.9856 C   0  0  0  0  0  0  0  0  0  0  0  0
    4.1525    1.9542   19.9471 C   0  0  0  0  0  0  0  0  0  0  0  0
    3.5760    1.4415   21.1352 C   0  0  0  0  0  0  0  0  0  0  0  0
    2.2121    1.5903   21.3468 C   0  0  0  0  0  0  0  0  0  0  0  0
   -0.0848    2.4160   20.6378 C   0  0  0  0  0  0  0  0  0  0  0  0
   -0.5714    3.8841   20.7263 C   0  0  0  0  0  0  0  0  0  0  0  0
   -0.3245    4.5332   22.0831 C   0  0  0  0  0  0  0  0  0  0  0  0
   -1.2481    4.5227   23.1327 C   0  0  0  0  0  0  0  0  0  0  0  0
   -0.6744    5.1886   24.1689 N   0  0  0  0  0  0  0  0  0  0  0  0
    0.5919    5.6452   23.8623 C   0  0  0  0  0  0  0  0  0  0  0  0
    0.8565    5.2527   22.5548 C   0  0  0  0  0  0  0  0  0  0  0  0
    2.1427    5.6174   22.0025 C   0  0  0  0  0  0  0  0  0  0  0  0
    2.4786    5.2503   20.7024 O   0  0  0  0  0  0  0  0  0  0  0  0
    3.0336    6.3399   22.7850 N   0  0  0  0  0  0  0  0  0  0  0  0
    2.7346    6.6953   24.0684 C   0  0  0  0  0  0  0  0  0  0  0  0
    1.5505    6.3740   24.6129 N   0  0  0  0  0  0  0  0  0  0  0  0
    3.7150    7.4442   24.8610 N   0  0  0  0  0  0  0  0  0  0  0  0
    5.6300    1.8134   19.6930 C   0  0  0  0  0  0  0  0  0  0  0  0
    6.1993    2.5786   18.9168 O   0  0  0  0  0  0  0  0  0  0  0  0
    6.3543    0.7688   20.3669 N   0  0  0  0  0  0  0  0  0  0  0  0
  1  2  2  0  0  0  0
  1  6  1  0  0  0  0
  1  7  1  0  0  0  0
  2  3  1  0  0  0  0
  3  4  2  0  0  0  0
  4  5  1  0  0  0  0
  4 20  1  0  0  0  0
  5  6  2  0  0  0  0
  7  8  1  0  0  0  0
  8  9  1  0  0  0  0
  9 10  2  0  0  0  0
  9 13  1  0  0  0  0
 10 11  1  0  0  0  0
 11 12  1  0  0  0  0
 12 13  2  0  0  0  0
 12 18  1  0  0  0  0
 13 14  1  0  0  0  0
 14 15  1  0  0  0  0
 14 16  2  0  0  0  0
 16 17  1  0  0  0  0
 17 18  2  0  0  0  0
 17 19  1  0  0  0  0
 20 21  2  0  0  0  0
 20 22  1  0  0  0  0
M  END
>  <CHROM.1>
-60.73073154,21.91051634,-80.86366462,-91.36593079,2.27496510,3.98361921
21.63904977,0.97304839,-0.06722313,-2.41342098

>  <Name>
ligand

>  <RI>
0

>  <Rbt.Current_Directory>
/home/itssahil/PROJECTS/Mol_Feturizer/New_Systems/rnas/4LVY

>  <Rbt.Executable>
rbdock ($Id: //depot/dev/client3/rdock/2013.1/src/exe/rbdock.cxx#4 $)

>  <Rbt.Library>
libRbt.so (2013.1, Build901 2013/11/27)

>  <Rbt.Parameter_File>
/export/apps/rDock/src/rDock_2013.1_src/data/scripts/dock_solv.prm

>  <Rbt.Receptor>
prm/pocket_docking_5.prm

>  <SCORE>
-17.762

>  <SCORE.INTER>
-17.3791

>  <SCORE.INTER.CONST>
1

>  <SCORE.INTER.POLAR>
0

>  <SCORE.INTER.ROT>
4

>  <SCORE.INTER.SOLV>
7.5672

>  <SCORE.INTER.VDW>
-20.3751

>  <SCORE.INTER.norm>
-0.789958

>  <SCORE.INTRA>
-0.382915

>  <SCORE.INTRA.DIHEDRAL>
1.61875

>  <SCORE.INTRA.DIHEDRAL.0>
6.18831

>  <SCORE.INTRA.POLAR>
0

>  <SCORE.INTRA.POLAR.0>
0

>  <SCORE.INTRA.REPUL>
0

>  <SCORE.INTRA.REPUL.0>
0

>  <SCORE.INTRA.SOLV>
0.61279

>  <SCORE.INTRA.SOLV.lig_0>
-44.3465

>  <SCORE.INTRA.VDW>
-1.49868

>  <SCORE.INTRA.VDW.0>
-0.778272

>  <SCORE.INTRA.norm>
-0.0174052

>  <SCORE.RESTR>
0

>  <SCORE.RESTR.CAVITY>
0

>  <SCORE.RESTR.norm>
0

>  <SCORE.SYSTEM>
0

>  <SCORE.SYSTEM.CONST>
0

>  <SCORE.SYSTEM.DIHEDRAL>
0

>  <SCORE.SYSTEM.SOLV>
0

>  <SCORE.SYSTEM.norm>
0

>  <SCORE.heavy>
22

>  <SCORE.norm>
-0.807363

>  <RMSD>
3.296

$$$$
ligand
 OpenBabel11021811503D
libRbt.so/2013.1/901 2013/11/27
 22 24  0  0  0  0  0  0  0  0999 V2000
    1.3573    2.3082   20.4107 C   0  0  0  0  0  0  0  0  0  0  0  0
    2.1624    1.6076   21.3335 C   0  0  0  0  0  0  0  0  0  0  0  0
    3.5249    1.4678   21.0838 C   0  0  0  0  0  0  0  0  0  0  0  0
    4.0756    2.0257   19.9169 C   0  0  0  0  0  0  0  0  0  0  0  0
    3.2667    2.7212   18.9848 C   0  0  0  0  0  0  0  0  0  0  0  0
    1.9082    2.8589   19.2352 C   0  0  0  0  0  0  0  0  0  0  0  0
   -0.1555    2.4564   20.6632 C   0  0  0  0  0  0  0  0  0  0  0  0
   -0.6612    3.9169   20.7686 C   0  0  0  0  0  0  0  0  0  0  0  0
   -0.4100    4.5581   22.1285 C   0  0  0  0  0  0  0  0  0  0  0  0
   -1.3143    4.5079   23.1937 C   0  0  0  0  0  0  0  0  0  0  0  0
   -0.7428    5.1793   24.2275 N   0  0  0  0  0  0  0  0  0  0  0  0
    0.5036    5.6775   23.9044 C   0  0  0  0  0  0  0  0  0  0  0  0
    0.7569    5.3078   22.5881 C   0  0  0  0  0  0  0  0  0  0  0  0
    2.0216    5.7175   22.0180 C   0  0  0  0  0  0  0  0  0  0  0  0
    2.3454    5.3751   20.7080 O   0  0  0  0  0  0  0  0  0  0  0  0
    2.9039    6.4579   22.7933 N   0  0  0  0  0  0  0  0  0  0  0  0
    2.6170    6.7897   24.0857 C   0  0  0  0  0  0  0  0  0  0  0  0
    1.4529    6.4266   24.6468 N   0  0  0  0  0  0  0  0  0  0  0  0
    3.5882    7.5591   24.8700 N   0  0  0  0  0  0  0  0  0  0  0  0
    5.5510    1.8549   19.6692 C   0  0  0  0  0  0  0  0  0  0  0  0
    5.9888    1.8543   18.5201 O   0  0  0  0  0  0  0  0  0  0  0  0
    6.4298    1.6871   20.7960 N   0  0  0  0  0  0  0  0  0  0  0  0
  1  2  2  0  0  0  0
  1  6  1  0  0  0  0
  1  7  1  0  0  0  0
  2  3  1  0  0  0  0
  3  4  2  0  0  0  0
  4  5  1  0  0  0  0
  4 20  1  0  0  0  0
  5  6  2  0  0  0  0
  7  8  1  0  0  0  0
  8  9  1  0  0  0  0
  9 10  2  0  0  0  0
  9 13  1  0  0  0  0
 10 11  1  0  0  0  0
 11 12  1  0  0  0  0
 12 13  2  0  0  0  0
 12 18  1  0  0  0  0
 13 14  1  0  0  0  0
 14 15  1  0  0  0  0
 14 16  2  0  0  0  0
 16 17  1  0  0  0  0
 17 18  2  0  0  0  0
 17 19  1  0  0  0  0
 20 21  2  0  0  0  0
 20 22  1  0  0  0  0
M  END
>  <CHROM.1>
120.51447284,152.72700308,-79.89607192,-90.29822210,2.18484654,4.04202016
21.65376359,0.98294030,-0.06676806,-2.39887622

>  <Name>
ligand

>  <RI>
0

>  <Rbt.Current_Directory>
/home/itssahil/PROJECTS/Mol_Feturizer/New_Systems/rnas/4LVY

>  <Rbt.Executable>
rbdock ($Id: //depot/dev/client3/rdock/2013.1/src/exe/rbdock.cxx#4 $)

>  <Rbt.Library>
libRbt.so (2013.1, Build901 2013/11/27)

>  <Rbt.Parameter_File>
/export/apps/rDock/src/rDock_2013.1_src/data/scripts/dock_solv.prm

>  <Rbt.Receptor>
prm/pocket_docking_5.prm

>  <SCORE>
-17.8808

>  <SCORE.INTER>
-17.4721

>  <SCORE.INTER.CONST>
1

>  <SCORE.INTER.POLAR>
0

>  <SCORE.INTER.ROT>
4

>  <SCORE.INTER.SOLV>
7.69495

>  <SCORE.INTER.VDW>
-20.4797

>  <SCORE.INTER.norm>
-0.794188

>  <SCORE.INTRA>
-0.408657

>  <SCORE.INTRA.DIHEDRAL>
1.48701

>  <SCORE.INTRA.DIHEDRAL.0>
6.18831

>  <SCORE.INTRA.POLAR>
0

>  <SCORE.INTRA.POLAR.0>
0

>  <SCORE.INTRA.REPUL>
0

>  <SCORE.INTRA.REPUL.0>
0

>  <SCORE.INTRA.SOLV>
0.572195

>  <SCORE.INTRA.SOLV.lig_0>
-44.3465

>  <SCORE.INTRA.VDW>
-1.43826

>  <SCORE.INTRA.VDW.0>
-0.778272

>  <SCORE.INTRA.norm>
-0.0185753

>  <SCORE.RESTR>
0

>  <SCORE.RESTR.CAVITY>
0

>  <SCORE.RESTR.norm>
0

>  <SCORE.SYSTEM>
0

>  <SCORE.SYSTEM.CONST>
0

>  <SCORE.SYSTEM.DIHEDRAL>
0

>  <SCORE.SYSTEM.SOLV>
0

>  <SCORE.SYSTEM.norm>
0

>  <SCORE.heavy>
22

>  <SCORE.norm>
-0.812763

>  <RMSD>
3.297

$$$$
ligand
 OpenBabel11021811503D
libRbt.so/2013.1/901 2013/11/27
 22 24  0  0  0  0  0  0  0  0999 V2000
    1.3172    2.3369   20.4144 C   0  0  0  0  0  0  0  0  0  0  0  0
    2.1280    1.6511   21.3433 C   0  0  0  0  0  0  0  0  0  0  0  0
    3.4848    1.4882   21.0772 C   0  0  0  0  0  0  0  0  0  0  0  0
    4.0243    2.0085   19.8879 C   0  0  0  0  0  0  0  0  0  0  0  0
    3.2095    2.6891   18.9499 C   0  0  0  0  0  0  0  0  0  0  0  0
    1.8567    2.8498   19.2167 C   0  0  0  0  0  0  0  0  0  0  0  0
   -0.1897    2.5100   20.6854 C   0  0  0  0  0  0  0  0  0  0  0  0
   -0.6684    3.9785   20.8051 C   0  0  0  0  0  0  0  0  0  0  0  0
   -0.3865    4.6085   22.1643 C   0  0  0  0  0  0  0  0  0  0  0  0
   -1.2858    4.5890   23.2347 C   0  0  0  0  0  0  0  0  0  0  0  0
   -0.6846    5.2382   24.2659 N   0  0  0  0  0  0  0  0  0  0  0  0
    0.5769    5.6920   23.9361 C   0  0  0  0  0  0  0  0  0  0  0  0
    0.8091    5.3154   22.6178 C   0  0  0  0  0  0  0  0  0  0  0  0
    2.0842    5.6806   22.0407 C   0  0  0  0  0  0  0  0  0  0  0  0
    2.3879    5.3287   20.7284 O   0  0  0  0  0  0  0  0  0  0  0  0
    2.9969    6.3879   22.8117 N   0  0  0  0  0  0  0  0  0  0  0  0
    2.7296    6.7280   24.1061 C   0  0  0  0  0  0  0  0  0  0  0  0
    1.5566    6.4058   24.6737 N   0  0  0  0  0  0  0  0  0  0  0  0
    3.7323    7.4612   24.8856 N   0  0  0  0  0  0  0  0  0  0  0  0
    5.4936    1.8134   19.6229 C   0  0  0  0  0  0  0  0  0  0  0  0
    6.1013    0.8897   20.1611 O   0  0  0  0  0  0  0  0  0  0  0  0
    6.1675    2.7272   18.7392 N   0  0  0  0  0  0  0  0  0  0  0  0
  1  2  2  0  0  0  0
  1  6  1  0  0  0  0
  1  7  1  0  0  0  0
  2  3  1  0  0  0  0
  3  4  2  0  0  0  0
  4  5  1  0  0  0  0
  4 20  1  0  0  0  0
  5  6  2  0  0  0  0
  7  8  1  0  0  0  0
  8  9  1  0  0  0  0
  9 10  2  0  0  0  0
  9 13  1  0  0  0  0
 10 11  1  0  0  0  0
 11 12  1  0  0  0  0
 12 13  2  0  0  0  0
 12 18  1  0  0  0  0
 13 14  1  0  0  0  0
 14 15  1  0  0  0  0
 14 16  2  0  0  0  0
 16 17  1  0  0  0  0
 17 18  2  0  0  0  0
 17 19  1  0  0  0  0
 20 21  2  0  0  0  0
 20 22  1  0  0  0  0
M  END
>  <CHROM.1>
118.63127811,23.49487622,-79.72193723,-91.47642958,2.19904147,4.03770203
21.65622357,0.99553217,-0.07930459,-2.40406935

>  <Name>
ligand

>  <RI>
0

>  <Rbt.Current_Directory>
/home/itssahil/PROJECTS/Mol_Feturizer/New_Systems/rnas/4LVY

>  <Rbt.Executable>
rbdock ($Id: //depot/dev/client3/rdock/2013.1/src/exe/rbdock.cxx#4 $)

>  <Rbt.Library>
libRbt.so (2013.1, Build901 2013/11/27)

>  <Rbt.Parameter_File>
/export/apps/rDock/src/rDock_2013.1_src/data/scripts/dock_solv.prm

>  <Rbt.Receptor>
prm/pocket_docking_8.prm

>  <SCORE>
-18.0248

>  <SCORE.INTER>
-17.5839

>  <SCORE.INTER.CONST>
1

>  <SCORE.INTER.POLAR>
0

>  <SCORE.INTER.ROT>
4

>  <SCORE.INTER.SOLV>
7.46821

>  <SCORE.INTER.VDW>
-20.4786

>  <SCORE.INTER.norm>
-0.799266

>  <SCORE.INTRA>
-0.440911

>  <SCORE.INTRA.DIHEDRAL>
1.47164

>  <SCORE.INTRA.DIHEDRAL.0>
6.18831

>  <SCORE.INTRA.POLAR>
0

>  <SCORE.INTRA.POLAR.0>
0

>  <SCORE.INTRA.REPUL>
0

>  <SCORE.INTRA.REPUL.0>
0

>  <SCORE.INTRA.SOLV>
0.604597

>  <SCORE.INTRA.SOLV.lig_0>
-44.3465

>  <SCORE.INTRA.VDW>
-1.47903

>  <SCORE.INTRA.VDW.0>
-0.778272

>  <SCORE.INTRA.norm>
-0.0200414

>  <SCORE.RESTR>
0

>  <SCORE.RESTR.CAVITY>
0

>  <SCORE.RESTR.norm>
0

>  <SCORE.SYSTEM>
0

>  <SCORE.SYSTEM.CONST>
0

>  <SCORE.SYSTEM.DIHEDRAL>
0

>  <SCORE.SYSTEM.SOLV>
0

>  <SCORE.SYSTEM.norm>
0

>  <SCORE.heavy>
22

>  <SCORE.norm>
-0.819308

>  <RMSD>
3.311

$$$$
ligand
 OpenBabel11021811503D
libRbt.so/2013.1/901 2013/11/27
 22 24  0  0  0  0  0  0  0  0999 V2000
    1.2786    2.3342   20.3666 C   0  0  0  0  0  0  0  0  0  0  0  0
    1.8211    2.9701   19.2299 C   0  0  0  0  0  0  0  0  0  0  0  0
    3.1734    2.8126   18.9386 C   0  0  0  0  0  0  0  0  0  0  0  0
    3.9758    2.0240   19.7814 C   0  0  0  0  0  0  0  0  0  0  0  0
    3.4344    1.3927   20.9283 C   0  0  0  0  0  0  0  0  0  0  0  0
    2.0860    1.5515   21.2175 C   0  0  0  0  0  0  0  0  0  0  0  0
   -0.2121    2.5130   20.7130 C   0  0  0  0  0  0  0  0  0  0  0  0
   -0.6885    3.9836   20.8137 C   0  0  0  0  0  0  0  0  0  0  0  0
   -0.4050    4.6309   22.1643 C   0  0  0  0  0  0  0  0  0  0  0  0
   -1.2784    4.5753   23.2548 C   0  0  0  0  0  0  0  0  0  0  0  0
   -0.6842    5.2548   24.2703 N   0  0  0  0  0  0  0  0  0  0  0  0
    0.5480    5.7636   23.9109 C   0  0  0  0  0  0  0  0  0  0  0  0
    0.7673    5.3926   22.5889 C   0  0  0  0  0  0  0  0  0  0  0  0
    2.0115    5.8124   21.9822 C   0  0  0  0  0  0  0  0  0  0  0  0
    2.3014    5.4694   20.6644 O   0  0  0  0  0  0  0  0  0  0  0  0
    2.9085    6.5631   22.7304 N   0  0  0  0  0  0  0  0  0  0  0  0
    2.6551    6.8958   24.0295 C   0  0  0  0  0  0  0  0  0  0  0  0
    1.5108    6.5236   24.6242 N   0  0  0  0  0  0  0  0  0  0  0  0
    3.6409    7.6764   24.7841 N   0  0  0  0  0  0  0  0  0  0  0  0
    5.4360    1.8750   19.4457 C   0  0  0  0  0  0  0  0  0  0  0  0
    6.1447    1.1091   20.0964 O   0  0  0  0  0  0  0  0  0  0  0  0
    5.9817    2.6464   18.3607 N   0  0  0  0  0  0  0  0  0  0  0  0
  1  2  2  0  0  0  0
  1  6  1  0  0  0  0
  1  7  1  0  0  0  0
  2  3  1  0  0  0  0
  3  4  2  0  0  0  0
  4  5  1  0  0  0  0
  4 20  1  0  0  0  0
  5  6  2  0  0  0  0
  7  8  1  0  0  0  0
  8  9  1  0  0  0  0
  9 10  2  0  0  0  0
  9 13  1  0  0  0  0
 10 11  1  0  0  0  0
 11 12  1  0  0  0  0
 12 13  2  0  0  0  0
 12 18  1  0  0  0  0
 13 14  1  0  0  0  0
 14 15  1  0  0  0  0
 14 16  2  0  0  0  0
 16 17  1  0  0  0  0
 17 18  2  0  0  0  0
 17 19  1  0  0  0  0
 20 21  2  0  0  0  0
 20 22  1  0  0  0  0
M  END
>  <CHROM.1>
-53.31571822,-174.17956553,-82.94501811,-88.48200173,2.15186199,4.10430514
21.58867370,1.01406623,-0.12473839,-2.42607160

>  <Name>
ligand

>  <RI>
0

>  <Rbt.Current_Directory>
/home/itssahil/PROJECTS/Mol_Feturizer/New_Systems/rnas/4LVY

>  <Rbt.Executable>
rbdock ($Id: //depot/dev/client3/rdock/2013.1/src/exe/rbdock.cxx#4 $)

>  <Rbt.Library>
libRbt.so (2013.1, Build901 2013/11/27)

>  <Rbt.Parameter_File>
/export/apps/rDock/src/rDock_2013.1_src/data/scripts/dock_solv.prm

>  <Rbt.Receptor>
prm/pocket_docking_6.prm

>  <SCORE>
-17.8067

>  <SCORE.INTER>
-17.8682

>  <SCORE.INTER.CONST>
1

>  <SCORE.INTER.POLAR>
0

>  <SCORE.INTER.ROT>
4

>  <SCORE.INTER.SOLV>
8.14945

>  <SCORE.INTER.VDW>
-20.8953

>  <SCORE.INTER.norm>
-0.81219

>  <SCORE.INTRA>
0.0614771

>  <SCORE.INTRA.DIHEDRAL>
1.98589

>  <SCORE.INTRA.DIHEDRAL.0>
6.18831

>  <SCORE.INTRA.POLAR>
0

>  <SCORE.INTRA.POLAR.0>
0

>  <SCORE.INTRA.REPUL>
0

>  <SCORE.INTRA.REPUL.0>
0

>  <SCORE.INTRA.SOLV>
0.536435

>  <SCORE.INTRA.SOLV.lig_0>
-44.3465

>  <SCORE.INTRA.VDW>
-1.19968

>  <SCORE.INTRA.VDW.0>
-0.778272

>  <SCORE.INTRA.norm>
0.00279442

>  <SCORE.RESTR>
0

>  <SCORE.RESTR.CAVITY>
0

>  <SCORE.RESTR.norm>
0

>  <SCORE.SYSTEM>
0

>  <SCORE.SYSTEM.CONST>
0

>  <SCORE.SYSTEM.DIHEDRAL>
0

>  <SCORE.SYSTEM.SOLV>
0

>  <SCORE.SYSTEM.norm>
0

>  <SCORE.heavy>
22

>  <SCORE.norm>
-0.809395

>  <RMSD>
3.339

$$$$
ligand
 OpenBabel11021811503D
libRbt.so/2013.1/901 2013/11/27
 22 24  0  0  0  0  0  0  0  0999 V2000
    1.2734    2.3407   20.3860 C   0  0  0  0  0  0  0  0  0  0  0  0
    1.7967    2.9368   19.2192 C   0  0  0  0  0  0  0  0  0  0  0  0
    3.1500    2.7928   18.9259 C   0  0  0  0  0  0  0  0  0  0  0  0
    3.9726    2.0572   19.7968 C   0  0  0  0  0  0  0  0  0  0  0  0
    3.4504    1.4662   20.9736 C   0  0  0  0  0  0  0  0  0  0  0  0
    2.1009    1.6115   21.2647 C   0  0  0  0  0  0  0  0  0  0  0  0
   -0.2185    2.5057   20.7343 C   0  0  0  0  0  0  0  0  0  0  0  0
   -0.7088    3.9719   20.8340 C   0  0  0  0  0  0  0  0  0  0  0  0
   -0.4184    4.6274   22.1792 C   0  0  0  0  0  0  0  0  0  0  0  0
   -1.2929    4.5914   23.2696 C   0  0  0  0  0  0  0  0  0  0  0  0
   -0.6913    5.2726   24.2795 N   0  0  0  0  0  0  0  0  0  0  0  0
    0.5469    5.7638   23.9166 C   0  0  0  0  0  0  0  0  0  0  0  0
    0.7626    5.3789   22.5979 C   0  0  0  0  0  0  0  0  0  0  0  0
    2.0119    5.7789   21.9884 C   0  0  0  0  0  0  0  0  0  0  0  0
    2.2985    5.4212   20.6739 O   0  0  0  0  0  0  0  0  0  0  0  0
    2.9172    6.5254   22.7308 N   0  0  0  0  0  0  0  0  0  0  0  0
    2.6671    6.8722   24.0268 C   0  0  0  0  0  0  0  0  0  0  0  0
    1.5182    6.5185   24.6240 N   0  0  0  0  0  0  0  0  0  0  0  0
    3.6616    7.6477   24.7753 N   0  0  0  0  0  0  0  0  0  0  0  0
    5.4335    1.9219   19.4581 C   0  0  0  0  0  0  0  0  0  0  0  0
    6.0904    0.9893   19.9171 O   0  0  0  0  0  0  0  0  0  0  0  0
    6.0411    2.9026   18.5985 N   0  0  0  0  0  0  0  0  0  0  0  0
  1  2  2  0  0  0  0
  1  6  1  0  0  0  0
  1  7  1  0  0  0  0
  2  3  1  0  0  0  0
  3  4  2  0  0  0  0
  4  5  1  0  0  0  0
  4 20  1  0  0  0  0
  5  6  2  0  0  0  0
  7  8  1  0  0  0  0
  8  9  1  0  0  0  0
  9 10  2  0  0  0  0
  9 13  1  0  0  0  0
 10 11  1  0  0  0  0
 11 12  1  0  0  0  0
 12 13  2  0  0  0  0
 12 18  1  0  0  0  0
 13 14  1  0  0  0  0
 14 15  1  0  0  0  0
 14 16  2  0  0  0  0
 16 17  1  0  0  0  0
 17 18  2  0  0  0  0
 17 19  1  0  0  0  0
 20 21  2  0  0  0  0
 20 22  1  0  0  0  0
M  END
>  <CHROM.1>
-55.82373488,-157.32689628,-82.42822582,-89.89571145,2.14965037,4.10845275
21.59976610,1.00652930,-0.12970453,-2.42645228

>  <Name>
ligand

>  <RI>
0

>  <Rbt.Current_Directory>
/home/itssahil/PROJECTS/Mol_Feturizer/New_Systems/rnas/4LVY

>  <Rbt.Executable>
rbdock ($Id: //depot/dev/client3/rdock/2013.1/src/exe/rbdock.cxx#4 $)

>  <Rbt.Library>
libRbt.so (2013.1, Build901 2013/11/27)

>  <Rbt.Parameter_File>
/export/apps/rDock/src/rDock_2013.1_src/data/scripts/dock_solv.prm

>  <Rbt.Receptor>
prm/pocket_docking_8.prm

>  <SCORE>
-17.9139

>  <SCORE.INTER>
-17.817

>  <SCORE.INTER.CONST>
1

>  <SCORE.INTER.POLAR>
0

>  <SCORE.INTER.ROT>
4

>  <SCORE.INTER.SOLV>
7.69788

>  <SCORE.INTER.VDW>
-20.7106

>  <SCORE.INTER.norm>
-0.809865

>  <SCORE.INTRA>
-0.0968212

>  <SCORE.INTRA.DIHEDRAL>
1.91633

>  <SCORE.INTRA.DIHEDRAL.0>
6.18831

>  <SCORE.INTRA.POLAR>
0

>  <SCORE.INTRA.POLAR.0>
0

>  <SCORE.INTRA.REPUL>
0

>  <SCORE.INTRA.REPUL.0>
0

>  <SCORE.INTRA.SOLV>
0.569591

>  <SCORE.INTRA.SOLV.lig_0>
-44.3465

>  <SCORE.INTRA.VDW>
-1.33978

>  <SCORE.INTRA.VDW.0>
-0.778272

>  <SCORE.INTRA.norm>
-0.00440096

>  <SCORE.RESTR>
0

>  <SCORE.RESTR.CAVITY>
0

>  <SCORE.RESTR.norm>
0

>  <SCORE.SYSTEM>
0

>  <SCORE.SYSTEM.CONST>
0

>  <SCORE.SYSTEM.DIHEDRAL>
0

>  <SCORE.SYSTEM.SOLV>
0

>  <SCORE.SYSTEM.norm>
0

>  <SCORE.heavy>
22

>  <SCORE.norm>
-0.814266

>  <RMSD>
3.342

$$$$
ligand
 OpenBabel11021811503D
libRbt.so/2013.1/901 2013/11/27
 22 24  0  0  0  0  0  0  0  0999 V2000
    1.2791    2.3837   20.4205 C   0  0  0  0  0  0  0  0  0  0  0  0
    2.0981    1.6085   21.2684 C   0  0  0  0  0  0  0  0  0  0  0  0
    3.4456    1.4475   20.9573 C   0  0  0  0  0  0  0  0  0  0  0  0
    3.9675    2.0587   19.8039 C   0  0  0  0  0  0  0  0  0  0  0  0
    3.1442    2.8295   18.9467 C   0  0  0  0  0  0  0  0  0  0  0  0
    1.8007    2.9883   19.2582 C   0  0  0  0  0  0  0  0  0  0  0  0
   -0.2180    2.5569   20.7410 C   0  0  0  0  0  0  0  0  0  0  0  0
   -0.6963    4.0257   20.8583 C   0  0  0  0  0  0  0  0  0  0  0  0
   -0.4157    4.6574   22.2169 C   0  0  0  0  0  0  0  0  0  0  0  0
   -1.3102    4.6270   23.2911 C   0  0  0  0  0  0  0  0  0  0  0  0
   -0.7119    5.2816   24.3204 N   0  0  0  0  0  0  0  0  0  0  0  0
    0.5431    5.7496   23.9859 C   0  0  0  0  0  0  0  0  0  0  0  0
    0.7739    5.3768   22.6663 C   0  0  0  0  0  0  0  0  0  0  0  0
    2.0425    5.7565   22.0842 C   0  0  0  0  0  0  0  0  0  0  0  0
    2.3446    5.4094   20.7703 O   0  0  0  0  0  0  0  0  0  0  0  0
    2.9507    6.4731   22.8522 N   0  0  0  0  0  0  0  0  0  0  0  0
    2.6851    6.8088   24.1481 C   0  0  0  0  0  0  0  0  0  0  0  0
    1.5181    6.4733   24.7202 N   0  0  0  0  0  0  0  0  0  0  0  0
    3.6829    7.5522   24.9242 N   0  0  0  0  0  0  0  0  0  0  0  0
    5.4268    1.8637   19.4885 C   0  0  0  0  0  0  0  0  0  0  0  0
    6.0979    1.0635   20.1377 O   0  0  0  0  0  0  0  0  0  0  0  0
    6.0164    2.6321   18.4245 N   0  0  0  0  0  0  0  0  0  0  0  0
  1  2  2  0  0  0  0
  1  6  1  0  0  0  0
  1  7  1  0  0  0  0
  2  3  1  0  0  0  0
  3  4  2  0  0  0  0
  4  5  1  0  0  0  0
  4 20  1  0  0  0  0
  5  6  2  0  0  0  0
  7  8  1  0  0  0  0
  8  9  1  0  0  0  0
  9 10  2  0  0  0  0
  9 13  1  0  0  0  0
 10 11  1  0  0  0  0
 11 12  1  0  0  0  0
 12 13  2  0  0  0  0
 12 18  1  0  0  0  0
 13 14  1  0  0  0  0
 14 15  1  0  0  0  0
 14 16  2  0  0  0  0
 16 17  1  0  0  0  0
 17 18  2  0  0  0  0
 17 19  1  0  0  0  0
 20 21  2  0  0  0  0
 20 22  1  0  0  0  0
M  END
>  <CHROM.1>
124.38990348,8.41542651,-81.86665971,-90.75033717,2.15483258,4.09554368,21.65280101
1.01268634,-0.10010436,-2.39842111

>  <Name>
ligand

>  <RI>
0

>  <Rbt.Current_Directory>
/home/itssahil/PROJECTS/Mol_Feturizer/New_Systems/rnas/4LVY

>  <Rbt.Executable>
rbdock ($Id: //depot/dev/client3/rdock/2013.1/src/exe/rbdock.cxx#4 $)

>  <Rbt.Library>
libRbt.so (2013.1, Build901 2013/11/27)

>  <Rbt.Parameter_File>
/export/apps/rDock/src/rDock_2013.1_src/data/scripts/dock_solv.prm

>  <Rbt.Receptor>
prm/pocket_docking_4.prm

>  <SCORE>
-18.041

>  <SCORE.INTER>
-17.9814

>  <SCORE.INTER.CONST>
1

>  <SCORE.INTER.POLAR>
0

>  <SCORE.INTER.ROT>
4

>  <SCORE.INTER.SOLV>
8.15521

>  <SCORE.INTER.VDW>
-20.9726

>  <SCORE.INTER.norm>
-0.817335

>  <SCORE.INTRA>
-0.0596553

>  <SCORE.INTRA.DIHEDRAL>
1.76694

>  <SCORE.INTRA.DIHEDRAL.0>
6.18831

>  <SCORE.INTRA.POLAR>
0

>  <SCORE.INTRA.POLAR.0>
0

>  <SCORE.INTRA.REPUL>
0

>  <SCORE.INTRA.REPUL.0>
0

>  <SCORE.INTRA.SOLV>
0.586104

>  <SCORE.INTRA.SOLV.lig_0>
-44.3465

>  <SCORE.INTRA.VDW>
-1.23617

>  <SCORE.INTRA.VDW.0>
-0.778272

>  <SCORE.INTRA.norm>
-0.0027116

>  <SCORE.RESTR>
0

>  <SCORE.RESTR.CAVITY>
0

>  <SCORE.RESTR.norm>
0

>  <SCORE.SYSTEM>
0

>  <SCORE.SYSTEM.CONST>
0

>  <SCORE.SYSTEM.DIHEDRAL>
0

>  <SCORE.SYSTEM.SOLV>
0

>  <SCORE.SYSTEM.norm>
0

>  <SCORE.heavy>
22

>  <SCORE.norm>
-0.820046

>  <RMSD>
3.344

$$$$
ligand
 OpenBabel11021811503D
libRbt.so/2013.1/901 2013/11/27
 22 24  0  0  0  0  0  0  0  0999 V2000
    1.3630    2.2925   20.4348 C   0  0  0  0  0  0  0  0  0  0  0  0
    2.1829    1.6222   21.3670 C   0  0  0  0  0  0  0  0  0  0  0  0
    3.5388    1.4622   21.0941 C   0  0  0  0  0  0  0  0  0  0  0  0
    4.0681    1.9700   19.8948 C   0  0  0  0  0  0  0  0  0  0  0  0
    3.2441    2.6349   18.9537 C   0  0  0  0  0  0  0  0  0  0  0  0
    1.8923    2.7928   19.2272 C   0  0  0  0  0  0  0  0  0  0  0  0
   -0.1429    2.4621   20.7134 C   0  0  0  0  0  0  0  0  0  0  0  0
   -0.6334    3.9297   20.7873 C   0  0  0  0  0  0  0  0  0  0  0  0
   -0.3663    4.6007   22.1297 C   0  0  0  0  0  0  0  0  0  0  0  0
   -1.2600    4.5779   23.2047 C   0  0  0  0  0  0  0  0  0  0  0  0
   -0.6757    5.2704   24.2172 N   0  0  0  0  0  0  0  0  0  0  0  0
    0.5691    5.7566   23.8705 C   0  0  0  0  0  0  0  0  0  0  0  0
    0.8078    5.3562   22.5604 C   0  0  0  0  0  0  0  0  0  0  0  0
    2.0680    5.7483   21.9685 C   0  0  0  0  0  0  0  0  0  0  0  0
    2.3774    5.3752   20.6635 O   0  0  0  0  0  0  0  0  0  0  0  0
    2.9607    6.5029   22.7180 N   0  0  0  0  0  0  0  0  0  0  0  0
    2.6880    6.8649   24.0053 C   0  0  0  0  0  0  0  0  0  0  0  0
    1.5284    6.5189   24.5862 N   0  0  0  0  0  0  0  0  0  0  0  0
    3.6697    7.6484   24.7622 N   0  0  0  0  0  0  0  0  0  0  0  0
    5.5366    1.7783   19.6228 C   0  0  0  0  0  0  0  0  0  0  0  0
    6.1037    2.4682   18.7775 O   0  0  0  0  0  0  0  0  0  0  0  0
    6.2549    0.7745   20.3620 N   0  0  0  0  0  0  0  0  0  0  0  0
  1  2  2  0  0  0  0
  1  6  1  0  0  0  0
  1  7  1  0  0  0  0
  2  3  1  0  0  0  0
  3  4  2  0  0  0  0
  4  5  1  0  0  0  0
  4 20  1  0  0  0  0
  5  6  2  0  0  0  0
  7  8  1  0  0  0  0
  8  9  1  0  0  0  0
  9 10  2  0  0  0  0
  9 13  1  0  0  0  0
 10 11  1  0  0  0  0
 11 12  1  0  0  0  0
 12 13  2  0  0  0  0
 12 18  1  0  0  0  0
 13 14  1  0  0  0  0
 14 15  1  0  0  0  0
 14 16  2  0  0  0  0
 16 17  1  0  0  0  0
 17 18  2  0  0  0  0
 17 19  1  0  0  0  0
 20 21  2  0  0  0  0
 20 22  1  0  0  0  0
M  END
>  <CHROM.1>
119.89518214,-162.10790755,-80.70500891,-89.88084875,2.21328025,4.05042410
21.62618496,0.99665949,-0.08950444,-2.44014525

>  <Name>
ligand

>  <RI>
0

>  <Rbt.Current_Directory>
/home/itssahil/PROJECTS/Mol_Feturizer/New_Systems/rnas/4LVY

>  <Rbt.Executable>
rbdock ($Id: //depot/dev/client3/rdock/2013.1/src/exe/rbdock.cxx#4 $)

>  <Rbt.Library>
libRbt.so (2013.1, Build901 2013/11/27)

>  <Rbt.Parameter_File>
/export/apps/rDock/src/rDock_2013.1_src/data/scripts/dock_solv.prm

>  <Rbt.Receptor>
prm/pocket_docking_5.prm

>  <SCORE>
-17.8329

>  <SCORE.INTER>
-17.5563

>  <SCORE.INTER.CONST>
1

>  <SCORE.INTER.POLAR>
0

>  <SCORE.INTER.ROT>
4

>  <SCORE.INTER.SOLV>
8.12405

>  <SCORE.INTER.VDW>
-20.6789

>  <SCORE.INTER.norm>
-0.798013

>  <SCORE.INTRA>
-0.276619

>  <SCORE.INTRA.DIHEDRAL>
1.65248

>  <SCORE.INTRA.DIHEDRAL.0>
6.18831

>  <SCORE.INTRA.POLAR>
0

>  <SCORE.INTRA.POLAR.0>
0

>  <SCORE.INTRA.REPUL>
0

>  <SCORE.INTRA.REPUL.0>
0

>  <SCORE.INTRA.SOLV>
0.55124

>  <SCORE.INTRA.SOLV.lig_0>
-44.3465

>  <SCORE.INTRA.VDW>
-1.37848

>  <SCORE.INTRA.VDW.0>
-0.778272

>  <SCORE.INTRA.norm>
-0.0125736

>  <SCORE.RESTR>
0

>  <SCORE.RESTR.CAVITY>
0

>  <SCORE.RESTR.norm>
0

>  <SCORE.SYSTEM>
0

>  <SCORE.SYSTEM.CONST>
0

>  <SCORE.SYSTEM.DIHEDRAL>
0

>  <SCORE.SYSTEM.SOLV>
0

>  <SCORE.SYSTEM.norm>
0

>  <SCORE.heavy>
22

>  <SCORE.norm>
-0.810586

>  <RMSD>
3.347

$$$$
ligand
 OpenBabel11021811503D
libRbt.so/2013.1/901 2013/11/27
 22 24  0  0  0  0  0  0  0  0999 V2000
    1.2811    2.3523   20.3930 C   0  0  0  0  0  0  0  0  0  0  0  0
    1.8069    2.9461   19.2262 C   0  0  0  0  0  0  0  0  0  0  0  0
    3.1575    2.7879   18.9276 C   0  0  0  0  0  0  0  0  0  0  0  0
    3.9748    2.0402   19.7932 C   0  0  0  0  0  0  0  0  0  0  0  0
    3.4502    1.4513   20.9700 C   0  0  0  0  0  0  0  0  0  0  0  0
    2.1034    1.6109   21.2664 C   0  0  0  0  0  0  0  0  0  0  0  0
   -0.2076    2.5329   20.7472 C   0  0  0  0  0  0  0  0  0  0  0  0
   -0.6816    4.0042   20.8505 C   0  0  0  0  0  0  0  0  0  0  0  0
   -0.4101    4.6440   22.2071 C   0  0  0  0  0  0  0  0  0  0  0  0
   -1.3080    4.6124   23.2783 C   0  0  0  0  0  0  0  0  0  0  0  0
   -0.7179    5.2759   24.3066 N   0  0  0  0  0  0  0  0  0  0  0  0
    0.5350    5.7512   23.9741 C   0  0  0  0  0  0  0  0  0  0  0  0
    0.7729    5.3740   22.6571 C   0  0  0  0  0  0  0  0  0  0  0  0
    2.0408    5.7599   22.0776 C   0  0  0  0  0  0  0  0  0  0  0  0
    2.3498    5.4088   20.7664 O   0  0  0  0  0  0  0  0  0  0  0  0
    2.9413    6.4864   22.8453 N   0  0  0  0  0  0  0  0  0  0  0  0
    2.6689    6.8263   24.1387 C   0  0  0  0  0  0  0  0  0  0  0  0
    1.5023    6.4852   24.7084 N   0  0  0  0  0  0  0  0  0  0  0  0
    3.6588    7.5803   24.9147 N   0  0  0  0  0  0  0  0  0  0  0  0
    5.4329    1.8895   19.4488 C   0  0  0  0  0  0  0  0  0  0  0  0
    5.8857    2.4154   18.4337 O   0  0  0  0  0  0  0  0  0  0  0  0
    6.2768    1.1178   20.3220 N   0  0  0  0  0  0  0  0  0  0  0  0
  1  2  2  0  0  0  0
  1  6  1  0  0  0  0
  1  7  1  0  0  0  0
  2  3  1  0  0  0  0
  3  4  2  0  0  0  0
  4  5  1  0  0  0  0
  4 20  1  0  0  0  0
  5  6  2  0  0  0  0
  7  8  1  0  0  0  0
  8  9  1  0  0  0  0
  9 10  2  0  0  0  0
  9 13  1  0  0  0  0
 10 11  1  0  0  0  0
 11 12  1  0  0  0  0
 12 13  2  0  0  0  0
 12 18  1  0  0  0  0
 13 14  1  0  0  0  0
 14 15  1  0  0  0  0
 14 16  2  0  0  0  0
 16 17  1  0  0  0  0
 17 18  2  0  0  0  0
 17 19  1  0  0  0  0
 20 21  2  0  0  0  0
 20 22  1  0  0  0  0
M  END
>  <CHROM.1>
-55.70500818,0.16998190,-83.86145692,-90.06970371,2.15561542,4.09244941,21.64057976
1.01511806,-0.09915902,-2.39575553

>  <Name>
ligand

>  <RI>
0

>  <Rbt.Current_Directory>
/home/itssahil/PROJECTS/Mol_Feturizer/New_Systems/rnas/4LVY

>  <Rbt.Executable>
rbdock ($Id: //depot/dev/client3/rdock/2013.1/src/exe/rbdock.cxx#4 $)

>  <Rbt.Library>
libRbt.so (2013.1, Build901 2013/11/27)

>  <Rbt.Parameter_File>
/export/apps/rDock/src/rDock_2013.1_src/data/scripts/dock_solv.prm

>  <Rbt.Receptor>
prm/pocket_docking_7.prm

>  <SCORE>
-17.8417

>  <SCORE.INTER>
-17.9461

>  <SCORE.INTER.CONST>
1

>  <SCORE.INTER.POLAR>
0

>  <SCORE.INTER.ROT>
4

>  <SCORE.INTER.SOLV>
8.44643

>  <SCORE.INTER.VDW>
-21.0462

>  <SCORE.INTER.norm>
-0.815734

>  <SCORE.INTRA>
0.104411

>  <SCORE.INTRA.DIHEDRAL>
2.10519

>  <SCORE.INTRA.DIHEDRAL.0>
6.18831

>  <SCORE.INTRA.POLAR>
0

>  <SCORE.INTRA.POLAR.0>
0

>  <SCORE.INTRA.REPUL>
0

>  <SCORE.INTRA.REPUL.0>
0

>  <SCORE.INTRA.SOLV>
0.56208

>  <SCORE.INTRA.SOLV.lig_0>
-44.3465

>  <SCORE.INTRA.VDW>
-1.22923

>  <SCORE.INTRA.VDW.0>
-0.778272

>  <SCORE.INTRA.norm>
0.00474596

>  <SCORE.RESTR>
0

>  <SCORE.RESTR.CAVITY>
0

>  <SCORE.RESTR.norm>
0

>  <SCORE.SYSTEM>
0

>  <SCORE.SYSTEM.CONST>
0

>  <SCORE.SYSTEM.DIHEDRAL>
0

>  <SCORE.SYSTEM.SOLV>
0

>  <SCORE.SYSTEM.norm>
0

>  <SCORE.heavy>
22

>  <SCORE.norm>
-0.810988

>  <RMSD>
3.381

$$$$
ligand
 OpenBabel11021811503D
libRbt.so/2013.1/901 2013/11/27
 22 24  0  0  0  0  0  0  0  0999 V2000
    1.3601    2.4763   20.8177 C   0  0  0  0  0  0  0  0  0  0  0  0
    2.0624    2.3245   19.6034 C   0  0  0  0  0  0  0  0  0  0  0  0
    3.4514    2.2319   19.6240 C   0  0  0  0  0  0  0  0  0  0  0  0
    4.1310    2.2920   20.8530 C   0  0  0  0  0  0  0  0  0  0  0  0
    3.4278    2.4539   22.0721 C   0  0  0  0  0  0  0  0  0  0  0  0
    2.0429    2.5467   22.0496 C   0  0  0  0  0  0  0  0  0  0  0  0
   -0.1759    2.5982   20.8108 C   0  0  0  0  0  0  0  0  0  0  0  0
   -0.7179    4.0449   20.9256 C   0  0  0  0  0  0  0  0  0  0  0  0
   -0.4196    4.7090   22.2648 C   0  0  0  0  0  0  0  0  0  0  0  0
   -1.3069    4.7193   23.3453 C   0  0  0  0  0  0  0  0  0  0  0  0
   -0.6930    5.3934   24.3527 N   0  0  0  0  0  0  0  0  0  0  0  0
    0.5658    5.8355   23.9974 C   0  0  0  0  0  0  0  0  0  0  0  0
    0.7825    5.4244   22.6868 C   0  0  0  0  0  0  0  0  0  0  0  0
    2.0519    5.7715   22.0864 C   0  0  0  0  0  0  0  0  0  0  0  0
    2.3402    5.3852   20.7804 O   0  0  0  0  0  0  0  0  0  0  0  0
    2.9746    6.4963   22.8288 N   0  0  0  0  0  0  0  0  0  0  0  0
    2.7224    6.8702   24.1169 C   0  0  0  0  0  0  0  0  0  0  0  0
    1.5552    6.5657   24.7055 N   0  0  0  0  0  0  0  0  0  0  0  0
    3.7353    7.6209   24.8660 N   0  0  0  0  0  0  0  0  0  0  0  0
    5.6336    2.1948   20.8456 C   0  0  0  0  0  0  0  0  0  0  0  0
    6.1845    1.1690   20.4501 O   0  0  0  0  0  0  0  0  0  0  0  0
    6.4047    3.3157   21.3135 N   0  0  0  0  0  0  0  0  0  0  0  0
  1  2  2  0  0  0  0
  1  6  1  0  0  0  0
  1  7  1  0  0  0  0
  2  3  1  0  0  0  0
  3  4  2  0  0  0  0
  4  5  1  0  0  0  0
  4 20  1  0  0  0  0
  5  6  2  0  0  0  0
  7  8  1  0  0  0  0
  8  9  1  0  0  0  0
  9 10  2  0  0  0  0
  9 13  1  0  0  0  0
 10 11  1  0  0  0  0
 11 12  1  0  0  0  0
 12 13  2  0  0  0  0
 12 18  1  0  0  0  0
 13 14  1  0  0  0  0
 14 15  1  0  0  0  0
 14 16  2  0  0  0  0
 16 17  1  0  0  0  0
 17 18  2  0  0  0  0
 17 19  1  0  0  0  0
 20 21  2  0  0  0  0
 20 22  1  0  0  0  0
M  END
>  <CHROM.1>
-99.30819174,-63.51873571,-66.18013542,-94.61329420,2.22890388,4.22207964
22.06030435,0.88129668,0.01033138,-2.45386237

>  <Name>
ligand

>  <RI>
0

>  <Rbt.Current_Directory>
/home/itssahil/PROJECTS/Mol_Feturizer/New_Systems/rnas/4LVY

>  <Rbt.Executable>
rbdock ($Id: //depot/dev/client3/rdock/2013.1/src/exe/rbdock.cxx#4 $)

>  <Rbt.Library>
libRbt.so (2013.1, Build901 2013/11/27)

>  <Rbt.Parameter_File>
/export/apps/rDock/src/rDock_2013.1_src/data/scripts/dock_solv.prm

>  <Rbt.Receptor>
prm/pocket_docking_6.prm

>  <SCORE>
-16.9281

>  <SCORE.INTER>
-14.8516

>  <SCORE.INTER.CONST>
1

>  <SCORE.INTER.POLAR>
0

>  <SCORE.INTER.ROT>
4

>  <SCORE.INTER.SOLV>
5.1977

>  <SCORE.INTER.VDW>
-17.9003

>  <SCORE.INTER.norm>
-0.675075

>  <SCORE.INTRA>
-2.07645

>  <SCORE.INTRA.DIHEDRAL>
0.0870577

>  <SCORE.INTRA.DIHEDRAL.0>
6.18831

>  <SCORE.INTRA.POLAR>
0

>  <SCORE.INTRA.POLAR.0>
0

>  <SCORE.INTRA.REPUL>
0

>  <SCORE.INTRA.REPUL.0>
0

>  <SCORE.INTRA.SOLV>
0.747575

>  <SCORE.INTRA.SOLV.lig_0>
-44.3465

>  <SCORE.INTRA.VDW>
-2.49376

>  <SCORE.INTRA.VDW.0>
-0.778272

>  <SCORE.INTRA.norm>
-0.0943839

>  <SCORE.RESTR>
0

>  <SCORE.RESTR.CAVITY>
0

>  <SCORE.RESTR.norm>
0

>  <SCORE.SYSTEM>
0

>  <SCORE.SYSTEM.CONST>
0

>  <SCORE.SYSTEM.DIHEDRAL>
0

>  <SCORE.SYSTEM.SOLV>
0

>  <SCORE.SYSTEM.norm>
0

>  <SCORE.heavy>
22

>  <SCORE.norm>
-0.769459

>  <RMSD>
3.427

$$$$
ligand
 OpenBabel11021811503D
libRbt.so/2013.1/901 2013/11/27
 22 24  0  0  0  0  0  0  0  0999 V2000
    1.2461    2.5113   20.3601 C   0  0  0  0  0  0  0  0  0  0  0  0
    1.8584    3.1209   19.2447 C   0  0  0  0  0  0  0  0  0  0  0  0
    3.2122    2.9028   19.0038 C   0  0  0  0  0  0  0  0  0  0  0  0
    3.9466    2.0800   19.8755 C   0  0  0  0  0  0  0  0  0  0  0  0
    3.3352    1.4749   21.0011 C   0  0  0  0  0  0  0  0  0  0  0  0
    1.9854    1.6942   21.2401 C   0  0  0  0  0  0  0  0  0  0  0  0
   -0.2469    2.7570   20.6509 C   0  0  0  0  0  0  0  0  0  0  0  0
   -0.5441    3.4562   22.0010 C   0  0  0  0  0  0  0  0  0  0  0  0
   -0.1360    4.9244   22.0362 C   0  0  0  0  0  0  0  0  0  0  0  0
   -0.8945    5.9586   21.4794 C   0  0  0  0  0  0  0  0  0  0  0  0
   -0.2172    7.1132   21.7121 N   0  0  0  0  0  0  0  0  0  0  0  0
    0.9610    6.9008   22.3998 C   0  0  0  0  0  0  0  0  0  0  0  0
    1.0536    5.5323   22.6281 C   0  0  0  0  0  0  0  0  0  0  0  0
    2.2170    5.0590   23.3455 C   0  0  0  0  0  0  0  0  0  0  0  0
    2.3712    3.7022   23.6167 O   0  0  0  0  0  0  0  0  0  0  0  0
    3.1766    5.9748   23.7557 N   0  0  0  0  0  0  0  0  0  0  0  0
    3.0387    7.3116   23.5180 C   0  0  0  0  0  0  0  0  0  0  0  0
    1.9724    7.7859   22.8548 N   0  0  0  0  0  0  0  0  0  0  0  0
    4.0714    8.2420   23.9854 N   0  0  0  0  0  0  0  0  0  0  0  0
    5.4102    1.8654   19.5943 C   0  0  0  0  0  0  0  0  0  0  0  0
    6.0233    0.9646   20.1641 O   0  0  0  0  0  0  0  0  0  0  0  0
    6.0722    2.7338   18.6575 N   0  0  0  0  0  0  0  0  0  0  0  0
  1  2  2  0  0  0  0
  1  6  1  0  0  0  0
  1  7  1  0  0  0  0
  2  3  1  0  0  0  0
  3  4  2  0  0  0  0
  4  5  1  0  0  0  0
  4 20  1  0  0  0  0
  5  6  2  0  0  0  0
  7  8  1  0  0  0  0
  8  9  1  0  0  0  0
  9 10  2  0  0  0  0
  9 13  1  0  0  0  0
 10 11  1  0  0  0  0
 11 12  1  0  0  0  0
 12 13  2  0  0  0  0
 12 18  1  0  0  0  0
 13 14  1  0  0  0  0
 14 15  1  0  0  0  0
 14 16  2  0  0  0  0
 16 17  1  0  0  0  0
 17 18  2  0  0  0  0
 17 19  1  0  0  0  0
 20 21  2  0  0  0  0
 20 22  1  0  0  0  0
M  END
>  <CHROM.1>
-117.77870991,-165.89706395,70.86382155,79.80857095,2.31100398,4.27813826
21.53782555,1.08368801,0.01245674,-2.56436988

>  <Name>
ligand

>  <RI>
0

>  <Rbt.Current_Directory>
/home/itssahil/PROJECTS/Mol_Feturizer/New_Systems/rnas/4LVY

>  <Rbt.Executable>
rbdock ($Id: //depot/dev/client3/rdock/2013.1/src/exe/rbdock.cxx#4 $)

>  <Rbt.Library>
libRbt.so (2013.1, Build901 2013/11/27)

>  <Rbt.Parameter_File>
/export/apps/rDock/src/rDock_2013.1_src/data/scripts/dock_solv.prm

>  <Rbt.Receptor>
prm/pocket_docking_6.prm

>  <SCORE>
-16.4346

>  <SCORE.INTER>
-15.6179

>  <SCORE.INTER.CONST>
1

>  <SCORE.INTER.POLAR>
0

>  <SCORE.INTER.ROT>
4

>  <SCORE.INTER.SOLV>
7.426

>  <SCORE.INTER.VDW>
-19.1539

>  <SCORE.INTER.norm>
-0.709903

>  <SCORE.INTRA>
-0.816741

>  <SCORE.INTRA.DIHEDRAL>
0.540048

>  <SCORE.INTRA.DIHEDRAL.0>
6.18831

>  <SCORE.INTRA.POLAR>
0

>  <SCORE.INTRA.POLAR.0>
0

>  <SCORE.INTRA.REPUL>
0

>  <SCORE.INTRA.REPUL.0>
0

>  <SCORE.INTRA.SOLV>
0.365349

>  <SCORE.INTRA.SOLV.lig_0>
-44.3465

>  <SCORE.INTRA.VDW>
-1.26944

>  <SCORE.INTRA.VDW.0>
-0.778272

>  <SCORE.INTRA.norm>
-0.0371246

>  <SCORE.RESTR>
0

>  <SCORE.RESTR.CAVITY>
0

>  <SCORE.RESTR.norm>
0

>  <SCORE.SYSTEM>
0

>  <SCORE.SYSTEM.CONST>
0

>  <SCORE.SYSTEM.DIHEDRAL>
0

>  <SCORE.SYSTEM.SOLV>
0

>  <SCORE.SYSTEM.norm>
0

>  <SCORE.heavy>
22

>  <SCORE.norm>
-0.747027

>  <RMSD>
3.428

$$$$
ligand
 OpenBabel11021811503D
libRbt.so/2013.1/901 2013/11/27
 22 24  0  0  0  0  0  0  0  0999 V2000
    1.3758    2.5204   20.8204 C   0  0  0  0  0  0  0  0  0  0  0  0
    2.0508    2.5996   22.0569 C   0  0  0  0  0  0  0  0  0  0  0  0
    3.4374    2.4781   22.0879 C   0  0  0  0  0  0  0  0  0  0  0  0
    4.1417    2.2778   20.8879 C   0  0  0  0  0  0  0  0  0  0  0  0
    3.4644    2.1886   19.6468 C   0  0  0  0  0  0  0  0  0  0  0  0
    2.0818    2.3093   19.6180 C   0  0  0  0  0  0  0  0  0  0  0  0
   -0.1599    2.6349   20.7708 C   0  0  0  0  0  0  0  0  0  0  0  0
   -0.7127    4.0770   20.8923 C   0  0  0  0  0  0  0  0  0  0  0  0
   -0.4220    4.7360   22.2357 C   0  0  0  0  0  0  0  0  0  0  0  0
   -1.3043    4.7188   23.3203 C   0  0  0  0  0  0  0  0  0  0  0  0
   -0.6998    5.3971   24.3305 N   0  0  0  0  0  0  0  0  0  0  0  0
    0.5478    5.8685   23.9731 C   0  0  0  0  0  0  0  0  0  0  0  0
    0.7668    5.4729   22.6582 C   0  0  0  0  0  0  0  0  0  0  0  0
    2.0258    5.8515   22.0550 C   0  0  0  0  0  0  0  0  0  0  0  0
    2.3160    5.4822   20.7444 O   0  0  0  0  0  0  0  0  0  0  0  0
    2.9367    6.5893   22.7992 N   0  0  0  0  0  0  0  0  0  0  0  0
    2.6829    6.9471   24.0915 C   0  0  0  0  0  0  0  0  0  0  0  0
    1.5250    6.6133   24.6828 N   0  0  0  0  0  0  0  0  0  0  0  0
    3.6833    7.7125   24.8424 N   0  0  0  0  0  0  0  0  0  0  0  0
    5.6402    2.1445   20.9511 C   0  0  0  0  0  0  0  0  0  0  0  0
    6.1602    1.4058   21.7853 O   0  0  0  0  0  0  0  0  0  0  0  0
    6.4444    2.8986   20.0267 N   0  0  0  0  0  0  0  0  0  0  0  0
  1  2  2  0  0  0  0
  1  6  1  0  0  0  0
  1  7  1  0  0  0  0
  2  3  1  0  0  0  0
  3  4  2  0  0  0  0
  4  5  1  0  0  0  0
  4 20  1  0  0  0  0
  5  6  2  0  0  0  0
  7  8  1  0  0  0  0
  8  9  1  0  0  0  0
  9 10  2  0  0  0  0
  9 13  1  0  0  0  0
 10 11  1  0  0  0  0
 11 12  1  0  0  0  0
 12 13  2  0  0  0  0
 12 18  1  0  0  0  0
 13 14  1  0  0  0  0
 14 15  1  0  0  0  0
 14 16  2  0  0  0  0
 16 17  1  0  0  0  0
 17 18  2  0  0  0  0
 17 19  1  0  0  0  0
 20 21  2  0  0  0  0
 20 22  1  0  0  0  0
M  END
>  <CHROM.1>
78.09943129,46.81118339,-64.52749540,-93.72579261,2.22229130,4.24627037,22.06324155
0.86612031,0.02918691,-2.46137933

>  <Name>
ligand

>  <RI>
0

>  <Rbt.Current_Directory>
/home/itssahil/PROJECTS/Mol_Feturizer/New_Systems/rnas/4LVY

>  <Rbt.Executable>
rbdock ($Id: //depot/dev/client3/rdock/2013.1/src/exe/rbdock.cxx#4 $)

>  <Rbt.Library>
libRbt.so (2013.1, Build901 2013/11/27)

>  <Rbt.Parameter_File>
/export/apps/rDock/src/rDock_2013.1_src/data/scripts/dock_solv.prm

>  <Rbt.Receptor>
prm/pocket_docking_8.prm

>  <SCORE>
-16.7202

>  <SCORE.INTER>
-14.761

>  <SCORE.INTER.CONST>
1

>  <SCORE.INTER.POLAR>
0

>  <SCORE.INTER.ROT>
4

>  <SCORE.INTER.SOLV>
4.82477

>  <SCORE.INTER.VDW>
-17.7156

>  <SCORE.INTER.norm>
-0.670953

>  <SCORE.INTRA>
-1.9592

>  <SCORE.INTRA.DIHEDRAL>
0.12751

>  <SCORE.INTRA.DIHEDRAL.0>
6.18831

>  <SCORE.INTRA.POLAR>
0

>  <SCORE.INTRA.POLAR.0>
0

>  <SCORE.INTRA.REPUL>
0

>  <SCORE.INTRA.REPUL.0>
0

>  <SCORE.INTRA.SOLV>
0.67008

>  <SCORE.INTRA.SOLV.lig_0>
-44.3465

>  <SCORE.INTRA.VDW>
-2.35799

>  <SCORE.INTRA.VDW.0>
-0.778272

>  <SCORE.INTRA.norm>
-0.0890545

>  <SCORE.RESTR>
0

>  <SCORE.RESTR.CAVITY>
0

>  <SCORE.RESTR.norm>
0

>  <SCORE.SYSTEM>
0

>  <SCORE.SYSTEM.CONST>
0

>  <SCORE.SYSTEM.DIHEDRAL>
0

>  <SCORE.SYSTEM.SOLV>
0

>  <SCORE.SYSTEM.norm>
0

>  <SCORE.heavy>
22

>  <SCORE.norm>
-0.760008

>  <RMSD>
3.428

$$$$
ligand
 OpenBabel11021811503D
libRbt.so/2013.1/901 2013/11/27
 22 24  0  0  0  0  0  0  0  0999 V2000
    1.2259    2.5072   20.2998 C   0  0  0  0  0  0  0  0  0  0  0  0
    1.9343    1.6378   21.1560 C   0  0  0  0  0  0  0  0  0  0  0  0
    3.2903    1.4142   20.9336 C   0  0  0  0  0  0  0  0  0  0  0  0
    3.9310    2.0570   19.8600 C   0  0  0  0  0  0  0  0  0  0  0  0
    3.2188    2.9227   18.9939 C   0  0  0  0  0  0  0  0  0  0  0  0
    1.8666    3.1439   19.2169 C   0  0  0  0  0  0  0  0  0  0  0  0
   -0.2792    2.7514   20.5215 C   0  0  0  0  0  0  0  0  0  0  0  0
   -0.6535    3.3037   21.9196 C   0  0  0  0  0  0  0  0  0  0  0  0
   -0.1474    4.7181   22.1779 C   0  0  0  0  0  0  0  0  0  0  0  0
   -0.8325    5.8744   21.7924 C   0  0  0  0  0  0  0  0  0  0  0  0
   -0.0797    6.9311   22.1957 N   0  0  0  0  0  0  0  0  0  0  0  0
    1.0791    6.5365   22.8342 C   0  0  0  0  0  0  0  0  0  0  0  0
    1.0784    5.1461   22.8481 C   0  0  0  0  0  0  0  0  0  0  0  0
    2.2047    4.4907   23.4759 C   0  0  0  0  0  0  0  0  0  0  0  0
    2.2660    3.1011   23.5337 O   0  0  0  0  0  0  0  0  0  0  0  0
    3.2224    5.2657   24.0158 N   0  0  0  0  0  0  0  0  0  0  0  0
    3.1759    6.6294   23.9879 C   0  0  0  0  0  0  0  0  0  0  0  0
    2.1463    7.2709   23.4132 N   0  0  0  0  0  0  0  0  0  0  0  0
    4.2673    7.4051   24.5860 N   0  0  0  0  0  0  0  0  0  0  0  0
    5.3969    1.7930   19.6394 C   0  0  0  0  0  0  0  0  0  0  0  0
    5.9110    2.0344   18.5488 O   0  0  0  0  0  0  0  0  0  0  0  0
    6.1755    1.2503   20.7207 N   0  0  0  0  0  0  0  0  0  0  0  0
  1  2  2  0  0  0  0
  1  6  1  0  0  0  0
  1  7  1  0  0  0  0
  2  3  1  0  0  0  0
  3  4  2  0  0  0  0
  4  5  1  0  0  0  0
  4 20  1  0  0  0  0
  5  6  2  0  0  0  0
  7  8  1  0  0  0  0
  8  9  1  0  0  0  0
  9 10  2  0  0  0  0
  9 13  1  0  0  0  0
 10 11  1  0  0  0  0
 11 12  1  0  0  0  0
 12 13  2  0  0  0  0
 12 18  1  0  0  0  0
 13 14  1  0  0  0  0
 14 15  1  0  0  0  0
 14 16  2  0  0  0  0
 16 17  1  0  0  0  0
 17 18  2  0  0  0  0
 17 19  1  0  0  0  0
 20 21  2  0  0  0  0
 20 22  1  0  0  0  0
M  END
>  <CHROM.1>
57.78724940,160.90533012,67.06115100,85.40721676,2.33191233,4.01077549,21.68914107
1.06363944,0.09454074,-2.41850631

>  <Name>
ligand

>  <RI>
0

>  <Rbt.Current_Directory>
/home/itssahil/PROJECTS/Mol_Feturizer/New_Systems/rnas/4LVY

>  <Rbt.Executable>
rbdock ($Id: //depot/dev/client3/rdock/2013.1/src/exe/rbdock.cxx#4 $)

>  <Rbt.Library>
libRbt.so (2013.1, Build901 2013/11/27)

>  <Rbt.Parameter_File>
/export/apps/rDock/src/rDock_2013.1_src/data/scripts/dock_solv.prm

>  <Rbt.Receptor>
prm/pocket_docking_3.prm

>  <SCORE>
-14.8616

>  <SCORE.INTER>
-14.3937

>  <SCORE.INTER.CONST>
1

>  <SCORE.INTER.POLAR>
0

>  <SCORE.INTER.ROT>
4

>  <SCORE.INTER.SOLV>
8.02497

>  <SCORE.INTER.VDW>
-18.5375

>  <SCORE.INTER.norm>
-0.654259

>  <SCORE.INTRA>
-0.949898

>  <SCORE.INTRA.DIHEDRAL>
0.220946

>  <SCORE.INTRA.DIHEDRAL.0>
6.18831

>  <SCORE.INTRA.POLAR>
0

>  <SCORE.INTRA.POLAR.0>
0

>  <SCORE.INTRA.REPUL>
0

>  <SCORE.INTRA.REPUL.0>
0

>  <SCORE.INTRA.SOLV>
0.518105

>  <SCORE.INTRA.SOLV.lig_0>
-44.3465

>  <SCORE.INTRA.VDW>
-1.31942

>  <SCORE.INTRA.VDW.0>
-0.778272

>  <SCORE.INTRA.norm>
-0.0431772

>  <SCORE.RESTR>
0.481995

>  <SCORE.RESTR.CAVITY>
0.481995

>  <SCORE.RESTR.norm>
0.0219088

>  <SCORE.SYSTEM>
0

>  <SCORE.SYSTEM.CONST>
0

>  <SCORE.SYSTEM.DIHEDRAL>
0

>  <SCORE.SYSTEM.SOLV>
0

>  <SCORE.SYSTEM.norm>
0

>  <SCORE.heavy>
22

>  <SCORE.norm>
-0.675528

>  <RMSD>
3.463

$$$$
ligand
 OpenBabel11021811503D
libRbt.so/2013.1/901 2013/11/27
 22 24  0  0  0  0  0  0  0  0999 V2000
    1.2066    2.5749   20.3730 C   0  0  0  0  0  0  0  0  0  0  0  0
    1.9676    1.7358   21.2142 C   0  0  0  0  0  0  0  0  0  0  0  0
    3.3049    1.4949   20.9108 C   0  0  0  0  0  0  0  0  0  0  0  0
    3.8744    2.0904   19.7718 C   0  0  0  0  0  0  0  0  0  0  0  0
    3.1090    2.9255   18.9212 C   0  0  0  0  0  0  0  0  0  0  0  0
    1.7755    3.1639   19.2250 C   0  0  0  0  0  0  0  0  0  0  0  0
   -0.2793    2.8372   20.6848 C   0  0  0  0  0  0  0  0  0  0  0  0
   -0.5509    3.5217   22.0477 C   0  0  0  0  0  0  0  0  0  0  0  0
   -0.1360    4.9878   22.0932 C   0  0  0  0  0  0  0  0  0  0  0  0
   -0.8948    6.0305   21.5529 C   0  0  0  0  0  0  0  0  0  0  0  0
   -0.2103    7.1798   21.7906 N   0  0  0  0  0  0  0  0  0  0  0  0
    0.9729    6.9558   22.4659 C   0  0  0  0  0  0  0  0  0  0  0  0
    1.0614    5.5848   22.6804 C   0  0  0  0  0  0  0  0  0  0  0  0
    2.2289    5.0995   23.3831 C   0  0  0  0  0  0  0  0  0  0  0  0
    2.3793    3.7396   23.6401 O   0  0  0  0  0  0  0  0  0  0  0  0
    3.1961    6.0073   23.7935 N   0  0  0  0  0  0  0  0  0  0  0  0
    3.0621    7.3469   23.5697 C   0  0  0  0  0  0  0  0  0  0  0  0
    1.9922    7.8321   22.9204 N   0  0  0  0  0  0  0  0  0  0  0  0
    4.1030    8.2682   24.0368 N   0  0  0  0  0  0  0  0  0  0  0  0
    5.3213    1.8086   19.4645 C   0  0  0  0  0  0  0  0  0  0  0  0
    5.8124    2.1865   18.4024 O   0  0  0  0  0  0  0  0  0  0  0  0
    6.1088    1.0878   20.4290 N   0  0  0  0  0  0  0  0  0  0  0  0
  1  2  2  0  0  0  0
  1  6  1  0  0  0  0
  1  7  1  0  0  0  0
  2  3  1  0  0  0  0
  3  4  2  0  0  0  0
  4  5  1  0  0  0  0
  4 20  1  0  0  0  0
  5  6  2  0  0  0  0
  7  8  1  0  0  0  0
  8  9  1  0  0  0  0
  9 10  2  0  0  0  0
  9 13  1  0  0  0  0
 10 11  1  0  0  0  0
 11 12  1  0  0  0  0
 12 13  2  0  0  0  0
 12 18  1  0  0  0  0
 13 14  1  0  0  0  0
 14 15  1  0  0  0  0
 14 16  2  0  0  0  0
 16 17  1  0  0  0  0
 17 18  2  0  0  0  0
 17 19  1  0  0  0  0
 20 21  2  0  0  0  0
 20 22  1  0  0  0  0
M  END
>  <CHROM.1>
61.14384649,171.82381341,71.50332440,79.33553066,2.28739746,4.30294943,21.53849932
1.11151218,0.03014158,-2.53465561

>  <Name>
ligand

>  <RI>
0

>  <Rbt.Current_Directory>
/home/itssahil/PROJECTS/Mol_Feturizer/New_Systems/rnas/4LVY

>  <Rbt.Executable>
rbdock ($Id: //depot/dev/client3/rdock/2013.1/src/exe/rbdock.cxx#4 $)

>  <Rbt.Library>
libRbt.so (2013.1, Build901 2013/11/27)

>  <Rbt.Parameter_File>
/export/apps/rDock/src/rDock_2013.1_src/data/scripts/dock_solv.prm

>  <Rbt.Receptor>
prm/pocket_docking_5.prm

>  <SCORE>
-16.5246

>  <SCORE.INTER>
-15.7832

>  <SCORE.INTER.CONST>
1

>  <SCORE.INTER.POLAR>
0

>  <SCORE.INTER.ROT>
4

>  <SCORE.INTER.SOLV>
8.50612

>  <SCORE.INTER.VDW>
-19.6242

>  <SCORE.INTER.norm>
-0.717417

>  <SCORE.INTRA>
-0.741444

>  <SCORE.INTRA.DIHEDRAL>
0.574737

>  <SCORE.INTRA.DIHEDRAL.0>
6.18831

>  <SCORE.INTRA.POLAR>
0

>  <SCORE.INTRA.POLAR.0>
0

>  <SCORE.INTRA.REPUL>
0

>  <SCORE.INTRA.REPUL.0>
0

>  <SCORE.INTRA.SOLV>
0.341177

>  <SCORE.INTRA.SOLV.lig_0>
-44.3465

>  <SCORE.INTRA.VDW>
-1.1994

>  <SCORE.INTRA.VDW.0>
-0.778272

>  <SCORE.INTRA.norm>
-0.033702

>  <SCORE.RESTR>
0

>  <SCORE.RESTR.CAVITY>
0

>  <SCORE.RESTR.norm>
0

>  <SCORE.SYSTEM>
0

>  <SCORE.SYSTEM.CONST>
0

>  <SCORE.SYSTEM.DIHEDRAL>
0

>  <SCORE.SYSTEM.SOLV>
0

>  <SCORE.SYSTEM.norm>
0

>  <SCORE.heavy>
22

>  <SCORE.norm>
-0.751119

>  <RMSD>
3.520

$$$$
ligand
 OpenBabel11021811503D
libRbt.so/2013.1/901 2013/11/27
 22 24  0  0  0  0  0  0  0  0999 V2000
    1.1506    2.6558   20.3359 C   0  0  0  0  0  0  0  0  0  0  0  0
    1.7538    3.2801   19.2236 C   0  0  0  0  0  0  0  0  0  0  0  0
    3.0904    3.0188   18.9346 C   0  0  0  0  0  0  0  0  0  0  0  0
    3.8168    2.1387   19.7555 C   0  0  0  0  0  0  0  0  0  0  0  0
    3.2151    1.5186   20.8781 C   0  0  0  0  0  0  0  0  0  0  0  0
    1.8824    1.7810   21.1651 C   0  0  0  0  0  0  0  0  0  0  0  0
   -0.3226    2.9482   20.6799 C   0  0  0  0  0  0  0  0  0  0  0  0
   -0.5538    3.6005   22.0659 C   0  0  0  0  0  0  0  0  0  0  0  0
   -0.1346    5.0644   22.1344 C   0  0  0  0  0  0  0  0  0  0  0  0
   -0.8935    6.1183   21.6163 C   0  0  0  0  0  0  0  0  0  0  0  0
   -0.2046    7.2615   21.8700 N   0  0  0  0  0  0  0  0  0  0  0  0
    0.9817    7.0228   22.5347 C   0  0  0  0  0  0  0  0  0  0  0  0
    1.0676    5.6480   22.7251 C   0  0  0  0  0  0  0  0  0  0  0  0
    2.2376    5.1477   23.4129 C   0  0  0  0  0  0  0  0  0  0  0  0
    2.3858    3.7831   23.6456 O   0  0  0  0  0  0  0  0  0  0  0  0
    3.2096    6.0456   23.8335 N   0  0  0  0  0  0  0  0  0  0  0  0
    3.0780    7.3893   23.6335 C   0  0  0  0  0  0  0  0  0  0  0  0
    2.0059    7.8884   22.9986 N   0  0  0  0  0  0  0  0  0  0  0  0
    4.1240    8.2997   24.1107 N   0  0  0  0  0  0  0  0  0  0  0  0
    5.2621    1.8782   19.4230 C   0  0  0  0  0  0  0  0  0  0  0  0
    5.9334    1.1284   20.1296 O   0  0  0  0  0  0  0  0  0  0  0  0
    5.8383    2.5252   18.2743 N   0  0  0  0  0  0  0  0  0  0  0  0
  1  2  2  0  0  0  0
  1  6  1  0  0  0  0
  1  7  1  0  0  0  0
  2  3  1  0  0  0  0
  3  4  2  0  0  0  0
  4  5  1  0  0  0  0
  4 20  1  0  0  0  0
  5  6  2  0  0  0  0
  7  8  1  0  0  0  0
  8  9  1  0  0  0  0
  9 10  2  0  0  0  0
  9 13  1  0  0  0  0
 10 11  1  0  0  0  0
 11 12  1  0  0  0  0
 12 13  2  0  0  0  0
 12 18  1  0  0  0  0
 13 14  1  0  0  0  0
 14 15  1  0  0  0  0
 14 16  2  0  0  0  0
 16 17  1  0  0  0  0
 17 18  2  0  0  0  0
 17 19  1  0  0  0  0
 20 21  2  0  0  0  0
 20 22  1  0  0  0  0
M  END
>  <CHROM.1>
-118.24681974,179.00807271,73.10029754,77.96320133,2.26714395,4.37222857
21.55001580,1.12883915,0.01739976,-2.52506057

>  <Name>
ligand

>  <RI>
0

>  <Rbt.Current_Directory>
/home/itssahil/PROJECTS/Mol_Feturizer/New_Systems/rnas/4LVY

>  <Rbt.Executable>
rbdock ($Id: //depot/dev/client3/rdock/2013.1/src/exe/rbdock.cxx#4 $)

>  <Rbt.Library>
libRbt.so (2013.1, Build901 2013/11/27)

>  <Rbt.Parameter_File>
/export/apps/rDock/src/rDock_2013.1_src/data/scripts/dock_solv.prm

>  <Rbt.Receptor>
prm/pocket_docking_5.prm

>  <SCORE>
-16.5672

>  <SCORE.INTER>
-15.9286

>  <SCORE.INTER.CONST>
1

>  <SCORE.INTER.POLAR>
0

>  <SCORE.INTER.ROT>
4

>  <SCORE.INTER.SOLV>
8.36466

>  <SCORE.INTER.VDW>
-19.674

>  <SCORE.INTER.norm>
-0.724029

>  <SCORE.INTRA>
-0.638608

>  <SCORE.INTRA.DIHEDRAL>
0.730899

>  <SCORE.INTRA.DIHEDRAL.0>
6.18831

>  <SCORE.INTRA.POLAR>
0

>  <SCORE.INTRA.POLAR.0>
0

>  <SCORE.INTRA.REPUL>
0

>  <SCORE.INTRA.REPUL.0>
0

>  <SCORE.INTRA.SOLV>
0.316595

>  <SCORE.INTRA.SOLV.lig_0>
-44.3465

>  <SCORE.INTRA.VDW>
-1.16235

>  <SCORE.INTRA.VDW.0>
-0.778272

>  <SCORE.INTRA.norm>
-0.0290276

>  <SCORE.RESTR>
0

>  <SCORE.RESTR.CAVITY>
0

>  <SCORE.RESTR.norm>
0

>  <SCORE.SYSTEM>
0

>  <SCORE.SYSTEM.CONST>
0

>  <SCORE.SYSTEM.DIHEDRAL>
0

>  <SCORE.SYSTEM.SOLV>
0

>  <SCORE.SYSTEM.norm>
0

>  <SCORE.heavy>
22

>  <SCORE.norm>
-0.753056

>  <RMSD>
3.528

$$$$
ligand
 OpenBabel11021811503D
libRbt.so/2013.1/901 2013/11/27
 22 24  0  0  0  0  0  0  0  0999 V2000
    1.1410    2.6447   20.3369 C   0  0  0  0  0  0  0  0  0  0  0  0
    1.7449    3.2229   19.2005 C   0  0  0  0  0  0  0  0  0  0  0  0
    3.0814    2.9491   18.9226 C   0  0  0  0  0  0  0  0  0  0  0  0
    3.8070    2.1024   19.7787 C   0  0  0  0  0  0  0  0  0  0  0  0
    3.2045    1.5288   20.9254 C   0  0  0  0  0  0  0  0  0  0  0  0
    1.8720    1.8035   21.2011 C   0  0  0  0  0  0  0  0  0  0  0  0
   -0.3321    2.9518   20.6684 C   0  0  0  0  0  0  0  0  0  0  0  0
   -0.5721    3.5728   22.0672 C   0  0  0  0  0  0  0  0  0  0  0  0
   -0.1569    5.0358   22.1702 C   0  0  0  0  0  0  0  0  0  0  0  0
   -0.9051    6.0974   21.6523 C   0  0  0  0  0  0  0  0  0  0  0  0
   -0.2241    7.2370   21.9413 N   0  0  0  0  0  0  0  0  0  0  0  0
    0.9467    6.9884   22.6296 C   0  0  0  0  0  0  0  0  0  0  0  0
    1.0302    5.6108   22.7987 C   0  0  0  0  0  0  0  0  0  0  0  0
    2.1846    5.1002   23.5051 C   0  0  0  0  0  0  0  0  0  0  0  0
    2.3293    3.7321   23.7182 O   0  0  0  0  0  0  0  0  0  0  0  0
    3.1450    5.9920   23.9636 N   0  0  0  0  0  0  0  0  0  0  0  0
    3.0161    7.3387   23.7832 C   0  0  0  0  0  0  0  0  0  0  0  0
    1.9583    7.8473   23.1319 N   0  0  0  0  0  0  0  0  0  0  0  0
    4.0492    8.2421   24.3001 N   0  0  0  0  0  0  0  0  0  0  0  0
    5.2522    1.8276   19.4575 C   0  0  0  0  0  0  0  0  0  0  0  0
    5.7692    2.3267   18.4597 O   0  0  0  0  0  0  0  0  0  0  0  0
    6.0074    0.9703   20.3319 N   0  0  0  0  0  0  0  0  0  0  0  0
  1  2  2  0  0  0  0
  1  6  1  0  0  0  0
  1  7  1  0  0  0  0
  2  3  1  0  0  0  0
  3  4  2  0  0  0  0
  4  5  1  0  0  0  0
  4 20  1  0  0  0  0
  5  6  2  0  0  0  0
  7  8  1  0  0  0  0
  8  9  1  0  0  0  0
  9 10  2  0  0  0  0
  9 13  1  0  0  0  0
 10 11  1  0  0  0  0
 11 12  1  0  0  0  0
 12 13  2  0  0  0  0
 12 18  1  0  0  0  0
 13 14  1  0  0  0  0
 14 15  1  0  0  0  0
 14 16  2  0  0  0  0
 16 17  1  0  0  0  0
 17 18  2  0  0  0  0
 17 19  1  0  0  0  0
 20 21  2  0  0  0  0
 20 22  1  0  0  0  0
M  END
>  <CHROM.1>
-122.18230287,-0.74759020,74.26180756,76.88087825,2.23947186,4.33317947,21.61128401
1.13126757,0.05036566,-2.49875364

>  <Name>
ligand

>  <RI>
0

>  <Rbt.Current_Directory>
/home/itssahil/PROJECTS/Mol_Feturizer/New_Systems/rnas/4LVY

>  <Rbt.Executable>
rbdock ($Id: //depot/dev/client3/rdock/2013.1/src/exe/rbdock.cxx#4 $)

>  <Rbt.Library>
libRbt.so (2013.1, Build901 2013/11/27)

>  <Rbt.Parameter_File>
/export/apps/rDock/src/rDock_2013.1_src/data/scripts/dock_solv.prm

>  <Rbt.Receptor>
prm/pocket_docking_7.prm

>  <SCORE>
-16.4621

>  <SCORE.INTER>
-16.0476

>  <SCORE.INTER.CONST>
1

>  <SCORE.INTER.POLAR>
0

>  <SCORE.INTER.ROT>
4

>  <SCORE.INTER.SOLV>
9.15863

>  <SCORE.INTER.VDW>
-20.018

>  <SCORE.INTER.norm>
-0.729437

>  <SCORE.INTRA>
-0.414478

>  <SCORE.INTRA.DIHEDRAL>
0.86931

>  <SCORE.INTRA.DIHEDRAL.0>
6.18831

>  <SCORE.INTRA.POLAR>
0

>  <SCORE.INTRA.POLAR.0>
0

>  <SCORE.INTRA.REPUL>
0

>  <SCORE.INTRA.REPUL.0>
0

>  <SCORE.INTRA.SOLV>
0.308353

>  <SCORE.INTRA.SOLV.lig_0>
-44.3465

>  <SCORE.INTRA.VDW>
-1.00331

>  <SCORE.INTRA.VDW.0>
-0.778272

>  <SCORE.INTRA.norm>
-0.0188399

>  <SCORE.RESTR>
0

>  <SCORE.RESTR.CAVITY>
0

>  <SCORE.RESTR.norm>
0

>  <SCORE.SYSTEM>
0

>  <SCORE.SYSTEM.CONST>
0

>  <SCORE.SYSTEM.DIHEDRAL>
0

>  <SCORE.SYSTEM.SOLV>
0

>  <SCORE.SYSTEM.norm>
0

>  <SCORE.heavy>
22

>  <SCORE.norm>
-0.748277

>  <RMSD>
3.548

$$$$
ligand
 OpenBabel11021811503D
libRbt.so/2013.1/901 2013/11/27
 22 24  0  0  0  0  0  0  0  0999 V2000
    1.0926    2.6698   20.4103 C   0  0  0  0  0  0  0  0  0  0  0  0
    1.6768    3.3368   19.3129 C   0  0  0  0  0  0  0  0  0  0  0  0
    3.0115    3.0960   18.9981 C   0  0  0  0  0  0  0  0  0  0  0  0
    3.7549    2.1937   19.7787 C   0  0  0  0  0  0  0  0  0  0  0  0
    3.1722    1.5305   20.8866 C   0  0  0  0  0  0  0  0  0  0  0  0
    1.8415    1.7724   21.1994 C   0  0  0  0  0  0  0  0  0  0  0  0
   -0.3781    2.9387   20.7829 C   0  0  0  0  0  0  0  0  0  0  0  0
   -0.5922    3.5950   22.1698 C   0  0  0  0  0  0  0  0  0  0  0  0
   -0.1734    5.0594   22.2285 C   0  0  0  0  0  0  0  0  0  0  0  0
   -0.9362    6.1104   21.7102 C   0  0  0  0  0  0  0  0  0  0  0  0
   -0.2463    7.2552   21.9539 N   0  0  0  0  0  0  0  0  0  0  0  0
    0.9443    7.0203   22.6122 C   0  0  0  0  0  0  0  0  0  0  0  0
    1.0322    5.6465   22.8086 C   0  0  0  0  0  0  0  0  0  0  0  0
    2.2069    5.1501   23.4912 C   0  0  0  0  0  0  0  0  0  0  0  0
    2.3573    3.7868   23.7295 O   0  0  0  0  0  0  0  0  0  0  0  0
    3.1810    6.0506   23.9013 N   0  0  0  0  0  0  0  0  0  0  0  0
    3.0475    7.3932   23.6956 C   0  0  0  0  0  0  0  0  0  0  0  0
    1.9710    7.8887   23.0653 N   0  0  0  0  0  0  0  0  0  0  0  0
    4.0959    8.3065   24.1617 N   0  0  0  0  0  0  0  0  0  0  0  0
    5.1976    1.9561   19.4191 C   0  0  0  0  0  0  0  0  0  0  0  0
    5.8580    1.1201   20.0332 O   0  0  0  0  0  0  0  0  0  0  0  0
    5.7843    2.7263   18.3549 N   0  0  0  0  0  0  0  0  0  0  0  0
  1  2  2  0  0  0  0
  1  6  1  0  0  0  0
  1  7  1  0  0  0  0
  2  3  1  0  0  0  0
  3  4  2  0  0  0  0
  4  5  1  0  0  0  0
  4 20  1  0  0  0  0
  5  6  2  0  0  0  0
  7  8  1  0  0  0  0
  8  9  1  0  0  0  0
  9 10  2  0  0  0  0
  9 13  1  0  0  0  0
 10 11  1  0  0  0  0
 11 12  1  0  0  0  0
 12 13  2  0  0  0  0
 12 18  1  0  0  0  0
 13 14  1  0  0  0  0
 14 15  1  0  0  0  0
 14 16  2  0  0  0  0
 16 17  1  0  0  0  0
 17 18  2  0  0  0  0
 17 19  1  0  0  0  0
 20 21  2  0  0  0  0
 20 22  1  0  0  0  0
M  END
>  <CHROM.1>
-115.82724218,-176.02571651,72.04243237,77.59034684,2.22074257,4.39284656
21.60924272,1.13272502,-0.00746625,-2.52367292

>  <Name>
ligand

>  <RI>
0

>  <Rbt.Current_Directory>
/home/itssahil/PROJECTS/Mol_Feturizer/New_Systems/rnas/4LVY

>  <Rbt.Executable>
rbdock ($Id: //depot/dev/client3/rdock/2013.1/src/exe/rbdock.cxx#4 $)

>  <Rbt.Library>
libRbt.so (2013.1, Build901 2013/11/27)

>  <Rbt.Parameter_File>
/export/apps/rDock/src/rDock_2013.1_src/data/scripts/dock_solv.prm

>  <Rbt.Receptor>
prm/pocket_docking_4.prm

>  <SCORE>
-16.547

>  <SCORE.INTER>
-15.8254

>  <SCORE.INTER.CONST>
1

>  <SCORE.INTER.POLAR>
0

>  <SCORE.INTER.ROT>
4

>  <SCORE.INTER.SOLV>
8.29099

>  <SCORE.INTER.VDW>
-19.5806

>  <SCORE.INTER.norm>
-0.719335

>  <SCORE.INTRA>
-0.721615

>  <SCORE.INTRA.DIHEDRAL>
0.624462

>  <SCORE.INTRA.DIHEDRAL.0>
6.18831

>  <SCORE.INTRA.POLAR>
0

>  <SCORE.INTRA.POLAR.0>
0

>  <SCORE.INTRA.REPUL>
0

>  <SCORE.INTRA.REPUL.0>
0

>  <SCORE.INTRA.SOLV>
0.296356

>  <SCORE.INTRA.SOLV.lig_0>
-44.3465

>  <SCORE.INTRA.VDW>
-1.18202

>  <SCORE.INTRA.VDW.0>
-0.778272

>  <SCORE.INTRA.norm>
-0.0328007

>  <SCORE.RESTR>
0

>  <SCORE.RESTR.CAVITY>
0

>  <SCORE.RESTR.norm>
0

>  <SCORE.SYSTEM>
0

>  <SCORE.SYSTEM.CONST>
0

>  <SCORE.SYSTEM.DIHEDRAL>
0

>  <SCORE.SYSTEM.SOLV>
0

>  <SCORE.SYSTEM.norm>
0

>  <SCORE.heavy>
22

>  <SCORE.norm>
-0.752136

>  <RMSD>
3.554

$$$$
ligand
 OpenBabel11021811503D
libRbt.so/2013.1/901 2013/11/27
 22 24  0  0  0  0  0  0  0  0999 V2000
    1.1422    2.6784   20.3656 C   0  0  0  0  0  0  0  0  0  0  0  0
    1.8913    1.7984   21.1748 C   0  0  0  0  0  0  0  0  0  0  0  0
    3.2221    1.5419   20.8560 C   0  0  0  0  0  0  0  0  0  0  0  0
    3.7969    2.1628   19.7333 C   0  0  0  0  0  0  0  0  0  0  0  0
    3.0432    3.0392   18.9145 C   0  0  0  0  0  0  0  0  0  0  0  0
    1.7162    3.2932   19.2336 C   0  0  0  0  0  0  0  0  0  0  0  0
   -0.3368    2.9590   20.6944 C   0  0  0  0  0  0  0  0  0  0  0  0
   -0.5890    3.5923   22.0855 C   0  0  0  0  0  0  0  0  0  0  0  0
   -0.1683    5.0543   22.1811 C   0  0  0  0  0  0  0  0  0  0  0  0
   -0.9212    6.1176   21.6738 C   0  0  0  0  0  0  0  0  0  0  0  0
   -0.2328    7.2555   21.9517 N   0  0  0  0  0  0  0  0  0  0  0  0
    0.9475    7.0041   22.6224 C   0  0  0  0  0  0  0  0  0  0  0  0
    1.0298    5.6264   22.7913 C   0  0  0  0  0  0  0  0  0  0  0  0
    2.1933    5.1131   23.4806 C   0  0  0  0  0  0  0  0  0  0  0  0
    2.3375    3.7448   23.6924 O   0  0  0  0  0  0  0  0  0  0  0  0
    3.1629    6.0026   23.9239 N   0  0  0  0  0  0  0  0  0  0  0  0
    3.0350    7.3495   23.7445 C   0  0  0  0  0  0  0  0  0  0  0  0
    1.9690    7.8606   23.1089 N   0  0  0  0  0  0  0  0  0  0  0  0
    4.0782    8.2504   24.2451 N   0  0  0  0  0  0  0  0  0  0  0  0
    5.2364    1.8634   19.4085 C   0  0  0  0  0  0  0  0  0  0  0  0
    5.7105    2.2077   18.3274 O   0  0  0  0  0  0  0  0  0  0  0  0
    6.0370    1.1657   20.3792 N   0  0  0  0  0  0  0  0  0  0  0  0
  1  2  2  0  0  0  0
  1  6  1  0  0  0  0
  1  7  1  0  0  0  0
  2  3  1  0  0  0  0
  3  4  2  0  0  0  0
  4  5  1  0  0  0  0
  4 20  1  0  0  0  0
  5  6  2  0  0  0  0
  7  8  1  0  0  0  0
  8  9  1  0  0  0  0
  9 10  2  0  0  0  0
  9 13  1  0  0  0  0
 10 11  1  0  0  0  0
 11 12  1  0  0  0  0
 12 13  2  0  0  0  0
 12 18  1  0  0  0  0
 13 14  1  0  0  0  0
 14 15  1  0  0  0  0
 14 16  2  0  0  0  0
 16 17  1  0  0  0  0
 17 18  2  0  0  0  0
 17 19  1  0  0  0  0
 20 21  2  0  0  0  0
 20 22  1  0  0  0  0
M  END
>  <CHROM.1>
60.60364609,168.19037355,72.65025706,78.42031171,2.23716529,4.35703331,21.59404612
1.12923456,0.04045945,-2.49733644

>  <Name>
ligand

>  <RI>
0

>  <Rbt.Current_Directory>
/home/itssahil/PROJECTS/Mol_Feturizer/New_Systems/rnas/4LVY

>  <Rbt.Executable>
rbdock ($Id: //depot/dev/client3/rdock/2013.1/src/exe/rbdock.cxx#4 $)

>  <Rbt.Library>
libRbt.so (2013.1, Build901 2013/11/27)

>  <Rbt.Parameter_File>
/export/apps/rDock/src/rDock_2013.1_src/data/scripts/dock_solv.prm

>  <Rbt.Receptor>
prm/pocket_docking_4.prm

>  <SCORE>
-16.6378

>  <SCORE.INTER>
-15.9623

>  <SCORE.INTER.CONST>
1

>  <SCORE.INTER.POLAR>
0

>  <SCORE.INTER.ROT>
4

>  <SCORE.INTER.SOLV>
8.90947

>  <SCORE.INTER.VDW>
-19.878

>  <SCORE.INTER.norm>
-0.725558

>  <SCORE.INTRA>
-0.67551

>  <SCORE.INTRA.DIHEDRAL>
0.6759

>  <SCORE.INTRA.DIHEDRAL.0>
6.18831

>  <SCORE.INTRA.POLAR>
0

>  <SCORE.INTRA.POLAR.0>
0

>  <SCORE.INTRA.REPUL>
0

>  <SCORE.INTRA.REPUL.0>
0

>  <SCORE.INTRA.SOLV>
0.317828

>  <SCORE.INTRA.SOLV.lig_0>
-44.3465

>  <SCORE.INTRA.VDW>
-1.17237

>  <SCORE.INTRA.VDW.0>
-0.778272

>  <SCORE.INTRA.norm>
-0.030705

>  <SCORE.RESTR>
0

>  <SCORE.RESTR.CAVITY>
0

>  <SCORE.RESTR.norm>
0

>  <SCORE.SYSTEM>
0

>  <SCORE.SYSTEM.CONST>
0

>  <SCORE.SYSTEM.DIHEDRAL>
0

>  <SCORE.SYSTEM.SOLV>
0

>  <SCORE.SYSTEM.norm>
0

>  <SCORE.heavy>
22

>  <SCORE.norm>
-0.756263

>  <RMSD>
3.562

$$$$
ligand
 OpenBabel11021811503D
libRbt.so/2013.1/901 2013/11/27
 22 24  0  0  0  0  0  0  0  0999 V2000
    1.1018    2.6986   20.3992 C   0  0  0  0  0  0  0  0  0  0  0  0
    1.8475    1.7980   21.1887 C   0  0  0  0  0  0  0  0  0  0  0  0
    3.1739    1.5348   20.8575 C   0  0  0  0  0  0  0  0  0  0  0  0
    3.7479    2.1695   19.7422 C   0  0  0  0  0  0  0  0  0  0  0  0
    2.9975    3.0668   18.9431 C   0  0  0  0  0  0  0  0  0  0  0  0
    1.6748    3.3274   19.2745 C   0  0  0  0  0  0  0  0  0  0  0  0
   -0.3726    2.9870   20.7417 C   0  0  0  0  0  0  0  0  0  0  0  0
   -0.6092    3.6143   22.1382 C   0  0  0  0  0  0  0  0  0  0  0  0
   -0.1799    5.0735   22.2379 C   0  0  0  0  0  0  0  0  0  0  0  0
   -0.9263    6.1425   21.7328 C   0  0  0  0  0  0  0  0  0  0  0  0
   -0.2314    7.2757   22.0140 N   0  0  0  0  0  0  0  0  0  0  0  0
    0.9470    7.0157   22.6848 C   0  0  0  0  0  0  0  0  0  0  0  0
    1.0211    5.6370   22.8501 C   0  0  0  0  0  0  0  0  0  0  0  0
    2.1812    5.1152   23.5388 C   0  0  0  0  0  0  0  0  0  0  0  0
    2.3172    3.7454   23.7472 O   0  0  0  0  0  0  0  0  0  0  0  0
    3.1558    5.9978   23.9848 N   0  0  0  0  0  0  0  0  0  0  0  0
    3.0359    7.3459   23.8088 C   0  0  0  0  0  0  0  0  0  0  0  0
    1.9733    7.8648   23.1739 N   0  0  0  0  0  0  0  0  0  0  0  0
    4.0841    8.2394   24.3123 N   0  0  0  0  0  0  0  0  0  0  0  0
    5.1826    1.8626   19.4037 C   0  0  0  0  0  0  0  0  0  0  0  0
    5.6605    2.2422   18.3362 O   0  0  0  0  0  0  0  0  0  0  0  0
    5.9741    1.1160   20.3450 N   0  0  0  0  0  0  0  0  0  0  0  0
  1  2  2  0  0  0  0
  1  6  1  0  0  0  0
  1  7  1  0  0  0  0
  2  3  1  0  0  0  0
  3  4  2  0  0  0  0
  4  5  1  0  0  0  0
  4 20  1  0  0  0  0
  5  6  2  0  0  0  0
  7  8  1  0  0  0  0
  8  9  1  0  0  0  0
  9 10  2  0  0  0  0
  9 13  1  0  0  0  0
 10 11  1  0  0  0  0
 11 12  1  0  0  0  0
 12 13  2  0  0  0  0
 12 18  1  0  0  0  0
 13 14  1  0  0  0  0
 14 15  1  0  0  0  0
 14 16  2  0  0  0  0
 16 17  1  0  0  0  0
 17 18  2  0  0  0  0
 17 19  1  0  0  0  0
 20 21  2  0  0  0  0
 20 22  1  0  0  0  0
M  END
>  <CHROM.1>
61.30041099,169.51401286,72.73406772,77.86200825,2.21254488,4.36553510,21.63355819
1.14056699,0.03880043,-2.49086433

>  <Name>
ligand

>  <RI>
0

>  <Rbt.Current_Directory>
/home/itssahil/PROJECTS/Mol_Feturizer/New_Systems/rnas/4LVY

>  <Rbt.Executable>
rbdock ($Id: //depot/dev/client3/rdock/2013.1/src/exe/rbdock.cxx#4 $)

>  <Rbt.Library>
libRbt.so (2013.1, Build901 2013/11/27)

>  <Rbt.Parameter_File>
/export/apps/rDock/src/rDock_2013.1_src/data/scripts/dock_solv.prm

>  <Rbt.Receptor>
prm/pocket_docking_6.prm

>  <SCORE>
-16.6045

>  <SCORE.INTER>
-15.9417

>  <SCORE.INTER.CONST>
1

>  <SCORE.INTER.POLAR>
0

>  <SCORE.INTER.ROT>
4

>  <SCORE.INTER.SOLV>
9.17109

>  <SCORE.INTER.VDW>
-19.9515

>  <SCORE.INTER.norm>
-0.724625

>  <SCORE.INTRA>
-0.662775

>  <SCORE.INTRA.DIHEDRAL>
0.688137

>  <SCORE.INTRA.DIHEDRAL.0>
6.18831

>  <SCORE.INTRA.POLAR>
0

>  <SCORE.INTRA.POLAR.0>
0

>  <SCORE.INTRA.REPUL>
0

>  <SCORE.INTRA.REPUL.0>
0

>  <SCORE.INTRA.SOLV>
0.299963

>  <SCORE.INTRA.SOLV.lig_0>
-44.3465

>  <SCORE.INTRA.VDW>
-1.15682

>  <SCORE.INTRA.VDW.0>
-0.778272

>  <SCORE.INTRA.norm>
-0.0301261

>  <SCORE.RESTR>
0

>  <SCORE.RESTR.CAVITY>
0

>  <SCORE.RESTR.norm>
0

>  <SCORE.SYSTEM>
0

>  <SCORE.SYSTEM.CONST>
0

>  <SCORE.SYSTEM.DIHEDRAL>
0

>  <SCORE.SYSTEM.SOLV>
0

>  <SCORE.SYSTEM.norm>
0

>  <SCORE.heavy>
22

>  <SCORE.norm>
-0.754751

>  <RMSD>
3.590

$$$$
ligand
 OpenBabel11021811503D
libRbt.so/2013.1/901 2013/11/27
 22 24  0  0  0  0  0  0  0  0999 V2000
    1.0757    2.7217   20.4164 C   0  0  0  0  0  0  0  0  0  0  0  0
    1.6720    3.3804   19.3204 C   0  0  0  0  0  0  0  0  0  0  0  0
    3.0027    3.1179   19.0066 C   0  0  0  0  0  0  0  0  0  0  0  0
    3.7303    2.2023   19.7866 C   0  0  0  0  0  0  0  0  0  0  0  0
    3.1356    1.5474   20.8931 C   0  0  0  0  0  0  0  0  0  0  0  0
    1.8088    1.8109   21.2049 C   0  0  0  0  0  0  0  0  0  0  0  0
   -0.3907    3.0144   20.7879 C   0  0  0  0  0  0  0  0  0  0  0  0
   -0.5939    3.6901   22.1671 C   0  0  0  0  0  0  0  0  0  0  0  0
   -0.1332    5.1424   22.2143 C   0  0  0  0  0  0  0  0  0  0  0  0
   -0.8627    6.2100   21.6823 C   0  0  0  0  0  0  0  0  0  0  0  0
   -0.1412    7.3367   21.9189 N   0  0  0  0  0  0  0  0  0  0  0  0
    1.0389    7.0737   22.5855 C   0  0  0  0  0  0  0  0  0  0  0  0
    1.0861    5.6999   22.7952 C   0  0  0  0  0  0  0  0  0  0  0  0
    2.2426    5.1763   23.4884 C   0  0  0  0  0  0  0  0  0  0  0  0
    2.3524    3.8115   23.7402 O   0  0  0  0  0  0  0  0  0  0  0  0
    3.2403    6.0521   23.8951 N   0  0  0  0  0  0  0  0  0  0  0  0
    3.1467    7.3960   23.6763 C   0  0  0  0  0  0  0  0  0  0  0  0
    2.0880    7.9164   23.0358 N   0  0  0  0  0  0  0  0  0  0  0  0
    4.2188    8.2830   24.1392 N   0  0  0  0  0  0  0  0  0  0  0  0
    5.1692    1.9413   19.4281 C   0  0  0  0  0  0  0  0  0  0  0  0
    5.8233    1.1139   20.0603 O   0  0  0  0  0  0  0  0  0  0  0  0
    5.7598    2.6792   18.3434 N   0  0  0  0  0  0  0  0  0  0  0  0
  1  2  2  0  0  0  0
  1  6  1  0  0  0  0
  1  7  1  0  0  0  0
  2  3  1  0  0  0  0
  3  4  2  0  0  0  0
  4  5  1  0  0  0  0
  4 20  1  0  0  0  0
  5  6  2  0  0  0  0
  7  8  1  0  0  0  0
  8  9  1  0  0  0  0
  9 10  2  0  0  0  0
  9 13  1  0  0  0  0
 10 11  1  0  0  0  0
 11 12  1  0  0  0  0
 12 13  2  0  0  0  0
 12 18  1  0  0  0  0
 13 14  1  0  0  0  0
 14 15  1  0  0  0  0
 14 16  2  0  0  0  0
 16 17  1  0  0  0  0
 17 18  2  0  0  0  0
 17 19  1  0  0  0  0
 20 21  2  0  0  0  0
 20 22  1  0  0  0  0
M  END
>  <CHROM.1>
-115.01927201,-177.57447598,71.03304299,77.64837175,2.24665822,4.42455708
21.60410669,1.14874420,0.00407391,-2.52580036

>  <Name>
ligand

>  <RI>
0

>  <Rbt.Current_Directory>
/home/itssahil/PROJECTS/Mol_Feturizer/New_Systems/rnas/4LVY

>  <Rbt.Executable>
rbdock ($Id: //depot/dev/client3/rdock/2013.1/src/exe/rbdock.cxx#4 $)

>  <Rbt.Library>
libRbt.so (2013.1, Build901 2013/11/27)

>  <Rbt.Parameter_File>
/export/apps/rDock/src/rDock_2013.1_src/data/scripts/dock_solv.prm

>  <Rbt.Receptor>
prm/pocket_docking_4.prm

>  <SCORE>
-16.4942

>  <SCORE.INTER>
-15.7091

>  <SCORE.INTER.CONST>
1

>  <SCORE.INTER.POLAR>
0

>  <SCORE.INTER.ROT>
4

>  <SCORE.INTER.SOLV>
8.21885

>  <SCORE.INTER.VDW>
-19.479

>  <SCORE.INTER.norm>
-0.714051

>  <SCORE.INTRA>
-0.785097

>  <SCORE.INTRA.DIHEDRAL>
0.527298

>  <SCORE.INTRA.DIHEDRAL.0>
6.18831

>  <SCORE.INTRA.POLAR>
0

>  <SCORE.INTRA.POLAR.0>
0

>  <SCORE.INTRA.REPUL>
0

>  <SCORE.INTRA.REPUL.0>
0

>  <SCORE.INTRA.SOLV>
0.29641

>  <SCORE.INTRA.SOLV.lig_0>
-44.3465

>  <SCORE.INTRA.VDW>
-1.19695

>  <SCORE.INTRA.VDW.0>
-0.778272

>  <SCORE.INTRA.norm>
-0.0356862

>  <SCORE.RESTR>
0

>  <SCORE.RESTR.CAVITY>
0

>  <SCORE.RESTR.norm>
0

>  <SCORE.SYSTEM>
0

>  <SCORE.SYSTEM.CONST>
0

>  <SCORE.SYSTEM.DIHEDRAL>
0

>  <SCORE.SYSTEM.SOLV>
0

>  <SCORE.SYSTEM.norm>
0

>  <SCORE.heavy>
22

>  <SCORE.norm>
-0.749737

>  <RMSD>
3.603

$$$$
ligand
 OpenBabel11021811503D
libRbt.so/2013.1/901 2013/11/27
 22 24  0  0  0  0  0  0  0  0999 V2000
    1.0748    2.6562   20.4016 C   0  0  0  0  0  0  0  0  0  0  0  0
    1.6404    3.3446   19.3076 C   0  0  0  0  0  0  0  0  0  0  0  0
    2.9721    3.1170   18.9713 C   0  0  0  0  0  0  0  0  0  0  0  0
    3.7311    2.2065   19.7270 C   0  0  0  0  0  0  0  0  0  0  0  0
    3.1671    1.5217   20.8315 C   0  0  0  0  0  0  0  0  0  0  0  0
    1.8393    1.7505   21.1658 C   0  0  0  0  0  0  0  0  0  0  0  0
   -0.3924    2.9101   20.7980 C   0  0  0  0  0  0  0  0  0  0  0  0
   -0.5893    3.5962   22.1729 C   0  0  0  0  0  0  0  0  0  0  0  0
   -0.1558    5.0574   22.1989 C   0  0  0  0  0  0  0  0  0  0  0  0
   -0.9014    6.1023   21.6447 C   0  0  0  0  0  0  0  0  0  0  0  0
   -0.2025    7.2459   21.8671 N   0  0  0  0  0  0  0  0  0  0  0  0
    0.9779    7.0160   22.5453 C   0  0  0  0  0  0  0  0  0  0  0  0
    1.0491    5.6469   22.7781 C   0  0  0  0  0  0  0  0  0  0  0  0
    2.2104    5.1564   23.4872 C   0  0  0  0  0  0  0  0  0  0  0  0
    2.3437    3.7983   23.7624 O   0  0  0  0  0  0  0  0  0  0  0  0
    3.1891    6.0573   23.8856 N   0  0  0  0  0  0  0  0  0  0  0  0
    3.0720    7.3954   23.6439 C   0  0  0  0  0  0  0  0  0  0  0  0
    2.0082    7.8853   22.9882 N   0  0  0  0  0  0  0  0  0  0  0  0
    4.1245    8.3096   24.0987 N   0  0  0  0  0  0  0  0  0  0  0  0
    5.1702    1.9834   19.3445 C   0  0  0  0  0  0  0  0  0  0  0  0
    5.5626    2.2772   18.2168 O   0  0  0  0  0  0  0  0  0  0  0  0
    6.0677    1.4176   20.3163 N   0  0  0  0  0  0  0  0  0  0  0  0
  1  2  2  0  0  0  0
  1  6  1  0  0  0  0
  1  7  1  0  0  0  0
  2  3  1  0  0  0  0
  3  4  2  0  0  0  0
  4  5  1  0  0  0  0
  4 20  1  0  0  0  0
  5  6  2  0  0  0  0
  7  8  1  0  0  0  0
  8  9  1  0  0  0  0
  9 10  2  0  0  0  0
  9 13  1  0  0  0  0
 10 11  1  0  0  0  0
 11 12  1  0  0  0  0
 12 13  2  0  0  0  0
 12 18  1  0  0  0  0
 13 14  1  0  0  0  0
 14 15  1  0  0  0  0
 14 16  2  0  0  0  0
 16 17  1  0  0  0  0
 17 18  2  0  0  0  0
 17 19  1  0  0  0  0
 20 21  2  0  0  0  0
 20 22  1  0  0  0  0
M  END
>  <CHROM.1>
-113.39558794,-20.06475592,70.35585648,76.42411330,2.22165162,4.39343757
21.57341260,1.14381805,-0.00165277,-2.51356263

>  <Name>
ligand

>  <RI>
0

>  <Rbt.Current_Directory>
/home/itssahil/PROJECTS/Mol_Feturizer/New_Systems/rnas/4LVY

>  <Rbt.Executable>
rbdock ($Id: //depot/dev/client3/rdock/2013.1/src/exe/rbdock.cxx#4 $)

>  <Rbt.Library>
libRbt.so (2013.1, Build901 2013/11/27)

>  <Rbt.Parameter_File>
/export/apps/rDock/src/rDock_2013.1_src/data/scripts/dock_solv.prm

>  <Rbt.Receptor>
prm/pocket_docking_5.prm

>  <SCORE>
-16.5236

>  <SCORE.INTER>
-15.694

>  <SCORE.INTER.CONST>
1

>  <SCORE.INTER.POLAR>
0

>  <SCORE.INTER.ROT>
4

>  <SCORE.INTER.SOLV>
8.44264

>  <SCORE.INTER.VDW>
-19.5435

>  <SCORE.INTER.norm>
-0.713362

>  <SCORE.INTRA>
-0.829595

>  <SCORE.INTRA.DIHEDRAL>
0.482035

>  <SCORE.INTRA.DIHEDRAL.0>
6.18831

>  <SCORE.INTRA.POLAR>
0

>  <SCORE.INTRA.POLAR.0>
0

>  <SCORE.INTRA.REPUL>
0

>  <SCORE.INTRA.REPUL.0>
0

>  <SCORE.INTRA.SOLV>
0.254

>  <SCORE.INTRA.SOLV.lig_0>
-44.3465

>  <SCORE.INTRA.VDW>
-1.19761

>  <SCORE.INTRA.VDW.0>
-0.778272

>  <SCORE.INTRA.norm>
-0.0377089

>  <SCORE.RESTR>
0

>  <SCORE.RESTR.CAVITY>
0

>  <SCORE.RESTR.norm>
0

>  <SCORE.SYSTEM>
0

>  <SCORE.SYSTEM.CONST>
0

>  <SCORE.SYSTEM.DIHEDRAL>
0

>  <SCORE.SYSTEM.SOLV>
0

>  <SCORE.SYSTEM.norm>
0

>  <SCORE.heavy>
22

>  <SCORE.norm>
-0.751071

>  <RMSD>
3.605

$$$$
ligand
 OpenBabel11021811503D
libRbt.so/2013.1/901 2013/11/27
 22 24  0  0  0  0  0  0  0  0999 V2000
    1.1100    2.8402   20.3386 C   0  0  0  0  0  0  0  0  0  0  0  0
    1.7908    1.8946   21.1342 C   0  0  0  0  0  0  0  0  0  0  0  0
    3.1105    1.5701   20.8316 C   0  0  0  0  0  0  0  0  0  0  0  0
    3.7423    2.1887   19.7387 C   0  0  0  0  0  0  0  0  0  0  0  0
    3.0568    3.1312   18.9334 C   0  0  0  0  0  0  0  0  0  0  0  0
    1.7408    3.4530   19.2363 C   0  0  0  0  0  0  0  0  0  0  0  0
   -0.3564    3.1971   20.6492 C   0  0  0  0  0  0  0  0  0  0  0  0
   -0.6596    3.4762   22.1426 C   0  0  0  0  0  0  0  0  0  0  0  0
   -0.1826    4.8421   22.6222 C   0  0  0  0  0  0  0  0  0  0  0  0
   -0.9137    6.0234   22.4647 C   0  0  0  0  0  0  0  0  0  0  0  0
   -0.1746    7.0207   23.0172 N   0  0  0  0  0  0  0  0  0  0  0  0
    1.0189    6.5623   23.5383 C   0  0  0  0  0  0  0  0  0  0  0  0
    1.0566    5.1906   23.3134 C   0  0  0  0  0  0  0  0  0  0  0  0
    2.2244    4.4761   23.7803 C   0  0  0  0  0  0  0  0  0  0  0  0
    2.3260    3.0998   23.5966 O   0  0  0  0  0  0  0  0  0  0  0  0
    3.2412    5.1816   24.4099 N   0  0  0  0  0  0  0  0  0  0  0  0
    3.1564    6.5277   24.6181 C   0  0  0  0  0  0  0  0  0  0  0  0
    2.0877    7.2227   24.1978 N   0  0  0  0  0  0  0  0  0  0  0  0
    4.2491    7.2263   25.3025 N   0  0  0  0  0  0  0  0  0  0  0  0
    5.1681    1.8152   19.4309 C   0  0  0  0  0  0  0  0  0  0  0  0
    5.6945    2.1943   18.3863 O   0  0  0  0  0  0  0  0  0  0  0  0
    5.8935    1.0063   20.3740 N   0  0  0  0  0  0  0  0  0  0  0  0
  1  2  2  0  0  0  0
  1  6  1  0  0  0  0
  1  7  1  0  0  0  0
  2  3  1  0  0  0  0
  3  4  2  0  0  0  0
  4  5  1  0  0  0  0
  4 20  1  0  0  0  0
  5  6  2  0  0  0  0
  7  8  1  0  0  0  0
  8  9  1  0  0  0  0
  9 10  2  0  0  0  0
  9 13  1  0  0  0  0
 10 11  1  0  0  0  0
 11 12  1  0  0  0  0
 12 13  2  0  0  0  0
 12 18  1  0  0  0  0
 13 14  1  0  0  0  0
 14 15  1  0  0  0  0
 14 16  2  0  0  0  0
 16 17  1  0  0  0  0
 17 18  2  0  0  0  0
 17 19  1  0  0  0  0
 20 21  2  0  0  0  0
 20 22  1  0  0  0  0
M  END
>  <CHROM.1>
46.52077649,170.23686692,76.23853297,84.01299023,2.24145436,4.09615442,21.93274638
1.13531095,0.12823342,-2.29466286

>  <Name>
ligand

>  <RI>
0

>  <Rbt.Current_Directory>
/home/itssahil/PROJECTS/Mol_Feturizer/New_Systems/rnas/4LVY

>  <Rbt.Executable>
rbdock ($Id: //depot/dev/client3/rdock/2013.1/src/exe/rbdock.cxx#4 $)

>  <Rbt.Library>
libRbt.so (2013.1, Build901 2013/11/27)

>  <Rbt.Parameter_File>
/export/apps/rDock/src/rDock_2013.1_src/data/scripts/dock_solv.prm

>  <Rbt.Receptor>
prm/pocket_docking_6.prm

>  <SCORE>
-16.6496

>  <SCORE.INTER>
-16.4587

>  <SCORE.INTER.CONST>
1

>  <SCORE.INTER.POLAR>
0

>  <SCORE.INTER.ROT>
4

>  <SCORE.INTER.SOLV>
9.77164

>  <SCORE.INTER.VDW>
-20.4963

>  <SCORE.INTER.norm>
-0.748123

>  <SCORE.INTRA>
-0.190951

>  <SCORE.INTRA.DIHEDRAL>
1.02451

>  <SCORE.INTRA.DIHEDRAL.0>
6.18831

>  <SCORE.INTRA.POLAR>
0

>  <SCORE.INTRA.POLAR.0>
0

>  <SCORE.INTRA.REPUL>
0

>  <SCORE.INTRA.REPUL.0>
0

>  <SCORE.INTRA.SOLV>
0.512255

>  <SCORE.INTRA.SOLV.lig_0>
-44.3465

>  <SCORE.INTRA.VDW>
-0.959335

>  <SCORE.INTRA.VDW.0>
-0.778272

>  <SCORE.INTRA.norm>
-0.0086796

>  <SCORE.RESTR>
0

>  <SCORE.RESTR.CAVITY>
0

>  <SCORE.RESTR.norm>
0

>  <SCORE.SYSTEM>
0

>  <SCORE.SYSTEM.CONST>
0

>  <SCORE.SYSTEM.DIHEDRAL>
0

>  <SCORE.SYSTEM.SOLV>
0

>  <SCORE.SYSTEM.norm>
0

>  <SCORE.heavy>
22

>  <SCORE.norm>
-0.756802

>  <RMSD>
3.606

$$$$
ligand
 OpenBabel11021811503D
libRbt.so/2013.1/901 2013/11/27
 22 24  0  0  0  0  0  0  0  0999 V2000
    1.0572    2.7466   20.4262 C   0  0  0  0  0  0  0  0  0  0  0  0
    1.8551    1.8343   21.1484 C   0  0  0  0  0  0  0  0  0  0  0  0
    3.1679    1.6058   20.7451 C   0  0  0  0  0  0  0  0  0  0  0  0
    3.6764    2.2866   19.6252 C   0  0  0  0  0  0  0  0  0  0  0  0
    2.8733    3.1958   18.8934 C   0  0  0  0  0  0  0  0  0  0  0  0
    1.5643    3.4217   19.2967 C   0  0  0  0  0  0  0  0  0  0  0  0
   -0.4032    2.9972   20.8487 C   0  0  0  0  0  0  0  0  0  0  0  0
   -0.5768    3.6925   22.2222 C   0  0  0  0  0  0  0  0  0  0  0  0
   -0.1199    5.1466   22.2375 C   0  0  0  0  0  0  0  0  0  0  0  0
   -0.8523    6.2004   21.6825 C   0  0  0  0  0  0  0  0  0  0  0  0
   -0.1337    7.3339   21.8943 N   0  0  0  0  0  0  0  0  0  0  0  0
    1.0472    7.0886   22.5662 C   0  0  0  0  0  0  0  0  0  0  0  0
    1.0980    5.7199   22.8059 C   0  0  0  0  0  0  0  0  0  0  0  0
    2.2560    5.2145   23.5102 C   0  0  0  0  0  0  0  0  0  0  0  0
    2.3693    3.8559   23.7917 O   0  0  0  0  0  0  0  0  0  0  0  0
    3.2515    6.1017   23.8974 N   0  0  0  0  0  0  0  0  0  0  0  0
    3.1542    7.4402   23.6493 C   0  0  0  0  0  0  0  0  0  0  0  0
    2.0942    7.9437   22.9978 N   0  0  0  0  0  0  0  0  0  0  0  0
    4.2241    8.3398   24.0925 N   0  0  0  0  0  0  0  0  0  0  0  0
    5.0977    2.0166   19.2078 C   0  0  0  0  0  0  0  0  0  0  0  0
    5.4844    2.3397   18.0861 O   0  0  0  0  0  0  0  0  0  0  0  0
    5.9847    1.3719   20.1392 N   0  0  0  0  0  0  0  0  0  0  0  0
  1  2  2  0  0  0  0
  1  6  1  0  0  0  0
  1  7  1  0  0  0  0
  2  3  1  0  0  0  0
  3  4  2  0  0  0  0
  4  5  1  0  0  0  0
  4 20  1  0  0  0  0
  5  6  2  0  0  0  0
  7  8  1  0  0  0  0
  8  9  1  0  0  0  0
  9 10  2  0  0  0  0
  9 13  1  0  0  0  0
 10 11  1  0  0  0  0
 11 12  1  0  0  0  0
 12 13  2  0  0  0  0
 12 18  1  0  0  0  0
 13 14  1  0  0  0  0
 14 15  1  0  0  0  0
 14 16  2  0  0  0  0
 16 17  1  0  0  0  0
 17 18  2  0  0  0  0
 17 19  1  0  0  0  0
 20 21  2  0  0  0  0
 20 22  1  0  0  0  0
M  END
>  <CHROM.1>
66.58397127,163.36041282,69.04857278,76.27322040,2.23140413,4.45814005,21.55544030
1.16973332,-0.01261081,-2.50053390

>  <Name>
ligand

>  <RI>
0

>  <Rbt.Current_Directory>
/home/itssahil/PROJECTS/Mol_Feturizer/New_Systems/rnas/4LVY

>  <Rbt.Executable>
rbdock ($Id: //depot/dev/client3/rdock/2013.1/src/exe/rbdock.cxx#4 $)

>  <Rbt.Library>
libRbt.so (2013.1, Build901 2013/11/27)

>  <Rbt.Parameter_File>
/export/apps/rDock/src/rDock_2013.1_src/data/scripts/dock_solv.prm

>  <Rbt.Receptor>
prm/pocket_docking_7.prm

>  <SCORE>
-16.5605

>  <SCORE.INTER>
-15.6725

>  <SCORE.INTER.CONST>
1

>  <SCORE.INTER.POLAR>
0

>  <SCORE.INTER.ROT>
4

>  <SCORE.INTER.SOLV>
8.60665

>  <SCORE.INTER.VDW>
-19.5839

>  <SCORE.INTER.norm>
-0.712388

>  <SCORE.INTRA>
-0.887949

>  <SCORE.INTRA.DIHEDRAL>
0.382399

>  <SCORE.INTRA.DIHEDRAL.0>
6.18831

>  <SCORE.INTRA.POLAR>
0

>  <SCORE.INTRA.POLAR.0>
0

>  <SCORE.INTRA.REPUL>
0

>  <SCORE.INTRA.REPUL.0>
0

>  <SCORE.INTRA.SOLV>
0.239386

>  <SCORE.INTRA.SOLV.lig_0>
-44.3465

>  <SCORE.INTRA.VDW>
-1.19884

>  <SCORE.INTRA.VDW.0>
-0.778272

>  <SCORE.INTRA.norm>
-0.0403613

>  <SCORE.RESTR>
0

>  <SCORE.RESTR.CAVITY>
0

>  <SCORE.RESTR.norm>
0

>  <SCORE.SYSTEM>
0

>  <SCORE.SYSTEM.CONST>
0

>  <SCORE.SYSTEM.DIHEDRAL>
0

>  <SCORE.SYSTEM.SOLV>
0

>  <SCORE.SYSTEM.norm>
0

>  <SCORE.heavy>
22

>  <SCORE.norm>
-0.75275

>  <RMSD>
3.671

$$$$
ligand
 OpenBabel11021811503D
libRbt.so/2013.1/901 2013/11/27
 22 24  0  0  0  0  0  0  0  0999 V2000
    0.9482    2.9514   21.3726 C   0  0  0  0  0  0  0  0  0  0  0  0
    1.8366    3.2076   22.4383 C   0  0  0  0  0  0  0  0  0  0  0  0
    3.1950    2.9519   22.2725 C   0  0  0  0  0  0  0  0  0  0  0  0
    3.6589    2.4422   21.0472 C   0  0  0  0  0  0  0  0  0  0  0  0
    2.7667    2.1756   19.9796 C   0  0  0  0  0  0  0  0  0  0  0  0
    1.4124    2.4305   20.1472 C   0  0  0  0  0  0  0  0  0  0  0  0
   -0.5605    3.2121   21.5460 C   0  0  0  0  0  0  0  0  0  0  0  0
   -0.9822    4.6999   21.4538 C   0  0  0  0  0  0  0  0  0  0  0  0
   -0.5322    5.5416   22.6423 C   0  0  0  0  0  0  0  0  0  0  0  0
   -1.3035    5.7455   23.7905 C   0  0  0  0  0  0  0  0  0  0  0  0
   -0.5733    6.5358   24.6201 N   0  0  0  0  0  0  0  0  0  0  0  0
    0.6526    6.8713   24.0809 C   0  0  0  0  0  0  0  0  0  0  0  0
    0.7237    6.2638   22.8322 C   0  0  0  0  0  0  0  0  0  0  0  0
    1.9328    6.4688   22.0651 C   0  0  0  0  0  0  0  0  0  0  0  0
    2.0762    5.8836   20.8101 O   0  0  0  0  0  0  0  0  0  0  0  0
    2.9440    7.2583   22.5962 N   0  0  0  0  0  0  0  0  0  0  0  0
    2.8344    7.8272   23.8318 C   0  0  0  0  0  0  0  0  0  0  0  0
    1.7267    7.6585   24.5709 N   0  0  0  0  0  0  0  0  0  0  0  0
    3.9366    8.6397   24.3569 N   0  0  0  0  0  0  0  0  0  0  0  0
    5.1322    2.1698   20.8970 C   0  0  0  0  0  0  0  0  0  0  0  0
    5.5309    1.0256   20.6876 O   0  0  0  0  0  0  0  0  0  0  0  0
    6.0564    3.2667   21.0094 N   0  0  0  0  0  0  0  0  0  0  0  0
  1  2  2  0  0  0  0
  1  6  1  0  0  0  0
  1  7  1  0  0  0  0
  2  3  1  0  0  0  0
  3  4  2  0  0  0  0
  4  5  1  0  0  0  0
  4 20  1  0  0  0  0
  5  6  2  0  0  0  0
  7  8  1  0  0  0  0
  8  9  1  0  0  0  0
  9 10  2  0  0  0  0
  9 13  1  0  0  0  0
 10 11  1  0  0  0  0
 11 12  1  0  0  0  0
 12 13  2  0  0  0  0
 12 18  1  0  0  0  0
 13 14  1  0  0  0  0
 14 15  1  0  0  0  0
 14 16  2  0  0  0  0
 16 17  1  0  0  0  0
 17 18  2  0  0  0  0
 17 19  1  0  0  0  0
 20 21  2  0  0  0  0
 20 22  1  0  0  0  0
M  END
>  <CHROM.1>
77.52205567,117.72894845,-70.39106440,-91.21911873,2.01510268,4.80023320
22.21980727,1.04897516,-0.04937417,-2.62245659

>  <Name>
ligand

>  <RI>
0

>  <Rbt.Current_Directory>
/home/itssahil/PROJECTS/Mol_Feturizer/New_Systems/rnas/4LVY

>  <Rbt.Executable>
rbdock ($Id: //depot/dev/client3/rdock/2013.1/src/exe/rbdock.cxx#4 $)

>  <Rbt.Library>
libRbt.so (2013.1, Build901 2013/11/27)

>  <Rbt.Parameter_File>
/export/apps/rDock/src/rDock_2013.1_src/data/scripts/dock_solv.prm

>  <Rbt.Receptor>
prm/pocket_docking_7.prm

>  <SCORE>
-17.0154

>  <SCORE.INTER>
-15.3461

>  <SCORE.INTER.CONST>
1

>  <SCORE.INTER.POLAR>
0

>  <SCORE.INTER.ROT>
4

>  <SCORE.INTER.SOLV>
6.29451

>  <SCORE.INTER.VDW>
-18.5956

>  <SCORE.INTER.norm>
-0.69755

>  <SCORE.INTRA>
-1.66926

>  <SCORE.INTRA.DIHEDRAL>
0.50178

>  <SCORE.INTRA.DIHEDRAL.0>
6.18831

>  <SCORE.INTRA.POLAR>
0

>  <SCORE.INTRA.POLAR.0>
0

>  <SCORE.INTRA.REPUL>
0

>  <SCORE.INTRA.REPUL.0>
0

>  <SCORE.INTRA.SOLV>
0.573014

>  <SCORE.INTRA.SOLV.lig_0>
-44.3465

>  <SCORE.INTRA.VDW>
-2.20666

>  <SCORE.INTRA.VDW.0>
-0.778272

>  <SCORE.INTRA.norm>
-0.0758755

>  <SCORE.RESTR>
0

>  <SCORE.RESTR.CAVITY>
0

>  <SCORE.RESTR.norm>
0

>  <SCORE.SYSTEM>
0

>  <SCORE.SYSTEM.CONST>
0

>  <SCORE.SYSTEM.DIHEDRAL>
0

>  <SCORE.SYSTEM.SOLV>
0

>  <SCORE.SYSTEM.norm>
0

>  <SCORE.heavy>
22

>  <SCORE.norm>
-0.773426

>  <RMSD>
3.970

$$$$
ligand
 OpenBabel11021811503D
libRbt.so/2013.1/901 2013/11/27
 22 24  0  0  0  0  0  0  0  0999 V2000
    0.8995    2.9232   21.3589 C   0  0  0  0  0  0  0  0  0  0  0  0
    1.7955    3.1902   22.4155 C   0  0  0  0  0  0  0  0  0  0  0  0
    3.1506    2.9183   22.2480 C   0  0  0  0  0  0  0  0  0  0  0  0
    3.6036    2.3819   21.0301 C   0  0  0  0  0  0  0  0  0  0  0  0
    2.7037    2.1045   19.9718 C   0  0  0  0  0  0  0  0  0  0  0  0
    1.3528    2.3755   20.1410 C   0  0  0  0  0  0  0  0  0  0  0  0
   -0.6058    3.2015   21.5345 C   0  0  0  0  0  0  0  0  0  0  0  0
   -1.0031    4.6984   21.4966 C   0  0  0  0  0  0  0  0  0  0  0  0
   -0.5166    5.4947   22.7019 C   0  0  0  0  0  0  0  0  0  0  0  0
   -1.2611    5.6718   23.8720 C   0  0  0  0  0  0  0  0  0  0  0  0
   -0.5027    6.4246   24.7112 N   0  0  0  0  0  0  0  0  0  0  0  0
    0.7166    6.7604   24.1575 C   0  0  0  0  0  0  0  0  0  0  0  0
    0.7533    6.1928   22.8886 C   0  0  0  0  0  0  0  0  0  0  0  0
    1.9492    6.4060   22.1033 C   0  0  0  0  0  0  0  0  0  0  0  0
    2.0584    5.8600   20.8274 O   0  0  0  0  0  0  0  0  0  0  0  0
    2.9825    7.1637   22.6383 N   0  0  0  0  0  0  0  0  0  0  0  0
    2.9065    7.6936   23.8937 C   0  0  0  0  0  0  0  0  0  0  0  0
    1.8119    7.5162   24.6500 N   0  0  0  0  0  0  0  0  0  0  0  0
    4.0309    8.4732   24.4214 N   0  0  0  0  0  0  0  0  0  0  0  0
    5.0734    2.0926   20.8780 C   0  0  0  0  0  0  0  0  0  0  0  0
    5.4486    1.1409   20.1957 O   0  0  0  0  0  0  0  0  0  0  0  0
    6.0217    2.9423   21.5479 N   0  0  0  0  0  0  0  0  0  0  0  0
  1  2  2  0  0  0  0
  1  6  1  0  0  0  0
  1  7  1  0  0  0  0
  2  3  1  0  0  0  0
  3  4  2  0  0  0  0
  4  5  1  0  0  0  0
  4 20  1  0  0  0  0
  5  6  2  0  0  0  0
  7  8  1  0  0  0  0
  8  9  1  0  0  0  0
  9 10  2  0  0  0  0
  9 13  1  0  0  0  0
 10 11  1  0  0  0  0
 11 12  1  0  0  0  0
 12 13  2  0  0  0  0
 12 18  1  0  0  0  0
 13 14  1  0  0  0  0
 14 15  1  0  0  0  0
 14 16  2  0  0  0  0
 16 17  1  0  0  0  0
 17 18  2  0  0  0  0
 17 19  1  0  0  0  0
 20 21  2  0  0  0  0
 20 22  1  0  0  0  0
M  END
>  <CHROM.1>
74.23607355,146.66466230,-68.96645152,-91.00148858,2.01319962,4.72839248
22.24573142,1.06815757,-0.03404547,-2.58915555

>  <Name>
ligand

>  <RI>
0

>  <Rbt.Current_Directory>
/home/itssahil/PROJECTS/Mol_Feturizer/New_Systems/rnas/4LVY

>  <Rbt.Executable>
rbdock ($Id: //depot/dev/client3/rdock/2013.1/src/exe/rbdock.cxx#4 $)

>  <Rbt.Library>
libRbt.so (2013.1, Build901 2013/11/27)

>  <Rbt.Parameter_File>
/export/apps/rDock/src/rDock_2013.1_src/data/scripts/dock_solv.prm

>  <Rbt.Receptor>
prm/pocket_docking_4.prm

>  <SCORE>
-16.8717

>  <SCORE.INTER>
-15.2579

>  <SCORE.INTER.CONST>
1

>  <SCORE.INTER.POLAR>
0

>  <SCORE.INTER.ROT>
4

>  <SCORE.INTER.SOLV>
6.04639

>  <SCORE.INTER.VDW>
-18.4541

>  <SCORE.INTER.norm>
-0.693542

>  <SCORE.INTRA>
-1.61378

>  <SCORE.INTRA.DIHEDRAL>
0.351844

>  <SCORE.INTRA.DIHEDRAL.0>
6.18831

>  <SCORE.INTRA.POLAR>
0

>  <SCORE.INTRA.POLAR.0>
0

>  <SCORE.INTRA.REPUL>
0

>  <SCORE.INTRA.REPUL.0>
0

>  <SCORE.INTRA.SOLV>
0.570034

>  <SCORE.INTRA.SOLV.lig_0>
-44.3465

>  <SCORE.INTRA.VDW>
-2.07472

>  <SCORE.INTRA.VDW.0>
-0.778272

>  <SCORE.INTRA.norm>
-0.0733538

>  <SCORE.RESTR>
0

>  <SCORE.RESTR.CAVITY>
0

>  <SCORE.RESTR.norm>
0

>  <SCORE.SYSTEM>
0

>  <SCORE.SYSTEM.CONST>
0

>  <SCORE.SYSTEM.DIHEDRAL>
0

>  <SCORE.SYSTEM.SOLV>
0

>  <SCORE.SYSTEM.norm>
0

>  <SCORE.heavy>
22

>  <SCORE.norm>
-0.766896

>  <RMSD>
3.990

$$$$
ligand
 OpenBabel11021811503D
libRbt.so/2013.1/901 2013/11/27
 22 24  0  0  0  0  0  0  0  0999 V2000
    0.9150    2.9264   21.3552 C   0  0  0  0  0  0  0  0  0  0  0  0
    1.4097    2.3971   20.1445 C   0  0  0  0  0  0  0  0  0  0  0  0
    2.7664    2.1066   20.0292 C   0  0  0  0  0  0  0  0  0  0  0  0
    3.6207    2.3460   21.1196 C   0  0  0  0  0  0  0  0  0  0  0  0
    3.1270    2.8863   22.3325 C   0  0  0  0  0  0  0  0  0  0  0  0
    1.7740    3.1760   22.4454 C   0  0  0  0  0  0  0  0  0  0  0  0
   -0.5807    3.2701   21.4930 C   0  0  0  0  0  0  0  0  0  0  0  0
   -0.9189    4.7775   21.3776 C   0  0  0  0  0  0  0  0  0  0  0  0
   -0.4861    5.5993   22.5863 C   0  0  0  0  0  0  0  0  0  0  0  0
   -1.2733    5.7831   23.7271 C   0  0  0  0  0  0  0  0  0  0  0  0
   -0.5555    6.5598   24.5800 N   0  0  0  0  0  0  0  0  0  0  0  0
    0.6774    6.9054   24.0634 C   0  0  0  0  0  0  0  0  0  0  0  0
    0.7663    6.3192   22.8056 C   0  0  0  0  0  0  0  0  0  0  0  0
    1.9856    6.5382   22.0589 C   0  0  0  0  0  0  0  0  0  0  0  0
    2.1469    5.9745   20.7962 O   0  0  0  0  0  0  0  0  0  0  0  0
    2.9886    7.3194   22.6171 N   0  0  0  0  0  0  0  0  0  0  0  0
    2.8614    7.8672   23.8606 C   0  0  0  0  0  0  0  0  0  0  0  0
    1.7439    7.6850   24.5814 N   0  0  0  0  0  0  0  0  0  0  0  0
    3.9554    8.6715   24.4145 N   0  0  0  0  0  0  0  0  0  0  0  0
    5.0843    2.0277   20.9656 C   0  0  0  0  0  0  0  0  0  0  0  0
    5.4398    0.8965   20.6400 O   0  0  0  0  0  0  0  0  0  0  0  0
    6.0506    3.0648   21.2121 N   0  0  0  0  0  0  0  0  0  0  0  0
  1  2  2  0  0  0  0
  1  6  1  0  0  0  0
  1  7  1  0  0  0  0
  2  3  1  0  0  0  0
  3  4  2  0  0  0  0
  4  5  1  0  0  0  0
  4 20  1  0  0  0  0
  5  6  2  0  0  0  0
  7  8  1  0  0  0  0
  8  9  1  0  0  0  0
  9 10  2  0  0  0  0
  9 13  1  0  0  0  0
 10 11  1  0  0  0  0
 11 12  1  0  0  0  0
 12 13  2  0  0  0  0
 12 18  1  0  0  0  0
 13 14  1  0  0  0  0
 14 15  1  0  0  0  0
 14 16  2  0  0  0  0
 16 17  1  0  0  0  0
 17 18  2  0  0  0  0
 17 19  1  0  0  0  0
 20 21  2  0  0  0  0
 20 22  1  0  0  0  0
M  END
>  <CHROM.1>
-102.22732131,-55.99950455,-72.10783881,-87.34763434,2.01937734,4.79480344
22.22640329,1.08326673,-0.02172947,-2.63190712

>  <Name>
ligand

>  <RI>
0

>  <Rbt.Current_Directory>
/home/itssahil/PROJECTS/Mol_Feturizer/New_Systems/rnas/4LVY

>  <Rbt.Executable>
rbdock ($Id: //depot/dev/client3/rdock/2013.1/src/exe/rbdock.cxx#4 $)

>  <Rbt.Library>
libRbt.so (2013.1, Build901 2013/11/27)

>  <Rbt.Parameter_File>
/export/apps/rDock/src/rDock_2013.1_src/data/scripts/dock_solv.prm

>  <Rbt.Receptor>
prm/pocket_docking_5.prm

>  <SCORE>
-16.9951

>  <SCORE.INTER>
-15.4307

>  <SCORE.INTER.CONST>
1

>  <SCORE.INTER.POLAR>
0

>  <SCORE.INTER.ROT>
4

>  <SCORE.INTER.SOLV>
6.75107

>  <SCORE.INTER.VDW>
-18.8041

>  <SCORE.INTER.norm>
-0.701394

>  <SCORE.INTRA>
-1.56449

>  <SCORE.INTRA.DIHEDRAL>
0.539579

>  <SCORE.INTRA.DIHEDRAL.0>
6.18831

>  <SCORE.INTRA.POLAR>
0

>  <SCORE.INTRA.POLAR.0>
0

>  <SCORE.INTRA.REPUL>
0

>  <SCORE.INTRA.REPUL.0>
0

>  <SCORE.INTRA.SOLV>
0.445979

>  <SCORE.INTRA.SOLV.lig_0>
-44.3465

>  <SCORE.INTRA.VDW>
-2.05727

>  <SCORE.INTRA.VDW.0>
-0.778272

>  <SCORE.INTRA.norm>
-0.0711131

>  <SCORE.RESTR>
0

>  <SCORE.RESTR.CAVITY>
0

>  <SCORE.RESTR.norm>
0

>  <SCORE.SYSTEM>
0

>  <SCORE.SYSTEM.CONST>
0

>  <SCORE.SYSTEM.DIHEDRAL>
0

>  <SCORE.SYSTEM.SOLV>
0

>  <SCORE.SYSTEM.norm>
0

>  <SCORE.heavy>
22

>  <SCORE.norm>
-0.772507

>  <RMSD>
3.991

$$$$
ligand
 OpenBabel11021811503D
libRbt.so/2013.1/901 2013/11/27
 22 24  0  0  0  0  0  0  0  0999 V2000
    0.8982    2.9441   21.4551 C   0  0  0  0  0  0  0  0  0  0  0  0
    1.8230    3.2553   22.4743 C   0  0  0  0  0  0  0  0  0  0  0  0
    3.1732    2.9762   22.2808 C   0  0  0  0  0  0  0  0  0  0  0  0
    3.5926    2.3886   21.0746 C   0  0  0  0  0  0  0  0  0  0  0  0
    2.6640    2.0670   20.0543 C   0  0  0  0  0  0  0  0  0  0  0  0
    1.3180    2.3453   20.2494 C   0  0  0  0  0  0  0  0  0  0  0  0
   -0.6018    3.2301   21.6606 C   0  0  0  0  0  0  0  0  0  0  0  0
   -1.0041    4.7223   21.5531 C   0  0  0  0  0  0  0  0  0  0  0  0
   -0.5443    5.5699   22.7336 C   0  0  0  0  0  0  0  0  0  0  0  0
   -1.3004    5.7686   23.8928 C   0  0  0  0  0  0  0  0  0  0  0  0
   -0.5654    6.5668   24.7104 N   0  0  0  0  0  0  0  0  0  0  0  0
    0.6494    6.9125   24.1528 C   0  0  0  0  0  0  0  0  0  0  0  0
    0.7077    6.3037   22.9040 C   0  0  0  0  0  0  0  0  0  0  0  0
    1.9034    6.5184   22.1189 C   0  0  0  0  0  0  0  0  0  0  0  0
    2.0337    5.9326   20.8628 O   0  0  0  0  0  0  0  0  0  0  0  0
    2.9152    7.3178   22.6340 N   0  0  0  0  0  0  0  0  0  0  0  0
    2.8186    7.8877   23.8703 C   0  0  0  0  0  0  0  0  0  0  0  0
    1.7234    7.7101   24.6258 N   0  0  0  0  0  0  0  0  0  0  0  0
    3.9209    8.7110   24.3779 N   0  0  0  0  0  0  0  0  0  0  0  0
    5.0579    2.0927   20.8941 C   0  0  0  0  0  0  0  0  0  0  0  0
    5.4254    0.9643   20.5721 O   0  0  0  0  0  0  0  0  0  0  0  0
    6.0117    3.1479   21.1111 N   0  0  0  0  0  0  0  0  0  0  0  0
  1  2  2  0  0  0  0
  1  6  1  0  0  0  0
  1  7  1  0  0  0  0
  2  3  1  0  0  0  0
  3  4  2  0  0  0  0
  4  5  1  0  0  0  0
  4 20  1  0  0  0  0
  5  6  2  0  0  0  0
  7  8  1  0  0  0  0
  8  9  1  0  0  0  0
  9 10  2  0  0  0  0
  9 13  1  0  0  0  0
 10 11  1  0  0  0  0
 11 12  1  0  0  0  0
 12 13  2  0  0  0  0
 12 18  1  0  0  0  0
 13 14  1  0  0  0  0
 14 15  1  0  0  0  0
 14 16  2  0  0  0  0
 16 17  1  0  0  0  0
 17 18  2  0  0  0  0
 17 19  1  0  0  0  0
 20 21  2  0  0  0  0
 20 22  1  0  0  0  0
M  END
>  <CHROM.1>
74.95729479,127.07324591,-71.90641510,-89.59418841,1.97876627,4.80543130
22.27351876,1.07810364,-0.06153036,-2.63151528

>  <Name>
ligand

>  <RI>
0

>  <Rbt.Current_Directory>
/home/itssahil/PROJECTS/Mol_Feturizer/New_Systems/rnas/4LVY

>  <Rbt.Executable>
rbdock ($Id: //depot/dev/client3/rdock/2013.1/src/exe/rbdock.cxx#4 $)

>  <Rbt.Library>
libRbt.so (2013.1, Build901 2013/11/27)

>  <Rbt.Parameter_File>
/export/apps/rDock/src/rDock_2013.1_src/data/scripts/dock_solv.prm

>  <Rbt.Receptor>
prm/pocket_docking_6.prm

>  <SCORE>
-17.0734

>  <SCORE.INTER>
-15.5569

>  <SCORE.INTER.CONST>
1

>  <SCORE.INTER.POLAR>
0

>  <SCORE.INTER.ROT>
4

>  <SCORE.INTER.SOLV>
6.91758

>  <SCORE.INTER.VDW>
-18.9438

>  <SCORE.INTER.norm>
-0.707131

>  <SCORE.INTRA>
-1.51654

>  <SCORE.INTRA.DIHEDRAL>
0.615259

>  <SCORE.INTRA.DIHEDRAL.0>
6.18831

>  <SCORE.INTRA.POLAR>
0

>  <SCORE.INTRA.POLAR.0>
0

>  <SCORE.INTRA.REPUL>
0

>  <SCORE.INTRA.REPUL.0>
0

>  <SCORE.INTRA.SOLV>
0.517021

>  <SCORE.INTRA.SOLV.lig_0>
-44.3465

>  <SCORE.INTRA.VDW>
-2.08268

>  <SCORE.INTRA.VDW.0>
-0.778272

>  <SCORE.INTRA.norm>
-0.0689338

>  <SCORE.RESTR>
0

>  <SCORE.RESTR.CAVITY>
0

>  <SCORE.RESTR.norm>
0

>  <SCORE.SYSTEM>
0

>  <SCORE.SYSTEM.CONST>
0

>  <SCORE.SYSTEM.DIHEDRAL>
0

>  <SCORE.SYSTEM.SOLV>
0

>  <SCORE.SYSTEM.norm>
0

>  <SCORE.heavy>
22

>  <SCORE.norm>
-0.776065

>  <RMSD>
4.018

$$$$
ligand
 OpenBabel11021811503D
libRbt.so/2013.1/901 2013/11/27
 22 24  0  0  0  0  0  0  0  0999 V2000
    0.9284    2.9419   21.3536 C   0  0  0  0  0  0  0  0  0  0  0  0
    1.8030    3.1853   22.4336 C   0  0  0  0  0  0  0  0  0  0  0  0
    3.1538    2.8745   22.3029 C   0  0  0  0  0  0  0  0  0  0  0  0
    3.6238    2.3229   21.0983 C   0  0  0  0  0  0  0  0  0  0  0  0
    2.7450    2.0692   20.0165 C   0  0  0  0  0  0  0  0  0  0  0  0
    1.3984    2.3791   20.1490 C   0  0  0  0  0  0  0  0  0  0  0  0
   -0.5724    3.2636   21.4883 C   0  0  0  0  0  0  0  0  0  0  0  0
   -0.9301    4.7680   21.3944 C   0  0  0  0  0  0  0  0  0  0  0  0
   -0.4830    5.5831   22.6024 C   0  0  0  0  0  0  0  0  0  0  0  0
   -1.2801    5.8106   23.7283 C   0  0  0  0  0  0  0  0  0  0  0  0
   -0.5444    6.5654   24.5857 N   0  0  0  0  0  0  0  0  0  0  0  0
    0.7098    6.8545   24.0863 C   0  0  0  0  0  0  0  0  0  0  0  0
    0.7945    6.2527   22.8357 C   0  0  0  0  0  0  0  0  0  0  0  0
    2.0337    6.4137   22.1071 C   0  0  0  0  0  0  0  0  0  0  0  0
    2.1917    5.8313   20.8525 O   0  0  0  0  0  0  0  0  0  0  0  0
    3.0592    7.1582   22.6745 N   0  0  0  0  0  0  0  0  0  0  0  0
    2.9349    7.7231   23.9106 C   0  0  0  0  0  0  0  0  0  0  0  0
    1.7993    7.5945   24.6146 N   0  0  0  0  0  0  0  0  0  0  0  0
    4.0523    8.4870   24.4750 N   0  0  0  0  0  0  0  0  0  0  0  0
    5.0883    1.9913   20.9861 C   0  0  0  0  0  0  0  0  0  0  0  0
    5.8538    2.7614   20.4091 O   0  0  0  0  0  0  0  0  0  0  0  0
    5.5679    0.7612   21.5578 N   0  0  0  0  0  0  0  0  0  0  0  0
  1  2  2  0  0  0  0
  1  6  1  0  0  0  0
  1  7  1  0  0  0  0
  2  3  1  0  0  0  0
  3  4  2  0  0  0  0
  4  5  1  0  0  0  0
  4 20  1  0  0  0  0
  5  6  2  0  0  0  0
  7  8  1  0  0  0  0
  8  9  1  0  0  0  0
  9 10  2  0  0  0  0
  9 13  1  0  0  0  0
 10 11  1  0  0  0  0
 11 12  1  0  0  0  0
 12 13  2  0  0  0  0
 12 18  1  0  0  0  0
 13 14  1  0  0  0  0
 14 15  1  0  0  0  0
 14 16  2  0  0  0  0
 16 17  1  0  0  0  0
 17 18  2  0  0  0  0
 17 19  1  0  0  0  0
 20 21  2  0  0  0  0
 20 22  1  0  0  0  0
M  END
>  <CHROM.1>
76.02315344,-99.50123104,-70.62655424,-91.17762038,2.04202191,4.73645673
22.24670950,1.06267726,-0.00519917,-2.61841911

>  <Name>
ligand

>  <RI>
0

>  <Rbt.Current_Directory>
/home/itssahil/PROJECTS/Mol_Feturizer/New_Systems/rnas/4LVY

>  <Rbt.Executable>
rbdock ($Id: //depot/dev/client3/rdock/2013.1/src/exe/rbdock.cxx#4 $)

>  <Rbt.Library>
libRbt.so (2013.1, Build901 2013/11/27)

>  <Rbt.Parameter_File>
/export/apps/rDock/src/rDock_2013.1_src/data/scripts/dock_solv.prm

>  <Rbt.Receptor>
prm/pocket_docking_4.prm

>  <SCORE>
-16.951

>  <SCORE.INTER>
-15.2561

>  <SCORE.INTER.CONST>
1

>  <SCORE.INTER.POLAR>
0

>  <SCORE.INTER.ROT>
4

>  <SCORE.INTER.SOLV>
6.21515

>  <SCORE.INTER.VDW>
-18.5091

>  <SCORE.INTER.norm>
-0.69346

>  <SCORE.INTRA>
-1.69489

>  <SCORE.INTRA.DIHEDRAL>
0.490291

>  <SCORE.INTRA.DIHEDRAL.0>
6.18831

>  <SCORE.INTRA.POLAR>
0

>  <SCORE.INTRA.POLAR.0>
0

>  <SCORE.INTRA.REPUL>
0

>  <SCORE.INTRA.REPUL.0>
0

>  <SCORE.INTRA.SOLV>
0.569904

>  <SCORE.INTRA.SOLV.lig_0>
-44.3465

>  <SCORE.INTRA.VDW>
-2.22499

>  <SCORE.INTRA.VDW.0>
-0.778272

>  <SCORE.INTRA.norm>
-0.0770404

>  <SCORE.RESTR>
0

>  <SCORE.RESTR.CAVITY>
0

>  <SCORE.RESTR.norm>
0

>  <SCORE.SYSTEM>
0

>  <SCORE.SYSTEM.CONST>
0

>  <SCORE.SYSTEM.DIHEDRAL>
0

>  <SCORE.SYSTEM.SOLV>
0

>  <SCORE.SYSTEM.norm>
0

>  <SCORE.heavy>
22

>  <SCORE.norm>
-0.770501

>  <RMSD>
4.040

$$$$
ligand
 OpenBabel11021811503D
libRbt.so/2013.1/901 2013/11/27
 22 24  0  0  0  0  0  0  0  0999 V2000
    0.8760    2.9063   21.3646 C   0  0  0  0  0  0  0  0  0  0  0  0
    1.3093    2.3784   20.1300 C   0  0  0  0  0  0  0  0  0  0  0  0
    2.6623    2.1132   19.9370 C   0  0  0  0  0  0  0  0  0  0  0  0
    3.5741    2.3763   20.9741 C   0  0  0  0  0  0  0  0  0  0  0  0
    3.1416    2.9151   22.2108 C   0  0  0  0  0  0  0  0  0  0  0  0
    1.7922    3.1796   22.4012 C   0  0  0  0  0  0  0  0  0  0  0  0
   -0.6155    3.2222   21.5880 C   0  0  0  0  0  0  0  0  0  0  0  0
   -0.9906    4.7211   21.4767 C   0  0  0  0  0  0  0  0  0  0  0  0
   -0.5337    5.5594   22.6650 C   0  0  0  0  0  0  0  0  0  0  0  0
   -1.3102    5.7839   23.8059 C   0  0  0  0  0  0  0  0  0  0  0  0
   -0.5713    6.5636   24.6379 N   0  0  0  0  0  0  0  0  0  0  0  0
    0.6654    6.8721   24.1074 C   0  0  0  0  0  0  0  0  0  0  0  0
    0.7347    6.2574   22.8621 C   0  0  0  0  0  0  0  0  0  0  0  0
    1.9538    6.4348   22.1041 C   0  0  0  0  0  0  0  0  0  0  0  0
    2.0959    5.8409   20.8530 O   0  0  0  0  0  0  0  0  0  0  0  0
    2.9762    7.2066   22.6400 N   0  0  0  0  0  0  0  0  0  0  0  0
    2.8677    7.7834   23.8721 C   0  0  0  0  0  0  0  0  0  0  0  0
    1.7509    7.6402   24.6027 N   0  0  0  0  0  0  0  0  0  0  0  0
    3.9814    8.5764   24.4025 N   0  0  0  0  0  0  0  0  0  0  0  0
    5.0321    2.0850   20.7364 C   0  0  0  0  0  0  0  0  0  0  0  0
    5.6281    2.6302   19.8092 O   0  0  0  0  0  0  0  0  0  0  0  0
    5.7061    1.1578   21.6059 N   0  0  0  0  0  0  0  0  0  0  0  0
  1  2  2  0  0  0  0
  1  6  1  0  0  0  0
  1  7  1  0  0  0  0
  2  3  1  0  0  0  0
  3  4  2  0  0  0  0
  4  5  1  0  0  0  0
  4 20  1  0  0  0  0
  5  6  2  0  0  0  0
  7  8  1  0  0  0  0
  8  9  1  0  0  0  0
  9 10  2  0  0  0  0
  9 13  1  0  0  0  0
 10 11  1  0  0  0  0
 11 12  1  0  0  0  0
 12 13  2  0  0  0  0
 12 18  1  0  0  0  0
 13 14  1  0  0  0  0
 14 15  1  0  0  0  0
 14 16  2  0  0  0  0
 16 17  1  0  0  0  0
 17 18  2  0  0  0  0
 17 19  1  0  0  0  0
 20 21  2  0  0  0  0
 20 22  1  0  0  0  0
M  END
>  <CHROM.1>
-101.91841166,58.45624287,-73.55458738,-90.46046359,1.98577160,4.76382685
22.20276752,1.06772657,-0.05475420,-2.60467508

>  <Name>
ligand

>  <RI>
0

>  <Rbt.Current_Directory>
/home/itssahil/PROJECTS/Mol_Feturizer/New_Systems/rnas/4LVY

>  <Rbt.Executable>
rbdock ($Id: //depot/dev/client3/rdock/2013.1/src/exe/rbdock.cxx#4 $)

>  <Rbt.Library>
libRbt.so (2013.1, Build901 2013/11/27)

>  <Rbt.Parameter_File>
/export/apps/rDock/src/rDock_2013.1_src/data/scripts/dock_solv.prm

>  <Rbt.Receptor>
prm/pocket_docking_4.prm

>  <SCORE>
-16.8427

>  <SCORE.INTER>
-15.3062

>  <SCORE.INTER.CONST>
1

>  <SCORE.INTER.POLAR>
0

>  <SCORE.INTER.ROT>
4

>  <SCORE.INTER.SOLV>
6.20296

>  <SCORE.INTER.VDW>
-18.5385

>  <SCORE.INTER.norm>
-0.695738

>  <SCORE.INTRA>
-1.53643

>  <SCORE.INTRA.DIHEDRAL>
0.674916

>  <SCORE.INTRA.DIHEDRAL.0>
6.18831

>  <SCORE.INTRA.POLAR>
0

>  <SCORE.INTRA.POLAR.0>
0

>  <SCORE.INTRA.REPUL>
0

>  <SCORE.INTRA.REPUL.0>
0

>  <SCORE.INTRA.SOLV>
0.577638

>  <SCORE.INTRA.SOLV.lig_0>
-44.3465

>  <SCORE.INTRA.VDW>
-2.1627

>  <SCORE.INTRA.VDW.0>
-0.778272

>  <SCORE.INTRA.norm>
-0.0698375

>  <SCORE.RESTR>
0

>  <SCORE.RESTR.CAVITY>
0

>  <SCORE.RESTR.norm>
0

>  <SCORE.SYSTEM>
0

>  <SCORE.SYSTEM.CONST>
0

>  <SCORE.SYSTEM.DIHEDRAL>
0

>  <SCORE.SYSTEM.SOLV>
0

>  <SCORE.SYSTEM.norm>
0

>  <SCORE.heavy>
22

>  <SCORE.norm>
-0.765576

>  <RMSD>
4.042

$$$$
ligand
 OpenBabel11021811503D
libRbt.so/2013.1/901 2013/11/27
 22 24  0  0  0  0  0  0  0  0999 V2000
    0.9373    2.9451   21.4057 C   0  0  0  0  0  0  0  0  0  0  0  0
    1.8246    3.2578   22.4571 C   0  0  0  0  0  0  0  0  0  0  0  0
    3.1857    3.0113   22.2991 C   0  0  0  0  0  0  0  0  0  0  0  0
    3.6533    2.4545   21.0960 C   0  0  0  0  0  0  0  0  0  0  0  0
    2.7623    2.1313   20.0431 C   0  0  0  0  0  0  0  0  0  0  0  0
    1.4054    2.3772   20.2028 C   0  0  0  0  0  0  0  0  0  0  0  0
   -0.5741    3.1951   21.5714 C   0  0  0  0  0  0  0  0  0  0  0  0
   -1.0060    4.6797   21.4751 C   0  0  0  0  0  0  0  0  0  0  0  0
   -0.5457    5.5318   22.6522 C   0  0  0  0  0  0  0  0  0  0  0  0
   -1.3121    5.7560   23.8000 C   0  0  0  0  0  0  0  0  0  0  0  0
   -0.5731    6.5500   24.6181 N   0  0  0  0  0  0  0  0  0  0  0  0
    0.6541    6.8686   24.0717 C   0  0  0  0  0  0  0  0  0  0  0  0
    0.7167    6.2456   22.8301 C   0  0  0  0  0  0  0  0  0  0  0  0
    1.9254    6.4311   22.0575 C   0  0  0  0  0  0  0  0  0  0  0  0
    2.0605    5.8297   20.8093 O   0  0  0  0  0  0  0  0  0  0  0  0
    2.9447    7.2183   22.5764 N   0  0  0  0  0  0  0  0  0  0  0  0
    2.8433    7.8030   23.8054 C   0  0  0  0  0  0  0  0  0  0  0  0
    1.7362    7.6525   24.5494 N   0  0  0  0  0  0  0  0  0  0  0  0
    3.9536    8.6124   24.3178 N   0  0  0  0  0  0  0  0  0  0  0  0
    5.1294    2.1934   20.9541 C   0  0  0  0  0  0  0  0  0  0  0  0
    5.9017    3.1217   20.7218 O   0  0  0  0  0  0  0  0  0  0  0  0
    5.6124    0.8448   21.0882 N   0  0  0  0  0  0  0  0  0  0  0  0
  1  2  2  0  0  0  0
  1  6  1  0  0  0  0
  1  7  1  0  0  0  0
  2  3  1  0  0  0  0
  3  4  2  0  0  0  0
  4  5  1  0  0  0  0
  4 20  1  0  0  0  0
  5  6  2  0  0  0  0
  7  8  1  0  0  0  0
  8  9  1  0  0  0  0
  9 10  2  0  0  0  0
  9 13  1  0  0  0  0
 10 11  1  0  0  0  0
 11 12  1  0  0  0  0
 12 13  2  0  0  0  0
 12 18  1  0  0  0  0
 13 14  1  0  0  0  0
 14 15  1  0  0  0  0
 14 16  2  0  0  0  0
 16 17  1  0  0  0  0
 17 18  2  0  0  0  0
 17 19  1  0  0  0  0
 20 21  2  0  0  0  0
 20 22  1  0  0  0  0
M  END
>  <CHROM.1>
75.06086412,-77.28728360,-69.31741160,-92.29080430,2.00945997,4.78947740
22.23543185,1.03691309,-0.05000425,-2.63402621

>  <Name>
ligand

>  <RI>
0

>  <Rbt.Current_Directory>
/home/itssahil/PROJECTS/Mol_Feturizer/New_Systems/rnas/4LVY

>  <Rbt.Executable>
rbdock ($Id: //depot/dev/client3/rdock/2013.1/src/exe/rbdock.cxx#4 $)

>  <Rbt.Library>
libRbt.so (2013.1, Build901 2013/11/27)

>  <Rbt.Parameter_File>
/export/apps/rDock/src/rDock_2013.1_src/data/scripts/dock_solv.prm

>  <Rbt.Receptor>
prm/pocket_docking_6.prm

>  <SCORE>
-16.9214

>  <SCORE.INTER>
-15.1095

>  <SCORE.INTER.CONST>
1

>  <SCORE.INTER.POLAR>
0

>  <SCORE.INTER.ROT>
4

>  <SCORE.INTER.SOLV>
6.58313

>  <SCORE.INTER.VDW>
-18.534

>  <SCORE.INTER.norm>
-0.686795

>  <SCORE.INTRA>
-1.81187

>  <SCORE.INTRA.DIHEDRAL>
0.386245

>  <SCORE.INTRA.DIHEDRAL.0>
6.18831

>  <SCORE.INTRA.POLAR>
0

>  <SCORE.INTRA.POLAR.0>
0

>  <SCORE.INTRA.REPUL>
0

>  <SCORE.INTRA.REPUL.0>
0

>  <SCORE.INTRA.SOLV>
0.618688

>  <SCORE.INTRA.SOLV.lig_0>
-44.3465

>  <SCORE.INTRA.VDW>
-2.31434

>  <SCORE.INTRA.VDW.0>
-0.778272

>  <SCORE.INTRA.norm>
-0.0823578

>  <SCORE.RESTR>
0

>  <SCORE.RESTR.CAVITY>
0

>  <SCORE.RESTR.norm>
0

>  <SCORE.SYSTEM>
0

>  <SCORE.SYSTEM.CONST>
0

>  <SCORE.SYSTEM.DIHEDRAL>
0

>  <SCORE.SYSTEM.SOLV>
0

>  <SCORE.SYSTEM.norm>
0

>  <SCORE.heavy>
22

>  <SCORE.norm>
-0.769153

>  <RMSD>
4.043

$$$$
ligand
 OpenBabel11021811503D
libRbt.so/2013.1/901 2013/11/27
 22 24  0  0  0  0  0  0  0  0999 V2000
    0.9134    2.9462   21.3614 C   0  0  0  0  0  0  0  0  0  0  0  0
    1.8044    3.1960   22.4265 C   0  0  0  0  0  0  0  0  0  0  0  0
    3.1518    2.8775   22.2796 C   0  0  0  0  0  0  0  0  0  0  0  0
    3.6020    2.3120   21.0739 C   0  0  0  0  0  0  0  0  0  0  0  0
    2.7067    2.0520   20.0072 C   0  0  0  0  0  0  0  0  0  0  0  0
    1.3635    2.3696   20.1558 C   0  0  0  0  0  0  0  0  0  0  0  0
   -0.5839    3.2763   21.5144 C   0  0  0  0  0  0  0  0  0  0  0  0
   -0.9337    4.7830   21.4295 C   0  0  0  0  0  0  0  0  0  0  0  0
   -0.4894    5.5871   22.6459 C   0  0  0  0  0  0  0  0  0  0  0  0
   -1.2465    5.7172   23.8141 C   0  0  0  0  0  0  0  0  0  0  0  0
   -0.5269    6.4942   24.6652 N   0  0  0  0  0  0  0  0  0  0  0  0
    0.6784    6.8912   24.1214 C   0  0  0  0  0  0  0  0  0  0  0  0
    0.7466    6.3401   22.8466 C   0  0  0  0  0  0  0  0  0  0  0  0
    1.9352    6.6160   22.0698 C   0  0  0  0  0  0  0  0  0  0  0  0
    2.0748    6.0898   20.7885 O   0  0  0  0  0  0  0  0  0  0  0  0
    2.9305    7.4138   22.6181 N   0  0  0  0  0  0  0  0  0  0  0  0
    2.8248    7.9257   23.8788 C   0  0  0  0  0  0  0  0  0  0  0  0
    1.7359    7.6905   24.6276 N   0  0  0  0  0  0  0  0  0  0  0  0
    3.9102    8.7497   24.4207 N   0  0  0  0  0  0  0  0  0  0  0  0
    5.0632    1.9725   20.9442 C   0  0  0  0  0  0  0  0  0  0  0  0
    5.8435    2.7809   20.4444 O   0  0  0  0  0  0  0  0  0  0  0  0
    5.5222    0.6900   21.4073 N   0  0  0  0  0  0  0  0  0  0  0  0
  1  2  2  0  0  0  0
  1  6  1  0  0  0  0
  1  7  1  0  0  0  0
  2  3  1  0  0  0  0
  3  4  2  0  0  0  0
  4  5  1  0  0  0  0
  4 20  1  0  0  0  0
  5  6  2  0  0  0  0
  7  8  1  0  0  0  0
  8  9  1  0  0  0  0
  9 10  2  0  0  0  0
  9 13  1  0  0  0  0
 10 11  1  0  0  0  0
 11 12  1  0  0  0  0
 12 13  2  0  0  0  0
 12 18  1  0  0  0  0
 13 14  1  0  0  0  0
 14 15  1  0  0  0  0
 14 16  2  0  0  0  0
 16 17  1  0  0  0  0
 17 18  2  0  0  0  0
 17 19  1  0  0  0  0
 20 21  2  0  0  0  0
 20 22  1  0  0  0  0
M  END
>  <CHROM.1>
75.25360432,-93.64713378,-71.62462446,-85.60514211,1.99981496,4.79329619
22.24048487,1.09247863,-0.03717205,-2.64456169

>  <Name>
ligand

>  <RI>
0

>  <Rbt.Current_Directory>
/home/itssahil/PROJECTS/Mol_Feturizer/New_Systems/rnas/4LVY

>  <Rbt.Executable>
rbdock ($Id: //depot/dev/client3/rdock/2013.1/src/exe/rbdock.cxx#4 $)

>  <Rbt.Library>
libRbt.so (2013.1, Build901 2013/11/27)

>  <Rbt.Parameter_File>
/export/apps/rDock/src/rDock_2013.1_src/data/scripts/dock_solv.prm

>  <Rbt.Receptor>
prm/pocket_docking_6.prm

>  <SCORE>
-16.9659

>  <SCORE.INTER>
-15.4104

>  <SCORE.INTER.CONST>
1

>  <SCORE.INTER.POLAR>
0

>  <SCORE.INTER.ROT>
4

>  <SCORE.INTER.SOLV>
7.67257

>  <SCORE.INTER.VDW>
-19.0978

>  <SCORE.INTER.norm>
-0.700472

>  <SCORE.INTRA>
-1.55549

>  <SCORE.INTRA.DIHEDRAL>
0.573934

>  <SCORE.INTRA.DIHEDRAL.0>
6.18831

>  <SCORE.INTRA.POLAR>
0

>  <SCORE.INTRA.POLAR.0>
0

>  <SCORE.INTRA.REPUL>
0

>  <SCORE.INTRA.REPUL.0>
0

>  <SCORE.INTRA.SOLV>
0.373168

>  <SCORE.INTRA.SOLV.lig_0>
-44.3465

>  <SCORE.INTRA.VDW>
-2.02904

>  <SCORE.INTRA.VDW.0>
-0.778272

>  <SCORE.INTRA.norm>
-0.0707041

>  <SCORE.RESTR>
0

>  <SCORE.RESTR.CAVITY>
0

>  <SCORE.RESTR.norm>
0

>  <SCORE.SYSTEM>
0

>  <SCORE.SYSTEM.CONST>
0

>  <SCORE.SYSTEM.DIHEDRAL>
0

>  <SCORE.SYSTEM.SOLV>
0

>  <SCORE.SYSTEM.norm>
0

>  <SCORE.heavy>
22

>  <SCORE.norm>
-0.771176

>  <RMSD>
4.057

$$$$
ligand
 OpenBabel11021811503D
libRbt.so/2013.1/901 2013/11/27
 22 24  0  0  0  0  0  0  0  0999 V2000
    0.9333    2.9598   21.4105 C   0  0  0  0  0  0  0  0  0  0  0  0
    1.4809    2.3733   20.2500 C   0  0  0  0  0  0  0  0  0  0  0  0
    2.8496    2.1257   20.1898 C   0  0  0  0  0  0  0  0  0  0  0  0
    3.6631    2.4646   21.2851 C   0  0  0  0  0  0  0  0  0  0  0  0
    3.1160    3.0622   22.4471 C   0  0  0  0  0  0  0  0  0  0  0  0
    1.7511    3.3089   22.5049 C   0  0  0  0  0  0  0  0  0  0  0  0
   -0.5768    3.2568   21.4860 C   0  0  0  0  0  0  0  0  0  0  0  0
   -0.9544    4.7560   21.3878 C   0  0  0  0  0  0  0  0  0  0  0  0
   -0.5228    5.5794   22.5958 C   0  0  0  0  0  0  0  0  0  0  0  0
   -1.3061    5.7545   23.7407 C   0  0  0  0  0  0  0  0  0  0  0  0
   -0.5908    6.5360   24.5914 N   0  0  0  0  0  0  0  0  0  0  0  0
    0.6366    6.8929   24.0696 C   0  0  0  0  0  0  0  0  0  0  0  0
    0.7244    6.3096   22.8104 C   0  0  0  0  0  0  0  0  0  0  0  0
    1.9382    6.5403   22.0582 C   0  0  0  0  0  0  0  0  0  0  0  0
    2.0982    5.9801   20.7938 O   0  0  0  0  0  0  0  0  0  0  0  0
    2.9372    7.3291   22.6129 N   0  0  0  0  0  0  0  0  0  0  0  0
    2.8113    7.8736   23.8580 C   0  0  0  0  0  0  0  0  0  0  0  0
    1.6988    7.6807   24.5838 N   0  0  0  0  0  0  0  0  0  0  0  0
    3.9010    8.6864   24.4080 N   0  0  0  0  0  0  0  0  0  0  0  0
    5.1408    2.1907   21.1910 C   0  0  0  0  0  0  0  0  0  0  0  0
    5.9514    3.0462   21.5417 O   0  0  0  0  0  0  0  0  0  0  0  0
    5.5806    0.9196   20.6801 N   0  0  0  0  0  0  0  0  0  0  0  0
  1  2  2  0  0  0  0
  1  6  1  0  0  0  0
  1  7  1  0  0  0  0
  2  3  1  0  0  0  0
  3  4  2  0  0  0  0
  4  5  1  0  0  0  0
  4 20  1  0  0  0  0
  5  6  2  0  0  0  0
  7  8  1  0  0  0  0
  8  9  1  0  0  0  0
  9 10  2  0  0  0  0
  9 13  1  0  0  0  0
 10 11  1  0  0  0  0
 11 12  1  0  0  0  0
 12 13  2  0  0  0  0
 12 18  1  0  0  0  0
 13 14  1  0  0  0  0
 14 15  1  0  0  0  0
 14 16  2  0  0  0  0
 16 17  1  0  0  0  0
 17 18  2  0  0  0  0
 17 19  1  0  0  0  0
 20 21  2  0  0  0  0
 20 22  1  0  0  0  0
M  END
>  <CHROM.1>
-107.29429970,134.43182976,-68.42923209,-88.54054653,2.01109526,4.83181134
22.28943086,1.04650295,-0.00550607,-2.63760917

>  <Name>
ligand

>  <RI>
0

>  <Rbt.Current_Directory>
/home/itssahil/PROJECTS/Mol_Feturizer/New_Systems/rnas/4LVY

>  <Rbt.Executable>
rbdock ($Id: //depot/dev/client3/rdock/2013.1/src/exe/rbdock.cxx#4 $)

>  <Rbt.Library>
libRbt.so (2013.1, Build901 2013/11/27)

>  <Rbt.Parameter_File>
/export/apps/rDock/src/rDock_2013.1_src/data/scripts/dock_solv.prm

>  <Rbt.Receptor>
prm/pocket_docking_8.prm

>  <SCORE>
-16.6052

>  <SCORE.INTER>
-14.8547

>  <SCORE.INTER.CONST>
1

>  <SCORE.INTER.POLAR>
0

>  <SCORE.INTER.ROT>
4

>  <SCORE.INTER.SOLV>
7.41578

>  <SCORE.INTER.VDW>
-18.6417

>  <SCORE.INTER.norm>
-0.675212

>  <SCORE.INTRA>
-1.75056

>  <SCORE.INTRA.DIHEDRAL>
0.227059

>  <SCORE.INTRA.DIHEDRAL.0>
6.18831

>  <SCORE.INTRA.POLAR>
0

>  <SCORE.INTRA.POLAR.0>
0

>  <SCORE.INTRA.REPUL>
0

>  <SCORE.INTRA.REPUL.0>
0

>  <SCORE.INTRA.SOLV>
0.494655

>  <SCORE.INTRA.SOLV.lig_0>
-44.3465

>  <SCORE.INTRA.VDW>
-2.11142

>  <SCORE.INTRA.VDW.0>
-0.778272

>  <SCORE.INTRA.norm>
-0.0795708

>  <SCORE.RESTR>
0

>  <SCORE.RESTR.CAVITY>
0

>  <SCORE.RESTR.norm>
0

>  <SCORE.SYSTEM>
0

>  <SCORE.SYSTEM.CONST>
0

>  <SCORE.SYSTEM.DIHEDRAL>
0

>  <SCORE.SYSTEM.SOLV>
0

>  <SCORE.SYSTEM.norm>
0

>  <SCORE.heavy>
22

>  <SCORE.norm>
-0.754783

>  <RMSD>
4.059

$$$$
ligand
 OpenBabel11021811503D
libRbt.so/2013.1/901 2013/11/27
 22 24  0  0  0  0  0  0  0  0999 V2000
    0.9479    2.9567   21.4244 C   0  0  0  0  0  0  0  0  0  0  0  0
    1.5044    2.3549   20.2760 C   0  0  0  0  0  0  0  0  0  0  0  0
    2.8732    2.1043   20.2306 C   0  0  0  0  0  0  0  0  0  0  0  0
    3.6780    2.4556   21.3284 C   0  0  0  0  0  0  0  0  0  0  0  0
    3.1220    3.0685   22.4782 C   0  0  0  0  0  0  0  0  0  0  0  0
    1.7571    3.3182   22.5213 C   0  0  0  0  0  0  0  0  0  0  0  0
   -0.5622    3.2570   21.4832 C   0  0  0  0  0  0  0  0  0  0  0  0
   -0.9352    4.7573   21.3831 C   0  0  0  0  0  0  0  0  0  0  0  0
   -0.4910    5.5831   22.5848 C   0  0  0  0  0  0  0  0  0  0  0  0
   -1.2721    5.7803   23.7276 C   0  0  0  0  0  0  0  0  0  0  0  0
   -0.5446    6.5566   24.5727 N   0  0  0  0  0  0  0  0  0  0  0  0
    0.6888    6.8891   24.0490 C   0  0  0  0  0  0  0  0  0  0  0  0
    0.7679    6.2944   22.7946 C   0  0  0  0  0  0  0  0  0  0  0  0
    1.9858    6.4990   22.0415 C   0  0  0  0  0  0  0  0  0  0  0  0
    2.1375    5.9262   20.7818 O   0  0  0  0  0  0  0  0  0  0  0  0
    2.9973    7.2757   22.5908 N   0  0  0  0  0  0  0  0  0  0  0  0
    2.8796    7.8322   23.8314 C   0  0  0  0  0  0  0  0  0  0  0  0
    1.7635    7.6635   24.5578 N   0  0  0  0  0  0  0  0  0  0  0  0
    3.9821    8.6313   24.3758 N   0  0  0  0  0  0  0  0  0  0  0  0
    5.1559    2.1782   21.2504 C   0  0  0  0  0  0  0  0  0  0  0  0
    5.9594    2.9649   21.7477 O   0  0  0  0  0  0  0  0  0  0  0  0
    5.6046    0.9861   20.5813 N   0  0  0  0  0  0  0  0  0  0  0  0
  1  2  2  0  0  0  0
  1  6  1  0  0  0  0
  1  7  1  0  0  0  0
  2  3  1  0  0  0  0
  3  4  2  0  0  0  0
  4  5  1  0  0  0  0
  4 20  1  0  0  0  0
  5  6  2  0  0  0  0
  7  8  1  0  0  0  0
  8  9  1  0  0  0  0
  9 10  2  0  0  0  0
  9 13  1  0  0  0  0
 10 11  1  0  0  0  0
 11 12  1  0  0  0  0
 12 13  2  0  0  0  0
 12 18  1  0  0  0  0
 13 14  1  0  0  0  0
 14 15  1  0  0  0  0
 14 16  2  0  0  0  0
 16 17  1  0  0  0  0
 17 18  2  0  0  0  0
 17 19  1  0  0  0  0
 20 21  2  0  0  0  0
 20 22  1  0  0  0  0
M  END
>  <CHROM.1>
-108.11423173,143.42980532,-67.28334643,-89.47521925,2.04489188,4.81735144
22.29556712,1.04295555,0.00677095,-2.63755558

>  <Name>
ligand

>  <RI>
0

>  <Rbt.Current_Directory>
/home/itssahil/PROJECTS/Mol_Feturizer/New_Systems/rnas/4LVY

>  <Rbt.Executable>
rbdock ($Id: //depot/dev/client3/rdock/2013.1/src/exe/rbdock.cxx#4 $)

>  <Rbt.Library>
libRbt.so (2013.1, Build901 2013/11/27)

>  <Rbt.Parameter_File>
/export/apps/rDock/src/rDock_2013.1_src/data/scripts/dock_solv.prm

>  <Rbt.Receptor>
prm/pocket_docking_7.prm

>  <SCORE>
-16.6123

>  <SCORE.INTER>
-14.8863

>  <SCORE.INTER.CONST>
1

>  <SCORE.INTER.POLAR>
0

>  <SCORE.INTER.ROT>
4

>  <SCORE.INTER.SOLV>
6.87174

>  <SCORE.INTER.VDW>
-18.4815

>  <SCORE.INTER.norm>
-0.676651

>  <SCORE.INTRA>
-1.726

>  <SCORE.INTRA.DIHEDRAL>
0.149447

>  <SCORE.INTRA.DIHEDRAL.0>
6.18831

>  <SCORE.INTRA.POLAR>
0

>  <SCORE.INTRA.POLAR.0>
0

>  <SCORE.INTRA.REPUL>
0

>  <SCORE.INTRA.REPUL.0>
0

>  <SCORE.INTRA.SOLV>
0.530777

>  <SCORE.INTRA.SOLV.lig_0>
-44.3465

>  <SCORE.INTRA.VDW>
-2.06611

>  <SCORE.INTRA.VDW.0>
-0.778272

>  <SCORE.INTRA.norm>
-0.0784547

>  <SCORE.RESTR>
0

>  <SCORE.RESTR.CAVITY>
0

>  <SCORE.RESTR.norm>
0

>  <SCORE.SYSTEM>
0

>  <SCORE.SYSTEM.CONST>
0

>  <SCORE.SYSTEM.DIHEDRAL>
0

>  <SCORE.SYSTEM.SOLV>
0

>  <SCORE.SYSTEM.norm>
0

>  <SCORE.heavy>
22

>  <SCORE.norm>
-0.755105

>  <RMSD>
4.065

$$$$
ligand
 OpenBabel11021811503D
libRbt.so/2013.1/901 2013/11/27
 22 24  0  0  0  0  0  0  0  0999 V2000
    1.4891    2.4939   20.3812 C   0  0  0  0  0  0  0  0  0  0  0  0
    1.7535    3.0868   19.1285 C   0  0  0  0  0  0  0  0  0  0  0  0
    3.0165    2.9482   18.5594 C   0  0  0  0  0  0  0  0  0  0  0  0
    4.0073    2.2211   19.2420 C   0  0  0  0  0  0  0  0  0  0  0  0
    3.7460    1.6333   20.5042 C   0  0  0  0  0  0  0  0  0  0  0  0
    2.4862    1.7732   21.0704 C   0  0  0  0  0  0  0  0  0  0  0  0
    0.1020    2.6531   21.0329 C   0  0  0  0  0  0  0  0  0  0  0  0
   -0.0147    3.8187   22.0467 C   0  0  0  0  0  0  0  0  0  0  0  0
   -0.2670    5.1749   21.3982 C   0  0  0  0  0  0  0  0  0  0  0  0
   -1.5152    5.8040   21.3655 C   0  0  0  0  0  0  0  0  0  0  0  0
   -1.3444    6.9847   20.7153 N   0  0  0  0  0  0  0  0  0  0  0  0
   -0.0384    7.1765   20.3104 C   0  0  0  0  0  0  0  0  0  0  0  0
    0.6795    6.0590   20.7219 C   0  0  0  0  0  0  0  0  0  0  0  0
    2.0920    6.0295   20.4112 C   0  0  0  0  0  0  0  0  0  0  0  0
    2.8743    4.9456   20.8002 O   0  0  0  0  0  0  0  0  0  0  0  0
    2.6537    7.0937   19.7185 N   0  0  0  0  0  0  0  0  0  0  0  0
    1.9114    8.1756   19.3429 C   0  0  0  0  0  0  0  0  0  0  0  0
    0.5982    8.2364   19.6142 N   0  0  0  0  0  0  0  0  0  0  0  0
    2.5534    9.2829   18.6272 N   0  0  0  0  0  0  0  0  0  0  0  0
    5.3659    2.0915   18.6061 C   0  0  0  0  0  0  0  0  0  0  0  0
    5.5598    2.5196   17.4698 O   0  0  0  0  0  0  0  0  0  0  0  0
    6.4222    1.4553   19.3475 N   0  0  0  0  0  0  0  0  0  0  0  0
  1  2  2  0  0  0  0
  1  6  1  0  0  0  0
  1  7  1  0  0  0  0
  2  3  1  0  0  0  0
  3  4  2  0  0  0  0
  4  5  1  0  0  0  0
  4 20  1  0  0  0  0
  5  6  2  0  0  0  0
  7  8  1  0  0  0  0
  8  9  1  0  0  0  0
  9 10  2  0  0  0  0
  9 13  1  0  0  0  0
 10 11  1  0  0  0  0
 11 12  1  0  0  0  0
 12 13  2  0  0  0  0
 12 18  1  0  0  0  0
 13 14  1  0  0  0  0
 14 15  1  0  0  0  0
 14 16  2  0  0  0  0
 16 17  1  0  0  0  0
 17 18  2  0  0  0  0
 17 19  1  0  0  0  0
 20 21  2  0  0  0  0
 20 22  1  0  0  0  0
M  END
>  <CHROM.1>
-94.92874271,-5.88671366,82.41678675,102.57483029,2.04590503,4.64590516,20.00117927
0.76519794,-0.49493914,2.91003318

>  <Name>
ligand

>  <RI>
0

>  <Rbt.Current_Directory>
/home/itssahil/PROJECTS/Mol_Feturizer/New_Systems/rnas/4LVY

>  <Rbt.Executable>
rbdock ($Id: //depot/dev/client3/rdock/2013.1/src/exe/rbdock.cxx#4 $)

>  <Rbt.Library>
libRbt.so (2013.1, Build901 2013/11/27)

>  <Rbt.Parameter_File>
/export/apps/rDock/src/rDock_2013.1_src/data/scripts/dock_solv.prm

>  <Rbt.Receptor>
prm/pocket_docking_7.prm

>  <SCORE>
-14.3853

>  <SCORE.INTER>
-14.2908

>  <SCORE.INTER.CONST>
1

>  <SCORE.INTER.POLAR>
0

>  <SCORE.INTER.ROT>
4

>  <SCORE.INTER.SOLV>
8.56516

>  <SCORE.INTER.VDW>
-18.6489

>  <SCORE.INTER.norm>
-0.64958

>  <SCORE.INTRA>
-0.0945304

>  <SCORE.INTRA.DIHEDRAL>
1.85557

>  <SCORE.INTRA.DIHEDRAL.0>
6.18831

>  <SCORE.INTRA.POLAR>
0

>  <SCORE.INTRA.POLAR.0>
0

>  <SCORE.INTRA.REPUL>
0

>  <SCORE.INTRA.REPUL.0>
0

>  <SCORE.INTRA.SOLV>
1.0121

>  <SCORE.INTRA.SOLV.lig_0>
-44.3465

>  <SCORE.INTRA.VDW>
-1.52837

>  <SCORE.INTRA.VDW.0>
-0.778272

>  <SCORE.INTRA.norm>
-0.00429683

>  <SCORE.RESTR>
0

>  <SCORE.RESTR.CAVITY>
0

>  <SCORE.RESTR.norm>
0

>  <SCORE.SYSTEM>
0

>  <SCORE.SYSTEM.CONST>
0

>  <SCORE.SYSTEM.DIHEDRAL>
0

>  <SCORE.SYSTEM.SOLV>
0

>  <SCORE.SYSTEM.norm>
0

>  <SCORE.heavy>
22

>  <SCORE.norm>
-0.653877

>  <RMSD>
4.078

$$$$
ligand
 OpenBabel11021811503D
libRbt.so/2013.1/901 2013/11/27
 22 24  0  0  0  0  0  0  0  0999 V2000
    0.5725    3.4930   20.5211 C   0  0  0  0  0  0  0  0  0  0  0  0
    1.3945    4.4206   19.8468 C   0  0  0  0  0  0  0  0  0  0  0  0
    2.6598    4.0281   19.4188 C   0  0  0  0  0  0  0  0  0  0  0  0
    3.0978    2.7153   19.6658 C   0  0  0  0  0  0  0  0  0  0  0  0
    2.2772    1.7858   20.3510 C   0  0  0  0  0  0  0  0  0  0  0  0
    1.0162    2.1792   20.7777 C   0  0  0  0  0  0  0  0  0  0  0  0
   -0.8234    3.9168   21.0171 C   0  0  0  0  0  0  0  0  0  0  0  0
   -1.0265    3.8315   22.5506 C   0  0  0  0  0  0  0  0  0  0  0  0
   -0.4642    5.0258   23.3129 C   0  0  0  0  0  0  0  0  0  0  0  0
   -1.2394    6.0981   23.7645 C   0  0  0  0  0  0  0  0  0  0  0  0
   -0.3960    6.9544   24.3981 N   0  0  0  0  0  0  0  0  0  0  0  0
    0.9096    6.5054   24.3922 C   0  0  0  0  0  0  0  0  0  0  0  0
    0.9145    5.2888   23.7188 C   0  0  0  0  0  0  0  0  0  0  0  0
    2.1860    4.6123   23.5850 C   0  0  0  0  0  0  0  0  0  0  0  0
    2.2641    3.3864   22.9300 O   0  0  0  0  0  0  0  0  0  0  0  0
    3.3249    5.2037   24.1152 N   0  0  0  0  0  0  0  0  0  0  0  0
    3.2709    6.3957   24.7776 C   0  0  0  0  0  0  0  0  0  0  0  0
    2.1082    7.0512   24.9202 N   0  0  0  0  0  0  0  0  0  0  0  0
    4.4987    6.9727   25.3346 N   0  0  0  0  0  0  0  0  0  0  0  0
    4.4726    2.3192   19.1966 C   0  0  0  0  0  0  0  0  0  0  0  0
    5.2136    1.6700   19.9325 O   0  0  0  0  0  0  0  0  0  0  0  0
    4.9000    2.7188   17.8822 N   0  0  0  0  0  0  0  0  0  0  0  0
  1  2  2  0  0  0  0
  1  6  1  0  0  0  0
  1  7  1  0  0  0  0
  2  3  1  0  0  0  0
  3  4  2  0  0  0  0
  4  5  1  0  0  0  0
  4 20  1  0  0  0  0
  5  6  2  0  0  0  0
  7  8  1  0  0  0  0
  8  9  1  0  0  0  0
  9 10  2  0  0  0  0
  9 13  1  0  0  0  0
 10 11  1  0  0  0  0
 11 12  1  0  0  0  0
 12 13  2  0  0  0  0
 12 18  1  0  0  0  0
 13 14  1  0  0  0  0
 14 15  1  0  0  0  0
 14 16  2  0  0  0  0
 16 17  1  0  0  0  0
 17 18  2  0  0  0  0
 17 19  1  0  0  0  0
 20 21  2  0  0  0  0
 20 22  1  0  0  0  0
M  END
>  <CHROM.1>
-118.47591990,135.98415172,81.11589762,99.48043294,1.91783303,4.37900525
22.12857875,1.19579705,0.01478406,-2.21122743

>  <Name>
ligand

>  <RI>
0

>  <Rbt.Current_Directory>
/home/itssahil/PROJECTS/Mol_Feturizer/New_Systems/rnas/4LVY

>  <Rbt.Executable>
rbdock ($Id: //depot/dev/client3/rdock/2013.1/src/exe/rbdock.cxx#4 $)

>  <Rbt.Library>
libRbt.so (2013.1, Build901 2013/11/27)

>  <Rbt.Parameter_File>
/export/apps/rDock/src/rDock_2013.1_src/data/scripts/dock_solv.prm

>  <Rbt.Receptor>
prm/pocket_docking_3.prm

>  <SCORE>
-16.519

>  <SCORE.INTER>
-16.8878

>  <SCORE.INTER.CONST>
1

>  <SCORE.INTER.POLAR>
0

>  <SCORE.INTER.ROT>
4

>  <SCORE.INTER.SOLV>
8.45121

>  <SCORE.INTER.VDW>
-20.3423

>  <SCORE.INTER.norm>
-0.767626

>  <SCORE.INTRA>
-0.334643

>  <SCORE.INTRA.DIHEDRAL>
1.70929

>  <SCORE.INTRA.DIHEDRAL.0>
6.18831

>  <SCORE.INTRA.POLAR>
0

>  <SCORE.INTRA.POLAR.0>
0

>  <SCORE.INTRA.REPUL>
0

>  <SCORE.INTRA.REPUL.0>
0

>  <SCORE.INTRA.SOLV>
0.891259

>  <SCORE.INTRA.SOLV.lig_0>
-44.3465

>  <SCORE.INTRA.VDW>
-1.63492

>  <SCORE.INTRA.VDW.0>
-0.778272

>  <SCORE.INTRA.norm>
-0.0152111

>  <SCORE.RESTR>
0.703398

>  <SCORE.RESTR.CAVITY>
0.703398

>  <SCORE.RESTR.norm>
0.0319726

>  <SCORE.SYSTEM>
0

>  <SCORE.SYSTEM.CONST>
0

>  <SCORE.SYSTEM.DIHEDRAL>
0

>  <SCORE.SYSTEM.SOLV>
0

>  <SCORE.SYSTEM.norm>
0

>  <SCORE.heavy>
22

>  <SCORE.norm>
-0.750865

>  <RMSD>
4.106

$$$$
ligand
 OpenBabel11021811503D
libRbt.so/2013.1/901 2013/11/27
 22 24  0  0  0  0  0  0  0  0999 V2000
    0.6453    3.4825   20.5159 C   0  0  0  0  0  0  0  0  0  0  0  0
    1.1481    2.1890   20.7700 C   0  0  0  0  0  0  0  0  0  0  0  0
    2.4058    1.8373   20.2875 C   0  0  0  0  0  0  0  0  0  0  0  0
    3.1532    2.7757   19.5547 C   0  0  0  0  0  0  0  0  0  0  0  0
    2.6456    4.0716   19.2906 C   0  0  0  0  0  0  0  0  0  0  0  0
    1.3911    4.4202   19.7720 C   0  0  0  0  0  0  0  0  0  0  0  0
   -0.7522    3.8816   21.0275 C   0  0  0  0  0  0  0  0  0  0  0  0
   -0.9349    3.7984   22.5636 C   0  0  0  0  0  0  0  0  0  0  0  0
   -0.4039    5.0150   23.3129 C   0  0  0  0  0  0  0  0  0  0  0  0
   -1.2079    6.0681   23.7599 C   0  0  0  0  0  0  0  0  0  0  0  0
   -0.3866    6.9540   24.3817 N   0  0  0  0  0  0  0  0  0  0  0  0
    0.9315    6.5432   24.3725 C   0  0  0  0  0  0  0  0  0  0  0  0
    0.9685    5.3217   23.7093 C   0  0  0  0  0  0  0  0  0  0  0  0
    2.2587    4.6816   23.5742 C   0  0  0  0  0  0  0  0  0  0  0  0
    2.3692    3.4530   22.9290 O   0  0  0  0  0  0  0  0  0  0  0  0
    3.3825    5.3105   24.0933 N   0  0  0  0  0  0  0  0  0  0  0  0
    3.2969    6.5060   24.7461 C   0  0  0  0  0  0  0  0  0  0  0  0
    2.1163    7.1284   24.8895 N   0  0  0  0  0  0  0  0  0  0  0  0
    4.5101    7.1233   25.2916 N   0  0  0  0  0  0  0  0  0  0  0  0
    4.5080    2.3670   19.0401 C   0  0  0  0  0  0  0  0  0  0  0  0
    4.8155    2.5836   17.8694 O   0  0  0  0  0  0  0  0  0  0  0  0
    5.4251    1.7169   19.9380 N   0  0  0  0  0  0  0  0  0  0  0  0
  1  2  2  0  0  0  0
  1  6  1  0  0  0  0
  1  7  1  0  0  0  0
  2  3  1  0  0  0  0
  3  4  2  0  0  0  0
  4  5  1  0  0  0  0
  4 20  1  0  0  0  0
  5  6  2  0  0  0  0
  7  8  1  0  0  0  0
  8  9  1  0  0  0  0
  9 10  2  0  0  0  0
  9 13  1  0  0  0  0
 10 11  1  0  0  0  0
 11 12  1  0  0  0  0
 12 13  2  0  0  0  0
 12 18  1  0  0  0  0
 13 14  1  0  0  0  0
 14 15  1  0  0  0  0
 14 16  2  0  0  0  0
 16 17  1  0  0  0  0
 17 18  2  0  0  0  0
 17 19  1  0  0  0  0
 20 21  2  0  0  0  0
 20 22  1  0  0  0  0
M  END
>  <CHROM.1>
59.57261332,131.89931884,81.93214561,99.02904662,1.96759415,4.41504001,22.08331939
1.20545212,-0.00388754,-2.21079887

>  <Name>
ligand

>  <RI>
0

>  <Rbt.Current_Directory>
/home/itssahil/PROJECTS/Mol_Feturizer/New_Systems/rnas/4LVY

>  <Rbt.Executable>
rbdock ($Id: //depot/dev/client3/rdock/2013.1/src/exe/rbdock.cxx#4 $)

>  <Rbt.Library>
libRbt.so (2013.1, Build901 2013/11/27)

>  <Rbt.Parameter_File>
/export/apps/rDock/src/rDock_2013.1_src/data/scripts/dock_solv.prm

>  <Rbt.Receptor>
prm/pocket_docking_8.prm

>  <SCORE>
-17.4683

>  <SCORE.INTER>
-17.1875

>  <SCORE.INTER.CONST>
1

>  <SCORE.INTER.POLAR>
0

>  <SCORE.INTER.ROT>
4

>  <SCORE.INTER.SOLV>
8.44865

>  <SCORE.INTER.VDW>
-20.5412

>  <SCORE.INTER.norm>
-0.781249

>  <SCORE.INTRA>
-0.28086

>  <SCORE.INTRA.DIHEDRAL>
1.83126

>  <SCORE.INTRA.DIHEDRAL.0>
6.18831

>  <SCORE.INTRA.POLAR>
0

>  <SCORE.INTRA.POLAR.0>
0

>  <SCORE.INTRA.REPUL>
0

>  <SCORE.INTRA.REPUL.0>
0

>  <SCORE.INTRA.SOLV>
0.832591

>  <SCORE.INTRA.SOLV.lig_0>
-44.3465

>  <SCORE.INTRA.VDW>
-1.61278

>  <SCORE.INTRA.VDW.0>
-0.778272

>  <SCORE.INTRA.norm>
-0.0127664

>  <SCORE.RESTR>
0

>  <SCORE.RESTR.CAVITY>
0

>  <SCORE.RESTR.norm>
0

>  <SCORE.SYSTEM>
0

>  <SCORE.SYSTEM.CONST>
0

>  <SCORE.SYSTEM.DIHEDRAL>
0

>  <SCORE.SYSTEM.SOLV>
0

>  <SCORE.SYSTEM.norm>
0

>  <SCORE.heavy>
22

>  <SCORE.norm>
-0.794015

>  <RMSD>
4.107

$$$$
ligand
 OpenBabel11021811503D
libRbt.so/2013.1/901 2013/11/27
 22 24  0  0  0  0  0  0  0  0999 V2000
    0.7493    3.0099   21.4695 C   0  0  0  0  0  0  0  0  0  0  0  0
    1.0884    2.5002   20.1984 C   0  0  0  0  0  0  0  0  0  0  0  0
    2.4170    2.1938   19.9168 C   0  0  0  0  0  0  0  0  0  0  0  0
    3.3983    2.3978   20.9025 C   0  0  0  0  0  0  0  0  0  0  0  0
    3.0606    2.9185   22.1760 C   0  0  0  0  0  0  0  0  0  0  0  0
    1.7354    3.2241   22.4546 C   0  0  0  0  0  0  0  0  0  0  0  0
   -0.7137    3.3709   21.7910 C   0  0  0  0  0  0  0  0  0  0  0  0
   -1.0653    4.8721   21.6409 C   0  0  0  0  0  0  0  0  0  0  0  0
   -0.5784    5.7366   22.7981 C   0  0  0  0  0  0  0  0  0  0  0  0
   -1.3272    5.9903   23.9513 C   0  0  0  0  0  0  0  0  0  0  0  0
   -0.5670    6.7870   24.7471 N   0  0  0  0  0  0  0  0  0  0  0  0
    0.6576    7.0792   24.1805 C   0  0  0  0  0  0  0  0  0  0  0  0
    0.6959    6.4352   22.9487 C   0  0  0  0  0  0  0  0  0  0  0  0
    1.8973    6.5911   22.1584 C   0  0  0  0  0  0  0  0  0  0  0  0
    2.0084    5.9677   20.9186 O   0  0  0  0  0  0  0  0  0  0  0  0
    2.9339    7.3722   22.6517 N   0  0  0  0  0  0  0  0  0  0  0  0
    2.8560    7.9781   23.8721 C   0  0  0  0  0  0  0  0  0  0  0  0
    1.7564    7.8554   24.6320 N   0  0  0  0  0  0  0  0  0  0  0  0
    3.9839    8.7799   24.3575 N   0  0  0  0  0  0  0  0  0  0  0  0
    4.8280    2.0630   20.5694 C   0  0  0  0  0  0  0  0  0  0  0  0
    5.3426    1.0385   21.0141 O   0  0  0  0  0  0  0  0  0  0  0  0
    5.5754    2.9631   19.7320 N   0  0  0  0  0  0  0  0  0  0  0  0
  1  2  2  0  0  0  0
  1  6  1  0  0  0  0
  1  7  1  0  0  0  0
  2  3  1  0  0  0  0
  3  4  2  0  0  0  0
  4  5  1  0  0  0  0
  4 20  1  0  0  0  0
  5  6  2  0  0  0  0
  7  8  1  0  0  0  0
  8  9  1  0  0  0  0
  9 10  2  0  0  0  0
  9 13  1  0  0  0  0
 10 11  1  0  0  0  0
 11 12  1  0  0  0  0
 12 13  2  0  0  0  0
 12 18  1  0  0  0  0
 13 14  1  0  0  0  0
 14 15  1  0  0  0  0
 14 16  2  0  0  0  0
 16 17  1  0  0  0  0
 17 18  2  0  0  0  0
 17 19  1  0  0  0  0
 20 21  2  0  0  0  0
 20 22  1  0  0  0  0
M  END
>  <CHROM.1>
-97.75125398,-104.13883178,-77.29409603,-89.41294412,1.89457812,4.88630905
22.22309882,1.12076788,-0.10678751,-2.62223769

>  <Name>
ligand

>  <RI>
0

>  <Rbt.Current_Directory>
/home/itssahil/PROJECTS/Mol_Feturizer/New_Systems/rnas/4LVY

>  <Rbt.Executable>
rbdock ($Id: //depot/dev/client3/rdock/2013.1/src/exe/rbdock.cxx#4 $)

>  <Rbt.Library>
libRbt.so (2013.1, Build901 2013/11/27)

>  <Rbt.Parameter_File>
/export/apps/rDock/src/rDock_2013.1_src/data/scripts/dock_solv.prm

>  <Rbt.Receptor>
prm/pocket_docking_6.prm

>  <SCORE>
-17.2007

>  <SCORE.INTER>
-15.8795

>  <SCORE.INTER.CONST>
1

>  <SCORE.INTER.POLAR>
0

>  <SCORE.INTER.ROT>
4

>  <SCORE.INTER.SOLV>
7.06773

>  <SCORE.INTER.VDW>
-19.2089

>  <SCORE.INTER.norm>
-0.721794

>  <SCORE.INTRA>
-1.32128

>  <SCORE.INTRA.DIHEDRAL>
1.0795

>  <SCORE.INTRA.DIHEDRAL.0>
6.18831

>  <SCORE.INTRA.POLAR>
0

>  <SCORE.INTRA.POLAR.0>
0

>  <SCORE.INTRA.REPUL>
0

>  <SCORE.INTRA.REPUL.0>
0

>  <SCORE.INTRA.SOLV>
0.523081

>  <SCORE.INTRA.SOLV.lig_0>
-44.3465

>  <SCORE.INTRA.VDW>
-2.12258

>  <SCORE.INTRA.VDW.0>
-0.778272

>  <SCORE.INTRA.norm>
-0.0600584

>  <SCORE.RESTR>
0

>  <SCORE.RESTR.CAVITY>
0

>  <SCORE.RESTR.norm>
0

>  <SCORE.SYSTEM>
0

>  <SCORE.SYSTEM.CONST>
0

>  <SCORE.SYSTEM.DIHEDRAL>
0

>  <SCORE.SYSTEM.SOLV>
0

>  <SCORE.SYSTEM.norm>
0

>  <SCORE.heavy>
22

>  <SCORE.norm>
-0.781852

>  <RMSD>
4.126

$$$$
ligand
 OpenBabel11021811503D
libRbt.so/2013.1/901 2013/11/27
 22 24  0  0  0  0  0  0  0  0999 V2000
    0.7665    2.9897   21.4582 C   0  0  0  0  0  0  0  0  0  0  0  0
    1.7519    3.1411   22.4565 C   0  0  0  0  0  0  0  0  0  0  0  0
    3.0708    2.7967   22.1733 C   0  0  0  0  0  0  0  0  0  0  0  0
    3.3988    2.3033   20.8984 C   0  0  0  0  0  0  0  0  0  0  0  0
    2.4088    2.1418   19.8981 C   0  0  0  0  0  0  0  0  0  0  0  0
    1.0941    2.4851   20.1827 C   0  0  0  0  0  0  0  0  0  0  0  0
   -0.7008    3.3493   21.7613 C   0  0  0  0  0  0  0  0  0  0  0  0
   -1.0491    4.8520   21.6177 C   0  0  0  0  0  0  0  0  0  0  0  0
   -0.5710    5.7084   22.7844 C   0  0  0  0  0  0  0  0  0  0  0  0
   -1.3242    5.9452   23.9384 C   0  0  0  0  0  0  0  0  0  0  0  0
   -0.5715    6.7395   24.7438 N   0  0  0  0  0  0  0  0  0  0  0  0
    0.6522    7.0462   24.1829 C   0  0  0  0  0  0  0  0  0  0  0  0
    0.6979    6.4147   22.9449 C   0  0  0  0  0  0  0  0  0  0  0  0
    1.8999    6.5870   22.1588 C   0  0  0  0  0  0  0  0  0  0  0  0
    2.0182    5.9767   20.9132 O   0  0  0  0  0  0  0  0  0  0  0  0
    2.9297    7.3706   22.6621 N   0  0  0  0  0  0  0  0  0  0  0  0
    2.8448    7.9638   23.8883 C   0  0  0  0  0  0  0  0  0  0  0  0
    1.7444    7.8257   24.6444 N   0  0  0  0  0  0  0  0  0  0  0  0
    3.9658    8.7689   24.3841 N   0  0  0  0  0  0  0  0  0  0  0  0
    4.8318    1.9336   20.6209 C   0  0  0  0  0  0  0  0  0  0  0  0
    5.2095    1.7478   19.4655 O   0  0  0  0  0  0  0  0  0  0  0  0
    5.7409    1.7969   21.7277 N   0  0  0  0  0  0  0  0  0  0  0  0
  1  2  2  0  0  0  0
  1  6  1  0  0  0  0
  1  7  1  0  0  0  0
  2  3  1  0  0  0  0
  3  4  2  0  0  0  0
  4  5  1  0  0  0  0
  4 20  1  0  0  0  0
  5  6  2  0  0  0  0
  7  8  1  0  0  0  0
  8  9  1  0  0  0  0
  9 10  2  0  0  0  0
  9 13  1  0  0  0  0
 10 11  1  0  0  0  0
 11 12  1  0  0  0  0
 12 13  2  0  0  0  0
 12 18  1  0  0  0  0
 13 14  1  0  0  0  0
 14 15  1  0  0  0  0
 14 16  2  0  0  0  0
 16 17  1  0  0  0  0
 17 18  2  0  0  0  0
 17 19  1  0  0  0  0
 20 21  2  0  0  0  0
 20 22  1  0  0  0  0
M  END
>  <CHROM.1>
83.19477315,-165.95220444,-76.94301659,-88.77256461,1.89716829,4.83521506
22.23310220,1.13071670,-0.06305023,-2.60507855

>  <Name>
ligand

>  <RI>
0

>  <Rbt.Current_Directory>
/home/itssahil/PROJECTS/Mol_Feturizer/New_Systems/rnas/4LVY

>  <Rbt.Executable>
rbdock ($Id: //depot/dev/client3/rdock/2013.1/src/exe/rbdock.cxx#4 $)

>  <Rbt.Library>
libRbt.so (2013.1, Build901 2013/11/27)

>  <Rbt.Parameter_File>
/export/apps/rDock/src/rDock_2013.1_src/data/scripts/dock_solv.prm

>  <Rbt.Receptor>
prm/pocket_docking_8.prm

>  <SCORE>
-17.0514

>  <SCORE.INTER>
-16.1519

>  <SCORE.INTER.CONST>
1

>  <SCORE.INTER.POLAR>
0

>  <SCORE.INTER.ROT>
4

>  <SCORE.INTER.SOLV>
7.73301

>  <SCORE.INTER.VDW>
-19.6123

>  <SCORE.INTER.norm>
-0.734179

>  <SCORE.INTRA>
-0.899426

>  <SCORE.INTRA.DIHEDRAL>
1.21482

>  <SCORE.INTRA.DIHEDRAL.0>
6.18831

>  <SCORE.INTRA.POLAR>
0

>  <SCORE.INTRA.POLAR.0>
0

>  <SCORE.INTRA.REPUL>
0

>  <SCORE.INTRA.REPUL.0>
0

>  <SCORE.INTRA.SOLV>
0.482325

>  <SCORE.INTRA.SOLV.lig_0>
-44.3465

>  <SCORE.INTRA.VDW>
-1.748

>  <SCORE.INTRA.VDW.0>
-0.778272

>  <SCORE.INTRA.norm>
-0.040883

>  <SCORE.RESTR>
0

>  <SCORE.RESTR.CAVITY>
0

>  <SCORE.RESTR.norm>
0

>  <SCORE.SYSTEM>
0

>  <SCORE.SYSTEM.CONST>
0

>  <SCORE.SYSTEM.DIHEDRAL>
0

>  <SCORE.SYSTEM.SOLV>
0

>  <SCORE.SYSTEM.norm>
0

>  <SCORE.heavy>
22

>  <SCORE.norm>
-0.775062

>  <RMSD>
4.133

$$$$
ligand
 OpenBabel11021811503D
libRbt.so/2013.1/901 2013/11/27
 22 24  0  0  0  0  0  0  0  0999 V2000
    0.8220    3.0158   21.4622 C   0  0  0  0  0  0  0  0  0  0  0  0
    1.7803    3.2550   22.4697 C   0  0  0  0  0  0  0  0  0  0  0  0
    3.1114    2.9168   22.2414 C   0  0  0  0  0  0  0  0  0  0  0  0
    3.4785    2.3421   21.0121 C   0  0  0  0  0  0  0  0  0  0  0  0
    2.5158    2.0926   20.0032 C   0  0  0  0  0  0  0  0  0  0  0  0
    1.1889    2.4299   20.2331 C   0  0  0  0  0  0  0  0  0  0  0  0
   -0.6581    3.3678   21.7058 C   0  0  0  0  0  0  0  0  0  0  0  0
   -1.0032    4.8722   21.5736 C   0  0  0  0  0  0  0  0  0  0  0  0
   -0.5360    5.7164   22.7536 C   0  0  0  0  0  0  0  0  0  0  0  0
   -1.2960    5.9335   23.9070 C   0  0  0  0  0  0  0  0  0  0  0  0
   -0.5521    6.7219   24.7262 N   0  0  0  0  0  0  0  0  0  0  0  0
    0.6723    7.0436   24.1751 C   0  0  0  0  0  0  0  0  0  0  0  0
    0.7277    6.4285   22.9292 C   0  0  0  0  0  0  0  0  0  0  0  0
    1.9322    6.6186   22.1511 C   0  0  0  0  0  0  0  0  0  0  0  0
    2.0601    6.0253   20.8982 O   0  0  0  0  0  0  0  0  0  0  0  0
    2.9547    7.4020   22.6694 N   0  0  0  0  0  0  0  0  0  0  0  0
    2.8603    7.9787   23.9028 C   0  0  0  0  0  0  0  0  0  0  0  0
    1.7573    7.8239   24.6518 N   0  0  0  0  0  0  0  0  0  0  0  0
    3.9738    8.7843   24.4142 N   0  0  0  0  0  0  0  0  0  0  0  0
    4.9240    1.9812   20.7939 C   0  0  0  0  0  0  0  0  0  0  0  0
    5.4774    2.2613   19.7321 O   0  0  0  0  0  0  0  0  0  0  0  0
    5.6363    1.3013   21.8429 N   0  0  0  0  0  0  0  0  0  0  0  0
  1  2  2  0  0  0  0
  1  6  1  0  0  0  0
  1  7  1  0  0  0  0
  2  3  1  0  0  0  0
  3  4  2  0  0  0  0
  4  5  1  0  0  0  0
  4 20  1  0  0  0  0
  5  6  2  0  0  0  0
  7  8  1  0  0  0  0
  8  9  1  0  0  0  0
  9 10  2  0  0  0  0
  9 13  1  0  0  0  0
 10 11  1  0  0  0  0
 11 12  1  0  0  0  0
 12 13  2  0  0  0  0
 12 18  1  0  0  0  0
 13 14  1  0  0  0  0
 14 15  1  0  0  0  0
 14 16  2  0  0  0  0
 16 17  1  0  0  0  0
 17 18  2  0  0  0  0
 17 19  1  0  0  0  0
 20 21  2  0  0  0  0
 20 22  1  0  0  0  0
M  END
>  <CHROM.1>
77.93665511,-135.29234109,-74.90877919,-88.20716475,1.94455326,4.85805586
22.26807515,1.11103234,-0.04993498,-2.62312324

>  <Name>
ligand

>  <RI>
0

>  <Rbt.Current_Directory>
/home/itssahil/PROJECTS/Mol_Feturizer/New_Systems/rnas/4LVY

>  <Rbt.Executable>
rbdock ($Id: //depot/dev/client3/rdock/2013.1/src/exe/rbdock.cxx#4 $)

>  <Rbt.Library>
libRbt.so (2013.1, Build901 2013/11/27)

>  <Rbt.Parameter_File>
/export/apps/rDock/src/rDock_2013.1_src/data/scripts/dock_solv.prm

>  <Rbt.Receptor>
prm/pocket_docking_5.prm

>  <SCORE>
-16.9927

>  <SCORE.INTER>
-15.7423

>  <SCORE.INTER.CONST>
1

>  <SCORE.INTER.POLAR>
0

>  <SCORE.INTER.ROT>
4

>  <SCORE.INTER.SOLV>
7.14414

>  <SCORE.INTER.VDW>
-19.1429

>  <SCORE.INTER.norm>
-0.715559

>  <SCORE.INTRA>
-1.25043

>  <SCORE.INTRA.DIHEDRAL>
0.963617

>  <SCORE.INTRA.DIHEDRAL.0>
6.18831

>  <SCORE.INTRA.POLAR>
0

>  <SCORE.INTRA.POLAR.0>
0

>  <SCORE.INTRA.REPUL>
0

>  <SCORE.INTRA.REPUL.0>
0

>  <SCORE.INTRA.SOLV>
0.469625

>  <SCORE.INTRA.SOLV.lig_0>
-44.3465

>  <SCORE.INTRA.VDW>
-1.96705

>  <SCORE.INTRA.VDW.0>
-0.778272

>  <SCORE.INTRA.norm>
-0.0568378

>  <SCORE.RESTR>
0

>  <SCORE.RESTR.CAVITY>
0

>  <SCORE.RESTR.norm>
0

>  <SCORE.SYSTEM>
0

>  <SCORE.SYSTEM.CONST>
0

>  <SCORE.SYSTEM.DIHEDRAL>
0

>  <SCORE.SYSTEM.SOLV>
0

>  <SCORE.SYSTEM.norm>
0

>  <SCORE.heavy>
22

>  <SCORE.norm>
-0.772397

>  <RMSD>
4.136

$$$$
ligand
 OpenBabel11021811503D
libRbt.so/2013.1/901 2013/11/27
 22 24  0  0  0  0  0  0  0  0999 V2000
    0.7843    3.0004   21.4298 C   0  0  0  0  0  0  0  0  0  0  0  0
    1.1399    2.5261   20.1494 C   0  0  0  0  0  0  0  0  0  0  0  0
    2.4688    2.2080   19.8829 C   0  0  0  0  0  0  0  0  0  0  0  0
    3.4341    2.3651   20.8927 C   0  0  0  0  0  0  0  0  0  0  0  0
    3.0801    2.8502   22.1758 C   0  0  0  0  0  0  0  0  0  0  0  0
    1.7546    3.1676   22.4394 C   0  0  0  0  0  0  0  0  0  0  0  0
   -0.6789    3.3739   21.7354 C   0  0  0  0  0  0  0  0  0  0  0  0
   -1.0123    4.8804   21.5963 C   0  0  0  0  0  0  0  0  0  0  0  0
   -0.5553    5.7235   22.7811 C   0  0  0  0  0  0  0  0  0  0  0  0
   -1.3196    5.9284   23.9338 C   0  0  0  0  0  0  0  0  0  0  0  0
   -0.5847    6.7199   24.7581 N   0  0  0  0  0  0  0  0  0  0  0  0
    0.6378    7.0551   24.2110 C   0  0  0  0  0  0  0  0  0  0  0  0
    0.7015    6.4462   22.9625 C   0  0  0  0  0  0  0  0  0  0  0  0
    1.9058    6.6508   22.1879 C   0  0  0  0  0  0  0  0  0  0  0  0
    2.0418    6.0643   20.9327 O   0  0  0  0  0  0  0  0  0  0  0  0
    2.9201    7.4411   22.7120 N   0  0  0  0  0  0  0  0  0  0  0  0
    2.8178    8.0114   23.9477 C   0  0  0  0  0  0  0  0  0  0  0  0
    1.7147    7.8431   24.6936 N   0  0  0  0  0  0  0  0  0  0  0  0
    3.9229    8.8247   24.4651 N   0  0  0  0  0  0  0  0  0  0  0  0
    4.8647    2.0186   20.5756 C   0  0  0  0  0  0  0  0  0  0  0  0
    5.4793    2.6531   19.7202 O   0  0  0  0  0  0  0  0  0  0  0  0
    5.4902    0.9338   21.2842 N   0  0  0  0  0  0  0  0  0  0  0  0
  1  2  2  0  0  0  0
  1  6  1  0  0  0  0
  1  7  1  0  0  0  0
  2  3  1  0  0  0  0
  3  4  2  0  0  0  0
  4  5  1  0  0  0  0
  4 20  1  0  0  0  0
  5  6  2  0  0  0  0
  7  8  1  0  0  0  0
  8  9  1  0  0  0  0
  9 10  2  0  0  0  0
  9 13  1  0  0  0  0
 10 11  1  0  0  0  0
 11 12  1  0  0  0  0
 12 13  2  0  0  0  0
 12 18  1  0  0  0  0
 13 14  1  0  0  0  0
 14 15  1  0  0  0  0
 14 16  2  0  0  0  0
 16 17  1  0  0  0  0
 17 18  2  0  0  0  0
 17 19  1  0  0  0  0
 20 21  2  0  0  0  0
 20 22  1  0  0  0  0
M  END
>  <CHROM.1>
-96.44632762,63.63344943,-78.39297073,-87.05304189,1.90756921,4.87791772
22.23324444,1.12521704,-0.08921140,-2.61512115

>  <Name>
ligand

>  <RI>
0

>  <Rbt.Current_Directory>
/home/itssahil/PROJECTS/Mol_Feturizer/New_Systems/rnas/4LVY

>  <Rbt.Executable>
rbdock ($Id: //depot/dev/client3/rdock/2013.1/src/exe/rbdock.cxx#4 $)

>  <Rbt.Library>
libRbt.so (2013.1, Build901 2013/11/27)

>  <Rbt.Parameter_File>
/export/apps/rDock/src/rDock_2013.1_src/data/scripts/dock_solv.prm

>  <Rbt.Receptor>
prm/pocket_docking_6.prm

>  <SCORE>
-16.9673

>  <SCORE.INTER>
-15.8434

>  <SCORE.INTER.CONST>
1

>  <SCORE.INTER.POLAR>
0

>  <SCORE.INTER.ROT>
4

>  <SCORE.INTER.SOLV>
8.14854

>  <SCORE.INTER.VDW>
-19.5451

>  <SCORE.INTER.norm>
-0.720154

>  <SCORE.INTRA>
-1.12389

>  <SCORE.INTRA.DIHEDRAL>
1.24573

>  <SCORE.INTRA.DIHEDRAL.0>
6.18831

>  <SCORE.INTRA.POLAR>
0

>  <SCORE.INTRA.POLAR.0>
0

>  <SCORE.INTRA.REPUL>
0

>  <SCORE.INTRA.REPUL.0>
0

>  <SCORE.INTRA.SOLV>
0.431743

>  <SCORE.INTRA.SOLV.lig_0>
-44.3465

>  <SCORE.INTRA.VDW>
-1.96263

>  <SCORE.INTRA.VDW.0>
-0.778272

>  <SCORE.INTRA.norm>
-0.0510861

>  <SCORE.RESTR>
0

>  <SCORE.RESTR.CAVITY>
0

>  <SCORE.RESTR.norm>
0

>  <SCORE.SYSTEM>
0

>  <SCORE.SYSTEM.CONST>
0

>  <SCORE.SYSTEM.DIHEDRAL>
0

>  <SCORE.SYSTEM.SOLV>
0

>  <SCORE.SYSTEM.norm>
0

>  <SCORE.heavy>
22

>  <SCORE.norm>
-0.77124

>  <RMSD>
4.141

$$$$
ligand
 OpenBabel11021811503D
libRbt.so/2013.1/901 2013/11/27
 22 24  0  0  0  0  0  0  0  0999 V2000
    0.7216    3.0181   21.4964 C   0  0  0  0  0  0  0  0  0  0  0  0
    1.7529    3.2491   22.4311 C   0  0  0  0  0  0  0  0  0  0  0  0
    3.0645    2.9233   22.0965 C   0  0  0  0  0  0  0  0  0  0  0  0
    3.3395    2.3692   20.8341 C   0  0  0  0  0  0  0  0  0  0  0  0
    2.3037    2.1280   19.8983 C   0  0  0  0  0  0  0  0  0  0  0  0
    0.9965    2.4529   20.2341 C   0  0  0  0  0  0  0  0  0  0  0  0
   -0.7375    3.3565   21.8579 C   0  0  0  0  0  0  0  0  0  0  0  0
   -1.1147    4.8530   21.7235 C   0  0  0  0  0  0  0  0  0  0  0  0
   -0.6071    5.7206   22.8695 C   0  0  0  0  0  0  0  0  0  0  0  0
   -1.3368    5.9807   24.0334 C   0  0  0  0  0  0  0  0  0  0  0  0
   -0.5619    6.7783   24.8140 N   0  0  0  0  0  0  0  0  0  0  0  0
    0.6543    7.0650   24.2269 C   0  0  0  0  0  0  0  0  0  0  0  0
    0.6714    6.4162   22.9972 C   0  0  0  0  0  0  0  0  0  0  0  0
    1.8605    6.5657   22.1873 C   0  0  0  0  0  0  0  0  0  0  0  0
    1.9502    5.9372   20.9483 O   0  0  0  0  0  0  0  0  0  0  0  0
    2.9069    7.3457   22.6611 N   0  0  0  0  0  0  0  0  0  0  0  0
    2.8501    7.9565   23.8802 C   0  0  0  0  0  0  0  0  0  0  0  0
    1.7623    7.8398   24.6579 N   0  0  0  0  0  0  0  0  0  0  0  0
    3.9877    8.7570   24.3444 N   0  0  0  0  0  0  0  0  0  0  0  0
    4.7660    2.0214   20.5005 C   0  0  0  0  0  0  0  0  0  0  0  0
    5.2845    1.0139   20.9783 O   0  0  0  0  0  0  0  0  0  0  0  0
    5.5058    2.8892   19.6232 N   0  0  0  0  0  0  0  0  0  0  0  0
  1  2  2  0  0  0  0
  1  6  1  0  0  0  0
  1  7  1  0  0  0  0
  2  3  1  0  0  0  0
  3  4  2  0  0  0  0
  4  5  1  0  0  0  0
  4 20  1  0  0  0  0
  5  6  2  0  0  0  0
  7  8  1  0  0  0  0
  8  9  1  0  0  0  0
  9 10  2  0  0  0  0
  9 13  1  0  0  0  0
 10 11  1  0  0  0  0
 11 12  1  0  0  0  0
 12 13  2  0  0  0  0
 12 18  1  0  0  0  0
 13 14  1  0  0  0  0
 14 15  1  0  0  0  0
 14 16  2  0  0  0  0
 16 17  1  0  0  0  0
 17 18  2  0  0  0  0
 17 19  1  0  0  0  0
 20 21  2  0  0  0  0
 20 22  1  0  0  0  0
M  END
>  <CHROM.1>
80.15203923,76.12036924,-77.15628696,-90.70947429,1.86197845,4.86382956,22.23286156
1.13048549,-0.12113321,-2.61618706

>  <Name>
ligand

>  <RI>
0

>  <Rbt.Current_Directory>
/home/itssahil/PROJECTS/Mol_Feturizer/New_Systems/rnas/4LVY

>  <Rbt.Executable>
rbdock ($Id: //depot/dev/client3/rdock/2013.1/src/exe/rbdock.cxx#4 $)

>  <Rbt.Library>
libRbt.so (2013.1, Build901 2013/11/27)

>  <Rbt.Parameter_File>
/export/apps/rDock/src/rDock_2013.1_src/data/scripts/dock_solv.prm

>  <Rbt.Receptor>
prm/pocket_docking_6.prm

>  <SCORE>
-17.2688

>  <SCORE.INTER>
-16.0667

>  <SCORE.INTER.CONST>
1

>  <SCORE.INTER.POLAR>
0

>  <SCORE.INTER.ROT>
4

>  <SCORE.INTER.SOLV>
7.24327

>  <SCORE.INTER.VDW>
-19.3922

>  <SCORE.INTER.norm>
-0.730305

>  <SCORE.INTRA>
-1.2021

>  <SCORE.INTRA.DIHEDRAL>
1.238

>  <SCORE.INTRA.DIHEDRAL.0>
6.18831

>  <SCORE.INTRA.POLAR>
0

>  <SCORE.INTRA.POLAR.0>
0

>  <SCORE.INTRA.REPUL>
0

>  <SCORE.INTRA.REPUL.0>
0

>  <SCORE.INTRA.SOLV>
0.550152

>  <SCORE.INTRA.SOLV.lig_0>
-44.3465

>  <SCORE.INTRA.VDW>
-2.09618

>  <SCORE.INTRA.VDW.0>
-0.778272

>  <SCORE.INTRA.norm>
-0.054641

>  <SCORE.RESTR>
0

>  <SCORE.RESTR.CAVITY>
0

>  <SCORE.RESTR.norm>
0

>  <SCORE.SYSTEM>
0

>  <SCORE.SYSTEM.CONST>
0

>  <SCORE.SYSTEM.DIHEDRAL>
0

>  <SCORE.SYSTEM.SOLV>
0

>  <SCORE.SYSTEM.norm>
0

>  <SCORE.heavy>
22

>  <SCORE.norm>
-0.784946

>  <RMSD>
4.148

$$$$
ligand
 OpenBabel11021811503D
libRbt.so/2013.1/901 2013/11/27
 22 24  0  0  0  0  0  0  0  0999 V2000
    0.7235    3.0589   20.6595 C   0  0  0  0  0  0  0  0  0  0  0  0
    0.8763    3.7537   19.4411 C   0  0  0  0  0  0  0  0  0  0  0  0
    2.0333    3.5687   18.6890 C   0  0  0  0  0  0  0  0  0  0  0  0
    3.0299    2.6941   19.1560 C   0  0  0  0  0  0  0  0  0  0  0  0
    2.8820    2.0032   20.3838 C   0  0  0  0  0  0  0  0  0  0  0  0
    1.7280    2.1895   21.1326 C   0  0  0  0  0  0  0  0  0  0  0  0
   -0.5428    3.2662   21.5125 C   0  0  0  0  0  0  0  0  0  0  0  0
   -1.0847    4.7172   21.5372 C   0  0  0  0  0  0  0  0  0  0  0  0
   -0.5901    5.5385   22.7223 C   0  0  0  0  0  0  0  0  0  0  0  0
   -1.2629    5.6278   23.9447 C   0  0  0  0  0  0  0  0  0  0  0  0
   -0.5202    6.4365   24.7448 N   0  0  0  0  0  0  0  0  0  0  0  0
    0.6202    6.8938   24.1151 C   0  0  0  0  0  0  0  0  0  0  0  0
    0.6193    6.3505   22.8351 C   0  0  0  0  0  0  0  0  0  0  0  0
    1.7315    6.6867   21.9734 C   0  0  0  0  0  0  0  0  0  0  0  0
    1.8001    6.1718   20.6818 O   0  0  0  0  0  0  0  0  0  0  0  0
    2.7251    7.5307   22.4512 N   0  0  0  0  0  0  0  0  0  0  0  0
    2.6895    8.0330   23.7197 C   0  0  0  0  0  0  0  0  0  0  0  0
    1.6726    7.7424   24.5462 N   0  0  0  0  0  0  0  0  0  0  0  0
    3.7711    8.9075   24.1844 N   0  0  0  0  0  0  0  0  0  0  0  0
    4.2732    2.5169   18.3253 C   0  0  0  0  0  0  0  0  0  0  0  0
    5.2903    2.0431   18.8284 O   0  0  0  0  0  0  0  0  0  0  0  0
    4.2483    2.9166   16.9434 N   0  0  0  0  0  0  0  0  0  0  0  0
  1  2  2  0  0  0  0
  1  6  1  0  0  0  0
  1  7  1  0  0  0  0
  2  3  1  0  0  0  0
  3  4  2  0  0  0  0
  4  5  1  0  0  0  0
  4 20  1  0  0  0  0
  5  6  2  0  0  0  0
  7  8  1  0  0  0  0
  8  9  1  0  0  0  0
  9 10  2  0  0  0  0
  9 13  1  0  0  0  0
 10 11  1  0  0  0  0
 11 12  1  0  0  0  0
 12 13  2  0  0  0  0
 12 18  1  0  0  0  0
 13 14  1  0  0  0  0
 14 15  1  0  0  0  0
 14 16  2  0  0  0  0
 16 17  1  0  0  0  0
 17 18  2  0  0  0  0
 17 19  1  0  0  0  0
 20 21  2  0  0  0  0
 20 22  1  0  0  0  0
M  END
>  <CHROM.1>
-37.66054880,161.93401768,-94.54655536,-91.27669437,1.71090257,4.96364966
21.46932136,1.20713992,-0.37004352,-2.44172134

>  <Name>
ligand

>  <RI>
0

>  <Rbt.Current_Directory>
/home/itssahil/PROJECTS/Mol_Feturizer/New_Systems/rnas/4LVY

>  <Rbt.Executable>
rbdock ($Id: //depot/dev/client3/rdock/2013.1/src/exe/rbdock.cxx#4 $)

>  <Rbt.Library>
libRbt.so (2013.1, Build901 2013/11/27)

>  <Rbt.Parameter_File>
/export/apps/rDock/src/rDock_2013.1_src/data/scripts/dock_solv.prm

>  <Rbt.Receptor>
prm/pocket_docking_5.prm

>  <SCORE>
-16.9222

>  <SCORE.INTER>
-18.2622

>  <SCORE.INTER.CONST>
1

>  <SCORE.INTER.POLAR>
0

>  <SCORE.INTER.ROT>
4

>  <SCORE.INTER.SOLV>
11.2459

>  <SCORE.INTER.VDW>
-22.1901

>  <SCORE.INTER.norm>
-0.830099

>  <SCORE.INTRA>
1.34

>  <SCORE.INTRA.DIHEDRAL>
3.82693

>  <SCORE.INTRA.DIHEDRAL.0>
6.18831

>  <SCORE.INTRA.POLAR>
0

>  <SCORE.INTRA.POLAR.0>
0

>  <SCORE.INTRA.REPUL>
0

>  <SCORE.INTRA.REPUL.0>
0

>  <SCORE.INTRA.SOLV>
0.556165

>  <SCORE.INTRA.SOLV.lig_0>
-44.3465

>  <SCORE.INTRA.VDW>
-0.851551

>  <SCORE.INTRA.VDW.0>
-0.778272

>  <SCORE.INTRA.norm>
0.0609089

>  <SCORE.RESTR>
0

>  <SCORE.RESTR.CAVITY>
0

>  <SCORE.RESTR.norm>
0

>  <SCORE.SYSTEM>
0

>  <SCORE.SYSTEM.CONST>
0

>  <SCORE.SYSTEM.DIHEDRAL>
0

>  <SCORE.SYSTEM.SOLV>
0

>  <SCORE.SYSTEM.norm>
0

>  <SCORE.heavy>
22

>  <SCORE.norm>
-0.76919

>  <RMSD>
4.186

$$$$
ligand
 OpenBabel11021811503D
libRbt.so/2013.1/901 2013/11/27
 22 24  0  0  0  0  0  0  0  0999 V2000
    0.7177    2.9882   21.4682 C   0  0  0  0  0  0  0  0  0  0  0  0
    1.0661    2.4631   20.2059 C   0  0  0  0  0  0  0  0  0  0  0  0
    2.3946    2.1404   19.9427 C   0  0  0  0  0  0  0  0  0  0  0  0
    3.3666    2.3435   20.9379 C   0  0  0  0  0  0  0  0  0  0  0  0
    3.0196    2.8795   22.2025 C   0  0  0  0  0  0  0  0  0  0  0  0
    1.6945    3.2014   22.4627 C   0  0  0  0  0  0  0  0  0  0  0  0
   -0.7451    3.3673   21.7693 C   0  0  0  0  0  0  0  0  0  0  0  0
   -1.0745    4.8737   21.6200 C   0  0  0  0  0  0  0  0  0  0  0  0
   -0.5802    5.7294   22.7806 C   0  0  0  0  0  0  0  0  0  0  0  0
   -1.3281    5.9878   23.9333 C   0  0  0  0  0  0  0  0  0  0  0  0
   -0.5606    6.7738   24.7328 N   0  0  0  0  0  0  0  0  0  0  0  0
    0.6682    7.0543   24.1691 C   0  0  0  0  0  0  0  0  0  0  0  0
    0.7015    6.4135   22.9354 C   0  0  0  0  0  0  0  0  0  0  0  0
    1.9059    6.5585   22.1476 C   0  0  0  0  0  0  0  0  0  0  0  0
    2.0123    5.9375   20.9061 O   0  0  0  0  0  0  0  0  0  0  0  0
    2.9502    7.3266   22.6449 N   0  0  0  0  0  0  0  0  0  0  0  0
    2.8769    7.9298   23.8670 C   0  0  0  0  0  0  0  0  0  0  0  0
    1.7746    7.8169   24.6246 N   0  0  0  0  0  0  0  0  0  0  0  0
    4.0127    8.7177   24.3566 N   0  0  0  0  0  0  0  0  0  0  0  0
    4.7965    1.9908   20.6245 C   0  0  0  0  0  0  0  0  0  0  0  0
    5.4293    2.6495   19.8014 O   0  0  0  0  0  0  0  0  0  0  0  0
    5.3996    0.8717   21.2982 N   0  0  0  0  0  0  0  0  0  0  0  0
  1  2  2  0  0  0  0
  1  6  1  0  0  0  0
  1  7  1  0  0  0  0
  2  3  1  0  0  0  0
  3  4  2  0  0  0  0
  4  5  1  0  0  0  0
  4 20  1  0  0  0  0
  5  6  2  0  0  0  0
  7  8  1  0  0  0  0
  8  9  1  0  0  0  0
  9 10  2  0  0  0  0
  9 13  1  0  0  0  0
 10 11  1  0  0  0  0
 11 12  1  0  0  0  0
 12 13  2  0  0  0  0
 12 18  1  0  0  0  0
 13 14  1  0  0  0  0
 14 15  1  0  0  0  0
 14 16  2  0  0  0  0
 16 17  1  0  0  0  0
 17 18  2  0  0  0  0
 17 19  1  0  0  0  0
 20 21  2  0  0  0  0
 20 22  1  0  0  0  0
M  END
>  <CHROM.1>
-98.55376158,68.43601411,-76.65454585,-89.16345207,1.88497323,4.84606895
22.23112168,1.12690667,-0.08491237,-2.62412136

>  <Name>
ligand

>  <RI>
0

>  <Rbt.Current_Directory>
/home/itssahil/PROJECTS/Mol_Feturizer/New_Systems/rnas/4LVY

>  <Rbt.Executable>
rbdock ($Id: //depot/dev/client3/rdock/2013.1/src/exe/rbdock.cxx#4 $)

>  <Rbt.Library>
libRbt.so (2013.1, Build901 2013/11/27)

>  <Rbt.Parameter_File>
/export/apps/rDock/src/rDock_2013.1_src/data/scripts/dock_solv.prm

>  <Rbt.Receptor>
prm/pocket_docking_6.prm

>  <SCORE>
-16.9557

>  <SCORE.INTER>
-15.641

>  <SCORE.INTER.CONST>
1

>  <SCORE.INTER.POLAR>
0

>  <SCORE.INTER.ROT>
4

>  <SCORE.INTER.SOLV>
7.55518

>  <SCORE.INTER.VDW>
-19.2124

>  <SCORE.INTER.norm>
-0.710956

>  <SCORE.INTRA>
-1.31468

>  <SCORE.INTRA.DIHEDRAL>
1.03438

>  <SCORE.INTRA.DIHEDRAL.0>
6.18831

>  <SCORE.INTRA.POLAR>
0

>  <SCORE.INTRA.POLAR.0>
0

>  <SCORE.INTRA.REPUL>
0

>  <SCORE.INTRA.REPUL.0>
0

>  <SCORE.INTRA.SOLV>
0.514089

>  <SCORE.INTRA.SOLV.lig_0>
-44.3465

>  <SCORE.INTRA.VDW>
-2.08891

>  <SCORE.INTRA.VDW.0>
-0.778272

>  <SCORE.INTRA.norm>
-0.0597581

>  <SCORE.RESTR>
0

>  <SCORE.RESTR.CAVITY>
0

>  <SCORE.RESTR.norm>
0

>  <SCORE.SYSTEM>
0

>  <SCORE.SYSTEM.CONST>
0

>  <SCORE.SYSTEM.DIHEDRAL>
0

>  <SCORE.SYSTEM.SOLV>
0

>  <SCORE.SYSTEM.norm>
0

>  <SCORE.heavy>
22

>  <SCORE.norm>
-0.770714

>  <RMSD>
4.187

$$$$
ligand
 OpenBabel11021811503D
libRbt.so/2013.1/901 2013/11/27
 22 24  0  0  0  0  0  0  0  0999 V2000
    0.6272    3.5815   20.6815 C   0  0  0  0  0  0  0  0  0  0  0  0
    1.5332    4.5548   20.2095 C   0  0  0  0  0  0  0  0  0  0  0  0
    2.8054    4.1636   19.8010 C   0  0  0  0  0  0  0  0  0  0  0  0
    3.1665    2.8065   19.8661 C   0  0  0  0  0  0  0  0  0  0  0  0
    2.2611    1.8296   20.3486 C   0  0  0  0  0  0  0  0  0  0  0  0
    0.9933    2.2217   20.7562 C   0  0  0  0  0  0  0  0  0  0  0  0
   -0.7782    4.0004   21.1542 C   0  0  0  0  0  0  0  0  0  0  0  0
   -0.9769    4.0064   22.6906 C   0  0  0  0  0  0  0  0  0  0  0  0
   -0.2650    5.1535   23.3983 C   0  0  0  0  0  0  0  0  0  0  0  0
   -0.8907    6.3453   23.7763 C   0  0  0  0  0  0  0  0  0  0  0  0
    0.0548    7.1125   24.3793 N   0  0  0  0  0  0  0  0  0  0  0  0
    1.2862    6.4896   24.4232 C   0  0  0  0  0  0  0  0  0  0  0  0
    1.1318    5.2480   23.8165 C   0  0  0  0  0  0  0  0  0  0  0  0
    2.2998    4.3977   23.7442 C   0  0  0  0  0  0  0  0  0  0  0  0
    2.2164    3.1379   23.1579 O   0  0  0  0  0  0  0  0  0  0  0  0
    3.5028    4.8567   24.2640 N   0  0  0  0  0  0  0  0  0  0  0  0
    3.6051    6.0801   24.8602 C   0  0  0  0  0  0  0  0  0  0  0  0
    2.5421    6.8953   24.9444 N   0  0  0  0  0  0  0  0  0  0  0  0
    4.8938    6.5142   25.4092 N   0  0  0  0  0  0  0  0  0  0  0  0
    4.5504    2.4120   19.4229 C   0  0  0  0  0  0  0  0  0  0  0  0
    5.1535    1.5132   20.0064 O   0  0  0  0  0  0  0  0  0  0  0  0
    5.1500    3.1078   18.3155 N   0  0  0  0  0  0  0  0  0  0  0  0
  1  2  2  0  0  0  0
  1  6  1  0  0  0  0
  1  7  1  0  0  0  0
  2  3  1  0  0  0  0
  3  4  2  0  0  0  0
  4  5  1  0  0  0  0
  4 20  1  0  0  0  0
  5  6  2  0  0  0  0
  7  8  1  0  0  0  0
  8  9  1  0  0  0  0
  9 10  2  0  0  0  0
  9 13  1  0  0  0  0
 10 11  1  0  0  0  0
 11 12  1  0  0  0  0
 12 13  2  0  0  0  0
 12 18  1  0  0  0  0
 13 14  1  0  0  0  0
 14 15  1  0  0  0  0
 14 16  2  0  0  0  0
 16 17  1  0  0  0  0
 17 18  2  0  0  0  0
 17 19  1  0  0  0  0
 20 21  2  0  0  0  0
 20 22  1  0  0  0  0
M  END
>  <CHROM.1>
-104.75761977,143.90907838,72.49895740,97.84743248,2.08546174,4.36623561
22.26593548,1.20061446,0.05810819,-2.19766706

>  <Name>
ligand

>  <RI>
0

>  <Rbt.Current_Directory>
/home/itssahil/PROJECTS/Mol_Feturizer/New_Systems/rnas/4LVY

>  <Rbt.Executable>
rbdock ($Id: //depot/dev/client3/rdock/2013.1/src/exe/rbdock.cxx#4 $)

>  <Rbt.Library>
libRbt.so (2013.1, Build901 2013/11/27)

>  <Rbt.Parameter_File>
/export/apps/rDock/src/rDock_2013.1_src/data/scripts/dock_solv.prm

>  <Rbt.Receptor>
prm/pocket_docking_5.prm

>  <SCORE>
-17.1086

>  <SCORE.INTER>
-15.858

>  <SCORE.INTER.CONST>
1

>  <SCORE.INTER.POLAR>
0

>  <SCORE.INTER.ROT>
4

>  <SCORE.INTER.SOLV>
7.19924

>  <SCORE.INTER.VDW>
-19.2384

>  <SCORE.INTER.norm>
-0.720817

>  <SCORE.INTRA>
-1.25064

>  <SCORE.INTRA.DIHEDRAL>
0.60031

>  <SCORE.INTRA.DIHEDRAL.0>
6.18831

>  <SCORE.INTRA.POLAR>
0

>  <SCORE.INTRA.POLAR.0>
0

>  <SCORE.INTRA.REPUL>
0

>  <SCORE.INTRA.REPUL.0>
0

>  <SCORE.INTRA.SOLV>
0.86998

>  <SCORE.INTRA.SOLV.lig_0>
-44.3465

>  <SCORE.INTRA.VDW>
-1.98578

>  <SCORE.INTRA.VDW.0>
-0.778272

>  <SCORE.INTRA.norm>
-0.0568472

>  <SCORE.RESTR>
0

>  <SCORE.RESTR.CAVITY>
0

>  <SCORE.RESTR.norm>
0

>  <SCORE.SYSTEM>
0

>  <SCORE.SYSTEM.CONST>
0

>  <SCORE.SYSTEM.DIHEDRAL>
0

>  <SCORE.SYSTEM.SOLV>
0

>  <SCORE.SYSTEM.norm>
0

>  <SCORE.heavy>
22

>  <SCORE.norm>
-0.777664

>  <RMSD>
4.192

$$$$
ligand
 OpenBabel11021811503D
libRbt.so/2013.1/901 2013/11/27
 22 24  0  0  0  0  0  0  0  0999 V2000
    2.3375    2.6165   19.9133 C   0  0  0  0  0  0  0  0  0  0  0  0
    1.4157    3.4628   19.2615 C   0  0  0  0  0  0  0  0  0  0  0  0
    1.6968    3.9192   17.9765 C   0  0  0  0  0  0  0  0  0  0  0  0
    2.8939    3.5304   17.3504 C   0  0  0  0  0  0  0  0  0  0  0  0
    3.8247    2.6885   18.0073 C   0  0  0  0  0  0  0  0  0  0  0  0
    3.5429    2.2350   19.2888 C   0  0  0  0  0  0  0  0  0  0  0  0
    2.0497    2.1172   21.3423 C   0  0  0  0  0  0  0  0  0  0  0  0
    1.8141    3.2334   22.3903 C   0  0  0  0  0  0  0  0  0  0  0  0
    0.5673    4.0701   22.1280 C   0  0  0  0  0  0  0  0  0  0  0  0
   -0.7149    3.7159   22.5587 C   0  0  0  0  0  0  0  0  0  0  0  0
   -1.5551    4.7007   22.1462 N   0  0  0  0  0  0  0  0  0  0  0  0
   -0.8951    5.6995   21.4585 C   0  0  0  0  0  0  0  0  0  0  0  0
    0.4490    5.3448   21.4237 C   0  0  0  0  0  0  0  0  0  0  0  0
    1.3544    6.2500   20.7506 C   0  0  0  0  0  0  0  0  0  0  0  0
    2.7150    5.9626   20.6845 O   0  0  0  0  0  0  0  0  0  0  0  0
    0.8474    7.4051   20.1702 N   0  0  0  0  0  0  0  0  0  0  0  0
   -0.4793    7.7178   20.2378 C   0  0  0  0  0  0  0  0  0  0  0  0
   -1.3479    6.9008   20.8540 N   0  0  0  0  0  0  0  0  0  0  0  0
   -0.9648    8.9577   19.6234 N   0  0  0  0  0  0  0  0  0  0  0  0
    3.1751    4.0430   15.9628 C   0  0  0  0  0  0  0  0  0  0  0  0
    3.1221    3.2802   14.9997 O   0  0  0  0  0  0  0  0  0  0  0  0
    3.5109    5.4312   15.7897 N   0  0  0  0  0  0  0  0  0  0  0  0
  1  2  2  0  0  0  0
  1  6  1  0  0  0  0
  1  7  1  0  0  0  0
  2  3  1  0  0  0  0
  3  4  2  0  0  0  0
  4  5  1  0  0  0  0
  4 20  1  0  0  0  0
  5  6  2  0  0  0  0
  7  8  1  0  0  0  0
  8  9  1  0  0  0  0
  9 10  2  0  0  0  0
  9 13  1  0  0  0  0
 10 11  1  0  0  0  0
 11 12  1  0  0  0  0
 12 13  2  0  0  0  0
 12 18  1  0  0  0  0
 13 14  1  0  0  0  0
 14 15  1  0  0  0  0
 14 16  2  0  0  0  0
 16 17  1  0  0  0  0
 17 18  2  0  0  0  0
 17 19  1  0  0  0  0
 20 21  2  0  0  0  0
 20 22  1  0  0  0  0
M  END
>  <CHROM.1>
-56.71973211,-108.77306603,64.64559200,85.48077261,1.34398058,4.73336122
19.71783853,-0.24293949,-0.93331530,2.32653756

>  <Name>
ligand

>  <RI>
0

>  <Rbt.Current_Directory>
/home/itssahil/PROJECTS/Mol_Feturizer/New_Systems/rnas/4LVY

>  <Rbt.Executable>
rbdock ($Id: //depot/dev/client3/rdock/2013.1/src/exe/rbdock.cxx#4 $)

>  <Rbt.Library>
libRbt.so (2013.1, Build901 2013/11/27)

>  <Rbt.Parameter_File>
/export/apps/rDock/src/rDock_2013.1_src/data/scripts/dock_solv.prm

>  <Rbt.Receptor>
prm/pocket_docking_7.prm

>  <SCORE>
-13.6156

>  <SCORE.INTER>
-12.0246

>  <SCORE.INTER.CONST>
1

>  <SCORE.INTER.POLAR>
0

>  <SCORE.INTER.ROT>
4

>  <SCORE.INTER.SOLV>
13.079

>  <SCORE.INTER.VDW>
-18.6427

>  <SCORE.INTER.norm>
-0.546571

>  <SCORE.INTRA>
-1.59103

>  <SCORE.INTRA.DIHEDRAL>
0.13333

>  <SCORE.INTRA.DIHEDRAL.0>
6.18831

>  <SCORE.INTRA.POLAR>
0

>  <SCORE.INTRA.POLAR.0>
0

>  <SCORE.INTRA.REPUL>
0

>  <SCORE.INTRA.REPUL.0>
0

>  <SCORE.INTRA.SOLV>
0.404602

>  <SCORE.INTRA.SOLV.lig_0>
-44.3465

>  <SCORE.INTRA.VDW>
-1.85999

>  <SCORE.INTRA.VDW.0>
-0.778272

>  <SCORE.INTRA.norm>
-0.0723193

>  <SCORE.RESTR>
0

>  <SCORE.RESTR.CAVITY>
0

>  <SCORE.RESTR.norm>
0

>  <SCORE.SYSTEM>
0

>  <SCORE.SYSTEM.CONST>
0

>  <SCORE.SYSTEM.DIHEDRAL>
0

>  <SCORE.SYSTEM.SOLV>
0

>  <SCORE.SYSTEM.norm>
0

>  <SCORE.heavy>
22

>  <SCORE.norm>
-0.61889

>  <RMSD>
4.283

$$$$
ligand
 OpenBabel11021811503D
libRbt.so/2013.1/901 2013/11/27
 22 24  0  0  0  0  0  0  0  0999 V2000
    0.6312    3.2215   21.2613 C   0  0  0  0  0  0  0  0  0  0  0  0
    1.4475    3.3469   22.4052 C   0  0  0  0  0  0  0  0  0  0  0  0
    2.7254    2.7944   22.3972 C   0  0  0  0  0  0  0  0  0  0  0  0
    3.1809    2.1203   21.2508 C   0  0  0  0  0  0  0  0  0  0  0  0
    2.3588    1.9854   20.1050 C   0  0  0  0  0  0  0  0  0  0  0  0
    1.0847    2.5364   20.1151 C   0  0  0  0  0  0  0  0  0  0  0  0
   -0.7921    3.8117   21.2603 C   0  0  0  0  0  0  0  0  0  0  0  0
   -0.8586    5.3592   21.2866 C   0  0  0  0  0  0  0  0  0  0  0  0
   -0.3615    5.9743   22.5897 C   0  0  0  0  0  0  0  0  0  0  0  0
   -1.0164    5.8361   23.8173 C   0  0  0  0  0  0  0  0  0  0  0  0
   -0.2772    6.5109   24.7361 N   0  0  0  0  0  0  0  0  0  0  0  0
    0.8437    7.0953   24.1810 C   0  0  0  0  0  0  0  0  0  0  0  0
    0.8332    6.7814   22.8264 C   0  0  0  0  0  0  0  0  0  0  0  0
    1.9246    7.2861   22.0224 C   0  0  0  0  0  0  0  0  0  0  0  0
    1.9828    7.0037   20.6604 O   0  0  0  0  0  0  0  0  0  0  0  0
    2.9088    8.0568   22.6267 N   0  0  0  0  0  0  0  0  0  0  0  0
    2.8834    8.3316   23.9633 C   0  0  0  0  0  0  0  0  0  0  0  0
    1.8858    7.8800   24.7395 N   0  0  0  0  0  0  0  0  0  0  0  0
    3.9547    9.1366   24.5590 N   0  0  0  0  0  0  0  0  0  0  0  0
    4.5650    1.5278   21.2714 C   0  0  0  0  0  0  0  0  0  0  0  0
    4.7590    0.4287   21.7875 O   0  0  0  0  0  0  0  0  0  0  0  0
    5.6480    2.2717   20.6852 N   0  0  0  0  0  0  0  0  0  0  0  0
  1  2  2  0  0  0  0
  1  6  1  0  0  0  0
  1  7  1  0  0  0  0
  2  3  1  0  0  0  0
  3  4  2  0  0  0  0
  4  5  1  0  0  0  0
  4 20  1  0  0  0  0
  5  6  2  0  0  0  0
  7  8  1  0  0  0  0
  8  9  1  0  0  0  0
  9 10  2  0  0  0  0
  9 13  1  0  0  0  0
 10 11  1  0  0  0  0
 11 12  1  0  0  0  0
 12 13  2  0  0  0  0
 12 18  1  0  0  0  0
 13 14  1  0  0  0  0
 14 15  1  0  0  0  0
 14 16  2  0  0  0  0
 16 17  1  0  0  0  0
 17 18  2  0  0  0  0
 17 19  1  0  0  0  0
 20 21  2  0  0  0  0
 20 22  1  0  0  0  0
M  END
>  <CHROM.1>
68.36958496,82.33460956,-67.48511809,-67.63373005,1.87236692,4.99062148,22.29411410
1.26624859,0.06818473,-2.70303028

>  <Name>
ligand

>  <RI>
0

>  <Rbt.Current_Directory>
/home/itssahil/PROJECTS/Mol_Feturizer/New_Systems/rnas/4LVY

>  <Rbt.Executable>
rbdock ($Id: //depot/dev/client3/rdock/2013.1/src/exe/rbdock.cxx#4 $)

>  <Rbt.Library>
libRbt.so (2013.1, Build901 2013/11/27)

>  <Rbt.Parameter_File>
/export/apps/rDock/src/rDock_2013.1_src/data/scripts/dock_solv.prm

>  <Rbt.Receptor>
prm/pocket_docking_6.prm

>  <SCORE>
-17.2177

>  <SCORE.INTER>
-16.0074

>  <SCORE.INTER.CONST>
1

>  <SCORE.INTER.POLAR>
0

>  <SCORE.INTER.ROT>
4

>  <SCORE.INTER.SOLV>
9.80613

>  <SCORE.INTER.VDW>
-20.207

>  <SCORE.INTER.norm>
-0.72761

>  <SCORE.INTRA>
-1.21027

>  <SCORE.INTRA.DIHEDRAL>
0.301137

>  <SCORE.INTRA.DIHEDRAL.0>
6.18831

>  <SCORE.INTRA.POLAR>
0

>  <SCORE.INTRA.POLAR.0>
0

>  <SCORE.INTRA.REPUL>
0

>  <SCORE.INTRA.REPUL.0>
0

>  <SCORE.INTRA.SOLV>
0.0638936

>  <SCORE.INTRA.SOLV.lig_0>
-44.3465

>  <SCORE.INTRA.VDW>
-1.39278

>  <SCORE.INTRA.VDW.0>
-0.778272

>  <SCORE.INTRA.norm>
-0.0550122

>  <SCORE.RESTR>
0

>  <SCORE.RESTR.CAVITY>
0

>  <SCORE.RESTR.norm>
0

>  <SCORE.SYSTEM>
0

>  <SCORE.SYSTEM.CONST>
0

>  <SCORE.SYSTEM.DIHEDRAL>
0

>  <SCORE.SYSTEM.SOLV>
0

>  <SCORE.SYSTEM.norm>
0

>  <SCORE.heavy>
22

>  <SCORE.norm>
-0.782622

>  <RMSD>
4.301

$$$$
ligand
 OpenBabel11021811503D
libRbt.so/2013.1/901 2013/11/27
 22 24  0  0  0  0  0  0  0  0999 V2000
    0.6046    3.2376   21.3215 C   0  0  0  0  0  0  0  0  0  0  0  0
    1.4599    3.3828   22.4342 C   0  0  0  0  0  0  0  0  0  0  0  0
    2.7432    2.8452   22.3849 C   0  0  0  0  0  0  0  0  0  0  0  0
    3.1653    2.1662   21.2285 C   0  0  0  0  0  0  0  0  0  0  0  0
    2.3043    2.0116   20.1142 C   0  0  0  0  0  0  0  0  0  0  0  0
    1.0248    2.5477   20.1656 C   0  0  0  0  0  0  0  0  0  0  0  0
   -0.8247    3.8112   21.3669 C   0  0  0  0  0  0  0  0  0  0  0  0
   -0.9108    5.3574   21.3264 C   0  0  0  0  0  0  0  0  0  0  0  0
   -0.4272    6.0341   22.6038 C   0  0  0  0  0  0  0  0  0  0  0  0
   -1.1385    6.0274   23.8075 C   0  0  0  0  0  0  0  0  0  0  0  0
   -0.3941    6.7203   24.7086 N   0  0  0  0  0  0  0  0  0  0  0  0
    0.7841    7.1913   24.1643 C   0  0  0  0  0  0  0  0  0  0  0  0
    0.8074    6.7801   22.8362 C   0  0  0  0  0  0  0  0  0  0  0  0
    1.9608    7.1553   22.0481 C   0  0  0  0  0  0  0  0  0  0  0  0
    2.0550    6.7707   20.7135 O   0  0  0  0  0  0  0  0  0  0  0  0
    2.9684    7.9053   22.6400 N   0  0  0  0  0  0  0  0  0  0  0  0
    2.9075    8.2784   23.9513 C   0  0  0  0  0  0  0  0  0  0  0  0
    1.8521    7.9481   24.7121 N   0  0  0  0  0  0  0  0  0  0  0  0
    4.0045    9.0564   24.5361 N   0  0  0  0  0  0  0  0  0  0  0  0
    4.5562    1.5901   21.2042 C   0  0  0  0  0  0  0  0  0  0  0  0
    4.8005    0.5400   21.7954 O   0  0  0  0  0  0  0  0  0  0  0  0
    5.5865    2.2922   20.4861 N   0  0  0  0  0  0  0  0  0  0  0  0
  1  2  2  0  0  0  0
  1  6  1  0  0  0  0
  1  7  1  0  0  0  0
  2  3  1  0  0  0  0
  3  4  2  0  0  0  0
  4  5  1  0  0  0  0
  4 20  1  0  0  0  0
  5  6  2  0  0  0  0
  7  8  1  0  0  0  0
  8  9  1  0  0  0  0
  9 10  2  0  0  0  0
  9 13  1  0  0  0  0
 10 11  1  0  0  0  0
 11 12  1  0  0  0  0
 12 13  2  0  0  0  0
 12 18  1  0  0  0  0
 13 14  1  0  0  0  0
 14 15  1  0  0  0  0
 14 16  2  0  0  0  0
 16 17  1  0  0  0  0
 17 18  2  0  0  0  0
 17 19  1  0  0  0  0
 20 21  2  0  0  0  0
 20 22  1  0  0  0  0
M  END
>  <CHROM.1>
70.65532572,77.68101508,-70.64794989,-72.82991203,1.85493922,5.00416529,22.29424298
1.24517461,0.04858578,-2.69125915

>  <Name>
ligand

>  <RI>
0

>  <Rbt.Current_Directory>
/home/itssahil/PROJECTS/Mol_Feturizer/New_Systems/rnas/4LVY

>  <Rbt.Executable>
rbdock ($Id: //depot/dev/client3/rdock/2013.1/src/exe/rbdock.cxx#4 $)

>  <Rbt.Library>
libRbt.so (2013.1, Build901 2013/11/27)

>  <Rbt.Parameter_File>
/export/apps/rDock/src/rDock_2013.1_src/data/scripts/dock_solv.prm

>  <Rbt.Receptor>
prm/pocket_docking_8.prm

>  <SCORE>
-17.249

>  <SCORE.INTER>
-16.0314

>  <SCORE.INTER.CONST>
1

>  <SCORE.INTER.POLAR>
0

>  <SCORE.INTER.ROT>
4

>  <SCORE.INTER.SOLV>
9.30948

>  <SCORE.INTER.VDW>
-20.0574

>  <SCORE.INTER.norm>
-0.728698

>  <SCORE.INTRA>
-1.21769

>  <SCORE.INTRA.DIHEDRAL>
0.531501

>  <SCORE.INTRA.DIHEDRAL.0>
6.18831

>  <SCORE.INTRA.POLAR>
0

>  <SCORE.INTRA.POLAR.0>
0

>  <SCORE.INTRA.REPUL>
0

>  <SCORE.INTRA.REPUL.0>
0

>  <SCORE.INTRA.SOLV>
0.105614

>  <SCORE.INTRA.SOLV.lig_0>
-44.3465

>  <SCORE.INTRA.VDW>
-1.53625

>  <SCORE.INTRA.VDW.0>
-0.778272

>  <SCORE.INTRA.norm>
-0.0553496

>  <SCORE.RESTR>
0

>  <SCORE.RESTR.CAVITY>
0

>  <SCORE.RESTR.norm>
0

>  <SCORE.SYSTEM>
0

>  <SCORE.SYSTEM.CONST>
0

>  <SCORE.SYSTEM.DIHEDRAL>
0

>  <SCORE.SYSTEM.SOLV>
0

>  <SCORE.SYSTEM.norm>
0

>  <SCORE.heavy>
22

>  <SCORE.norm>
-0.784048

>  <RMSD>
4.319

$$$$
ligand
 OpenBabel11021811503D
libRbt.so/2013.1/901 2013/11/27
 22 24  0  0  0  0  0  0  0  0999 V2000
    0.3591    3.6589   20.3941 C   0  0  0  0  0  0  0  0  0  0  0  0
    0.9435    4.5372   19.4573 C   0  0  0  0  0  0  0  0  0  0  0  0
    2.1283    4.1716   18.8240 C   0  0  0  0  0  0  0  0  0  0  0  0
    2.7229    2.9348   19.1286 C   0  0  0  0  0  0  0  0  0  0  0  0
    2.1422    2.0561   20.0760 C   0  0  0  0  0  0  0  0  0  0  0  0
    0.9612    2.4227   20.7070 C   0  0  0  0  0  0  0  0  0  0  0  0
   -0.9424    4.0562   21.1169 C   0  0  0  0  0  0  0  0  0  0  0  0
   -0.9082    3.9016   22.6580 C   0  0  0  0  0  0  0  0  0  0  0  0
   -0.5162    5.1766   23.3956 C   0  0  0  0  0  0  0  0  0  0  0  0
   -1.4140    5.9660   24.1206 C   0  0  0  0  0  0  0  0  0  0  0  0
   -0.7013    7.0022   24.6346 N   0  0  0  0  0  0  0  0  0  0  0  0
    0.6338    6.9440   24.2876 C   0  0  0  0  0  0  0  0  0  0  0  0
    0.7980    5.8057   23.5060 C   0  0  0  0  0  0  0  0  0  0  0  0
    2.1307    5.5249   23.0188 C   0  0  0  0  0  0  0  0  0  0  0  0
    2.3700    4.3977   22.2376 O   0  0  0  0  0  0  0  0  0  0  0  0
    3.1641    6.3954   23.3382 N   0  0  0  0  0  0  0  0  0  0  0  0
    2.9580    7.4966   24.1176 C   0  0  0  0  0  0  0  0  0  0  0  0
    1.7345    7.7881   24.5866 N   0  0  0  0  0  0  0  0  0  0  0  0
    4.0847    8.3776   24.4414 N   0  0  0  0  0  0  0  0  0  0  0  0
    4.0067    2.5671   18.4330 C   0  0  0  0  0  0  0  0  0  0  0  0
    4.8724    1.9296   19.0298 O   0  0  0  0  0  0  0  0  0  0  0  0
    4.2003    2.9798   17.0683 N   0  0  0  0  0  0  0  0  0  0  0  0
  1  2  2  0  0  0  0
  1  6  1  0  0  0  0
  1  7  1  0  0  0  0
  2  3  1  0  0  0  0
  3  4  2  0  0  0  0
  4  5  1  0  0  0  0
  4 20  1  0  0  0  0
  5  6  2  0  0  0  0
  7  8  1  0  0  0  0
  8  9  1  0  0  0  0
  9 10  2  0  0  0  0
  9 13  1  0  0  0  0
 10 11  1  0  0  0  0
 11 12  1  0  0  0  0
 12 13  2  0  0  0  0
 12 18  1  0  0  0  0
 13 14  1  0  0  0  0
 14 15  1  0  0  0  0
 14 16  2  0  0  0  0
 16 17  1  0  0  0  0
 17 18  2  0  0  0  0
 17 19  1  0  0  0  0
 20 21  2  0  0  0  0
 20 22  1  0  0  0  0
M  END
>  <CHROM.1>
-129.78077672,144.62705924,93.80653300,106.85668927,1.67418990,4.82296824
21.76116539,1.25334911,-0.24458676,-2.30218568

>  <Name>
ligand

>  <RI>
0

>  <Rbt.Current_Directory>
/home/itssahil/PROJECTS/Mol_Feturizer/New_Systems/rnas/4LVY

>  <Rbt.Executable>
rbdock ($Id: //depot/dev/client3/rdock/2013.1/src/exe/rbdock.cxx#4 $)

>  <Rbt.Library>
libRbt.so (2013.1, Build901 2013/11/27)

>  <Rbt.Parameter_File>
/export/apps/rDock/src/rDock_2013.1_src/data/scripts/dock_solv.prm

>  <Rbt.Receptor>
prm/pocket_docking_5.prm

>  <SCORE>
-17.796

>  <SCORE.INTER>
-18.8745

>  <SCORE.INTER.CONST>
1

>  <SCORE.INTER.POLAR>
0

>  <SCORE.INTER.ROT>
4

>  <SCORE.INTER.SOLV>
8.86175

>  <SCORE.INTER.VDW>
-21.8036

>  <SCORE.INTER.norm>
-0.857932

>  <SCORE.INTRA>
1.07853

>  <SCORE.INTRA.DIHEDRAL>
3.71894

>  <SCORE.INTRA.DIHEDRAL.0>
6.18831

>  <SCORE.INTRA.POLAR>
0

>  <SCORE.INTRA.POLAR.0>
0

>  <SCORE.INTRA.REPUL>
0

>  <SCORE.INTRA.REPUL.0>
0

>  <SCORE.INTRA.SOLV>
0.956765

>  <SCORE.INTRA.SOLV.lig_0>
-44.3465

>  <SCORE.INTRA.VDW>
-1.25933

>  <SCORE.INTRA.VDW.0>
-0.778272

>  <SCORE.INTRA.norm>
0.049024

>  <SCORE.RESTR>
0

>  <SCORE.RESTR.CAVITY>
0

>  <SCORE.RESTR.norm>
0

>  <SCORE.SYSTEM>
0

>  <SCORE.SYSTEM.CONST>
0

>  <SCORE.SYSTEM.DIHEDRAL>
0

>  <SCORE.SYSTEM.SOLV>
0

>  <SCORE.SYSTEM.norm>
0

>  <SCORE.heavy>
22

>  <SCORE.norm>
-0.808908

>  <RMSD>
4.328

$$$$
ligand
 OpenBabel11021811503D
libRbt.so/2013.1/901 2013/11/27
 22 24  0  0  0  0  0  0  0  0999 V2000
    0.6724    3.2152   21.2622 C   0  0  0  0  0  0  0  0  0  0  0  0
    1.4771    3.3291   22.4155 C   0  0  0  0  0  0  0  0  0  0  0  0
    2.7599    2.7880   22.4102 C   0  0  0  0  0  0  0  0  0  0  0  0
    3.2317    2.1368   21.2572 C   0  0  0  0  0  0  0  0  0  0  0  0
    2.4213    2.0133   20.1019 C   0  0  0  0  0  0  0  0  0  0  0  0
    1.1423    2.5529   20.1093 C   0  0  0  0  0  0  0  0  0  0  0  0
   -0.7561    3.7928   21.2578 C   0  0  0  0  0  0  0  0  0  0  0  0
   -0.8362    5.3399   21.2658 C   0  0  0  0  0  0  0  0  0  0  0  0
   -0.3515    5.9742   22.5643 C   0  0  0  0  0  0  0  0  0  0  0  0
   -1.0139    5.8479   23.7891 C   0  0  0  0  0  0  0  0  0  0  0  0
   -0.2848    6.5386   24.7042 N   0  0  0  0  0  0  0  0  0  0  0  0
    0.8366    7.1223   24.1493 C   0  0  0  0  0  0  0  0  0  0  0  0
    0.8371    6.7911   22.7987 C   0  0  0  0  0  0  0  0  0  0  0  0
    1.9311    7.2917   21.9957 C   0  0  0  0  0  0  0  0  0  0  0  0
    2.0002    6.9923   20.6379 O   0  0  0  0  0  0  0  0  0  0  0  0
    2.9068    8.0757   22.5968 N   0  0  0  0  0  0  0  0  0  0  0  0
    2.8708    8.3672   23.9296 C   0  0  0  0  0  0  0  0  0  0  0  0
    1.8704    7.9199   24.7047 N   0  0  0  0  0  0  0  0  0  0  0  0
    3.9334    9.1858   24.5222 N   0  0  0  0  0  0  0  0  0  0  0  0
    4.6208    1.5562   21.2809 C   0  0  0  0  0  0  0  0  0  0  0  0
    5.5146    2.0642   20.6062 O   0  0  0  0  0  0  0  0  0  0  0  0
    4.8766    0.3997   22.0977 N   0  0  0  0  0  0  0  0  0  0  0  0
  1  2  2  0  0  0  0
  1  6  1  0  0  0  0
  1  7  1  0  0  0  0
  2  3  1  0  0  0  0
  3  4  2  0  0  0  0
  4  5  1  0  0  0  0
  4 20  1  0  0  0  0
  5  6  2  0  0  0  0
  7  8  1  0  0  0  0
  8  9  1  0  0  0  0
  9 10  2  0  0  0  0
  9 13  1  0  0  0  0
 10 11  1  0  0  0  0
 11 12  1  0  0  0  0
 12 13  2  0  0  0  0
 12 18  1  0  0  0  0
 13 14  1  0  0  0  0
 14 15  1  0  0  0  0
 14 16  2  0  0  0  0
 16 17  1  0  0  0  0
 17 18  2  0  0  0  0
 17 19  1  0  0  0  0
 20 21  2  0  0  0  0
 20 22  1  0  0  0  0
M  END
>  <CHROM.1>
70.11513769,-110.27627263,-67.93072399,-67.84111308,1.89249242,5.00079762
22.28229090,1.25419255,0.07247700,-2.70790834

>  <Name>
ligand

>  <RI>
0

>  <Rbt.Current_Directory>
/home/itssahil/PROJECTS/Mol_Feturizer/New_Systems/rnas/4LVY

>  <Rbt.Executable>
rbdock ($Id: //depot/dev/client3/rdock/2013.1/src/exe/rbdock.cxx#4 $)

>  <Rbt.Library>
libRbt.so (2013.1, Build901 2013/11/27)

>  <Rbt.Parameter_File>
/export/apps/rDock/src/rDock_2013.1_src/data/scripts/dock_solv.prm

>  <Rbt.Receptor>
prm/pocket_docking_6.prm

>  <SCORE>
-17.0908

>  <SCORE.INTER>
-15.9055

>  <SCORE.INTER.CONST>
1

>  <SCORE.INTER.POLAR>
0

>  <SCORE.INTER.ROT>
4

>  <SCORE.INTER.SOLV>
10.4596

>  <SCORE.INTER.VDW>
-20.3569

>  <SCORE.INTER.norm>
-0.722977

>  <SCORE.INTRA>
-1.18531

>  <SCORE.INTRA.DIHEDRAL>
0.29569

>  <SCORE.INTRA.DIHEDRAL.0>
6.18831

>  <SCORE.INTRA.POLAR>
0

>  <SCORE.INTRA.POLAR.0>
0

>  <SCORE.INTRA.REPUL>
0

>  <SCORE.INTRA.REPUL.0>
0

>  <SCORE.INTRA.SOLV>
0.0684918

>  <SCORE.INTRA.SOLV.lig_0>
-44.3465

>  <SCORE.INTRA.VDW>
-1.3674

>  <SCORE.INTRA.VDW.0>
-0.778272

>  <SCORE.INTRA.norm>
-0.0538777

>  <SCORE.RESTR>
0

>  <SCORE.RESTR.CAVITY>
0

>  <SCORE.RESTR.norm>
0

>  <SCORE.SYSTEM>
0

>  <SCORE.SYSTEM.CONST>
0

>  <SCORE.SYSTEM.DIHEDRAL>
0

>  <SCORE.SYSTEM.SOLV>
0

>  <SCORE.SYSTEM.norm>
0

>  <SCORE.heavy>
22

>  <SCORE.norm>
-0.776854

>  <RMSD>
4.340

$$$$
ligand
 OpenBabel11021811503D
libRbt.so/2013.1/901 2013/11/27
 22 24  0  0  0  0  0  0  0  0999 V2000
    0.6619    3.1919   21.2841 C   0  0  0  0  0  0  0  0  0  0  0  0
    1.4570    3.2921   22.4453 C   0  0  0  0  0  0  0  0  0  0  0  0
    2.7255    2.7186   22.4569 C   0  0  0  0  0  0  0  0  0  0  0  0
    3.1928    2.0487   21.3127 C   0  0  0  0  0  0  0  0  0  0  0  0
    2.3918    1.9391   20.1494 C   0  0  0  0  0  0  0  0  0  0  0  0
    1.1269    2.5110   20.1401 C   0  0  0  0  0  0  0  0  0  0  0  0
   -0.7513    3.8056   21.2611 C   0  0  0  0  0  0  0  0  0  0  0  0
   -0.7925    5.3541   21.2824 C   0  0  0  0  0  0  0  0  0  0  0  0
   -0.3020    5.9645   22.5902 C   0  0  0  0  0  0  0  0  0  0  0  0
   -0.9548    5.8090   23.8169 C   0  0  0  0  0  0  0  0  0  0  0  0
   -0.2231    6.4851   24.7408 N   0  0  0  0  0  0  0  0  0  0  0  0
    0.8908    7.0868   24.1900 C   0  0  0  0  0  0  0  0  0  0  0  0
    0.8834    6.7835   22.8330 C   0  0  0  0  0  0  0  0  0  0  0  0
    1.9685    7.3070   22.0326 C   0  0  0  0  0  0  0  0  0  0  0  0
    2.0295    7.0361   20.6684 O   0  0  0  0  0  0  0  0  0  0  0  0
    2.9440    8.0843   22.6427 N   0  0  0  0  0  0  0  0  0  0  0  0
    2.9160    8.3482   23.9814 C   0  0  0  0  0  0  0  0  0  0  0  0
    1.9239    7.8790   24.7543 N   0  0  0  0  0  0  0  0  0  0  0  0
    3.9781    9.1608   24.5832 N   0  0  0  0  0  0  0  0  0  0  0  0
    4.5663    1.4331   21.3546 C   0  0  0  0  0  0  0  0  0  0  0  0
    5.2569    1.3932   20.3379 O   0  0  0  0  0  0  0  0  0  0  0  0
    5.0471    0.8910   22.5976 N   0  0  0  0  0  0  0  0  0  0  0  0
  1  2  2  0  0  0  0
  1  6  1  0  0  0  0
  1  7  1  0  0  0  0
  2  3  1  0  0  0  0
  3  4  2  0  0  0  0
  4  5  1  0  0  0  0
  4 20  1  0  0  0  0
  5  6  2  0  0  0  0
  7  8  1  0  0  0  0
  8  9  1  0  0  0  0
  9 10  2  0  0  0  0
  9 13  1  0  0  0  0
 10 11  1  0  0  0  0
 11 12  1  0  0  0  0
 12 13  2  0  0  0  0
 12 18  1  0  0  0  0
 13 14  1  0  0  0  0
 14 15  1  0  0  0  0
 14 16  2  0  0  0  0
 16 17  1  0  0  0  0
 17 18  2  0  0  0  0
 17 19  1  0  0  0  0
 20 21  2  0  0  0  0
 20 22  1  0  0  0  0
M  END
>  <CHROM.1>
69.17772439,-146.75995341,-67.39567169,-65.75254232,1.90379183,4.96249861
22.32585428,1.27365336,0.11305076,-2.69927867

>  <Name>
ligand

>  <RI>
0

>  <Rbt.Current_Directory>
/home/itssahil/PROJECTS/Mol_Feturizer/New_Systems/rnas/4LVY

>  <Rbt.Executable>
rbdock ($Id: //depot/dev/client3/rdock/2013.1/src/exe/rbdock.cxx#4 $)

>  <Rbt.Library>
libRbt.so (2013.1, Build901 2013/11/27)

>  <Rbt.Parameter_File>
/export/apps/rDock/src/rDock_2013.1_src/data/scripts/dock_solv.prm

>  <Rbt.Receptor>
prm/pocket_docking_6.prm

>  <SCORE>
-16.9528

>  <SCORE.INTER>
-15.9628

>  <SCORE.INTER.CONST>
1

>  <SCORE.INTER.POLAR>
0

>  <SCORE.INTER.ROT>
4

>  <SCORE.INTER.SOLV>
10.3004

>  <SCORE.INTER.VDW>
-20.342

>  <SCORE.INTER.norm>
-0.725584

>  <SCORE.INTRA>
-0.989942

>  <SCORE.INTRA.DIHEDRAL>
0.302487

>  <SCORE.INTRA.DIHEDRAL.0>
6.18831

>  <SCORE.INTRA.POLAR>
0

>  <SCORE.INTRA.POLAR.0>
0

>  <SCORE.INTRA.REPUL>
0

>  <SCORE.INTRA.REPUL.0>
0

>  <SCORE.INTRA.SOLV>
0.0714313

>  <SCORE.INTRA.SOLV.lig_0>
-44.3465

>  <SCORE.INTRA.VDW>
-1.1769

>  <SCORE.INTRA.VDW.0>
-0.778272

>  <SCORE.INTRA.norm>
-0.0449974

>  <SCORE.RESTR>
0

>  <SCORE.RESTR.CAVITY>
0

>  <SCORE.RESTR.norm>
0

>  <SCORE.SYSTEM>
0

>  <SCORE.SYSTEM.CONST>
0

>  <SCORE.SYSTEM.DIHEDRAL>
0

>  <SCORE.SYSTEM.SOLV>
0

>  <SCORE.SYSTEM.norm>
0

>  <SCORE.heavy>
22

>  <SCORE.norm>
-0.770581

>  <RMSD>
4.348

$$$$
ligand
 OpenBabel11021811503D
libRbt.so/2013.1/901 2013/11/27
 22 24  0  0  0  0  0  0  0  0999 V2000
    0.5727    3.2378   21.3137 C   0  0  0  0  0  0  0  0  0  0  0  0
    1.4361    3.3491   22.4240 C   0  0  0  0  0  0  0  0  0  0  0  0
    2.7126    2.7976   22.3554 C   0  0  0  0  0  0  0  0  0  0  0  0
    3.1198    2.1386   21.1823 C   0  0  0  0  0  0  0  0  0  0  0  0
    2.2506    2.0179   20.0703 C   0  0  0  0  0  0  0  0  0  0  0  0
    0.9779    2.5679   20.1408 C   0  0  0  0  0  0  0  0  0  0  0  0
   -0.8494    3.8270   21.3800 C   0  0  0  0  0  0  0  0  0  0  0  0
   -0.9195    5.3739   21.3338 C   0  0  0  0  0  0  0  0  0  0  0  0
   -0.4299    6.0501   22.6091 C   0  0  0  0  0  0  0  0  0  0  0  0
   -1.1441    6.0592   23.8111 C   0  0  0  0  0  0  0  0  0  0  0  0
   -0.3926    6.7462   24.7106 N   0  0  0  0  0  0  0  0  0  0  0  0
    0.7933    7.1982   24.1671 C   0  0  0  0  0  0  0  0  0  0  0  0
    0.8143    6.7803   22.8410 C   0  0  0  0  0  0  0  0  0  0  0  0
    1.9748    7.1357   22.0541 C   0  0  0  0  0  0  0  0  0  0  0  0
    2.0671    6.7432   20.7216 O   0  0  0  0  0  0  0  0  0  0  0  0
    2.9911    7.8746   22.6449 N   0  0  0  0  0  0  0  0  0  0  0  0
    2.9321    8.2549   23.9543 C   0  0  0  0  0  0  0  0  0  0  0  0
    1.8703    7.9430   24.7139 N   0  0  0  0  0  0  0  0  0  0  0  0
    4.0382    9.0207   24.5380 N   0  0  0  0  0  0  0  0  0  0  0  0
    4.5037    1.5468   21.1373 C   0  0  0  0  0  0  0  0  0  0  0  0
    5.2652    1.8255   20.2130 O   0  0  0  0  0  0  0  0  0  0  0  0
    4.9104    0.6505   22.1867 N   0  0  0  0  0  0  0  0  0  0  0  0
  1  2  2  0  0  0  0
  1  6  1  0  0  0  0
  1  7  1  0  0  0  0
  2  3  1  0  0  0  0
  3  4  2  0  0  0  0
  4  5  1  0  0  0  0
  4 20  1  0  0  0  0
  5  6  2  0  0  0  0
  7  8  1  0  0  0  0
  8  9  1  0  0  0  0
  9 10  2  0  0  0  0
  9 13  1  0  0  0  0
 10 11  1  0  0  0  0
 11 12  1  0  0  0  0
 12 13  2  0  0  0  0
 12 18  1  0  0  0  0
 13 14  1  0  0  0  0
 14 15  1  0  0  0  0
 14 16  2  0  0  0  0
 16 17  1  0  0  0  0
 17 18  2  0  0  0  0
 17 19  1  0  0  0  0
 20 21  2  0  0  0  0
 20 22  1  0  0  0  0
M  END
>  <CHROM.1>
72.25442703,-127.36250950,-71.63495371,-73.06511515,1.84059109,4.98872515
22.28243158,1.25277927,0.06050423,-2.67873461

>  <Name>
ligand

>  <RI>
0

>  <Rbt.Current_Directory>
/home/itssahil/PROJECTS/Mol_Feturizer/New_Systems/rnas/4LVY

>  <Rbt.Executable>
rbdock ($Id: //depot/dev/client3/rdock/2013.1/src/exe/rbdock.cxx#4 $)

>  <Rbt.Library>
libRbt.so (2013.1, Build901 2013/11/27)

>  <Rbt.Parameter_File>
/export/apps/rDock/src/rDock_2013.1_src/data/scripts/dock_solv.prm

>  <Rbt.Receptor>
prm/pocket_docking_5.prm

>  <SCORE>
-17.0491

>  <SCORE.INTER>
-15.9509

>  <SCORE.INTER.CONST>
1

>  <SCORE.INTER.POLAR>
0

>  <SCORE.INTER.ROT>
4

>  <SCORE.INTER.SOLV>
9.91942

>  <SCORE.INTER.VDW>
-20.2071

>  <SCORE.INTER.norm>
-0.72504

>  <SCORE.INTRA>
-1.09818

>  <SCORE.INTRA.DIHEDRAL>
0.611268

>  <SCORE.INTRA.DIHEDRAL.0>
6.18831

>  <SCORE.INTRA.POLAR>
0

>  <SCORE.INTRA.POLAR.0>
0

>  <SCORE.INTRA.REPUL>
0

>  <SCORE.INTRA.REPUL.0>
0

>  <SCORE.INTRA.SOLV>
0.115889

>  <SCORE.INTRA.SOLV.lig_0>
-44.3465

>  <SCORE.INTRA.VDW>
-1.46176

>  <SCORE.INTRA.VDW.0>
-0.778272

>  <SCORE.INTRA.norm>
-0.0499175

>  <SCORE.RESTR>
0

>  <SCORE.RESTR.CAVITY>
0

>  <SCORE.RESTR.norm>
0

>  <SCORE.SYSTEM>
0

>  <SCORE.SYSTEM.CONST>
0

>  <SCORE.SYSTEM.DIHEDRAL>
0

>  <SCORE.SYSTEM.SOLV>
0

>  <SCORE.SYSTEM.norm>
0

>  <SCORE.heavy>
22

>  <SCORE.norm>
-0.774958

>  <RMSD>
4.384

$$$$
ligand
 OpenBabel11021811503D
libRbt.so/2013.1/901 2013/11/27
 22 24  0  0  0  0  0  0  0  0999 V2000
    0.8226    3.0778   20.2978 C   0  0  0  0  0  0  0  0  0  0  0  0
    0.7781    3.9790   19.2132 C   0  0  0  0  0  0  0  0  0  0  0  0
    1.7914    3.9508   18.2588 C   0  0  0  0  0  0  0  0  0  0  0  0
    2.8419    3.0261   18.3918 C   0  0  0  0  0  0  0  0  0  0  0  0
    2.8928    2.1271   19.4854 C   0  0  0  0  0  0  0  0  0  0  0  0
    1.8819    2.1572   20.4363 C   0  0  0  0  0  0  0  0  0  0  0  0
   -0.2815    3.1082   21.3722 C   0  0  0  0  0  0  0  0  0  0  0  0
   -0.1287    4.2239   22.4359 C   0  0  0  0  0  0  0  0  0  0  0  0
    1.2148    4.2077   23.1558 C   0  0  0  0  0  0  0  0  0  0  0  0
    2.0620    3.0963   23.2015 C   0  0  0  0  0  0  0  0  0  0  0  0
    3.1547    3.4634   23.9208 N   0  0  0  0  0  0  0  0  0  0  0  0
    3.0793    4.7703   24.3595 C   0  0  0  0  0  0  0  0  0  0  0  0
    1.8712    5.2814   23.8982 C   0  0  0  0  0  0  0  0  0  0  0  0
    1.5638    6.6548   24.2321 C   0  0  0  0  0  0  0  0  0  0  0  0
    0.3755    7.2347   23.7964 O   0  0  0  0  0  0  0  0  0  0  0  0
    2.4674    7.3833   24.9942 N   0  0  0  0  0  0  0  0  0  0  0  0
    3.6470    6.8428   25.4172 C   0  0  0  0  0  0  0  0  0  0  0  0
    3.9646    5.5715   25.1262 N   0  0  0  0  0  0  0  0  0  0  0  0
    4.5768    7.6573   26.2062 N   0  0  0  0  0  0  0  0  0  0  0  0
    3.9273    3.0210   17.3481 C   0  0  0  0  0  0  0  0  0  0  0  0
    5.0741    2.6965   17.6508 O   0  0  0  0  0  0  0  0  0  0  0  0
    3.5983    3.4070   16.0017 N   0  0  0  0  0  0  0  0  0  0  0  0
  1  2  2  0  0  0  0
  1  6  1  0  0  0  0
  1  7  1  0  0  0  0
  2  3  1  0  0  0  0
  3  4  2  0  0  0  0
  4  5  1  0  0  0  0
  4 20  1  0  0  0  0
  5  6  2  0  0  0  0
  7  8  1  0  0  0  0
  8  9  1  0  0  0  0
  9 10  2  0  0  0  0
  9 13  1  0  0  0  0
 10 11  1  0  0  0  0
 11 12  1  0  0  0  0
 12 13  2  0  0  0  0
 12 18  1  0  0  0  0
 13 14  1  0  0  0  0
 14 15  1  0  0  0  0
 14 16  2  0  0  0  0
 16 17  1  0  0  0  0
 17 18  2  0  0  0  0
 17 19  1  0  0  0  0
 20 21  2  0  0  0  0
 20 22  1  0  0  0  0
M  END
>  <CHROM.1>
-79.67758563,149.42691861,-55.23411541,-19.57272441,2.34434387,4.44944608
21.80523014,1.53661458,-0.17156471,-2.03574259

>  <Name>
ligand

>  <RI>
0

>  <Rbt.Current_Directory>
/home/itssahil/PROJECTS/Mol_Feturizer/New_Systems/rnas/4LVY

>  <Rbt.Executable>
rbdock ($Id: //depot/dev/client3/rdock/2013.1/src/exe/rbdock.cxx#4 $)

>  <Rbt.Library>
libRbt.so (2013.1, Build901 2013/11/27)

>  <Rbt.Parameter_File>
/export/apps/rDock/src/rDock_2013.1_src/data/scripts/dock_solv.prm

>  <Rbt.Receptor>
prm/pocket_docking_6.prm

>  <SCORE>
-14.3786

>  <SCORE.INTER>
-14.1142

>  <SCORE.INTER.CONST>
1

>  <SCORE.INTER.POLAR>
0

>  <SCORE.INTER.ROT>
4

>  <SCORE.INTER.SOLV>
9.57544

>  <SCORE.INTER.VDW>
-18.868

>  <SCORE.INTER.norm>
-0.641556

>  <SCORE.INTRA>
-0.264385

>  <SCORE.INTRA.DIHEDRAL>
0.0461931

>  <SCORE.INTRA.DIHEDRAL.0>
6.18831

>  <SCORE.INTRA.POLAR>
0

>  <SCORE.INTRA.POLAR.0>
0

>  <SCORE.INTRA.REPUL>
0

>  <SCORE.INTRA.REPUL.0>
0

>  <SCORE.INTRA.SOLV>
0.00560937

>  <SCORE.INTRA.SOLV.lig_0>
-44.3465

>  <SCORE.INTRA.VDW>
-0.290287

>  <SCORE.INTRA.VDW.0>
-0.778272

>  <SCORE.INTRA.norm>
-0.0120175

>  <SCORE.RESTR>
0

>  <SCORE.RESTR.CAVITY>
0

>  <SCORE.RESTR.norm>
0

>  <SCORE.SYSTEM>
0

>  <SCORE.SYSTEM.CONST>
0

>  <SCORE.SYSTEM.DIHEDRAL>
0

>  <SCORE.SYSTEM.SOLV>
0

>  <SCORE.SYSTEM.norm>
0

>  <SCORE.heavy>
22

>  <SCORE.norm>
-0.653573

>  <RMSD>
4.390

$$$$
ligand
 OpenBabel11021811503D
libRbt.so/2013.1/901 2013/11/27
 22 24  0  0  0  0  0  0  0  0999 V2000
    0.4464    3.7015   20.6675 C   0  0  0  0  0  0  0  0  0  0  0  0
    1.3045    4.6217   20.0291 C   0  0  0  0  0  0  0  0  0  0  0  0
    2.5319    4.1848   19.5383 C   0  0  0  0  0  0  0  0  0  0  0  0
    2.8964    2.8353   19.6875 C   0  0  0  0  0  0  0  0  0  0  0  0
    2.0399    1.9124   20.3367 C   0  0  0  0  0  0  0  0  0  0  0  0
    0.8167    2.3500   20.8260 C   0  0  0  0  0  0  0  0  0  0  0  0
   -0.9076    4.1726   21.2321 C   0  0  0  0  0  0  0  0  0  0  0  0
   -1.0085    4.1700   22.7780 C   0  0  0  0  0  0  0  0  0  0  0  0
   -0.1946    5.2702   23.4494 C   0  0  0  0  0  0  0  0  0  0  0  0
   -0.7159    6.5163   23.8106 C   0  0  0  0  0  0  0  0  0  0  0  0
    0.2984    7.2169   24.3819 N   0  0  0  0  0  0  0  0  0  0  0  0
    1.4762    6.4976   24.4206 C   0  0  0  0  0  0  0  0  0  0  0  0
    1.2122    5.2602   23.8439 C   0  0  0  0  0  0  0  0  0  0  0  0
    2.3066    4.3170   23.7725 C   0  0  0  0  0  0  0  0  0  0  0  0
    2.1121    3.0562   23.2153 O   0  0  0  0  0  0  0  0  0  0  0  0
    3.5512    4.6880   24.2636 N   0  0  0  0  0  0  0  0  0  0  0  0
    3.7618    5.9112   24.8310 C   0  0  0  0  0  0  0  0  0  0  0  0
    2.7694    6.8112   24.9135 N   0  0  0  0  0  0  0  0  0  0  0  0
    5.0904    6.2510   25.3505 N   0  0  0  0  0  0  0  0  0  0  0  0
    4.2318    2.3912   19.1521 C   0  0  0  0  0  0  0  0  0  0  0  0
    4.5365    2.6211   17.9832 O   0  0  0  0  0  0  0  0  0  0  0  0
    5.1337    1.6918   20.0281 N   0  0  0  0  0  0  0  0  0  0  0  0
  1  2  2  0  0  0  0
  1  6  1  0  0  0  0
  1  7  1  0  0  0  0
  2  3  1  0  0  0  0
  3  4  2  0  0  0  0
  4  5  1  0  0  0  0
  4 20  1  0  0  0  0
  5  6  2  0  0  0  0
  7  8  1  0  0  0  0
  8  9  1  0  0  0  0
  9 10  2  0  0  0  0
  9 13  1  0  0  0  0
 10 11  1  0  0  0  0
 11 12  1  0  0  0  0
 12 13  2  0  0  0  0
 12 18  1  0  0  0  0
 13 14  1  0  0  0  0
 14 15  1  0  0  0  0
 14 16  2  0  0  0  0
 16 17  1  0  0  0  0
 17 18  2  0  0  0  0
 17 19  1  0  0  0  0
 20 21  2  0  0  0  0
 20 22  1  0  0  0  0
M  END
>  <CHROM.1>
-110.96570614,-53.25158924,71.91205114,94.18254171,2.02992933,4.37098701
22.21266104,1.29097258,0.10756406,-2.15673184

>  <Name>
ligand

>  <RI>
0

>  <Rbt.Current_Directory>
/home/itssahil/PROJECTS/Mol_Feturizer/New_Systems/rnas/4LVY

>  <Rbt.Executable>
rbdock ($Id: //depot/dev/client3/rdock/2013.1/src/exe/rbdock.cxx#4 $)

>  <Rbt.Library>
libRbt.so (2013.1, Build901 2013/11/27)

>  <Rbt.Parameter_File>
/export/apps/rDock/src/rDock_2013.1_src/data/scripts/dock_solv.prm

>  <Rbt.Receptor>
prm/pocket_docking_5.prm

>  <SCORE>
-17.2589

>  <SCORE.INTER>
-16.0279

>  <SCORE.INTER.CONST>
1

>  <SCORE.INTER.POLAR>
0

>  <SCORE.INTER.ROT>
4

>  <SCORE.INTER.SOLV>
8.7284

>  <SCORE.INTER.VDW>
-19.8614

>  <SCORE.INTER.norm>
-0.728543

>  <SCORE.INTRA>
-1.23094

>  <SCORE.INTRA.DIHEDRAL>
0.602434

>  <SCORE.INTRA.DIHEDRAL.0>
6.18831

>  <SCORE.INTRA.POLAR>
0

>  <SCORE.INTRA.POLAR.0>
0

>  <SCORE.INTRA.REPUL>
0

>  <SCORE.INTRA.REPUL.0>
0

>  <SCORE.INTRA.SOLV>
0.717788

>  <SCORE.INTRA.SOLV.lig_0>
-44.3465

>  <SCORE.INTRA.VDW>
-1.89105

>  <SCORE.INTRA.VDW.0>
-0.778272

>  <SCORE.INTRA.norm>
-0.055952

>  <SCORE.RESTR>
0

>  <SCORE.RESTR.CAVITY>
0

>  <SCORE.RESTR.norm>
0

>  <SCORE.SYSTEM>
0

>  <SCORE.SYSTEM.CONST>
0

>  <SCORE.SYSTEM.DIHEDRAL>
0

>  <SCORE.SYSTEM.SOLV>
0

>  <SCORE.SYSTEM.norm>
0

>  <SCORE.heavy>
22

>  <SCORE.norm>
-0.784495

>  <RMSD>
4.396

$$$$
ligand
 OpenBabel11021811503D
libRbt.so/2013.1/901 2013/11/27
 22 24  0  0  0  0  0  0  0  0999 V2000
    0.7278    3.1139   20.2426 C   0  0  0  0  0  0  0  0  0  0  0  0
    0.6661    4.0975   19.2329 C   0  0  0  0  0  0  0  0  0  0  0  0
    1.6709    4.1537   18.2709 C   0  0  0  0  0  0  0  0  0  0  0  0
    2.7302    3.2309   18.3217 C   0  0  0  0  0  0  0  0  0  0  0  0
    2.7984    2.2489   19.3405 C   0  0  0  0  0  0  0  0  0  0  0  0
    1.7959    2.1949   20.2992 C   0  0  0  0  0  0  0  0  0  0  0  0
   -0.3668    3.0496   21.3252 C   0  0  0  0  0  0  0  0  0  0  0  0
   -0.2558    4.1271   22.4326 C   0  0  0  0  0  0  0  0  0  0  0  0
    1.1072    4.1712   23.1136 C   0  0  0  0  0  0  0  0  0  0  0  0
    1.9966    3.0929   23.1496 C   0  0  0  0  0  0  0  0  0  0  0  0
    3.0946    3.5106   23.8322 N   0  0  0  0  0  0  0  0  0  0  0  0
    2.9825    4.8199   24.2557 C   0  0  0  0  0  0  0  0  0  0  0  0
    1.7434    5.2790   23.8227 C   0  0  0  0  0  0  0  0  0  0  0  0
    1.3941    6.6446   24.1473 C   0  0  0  0  0  0  0  0  0  0  0  0
    0.1730    7.1736   23.7384 O   0  0  0  0  0  0  0  0  0  0  0  0
    2.2908    7.4170   24.8734 N   0  0  0  0  0  0  0  0  0  0  0  0
    3.5015    6.9268   25.2693 C   0  0  0  0  0  0  0  0  0  0  0  0
    3.8583    5.6643   24.9860 N   0  0  0  0  0  0  0  0  0  0  0  0
    4.4219    7.7866   26.0205 N   0  0  0  0  0  0  0  0  0  0  0  0
    3.8062    3.3178   17.2719 C   0  0  0  0  0  0  0  0  0  0  0  0
    3.6465    2.7807   16.1774 O   0  0  0  0  0  0  0  0  0  0  0  0
    5.0180    4.0310   17.5766 N   0  0  0  0  0  0  0  0  0  0  0  0
  1  2  2  0  0  0  0
  1  6  1  0  0  0  0
  1  7  1  0  0  0  0
  2  3  1  0  0  0  0
  3  4  2  0  0  0  0
  4  5  1  0  0  0  0
  4 20  1  0  0  0  0
  5  6  2  0  0  0  0
  7  8  1  0  0  0  0
  8  9  1  0  0  0  0
  9 10  2  0  0  0  0
  9 13  1  0  0  0  0
 10 11  1  0  0  0  0
 11 12  1  0  0  0  0
 12 13  2  0  0  0  0
 12 18  1  0  0  0  0
 13 14  1  0  0  0  0
 14 15  1  0  0  0  0
 14 16  2  0  0  0  0
 16 17  1  0  0  0  0
 17 18  2  0  0  0  0
 17 19  1  0  0  0  0
 20 21  2  0  0  0  0
 20 22  1  0  0  0  0
M  END
>  <CHROM.1>
-76.61290912,-83.79127975,-53.53232659,-23.24736877,2.22695405,4.53463053
21.72784657,1.53158767,-0.30722150,-2.03017444

>  <Name>
ligand

>  <RI>
0

>  <Rbt.Current_Directory>
/home/itssahil/PROJECTS/Mol_Feturizer/New_Systems/rnas/4LVY

>  <Rbt.Executable>
rbdock ($Id: //depot/dev/client3/rdock/2013.1/src/exe/rbdock.cxx#4 $)

>  <Rbt.Library>
libRbt.so (2013.1, Build901 2013/11/27)

>  <Rbt.Parameter_File>
/export/apps/rDock/src/rDock_2013.1_src/data/scripts/dock_solv.prm

>  <Rbt.Receptor>
prm/pocket_docking_8.prm

>  <SCORE>
-14.1376

>  <SCORE.INTER>
-13.589

>  <SCORE.INTER.CONST>
1

>  <SCORE.INTER.POLAR>
0

>  <SCORE.INTER.ROT>
4

>  <SCORE.INTER.SOLV>
9.18917

>  <SCORE.INTER.VDW>
-18.3891

>  <SCORE.INTER.norm>
-0.617682

>  <SCORE.INTRA>
-0.548625

>  <SCORE.INTRA.DIHEDRAL>
0.135681

>  <SCORE.INTRA.DIHEDRAL.0>
6.18831

>  <SCORE.INTRA.POLAR>
0

>  <SCORE.INTRA.POLAR.0>
0

>  <SCORE.INTRA.REPUL>
0

>  <SCORE.INTRA.REPUL.0>
0

>  <SCORE.INTRA.SOLV>
-0.00728652

>  <SCORE.INTRA.SOLV.lig_0>
-44.3465

>  <SCORE.INTRA.VDW>
-0.612822

>  <SCORE.INTRA.VDW.0>
-0.778272

>  <SCORE.INTRA.norm>
-0.0249375

>  <SCORE.RESTR>
0

>  <SCORE.RESTR.CAVITY>
0

>  <SCORE.RESTR.norm>
0

>  <SCORE.SYSTEM>
0

>  <SCORE.SYSTEM.CONST>
0

>  <SCORE.SYSTEM.DIHEDRAL>
0

>  <SCORE.SYSTEM.SOLV>
0

>  <SCORE.SYSTEM.norm>
0

>  <SCORE.heavy>
22

>  <SCORE.norm>
-0.642619

>  <RMSD>
4.412

$$$$
ligand
 OpenBabel11021811503D
libRbt.so/2013.1/901 2013/11/27
 22 24  0  0  0  0  0  0  0  0999 V2000
    0.2469    3.7423   20.3950 C   0  0  0  0  0  0  0  0  0  0  0  0
    0.8266    2.4720   20.5973 C   0  0  0  0  0  0  0  0  0  0  0  0
    1.9888    2.1336   19.9094 C   0  0  0  0  0  0  0  0  0  0  0  0
    2.5648    3.0619   19.0247 C   0  0  0  0  0  0  0  0  0  0  0  0
    1.9785    4.3341   18.8136 C   0  0  0  0  0  0  0  0  0  0  0  0
    0.8192    4.6695   19.4998 C   0  0  0  0  0  0  0  0  0  0  0  0
   -1.0492    4.1257   21.1349 C   0  0  0  0  0  0  0  0  0  0  0  0
   -0.9979    3.9581   22.6741 C   0  0  0  0  0  0  0  0  0  0  0  0
   -0.5833    5.2228   23.4171 C   0  0  0  0  0  0  0  0  0  0  0  0
   -1.4612    6.0083   24.1703 C   0  0  0  0  0  0  0  0  0  0  0  0
   -0.7321    7.0352   24.6801 N   0  0  0  0  0  0  0  0  0  0  0  0
    0.5948    6.9744   24.3035 C   0  0  0  0  0  0  0  0  0  0  0  0
    0.7361    5.8441   23.5060 C   0  0  0  0  0  0  0  0  0  0  0  0
    2.0565    5.5622   22.9868 C   0  0  0  0  0  0  0  0  0  0  0  0
    2.2730    4.4427   22.1881 O   0  0  0  0  0  0  0  0  0  0  0  0
    3.1011    6.4241   23.2933 N   0  0  0  0  0  0  0  0  0  0  0  0
    2.9176    7.5174   24.0892 C   0  0  0  0  0  0  0  0  0  0  0  0
    1.7061    7.8096   24.5878 N   0  0  0  0  0  0  0  0  0  0  0  0
    4.0556    8.3892   24.3982 N   0  0  0  0  0  0  0  0  0  0  0  0
    3.8185    2.6677   18.2899 C   0  0  0  0  0  0  0  0  0  0  0  0
    4.7354    2.1079   18.8883 O   0  0  0  0  0  0  0  0  0  0  0  0
    3.9229    2.9635   16.8858 N   0  0  0  0  0  0  0  0  0  0  0  0
  1  2  2  0  0  0  0
  1  6  1  0  0  0  0
  1  7  1  0  0  0  0
  2  3  1  0  0  0  0
  3  4  2  0  0  0  0
  4  5  1  0  0  0  0
  4 20  1  0  0  0  0
  5  6  2  0  0  0  0
  7  8  1  0  0  0  0
  8  9  1  0  0  0  0
  9 10  2  0  0  0  0
  9 13  1  0  0  0  0
 10 11  1  0  0  0  0
 11 12  1  0  0  0  0
 12 13  2  0  0  0  0
 12 18  1  0  0  0  0
 13 14  1  0  0  0  0
 14 15  1  0  0  0  0
 14 16  2  0  0  0  0
 16 17  1  0  0  0  0
 17 18  2  0  0  0  0
 17 19  1  0  0  0  0
 20 21  2  0  0  0  0
 20 22  1  0  0  0  0
M  END
>  <CHROM.1>
53.65500069,-44.73802316,92.85833038,107.50923723,1.57383580,4.88525849,21.72174938
1.27330141,-0.25761331,-2.28196783

>  <Name>
ligand

>  <RI>
0

>  <Rbt.Current_Directory>
/home/itssahil/PROJECTS/Mol_Feturizer/New_Systems/rnas/4LVY

>  <Rbt.Executable>
rbdock ($Id: //depot/dev/client3/rdock/2013.1/src/exe/rbdock.cxx#4 $)

>  <Rbt.Library>
libRbt.so (2013.1, Build901 2013/11/27)

>  <Rbt.Parameter_File>
/export/apps/rDock/src/rDock_2013.1_src/data/scripts/dock_solv.prm

>  <Rbt.Receptor>
prm/pocket_docking_5.prm

>  <SCORE>
-17.7415

>  <SCORE.INTER>
-18.5451

>  <SCORE.INTER.CONST>
1

>  <SCORE.INTER.POLAR>
0

>  <SCORE.INTER.ROT>
4

>  <SCORE.INTER.SOLV>
9.08475

>  <SCORE.INTER.VDW>
-21.6583

>  <SCORE.INTER.norm>
-0.84296

>  <SCORE.INTRA>
0.803598

>  <SCORE.INTRA.DIHEDRAL>
3.54859

>  <SCORE.INTRA.DIHEDRAL.0>
6.18831

>  <SCORE.INTRA.POLAR>
0

>  <SCORE.INTRA.POLAR.0>
0

>  <SCORE.INTRA.REPUL>
0

>  <SCORE.INTRA.REPUL.0>
0

>  <SCORE.INTRA.SOLV>
0.957587

>  <SCORE.INTRA.SOLV.lig_0>
-44.3465

>  <SCORE.INTRA.VDW>
-1.44949

>  <SCORE.INTRA.VDW.0>
-0.778272

>  <SCORE.INTRA.norm>
0.0365272

>  <SCORE.RESTR>
0

>  <SCORE.RESTR.CAVITY>
0

>  <SCORE.RESTR.norm>
0

>  <SCORE.SYSTEM>
0

>  <SCORE.SYSTEM.CONST>
0

>  <SCORE.SYSTEM.DIHEDRAL>
0

>  <SCORE.SYSTEM.SOLV>
0

>  <SCORE.SYSTEM.norm>
0

>  <SCORE.heavy>
22

>  <SCORE.norm>
-0.806432

>  <RMSD>
4.439

$$$$
ligand
 OpenBabel11021811503D
libRbt.so/2013.1/901 2013/11/27
 22 24  0  0  0  0  0  0  0  0999 V2000
    0.4643    3.3199   21.2947 C   0  0  0  0  0  0  0  0  0  0  0  0
    0.9759    2.6304   20.1751 C   0  0  0  0  0  0  0  0  0  0  0  0
    2.2457    2.0635   20.2429 C   0  0  0  0  0  0  0  0  0  0  0  0
    2.9971    2.1878   21.4245 C   0  0  0  0  0  0  0  0  0  0  0  0
    2.4884    2.8879   22.5461 C   0  0  0  0  0  0  0  0  0  0  0  0
    1.2224    3.4531   22.4763 C   0  0  0  0  0  0  0  0  0  0  0  0
   -0.9319    3.9684   21.2298 C   0  0  0  0  0  0  0  0  0  0  0  0
   -0.9351    5.5175   21.2477 C   0  0  0  0  0  0  0  0  0  0  0  0
   -0.4383    6.1185   22.5574 C   0  0  0  0  0  0  0  0  0  0  0  0
   -1.1327    6.0331   23.7680 C   0  0  0  0  0  0  0  0  0  0  0  0
   -0.3804    6.6752   24.6996 N   0  0  0  0  0  0  0  0  0  0  0  0
    0.7869    7.1873   24.1693 C   0  0  0  0  0  0  0  0  0  0  0  0
    0.7945    6.8581   22.8183 C   0  0  0  0  0  0  0  0  0  0  0  0
    1.9344    7.2893   22.0392 C   0  0  0  0  0  0  0  0  0  0  0  0
    2.0126    6.9875   20.6824 O   0  0  0  0  0  0  0  0  0  0  0  0
    2.9451    8.0092   22.6621 N   0  0  0  0  0  0  0  0  0  0  0  0
    2.9000    8.3011   23.9946 C   0  0  0  0  0  0  0  0  0  0  0  0
    1.8574    7.9172   24.7478 N   0  0  0  0  0  0  0  0  0  0  0  0
    3.9998    9.0501   24.6109 N   0  0  0  0  0  0  0  0  0  0  0  0
    4.3693    1.5696   21.4685 C   0  0  0  0  0  0  0  0  0  0  0  0
    4.7807    1.0514   22.5050 O   0  0  0  0  0  0  0  0  0  0  0  0
    5.1850    1.6037   20.2838 N   0  0  0  0  0  0  0  0  0  0  0  0
  1  2  2  0  0  0  0
  1  6  1  0  0  0  0
  1  7  1  0  0  0  0
  2  3  1  0  0  0  0
  3  4  2  0  0  0  0
  4  5  1  0  0  0  0
  4 20  1  0  0  0  0
  5  6  2  0  0  0  0
  7  8  1  0  0  0  0
  8  9  1  0  0  0  0
  9 10  2  0  0  0  0
  9 13  1  0  0  0  0
 10 11  1  0  0  0  0
 11 12  1  0  0  0  0
 12 13  2  0  0  0  0
 12 18  1  0  0  0  0
 13 14  1  0  0  0  0
 14 15  1  0  0  0  0
 14 16  2  0  0  0  0
 16 17  1  0  0  0  0
 17 18  2  0  0  0  0
 17 19  1  0  0  0  0
 20 21  2  0  0  0  0
 20 22  1  0  0  0  0
M  END
>  <CHROM.1>
-111.46214429,-143.46442899,-66.10051545,-68.75483976,1.77690559,5.05513780
22.34755404,1.27369680,0.13080019,-2.69396521

>  <Name>
ligand

>  <RI>
0

>  <Rbt.Current_Directory>
/home/itssahil/PROJECTS/Mol_Feturizer/New_Systems/rnas/4LVY

>  <Rbt.Executable>
rbdock ($Id: //depot/dev/client3/rdock/2013.1/src/exe/rbdock.cxx#4 $)

>  <Rbt.Library>
libRbt.so (2013.1, Build901 2013/11/27)

>  <Rbt.Parameter_File>
/export/apps/rDock/src/rDock_2013.1_src/data/scripts/dock_solv.prm

>  <Rbt.Receptor>
prm/pocket_docking_7.prm

>  <SCORE>
-16.8232

>  <SCORE.INTER>
-15.6698

>  <SCORE.INTER.CONST>
1

>  <SCORE.INTER.POLAR>
0

>  <SCORE.INTER.ROT>
4

>  <SCORE.INTER.SOLV>
10.471

>  <SCORE.INTER.VDW>
-20.2035

>  <SCORE.INTER.norm>
-0.712264

>  <SCORE.INTRA>
-1.15342

>  <SCORE.INTRA.DIHEDRAL>
0.16206

>  <SCORE.INTRA.DIHEDRAL.0>
6.18831

>  <SCORE.INTRA.POLAR>
0

>  <SCORE.INTRA.POLAR.0>
0

>  <SCORE.INTRA.REPUL>
0

>  <SCORE.INTRA.REPUL.0>
0

>  <SCORE.INTRA.SOLV>
0.0810596

>  <SCORE.INTRA.SOLV.lig_0>
-44.3465

>  <SCORE.INTRA.VDW>
-1.27498

>  <SCORE.INTRA.VDW.0>
-0.778272

>  <SCORE.INTRA.norm>
-0.0524284

>  <SCORE.RESTR>
0

>  <SCORE.RESTR.CAVITY>
0

>  <SCORE.RESTR.norm>
0

>  <SCORE.SYSTEM>
0

>  <SCORE.SYSTEM.CONST>
0

>  <SCORE.SYSTEM.DIHEDRAL>
0

>  <SCORE.SYSTEM.SOLV>
0

>  <SCORE.SYSTEM.norm>
0

>  <SCORE.heavy>
22

>  <SCORE.norm>
-0.764692

>  <RMSD>
4.443

$$$$
ligand
 OpenBabel11021811503D
libRbt.so/2013.1/901 2013/11/27
 22 24  0  0  0  0  0  0  0  0999 V2000
    0.7962    3.1577   20.3168 C   0  0  0  0  0  0  0  0  0  0  0  0
    0.7484    4.0698   19.2415 C   0  0  0  0  0  0  0  0  0  0  0  0
    1.7271    4.0132   18.2529 C   0  0  0  0  0  0  0  0  0  0  0  0
    2.7466    3.0495   18.3426 C   0  0  0  0  0  0  0  0  0  0  0  0
    2.8012    2.1392   19.4267 C   0  0  0  0  0  0  0  0  0  0  0  0
    1.8248    2.1977   20.4118 C   0  0  0  0  0  0  0  0  0  0  0  0
   -0.2690    3.2187   21.4284 C   0  0  0  0  0  0  0  0  0  0  0  0
   -0.0319    4.3094   22.5027 C   0  0  0  0  0  0  0  0  0  0  0  0
    1.3117    4.1915   23.2128 C   0  0  0  0  0  0  0  0  0  0  0  0
    2.1165    3.0488   23.1750 C   0  0  0  0  0  0  0  0  0  0  0  0
    3.2239    3.3224   23.9131 N   0  0  0  0  0  0  0  0  0  0  0  0
    3.1988    4.5966   24.4442 C   0  0  0  0  0  0  0  0  0  0  0  0
    2.0098    5.1842   24.0265 C   0  0  0  0  0  0  0  0  0  0  0  0
    1.7552    6.5408   24.4590 C   0  0  0  0  0  0  0  0  0  0  0  0
    0.5886    7.1943   24.0716 O   0  0  0  0  0  0  0  0  0  0  0  0
    2.6874    7.1786   25.2665 N   0  0  0  0  0  0  0  0  0  0  0  0
    3.8468    6.5655   25.6440 C   0  0  0  0  0  0  0  0  0  0  0  0
    4.1155    5.3073   25.2616 N   0  0  0  0  0  0  0  0  0  0  0  0
    4.8085    7.2863   26.4844 N   0  0  0  0  0  0  0  0  0  0  0  0
    3.7952    3.0141   17.2626 C   0  0  0  0  0  0  0  0  0  0  0  0
    4.9551    2.7118   17.5370 O   0  0  0  0  0  0  0  0  0  0  0  0
    3.4158    3.3453   15.9148 N   0  0  0  0  0  0  0  0  0  0  0  0
  1  2  2  0  0  0  0
  1  6  1  0  0  0  0
  1  7  1  0  0  0  0
  2  3  1  0  0  0  0
  3  4  2  0  0  0  0
  4  5  1  0  0  0  0
  4 20  1  0  0  0  0
  5  6  2  0  0  0  0
  7  8  1  0  0  0  0
  8  9  1  0  0  0  0
  9 10  2  0  0  0  0
  9 13  1  0  0  0  0
 10 11  1  0  0  0  0
 11 12  1  0  0  0  0
 12 13  2  0  0  0  0
 12 18  1  0  0  0  0
 13 14  1  0  0  0  0
 14 15  1  0  0  0  0
 14 16  2  0  0  0  0
 16 17  1  0  0  0  0
 17 18  2  0  0  0  0
 17 19  1  0  0  0  0
 20 21  2  0  0  0  0
 20 22  1  0  0  0  0
M  END
>  <CHROM.1>
-80.24113738,145.65008875,-57.40353197,-15.62924050,2.39168746,4.38885482
21.87108109,1.57624339,-0.09473748,-1.98910282

>  <Name>
ligand

>  <RI>
0

>  <Rbt.Current_Directory>
/home/itssahil/PROJECTS/Mol_Feturizer/New_Systems/rnas/4LVY

>  <Rbt.Executable>
rbdock ($Id: //depot/dev/client3/rdock/2013.1/src/exe/rbdock.cxx#4 $)

>  <Rbt.Library>
libRbt.so (2013.1, Build901 2013/11/27)

>  <Rbt.Parameter_File>
/export/apps/rDock/src/rDock_2013.1_src/data/scripts/dock_solv.prm

>  <Rbt.Receptor>
prm/pocket_docking_6.prm

>  <SCORE>
-14.3057

>  <SCORE.INTER>
-14.0571

>  <SCORE.INTER.CONST>
1

>  <SCORE.INTER.POLAR>
0

>  <SCORE.INTER.ROT>
4

>  <SCORE.INTER.SOLV>
8.56482

>  <SCORE.INTER.VDW>
-18.493

>  <SCORE.INTER.norm>
-0.63896

>  <SCORE.INTRA>
-0.248549

>  <SCORE.INTRA.DIHEDRAL>
-0.023958

>  <SCORE.INTRA.DIHEDRAL.0>
6.18831

>  <SCORE.INTRA.POLAR>
0

>  <SCORE.INTRA.POLAR.0>
0

>  <SCORE.INTRA.REPUL>
0

>  <SCORE.INTRA.REPUL.0>
0

>  <SCORE.INTRA.SOLV>
0.00446914

>  <SCORE.INTRA.SOLV.lig_0>
-44.3465

>  <SCORE.INTRA.VDW>
-0.238804

>  <SCORE.INTRA.VDW.0>
-0.778272

>  <SCORE.INTRA.norm>
-0.0112977

>  <SCORE.RESTR>
0

>  <SCORE.RESTR.CAVITY>
0

>  <SCORE.RESTR.norm>
0

>  <SCORE.SYSTEM>
0

>  <SCORE.SYSTEM.CONST>
0

>  <SCORE.SYSTEM.DIHEDRAL>
0

>  <SCORE.SYSTEM.SOLV>
0

>  <SCORE.SYSTEM.norm>
0

>  <SCORE.heavy>
22

>  <SCORE.norm>
-0.650258

>  <RMSD>
4.489

$$$$
ligand
 OpenBabel11021811503D
libRbt.so/2013.1/901 2013/11/27
 22 24  0  0  0  0  0  0  0  0999 V2000
    0.2836    3.8072   20.5614 C   0  0  0  0  0  0  0  0  0  0  0  0
    1.0485    4.7249   19.8108 C   0  0  0  0  0  0  0  0  0  0  0  0
    2.2382    4.3036   19.2230 C   0  0  0  0  0  0  0  0  0  0  0  0
    2.6580    2.9721   19.3875 C   0  0  0  0  0  0  0  0  0  0  0  0
    1.8958    2.0521   20.1488 C   0  0  0  0  0  0  0  0  0  0  0  0
    0.7102    2.4743   20.7348 C   0  0  0  0  0  0  0  0  0  0  0  0
   -1.0262    4.2621   21.2333 C   0  0  0  0  0  0  0  0  0  0  0  0
   -1.0334    4.1731   22.7799 C   0  0  0  0  0  0  0  0  0  0  0  0
   -0.2297    5.2735   23.4631 C   0  0  0  0  0  0  0  0  0  0  0  0
   -0.7694    6.4995   23.8640 C   0  0  0  0  0  0  0  0  0  0  0  0
    0.2410    7.2070   24.4338 N   0  0  0  0  0  0  0  0  0  0  0  0
    1.4336    6.5115   24.4337 C   0  0  0  0  0  0  0  0  0  0  0  0
    1.1841    5.2831   23.8318 C   0  0  0  0  0  0  0  0  0  0  0  0
    2.2958    4.3648   23.7176 C   0  0  0  0  0  0  0  0  0  0  0  0
    2.1166    3.1139   23.1335 O   0  0  0  0  0  0  0  0  0  0  0  0
    3.5416    4.7496   24.1951 N   0  0  0  0  0  0  0  0  0  0  0  0
    3.7379    5.9629   24.7882 C   0  0  0  0  0  0  0  0  0  0  0  0
    2.7291    6.8399   24.9106 N   0  0  0  0  0  0  0  0  0  0  0  0
    5.0687    6.3176   25.2918 N   0  0  0  0  0  0  0  0  0  0  0  0
    3.9513    2.5448   18.7454 C   0  0  0  0  0  0  0  0  0  0  0  0
    4.7725    1.8908   19.3856 O   0  0  0  0  0  0  0  0  0  0  0  0
    4.2065    2.9205   17.3803 N   0  0  0  0  0  0  0  0  0  0  0  0
  1  2  2  0  0  0  0
  1  6  1  0  0  0  0
  1  7  1  0  0  0  0
  2  3  1  0  0  0  0
  3  4  2  0  0  0  0
  4  5  1  0  0  0  0
  4 20  1  0  0  0  0
  5  6  2  0  0  0  0
  7  8  1  0  0  0  0
  8  9  1  0  0  0  0
  9 10  2  0  0  0  0
  9 13  1  0  0  0  0
 10 11  1  0  0  0  0
 11 12  1  0  0  0  0
 12 13  2  0  0  0  0
 12 18  1  0  0  0  0
 13 14  1  0  0  0  0
 14 15  1  0  0  0  0
 14 16  2  0  0  0  0
 16 17  1  0  0  0  0
 17 18  2  0  0  0  0
 17 19  1  0  0  0  0
 20 21  2  0  0  0  0
 20 22  1  0  0  0  0
M  END
>  <CHROM.1>
-117.27221577,133.67451342,75.32878802,90.94124607,1.91434109,4.44741722
22.08379117,1.35410826,0.08421679,-2.11117870

>  <Name>
ligand

>  <RI>
0

>  <Rbt.Current_Directory>
/home/itssahil/PROJECTS/Mol_Feturizer/New_Systems/rnas/4LVY

>  <Rbt.Executable>
rbdock ($Id: //depot/dev/client3/rdock/2013.1/src/exe/rbdock.cxx#4 $)

>  <Rbt.Library>
libRbt.so (2013.1, Build901 2013/11/27)

>  <Rbt.Parameter_File>
/export/apps/rDock/src/rDock_2013.1_src/data/scripts/dock_solv.prm

>  <Rbt.Receptor>
prm/pocket_docking_5.prm

>  <SCORE>
-17.4709

>  <SCORE.INTER>
-16.6126

>  <SCORE.INTER.CONST>
1

>  <SCORE.INTER.POLAR>
0

>  <SCORE.INTER.ROT>
4

>  <SCORE.INTER.SOLV>
8.86733

>  <SCORE.INTER.VDW>
-20.2975

>  <SCORE.INTER.norm>
-0.755118

>  <SCORE.INTRA>
-0.858265

>  <SCORE.INTRA.DIHEDRAL>
0.956226

>  <SCORE.INTRA.DIHEDRAL.0>
6.18831

>  <SCORE.INTRA.POLAR>
0

>  <SCORE.INTRA.POLAR.0>
0

>  <SCORE.INTRA.REPUL>
0

>  <SCORE.INTRA.REPUL.0>
0

>  <SCORE.INTRA.SOLV>
0.605924

>  <SCORE.INTRA.SOLV.lig_0>
-44.3465

>  <SCORE.INTRA.VDW>
-1.63934

>  <SCORE.INTRA.VDW.0>
-0.778272

>  <SCORE.INTRA.norm>
-0.0390121

>  <SCORE.RESTR>
0

>  <SCORE.RESTR.CAVITY>
0

>  <SCORE.RESTR.norm>
0

>  <SCORE.SYSTEM>
0

>  <SCORE.SYSTEM.CONST>
0

>  <SCORE.SYSTEM.DIHEDRAL>
0

>  <SCORE.SYSTEM.SOLV>
0

>  <SCORE.SYSTEM.norm>
0

>  <SCORE.heavy>
22

>  <SCORE.norm>
-0.79413

>  <RMSD>
4.498

$$$$
ligand
 OpenBabel11021811503D
libRbt.so/2013.1/901 2013/11/27
 22 24  0  0  0  0  0  0  0  0999 V2000
    1.3637    4.3569   18.8349 C   0  0  0  0  0  0  0  0  0  0  0  0
    2.2629    3.2788   18.9756 C   0  0  0  0  0  0  0  0  0  0  0  0
    2.7859    2.6717   17.8370 C   0  0  0  0  0  0  0  0  0  0  0  0
    2.4092    3.1418   16.5669 C   0  0  0  0  0  0  0  0  0  0  0  0
    1.4991    4.2180   16.4241 C   0  0  0  0  0  0  0  0  0  0  0  0
    0.9782    4.8216   17.5605 C   0  0  0  0  0  0  0  0  0  0  0  0
    0.7620    5.0281   20.0845 C   0  0  0  0  0  0  0  0  0  0  0  0
    1.6987    5.0738   21.3176 C   0  0  0  0  0  0  0  0  0  0  0  0
    1.1590    5.9140   22.4692 C   0  0  0  0  0  0  0  0  0  0  0  0
    1.7766    7.0749   22.9443 C   0  0  0  0  0  0  0  0  0  0  0  0
    1.0063    7.5429   23.9610 N   0  0  0  0  0  0  0  0  0  0  0  0
   -0.0999    6.7491   24.1895 C   0  0  0  0  0  0  0  0  0  0  0  0
   -0.0464    5.7083   23.2690 C   0  0  0  0  0  0  0  0  0  0  0  0
   -1.1151    4.7343   23.3094 C   0  0  0  0  0  0  0  0  0  0  0  0
   -1.1302    3.6703   22.4118 O   0  0  0  0  0  0  0  0  0  0  0  0
   -2.1211    4.8742   24.2562 N   0  0  0  0  0  0  0  0  0  0  0  0
   -2.1380    5.9187   25.1344 C   0  0  0  0  0  0  0  0  0  0  0  0
   -1.1624    6.8406   25.1256 N   0  0  0  0  0  0  0  0  0  0  0  0
   -3.2309    6.0326   26.1055 N   0  0  0  0  0  0  0  0  0  0  0  0
    2.9858    2.4634   15.3526 C   0  0  0  0  0  0  0  0  0  0  0  0
    2.2670    1.7774   14.6281 O   0  0  0  0  0  0  0  0  0  0  0  0
    4.3857    2.6279   15.0639 N   0  0  0  0  0  0  0  0  0  0  0  0
  1  2  2  0  0  0  0
  1  6  1  0  0  0  0
  1  7  1  0  0  0  0
  2  3  1  0  0  0  0
  3  4  2  0  0  0  0
  4  5  1  0  0  0  0
  4 20  1  0  0  0  0
  5  6  2  0  0  0  0
  7  8  1  0  0  0  0
  8  9  1  0  0  0  0
  9 10  2  0  0  0  0
  9 13  1  0  0  0  0
 10 11  1  0  0  0  0
 11 12  1  0  0  0  0
 12 13  2  0  0  0  0
 12 18  1  0  0  0  0
 13 14  1  0  0  0  0
 14 15  1  0  0  0  0
 14 16  2  0  0  0  0
 16 17  1  0  0  0  0
 17 18  2  0  0  0  0
 17 19  1  0  0  0  0
 20 21  2  0  0  0  0
 20 22  1  0  0  0  0
M  END
>  <CHROM.1>
33.57580709,110.26878090,171.70557066,-116.33954703,0.70917621,4.72763632
20.73373368,-1.09470660,0.55241369,0.94675581

>  <Name>
ligand

>  <RI>
0

>  <Rbt.Current_Directory>
/home/itssahil/PROJECTS/Mol_Feturizer/New_Systems/rnas/4LVY

>  <Rbt.Executable>
rbdock ($Id: //depot/dev/client3/rdock/2013.1/src/exe/rbdock.cxx#4 $)

>  <Rbt.Library>
libRbt.so (2013.1, Build901 2013/11/27)

>  <Rbt.Parameter_File>
/export/apps/rDock/src/rDock_2013.1_src/data/scripts/dock_solv.prm

>  <Rbt.Receptor>
prm/pocket_docking_7.prm

>  <SCORE>
-14.2421

>  <SCORE.INTER>
-14.1945

>  <SCORE.INTER.CONST>
1

>  <SCORE.INTER.POLAR>
0

>  <SCORE.INTER.ROT>
4

>  <SCORE.INTER.SOLV>
22.8544

>  <SCORE.INTER.VDW>
-23.3478

>  <SCORE.INTER.norm>
-0.645204

>  <SCORE.INTRA>
-0.0476122

>  <SCORE.INTRA.DIHEDRAL>
0.240787

>  <SCORE.INTRA.DIHEDRAL.0>
6.18831

>  <SCORE.INTRA.POLAR>
0

>  <SCORE.INTRA.POLAR.0>
0

>  <SCORE.INTRA.REPUL>
0

>  <SCORE.INTRA.REPUL.0>
0

>  <SCORE.INTRA.SOLV>
0.275016

>  <SCORE.INTRA.SOLV.lig_0>
-44.3465

>  <SCORE.INTRA.VDW>
-0.305513

>  <SCORE.INTRA.VDW.0>
-0.778272

>  <SCORE.INTRA.norm>
-0.00216419

>  <SCORE.RESTR>
0

>  <SCORE.RESTR.CAVITY>
0

>  <SCORE.RESTR.norm>
0

>  <SCORE.SYSTEM>
0

>  <SCORE.SYSTEM.CONST>
0

>  <SCORE.SYSTEM.DIHEDRAL>
0

>  <SCORE.SYSTEM.SOLV>
0

>  <SCORE.SYSTEM.norm>
0

>  <SCORE.heavy>
22

>  <SCORE.norm>
-0.647368

>  <RMSD>
4.507

$$$$
ligand
 OpenBabel11021811503D
libRbt.so/2013.1/901 2013/11/27
 22 24  0  0  0  0  0  0  0  0999 V2000
    0.2620    3.8374   20.5610 C   0  0  0  0  0  0  0  0  0  0  0  0
    0.9850    4.7485   19.7624 C   0  0  0  0  0  0  0  0  0  0  0  0
    2.1614    4.3325   19.1449 C   0  0  0  0  0  0  0  0  0  0  0  0
    2.6099    3.0128   19.3278 C   0  0  0  0  0  0  0  0  0  0  0  0
    1.8900    2.0997   20.1370 C   0  0  0  0  0  0  0  0  0  0  0  0
    0.7176    2.5166   20.7524 C   0  0  0  0  0  0  0  0  0  0  0  0
   -1.0323    4.2872   21.2657 C   0  0  0  0  0  0  0  0  0  0  0  0
   -1.0006    4.1967   22.8119 C   0  0  0  0  0  0  0  0  0  0  0  0
   -0.1615    5.2831   23.4746 C   0  0  0  0  0  0  0  0  0  0  0  0
   -0.6615    6.5324   23.8543 C   0  0  0  0  0  0  0  0  0  0  0  0
    0.3715    7.2176   24.4104 N   0  0  0  0  0  0  0  0  0  0  0  0
    1.5417    6.4850   24.4213 C   0  0  0  0  0  0  0  0  0  0  0  0
    1.2525    5.2546   23.8415 C   0  0  0  0  0  0  0  0  0  0  0  0
    2.3346    4.2998   23.7424 C   0  0  0  0  0  0  0  0  0  0  0  0
    2.1150    3.0451   23.1808 O   0  0  0  0  0  0  0  0  0  0  0  0
    3.5926    4.6534   24.2116 N   0  0  0  0  0  0  0  0  0  0  0  0
    3.8281    5.8703   24.7830 C   0  0  0  0  0  0  0  0  0  0  0  0
    2.8476    6.7807   24.8909 N   0  0  0  0  0  0  0  0  0  0  0  0
    5.1703    6.1916   25.2787 N   0  0  0  0  0  0  0  0  0  0  0  0
    3.8881    2.5911   18.6527 C   0  0  0  0  0  0  0  0  0  0  0  0
    4.7511    1.9864   19.2862 O   0  0  0  0  0  0  0  0  0  0  0  0
    4.0794    2.9141   17.2637 N   0  0  0  0  0  0  0  0  0  0  0  0
  1  2  2  0  0  0  0
  1  6  1  0  0  0  0
  1  7  1  0  0  0  0
  2  3  1  0  0  0  0
  3  4  2  0  0  0  0
  4  5  1  0  0  0  0
  4 20  1  0  0  0  0
  5  6  2  0  0  0  0
  7  8  1  0  0  0  0
  8  9  1  0  0  0  0
  9 10  2  0  0  0  0
  9 13  1  0  0  0  0
 10 11  1  0  0  0  0
 11 12  1  0  0  0  0
 12 13  2  0  0  0  0
 12 18  1  0  0  0  0
 13 14  1  0  0  0  0
 14 15  1  0  0  0  0
 14 16  2  0  0  0  0
 16 17  1  0  0  0  0
 17 18  2  0  0  0  0
 17 19  1  0  0  0  0
 20 21  2  0  0  0  0
 20 22  1  0  0  0  0
M  END
>  <CHROM.1>
-119.02858846,132.48812351,74.19027675,88.97159516,1.93659800,4.44148577
22.06569126,1.38349371,0.09718726,-2.09032578

>  <Name>
ligand

>  <RI>
0

>  <Rbt.Current_Directory>
/home/itssahil/PROJECTS/Mol_Feturizer/New_Systems/rnas/4LVY

>  <Rbt.Executable>
rbdock ($Id: //depot/dev/client3/rdock/2013.1/src/exe/rbdock.cxx#4 $)

>  <Rbt.Library>
libRbt.so (2013.1, Build901 2013/11/27)

>  <Rbt.Parameter_File>
/export/apps/rDock/src/rDock_2013.1_src/data/scripts/dock_solv.prm

>  <Rbt.Receptor>
prm/pocket_docking_5.prm

>  <SCORE>
-17.5081

>  <SCORE.INTER>
-16.642

>  <SCORE.INTER.CONST>
1

>  <SCORE.INTER.POLAR>
0

>  <SCORE.INTER.ROT>
4

>  <SCORE.INTER.SOLV>
8.96819

>  <SCORE.INTER.VDW>
-20.3507

>  <SCORE.INTER.norm>
-0.756454

>  <SCORE.INTRA>
-0.866058

>  <SCORE.INTRA.DIHEDRAL>
0.837162

>  <SCORE.INTRA.DIHEDRAL.0>
6.18831

>  <SCORE.INTRA.POLAR>
0

>  <SCORE.INTRA.POLAR.0>
0

>  <SCORE.INTRA.REPUL>
0

>  <SCORE.INTRA.REPUL.0>
0

>  <SCORE.INTRA.SOLV>
0.556625

>  <SCORE.INTRA.SOLV.lig_0>
-44.3465

>  <SCORE.INTRA.VDW>
-1.56295

>  <SCORE.INTRA.VDW.0>
-0.778272

>  <SCORE.INTRA.norm>
-0.0393663

>  <SCORE.RESTR>
0

>  <SCORE.RESTR.CAVITY>
0

>  <SCORE.RESTR.norm>
0

>  <SCORE.SYSTEM>
0

>  <SCORE.SYSTEM.CONST>
0

>  <SCORE.SYSTEM.DIHEDRAL>
0

>  <SCORE.SYSTEM.SOLV>
0

>  <SCORE.SYSTEM.norm>
0

>  <SCORE.heavy>
22

>  <SCORE.norm>
-0.795821

>  <RMSD>
4.549

$$$$
ligand
 OpenBabel11021811503D
libRbt.so/2013.1/901 2013/11/27
 22 24  0  0  0  0  0  0  0  0999 V2000
    0.2144    3.8235   20.6572 C   0  0  0  0  0  0  0  0  0  0  0  0
    0.6034    2.4692   20.7298 C   0  0  0  0  0  0  0  0  0  0  0  0
    1.7989    2.0687   20.1392 C   0  0  0  0  0  0  0  0  0  0  0  0
    2.5978    3.0192   19.4801 C   0  0  0  0  0  0  0  0  0  0  0  0
    2.2038    4.3775   19.3983 C   0  0  0  0  0  0  0  0  0  0  0  0
    1.0111    4.7748   19.9872 C   0  0  0  0  0  0  0  0  0  0  0  0
   -1.1144    4.2796   21.2900 C   0  0  0  0  0  0  0  0  0  0  0  0
   -1.1416    4.2617   22.8388 C   0  0  0  0  0  0  0  0  0  0  0  0
   -0.2521    5.3193   23.4819 C   0  0  0  0  0  0  0  0  0  0  0  0
   -0.7102    6.5693   23.9092 C   0  0  0  0  0  0  0  0  0  0  0  0
    0.3605    7.2247   24.4288 N   0  0  0  0  0  0  0  0  0  0  0  0
    1.5160    6.4713   24.3698 C   0  0  0  0  0  0  0  0  0  0  0  0
    1.1769    5.2583   23.7806 C   0  0  0  0  0  0  0  0  0  0  0  0
    2.2351    4.2867   23.6117 C   0  0  0  0  0  0  0  0  0  0  0  0
    1.9659    3.0477   23.0367 O   0  0  0  0  0  0  0  0  0  0  0  0
    3.5202    4.6084   24.0273 N   0  0  0  0  0  0  0  0  0  0  0  0
    3.8050    5.8090   24.6105 C   0  0  0  0  0  0  0  0  0  0  0  0
    2.8479    6.7342   24.7825 N   0  0  0  0  0  0  0  0  0  0  0  0
    5.1749    6.0963   25.0481 N   0  0  0  0  0  0  0  0  0  0  0  0
    3.8831    2.5577   18.8457 C   0  0  0  0  0  0  0  0  0  0  0  0
    4.6776    1.8725   19.4870 O   0  0  0  0  0  0  0  0  0  0  0  0
    4.1626    2.9379   17.4866 N   0  0  0  0  0  0  0  0  0  0  0  0
  1  2  2  0  0  0  0
  1  6  1  0  0  0  0
  1  7  1  0  0  0  0
  2  3  1  0  0  0  0
  3  4  2  0  0  0  0
  4  5  1  0  0  0  0
  4 20  1  0  0  0  0
  5  6  2  0  0  0  0
  7  8  1  0  0  0  0
  8  9  1  0  0  0  0
  9 10  2  0  0  0  0
  9 13  1  0  0  0  0
 10 11  1  0  0  0  0
 11 12  1  0  0  0  0
 12 13  2  0  0  0  0
 12 18  1  0  0  0  0
 13 14  1  0  0  0  0
 14 15  1  0  0  0  0
 14 16  2  0  0  0  0
 16 17  1  0  0  0  0
 17 18  2  0  0  0  0
 17 19  1  0  0  0  0
 20 21  2  0  0  0  0
 20 22  1  0  0  0  0
M  END
>  <CHROM.1>
69.93392159,-49.59687209,69.16241231,95.72578144,1.88974771,4.42797271,22.08048376
1.33742496,0.08141998,-2.12330126

>  <Name>
ligand

>  <RI>
0

>  <Rbt.Current_Directory>
/home/itssahil/PROJECTS/Mol_Feturizer/New_Systems/rnas/4LVY

>  <Rbt.Executable>
rbdock ($Id: //depot/dev/client3/rdock/2013.1/src/exe/rbdock.cxx#4 $)

>  <Rbt.Library>
libRbt.so (2013.1, Build901 2013/11/27)

>  <Rbt.Parameter_File>
/export/apps/rDock/src/rDock_2013.1_src/data/scripts/dock_solv.prm

>  <Rbt.Receptor>
prm/pocket_docking_4.prm

>  <SCORE>
-17.207

>  <SCORE.INTER>
-16.0092

>  <SCORE.INTER.CONST>
1

>  <SCORE.INTER.POLAR>
0

>  <SCORE.INTER.ROT>
4

>  <SCORE.INTER.SOLV>
8.7381

>  <SCORE.INTER.VDW>
-19.8522

>  <SCORE.INTER.norm>
-0.727691

>  <SCORE.INTRA>
-1.19776

>  <SCORE.INTRA.DIHEDRAL>
0.444049

>  <SCORE.INTRA.DIHEDRAL.0>
6.18831

>  <SCORE.INTRA.POLAR>
0

>  <SCORE.INTRA.POLAR.0>
0

>  <SCORE.INTRA.REPUL>
0

>  <SCORE.INTRA.REPUL.0>
0

>  <SCORE.INTRA.SOLV>
0.748975

>  <SCORE.INTRA.SOLV.lig_0>
-44.3465

>  <SCORE.INTRA.VDW>
-1.79427

>  <SCORE.INTRA.VDW.0>
-0.778272

>  <SCORE.INTRA.norm>
-0.0544435

>  <SCORE.RESTR>
0

>  <SCORE.RESTR.CAVITY>
0

>  <SCORE.RESTR.norm>
0

>  <SCORE.SYSTEM>
0

>  <SCORE.SYSTEM.CONST>
0

>  <SCORE.SYSTEM.DIHEDRAL>
0

>  <SCORE.SYSTEM.SOLV>
0

>  <SCORE.SYSTEM.norm>
0

>  <SCORE.heavy>
22

>  <SCORE.norm>
-0.782135

>  <RMSD>
4.563

$$$$
ligand
 OpenBabel11021811503D
libRbt.so/2013.1/901 2013/11/27
 22 24  0  0  0  0  0  0  0  0999 V2000
    0.2115    3.4682   22.0945 C   0  0  0  0  0  0  0  0  0  0  0  0
    1.4005    3.6291   22.8367 C   0  0  0  0  0  0  0  0  0  0  0  0
    2.5576    2.9736   22.4247 C   0  0  0  0  0  0  0  0  0  0  0  0
    2.5223    2.1621   21.2774 C   0  0  0  0  0  0  0  0  0  0  0  0
    1.3267    1.9922   20.5366 C   0  0  0  0  0  0  0  0  0  0  0  0
    0.1738    2.6460   20.9494 C   0  0  0  0  0  0  0  0  0  0  0  0
   -1.0821    4.1724   22.5472 C   0  0  0  0  0  0  0  0  0  0  0  0
   -1.3951    5.5006   21.8138 C   0  0  0  0  0  0  0  0  0  0  0  0
   -0.1564    6.3190   21.4681 C   0  0  0  0  0  0  0  0  0  0  0  0
    0.1899    6.6986   20.1678 C   0  0  0  0  0  0  0  0  0  0  0  0
    1.3410    7.4145   20.2600 N   0  0  0  0  0  0  0  0  0  0  0  0
    1.7826    7.5326   21.5627 C   0  0  0  0  0  0  0  0  0  0  0  0
    0.8665    6.8574   22.3617 C   0  0  0  0  0  0  0  0  0  0  0  0
    1.1157    6.8438   23.7865 C   0  0  0  0  0  0  0  0  0  0  0  0
    0.2357    6.1939   24.6475 O   0  0  0  0  0  0  0  0  0  0  0  0
    2.2441    7.4842   24.2811 N   0  0  0  0  0  0  0  0  0  0  0  0
    3.1114    8.1437   23.4593 C   0  0  0  0  0  0  0  0  0  0  0  0
    2.9116    8.1763   22.1324 N   0  0  0  0  0  0  0  0  0  0  0  0
    4.2809    8.8192   24.0307 N   0  0  0  0  0  0  0  0  0  0  0  0
    3.7867    1.4607   20.8574 C   0  0  0  0  0  0  0  0  0  0  0  0
    4.2875    1.6945   19.7590 O   0  0  0  0  0  0  0  0  0  0  0  0
    4.3881    0.5139   21.7585 N   0  0  0  0  0  0  0  0  0  0  0  0
  1  2  2  0  0  0  0
  1  6  1  0  0  0  0
  1  7  1  0  0  0  0
  2  3  1  0  0  0  0
  3  4  2  0  0  0  0
  4  5  1  0  0  0  0
  4 20  1  0  0  0  0
  5  6  2  0  0  0  0
  7  8  1  0  0  0  0
  8  9  1  0  0  0  0
  9 10  2  0  0  0  0
  9 13  1  0  0  0  0
 10 11  1  0  0  0  0
 11 12  1  0  0  0  0
 12 13  2  0  0  0  0
 12 18  1  0  0  0  0
 13 14  1  0  0  0  0
 14 15  1  0  0  0  0
 14 16  2  0  0  0  0
 16 17  1  0  0  0  0
 17 18  2  0  0  0  0
 17 19  1  0  0  0  0
 20 21  2  0  0  0  0
 20 22  1  0  0  0  0
M  END
>  <CHROM.1>
98.06273486,-119.12379459,-35.66069876,121.60009691,1.66622322,5.04916334
22.06789307,1.40124286,0.08349501,-2.81235361

>  <Name>
ligand

>  <RI>
0

>  <Rbt.Current_Directory>
/home/itssahil/PROJECTS/Mol_Feturizer/New_Systems/rnas/4LVY

>  <Rbt.Executable>
rbdock ($Id: //depot/dev/client3/rdock/2013.1/src/exe/rbdock.cxx#4 $)

>  <Rbt.Library>
libRbt.so (2013.1, Build901 2013/11/27)

>  <Rbt.Parameter_File>
/export/apps/rDock/src/rDock_2013.1_src/data/scripts/dock_solv.prm

>  <Rbt.Receptor>
prm/pocket_docking_7.prm

>  <SCORE>
-15.7837

>  <SCORE.INTER>
-15.253

>  <SCORE.INTER.CONST>
1

>  <SCORE.INTER.POLAR>
0

>  <SCORE.INTER.ROT>
4

>  <SCORE.INTER.SOLV>
11.4966

>  <SCORE.INTER.VDW>
-20.2676

>  <SCORE.INTER.norm>
-0.69332

>  <SCORE.INTRA>
-0.530653

>  <SCORE.INTRA.DIHEDRAL>
2.25689

>  <SCORE.INTRA.DIHEDRAL.0>
6.18831

>  <SCORE.INTRA.POLAR>
0

>  <SCORE.INTRA.POLAR.0>
0

>  <SCORE.INTRA.REPUL>
0

>  <SCORE.INTRA.REPUL.0>
0

>  <SCORE.INTRA.SOLV>
0.424264

>  <SCORE.INTRA.SOLV.lig_0>
-44.3465

>  <SCORE.INTRA.VDW>
-1.87123

>  <SCORE.INTRA.VDW.0>
-0.778272

>  <SCORE.INTRA.norm>
-0.0241206

>  <SCORE.RESTR>
0

>  <SCORE.RESTR.CAVITY>
0

>  <SCORE.RESTR.norm>
0

>  <SCORE.SYSTEM>
0

>  <SCORE.SYSTEM.CONST>
0

>  <SCORE.SYSTEM.DIHEDRAL>
0

>  <SCORE.SYSTEM.SOLV>
0

>  <SCORE.SYSTEM.norm>
0

>  <SCORE.heavy>
22

>  <SCORE.norm>
-0.71744

>  <RMSD>
4.656

$$$$
ligand
 OpenBabel11021811503D
libRbt.so/2013.1/901 2013/11/27
 22 24  0  0  0  0  0  0  0  0999 V2000
    2.1806    2.4710   21.6228 C   0  0  0  0  0  0  0  0  0  0  0  0
    1.8176    3.2853   22.7163 C   0  0  0  0  0  0  0  0  0  0  0  0
    2.7016    3.4335   23.7816 C   0  0  0  0  0  0  0  0  0  0  0  0
    3.9402    2.7693   23.7508 C   0  0  0  0  0  0  0  0  0  0  0  0
    4.3020    1.9438   22.6579 C   0  0  0  0  0  0  0  0  0  0  0  0
    3.4189    1.7967   21.5969 C   0  0  0  0  0  0  0  0  0  0  0  0
    1.2063    2.2822   20.4442 C   0  0  0  0  0  0  0  0  0  0  0  0
   -0.2769    2.5937   20.7652 C   0  0  0  0  0  0  0  0  0  0  0  0
   -0.5536    4.0705   21.0221 C   0  0  0  0  0  0  0  0  0  0  0  0
   -1.3227    4.5462   22.0884 C   0  0  0  0  0  0  0  0  0  0  0  0
   -1.3379    5.9012   21.9894 N   0  0  0  0  0  0  0  0  0  0  0  0
   -0.6139    6.3562   20.9054 C   0  0  0  0  0  0  0  0  0  0  0  0
   -0.0982    5.2346   20.2654 C   0  0  0  0  0  0  0  0  0  0  0  0
    0.7104    5.4590   19.0873 C   0  0  0  0  0  0  0  0  0  0  0  0
    1.2659    4.3826   18.4010 O   0  0  0  0  0  0  0  0  0  0  0  0
    0.9212    6.7600   18.6503 N   0  0  0  0  0  0  0  0  0  0  0  0
    0.4028    7.8322   19.3167 C   0  0  0  0  0  0  0  0  0  0  0  0
   -0.3525    7.6611   20.4131 N   0  0  0  0  0  0  0  0  0  0  0  0
    0.6668    9.1886   18.8256 N   0  0  0  0  0  0  0  0  0  0  0  0
    4.8748    2.9429   24.9185 C   0  0  0  0  0  0  0  0  0  0  0  0
    4.8559    2.1403   25.8499 O   0  0  0  0  0  0  0  0  0  0  0  0
    5.7784    4.0625   24.9246 N   0  0  0  0  0  0  0  0  0  0  0  0
  1  2  2  0  0  0  0
  1  6  1  0  0  0  0
  1  7  1  0  0  0  0
  2  3  1  0  0  0  0
  3  4  2  0  0  0  0
  4  5  1  0  0  0  0
  4 20  1  0  0  0  0
  5  6  2  0  0  0  0
  7  8  1  0  0  0  0
  8  9  1  0  0  0  0
  9 10  2  0  0  0  0
  9 13  1  0  0  0  0
 10 11  1  0  0  0  0
 11 12  1  0  0  0  0
 12 13  2  0  0  0  0
 12 18  1  0  0  0  0
 13 14  1  0  0  0  0
 14 15  1  0  0  0  0
 14 16  2  0  0  0  0
 16 17  1  0  0  0  0
 17 18  2  0  0  0  0
 17 19  1  0  0  0  0
 20 21  2  0  0  0  0
 20 22  1  0  0  0  0
M  END
>  <CHROM.1>
-20.57917038,92.96807652,68.55288827,-134.05129218,1.57862205,4.43448738
21.52769698,0.66596585,0.73847158,3.00870534

>  <Name>
ligand

>  <RI>
0

>  <Rbt.Current_Directory>
/home/itssahil/PROJECTS/Mol_Feturizer/New_Systems/rnas/4LVY

>  <Rbt.Executable>
rbdock ($Id: //depot/dev/client3/rdock/2013.1/src/exe/rbdock.cxx#4 $)

>  <Rbt.Library>
libRbt.so (2013.1, Build901 2013/11/27)

>  <Rbt.Parameter_File>
/export/apps/rDock/src/rDock_2013.1_src/data/scripts/dock_solv.prm

>  <Rbt.Receptor>
prm/pocket_docking_7.prm

>  <SCORE>
-14.5873

>  <SCORE.INTER>
-14.4555

>  <SCORE.INTER.CONST>
1

>  <SCORE.INTER.POLAR>
0

>  <SCORE.INTER.ROT>
4

>  <SCORE.INTER.SOLV>
11.5588

>  <SCORE.INTER.VDW>
-19.7566

>  <SCORE.INTER.norm>
-0.657069

>  <SCORE.INTRA>
-0.131744

>  <SCORE.INTRA.DIHEDRAL>
0.438333

>  <SCORE.INTRA.DIHEDRAL.0>
6.18831

>  <SCORE.INTRA.POLAR>
0

>  <SCORE.INTRA.POLAR.0>
0

>  <SCORE.INTRA.REPUL>
0

>  <SCORE.INTRA.REPUL.0>
0

>  <SCORE.INTRA.SOLV>
0.363961

>  <SCORE.INTRA.SOLV.lig_0>
-44.3465

>  <SCORE.INTRA.VDW>
-0.532891

>  <SCORE.INTRA.VDW.0>
-0.778272

>  <SCORE.INTRA.norm>
-0.00598835

>  <SCORE.RESTR>
0

>  <SCORE.RESTR.CAVITY>
0

>  <SCORE.RESTR.norm>
0

>  <SCORE.SYSTEM>
0

>  <SCORE.SYSTEM.CONST>
0

>  <SCORE.SYSTEM.DIHEDRAL>
0

>  <SCORE.SYSTEM.SOLV>
0

>  <SCORE.SYSTEM.norm>
0

>  <SCORE.heavy>
22

>  <SCORE.norm>
-0.663058

>  <RMSD>
4.855

$$$$
ligand
 OpenBabel11021811503D
libRbt.so/2013.1/901 2013/11/27
 22 24  0  0  0  0  0  0  0  0999 V2000
    2.7737    3.3369   18.5640 C   0  0  0  0  0  0  0  0  0  0  0  0
    1.7666    4.3118   18.7245 C   0  0  0  0  0  0  0  0  0  0  0  0
    1.0170    4.7087   17.6205 C   0  0  0  0  0  0  0  0  0  0  0  0
    1.2761    4.1326   16.3646 C   0  0  0  0  0  0  0  0  0  0  0  0
    2.2934    3.1605   16.2001 C   0  0  0  0  0  0  0  0  0  0  0  0
    3.0402    2.7667   17.3021 C   0  0  0  0  0  0  0  0  0  0  0  0
    3.6242    2.8998   19.7722 C   0  0  0  0  0  0  0  0  0  0  0  0
    2.8881    2.0060   20.8014 C   0  0  0  0  0  0  0  0  0  0  0  0
    1.4850    2.4920   21.1456 C   0  0  0  0  0  0  0  0  0  0  0  0
    0.3248    2.0395   20.5099 C   0  0  0  0  0  0  0  0  0  0  0  0
   -0.7194    2.6901   21.0863 N   0  0  0  0  0  0  0  0  0  0  0  0
   -0.3127    3.5583   22.0798 C   0  0  0  0  0  0  0  0  0  0  0  0
    1.0727    3.4654   22.1542 C   0  0  0  0  0  0  0  0  0  0  0  0
    1.7386    4.2898   23.1387 C   0  0  0  0  0  0  0  0  0  0  0  0
    3.1233    4.2417   23.2744 O   0  0  0  0  0  0  0  0  0  0  0  0
    0.9788    5.1299   23.9418 N   0  0  0  0  0  0  0  0  0  0  0  0
   -0.3812    5.1808   23.8402 C   0  0  0  0  0  0  0  0  0  0  0  0
   -1.0321    4.4301   22.9377 N   0  0  0  0  0  0  0  0  0  0  0  0
   -1.1418    6.0721   24.7221 N   0  0  0  0  0  0  0  0  0  0  0  0
    0.4541    4.5841   15.1866 C   0  0  0  0  0  0  0  0  0  0  0  0
    0.5101    5.7517   14.8050 O   0  0  0  0  0  0  0  0  0  0  0  0
   -0.3966    3.6298   14.5265 N   0  0  0  0  0  0  0  0  0  0  0  0
  1  2  2  0  0  0  0
  1  6  1  0  0  0  0
  1  7  1  0  0  0  0
  2  3  1  0  0  0  0
  3  4  2  0  0  0  0
  4  5  1  0  0  0  0
  4 20  1  0  0  0  0
  5  6  2  0  0  0  0
  7  8  1  0  0  0  0
  8  9  1  0  0  0  0
  9 10  2  0  0  0  0
  9 13  1  0  0  0  0
 10 11  1  0  0  0  0
 11 12  1  0  0  0  0
 12 13  2  0  0  0  0
 12 18  1  0  0  0  0
 13 14  1  0  0  0  0
 14 15  1  0  0  0  0
 14 16  2  0  0  0  0
 16 17  1  0  0  0  0
 17 18  2  0  0  0  0
 17 19  1  0  0  0  0
 20 21  2  0  0  0  0
 20 22  1  0  0  0  0
M  END
>  <CHROM.1>
73.13437448,63.24677248,-44.46752552,94.05948074,1.10356053,3.88861146,19.97296050
-1.47253889,-0.52499088,1.57296014

>  <Name>
ligand

>  <RI>
0

>  <Rbt.Current_Directory>
/home/itssahil/PROJECTS/Mol_Feturizer/New_Systems/rnas/4LVY

>  <Rbt.Executable>
rbdock ($Id: //depot/dev/client3/rdock/2013.1/src/exe/rbdock.cxx#4 $)

>  <Rbt.Library>
libRbt.so (2013.1, Build901 2013/11/27)

>  <Rbt.Parameter_File>
/export/apps/rDock/src/rDock_2013.1_src/data/scripts/dock_solv.prm

>  <Rbt.Receptor>
prm/pocket_docking_7.prm

>  <SCORE>
-17.616

>  <SCORE.INTER>
-16.7699

>  <SCORE.INTER.CONST>
1

>  <SCORE.INTER.POLAR>
0

>  <SCORE.INTER.ROT>
4

>  <SCORE.INTER.SOLV>
18.1676

>  <SCORE.INTER.VDW>
-23.5025

>  <SCORE.INTER.norm>
-0.762269

>  <SCORE.INTRA>
-0.846084

>  <SCORE.INTRA.DIHEDRAL>
1.05776

>  <SCORE.INTRA.DIHEDRAL.0>
6.18831

>  <SCORE.INTRA.POLAR>
0

>  <SCORE.INTRA.POLAR.0>
0

>  <SCORE.INTRA.REPUL>
0

>  <SCORE.INTRA.REPUL.0>
0

>  <SCORE.INTRA.SOLV>
0.169233

>  <SCORE.INTRA.SOLV.lig_0>
-44.3465

>  <SCORE.INTRA.VDW>
-1.45958

>  <SCORE.INTRA.VDW.0>
-0.778272

>  <SCORE.INTRA.norm>
-0.0384584

>  <SCORE.RESTR>
0

>  <SCORE.RESTR.CAVITY>
0

>  <SCORE.RESTR.norm>
0

>  <SCORE.SYSTEM>
0

>  <SCORE.SYSTEM.CONST>
0

>  <SCORE.SYSTEM.DIHEDRAL>
0

>  <SCORE.SYSTEM.SOLV>
0

>  <SCORE.SYSTEM.norm>
0

>  <SCORE.heavy>
22

>  <SCORE.norm>
-0.800728

>  <RMSD>
4.959

$$$$
ligand
 OpenBabel11021811503D
libRbt.so/2013.1/901 2013/11/27
 22 24  0  0  0  0  0  0  0  0999 V2000
    0.1423    3.4074   21.9770 C   0  0  0  0  0  0  0  0  0  0  0  0
    1.3212    3.5163   22.7445 C   0  0  0  0  0  0  0  0  0  0  0  0
    2.5097    2.9851   22.2510 C   0  0  0  0  0  0  0  0  0  0  0  0
    2.5157    2.3486   20.9976 C   0  0  0  0  0  0  0  0  0  0  0  0
    1.3308    2.2301   20.2303 C   0  0  0  0  0  0  0  0  0  0  0  0
    0.1465    2.7598   20.7243 C   0  0  0  0  0  0  0  0  0  0  0  0
   -1.1850    3.9741   22.5167 C   0  0  0  0  0  0  0  0  0  0  0  0
   -1.3895    5.4924   22.2871 C   0  0  0  0  0  0  0  0  0  0  0  0
   -0.3207    6.3625   22.9385 C   0  0  0  0  0  0  0  0  0  0  0  0
   -0.3484    6.7599   24.2787 C   0  0  0  0  0  0  0  0  0  0  0  0
    0.7629    7.5128   24.4892 N   0  0  0  0  0  0  0  0  0  0  0  0
    1.5348    7.6385   23.3514 C   0  0  0  0  0  0  0  0  0  0  0  0
    0.8901    6.9262   22.3461 C   0  0  0  0  0  0  0  0  0  0  0  0
    1.5179    6.9064   21.0431 C   0  0  0  0  0  0  0  0  0  0  0  0
    0.9326    6.2062   19.9919 O   0  0  0  0  0  0  0  0  0  0  0  0
    2.7080    7.5969   20.8560 N   0  0  0  0  0  0  0  0  0  0  0  0
    3.3105    8.2750   21.8757 C   0  0  0  0  0  0  0  0  0  0  0  0
    2.7560    8.3150   23.0974 N   0  0  0  0  0  0  0  0  0  0  0  0
    4.5757    8.9758   21.6331 N   0  0  0  0  0  0  0  0  0  0  0  0
    3.8138    1.7784   20.4905 C   0  0  0  0  0  0  0  0  0  0  0  0
    4.4717    1.0163   21.1966 O   0  0  0  0  0  0  0  0  0  0  0  0
    4.2676    2.1463   19.1757 N   0  0  0  0  0  0  0  0  0  0  0  0
  1  2  2  0  0  0  0
  1  6  1  0  0  0  0
  1  7  1  0  0  0  0
  2  3  1  0  0  0  0
  3  4  2  0  0  0  0
  4  5  1  0  0  0  0
  4 20  1  0  0  0  0
  5  6  2  0  0  0  0
  7  8  1  0  0  0  0
  8  9  1  0  0  0  0
  9 10  2  0  0  0  0
  9 13  1  0  0  0  0
 10 11  1  0  0  0  0
 11 12  1  0  0  0  0
 12 13  2  0  0  0  0
 12 18  1  0  0  0  0
 13 14  1  0  0  0  0
 14 15  1  0  0  0  0
 14 16  2  0  0  0  0
 16 17  1  0  0  0  0
 17 18  2  0  0  0  0
 17 19  1  0  0  0  0
 20 21  2  0  0  0  0
 20 22  1  0  0  0  0
M  END
>  <CHROM.1>
82.95138216,52.02674224,-59.99279258,-83.49539398,1.68400621,5.15545083,21.81407280
1.34451360,-0.37973223,-2.88342505

>  <Name>
ligand

>  <RI>
0

>  <Rbt.Current_Directory>
/home/itssahil/PROJECTS/Mol_Feturizer/New_Systems/rnas/4LVY

>  <Rbt.Executable>
rbdock ($Id: //depot/dev/client3/rdock/2013.1/src/exe/rbdock.cxx#4 $)

>  <Rbt.Library>
libRbt.so (2013.1, Build901 2013/11/27)

>  <Rbt.Parameter_File>
/export/apps/rDock/src/rDock_2013.1_src/data/scripts/dock_solv.prm

>  <Rbt.Receptor>
prm/pocket_docking_5.prm

>  <SCORE>
-17.3653

>  <SCORE.INTER>
-15.6126

>  <SCORE.INTER.CONST>
1

>  <SCORE.INTER.POLAR>
0

>  <SCORE.INTER.ROT>
4

>  <SCORE.INTER.SOLV>
8.99628

>  <SCORE.INTER.VDW>
-19.6738

>  <SCORE.INTER.norm>
-0.709662

>  <SCORE.INTRA>
-1.75272

>  <SCORE.INTRA.DIHEDRAL>
0.0589872

>  <SCORE.INTRA.DIHEDRAL.0>
6.18831

>  <SCORE.INTRA.POLAR>
0

>  <SCORE.INTRA.POLAR.0>
0

>  <SCORE.INTRA.REPUL>
0

>  <SCORE.INTRA.REPUL.0>
0

>  <SCORE.INTRA.SOLV>
0.26158

>  <SCORE.INTRA.SOLV.lig_0>
-44.3465

>  <SCORE.INTRA.VDW>
-1.913

>  <SCORE.INTRA.VDW.0>
-0.778272

>  <SCORE.INTRA.norm>
-0.0796691

>  <SCORE.RESTR>
0

>  <SCORE.RESTR.CAVITY>
0

>  <SCORE.RESTR.norm>
0

>  <SCORE.SYSTEM>
0

>  <SCORE.SYSTEM.CONST>
0

>  <SCORE.SYSTEM.DIHEDRAL>
0

>  <SCORE.SYSTEM.SOLV>
0

>  <SCORE.SYSTEM.norm>
0

>  <SCORE.heavy>
22

>  <SCORE.norm>
-0.789331

>  <RMSD>
4.983

$$$$
ligand
 OpenBabel11021811503D
libRbt.so/2013.1/901 2013/11/27
 22 24  0  0  0  0  0  0  0  0999 V2000
    1.3854    4.4032   17.9788 C   0  0  0  0  0  0  0  0  0  0  0  0
    2.4809    3.5378   18.1826 C   0  0  0  0  0  0  0  0  0  0  0  0
    3.0031    2.8301   17.1033 C   0  0  0  0  0  0  0  0  0  0  0  0
    2.4303    2.9886   15.8293 C   0  0  0  0  0  0  0  0  0  0  0  0
    1.3243    3.8500   15.6251 C   0  0  0  0  0  0  0  0  0  0  0  0
    0.8045    4.5542   16.7027 C   0  0  0  0  0  0  0  0  0  0  0  0
    0.7843    5.1799   19.1661 C   0  0  0  0  0  0  0  0  0  0  0  0
    0.1590    4.2979   20.2756 C   0  0  0  0  0  0  0  0  0  0  0  0
    1.1575    3.3729   20.9618 C   0  0  0  0  0  0  0  0  0  0  0  0
    1.4693    2.0875   20.5084 C   0  0  0  0  0  0  0  0  0  0  0  0
    2.3929    1.5806   21.3662 N   0  0  0  0  0  0  0  0  0  0  0  0
    2.7151    2.4672   22.3743 C   0  0  0  0  0  0  0  0  0  0  0  0
    1.9600    3.6148   22.1585 C   0  0  0  0  0  0  0  0  0  0  0  0
    2.1292    4.7034   23.0958 C   0  0  0  0  0  0  0  0  0  0  0  0
    1.4115    5.8857   22.9363 O   0  0  0  0  0  0  0  0  0  0  0  0
    3.0131    4.5511   24.1557 N   0  0  0  0  0  0  0  0  0  0  0  0
    3.7415    3.4091   24.3225 C   0  0  0  0  0  0  0  0  0  0  0  0
    3.6095    2.3788   23.4723 N   0  0  0  0  0  0  0  0  0  0  0  0
    4.6748    3.3017   25.4486 N   0  0  0  0  0  0  0  0  0  0  0  0
    3.0115    2.2071   14.6809 C   0  0  0  0  0  0  0  0  0  0  0  0
    2.4849    1.1565   14.3190 O   0  0  0  0  0  0  0  0  0  0  0  0
    4.1903    2.7082   14.0256 N   0  0  0  0  0  0  0  0  0  0  0  0
  1  2  2  0  0  0  0
  1  6  1  0  0  0  0
  1  7  1  0  0  0  0
  2  3  1  0  0  0  0
  3  4  2  0  0  0  0
  4  5  1  0  0  0  0
  4 20  1  0  0  0  0
  5  6  2  0  0  0  0
  7  8  1  0  0  0  0
  8  9  1  0  0  0  0
  9 10  2  0  0  0  0
  9 13  1  0  0  0  0
 10 11  1  0  0  0  0
 11 12  1  0  0  0  0
 12 13  2  0  0  0  0
 12 18  1  0  0  0  0
 13 14  1  0  0  0  0
 14 15  1  0  0  0  0
 14 16  2  0  0  0  0
 16 17  1  0  0  0  0
 17 18  2  0  0  0  0
 17 19  1  0  0  0  0
 20 21  2  0  0  0  0
 20 22  1  0  0  0  0
M  END
>  <CHROM.1>
-63.44586938,98.00963914,62.34255118,-88.18789466,2.29772120,3.41612353,19.79402622
1.64273387,0.79332544,-1.73614488

>  <Name>
ligand

>  <RI>
0

>  <Rbt.Current_Directory>
/home/itssahil/PROJECTS/Mol_Feturizer/New_Systems/rnas/4LVY

>  <Rbt.Executable>
rbdock ($Id: //depot/dev/client3/rdock/2013.1/src/exe/rbdock.cxx#4 $)

>  <Rbt.Library>
libRbt.so (2013.1, Build901 2013/11/27)

>  <Rbt.Parameter_File>
/export/apps/rDock/src/rDock_2013.1_src/data/scripts/dock_solv.prm

>  <Rbt.Receptor>
prm/pocket_docking_7.prm

>  <SCORE>
-12.7458

>  <SCORE.INTER>
-11.8197

>  <SCORE.INTER.CONST>
1

>  <SCORE.INTER.POLAR>
0

>  <SCORE.INTER.ROT>
4

>  <SCORE.INTER.SOLV>
6.85746

>  <SCORE.INTER.VDW>
-16.4323

>  <SCORE.INTER.norm>
-0.537257

>  <SCORE.INTRA>
-0.926176

>  <SCORE.INTRA.DIHEDRAL>
0.0299966

>  <SCORE.INTRA.DIHEDRAL.0>
6.18831

>  <SCORE.INTRA.POLAR>
0

>  <SCORE.INTRA.POLAR.0>
0

>  <SCORE.INTRA.REPUL>
0

>  <SCORE.INTRA.REPUL.0>
0

>  <SCORE.INTRA.SOLV>
0.145287

>  <SCORE.INTRA.SOLV.lig_0>
-44.3465

>  <SCORE.INTRA.VDW>
-1.01382

>  <SCORE.INTRA.VDW.0>
-0.778272

>  <SCORE.INTRA.norm>
-0.0420989

>  <SCORE.RESTR>
0

>  <SCORE.RESTR.CAVITY>
0

>  <SCORE.RESTR.norm>
0

>  <SCORE.SYSTEM>
0

>  <SCORE.SYSTEM.CONST>
0

>  <SCORE.SYSTEM.DIHEDRAL>
0

>  <SCORE.SYSTEM.SOLV>
0

>  <SCORE.SYSTEM.norm>
0

>  <SCORE.heavy>
22

>  <SCORE.norm>
-0.579356

>  <RMSD>
5.014

$$$$
ligand
 OpenBabel11021811503D
libRbt.so/2013.1/901 2013/11/27
 22 24  0  0  0  0  0  0  0  0999 V2000
    0.1185    3.5451   22.0566 C   0  0  0  0  0  0  0  0  0  0  0  0
    1.3089    3.6486   22.8068 C   0  0  0  0  0  0  0  0  0  0  0  0
    2.4552    2.9942   22.3639 C   0  0  0  0  0  0  0  0  0  0  0  0
    2.4076    2.2409   21.1780 C   0  0  0  0  0  0  0  0  0  0  0  0
    1.2106    2.1283   20.4288 C   0  0  0  0  0  0  0  0  0  0  0  0
    0.0685    2.7810   20.8724 C   0  0  0  0  0  0  0  0  0  0  0  0
   -1.1634    4.2485   22.5424 C   0  0  0  0  0  0  0  0  0  0  0  0
   -1.2098    5.7753   22.2843 C   0  0  0  0  0  0  0  0  0  0  0  0
   -0.0668    6.5444   22.9366 C   0  0  0  0  0  0  0  0  0  0  0  0
   -0.0107    6.8516   24.2995 C   0  0  0  0  0  0  0  0  0  0  0  0
    1.1479    7.5315   24.5026 N   0  0  0  0  0  0  0  0  0  0  0  0
    1.8718    7.6944   23.3383 C   0  0  0  0  0  0  0  0  0  0  0  0
    1.1438    7.0849   22.3223 C   0  0  0  0  0  0  0  0  0  0  0  0
    1.7084    7.1213   20.9911 C   0  0  0  0  0  0  0  0  0  0  0  0
    1.0381    6.5239   19.9272 O   0  0  0  0  0  0  0  0  0  0  0  0
    2.9238    7.7618   20.7900 N   0  0  0  0  0  0  0  0  0  0  0  0
    3.6086    8.3384   21.8202 C   0  0  0  0  0  0  0  0  0  0  0  0
    3.1144    8.3239   23.0681 N   0  0  0  0  0  0  0  0  0  0  0  0
    4.8970    8.9891   21.5608 N   0  0  0  0  0  0  0  0  0  0  0  0
    3.6605    1.5391   20.7251 C   0  0  0  0  0  0  0  0  0  0  0  0
    4.1505    0.6446   21.4119 O   0  0  0  0  0  0  0  0  0  0  0  0
    4.2709    1.9386   19.4850 N   0  0  0  0  0  0  0  0  0  0  0  0
  1  2  2  0  0  0  0
  1  6  1  0  0  0  0
  1  7  1  0  0  0  0
  2  3  1  0  0  0  0
  3  4  2  0  0  0  0
  4  5  1  0  0  0  0
  4 20  1  0  0  0  0
  5  6  2  0  0  0  0
  7  8  1  0  0  0  0
  8  9  1  0  0  0  0
  9 10  2  0  0  0  0
  9 13  1  0  0  0  0
 10 11  1  0  0  0  0
 11 12  1  0  0  0  0
 12 13  2  0  0  0  0
 12 18  1  0  0  0  0
 13 14  1  0  0  0  0
 14 15  1  0  0  0  0
 14 16  2  0  0  0  0
 16 17  1  0  0  0  0
 17 18  2  0  0  0  0
 17 19  1  0  0  0  0
 20 21  2  0  0  0  0
 20 22  1  0  0  0  0
M  END
>  <CHROM.1>
77.48855163,63.96864685,-58.84811047,-76.88679606,1.79165840,5.20558320,21.86858539
1.45977321,-0.36414841,-2.91703047

>  <Name>
ligand

>  <RI>
0

>  <Rbt.Current_Directory>
/home/itssahil/PROJECTS/Mol_Feturizer/New_Systems/rnas/4LVY

>  <Rbt.Executable>
rbdock ($Id: //depot/dev/client3/rdock/2013.1/src/exe/rbdock.cxx#4 $)

>  <Rbt.Library>
libRbt.so (2013.1, Build901 2013/11/27)

>  <Rbt.Parameter_File>
/export/apps/rDock/src/rDock_2013.1_src/data/scripts/dock_solv.prm

>  <Rbt.Receptor>
prm/pocket_docking_7.prm

>  <SCORE>
-18.1029

>  <SCORE.INTER>
-16.4843

>  <SCORE.INTER.CONST>
1

>  <SCORE.INTER.POLAR>
0

>  <SCORE.INTER.ROT>
4

>  <SCORE.INTER.SOLV>
9.06437

>  <SCORE.INTER.VDW>
-20.2777

>  <SCORE.INTER.norm>
-0.749287

>  <SCORE.INTRA>
-1.61855

>  <SCORE.INTRA.DIHEDRAL>
0.0744147

>  <SCORE.INTRA.DIHEDRAL.0>
6.18831

>  <SCORE.INTRA.POLAR>
0

>  <SCORE.INTRA.POLAR.0>
0

>  <SCORE.INTRA.REPUL>
0

>  <SCORE.INTRA.REPUL.0>
0

>  <SCORE.INTRA.SOLV>
0.126547

>  <SCORE.INTRA.SOLV.lig_0>
-44.3465

>  <SCORE.INTRA.VDW>
-1.71903

>  <SCORE.INTRA.VDW.0>
-0.778272

>  <SCORE.INTRA.norm>
-0.0735705

>  <SCORE.RESTR>
0

>  <SCORE.RESTR.CAVITY>
0

>  <SCORE.RESTR.norm>
0

>  <SCORE.SYSTEM>
0

>  <SCORE.SYSTEM.CONST>
0

>  <SCORE.SYSTEM.DIHEDRAL>
0

>  <SCORE.SYSTEM.SOLV>
0

>  <SCORE.SYSTEM.norm>
0

>  <SCORE.heavy>
22

>  <SCORE.norm>
-0.822857

>  <RMSD>
5.139

$$$$
ligand
 OpenBabel11021811503D
libRbt.so/2013.1/901 2013/11/27
 22 24  0  0  0  0  0  0  0  0999 V2000
    0.0263    3.6934   22.3210 C   0  0  0  0  0  0  0  0  0  0  0  0
    1.2625    3.7560   22.9981 C   0  0  0  0  0  0  0  0  0  0  0  0
    2.3561    3.0600   22.4903 C   0  0  0  0  0  0  0  0  0  0  0  0
    2.2108    2.3063   21.3127 C   0  0  0  0  0  0  0  0  0  0  0  0
    0.9678    2.2349   20.6369 C   0  0  0  0  0  0  0  0  0  0  0  0
   -0.1218    2.9290   21.1452 C   0  0  0  0  0  0  0  0  0  0  0  0
   -1.1984    4.4433   22.8796 C   0  0  0  0  0  0  0  0  0  0  0  0
   -0.9941    5.9644   23.0903 C   0  0  0  0  0  0  0  0  0  0  0  0
   -0.4963    6.6959   21.8490 C   0  0  0  0  0  0  0  0  0  0  0  0
   -1.3221    7.0891   20.7915 C   0  0  0  0  0  0  0  0  0  0  0  0
   -0.5275    7.7112   19.8817 N   0  0  0  0  0  0  0  0  0  0  0  0
    0.7935    7.7533   20.2807 C   0  0  0  0  0  0  0  0  0  0  0  0
    0.8609    7.1252   21.5195 C   0  0  0  0  0  0  0  0  0  0  0  0
    2.1597    7.0470   22.1513 C   0  0  0  0  0  0  0  0  0  0  0  0
    2.2999    6.4394   23.3960 O   0  0  0  0  0  0  0  0  0  0  0  0
    3.2619    7.5827   21.4985 N   0  0  0  0  0  0  0  0  0  0  0  0
    3.1466    8.1996   20.2866 C   0  0  0  0  0  0  0  0  0  0  0  0
    1.9572    8.2898   19.6711 N   0  0  0  0  0  0  0  0  0  0  0  0
    4.3375    8.7646   19.6438 N   0  0  0  0  0  0  0  0  0  0  0  0
    3.4085    1.5592   20.7886 C   0  0  0  0  0  0  0  0  0  0  0  0
    3.9048    0.6471   21.4473 O   0  0  0  0  0  0  0  0  0  0  0  0
    3.9597    1.9365   19.5143 N   0  0  0  0  0  0  0  0  0  0  0  0
  1  2  2  0  0  0  0
  1  6  1  0  0  0  0
  1  7  1  0  0  0  0
  2  3  1  0  0  0  0
  3  4  2  0  0  0  0
  4  5  1  0  0  0  0
  4 20  1  0  0  0  0
  5  6  2  0  0  0  0
  7  8  1  0  0  0  0
  8  9  1  0  0  0  0
  9 10  2  0  0  0  0
  9 13  1  0  0  0  0
 10 11  1  0  0  0  0
 11 12  1  0  0  0  0
 12 13  2  0  0  0  0
 12 18  1  0  0  0  0
 13 14  1  0  0  0  0
 14 15  1  0  0  0  0
 14 16  2  0  0  0  0
 16 17  1  0  0  0  0
 17 18  2  0  0  0  0
 17 19  1  0  0  0  0
 20 21  2  0  0  0  0
 20 22  1  0  0  0  0
M  END
>  <CHROM.1>
56.24991445,64.14612431,53.64543273,80.15973295,1.51504278,5.24638287,21.35284742
1.36042683,-0.36996089,2.98792921

>  <Name>
ligand

>  <RI>
0

>  <Rbt.Current_Directory>
/home/itssahil/PROJECTS/Mol_Feturizer/New_Systems/rnas/4LVY

>  <Rbt.Executable>
rbdock ($Id: //depot/dev/client3/rdock/2013.1/src/exe/rbdock.cxx#4 $)

>  <Rbt.Library>
libRbt.so (2013.1, Build901 2013/11/27)

>  <Rbt.Parameter_File>
/export/apps/rDock/src/rDock_2013.1_src/data/scripts/dock_solv.prm

>  <Rbt.Receptor>
prm/pocket_docking_8.prm

>  <SCORE>
-16.9232

>  <SCORE.INTER>
-15.5766

>  <SCORE.INTER.CONST>
1

>  <SCORE.INTER.POLAR>
0

>  <SCORE.INTER.ROT>
4

>  <SCORE.INTER.SOLV>
9.29603

>  <SCORE.INTER.VDW>
-19.7498

>  <SCORE.INTER.norm>
-0.708029

>  <SCORE.INTRA>
-1.34661

>  <SCORE.INTRA.DIHEDRAL>
0.202695

>  <SCORE.INTRA.DIHEDRAL.0>
6.18831

>  <SCORE.INTRA.POLAR>
0

>  <SCORE.INTRA.POLAR.0>
0

>  <SCORE.INTRA.REPUL>
0

>  <SCORE.INTRA.REPUL.0>
0

>  <SCORE.INTRA.SOLV>
0.38649

>  <SCORE.INTRA.SOLV.lig_0>
-44.3465

>  <SCORE.INTRA.VDW>
-1.6412

>  <SCORE.INTRA.VDW.0>
-0.778272

>  <SCORE.INTRA.norm>
-0.0612096

>  <SCORE.RESTR>
0

>  <SCORE.RESTR.CAVITY>
0

>  <SCORE.RESTR.norm>
0

>  <SCORE.SYSTEM>
0

>  <SCORE.SYSTEM.CONST>
0

>  <SCORE.SYSTEM.DIHEDRAL>
0

>  <SCORE.SYSTEM.SOLV>
0

>  <SCORE.SYSTEM.norm>
0

>  <SCORE.heavy>
22

>  <SCORE.norm>
-0.769238

>  <RMSD>
5.142

$$$$
ligand
 OpenBabel11021811503D
libRbt.so/2013.1/901 2013/11/27
 22 24  0  0  0  0  0  0  0  0999 V2000
    0.0321    3.6772   22.3506 C   0  0  0  0  0  0  0  0  0  0  0  0
   -0.1016    2.9374   21.1567 C   0  0  0  0  0  0  0  0  0  0  0  0
    1.0024    2.2617   20.6439 C   0  0  0  0  0  0  0  0  0  0  0  0
    2.2315    2.3283   21.3229 C   0  0  0  0  0  0  0  0  0  0  0  0
    2.3695    3.0785   22.5166 C   0  0  0  0  0  0  0  0  0  0  0  0
    1.2678    3.7521   23.0260 C   0  0  0  0  0  0  0  0  0  0  0  0
   -1.1753    4.4453   22.9218 C   0  0  0  0  0  0  0  0  0  0  0  0
   -0.9434    5.9616   23.1381 C   0  0  0  0  0  0  0  0  0  0  0  0
   -0.4841    6.6985   21.8852 C   0  0  0  0  0  0  0  0  0  0  0  0
   -1.3423    7.0972   20.8559 C   0  0  0  0  0  0  0  0  0  0  0  0
   -0.5761    7.7228   19.9245 N   0  0  0  0  0  0  0  0  0  0  0  0
    0.7568    7.7622   20.2821 C   0  0  0  0  0  0  0  0  0  0  0  0
    0.8624    7.1283   21.5152 C   0  0  0  0  0  0  0  0  0  0  0  0
    2.1803    7.0463   22.1057 C   0  0  0  0  0  0  0  0  0  0  0  0
    2.3590    6.4329   23.3426 O   0  0  0  0  0  0  0  0  0  0  0  0
    3.2620    7.5842   21.4211 N   0  0  0  0  0  0  0  0  0  0  0  0
    3.1093    8.2067   20.2162 C   0  0  0  0  0  0  0  0  0  0  0  0
    1.9013    8.3006   19.6388 N   0  0  0  0  0  0  0  0  0  0  0  0
    4.2800    8.7738   19.5390 N   0  0  0  0  0  0  0  0  0  0  0  0
    3.4104    1.5925   20.7431 C   0  0  0  0  0  0  0  0  0  0  0  0
    3.9320    0.6710   21.3684 O   0  0  0  0  0  0  0  0  0  0  0  0
    3.9136    1.9914   19.4556 N   0  0  0  0  0  0  0  0  0  0  0  0
  1  2  2  0  0  0  0
  1  6  1  0  0  0  0
  1  7  1  0  0  0  0
  2  3  1  0  0  0  0
  3  4  2  0  0  0  0
  4  5  1  0  0  0  0
  4 20  1  0  0  0  0
  5  6  2  0  0  0  0
  7  8  1  0  0  0  0
  8  9  1  0  0  0  0
  9 10  2  0  0  0  0
  9 13  1  0  0  0  0
 10 11  1  0  0  0  0
 11 12  1  0  0  0  0
 12 13  2  0  0  0  0
 12 18  1  0  0  0  0
 13 14  1  0  0  0  0
 14 15  1  0  0  0  0
 14 16  2  0  0  0  0
 16 17  1  0  0  0  0
 17 18  2  0  0  0  0
 17 19  1  0  0  0  0
 20 21  2  0  0  0  0
 20 22  1  0  0  0  0
M  END
>  <CHROM.1>
-123.59173091,-116.73035392,55.45738432,79.31878443,1.51507509,5.25658736
21.34063683,1.35228367,-0.39581636,2.97748509

>  <Name>
ligand

>  <RI>
0

>  <Rbt.Current_Directory>
/home/itssahil/PROJECTS/Mol_Feturizer/New_Systems/rnas/4LVY

>  <Rbt.Executable>
rbdock ($Id: //depot/dev/client3/rdock/2013.1/src/exe/rbdock.cxx#4 $)

>  <Rbt.Library>
libRbt.so (2013.1, Build901 2013/11/27)

>  <Rbt.Parameter_File>
/export/apps/rDock/src/rDock_2013.1_src/data/scripts/dock_solv.prm

>  <Rbt.Receptor>
prm/pocket_docking_7.prm

>  <SCORE>
-16.8984

>  <SCORE.INTER>
-15.5449

>  <SCORE.INTER.CONST>
1

>  <SCORE.INTER.POLAR>
0

>  <SCORE.INTER.ROT>
4

>  <SCORE.INTER.SOLV>
9.19112

>  <SCORE.INTER.VDW>
-19.6936

>  <SCORE.INTER.norm>
-0.706585

>  <SCORE.INTRA>
-1.35351

>  <SCORE.INTRA.DIHEDRAL>
0.142895

>  <SCORE.INTRA.DIHEDRAL.0>
6.18831

>  <SCORE.INTRA.POLAR>
0

>  <SCORE.INTRA.POLAR.0>
0

>  <SCORE.INTRA.REPUL>
0

>  <SCORE.INTRA.REPUL.0>
0

>  <SCORE.INTRA.SOLV>
0.389457

>  <SCORE.INTRA.SOLV.lig_0>
-44.3465

>  <SCORE.INTRA.VDW>
-1.61969

>  <SCORE.INTRA.VDW.0>
-0.778272

>  <SCORE.INTRA.norm>
-0.0615232

>  <SCORE.RESTR>
0

>  <SCORE.RESTR.CAVITY>
0

>  <SCORE.RESTR.norm>
0

>  <SCORE.SYSTEM>
0

>  <SCORE.SYSTEM.CONST>
0

>  <SCORE.SYSTEM.DIHEDRAL>
0

>  <SCORE.SYSTEM.SOLV>
0

>  <SCORE.SYSTEM.norm>
0

>  <SCORE.heavy>
22

>  <SCORE.norm>
-0.768109

>  <RMSD>
5.144

$$$$
ligand
 OpenBabel11021811503D
libRbt.so/2013.1/901 2013/11/27
 22 24  0  0  0  0  0  0  0  0999 V2000
    0.0995    3.5375   22.0723 C   0  0  0  0  0  0  0  0  0  0  0  0
    1.3030    3.6347   22.8022 C   0  0  0  0  0  0  0  0  0  0  0  0
    2.4475    3.0051   22.3205 C   0  0  0  0  0  0  0  0  0  0  0  0
    2.3852    2.2826   21.1162 C   0  0  0  0  0  0  0  0  0  0  0  0
    1.1752    2.1762   20.3872 C   0  0  0  0  0  0  0  0  0  0  0  0
    0.0349    2.8041   20.8695 C   0  0  0  0  0  0  0  0  0  0  0  0
   -1.1804    4.2134   22.6008 C   0  0  0  0  0  0  0  0  0  0  0  0
   -1.2575    5.7427   22.3654 C   0  0  0  0  0  0  0  0  0  0  0  0
   -0.0973    6.5186   22.9781 C   0  0  0  0  0  0  0  0  0  0  0  0
    0.0224    6.7941   24.3436 C   0  0  0  0  0  0  0  0  0  0  0  0
    1.1770    7.4920   24.5048 N   0  0  0  0  0  0  0  0  0  0  0  0
    1.8374    7.6970   23.3098 C   0  0  0  0  0  0  0  0  0  0  0  0
    1.0701    7.0975   22.3171 C   0  0  0  0  0  0  0  0  0  0  0  0
    1.5654    7.1769   20.9604 C   0  0  0  0  0  0  0  0  0  0  0  0
    0.8530    6.5919   19.9171 O   0  0  0  0  0  0  0  0  0  0  0  0
    2.7568    7.8461   20.7142 N   0  0  0  0  0  0  0  0  0  0  0  0
    3.4823    8.4115   21.7225 C   0  0  0  0  0  0  0  0  0  0  0  0
    3.0527    8.3574   22.9930 N   0  0  0  0  0  0  0  0  0  0  0  0
    4.7434    9.0937   21.4146 N   0  0  0  0  0  0  0  0  0  0  0  0
    3.6366    1.6071   20.6212 C   0  0  0  0  0  0  0  0  0  0  0  0
    4.1780    0.7358   21.2992 O   0  0  0  0  0  0  0  0  0  0  0  0
    4.1847    2.0043   19.3516 N   0  0  0  0  0  0  0  0  0  0  0  0
  1  2  2  0  0  0  0
  1  6  1  0  0  0  0
  1  7  1  0  0  0  0
  2  3  1  0  0  0  0
  3  4  2  0  0  0  0
  4  5  1  0  0  0  0
  4 20  1  0  0  0  0
  5  6  2  0  0  0  0
  7  8  1  0  0  0  0
  8  9  1  0  0  0  0
  9 10  2  0  0  0  0
  9 13  1  0  0  0  0
 10 11  1  0  0  0  0
 11 12  1  0  0  0  0
 12 13  2  0  0  0  0
 12 18  1  0  0  0  0
 13 14  1  0  0  0  0
 14 15  1  0  0  0  0
 14 16  2  0  0  0  0
 16 17  1  0  0  0  0
 17 18  2  0  0  0  0
 17 19  1  0  0  0  0
 20 21  2  0  0  0  0
 20 22  1  0  0  0  0
M  END
>  <CHROM.1>
78.34523004,61.19175371,-57.83741579,-76.03674393,1.73624657,5.23301104,21.83421225
1.45024116,-0.40477174,-2.92278909

>  <Name>
ligand

>  <RI>
0

>  <Rbt.Current_Directory>
/home/itssahil/PROJECTS/Mol_Feturizer/New_Systems/rnas/4LVY

>  <Rbt.Executable>
rbdock ($Id: //depot/dev/client3/rdock/2013.1/src/exe/rbdock.cxx#4 $)

>  <Rbt.Library>
libRbt.so (2013.1, Build901 2013/11/27)

>  <Rbt.Parameter_File>
/export/apps/rDock/src/rDock_2013.1_src/data/scripts/dock_solv.prm

>  <Rbt.Receptor>
prm/pocket_docking_6.prm

>  <SCORE>
-18.1165

>  <SCORE.INTER>
-16.5484

>  <SCORE.INTER.CONST>
1

>  <SCORE.INTER.POLAR>
0

>  <SCORE.INTER.ROT>
4

>  <SCORE.INTER.SOLV>
9.44964

>  <SCORE.INTER.VDW>
-20.4488

>  <SCORE.INTER.norm>
-0.752202

>  <SCORE.INTRA>
-1.56811

>  <SCORE.INTRA.DIHEDRAL>
0.0873317

>  <SCORE.INTRA.DIHEDRAL.0>
6.18831

>  <SCORE.INTRA.POLAR>
0

>  <SCORE.INTRA.POLAR.0>
0

>  <SCORE.INTRA.REPUL>
0

>  <SCORE.INTRA.REPUL.0>
0

>  <SCORE.INTRA.SOLV>
0.117199

>  <SCORE.INTRA.SOLV.lig_0>
-44.3465

>  <SCORE.INTRA.VDW>
-1.67038

>  <SCORE.INTRA.VDW.0>
-0.778272

>  <SCORE.INTRA.norm>
-0.0712778

>  <SCORE.RESTR>
0

>  <SCORE.RESTR.CAVITY>
0

>  <SCORE.RESTR.norm>
0

>  <SCORE.SYSTEM>
0

>  <SCORE.SYSTEM.CONST>
0

>  <SCORE.SYSTEM.DIHEDRAL>
0

>  <SCORE.SYSTEM.SOLV>
0

>  <SCORE.SYSTEM.norm>
0

>  <SCORE.heavy>
22

>  <SCORE.norm>
-0.823479

>  <RMSD>
5.145

$$$$
ligand
 OpenBabel11021811503D
libRbt.so/2013.1/901 2013/11/27
 22 24  0  0  0  0  0  0  0  0999 V2000
    0.0250    3.6543   22.2519 C   0  0  0  0  0  0  0  0  0  0  0  0
   -0.0812    2.9648   21.0256 C   0  0  0  0  0  0  0  0  0  0  0  0
    1.0341    2.3093   20.5110 C   0  0  0  0  0  0  0  0  0  0  0  0
    2.2471    2.3458   21.2206 C   0  0  0  0  0  0  0  0  0  0  0  0
    2.3576    3.0456   22.4474 C   0  0  0  0  0  0  0  0  0  0  0  0
    1.2446    3.6992   22.9585 C   0  0  0  0  0  0  0  0  0  0  0  0
   -1.1950    4.3999   22.8262 C   0  0  0  0  0  0  0  0  0  0  0  0
   -0.9792    5.9137   23.0746 C   0  0  0  0  0  0  0  0  0  0  0  0
   -0.4934    6.6754   21.8469 C   0  0  0  0  0  0  0  0  0  0  0  0
   -1.3320    7.1100   20.8160 C   0  0  0  0  0  0  0  0  0  0  0  0
   -0.5452    7.7488   19.9111 N   0  0  0  0  0  0  0  0  0  0  0  0
    0.7829    7.7628   20.2880 C   0  0  0  0  0  0  0  0  0  0  0  0
    0.8634    7.0975   21.5064 C   0  0  0  0  0  0  0  0  0  0  0  0
    2.1717    6.9846   22.1128 C   0  0  0  0  0  0  0  0  0  0  0  0
    2.3254    6.3387   23.3365 O   0  0  0  0  0  0  0  0  0  0  0  0
    3.2694    7.5256   21.4568 N   0  0  0  0  0  0  0  0  0  0  0  0
    3.1413    8.1795   20.2658 C   0  0  0  0  0  0  0  0  0  0  0  0
    1.9428    8.3027   19.6741 N   0  0  0  0  0  0  0  0  0  0  0  0
    4.3282    8.7486   19.6191 N   0  0  0  0  0  0  0  0  0  0  0  0
    3.4387    1.6327   20.6385 C   0  0  0  0  0  0  0  0  0  0  0  0
    3.7983    1.8691   19.4866 O   0  0  0  0  0  0  0  0  0  0  0  0
    4.1378    0.6718   21.4496 N   0  0  0  0  0  0  0  0  0  0  0  0
  1  2  2  0  0  0  0
  1  6  1  0  0  0  0
  1  7  1  0  0  0  0
  2  3  1  0  0  0  0
  3  4  2  0  0  0  0
  4  5  1  0  0  0  0
  4 20  1  0  0  0  0
  5  6  2  0  0  0  0
  7  8  1  0  0  0  0
  8  9  1  0  0  0  0
  9 10  2  0  0  0  0
  9 13  1  0  0  0  0
 10 11  1  0  0  0  0
 11 12  1  0  0  0  0
 12 13  2  0  0  0  0
 12 18  1  0  0  0  0
 13 14  1  0  0  0  0
 14 15  1  0  0  0  0
 14 16  2  0  0  0  0
 16 17  1  0  0  0  0
 17 18  2  0  0  0  0
 17 19  1  0  0  0  0
 20 21  2  0  0  0  0
 20 22  1  0  0  0  0
M  END
>  <CHROM.1>
-122.01469615,53.31066929,54.53861380,80.65786652,1.52464779,5.24199864,21.30095753
1.33776899,-0.37734356,2.99565302

>  <Name>
ligand

>  <RI>
0

>  <Rbt.Current_Directory>
/home/itssahil/PROJECTS/Mol_Feturizer/New_Systems/rnas/4LVY

>  <Rbt.Executable>
rbdock ($Id: //depot/dev/client3/rdock/2013.1/src/exe/rbdock.cxx#4 $)

>  <Rbt.Library>
libRbt.so (2013.1, Build901 2013/11/27)

>  <Rbt.Parameter_File>
/export/apps/rDock/src/rDock_2013.1_src/data/scripts/dock_solv.prm

>  <Rbt.Receptor>
prm/pocket_docking_8.prm

>  <SCORE>
-16.7078

>  <SCORE.INTER>
-15.3779

>  <SCORE.INTER.CONST>
1

>  <SCORE.INTER.POLAR>
0

>  <SCORE.INTER.ROT>
4

>  <SCORE.INTER.SOLV>
9.16071

>  <SCORE.INTER.VDW>
-19.5721

>  <SCORE.INTER.norm>
-0.698994

>  <SCORE.INTRA>
-1.32993

>  <SCORE.INTRA.DIHEDRAL>
0.171976

>  <SCORE.INTRA.DIHEDRAL.0>
6.18831

>  <SCORE.INTRA.POLAR>
0

>  <SCORE.INTRA.POLAR.0>
0

>  <SCORE.INTRA.REPUL>
0

>  <SCORE.INTRA.REPUL.0>
0

>  <SCORE.INTRA.SOLV>
0.413856

>  <SCORE.INTRA.SOLV.lig_0>
-44.3465

>  <SCORE.INTRA.VDW>
-1.62284

>  <SCORE.INTRA.VDW.0>
-0.778272

>  <SCORE.INTRA.norm>
-0.0604511

>  <SCORE.RESTR>
0

>  <SCORE.RESTR.CAVITY>
0

>  <SCORE.RESTR.norm>
0

>  <SCORE.SYSTEM>
0

>  <SCORE.SYSTEM.CONST>
0

>  <SCORE.SYSTEM.DIHEDRAL>
0

>  <SCORE.SYSTEM.SOLV>
0

>  <SCORE.SYSTEM.norm>
0

>  <SCORE.heavy>
22

>  <SCORE.norm>
-0.759445

>  <RMSD>
5.145

$$$$
ligand
 OpenBabel11021811503D
libRbt.so/2013.1/901 2013/11/27
 22 24  0  0  0  0  0  0  0  0999 V2000
    0.0645    3.7107   22.3587 C   0  0  0  0  0  0  0  0  0  0  0  0
    1.3210    3.7577   22.9989 C   0  0  0  0  0  0  0  0  0  0  0  0
    2.3957    3.0658   22.4471 C   0  0  0  0  0  0  0  0  0  0  0  0
    2.2116    2.3315   21.2625 C   0  0  0  0  0  0  0  0  0  0  0  0
    0.9483    2.2758   20.6239 C   0  0  0  0  0  0  0  0  0  0  0  0
   -0.1223    2.9657   21.1760 C   0  0  0  0  0  0  0  0  0  0  0  0
   -1.1394    4.4561   22.9661 C   0  0  0  0  0  0  0  0  0  0  0  0
   -0.9337    5.9786   23.1650 C   0  0  0  0  0  0  0  0  0  0  0  0
   -0.3501    6.6848   21.9467 C   0  0  0  0  0  0  0  0  0  0  0  0
   -1.1007    7.0593   20.8281 C   0  0  0  0  0  0  0  0  0  0  0  0
   -0.2439    7.6618   19.9627 N   0  0  0  0  0  0  0  0  0  0  0  0
    1.0471    7.7088   20.4497 C   0  0  0  0  0  0  0  0  0  0  0  0
    1.0279    7.1047   21.7020 C   0  0  0  0  0  0  0  0  0  0  0  0
    2.2804    7.0359   22.4222 C   0  0  0  0  0  0  0  0  0  0  0  0
    2.3336    6.4523   23.6850 O   0  0  0  0  0  0  0  0  0  0  0  0
    3.4263    7.5564   21.8357 N   0  0  0  0  0  0  0  0  0  0  0  0
    3.3959    8.1499   20.6072 C   0  0  0  0  0  0  0  0  0  0  0  0
    2.2514    8.2308   19.9106 N   0  0  0  0  0  0  0  0  0  0  0  0
    4.6297    8.6998   20.0362 N   0  0  0  0  0  0  0  0  0  0  0  0
    3.3896    1.5884   20.6906 C   0  0  0  0  0  0  0  0  0  0  0  0
    3.7796    1.8322   19.5501 O   0  0  0  0  0  0  0  0  0  0  0  0
    4.0399    0.5904   21.4976 N   0  0  0  0  0  0  0  0  0  0  0  0
  1  2  2  0  0  0  0
  1  6  1  0  0  0  0
  1  7  1  0  0  0  0
  2  3  1  0  0  0  0
  3  4  2  0  0  0  0
  4  5  1  0  0  0  0
  4 20  1  0  0  0  0
  5  6  2  0  0  0  0
  7  8  1  0  0  0  0
  8  9  1  0  0  0  0
  9 10  2  0  0  0  0
  9 13  1  0  0  0  0
 10 11  1  0  0  0  0
 11 12  1  0  0  0  0
 12 13  2  0  0  0  0
 12 18  1  0  0  0  0
 13 14  1  0  0  0  0
 14 15  1  0  0  0  0
 14 16  2  0  0  0  0
 16 17  1  0  0  0  0
 17 18  2  0  0  0  0
 17 19  1  0  0  0  0
 20 21  2  0  0  0  0
 20 22  1  0  0  0  0
M  END
>  <CHROM.1>
57.56456162,-121.50643478,47.48424010,79.68260133,1.62304964,5.23862910,21.45881461
1.40965078,-0.35536295,3.06658211

>  <Name>
ligand

>  <RI>
0

>  <Rbt.Current_Directory>
/home/itssahil/PROJECTS/Mol_Feturizer/New_Systems/rnas/4LVY

>  <Rbt.Executable>
rbdock ($Id: //depot/dev/client3/rdock/2013.1/src/exe/rbdock.cxx#4 $)

>  <Rbt.Library>
libRbt.so (2013.1, Build901 2013/11/27)

>  <Rbt.Parameter_File>
/export/apps/rDock/src/rDock_2013.1_src/data/scripts/dock_solv.prm

>  <Rbt.Receptor>
prm/pocket_docking_7.prm

>  <SCORE>
-16.4261

>  <SCORE.INTER>
-15.2363

>  <SCORE.INTER.CONST>
1

>  <SCORE.INTER.POLAR>
0

>  <SCORE.INTER.ROT>
4

>  <SCORE.INTER.SOLV>
9.31498

>  <SCORE.INTER.VDW>
-19.5292

>  <SCORE.INTER.norm>
-0.692557

>  <SCORE.INTRA>
-1.18982

>  <SCORE.INTRA.DIHEDRAL>
0.668761

>  <SCORE.INTRA.DIHEDRAL.0>
6.18831

>  <SCORE.INTRA.POLAR>
0

>  <SCORE.INTRA.POLAR.0>
0

>  <SCORE.INTRA.REPUL>
0

>  <SCORE.INTRA.REPUL.0>
0

>  <SCORE.INTRA.SOLV>
0.350086

>  <SCORE.INTRA.SOLV.lig_0>
-44.3465

>  <SCORE.INTRA.VDW>
-1.69924

>  <SCORE.INTRA.VDW.0>
-0.778272

>  <SCORE.INTRA.norm>
-0.0540827

>  <SCORE.RESTR>
0

>  <SCORE.RESTR.CAVITY>
0

>  <SCORE.RESTR.norm>
0

>  <SCORE.SYSTEM>
0

>  <SCORE.SYSTEM.CONST>
0

>  <SCORE.SYSTEM.DIHEDRAL>
0

>  <SCORE.SYSTEM.SOLV>
0

>  <SCORE.SYSTEM.norm>
0

>  <SCORE.heavy>
22

>  <SCORE.norm>
-0.74664

>  <RMSD>
5.148

$$$$
ligand
 OpenBabel11021811503D
libRbt.so/2013.1/901 2013/11/27
 22 24  0  0  0  0  0  0  0  0999 V2000
    0.1032    3.5296   22.0610 C   0  0  0  0  0  0  0  0  0  0  0  0
    0.0610    2.8106   20.8478 C   0  0  0  0  0  0  0  0  0  0  0  0
    1.2163    2.1899   20.3804 C   0  0  0  0  0  0  0  0  0  0  0  0
    2.4052    2.2903   21.1238 C   0  0  0  0  0  0  0  0  0  0  0  0
    2.4513    3.0199   22.3373 C   0  0  0  0  0  0  0  0  0  0  0  0
    1.2985    3.6387   22.8013 C   0  0  0  0  0  0  0  0  0  0  0  0
   -1.1621    4.2373   22.5829 C   0  0  0  0  0  0  0  0  0  0  0  0
   -1.2220    5.7600   22.3043 C   0  0  0  0  0  0  0  0  0  0  0  0
   -0.0813    6.5469   22.9392 C   0  0  0  0  0  0  0  0  0  0  0  0
   -0.0245    6.8814   24.2956 C   0  0  0  0  0  0  0  0  0  0  0  0
    1.1315    7.5702   24.4832 N   0  0  0  0  0  0  0  0  0  0  0  0
    1.8528    7.7130   23.3146 C   0  0  0  0  0  0  0  0  0  0  0  0
    1.1259    7.0803   22.3122 C   0  0  0  0  0  0  0  0  0  0  0  0
    1.6882    7.0926   20.9796 C   0  0  0  0  0  0  0  0  0  0  0  0
    1.0188    6.4712   19.9289 O   0  0  0  0  0  0  0  0  0  0  0  0
    2.9005    7.7343   20.7638 N   0  0  0  0  0  0  0  0  0  0  0  0
    3.5844    8.3343   21.7811 C   0  0  0  0  0  0  0  0  0  0  0  0
    3.0922    8.3425   23.0298 N   0  0  0  0  0  0  0  0  0  0  0  0
    4.8694    8.9853   21.5066 N   0  0  0  0  0  0  0  0  0  0  0  0
    3.6410    1.6138   20.5925 C   0  0  0  0  0  0  0  0  0  0  0  0
    4.0248    1.8398   19.4463 O   0  0  0  0  0  0  0  0  0  0  0  0
    4.3537    0.6998   21.4449 N   0  0  0  0  0  0  0  0  0  0  0  0
  1  2  2  0  0  0  0
  1  6  1  0  0  0  0
  1  7  1  0  0  0  0
  2  3  1  0  0  0  0
  3  4  2  0  0  0  0
  4  5  1  0  0  0  0
  4 20  1  0  0  0  0
  5  6  2  0  0  0  0
  7  8  1  0  0  0  0
  8  9  1  0  0  0  0
  9 10  2  0  0  0  0
  9 13  1  0  0  0  0
 10 11  1  0  0  0  0
 11 12  1  0  0  0  0
 12 13  2  0  0  0  0
 12 18  1  0  0  0  0
 13 14  1  0  0  0  0
 14 15  1  0  0  0  0
 14 16  2  0  0  0  0
 16 17  1  0  0  0  0
 17 18  2  0  0  0  0
 17 19  1  0  0  0  0
 20 21  2  0  0  0  0
 20 22  1  0  0  0  0
M  END
>  <CHROM.1>
-99.80397249,53.28304579,-60.63314669,-77.36329377,1.77585513,5.21839585
21.83526128,1.45100958,-0.38100297,-2.90257180

>  <Name>
ligand

>  <RI>
0

>  <Rbt.Current_Directory>
/home/itssahil/PROJECTS/Mol_Feturizer/New_Systems/rnas/4LVY

>  <Rbt.Executable>
rbdock ($Id: //depot/dev/client3/rdock/2013.1/src/exe/rbdock.cxx#4 $)

>  <Rbt.Library>
libRbt.so (2013.1, Build901 2013/11/27)

>  <Rbt.Parameter_File>
/export/apps/rDock/src/rDock_2013.1_src/data/scripts/dock_solv.prm

>  <Rbt.Receptor>
prm/pocket_docking_7.prm

>  <SCORE>
-18.1092

>  <SCORE.INTER>
-16.4099

>  <SCORE.INTER.CONST>
1

>  <SCORE.INTER.POLAR>
0

>  <SCORE.INTER.ROT>
4

>  <SCORE.INTER.SOLV>
9.11893

>  <SCORE.INTER.VDW>
-20.2462

>  <SCORE.INTER.norm>
-0.745902

>  <SCORE.INTRA>
-1.69931

>  <SCORE.INTRA.DIHEDRAL>
-0.0691341

>  <SCORE.INTRA.DIHEDRAL.0>
6.18831

>  <SCORE.INTRA.POLAR>
0

>  <SCORE.INTRA.POLAR.0>
0

>  <SCORE.INTRA.REPUL>
0

>  <SCORE.INTRA.REPUL.0>
0

>  <SCORE.INTRA.SOLV>
0.14051

>  <SCORE.INTRA.SOLV.lig_0>
-44.3465

>  <SCORE.INTRA.VDW>
-1.73499

>  <SCORE.INTRA.VDW.0>
-0.778272

>  <SCORE.INTRA.norm>
-0.0772412

>  <SCORE.RESTR>
0

>  <SCORE.RESTR.CAVITY>
0

>  <SCORE.RESTR.norm>
0

>  <SCORE.SYSTEM>
0

>  <SCORE.SYSTEM.CONST>
0

>  <SCORE.SYSTEM.DIHEDRAL>
0

>  <SCORE.SYSTEM.SOLV>
0

>  <SCORE.SYSTEM.norm>
0

>  <SCORE.heavy>
22

>  <SCORE.norm>
-0.823144

>  <RMSD>
5.170

$$$$
ligand
 OpenBabel11021811503D
libRbt.so/2013.1/901 2013/11/27
 22 24  0  0  0  0  0  0  0  0999 V2000
    0.0963    3.5373   22.0661 C   0  0  0  0  0  0  0  0  0  0  0  0
    1.2993    3.6251   22.7980 C   0  0  0  0  0  0  0  0  0  0  0  0
    2.4421    2.9947   22.3133 C   0  0  0  0  0  0  0  0  0  0  0  0
    2.3786    2.2809   21.1039 C   0  0  0  0  0  0  0  0  0  0  0  0
    1.1691    2.1841   20.3727 C   0  0  0  0  0  0  0  0  0  0  0  0
    0.0305    2.8127   20.8581 C   0  0  0  0  0  0  0  0  0  0  0  0
   -1.1817    4.2141   22.5978 C   0  0  0  0  0  0  0  0  0  0  0  0
   -1.2546    5.7447   22.3700 C   0  0  0  0  0  0  0  0  0  0  0  0
   -0.0917    6.5143   22.9856 C   0  0  0  0  0  0  0  0  0  0  0  0
    0.0223    6.7955   24.3504 C   0  0  0  0  0  0  0  0  0  0  0  0
    1.1815    7.4849   24.5149 N   0  0  0  0  0  0  0  0  0  0  0  0
    1.8504    7.6788   23.3228 C   0  0  0  0  0  0  0  0  0  0  0  0
    1.0840    7.0808   22.3286 C   0  0  0  0  0  0  0  0  0  0  0  0
    1.5876    7.1497   20.9743 C   0  0  0  0  0  0  0  0  0  0  0  0
    0.8765    6.5653   19.9298 O   0  0  0  0  0  0  0  0  0  0  0  0
    2.7857    7.8082   20.7318 N   0  0  0  0  0  0  0  0  0  0  0  0
    3.5100    8.3726   21.7415 C   0  0  0  0  0  0  0  0  0  0  0  0
    3.0727    8.3280   23.0097 N   0  0  0  0  0  0  0  0  0  0  0  0
    4.7782    9.0433   21.4376 N   0  0  0  0  0  0  0  0  0  0  0  0
    3.6282    1.6045   20.6055 C   0  0  0  0  0  0  0  0  0  0  0  0
    4.0432    1.8316   19.4706 O   0  0  0  0  0  0  0  0  0  0  0  0
    4.3169    0.6890   21.4760 N   0  0  0  0  0  0  0  0  0  0  0  0
  1  2  2  0  0  0  0
  1  6  1  0  0  0  0
  1  7  1  0  0  0  0
  2  3  1  0  0  0  0
  3  4  2  0  0  0  0
  4  5  1  0  0  0  0
  4 20  1  0  0  0  0
  5  6  2  0  0  0  0
  7  8  1  0  0  0  0
  8  9  1  0  0  0  0
  9 10  2  0  0  0  0
  9 13  1  0  0  0  0
 10 11  1  0  0  0  0
 11 12  1  0  0  0  0
 12 13  2  0  0  0  0
 12 18  1  0  0  0  0
 13 14  1  0  0  0  0
 14 15  1  0  0  0  0
 14 16  2  0  0  0  0
 16 17  1  0  0  0  0
 17 18  2  0  0  0  0
 17 19  1  0  0  0  0
 20 21  2  0  0  0  0
 20 22  1  0  0  0  0
M  END
>  <CHROM.1>
78.48948298,-125.91443342,-57.79134130,-76.76531470,1.74275214,5.21774039
21.84005370,1.45060711,-0.39338153,-2.91469890

>  <Name>
ligand

>  <RI>
0

>  <Rbt.Current_Directory>
/home/itssahil/PROJECTS/Mol_Feturizer/New_Systems/rnas/4LVY

>  <Rbt.Executable>
rbdock ($Id: //depot/dev/client3/rdock/2013.1/src/exe/rbdock.cxx#4 $)

>  <Rbt.Library>
libRbt.so (2013.1, Build901 2013/11/27)

>  <Rbt.Parameter_File>
/export/apps/rDock/src/rDock_2013.1_src/data/scripts/dock_solv.prm

>  <Rbt.Receptor>
prm/pocket_docking_7.prm

>  <SCORE>
-18.0967

>  <SCORE.INTER>
-16.5339

>  <SCORE.INTER.CONST>
1

>  <SCORE.INTER.POLAR>
0

>  <SCORE.INTER.ROT>
4

>  <SCORE.INTER.SOLV>
9.38676

>  <SCORE.INTER.VDW>
-20.4182

>  <SCORE.INTER.norm>
-0.751541

>  <SCORE.INTRA>
-1.56279

>  <SCORE.INTRA.DIHEDRAL>
0.093546

>  <SCORE.INTRA.DIHEDRAL.0>
6.18831

>  <SCORE.INTRA.POLAR>
0

>  <SCORE.INTRA.POLAR.0>
0

>  <SCORE.INTRA.REPUL>
0

>  <SCORE.INTRA.REPUL.0>
0

>  <SCORE.INTRA.SOLV>
0.129445

>  <SCORE.INTRA.SOLV.lig_0>
-44.3465

>  <SCORE.INTRA.VDW>
-1.67428

>  <SCORE.INTRA.VDW.0>
-0.778272

>  <SCORE.INTRA.norm>
-0.0710359

>  <SCORE.RESTR>
0

>  <SCORE.RESTR.CAVITY>
0

>  <SCORE.RESTR.norm>
0

>  <SCORE.SYSTEM>
0

>  <SCORE.SYSTEM.CONST>
0

>  <SCORE.SYSTEM.DIHEDRAL>
0

>  <SCORE.SYSTEM.SOLV>
0

>  <SCORE.SYSTEM.norm>
0

>  <SCORE.heavy>
22

>  <SCORE.norm>
-0.822577

>  <RMSD>
5.173

$$$$
ligand
 OpenBabel11021811503D
libRbt.so/2013.1/901 2013/11/27
 22 24  0  0  0  0  0  0  0  0999 V2000
    0.0883    3.5498   22.0900 C   0  0  0  0  0  0  0  0  0  0  0  0
    0.0348    2.7876   20.9039 C   0  0  0  0  0  0  0  0  0  0  0  0
    1.1860    2.1511   20.4478 C   0  0  0  0  0  0  0  0  0  0  0  0
    2.3820    2.2787   21.1754 C   0  0  0  0  0  0  0  0  0  0  0  0
    2.4394    3.0515   22.3614 C   0  0  0  0  0  0  0  0  0  0  0  0
    1.2907    3.6860   22.8142 C   0  0  0  0  0  0  0  0  0  0  0  0
   -1.1724    4.2752   22.5986 C   0  0  0  0  0  0  0  0  0  0  0  0
   -1.2043    5.8000   22.3270 C   0  0  0  0  0  0  0  0  0  0  0  0
   -0.0407    6.5606   22.9523 C   0  0  0  0  0  0  0  0  0  0  0  0
    0.0613    6.8458   24.3173 C   0  0  0  0  0  0  0  0  0  0  0  0
    1.2253    7.5246   24.4919 N   0  0  0  0  0  0  0  0  0  0  0  0
    1.9089    7.7076   23.3064 C   0  0  0  0  0  0  0  0  0  0  0  0
    1.1475    7.1132   22.3061 C   0  0  0  0  0  0  0  0  0  0  0  0
    1.6664    7.1721   20.9571 C   0  0  0  0  0  0  0  0  0  0  0  0
    0.9611    6.5907   19.9071 O   0  0  0  0  0  0  0  0  0  0  0  0
    2.8734    7.8181   20.7252 N   0  0  0  0  0  0  0  0  0  0  0  0
    3.5922    8.3793   21.7406 C   0  0  0  0  0  0  0  0  0  0  0  0
    3.1407    8.3437   23.0042 N   0  0  0  0  0  0  0  0  0  0  0  0
    4.8701    9.0365   21.4481 N   0  0  0  0  0  0  0  0  0  0  0  0
    3.6131    1.5842   20.6566 C   0  0  0  0  0  0  0  0  0  0  0  0
    4.0388    1.8395   19.5316 O   0  0  0  0  0  0  0  0  0  0  0  0
    4.2716    0.6185   21.4956 N   0  0  0  0  0  0  0  0  0  0  0  0
  1  2  2  0  0  0  0
  1  6  1  0  0  0  0
  1  7  1  0  0  0  0
  2  3  1  0  0  0  0
  3  4  2  0  0  0  0
  4  5  1  0  0  0  0
  4 20  1  0  0  0  0
  5  6  2  0  0  0  0
  7  8  1  0  0  0  0
  8  9  1  0  0  0  0
  9 10  2  0  0  0  0
  9 13  1  0  0  0  0
 10 11  1  0  0  0  0
 11 12  1  0  0  0  0
 12 13  2  0  0  0  0
 12 18  1  0  0  0  0
 13 14  1  0  0  0  0
 14 15  1  0  0  0  0
 14 16  2  0  0  0  0
 16 17  1  0  0  0  0
 17 18  2  0  0  0  0
 17 19  1  0  0  0  0
 20 21  2  0  0  0  0
 20 22  1  0  0  0  0
M  END
>  <CHROM.1>
-102.66723515,58.35528258,-59.20245092,-74.95786378,1.77745044,5.23463015
21.84862275,1.47222817,-0.38635276,-2.92063964

>  <Name>
ligand

>  <RI>
0

>  <Rbt.Current_Directory>
/home/itssahil/PROJECTS/Mol_Feturizer/New_Systems/rnas/4LVY

>  <Rbt.Executable>
rbdock ($Id: //depot/dev/client3/rdock/2013.1/src/exe/rbdock.cxx#4 $)

>  <Rbt.Library>
libRbt.so (2013.1, Build901 2013/11/27)

>  <Rbt.Parameter_File>
/export/apps/rDock/src/rDock_2013.1_src/data/scripts/dock_solv.prm

>  <Rbt.Receptor>
prm/pocket_docking_6.prm

>  <SCORE>
-18.0704

>  <SCORE.INTER>
-16.4521

>  <SCORE.INTER.CONST>
1

>  <SCORE.INTER.POLAR>
0

>  <SCORE.INTER.ROT>
4

>  <SCORE.INTER.SOLV>
9.24421

>  <SCORE.INTER.VDW>
-20.3161

>  <SCORE.INTER.norm>
-0.747821

>  <SCORE.INTRA>
-1.61835

>  <SCORE.INTRA.DIHEDRAL>
-0.052227

>  <SCORE.INTRA.DIHEDRAL.0>
6.18831

>  <SCORE.INTRA.POLAR>
0

>  <SCORE.INTRA.POLAR.0>
0

>  <SCORE.INTRA.REPUL>
0

>  <SCORE.INTRA.REPUL.0>
0

>  <SCORE.INTRA.SOLV>
0.108287

>  <SCORE.INTRA.SOLV.lig_0>
-44.3465

>  <SCORE.INTRA.VDW>
-1.64638

>  <SCORE.INTRA.VDW.0>
-0.778272

>  <SCORE.INTRA.norm>
-0.0735614

>  <SCORE.RESTR>
0

>  <SCORE.RESTR.CAVITY>
0

>  <SCORE.RESTR.norm>
0

>  <SCORE.SYSTEM>
0

>  <SCORE.SYSTEM.CONST>
0

>  <SCORE.SYSTEM.DIHEDRAL>
0

>  <SCORE.SYSTEM.SOLV>
0

>  <SCORE.SYSTEM.norm>
0

>  <SCORE.heavy>
22

>  <SCORE.norm>
-0.821382

>  <RMSD>
5.205

$$$$
ligand
 OpenBabel11021811503D
libRbt.so/2013.1/901 2013/11/27
 22 24  0  0  0  0  0  0  0  0999 V2000
   -0.3778    4.2370   21.1028 C   0  0  0  0  0  0  0  0  0  0  0  0
    0.5213    5.1200   20.4683 C   0  0  0  0  0  0  0  0  0  0  0  0
    1.5616    4.6020   19.7015 C   0  0  0  0  0  0  0  0  0  0  0  0
    1.6995    3.2090   19.5728 C   0  0  0  0  0  0  0  0  0  0  0  0
    0.8031    2.3212   20.2171 C   0  0  0  0  0  0  0  0  0  0  0  0
   -0.2331    2.8395   20.9819 C   0  0  0  0  0  0  0  0  0  0  0  0
   -1.5237    4.7937   21.9696 C   0  0  0  0  0  0  0  0  0  0  0  0
   -1.2267    4.8503   23.4889 C   0  0  0  0  0  0  0  0  0  0  0  0
   -0.0543    5.7536   23.8533 C   0  0  0  0  0  0  0  0  0  0  0  0
   -0.1939    7.0712   24.3000 C   0  0  0  0  0  0  0  0  0  0  0  0
    1.0591    7.5450   24.5267 N   0  0  0  0  0  0  0  0  0  0  0  0
    2.0329    6.6055   24.2526 C   0  0  0  0  0  0  0  0  0  0  0  0
    1.3761    5.4567   23.8258 C   0  0  0  0  0  0  0  0  0  0  0  0
    2.1960    4.3165   23.4793 C   0  0  0  0  0  0  0  0  0  0  0  0
    1.6054    3.1304   23.0520 O   0  0  0  0  0  0  0  0  0  0  0  0
    3.5770    4.4232   23.5758 N   0  0  0  0  0  0  0  0  0  0  0  0
    4.1783    5.5690   24.0097 C   0  0  0  0  0  0  0  0  0  0  0  0
    3.4487    6.6464   24.3391 N   0  0  0  0  0  0  0  0  0  0  0  0
    5.6401    5.6279   24.1105 N   0  0  0  0  0  0  0  0  0  0  0  0
    2.8366    2.6760   18.7420 C   0  0  0  0  0  0  0  0  0  0  0  0
    3.7472    2.0436   19.2739 O   0  0  0  0  0  0  0  0  0  0  0  0
    2.8386    2.9262   17.3251 N   0  0  0  0  0  0  0  0  0  0  0  0
  1  2  2  0  0  0  0
  1  6  1  0  0  0  0
  1  7  1  0  0  0  0
  2  3  1  0  0  0  0
  3  4  2  0  0  0  0
  4  5  1  0  0  0  0
  4 20  1  0  0  0  0
  5  6  2  0  0  0  0
  7  8  1  0  0  0  0
  8  9  1  0  0  0  0
  9 10  2  0  0  0  0
  9 13  1  0  0  0  0
 10 11  1  0  0  0  0
 11 12  1  0  0  0  0
 12 13  2  0  0  0  0
 12 18  1  0  0  0  0
 13 14  1  0  0  0  0
 14 15  1  0  0  0  0
 14 16  2  0  0  0  0
 16 17  1  0  0  0  0
 17 18  2  0  0  0  0
 17 19  1  0  0  0  0
 20 21  2  0  0  0  0
 20 22  1  0  0  0  0
M  END
>  <CHROM.1>
-96.19081563,113.54746240,61.64728097,97.82584148,1.66090075,4.59974706,22.10497534
1.52909862,0.06040339,-2.15158213

>  <Name>
ligand

>  <RI>
0

>  <Rbt.Current_Directory>
/home/itssahil/PROJECTS/Mol_Feturizer/New_Systems/rnas/4LVY

>  <Rbt.Executable>
rbdock ($Id: //depot/dev/client3/rdock/2013.1/src/exe/rbdock.cxx#4 $)

>  <Rbt.Library>
libRbt.so (2013.1, Build901 2013/11/27)

>  <Rbt.Parameter_File>
/export/apps/rDock/src/rDock_2013.1_src/data/scripts/dock_solv.prm

>  <Rbt.Receptor>
prm/pocket_docking_5.prm

>  <SCORE>
-18.2287

>  <SCORE.INTER>
-16.2892

>  <SCORE.INTER.CONST>
1

>  <SCORE.INTER.POLAR>
0

>  <SCORE.INTER.ROT>
4

>  <SCORE.INTER.SOLV>
9.99675

>  <SCORE.INTER.VDW>
-20.4584

>  <SCORE.INTER.norm>
-0.740419

>  <SCORE.INTRA>
-1.93954

>  <SCORE.INTRA.DIHEDRAL>
-0.00418532

>  <SCORE.INTRA.DIHEDRAL.0>
6.18831

>  <SCORE.INTRA.POLAR>
0

>  <SCORE.INTRA.POLAR.0>
0

>  <SCORE.INTRA.REPUL>
0

>  <SCORE.INTRA.REPUL.0>
0

>  <SCORE.INTRA.SOLV>
0.838849

>  <SCORE.INTRA.SOLV.lig_0>
-44.3465

>  <SCORE.INTRA.VDW>
-2.35687

>  <SCORE.INTRA.VDW.0>
-0.778272

>  <SCORE.INTRA.norm>
-0.0881607

>  <SCORE.RESTR>
0

>  <SCORE.RESTR.CAVITY>
0

>  <SCORE.RESTR.norm>
0

>  <SCORE.SYSTEM>
0

>  <SCORE.SYSTEM.CONST>
0

>  <SCORE.SYSTEM.DIHEDRAL>
0

>  <SCORE.SYSTEM.SOLV>
0

>  <SCORE.SYSTEM.norm>
0

>  <SCORE.heavy>
22

>  <SCORE.norm>
-0.828579

>  <RMSD>
5.207

$$$$
ligand
 OpenBabel11021811503D
libRbt.so/2013.1/901 2013/11/27
 22 24  0  0  0  0  0  0  0  0999 V2000
    0.0840    3.5634   22.0914 C   0  0  0  0  0  0  0  0  0  0  0  0
    0.0370    2.8084   20.9004 C   0  0  0  0  0  0  0  0  0  0  0  0
    1.1905    2.1744   20.4469 C   0  0  0  0  0  0  0  0  0  0  0  0
    2.3825    2.2973   21.1819 C   0  0  0  0  0  0  0  0  0  0  0  0
    2.4334    3.0628   22.3728 C   0  0  0  0  0  0  0  0  0  0  0  0
    1.2824    3.6949   22.8230 C   0  0  0  0  0  0  0  0  0  0  0  0
   -1.1793    4.2860   22.5974 C   0  0  0  0  0  0  0  0  0  0  0  0
   -1.2147    5.8105   22.3241 C   0  0  0  0  0  0  0  0  0  0  0  0
   -0.0450    6.5724   22.9362 C   0  0  0  0  0  0  0  0  0  0  0  0
    0.0740    6.8545   24.3004 C   0  0  0  0  0  0  0  0  0  0  0  0
    1.2385    7.5357   24.4616 N   0  0  0  0  0  0  0  0  0  0  0  0
    1.9061    7.7234   23.2678 C   0  0  0  0  0  0  0  0  0  0  0  0
    1.1333    7.1296   22.2759 C   0  0  0  0  0  0  0  0  0  0  0  0
    1.6344    7.1933   20.9205 C   0  0  0  0  0  0  0  0  0  0  0  0
    0.9169    6.6127   19.8783 O   0  0  0  0  0  0  0  0  0  0  0  0
    2.8367    7.8429   20.6746 N   0  0  0  0  0  0  0  0  0  0  0  0
    3.5672    8.4033   21.6820 C   0  0  0  0  0  0  0  0  0  0  0  0
    3.1323    8.3634   22.9513 N   0  0  0  0  0  0  0  0  0  0  0  0
    4.8396    9.0645   21.3746 N   0  0  0  0  0  0  0  0  0  0  0  0
    3.6163    1.6056   20.6657 C   0  0  0  0  0  0  0  0  0  0  0  0
    4.0561    1.8774   19.5500 O   0  0  0  0  0  0  0  0  0  0  0  0
    4.2607    0.6231   21.4960 N   0  0  0  0  0  0  0  0  0  0  0  0
  1  2  2  0  0  0  0
  1  6  1  0  0  0  0
  1  7  1  0  0  0  0
  2  3  1  0  0  0  0
  3  4  2  0  0  0  0
  4  5  1  0  0  0  0
  4 20  1  0  0  0  0
  5  6  2  0  0  0  0
  7  8  1  0  0  0  0
  8  9  1  0  0  0  0
  9 10  2  0  0  0  0
  9 13  1  0  0  0  0
 10 11  1  0  0  0  0
 11 12  1  0  0  0  0
 12 13  2  0  0  0  0
 12 18  1  0  0  0  0
 13 14  1  0  0  0  0
 14 15  1  0  0  0  0
 14 16  2  0  0  0  0
 16 17  1  0  0  0  0
 17 18  2  0  0  0  0
 17 19  1  0  0  0  0
 20 21  2  0  0  0  0
 20 22  1  0  0  0  0
M  END
>  <CHROM.1>
-102.16874452,59.08851158,-58.50482506,-74.66958844,1.76842005,5.25240475
21.83081895,1.46973317,-0.39286530,-2.93274717

>  <Name>
ligand

>  <RI>
0

>  <Rbt.Current_Directory>
/home/itssahil/PROJECTS/Mol_Feturizer/New_Systems/rnas/4LVY

>  <Rbt.Executable>
rbdock ($Id: //depot/dev/client3/rdock/2013.1/src/exe/rbdock.cxx#4 $)

>  <Rbt.Library>
libRbt.so (2013.1, Build901 2013/11/27)

>  <Rbt.Parameter_File>
/export/apps/rDock/src/rDock_2013.1_src/data/scripts/dock_solv.prm

>  <Rbt.Receptor>
prm/pocket_docking_8.prm

>  <SCORE>
-18.0769

>  <SCORE.INTER>
-16.464

>  <SCORE.INTER.CONST>
1

>  <SCORE.INTER.POLAR>
0

>  <SCORE.INTER.ROT>
4

>  <SCORE.INTER.SOLV>
9.23341

>  <SCORE.INTER.VDW>
-20.3205

>  <SCORE.INTER.norm>
-0.748365

>  <SCORE.INTRA>
-1.61288

>  <SCORE.INTRA.DIHEDRAL>
-0.0454495

>  <SCORE.INTRA.DIHEDRAL.0>
6.18831

>  <SCORE.INTRA.POLAR>
0

>  <SCORE.INTRA.POLAR.0>
0

>  <SCORE.INTRA.REPUL>
0

>  <SCORE.INTRA.REPUL.0>
0

>  <SCORE.INTRA.SOLV>
0.104348

>  <SCORE.INTRA.SOLV.lig_0>
-44.3465

>  <SCORE.INTRA.VDW>
-1.64233

>  <SCORE.INTRA.VDW.0>
-0.778272

>  <SCORE.INTRA.norm>
-0.0733126

>  <SCORE.RESTR>
0

>  <SCORE.RESTR.CAVITY>
0

>  <SCORE.RESTR.norm>
0

>  <SCORE.SYSTEM>
0

>  <SCORE.SYSTEM.CONST>
0

>  <SCORE.SYSTEM.DIHEDRAL>
0

>  <SCORE.SYSTEM.SOLV>
0

>  <SCORE.SYSTEM.norm>
0

>  <SCORE.heavy>
22

>  <SCORE.norm>
-0.821677

>  <RMSD>
5.214

$$$$
ligand
 OpenBabel11021811503D
libRbt.so/2013.1/901 2013/11/27
 22 24  0  0  0  0  0  0  0  0999 V2000
   -0.3893    4.2482   21.0741 C   0  0  0  0  0  0  0  0  0  0  0  0
    0.4468    5.1428   20.3731 C   0  0  0  0  0  0  0  0  0  0  0  0
    1.4807    4.6396   19.5881 C   0  0  0  0  0  0  0  0  0  0  0  0
    1.6751    3.2497   19.5073 C   0  0  0  0  0  0  0  0  0  0  0  0
    0.8423    2.3508   20.2181 C   0  0  0  0  0  0  0  0  0  0  0  0
   -0.1876    2.8544   21.0010 C   0  0  0  0  0  0  0  0  0  0  0  0
   -1.5267    4.7894   21.9615 C   0  0  0  0  0  0  0  0  0  0  0  0
   -1.2098    4.8328   23.4772 C   0  0  0  0  0  0  0  0  0  0  0  0
   -0.0518    5.7563   23.8374 C   0  0  0  0  0  0  0  0  0  0  0  0
   -0.2123    7.0739   24.2770 C   0  0  0  0  0  0  0  0  0  0  0  0
    1.0330    7.5685   24.5017 N   0  0  0  0  0  0  0  0  0  0  0  0
    2.0216    6.6429   24.2331 C   0  0  0  0  0  0  0  0  0  0  0  0
    1.3830    5.4816   23.8120 C   0  0  0  0  0  0  0  0  0  0  0  0
    2.2209    4.3526   23.4719 C   0  0  0  0  0  0  0  0  0  0  0  0
    1.6491    3.1552   23.0507 O   0  0  0  0  0  0  0  0  0  0  0  0
    3.6000    4.4814   23.5685 N   0  0  0  0  0  0  0  0  0  0  0  0
    4.1831    5.6387   23.9967 C   0  0  0  0  0  0  0  0  0  0  0  0
    3.4365    6.7063   24.3201 N   0  0  0  0  0  0  0  0  0  0  0  0
    5.6437    5.7211   24.0978 N   0  0  0  0  0  0  0  0  0  0  0  0
    2.8040    2.7332   18.6553 C   0  0  0  0  0  0  0  0  0  0  0  0
    3.7353    2.1173   19.1704 O   0  0  0  0  0  0  0  0  0  0  0  0
    2.7735    2.9793   17.2380 N   0  0  0  0  0  0  0  0  0  0  0  0
  1  2  2  0  0  0  0
  1  6  1  0  0  0  0
  1  7  1  0  0  0  0
  2  3  1  0  0  0  0
  3  4  2  0  0  0  0
  4  5  1  0  0  0  0
  4 20  1  0  0  0  0
  5  6  2  0  0  0  0
  7  8  1  0  0  0  0
  8  9  1  0  0  0  0
  9 10  2  0  0  0  0
  9 13  1  0  0  0  0
 10 11  1  0  0  0  0
 11 12  1  0  0  0  0
 12 13  2  0  0  0  0
 12 18  1  0  0  0  0
 13 14  1  0  0  0  0
 14 15  1  0  0  0  0
 14 16  2  0  0  0  0
 16 17  1  0  0  0  0
 17 18  2  0  0  0  0
 17 19  1  0  0  0  0
 20 21  2  0  0  0  0
 20 22  1  0  0  0  0
M  END
>  <CHROM.1>
-99.95625442,116.30161399,62.54869339,96.45558776,1.65414929,4.63453614,22.07137187
1.54257216,0.05251623,-2.14226585

>  <Name>
ligand

>  <RI>
0

>  <Rbt.Current_Directory>
/home/itssahil/PROJECTS/Mol_Feturizer/New_Systems/rnas/4LVY

>  <Rbt.Executable>
rbdock ($Id: //depot/dev/client3/rdock/2013.1/src/exe/rbdock.cxx#4 $)

>  <Rbt.Library>
libRbt.so (2013.1, Build901 2013/11/27)

>  <Rbt.Parameter_File>
/export/apps/rDock/src/rDock_2013.1_src/data/scripts/dock_solv.prm

>  <Rbt.Receptor>
prm/pocket_docking_4.prm

>  <SCORE>
-18.2648

>  <SCORE.INTER>
-16.4426

>  <SCORE.INTER.CONST>
1

>  <SCORE.INTER.POLAR>
0

>  <SCORE.INTER.ROT>
4

>  <SCORE.INTER.SOLV>
9.90208

>  <SCORE.INTER.VDW>
-20.5291

>  <SCORE.INTER.norm>
-0.747392

>  <SCORE.INTRA>
-1.82214

>  <SCORE.INTRA.DIHEDRAL>
0.0150567

>  <SCORE.INTRA.DIHEDRAL.0>
6.18831

>  <SCORE.INTRA.POLAR>
0

>  <SCORE.INTRA.POLAR.0>
0

>  <SCORE.INTRA.REPUL>
0

>  <SCORE.INTRA.REPUL.0>
0

>  <SCORE.INTRA.SOLV>
0.787498

>  <SCORE.INTRA.SOLV.lig_0>
-44.3465

>  <SCORE.INTRA.VDW>
-2.22341

>  <SCORE.INTRA.VDW.0>
-0.778272

>  <SCORE.INTRA.norm>
-0.0828243

>  <SCORE.RESTR>
0

>  <SCORE.RESTR.CAVITY>
0

>  <SCORE.RESTR.norm>
0

>  <SCORE.SYSTEM>
0

>  <SCORE.SYSTEM.CONST>
0

>  <SCORE.SYSTEM.DIHEDRAL>
0

>  <SCORE.SYSTEM.SOLV>
0

>  <SCORE.SYSTEM.norm>
0

>  <SCORE.heavy>
22

>  <SCORE.norm>
-0.830216

>  <RMSD>
5.219

$$$$
ligand
 OpenBabel11021811503D
libRbt.so/2013.1/901 2013/11/27
 22 24  0  0  0  0  0  0  0  0999 V2000
   -0.3938    4.2567   21.0714 C   0  0  0  0  0  0  0  0  0  0  0  0
    0.4237    5.1509   20.3484 C   0  0  0  0  0  0  0  0  0  0  0  0
    1.4556    4.6488   19.5601 C   0  0  0  0  0  0  0  0  0  0  0  0
    1.6667    3.2603   19.4982 C   0  0  0  0  0  0  0  0  0  0  0  0
    0.8526    2.3620   20.2311 C   0  0  0  0  0  0  0  0  0  0  0  0
   -0.1754    2.8646   21.0170 C   0  0  0  0  0  0  0  0  0  0  0  0
   -1.5288    4.7972   21.9624 C   0  0  0  0  0  0  0  0  0  0  0  0
   -1.2120    4.8281   23.4785 C   0  0  0  0  0  0  0  0  0  0  0  0
   -0.0531    5.7476   23.8460 C   0  0  0  0  0  0  0  0  0  0  0  0
   -0.2110    7.0705   24.2701 C   0  0  0  0  0  0  0  0  0  0  0  0
    1.0343    7.5591   24.5078 N   0  0  0  0  0  0  0  0  0  0  0  0
    2.0204    6.6243   24.2628 C   0  0  0  0  0  0  0  0  0  0  0  0
    1.3801    5.4631   23.8442 C   0  0  0  0  0  0  0  0  0  0  0  0
    2.2151    4.3252   23.5276 C   0  0  0  0  0  0  0  0  0  0  0  0
    1.6414    3.1274   23.1101 O   0  0  0  0  0  0  0  0  0  0  0  0
    3.5935    4.4459   23.6428 N   0  0  0  0  0  0  0  0  0  0  0  0
    4.1782    5.6036   24.0677 C   0  0  0  0  0  0  0  0  0  0  0  0
    3.4343    6.6793   24.3696 N   0  0  0  0  0  0  0  0  0  0  0  0
    5.6378    5.6773   24.1891 N   0  0  0  0  0  0  0  0  0  0  0  0
    2.7931    2.7450   18.6422 C   0  0  0  0  0  0  0  0  0  0  0  0
    2.7302    2.8360   17.4175 O   0  0  0  0  0  0  0  0  0  0  0  0
    3.9324    2.1427   19.2820 N   0  0  0  0  0  0  0  0  0  0  0  0
  1  2  2  0  0  0  0
  1  6  1  0  0  0  0
  1  7  1  0  0  0  0
  2  3  1  0  0  0  0
  3  4  2  0  0  0  0
  4  5  1  0  0  0  0
  4 20  1  0  0  0  0
  5  6  2  0  0  0  0
  7  8  1  0  0  0  0
  8  9  1  0  0  0  0
  9 10  2  0  0  0  0
  9 13  1  0  0  0  0
 10 11  1  0  0  0  0
 11 12  1  0  0  0  0
 12 13  2  0  0  0  0
 12 18  1  0  0  0  0
 13 14  1  0  0  0  0
 14 15  1  0  0  0  0
 14 16  2  0  0  0  0
 16 17  1  0  0  0  0
 17 18  2  0  0  0  0
 17 19  1  0  0  0  0
 20 21  2  0  0  0  0
 20 22  1  0  0  0  0
M  END
>  <CHROM.1>
-101.68026887,-68.73834738,62.77463703,95.09752433,1.65068642,4.62494340
22.09361133,1.55242730,0.07031077,-2.13452790

>  <Name>
ligand

>  <RI>
0

>  <Rbt.Current_Directory>
/home/itssahil/PROJECTS/Mol_Feturizer/New_Systems/rnas/4LVY

>  <Rbt.Executable>
rbdock ($Id: //depot/dev/client3/rdock/2013.1/src/exe/rbdock.cxx#4 $)

>  <Rbt.Library>
libRbt.so (2013.1, Build901 2013/11/27)

>  <Rbt.Parameter_File>
/export/apps/rDock/src/rDock_2013.1_src/data/scripts/dock_solv.prm

>  <Rbt.Receptor>
prm/pocket_docking_7.prm

>  <SCORE>
-18.3464

>  <SCORE.INTER>
-16.5347

>  <SCORE.INTER.CONST>
1

>  <SCORE.INTER.POLAR>
0

>  <SCORE.INTER.ROT>
4

>  <SCORE.INTER.SOLV>
10.2164

>  <SCORE.INTER.VDW>
-20.6953

>  <SCORE.INTER.norm>
-0.751579

>  <SCORE.INTRA>
-1.81168

>  <SCORE.INTRA.DIHEDRAL>
0.0079921

>  <SCORE.INTRA.DIHEDRAL.0>
6.18831

>  <SCORE.INTRA.POLAR>
0

>  <SCORE.INTRA.POLAR.0>
0

>  <SCORE.INTRA.REPUL>
0

>  <SCORE.INTRA.REPUL.0>
0

>  <SCORE.INTRA.SOLV>
0.728836

>  <SCORE.INTRA.SOLV.lig_0>
-44.3465

>  <SCORE.INTRA.VDW>
-2.18009

>  <SCORE.INTRA.VDW.0>
-0.778272

>  <SCORE.INTRA.norm>
-0.0823491

>  <SCORE.RESTR>
0

>  <SCORE.RESTR.CAVITY>
0

>  <SCORE.RESTR.norm>
0

>  <SCORE.SYSTEM>
0

>  <SCORE.SYSTEM.CONST>
0

>  <SCORE.SYSTEM.DIHEDRAL>
0

>  <SCORE.SYSTEM.SOLV>
0

>  <SCORE.SYSTEM.norm>
0

>  <SCORE.heavy>
22

>  <SCORE.norm>
-0.833929

>  <RMSD>
5.224

$$$$
ligand
 OpenBabel11021811503D
libRbt.so/2013.1/901 2013/11/27
 22 24  0  0  0  0  0  0  0  0999 V2000
   -0.3795    4.2571   21.0623 C   0  0  0  0  0  0  0  0  0  0  0  0
   -0.1098    2.8730   21.0137 C   0  0  0  0  0  0  0  0  0  0  0  0
    0.9144    2.4044   20.1953 C   0  0  0  0  0  0  0  0  0  0  0  0
    1.6620    3.3169   19.4308 C   0  0  0  0  0  0  0  0  0  0  0  0
    1.3862    4.7059   19.4715 C   0  0  0  0  0  0  0  0  0  0  0  0
    0.3640    5.1712   20.2875 C   0  0  0  0  0  0  0  0  0  0  0  0
   -1.5212    4.7901   21.9492 C   0  0  0  0  0  0  0  0  0  0  0  0
   -1.2122    4.8181   23.4669 C   0  0  0  0  0  0  0  0  0  0  0  0
   -0.0559    5.7376   23.8424 C   0  0  0  0  0  0  0  0  0  0  0  0
   -0.2155    7.0671   24.2448 C   0  0  0  0  0  0  0  0  0  0  0  0
    1.0275    7.5538   24.4982 N   0  0  0  0  0  0  0  0  0  0  0  0
    2.0136    6.6114   24.2844 C   0  0  0  0  0  0  0  0  0  0  0  0
    1.3757    5.4471   23.8706 C   0  0  0  0  0  0  0  0  0  0  0  0
    2.2111    4.3013   23.5853 C   0  0  0  0  0  0  0  0  0  0  0  0
    1.6396    3.1001   23.1745 O   0  0  0  0  0  0  0  0  0  0  0  0
    3.5878    4.4176   23.7238 N   0  0  0  0  0  0  0  0  0  0  0  0
    4.1699    5.5787   24.1429 C   0  0  0  0  0  0  0  0  0  0  0  0
    3.4255    6.6618   24.4159 N   0  0  0  0  0  0  0  0  0  0  0  0
    5.6274    5.6479   24.2897 N   0  0  0  0  0  0  0  0  0  0  0  0
    2.7603    2.7822   18.5505 C   0  0  0  0  0  0  0  0  0  0  0  0
    3.7186    2.1930   19.0469 O   0  0  0  0  0  0  0  0  0  0  0  0
    2.6689    2.9797   17.1282 N   0  0  0  0  0  0  0  0  0  0  0  0
  1  2  2  0  0  0  0
  1  6  1  0  0  0  0
  1  7  1  0  0  0  0
  2  3  1  0  0  0  0
  3  4  2  0  0  0  0
  4  5  1  0  0  0  0
  4 20  1  0  0  0  0
  5  6  2  0  0  0  0
  7  8  1  0  0  0  0
  8  9  1  0  0  0  0
  9 10  2  0  0  0  0
  9 13  1  0  0  0  0
 10 11  1  0  0  0  0
 11 12  1  0  0  0  0
 12 13  2  0  0  0  0
 12 18  1  0  0  0  0
 13 14  1  0  0  0  0
 14 15  1  0  0  0  0
 14 16  2  0  0  0  0
 16 17  1  0  0  0  0
 17 18  2  0  0  0  0
 17 19  1  0  0  0  0
 20 21  2  0  0  0  0
 20 22  1  0  0  0  0
M  END
>  <CHROM.1>
75.36938375,-62.16815209,62.57660242,93.86265827,1.64047814,4.62916699,22.08377326
1.56634189,0.08408627,-2.11040751

>  <Name>
ligand

>  <RI>
0

>  <Rbt.Current_Directory>
/home/itssahil/PROJECTS/Mol_Feturizer/New_Systems/rnas/4LVY

>  <Rbt.Executable>
rbdock ($Id: //depot/dev/client3/rdock/2013.1/src/exe/rbdock.cxx#4 $)

>  <Rbt.Library>
libRbt.so (2013.1, Build901 2013/11/27)

>  <Rbt.Parameter_File>
/export/apps/rDock/src/rDock_2013.1_src/data/scripts/dock_solv.prm

>  <Rbt.Receptor>
prm/pocket_docking_5.prm

>  <SCORE>
-18.191

>  <SCORE.INTER>
-16.5436

>  <SCORE.INTER.CONST>
1

>  <SCORE.INTER.POLAR>
0

>  <SCORE.INTER.ROT>
4

>  <SCORE.INTER.SOLV>
10.1843

>  <SCORE.INTER.VDW>
-20.6905

>  <SCORE.INTER.norm>
-0.751981

>  <SCORE.INTRA>
-1.64746

>  <SCORE.INTRA.DIHEDRAL>
0.127164

>  <SCORE.INTRA.DIHEDRAL.0>
6.18831

>  <SCORE.INTRA.POLAR>
0

>  <SCORE.INTRA.POLAR.0>
0

>  <SCORE.INTRA.REPUL>
0

>  <SCORE.INTRA.REPUL.0>
0

>  <SCORE.INTRA.SOLV>
0.65731

>  <SCORE.INTRA.SOLV.lig_0>
-44.3465

>  <SCORE.INTRA.VDW>
-2.0397

>  <SCORE.INTRA.VDW.0>
-0.778272

>  <SCORE.INTRA.norm>
-0.0748846

>  <SCORE.RESTR>
0

>  <SCORE.RESTR.CAVITY>
0

>  <SCORE.RESTR.norm>
0

>  <SCORE.SYSTEM>
0

>  <SCORE.SYSTEM.CONST>
0

>  <SCORE.SYSTEM.DIHEDRAL>
0

>  <SCORE.SYSTEM.SOLV>
0

>  <SCORE.SYSTEM.norm>
0

>  <SCORE.heavy>
22

>  <SCORE.norm>
-0.826865

>  <RMSD>
5.230

$$$$
ligand
 OpenBabel11021811503D
libRbt.so/2013.1/901 2013/11/27
 22 24  0  0  0  0  0  0  0  0999 V2000
   -0.3879    4.2627   21.0428 C   0  0  0  0  0  0  0  0  0  0  0  0
    0.3689    5.1527   20.2517 C   0  0  0  0  0  0  0  0  0  0  0  0
    1.3905    4.6538   19.4482 C   0  0  0  0  0  0  0  0  0  0  0  0
    1.6517    3.2725   19.4388 C   0  0  0  0  0  0  0  0  0  0  0  0
    0.8989    2.3789   20.2397 C   0  0  0  0  0  0  0  0  0  0  0  0
   -0.1189    2.8784   21.0408 C   0  0  0  0  0  0  0  0  0  0  0  0
   -1.5101    4.8009   21.9511 C   0  0  0  0  0  0  0  0  0  0  0  0
   -1.1801    4.8077   23.4646 C   0  0  0  0  0  0  0  0  0  0  0  0
   -0.0317    5.7373   23.8396 C   0  0  0  0  0  0  0  0  0  0  0  0
   -0.2034    7.0619   24.2529 C   0  0  0  0  0  0  0  0  0  0  0  0
    1.0358    7.5605   24.5019 N   0  0  0  0  0  0  0  0  0  0  0  0
    2.0308    6.6308   24.2746 C   0  0  0  0  0  0  0  0  0  0  0  0
    1.4032    5.4626   23.8563 C   0  0  0  0  0  0  0  0  0  0  0  0
    2.2494    4.3283   23.5570 C   0  0  0  0  0  0  0  0  0  0  0  0
    1.6887    3.1239   23.1409 O   0  0  0  0  0  0  0  0  0  0  0  0
    3.6256    4.4590   23.6875 N   0  0  0  0  0  0  0  0  0  0  0  0
    4.1975    5.6234   24.1114 C   0  0  0  0  0  0  0  0  0  0  0  0
    3.4430    6.6960   24.3975 N   0  0  0  0  0  0  0  0  0  0  0  0
    5.6551    5.7077   24.2493 N   0  0  0  0  0  0  0  0  0  0  0  0
    2.7658    2.7607   18.5646 C   0  0  0  0  0  0  0  0  0  0  0  0
    3.7402    2.2043   19.0677 O   0  0  0  0  0  0  0  0  0  0  0  0
    2.6701    2.9409   17.1404 N   0  0  0  0  0  0  0  0  0  0  0  0
  1  2  2  0  0  0  0
  1  6  1  0  0  0  0
  1  7  1  0  0  0  0
  2  3  1  0  0  0  0
  3  4  2  0  0  0  0
  4  5  1  0  0  0  0
  4 20  1  0  0  0  0
  5  6  2  0  0  0  0
  7  8  1  0  0  0  0
  8  9  1  0  0  0  0
  9 10  2  0  0  0  0
  9 13  1  0  0  0  0
 10 11  1  0  0  0  0
 11 12  1  0  0  0  0
 12 13  2  0  0  0  0
 12 18  1  0  0  0  0
 13 14  1  0  0  0  0
 14 15  1  0  0  0  0
 14 16  2  0  0  0  0
 16 17  1  0  0  0  0
 17 18  2  0  0  0  0
 17 19  1  0  0  0  0
 20 21  2  0  0  0  0
 20 22  1  0  0  0  0
M  END
>  <CHROM.1>
-106.22446584,117.41557246,64.18677627,93.15015073,1.65604346,4.63410267
22.07648955,1.57252063,0.07520018,-2.11918937

>  <Name>
ligand

>  <RI>
0

>  <Rbt.Current_Directory>
/home/itssahil/PROJECTS/Mol_Feturizer/New_Systems/rnas/4LVY

>  <Rbt.Executable>
rbdock ($Id: //depot/dev/client3/rdock/2013.1/src/exe/rbdock.cxx#4 $)

>  <Rbt.Library>
libRbt.so (2013.1, Build901 2013/11/27)

>  <Rbt.Parameter_File>
/export/apps/rDock/src/rDock_2013.1_src/data/scripts/dock_solv.prm

>  <Rbt.Receptor>
prm/pocket_docking_8.prm

>  <SCORE>
-18.3663

>  <SCORE.INTER>
-16.7278

>  <SCORE.INTER.CONST>
1

>  <SCORE.INTER.POLAR>
0

>  <SCORE.INTER.ROT>
4

>  <SCORE.INTER.SOLV>
10.1465

>  <SCORE.INTER.VDW>
-20.8007

>  <SCORE.INTER.norm>
-0.760355

>  <SCORE.INTRA>
-1.63846

>  <SCORE.INTRA.DIHEDRAL>
0.0769553

>  <SCORE.INTRA.DIHEDRAL.0>
6.18831

>  <SCORE.INTRA.POLAR>
0

>  <SCORE.INTRA.POLAR.0>
0

>  <SCORE.INTRA.REPUL>
0

>  <SCORE.INTRA.REPUL.0>
0

>  <SCORE.INTRA.SOLV>
0.66722

>  <SCORE.INTRA.SOLV.lig_0>
-44.3465

>  <SCORE.INTRA.VDW>
-2.01055

>  <SCORE.INTRA.VDW.0>
-0.778272

>  <SCORE.INTRA.norm>
-0.0744756

>  <SCORE.RESTR>
0

>  <SCORE.RESTR.CAVITY>
0

>  <SCORE.RESTR.norm>
0

>  <SCORE.SYSTEM>
0

>  <SCORE.SYSTEM.CONST>
0

>  <SCORE.SYSTEM.DIHEDRAL>
0

>  <SCORE.SYSTEM.SOLV>
0

>  <SCORE.SYSTEM.norm>
0

>  <SCORE.heavy>
22

>  <SCORE.norm>
-0.834831

>  <RMSD>
5.230

$$$$
ligand
 OpenBabel11021811503D
libRbt.so/2013.1/901 2013/11/27
 22 24  0  0  0  0  0  0  0  0999 V2000
   -0.3676    4.2700   21.0464 C   0  0  0  0  0  0  0  0  0  0  0  0
   -0.0740    2.8907   21.0006 C   0  0  0  0  0  0  0  0  0  0  0  0
    0.9451    2.4359   20.1683 C   0  0  0  0  0  0  0  0  0  0  0  0
    1.6639    3.3575   19.3870 C   0  0  0  0  0  0  0  0  0  0  0  0
    1.3639    4.7415   19.4249 C   0  0  0  0  0  0  0  0  0  0  0  0
    0.3469    5.1929   20.2549 C   0  0  0  0  0  0  0  0  0  0  0  0
   -1.5043    4.7875   21.9487 C   0  0  0  0  0  0  0  0  0  0  0  0
   -1.1809    4.8042   23.4637 C   0  0  0  0  0  0  0  0  0  0  0  0
   -0.0337    5.7356   23.8375 C   0  0  0  0  0  0  0  0  0  0  0  0
   -0.2069    7.0604   24.2496 C   0  0  0  0  0  0  0  0  0  0  0  0
    1.0317    7.5607   24.4979 N   0  0  0  0  0  0  0  0  0  0  0  0
    2.0278    6.6320   24.2714 C   0  0  0  0  0  0  0  0  0  0  0  0
    1.4016    5.4626   23.8543 C   0  0  0  0  0  0  0  0  0  0  0  0
    2.2492    4.3291   23.5559 C   0  0  0  0  0  0  0  0  0  0  0  0
    1.6898    3.1236   23.1411 O   0  0  0  0  0  0  0  0  0  0  0  0
    3.6252    4.4616   23.6861 N   0  0  0  0  0  0  0  0  0  0  0  0
    4.1957    5.6271   24.1088 C   0  0  0  0  0  0  0  0  0  0  0  0
    3.4399    6.6991   24.3939 N   0  0  0  0  0  0  0  0  0  0  0  0
    5.6532    5.7134   24.2464 N   0  0  0  0  0  0  0  0  0  0  0  0
    2.7574    2.8376   18.4918 C   0  0  0  0  0  0  0  0  0  0  0  0
    3.7506    2.2997   18.9779 O   0  0  0  0  0  0  0  0  0  0  0  0
    2.6197    2.9884   17.0676 N   0  0  0  0  0  0  0  0  0  0  0  0
  1  2  2  0  0  0  0
  1  6  1  0  0  0  0
  1  7  1  0  0  0  0
  2  3  1  0  0  0  0
  3  4  2  0  0  0  0
  4  5  1  0  0  0  0
  4 20  1  0  0  0  0
  5  6  2  0  0  0  0
  7  8  1  0  0  0  0
  8  9  1  0  0  0  0
  9 10  2  0  0  0  0
  9 13  1  0  0  0  0
 10 11  1  0  0  0  0
 11 12  1  0  0  0  0
 12 13  2  0  0  0  0
 12 18  1  0  0  0  0
 13 14  1  0  0  0  0
 14 15  1  0  0  0  0
 14 16  2  0  0  0  0
 16 17  1  0  0  0  0
 17 18  2  0  0  0  0
 17 19  1  0  0  0  0
 20 21  2  0  0  0  0
 20 22  1  0  0  0  0
M  END
>  <CHROM.1>
74.27198788,-64.08999504,62.97556462,93.58000958,1.65628286,4.65696581,22.05597026
1.57289541,0.07210409,-2.10384481

>  <Name>
ligand

>  <RI>
0

>  <Rbt.Current_Directory>
/home/itssahil/PROJECTS/Mol_Feturizer/New_Systems/rnas/4LVY

>  <Rbt.Executable>
rbdock ($Id: //depot/dev/client3/rdock/2013.1/src/exe/rbdock.cxx#4 $)

>  <Rbt.Library>
libRbt.so (2013.1, Build901 2013/11/27)

>  <Rbt.Parameter_File>
/export/apps/rDock/src/rDock_2013.1_src/data/scripts/dock_solv.prm

>  <Rbt.Receptor>
prm/pocket_docking_5.prm

>  <SCORE>
-18.2264

>  <SCORE.INTER>
-16.603

>  <SCORE.INTER.CONST>
1

>  <SCORE.INTER.POLAR>
0

>  <SCORE.INTER.ROT>
4

>  <SCORE.INTER.SOLV>
9.92299

>  <SCORE.INTER.VDW>
-20.643

>  <SCORE.INTER.norm>
-0.754684

>  <SCORE.INTRA>
-1.62334

>  <SCORE.INTRA.DIHEDRAL>
0.130517

>  <SCORE.INTRA.DIHEDRAL.0>
6.18831

>  <SCORE.INTRA.POLAR>
0

>  <SCORE.INTRA.POLAR.0>
0

>  <SCORE.INTRA.REPUL>
0

>  <SCORE.INTRA.REPUL.0>
0

>  <SCORE.INTRA.SOLV>
0.650636

>  <SCORE.INTRA.SOLV.lig_0>
-44.3465

>  <SCORE.INTRA.VDW>
-2.01392

>  <SCORE.INTRA.VDW.0>
-0.778272

>  <SCORE.INTRA.norm>
-0.0737884

>  <SCORE.RESTR>
0

>  <SCORE.RESTR.CAVITY>
0

>  <SCORE.RESTR.norm>
0

>  <SCORE.SYSTEM>
0

>  <SCORE.SYSTEM.CONST>
0

>  <SCORE.SYSTEM.DIHEDRAL>
0

>  <SCORE.SYSTEM.SOLV>
0

>  <SCORE.SYSTEM.norm>
0

>  <SCORE.heavy>
22

>  <SCORE.norm>
-0.828472

>  <RMSD>
5.239

$$$$
ligand
 OpenBabel11021811503D
libRbt.so/2013.1/901 2013/11/27
 22 24  0  0  0  0  0  0  0  0999 V2000
   -0.3660    4.2768   21.0465 C   0  0  0  0  0  0  0  0  0  0  0  0
   -0.0725    2.8973   21.0065 C   0  0  0  0  0  0  0  0  0  0  0  0
    0.9457    2.4388   20.1749 C   0  0  0  0  0  0  0  0  0  0  0  0
    1.6635    3.3568   19.3888 C   0  0  0  0  0  0  0  0  0  0  0  0
    1.3636    4.7410   19.4209 C   0  0  0  0  0  0  0  0  0  0  0  0
    0.3476    5.1962   20.2501 C   0  0  0  0  0  0  0  0  0  0  0  0
   -1.5016    4.7983   21.9479 C   0  0  0  0  0  0  0  0  0  0  0  0
   -1.1801    4.8121   23.4633 C   0  0  0  0  0  0  0  0  0  0  0  0
   -0.0331    5.7427   23.8403 C   0  0  0  0  0  0  0  0  0  0  0  0
   -0.2066    7.0676   24.2519 C   0  0  0  0  0  0  0  0  0  0  0  0
    1.0317    7.5670   24.5036 N   0  0  0  0  0  0  0  0  0  0  0  0
    2.0278    6.6376   24.2799 C   0  0  0  0  0  0  0  0  0  0  0  0
    1.4019    5.4687   23.8610 C   0  0  0  0  0  0  0  0  0  0  0  0
    2.2494    4.3345   23.5651 C   0  0  0  0  0  0  0  0  0  0  0  0
    1.6904    3.1295   23.1487 O   0  0  0  0  0  0  0  0  0  0  0  0
    3.6252    4.4660   23.6990 N   0  0  0  0  0  0  0  0  0  0  0  0
    4.1954    5.6311   24.1233 C   0  0  0  0  0  0  0  0  0  0  0  0
    3.4396    6.7036   24.4063 N   0  0  0  0  0  0  0  0  0  0  0  0
    5.6525    5.7163   24.2649 N   0  0  0  0  0  0  0  0  0  0  0  0
    2.7559    2.8330   18.4946 C   0  0  0  0  0  0  0  0  0  0  0  0
    3.7226    2.2469   18.9782 O   0  0  0  0  0  0  0  0  0  0  0  0
    2.6487    3.0369   17.0744 N   0  0  0  0  0  0  0  0  0  0  0  0
  1  2  2  0  0  0  0
  1  6  1  0  0  0  0
  1  7  1  0  0  0  0
  2  3  1  0  0  0  0
  3  4  2  0  0  0  0
  4  5  1  0  0  0  0
  4 20  1  0  0  0  0
  5  6  2  0  0  0  0
  7  8  1  0  0  0  0
  8  9  1  0  0  0  0
  9 10  2  0  0  0  0
  9 13  1  0  0  0  0
 10 11  1  0  0  0  0
 11 12  1  0  0  0  0
 12 13  2  0  0  0  0
 12 18  1  0  0  0  0
 13 14  1  0  0  0  0
 14 15  1  0  0  0  0
 14 16  2  0  0  0  0
 16 17  1  0  0  0  0
 17 18  2  0  0  0  0
 17 19  1  0  0  0  0
 20 21  2  0  0  0  0
 20 22  1  0  0  0  0
M  END
>  <CHROM.1>
73.85063430,-61.00583764,63.22368643,93.43546521,1.65644211,4.66059761,22.06129450
1.57332851,0.07558595,-2.10406368

>  <Name>
ligand

>  <RI>
0

>  <Rbt.Current_Directory>
/home/itssahil/PROJECTS/Mol_Feturizer/New_Systems/rnas/4LVY

>  <Rbt.Executable>
rbdock ($Id: //depot/dev/client3/rdock/2013.1/src/exe/rbdock.cxx#4 $)

>  <Rbt.Library>
libRbt.so (2013.1, Build901 2013/11/27)

>  <Rbt.Parameter_File>
/export/apps/rDock/src/rDock_2013.1_src/data/scripts/dock_solv.prm

>  <Rbt.Receptor>
prm/pocket_docking_7.prm

>  <SCORE>
-18.2161

>  <SCORE.INTER>
-16.6147

>  <SCORE.INTER.CONST>
1

>  <SCORE.INTER.POLAR>
0

>  <SCORE.INTER.ROT>
4

>  <SCORE.INTER.SOLV>
9.93414

>  <SCORE.INTER.VDW>
-20.6545

>  <SCORE.INTER.norm>
-0.755215

>  <SCORE.INTRA>
-1.6014

>  <SCORE.INTRA.DIHEDRAL>
0.140111

>  <SCORE.INTRA.DIHEDRAL.0>
6.18831

>  <SCORE.INTRA.POLAR>
0

>  <SCORE.INTRA.POLAR.0>
0

>  <SCORE.INTRA.REPUL>
0

>  <SCORE.INTRA.REPUL.0>
0

>  <SCORE.INTRA.SOLV>
0.647637

>  <SCORE.INTRA.SOLV.lig_0>
-44.3465

>  <SCORE.INTRA.VDW>
-1.99528

>  <SCORE.INTRA.VDW.0>
-0.778272

>  <SCORE.INTRA.norm>
-0.0727911

>  <SCORE.RESTR>
0

>  <SCORE.RESTR.CAVITY>
0

>  <SCORE.RESTR.norm>
0

>  <SCORE.SYSTEM>
0

>  <SCORE.SYSTEM.CONST>
0

>  <SCORE.SYSTEM.DIHEDRAL>
0

>  <SCORE.SYSTEM.SOLV>
0

>  <SCORE.SYSTEM.norm>
0

>  <SCORE.heavy>
22

>  <SCORE.norm>
-0.828006

>  <RMSD>
5.239

$$$$
ligand
 OpenBabel11021811503D
libRbt.so/2013.1/901 2013/11/27
 22 24  0  0  0  0  0  0  0  0999 V2000
   -0.4219    4.2645   21.0663 C   0  0  0  0  0  0  0  0  0  0  0  0
    0.3567    5.1672   20.3117 C   0  0  0  0  0  0  0  0  0  0  0  0
    1.3838    4.6787   19.5088 C   0  0  0  0  0  0  0  0  0  0  0  0
    1.6287    3.2951   19.4636 C   0  0  0  0  0  0  0  0  0  0  0  0
    0.8538    2.3885   20.2280 C   0  0  0  0  0  0  0  0  0  0  0  0
   -0.1694    2.8776   21.0286 C   0  0  0  0  0  0  0  0  0  0  0  0
   -1.5507    4.7905   21.9737 C   0  0  0  0  0  0  0  0  0  0  0  0
   -1.2157    4.8169   23.4860 C   0  0  0  0  0  0  0  0  0  0  0  0
   -0.0532    5.7362   23.8425 C   0  0  0  0  0  0  0  0  0  0  0  0
   -0.2062    7.0633   24.2552 C   0  0  0  0  0  0  0  0  0  0  0  0
    1.0411    7.5503   24.4856 N   0  0  0  0  0  0  0  0  0  0  0  0
    2.0238    6.6105   24.2463 C   0  0  0  0  0  0  0  0  0  0  0  0
    1.3791    5.4476   23.8396 C   0  0  0  0  0  0  0  0  0  0  0  0
    2.2099    4.3045   23.5309 C   0  0  0  0  0  0  0  0  0  0  0  0
    1.6317    3.1047   23.1255 O   0  0  0  0  0  0  0  0  0  0  0  0
    3.5890    4.4221   23.6416 N   0  0  0  0  0  0  0  0  0  0  0  0
    4.1781    5.5818   24.0548 C   0  0  0  0  0  0  0  0  0  0  0  0
    3.4381    6.6623   24.3490 N   0  0  0  0  0  0  0  0  0  0  0  0
    5.6382    5.6523   24.1719 N   0  0  0  0  0  0  0  0  0  0  0  0
    2.7491    2.7946   18.5910 C   0  0  0  0  0  0  0  0  0  0  0  0
    3.6941    2.1846   19.0879 O   0  0  0  0  0  0  0  0  0  0  0  0
    2.6943    3.0490   17.1760 N   0  0  0  0  0  0  0  0  0  0  0  0
  1  2  2  0  0  0  0
  1  6  1  0  0  0  0
  1  7  1  0  0  0  0
  2  3  1  0  0  0  0
  3  4  2  0  0  0  0
  4  5  1  0  0  0  0
  4 20  1  0  0  0  0
  5  6  2  0  0  0  0
  7  8  1  0  0  0  0
  8  9  1  0  0  0  0
  9 10  2  0  0  0  0
  9 13  1  0  0  0  0
 10 11  1  0  0  0  0
 11 12  1  0  0  0  0
 12 13  2  0  0  0  0
 12 18  1  0  0  0  0
 13 14  1  0  0  0  0
 14 15  1  0  0  0  0
 14 16  2  0  0  0  0
 16 17  1  0  0  0  0
 17 18  2  0  0  0  0
 17 19  1  0  0  0  0
 20 21  2  0  0  0  0
 20 22  1  0  0  0  0
M  END
>  <CHROM.1>
-103.28699629,119.12613977,62.30147649,94.19593048,1.63242294,4.63075193
22.07349649,1.56201461,0.06807681,-2.11859837

>  <Name>
ligand

>  <RI>
0

>  <Rbt.Current_Directory>
/home/itssahil/PROJECTS/Mol_Feturizer/New_Systems/rnas/4LVY

>  <Rbt.Executable>
rbdock ($Id: //depot/dev/client3/rdock/2013.1/src/exe/rbdock.cxx#4 $)

>  <Rbt.Library>
libRbt.so (2013.1, Build901 2013/11/27)

>  <Rbt.Parameter_File>
/export/apps/rDock/src/rDock_2013.1_src/data/scripts/dock_solv.prm

>  <Rbt.Receptor>
prm/pocket_docking_6.prm

>  <SCORE>
-18.3098

>  <SCORE.INTER>
-16.5787

>  <SCORE.INTER.CONST>
1

>  <SCORE.INTER.POLAR>
0

>  <SCORE.INTER.ROT>
4

>  <SCORE.INTER.SOLV>
10.0101

>  <SCORE.INTER.VDW>
-20.6558

>  <SCORE.INTER.norm>
-0.753578

>  <SCORE.INTRA>
-1.73111

>  <SCORE.INTRA.DIHEDRAL>
0.0147396

>  <SCORE.INTRA.DIHEDRAL.0>
6.18831

>  <SCORE.INTRA.POLAR>
0

>  <SCORE.INTRA.POLAR.0>
0

>  <SCORE.INTRA.REPUL>
0

>  <SCORE.INTRA.REPUL.0>
0

>  <SCORE.INTRA.SOLV>
0.694248

>  <SCORE.INTRA.SOLV.lig_0>
-44.3465

>  <SCORE.INTRA.VDW>
-2.08561

>  <SCORE.INTRA.VDW.0>
-0.778272

>  <SCORE.INTRA.norm>
-0.078687

>  <SCORE.RESTR>
0

>  <SCORE.RESTR.CAVITY>
0

>  <SCORE.RESTR.norm>
0

>  <SCORE.SYSTEM>
0

>  <SCORE.SYSTEM.CONST>
0

>  <SCORE.SYSTEM.DIHEDRAL>
0

>  <SCORE.SYSTEM.SOLV>
0

>  <SCORE.SYSTEM.norm>
0

>  <SCORE.heavy>
22

>  <SCORE.norm>
-0.832265

>  <RMSD>
5.243

$$$$
ligand
 OpenBabel11021811503D
libRbt.so/2013.1/901 2013/11/27
 22 24  0  0  0  0  0  0  0  0999 V2000
   -0.3776    4.2645   21.0527 C   0  0  0  0  0  0  0  0  0  0  0  0
   -0.0842    2.8849   21.0180 C   0  0  0  0  0  0  0  0  0  0  0  0
    0.9296    2.4224   20.1833 C   0  0  0  0  0  0  0  0  0  0  0  0
    1.6431    3.3366   19.3887 C   0  0  0  0  0  0  0  0  0  0  0  0
    1.3431    4.7208   19.4155 C   0  0  0  0  0  0  0  0  0  0  0  0
    0.3315    5.1800   20.2479 C   0  0  0  0  0  0  0  0  0  0  0  0
   -1.5085    4.7904   21.9576 C   0  0  0  0  0  0  0  0  0  0  0  0
   -1.1816    4.8045   23.4718 C   0  0  0  0  0  0  0  0  0  0  0  0
   -0.0320    5.7335   23.8443 C   0  0  0  0  0  0  0  0  0  0  0  0
   -0.2023    7.0573   24.2607 C   0  0  0  0  0  0  0  0  0  0  0  0
    1.0377    7.5555   24.5062 N   0  0  0  0  0  0  0  0  0  0  0  0
    2.0320    6.6263   24.2737 C   0  0  0  0  0  0  0  0  0  0  0  0
    1.4030    5.4588   23.8554 C   0  0  0  0  0  0  0  0  0  0  0  0
    2.2482    4.3252   23.5510 C   0  0  0  0  0  0  0  0  0  0  0  0
    1.6861    3.1215   23.1347 O   0  0  0  0  0  0  0  0  0  0  0  0
    3.6249    4.4557   23.6768 N   0  0  0  0  0  0  0  0  0  0  0  0
    4.1982    5.6194   24.1009 C   0  0  0  0  0  0  0  0  0  0  0  0
    3.4446    6.6914   24.3916 N   0  0  0  0  0  0  0  0  0  0  0  0
    5.6562    5.7036   24.2337 N   0  0  0  0  0  0  0  0  0  0  0  0
    2.7307    2.8084   18.4912 C   0  0  0  0  0  0  0  0  0  0  0  0
    2.5791    2.8080   17.2710 O   0  0  0  0  0  0  0  0  0  0  0  0
    3.9384    2.3022   19.0872 N   0  0  0  0  0  0  0  0  0  0  0  0
  1  2  2  0  0  0  0
  1  6  1  0  0  0  0
  1  7  1  0  0  0  0
  2  3  1  0  0  0  0
  3  4  2  0  0  0  0
  4  5  1  0  0  0  0
  4 20  1  0  0  0  0
  5  6  2  0  0  0  0
  7  8  1  0  0  0  0
  8  9  1  0  0  0  0
  9 10  2  0  0  0  0
  9 13  1  0  0  0  0
 10 11  1  0  0  0  0
 11 12  1  0  0  0  0
 12 13  2  0  0  0  0
 12 18  1  0  0  0  0
 13 14  1  0  0  0  0
 14 15  1  0  0  0  0
 14 16  2  0  0  0  0
 16 17  1  0  0  0  0
 17 18  2  0  0  0  0
 17 19  1  0  0  0  0
 20 21  2  0  0  0  0
 20 22  1  0  0  0  0
M  END
>  <CHROM.1>
73.53088421,109.92344029,63.31870290,93.68948186,1.65109834,4.64479415,22.06042688
1.57791161,0.07477368,-2.11053599

>  <Name>
ligand

>  <RI>
0

>  <Rbt.Current_Directory>
/home/itssahil/PROJECTS/Mol_Feturizer/New_Systems/rnas/4LVY

>  <Rbt.Executable>
rbdock ($Id: //depot/dev/client3/rdock/2013.1/src/exe/rbdock.cxx#4 $)

>  <Rbt.Library>
libRbt.so (2013.1, Build901 2013/11/27)

>  <Rbt.Parameter_File>
/export/apps/rDock/src/rDock_2013.1_src/data/scripts/dock_solv.prm

>  <Rbt.Receptor>
prm/pocket_docking_7.prm

>  <SCORE>
-18.2257

>  <SCORE.INTER>
-16.6288

>  <SCORE.INTER.CONST>
1

>  <SCORE.INTER.POLAR>
0

>  <SCORE.INTER.ROT>
4

>  <SCORE.INTER.SOLV>
10.1225

>  <SCORE.INTER.VDW>
-20.7267

>  <SCORE.INTER.norm>
-0.755856

>  <SCORE.INTRA>
-1.59685

>  <SCORE.INTRA.DIHEDRAL>
0.156013

>  <SCORE.INTRA.DIHEDRAL.0>
6.18831

>  <SCORE.INTRA.POLAR>
0

>  <SCORE.INTRA.POLAR.0>
0

>  <SCORE.INTRA.REPUL>
0

>  <SCORE.INTRA.REPUL.0>
0

>  <SCORE.INTRA.SOLV>
0.656289

>  <SCORE.INTRA.SOLV.lig_0>
-44.3465

>  <SCORE.INTRA.VDW>
-2.003

>  <SCORE.INTRA.VDW.0>
-0.778272

>  <SCORE.INTRA.norm>
-0.0725841

>  <SCORE.RESTR>
0

>  <SCORE.RESTR.CAVITY>
0

>  <SCORE.RESTR.norm>
0

>  <SCORE.SYSTEM>
0

>  <SCORE.SYSTEM.CONST>
0

>  <SCORE.SYSTEM.DIHEDRAL>
0

>  <SCORE.SYSTEM.SOLV>
0

>  <SCORE.SYSTEM.norm>
0

>  <SCORE.heavy>
22

>  <SCORE.norm>
-0.82844

>  <RMSD>
5.243

$$$$
ligand
 OpenBabel11021811503D
libRbt.so/2013.1/901 2013/11/27
 22 24  0  0  0  0  0  0  0  0999 V2000
   -0.4022    4.2845   21.0506 C   0  0  0  0  0  0  0  0  0  0  0  0
   -0.1142    2.9040   21.0069 C   0  0  0  0  0  0  0  0  0  0  0  0
    0.9073    2.4446   20.1800 C   0  0  0  0  0  0  0  0  0  0  0  0
    1.6340    3.3628   19.4022 C   0  0  0  0  0  0  0  0  0  0  0  0
    1.3397    4.7480   19.4380 C   0  0  0  0  0  0  0  0  0  0  0  0
    0.3203    5.2041   20.2626 C   0  0  0  0  0  0  0  0  0  0  0  0
   -1.5413    4.8071   21.9469 C   0  0  0  0  0  0  0  0  0  0  0  0
   -1.2244    4.8265   23.4632 C   0  0  0  0  0  0  0  0  0  0  0  0
   -0.0653    5.7429   23.8376 C   0  0  0  0  0  0  0  0  0  0  0  0
   -0.2213    7.0703   24.2482 C   0  0  0  0  0  0  0  0  0  0  0  0
    1.0234    7.5543   24.4977 N   0  0  0  0  0  0  0  0  0  0  0  0
    2.0074    6.6122   24.2734 C   0  0  0  0  0  0  0  0  0  0  0  0
    1.3662    5.4508   23.8566 C   0  0  0  0  0  0  0  0  0  0  0  0
    2.1990    4.3058   23.5605 C   0  0  0  0  0  0  0  0  0  0  0  0
    1.6241    3.1075   23.1461 O   0  0  0  0  0  0  0  0  0  0  0  0
    3.5765    4.4201   23.6923 N   0  0  0  0  0  0  0  0  0  0  0  0
    4.1620    5.5783   24.1146 C   0  0  0  0  0  0  0  0  0  0  0  0
    3.4201    6.6605   24.3977 N   0  0  0  0  0  0  0  0  0  0  0  0
    5.6203    5.6452   24.2541 N   0  0  0  0  0  0  0  0  0  0  0  0
    2.7299    2.8380   18.5128 C   0  0  0  0  0  0  0  0  0  0  0  0
    2.6024    2.8706   17.2902 O   0  0  0  0  0  0  0  0  0  0  0  0
    3.9167    2.2958   19.1189 N   0  0  0  0  0  0  0  0  0  0  0  0
  1  2  2  0  0  0  0
  1  6  1  0  0  0  0
  1  7  1  0  0  0  0
  2  3  1  0  0  0  0
  3  4  2  0  0  0  0
  4  5  1  0  0  0  0
  4 20  1  0  0  0  0
  5  6  2  0  0  0  0
  7  8  1  0  0  0  0
  8  9  1  0  0  0  0
  9 10  2  0  0  0  0
  9 13  1  0  0  0  0
 10 11  1  0  0  0  0
 11 12  1  0  0  0  0
 12 13  2  0  0  0  0
 12 18  1  0  0  0  0
 13 14  1  0  0  0  0
 14 15  1  0  0  0  0
 14 16  2  0  0  0  0
 16 17  1  0  0  0  0
 17 18  2  0  0  0  0
 17 19  1  0  0  0  0
 20 21  2  0  0  0  0
 20 22  1  0  0  0  0
M  END
>  <CHROM.1>
74.42468712,111.19348980,62.27781628,93.87231626,1.62553198,4.64744338,22.06691387
1.56991360,0.08402725,-2.10514100

>  <Name>
ligand

>  <RI>
0

>  <Rbt.Current_Directory>
/home/itssahil/PROJECTS/Mol_Feturizer/New_Systems/rnas/4LVY

>  <Rbt.Executable>
rbdock ($Id: //depot/dev/client3/rdock/2013.1/src/exe/rbdock.cxx#4 $)

>  <Rbt.Library>
libRbt.so (2013.1, Build901 2013/11/27)

>  <Rbt.Parameter_File>
/export/apps/rDock/src/rDock_2013.1_src/data/scripts/dock_solv.prm

>  <Rbt.Receptor>
prm/pocket_docking_7.prm

>  <SCORE>
-18.2105

>  <SCORE.INTER>
-16.595

>  <SCORE.INTER.CONST>
1

>  <SCORE.INTER.POLAR>
0

>  <SCORE.INTER.ROT>
4

>  <SCORE.INTER.SOLV>
10.1261

>  <SCORE.INTER.VDW>
-20.7053

>  <SCORE.INTER.norm>
-0.754316

>  <SCORE.INTRA>
-1.61558

>  <SCORE.INTRA.DIHEDRAL>
0.132725

>  <SCORE.INTRA.DIHEDRAL.0>
6.18831

>  <SCORE.INTRA.POLAR>
0

>  <SCORE.INTRA.POLAR.0>
0

>  <SCORE.INTRA.REPUL>
0

>  <SCORE.INTRA.REPUL.0>
0

>  <SCORE.INTRA.SOLV>
0.658939

>  <SCORE.INTRA.SOLV.lig_0>
-44.3465

>  <SCORE.INTRA.VDW>
-2.01141

>  <SCORE.INTRA.VDW.0>
-0.778272

>  <SCORE.INTRA.norm>
-0.0734353

>  <SCORE.RESTR>
0

>  <SCORE.RESTR.CAVITY>
0

>  <SCORE.RESTR.norm>
0

>  <SCORE.SYSTEM>
0

>  <SCORE.SYSTEM.CONST>
0

>  <SCORE.SYSTEM.DIHEDRAL>
0

>  <SCORE.SYSTEM.SOLV>
0

>  <SCORE.SYSTEM.norm>
0

>  <SCORE.heavy>
22

>  <SCORE.norm>
-0.827752

>  <RMSD>
5.248

$$$$
ligand
 OpenBabel11021811503D
libRbt.so/2013.1/901 2013/11/27
 22 24  0  0  0  0  0  0  0  0999 V2000
   -0.4229    4.3298   20.9957 C   0  0  0  0  0  0  0  0  0  0  0  0
    0.2416    5.2200   20.1260 C   0  0  0  0  0  0  0  0  0  0  0  0
    1.2507    4.7394   19.2959 C   0  0  0  0  0  0  0  0  0  0  0  0
    1.5914    3.3762   19.3385 C   0  0  0  0  0  0  0  0  0  0  0  0
    0.9316    2.4830   20.2182 C   0  0  0  0  0  0  0  0  0  0  0  0
   -0.0739    2.9644   21.0455 C   0  0  0  0  0  0  0  0  0  0  0  0
   -1.5296    4.8491   21.9336 C   0  0  0  0  0  0  0  0  0  0  0  0
   -1.1821    4.8056   23.4427 C   0  0  0  0  0  0  0  0  0  0  0  0
   -0.0399    5.7345   23.8379 C   0  0  0  0  0  0  0  0  0  0  0  0
   -0.2171    7.0625   24.2375 C   0  0  0  0  0  0  0  0  0  0  0  0
    1.0174    7.5592   24.5122 N   0  0  0  0  0  0  0  0  0  0  0  0
    2.0146    6.6249   24.3151 C   0  0  0  0  0  0  0  0  0  0  0  0
    1.3933    5.4556   23.8905 C   0  0  0  0  0  0  0  0  0  0  0  0
    2.2427    4.3166   23.6194 C   0  0  0  0  0  0  0  0  0  0  0  0
    1.6881    3.1109   23.1988 O   0  0  0  0  0  0  0  0  0  0  0  0
    3.6159    4.4441   23.7813 N   0  0  0  0  0  0  0  0  0  0  0  0
    4.1813    5.6098   24.2103 C   0  0  0  0  0  0  0  0  0  0  0  0
    3.4236    6.6867   24.4708 N   0  0  0  0  0  0  0  0  0  0  0  0
    5.6354    5.6907   24.3820 N   0  0  0  0  0  0  0  0  0  0  0  0
    2.6901    2.8843   18.4339 C   0  0  0  0  0  0  0  0  0  0  0  0
    3.6939    2.3578   18.9107 O   0  0  0  0  0  0  0  0  0  0  0  0
    2.5448    3.0482   17.0119 N   0  0  0  0  0  0  0  0  0  0  0  0
  1  2  2  0  0  0  0
  1  6  1  0  0  0  0
  1  7  1  0  0  0  0
  2  3  1  0  0  0  0
  3  4  2  0  0  0  0
  4  5  1  0  0  0  0
  4 20  1  0  0  0  0
  5  6  2  0  0  0  0
  7  8  1  0  0  0  0
  8  9  1  0  0  0  0
  9 10  2  0  0  0  0
  9 13  1  0  0  0  0
 10 11  1  0  0  0  0
 11 12  1  0  0  0  0
 12 13  2  0  0  0  0
 12 18  1  0  0  0  0
 13 14  1  0  0  0  0
 14 15  1  0  0  0  0
 14 16  2  0  0  0  0
 16 17  1  0  0  0  0
 17 18  2  0  0  0  0
 17 19  1  0  0  0  0
 20 21  2  0  0  0  0
 20 22  1  0  0  0  0
M  END
>  <CHROM.1>
-112.56768067,120.48885975,65.38925591,89.86160183,1.62484572,4.67244079
22.06304792,1.60108521,0.09770991,-2.08279987

>  <Name>
ligand

>  <RI>
0

>  <Rbt.Current_Directory>
/home/itssahil/PROJECTS/Mol_Feturizer/New_Systems/rnas/4LVY

>  <Rbt.Executable>
rbdock ($Id: //depot/dev/client3/rdock/2013.1/src/exe/rbdock.cxx#4 $)

>  <Rbt.Library>
libRbt.so (2013.1, Build901 2013/11/27)

>  <Rbt.Parameter_File>
/export/apps/rDock/src/rDock_2013.1_src/data/scripts/dock_solv.prm

>  <Rbt.Receptor>
prm/pocket_docking_5.prm

>  <SCORE>
-18.0737

>  <SCORE.INTER>
-16.6829

>  <SCORE.INTER.CONST>
1

>  <SCORE.INTER.POLAR>
0

>  <SCORE.INTER.ROT>
4

>  <SCORE.INTER.SOLV>
10.0925

>  <SCORE.INTER.VDW>
-20.7527

>  <SCORE.INTER.norm>
-0.758313

>  <SCORE.INTRA>
-1.39086

>  <SCORE.INTRA.DIHEDRAL>
0.142472

>  <SCORE.INTRA.DIHEDRAL.0>
6.18831

>  <SCORE.INTRA.POLAR>
0

>  <SCORE.INTRA.POLAR.0>
0

>  <SCORE.INTRA.REPUL>
0

>  <SCORE.INTRA.REPUL.0>
0

>  <SCORE.INTRA.SOLV>
0.580264

>  <SCORE.INTRA.SOLV.lig_0>
-44.3465

>  <SCORE.INTRA.VDW>
-1.75222

>  <SCORE.INTRA.VDW.0>
-0.778272

>  <SCORE.INTRA.norm>
-0.0632207

>  <SCORE.RESTR>
0

>  <SCORE.RESTR.CAVITY>
0

>  <SCORE.RESTR.norm>
0

>  <SCORE.SYSTEM>
0

>  <SCORE.SYSTEM.CONST>
0

>  <SCORE.SYSTEM.DIHEDRAL>
0

>  <SCORE.SYSTEM.SOLV>
0

>  <SCORE.SYSTEM.norm>
0

>  <SCORE.heavy>
22

>  <SCORE.norm>
-0.821533

>  <RMSD>
5.269

$$$$
ligand
 OpenBabel11021811503D
libRbt.so/2013.1/901 2013/11/27
 22 24  0  0  0  0  0  0  0  0999 V2000
   -0.0548    4.8414   20.2979 C   0  0  0  0  0  0  0  0  0  0  0  0
    0.1231    6.2383   20.2106 C   0  0  0  0  0  0  0  0  0  0  0  0
    1.1048    6.7511   19.3669 C   0  0  0  0  0  0  0  0  0  0  0  0
    1.9026    5.8694   18.6170 C   0  0  0  0  0  0  0  0  0  0  0  0
    1.7313    4.4663   18.7109 C   0  0  0  0  0  0  0  0  0  0  0  0
    0.7525    3.9569   19.5532 C   0  0  0  0  0  0  0  0  0  0  0  0
   -1.1246    4.2572   21.2404 C   0  0  0  0  0  0  0  0  0  0  0  0
   -0.6634    4.0491   22.7045 C   0  0  0  0  0  0  0  0  0  0  0  0
   -0.2714    5.3393   23.4152 C   0  0  0  0  0  0  0  0  0  0  0  0
   -1.1493    6.0981   24.1953 C   0  0  0  0  0  0  0  0  0  0  0  0
   -0.4430    7.1605   24.6626 N   0  0  0  0  0  0  0  0  0  0  0  0
    0.8687    7.1491   24.2318 C   0  0  0  0  0  0  0  0  0  0  0  0
    1.0238    6.0152   23.4420 C   0  0  0  0  0  0  0  0  0  0  0  0
    2.3322    5.7808   22.8716 C   0  0  0  0  0  0  0  0  0  0  0  0
    2.5619    4.6607   22.0774 O   0  0  0  0  0  0  0  0  0  0  0  0
    3.3519    6.6885   23.1245 N   0  0  0  0  0  0  0  0  0  0  0  0
    3.1562    7.7838   23.9149 C   0  0  0  0  0  0  0  0  0  0  0  0
    1.9552    8.0327   24.4601 N   0  0  0  0  0  0  0  0  0  0  0  0
    4.2689    8.7054   24.1663 N   0  0  0  0  0  0  0  0  0  0  0  0
    2.9602    6.4508   17.7166 C   0  0  0  0  0  0  0  0  0  0  0  0
    3.8654    7.1360   18.1889 O   0  0  0  0  0  0  0  0  0  0  0  0
    2.8860    6.1953   16.3027 N   0  0  0  0  0  0  0  0  0  0  0  0
  1  2  2  0  0  0  0
  1  6  1  0  0  0  0
  1  7  1  0  0  0  0
  2  3  1  0  0  0  0
  3  4  2  0  0  0  0
  4  5  1  0  0  0  0
  4 20  1  0  0  0  0
  5  6  2  0  0  0  0
  7  8  1  0  0  0  0
  8  9  1  0  0  0  0
  9 10  2  0  0  0  0
  9 13  1  0  0  0  0
 10 11  1  0  0  0  0
 11 12  1  0  0  0  0
 12 13  2  0  0  0  0
 12 18  1  0  0  0  0
 13 14  1  0  0  0  0
 14 15  1  0  0  0  0
 14 16  2  0  0  0  0
 16 17  1  0  0  0  0
 17 18  2  0  0  0  0
 17 19  1  0  0  0  0
 20 21  2  0  0  0  0
 20 22  1  0  0  0  0
M  END
>  <CHROM.1>
-85.79398918,60.41596398,62.36039505,93.19142515,1.46741974,6.08667543,21.52470519
1.34284215,-0.58835878,-1.85447129

>  <Name>
ligand

>  <RI>
0

>  <Rbt.Current_Directory>
/home/itssahil/PROJECTS/Mol_Feturizer/New_Systems/rnas/4LVY

>  <Rbt.Executable>
rbdock ($Id: //depot/dev/client3/rdock/2013.1/src/exe/rbdock.cxx#4 $)

>  <Rbt.Library>
libRbt.so (2013.1, Build901 2013/11/27)

>  <Rbt.Parameter_File>
/export/apps/rDock/src/rDock_2013.1_src/data/scripts/dock_solv.prm

>  <Rbt.Receptor>
prm/pocket_docking_6.prm

>  <SCORE>
-14.7582

>  <SCORE.INTER>
-12.645

>  <SCORE.INTER.CONST>
1

>  <SCORE.INTER.POLAR>
0

>  <SCORE.INTER.ROT>
4

>  <SCORE.INTER.SOLV>
4.3682

>  <SCORE.INTER.VDW>
-16.1528

>  <SCORE.INTER.norm>
-0.574775

>  <SCORE.INTRA>
-2.11315

>  <SCORE.INTRA.DIHEDRAL>
-0.00154236

>  <SCORE.INTRA.DIHEDRAL.0>
6.18831

>  <SCORE.INTRA.POLAR>
0

>  <SCORE.INTRA.POLAR.0>
0

>  <SCORE.INTRA.REPUL>
0

>  <SCORE.INTRA.REPUL.0>
0

>  <SCORE.INTRA.SOLV>
0.624383

>  <SCORE.INTRA.SOLV.lig_0>
-44.3465

>  <SCORE.INTRA.VDW>
-2.42457

>  <SCORE.INTRA.VDW.0>
-0.778272

>  <SCORE.INTRA.norm>
-0.096052

>  <SCORE.RESTR>
0

>  <SCORE.RESTR.CAVITY>
0

>  <SCORE.RESTR.norm>
0

>  <SCORE.SYSTEM>
0

>  <SCORE.SYSTEM.CONST>
0

>  <SCORE.SYSTEM.DIHEDRAL>
0

>  <SCORE.SYSTEM.SOLV>
0

>  <SCORE.SYSTEM.norm>
0

>  <SCORE.heavy>
22

>  <SCORE.norm>
-0.670827

>  <RMSD>
5.523

$$$$
ligand
 OpenBabel11021811503D
libRbt.so/2013.1/901 2013/11/27
 22 24  0  0  0  0  0  0  0  0999 V2000
    4.6617    1.3058   22.7098 C   0  0  0  0  0  0  0  0  0  0  0  0
    4.7741    1.5784   24.0896 C   0  0  0  0  0  0  0  0  0  0  0  0
    5.5002    0.7107   24.9009 C   0  0  0  0  0  0  0  0  0  0  0  0
    6.1083   -0.4223   24.3328 C   0  0  0  0  0  0  0  0  0  0  0  0
    5.9883   -0.7022   22.9493 C   0  0  0  0  0  0  0  0  0  0  0  0
    5.2633    0.1638   22.1420 C   0  0  0  0  0  0  0  0  0  0  0  0
    3.8467    2.2464   21.8013 C   0  0  0  0  0  0  0  0  0  0  0  0
    2.5463    1.6337   21.2239 C   0  0  0  0  0  0  0  0  0  0  0  0
    1.6906    2.6272   20.4466 C   0  0  0  0  0  0  0  0  0  0  0  0
    0.4769    3.1426   20.9116 C   0  0  0  0  0  0  0  0  0  0  0  0
    0.0173    3.9913   19.9553 N   0  0  0  0  0  0  0  0  0  0  0  0
    0.8673    4.0689   18.8701 C   0  0  0  0  0  0  0  0  0  0  0  0
    1.9398    3.2250   19.1369 C   0  0  0  0  0  0  0  0  0  0  0  0
    2.9785    3.1388   18.1339 C   0  0  0  0  0  0  0  0  0  0  0  0
    4.0858    2.3200   18.3380 O   0  0  0  0  0  0  0  0  0  0  0  0
    2.8537    3.8803   16.9667 N   0  0  0  0  0  0  0  0  0  0  0  0
    1.7870    4.7041   16.7520 C   0  0  0  0  0  0  0  0  0  0  0  0
    0.8046    4.8083   17.6606 N   0  0  0  0  0  0  0  0  0  0  0  0
    1.7079    5.4799   15.5101 N   0  0  0  0  0  0  0  0  0  0  0  0
    6.8830   -1.3467   25.2342 C   0  0  0  0  0  0  0  0  0  0  0  0
    7.9422   -0.9756   25.7367 O   0  0  0  0  0  0  0  0  0  0  0  0
    6.3654   -2.6649   25.4879 N   0  0  0  0  0  0  0  0  0  0  0  0
  1  2  2  0  0  0  0
  1  6  1  0  0  0  0
  1  7  1  0  0  0  0
  2  3  1  0  0  0  0
  3  4  2  0  0  0  0
  4  5  1  0  0  0  0
  4 20  1  0  0  0  0
  5  6  2  0  0  0  0
  7  8  1  0  0  0  0
  8  9  1  0  0  0  0
  9 10  2  0  0  0  0
  9 13  1  0  0  0  0
 10 11  1  0  0  0  0
 11 12  1  0  0  0  0
 12 13  2  0  0  0  0
 12 18  1  0  0  0  0
 13 14  1  0  0  0  0
 14 15  1  0  0  0  0
 14 16  2  0  0  0  0
 16 17  1  0  0  0  0
 17 18  2  0  0  0  0
 17 19  1  0  0  0  0
 20 21  2  0  0  0  0
 20 22  1  0  0  0  0
M  END
>  <CHROM.1>
-112.18474648,-68.83151548,174.13425980,-107.93312215,3.61333791,1.95486798
21.02458245,0.99974555,-0.43556526,1.92659526

>  <Name>
ligand

>  <RI>
0

>  <Rbt.Current_Directory>
/home/itssahil/PROJECTS/Mol_Feturizer/New_Systems/rnas/4LVY

>  <Rbt.Executable>
rbdock ($Id: //depot/dev/client3/rdock/2013.1/src/exe/rbdock.cxx#4 $)

>  <Rbt.Library>
libRbt.so (2013.1, Build901 2013/11/27)

>  <Rbt.Parameter_File>
/export/apps/rDock/src/rDock_2013.1_src/data/scripts/dock_solv.prm

>  <Rbt.Receptor>
prm/pocket_docking_8.prm

>  <SCORE>
-10.7788

>  <SCORE.INTER>
-10.3128

>  <SCORE.INTER.CONST>
1

>  <SCORE.INTER.POLAR>
0

>  <SCORE.INTER.ROT>
4

>  <SCORE.INTER.SOLV>
5.00131

>  <SCORE.INTER.VDW>
-14.809

>  <SCORE.INTER.norm>
-0.468763

>  <SCORE.INTRA>
-0.466023

>  <SCORE.INTRA.DIHEDRAL>
0.112194

>  <SCORE.INTRA.DIHEDRAL.0>
6.18831

>  <SCORE.INTRA.POLAR>
0

>  <SCORE.INTRA.POLAR.0>
0

>  <SCORE.INTRA.REPUL>
0

>  <SCORE.INTRA.REPUL.0>
0

>  <SCORE.INTRA.SOLV>
0.236256

>  <SCORE.INTRA.SOLV.lig_0>
-44.3465

>  <SCORE.INTRA.VDW>
-0.640248

>  <SCORE.INTRA.VDW.0>
-0.778272

>  <SCORE.INTRA.norm>
-0.0211829

>  <SCORE.RESTR>
0

>  <SCORE.RESTR.CAVITY>
0

>  <SCORE.RESTR.norm>
0

>  <SCORE.SYSTEM>
0

>  <SCORE.SYSTEM.CONST>
0

>  <SCORE.SYSTEM.DIHEDRAL>
0

>  <SCORE.SYSTEM.SOLV>
0

>  <SCORE.SYSTEM.norm>
0

>  <SCORE.heavy>
22

>  <SCORE.norm>
-0.489946

>  <RMSD>
5.525

$$$$
ligand
 OpenBabel11021811503D
libRbt.so/2013.1/901 2013/11/27
 22 24  0  0  0  0  0  0  0  0999 V2000
   -0.2865    5.3868   20.5476 C   0  0  0  0  0  0  0  0  0  0  0  0
    0.1422    4.1736   19.9689 C   0  0  0  0  0  0  0  0  0  0  0  0
    0.9502    4.2047   18.8355 C   0  0  0  0  0  0  0  0  0  0  0  0
    1.3246    5.4433   18.2861 C   0  0  0  0  0  0  0  0  0  0  0  0
    0.8871    6.6620   18.8606 C   0  0  0  0  0  0  0  0  0  0  0  0
    0.0809    6.6290   19.9903 C   0  0  0  0  0  0  0  0  0  0  0  0
   -1.1957    5.3696   21.7914 C   0  0  0  0  0  0  0  0  0  0  0  0
   -0.7760    4.3665   22.8948 C   0  0  0  0  0  0  0  0  0  0  0  0
    0.7166    4.3814   23.2042 C   0  0  0  0  0  0  0  0  0  0  0  0
    1.5871    3.3308   22.8989 C   0  0  0  0  0  0  0  0  0  0  0  0
    2.8233    3.7096   23.3164 N   0  0  0  0  0  0  0  0  0  0  0  0
    2.8218    4.9665   23.8877 C   0  0  0  0  0  0  0  0  0  0  0  0
    1.5121    5.4309   23.8370 C   0  0  0  0  0  0  0  0  0  0  0  0
    1.2558    6.7469   24.3800 C   0  0  0  0  0  0  0  0  0  0  0  0
   -0.0305    7.2788   24.3551 O   0  0  0  0  0  0  0  0  0  0  0  0
    2.3081    7.4684   24.9278 N   0  0  0  0  0  0  0  0  0  0  0  0
    3.5809    6.9760   24.9469 C   0  0  0  0  0  0  0  0  0  0  0  0
    3.8549    5.7587   24.4523 N   0  0  0  0  0  0  0  0  0  0  0  0
    4.6623    7.7827   25.5216 N   0  0  0  0  0  0  0  0  0  0  0  0
    2.1946    5.4476   17.0571 C   0  0  0  0  0  0  0  0  0  0  0  0
    3.4017    5.6606   17.1552 O   0  0  0  0  0  0  0  0  0  0  0  0
    1.5875    5.2057   15.7754 N   0  0  0  0  0  0  0  0  0  0  0  0
  1  2  2  0  0  0  0
  1  6  1  0  0  0  0
  1  7  1  0  0  0  0
  2  3  1  0  0  0  0
  3  4  2  0  0  0  0
  4  5  1  0  0  0  0
  4 20  1  0  0  0  0
  5  6  2  0  0  0  0
  7  8  1  0  0  0  0
  8  9  1  0  0  0  0
  9 10  2  0  0  0  0
  9 13  1  0  0  0  0
 10 11  1  0  0  0  0
 11 12  1  0  0  0  0
 12 13  2  0  0  0  0
 12 18  1  0  0  0  0
 13 14  1  0  0  0  0
 14 15  1  0  0  0  0
 14 16  2  0  0  0  0
 16 17  1  0  0  0  0
 17 18  2  0  0  0  0
 17 19  1  0  0  0  0
 20 21  2  0  0  0  0
 20 22  1  0  0  0  0
M  END
>  <CHROM.1>
44.61600637,-100.91918646,45.19209220,-111.20253882,1.54100740,5.59295229
21.69966828,1.72487886,-0.31449446,-1.66925648

>  <Name>
ligand

>  <RI>
0

>  <Rbt.Current_Directory>
/home/itssahil/PROJECTS/Mol_Feturizer/New_Systems/rnas/4LVY

>  <Rbt.Executable>
rbdock ($Id: //depot/dev/client3/rdock/2013.1/src/exe/rbdock.cxx#4 $)

>  <Rbt.Library>
libRbt.so (2013.1, Build901 2013/11/27)

>  <Rbt.Parameter_File>
/export/apps/rDock/src/rDock_2013.1_src/data/scripts/dock_solv.prm

>  <Rbt.Receptor>
prm/pocket_docking_8.prm

>  <SCORE>
-12.4331

>  <SCORE.INTER>
-11.6842

>  <SCORE.INTER.CONST>
1

>  <SCORE.INTER.POLAR>
0

>  <SCORE.INTER.ROT>
4

>  <SCORE.INTER.SOLV>
7.48269

>  <SCORE.INTER.VDW>
-16.5503

>  <SCORE.INTER.norm>
-0.531098

>  <SCORE.INTRA>
-0.748887

>  <SCORE.INTRA.DIHEDRAL>
0.806955

>  <SCORE.INTRA.DIHEDRAL.0>
6.18831

>  <SCORE.INTRA.POLAR>
0

>  <SCORE.INTRA.POLAR.0>
0

>  <SCORE.INTRA.REPUL>
0

>  <SCORE.INTRA.REPUL.0>
0

>  <SCORE.INTRA.SOLV>
0.250625

>  <SCORE.INTRA.SOLV.lig_0>
-44.3465

>  <SCORE.INTRA.VDW>
-1.27768

>  <SCORE.INTRA.VDW.0>
-0.778272

>  <SCORE.INTRA.norm>
-0.0340403

>  <SCORE.RESTR>
0

>  <SCORE.RESTR.CAVITY>
0

>  <SCORE.RESTR.norm>
0

>  <SCORE.SYSTEM>
0

>  <SCORE.SYSTEM.CONST>
0

>  <SCORE.SYSTEM.DIHEDRAL>
0

>  <SCORE.SYSTEM.SOLV>
0

>  <SCORE.SYSTEM.norm>
0

>  <SCORE.heavy>
22

>  <SCORE.norm>
-0.565139

>  <RMSD>
5.642

$$$$
ligand
 OpenBabel11021811503D
libRbt.so/2013.1/901 2013/11/27
 22 24  0  0  0  0  0  0  0  0999 V2000
    0.7676    5.7662   23.7920 C   0  0  0  0  0  0  0  0  0  0  0  0
    1.5043    6.7192   24.5266 C   0  0  0  0  0  0  0  0  0  0  0  0
    2.7859    6.4008   24.9675 C   0  0  0  0  0  0  0  0  0  0  0  0
    3.3243    5.1357   24.6747 C   0  0  0  0  0  0  0  0  0  0  0  0
    2.5821    4.1744   23.9454 C   0  0  0  0  0  0  0  0  0  0  0  0
    1.3040    4.4935   23.5072 C   0  0  0  0  0  0  0  0  0  0  0  0
   -0.6590    6.0963   23.3122 C   0  0  0  0  0  0  0  0  0  0  0  0
   -1.4206    4.9141   22.6624 C   0  0  0  0  0  0  0  0  0  0  0  0
   -0.6628    4.2480   21.5198 C   0  0  0  0  0  0  0  0  0  0  0  0
   -0.4822    2.8663   21.4042 C   0  0  0  0  0  0  0  0  0  0  0  0
    0.2297    2.6560   20.2662 N   0  0  0  0  0  0  0  0  0  0  0  0
    0.5347    3.8335   19.6130 C   0  0  0  0  0  0  0  0  0  0  0  0
   -0.0107    4.8662   20.3676 C   0  0  0  0  0  0  0  0  0  0  0  0
    0.1766    6.2139   19.8768 C   0  0  0  0  0  0  0  0  0  0  0  0
   -0.3496    7.2960   20.5769 O   0  0  0  0  0  0  0  0  0  0  0  0
    0.8898    6.4120   18.7020 N   0  0  0  0  0  0  0  0  0  0  0  0
    1.3992    5.3662   17.9883 C   0  0  0  0  0  0  0  0  0  0  0  0
    1.2447    4.1027   18.4143 N   0  0  0  0  0  0  0  0  0  0  0  0
    2.1313    5.6249   16.7443 N   0  0  0  0  0  0  0  0  0  0  0  0
    4.7104    4.8160   25.1683 C   0  0  0  0  0  0  0  0  0  0  0  0
    5.6855    5.3903   24.6873 O   0  0  0  0  0  0  0  0  0  0  0  0
    4.8691    3.8274   26.2015 N   0  0  0  0  0  0  0  0  0  0  0  0
  1  2  2  0  0  0  0
  1  6  1  0  0  0  0
  1  7  1  0  0  0  0
  2  3  1  0  0  0  0
  3  4  2  0  0  0  0
  4  5  1  0  0  0  0
  4 20  1  0  0  0  0
  5  6  2  0  0  0  0
  7  8  1  0  0  0  0
  8  9  1  0  0  0  0
  9 10  2  0  0  0  0
  9 13  1  0  0  0  0
 10 11  1  0  0  0  0
 11 12  1  0  0  0  0
 12 13  2  0  0  0  0
 12 18  1  0  0  0  0
 13 14  1  0  0  0  0
 14 15  1  0  0  0  0
 14 16  2  0  0  0  0
 16 17  1  0  0  0  0
 17 18  2  0  0  0  0
 17 19  1  0  0  0  0
 20 21  2  0  0  0  0
 20 22  1  0  0  0  0
M  END
>  <CHROM.1>
-173.21376526,-68.87889137,-53.71046560,131.19319659,1.40715651,5.07915395
21.91869854,1.07504124,-0.05843650,1.54315367

>  <Name>
ligand

>  <RI>
0

>  <Rbt.Current_Directory>
/home/itssahil/PROJECTS/Mol_Feturizer/New_Systems/rnas/4LVY

>  <Rbt.Executable>
rbdock ($Id: //depot/dev/client3/rdock/2013.1/src/exe/rbdock.cxx#4 $)

>  <Rbt.Library>
libRbt.so (2013.1, Build901 2013/11/27)

>  <Rbt.Parameter_File>
/export/apps/rDock/src/rDock_2013.1_src/data/scripts/dock_solv.prm

>  <Rbt.Receptor>
prm/pocket_docking_8.prm

>  <SCORE>
-15.2707

>  <SCORE.INTER>
-15.3345

>  <SCORE.INTER.CONST>
1

>  <SCORE.INTER.POLAR>
0

>  <SCORE.INTER.ROT>
4

>  <SCORE.INTER.SOLV>
6.17837

>  <SCORE.INTER.VDW>
-18.5491

>  <SCORE.INTER.norm>
-0.697023

>  <SCORE.INTRA>
0.0638339

>  <SCORE.INTRA.DIHEDRAL>
0.186465

>  <SCORE.INTRA.DIHEDRAL.0>
6.18831

>  <SCORE.INTRA.POLAR>
0

>  <SCORE.INTRA.POLAR.0>
0

>  <SCORE.INTRA.REPUL>
0

>  <SCORE.INTRA.REPUL.0>
0

>  <SCORE.INTRA.SOLV>
0.371182

>  <SCORE.INTRA.SOLV.lig_0>
-44.3465

>  <SCORE.INTRA.VDW>
-0.21499

>  <SCORE.INTRA.VDW.0>
-0.778272

>  <SCORE.INTRA.norm>
0.00290154

>  <SCORE.RESTR>
0

>  <SCORE.RESTR.CAVITY>
0

>  <SCORE.RESTR.norm>
0

>  <SCORE.SYSTEM>
0

>  <SCORE.SYSTEM.CONST>
0

>  <SCORE.SYSTEM.DIHEDRAL>
0

>  <SCORE.SYSTEM.SOLV>
0

>  <SCORE.SYSTEM.norm>
0

>  <SCORE.heavy>
22

>  <SCORE.norm>
-0.694121

>  <RMSD>
6.144

$$$$
ligand
 OpenBabel11021811503D
libRbt.so/2013.1/901 2013/11/27
 22 24  0  0  0  0  0  0  0  0999 V2000
    0.3983    5.2602   23.7687 C   0  0  0  0  0  0  0  0  0  0  0  0
    1.0421    4.1385   23.2048 C   0  0  0  0  0  0  0  0  0  0  0  0
    2.4129    3.9750   23.3845 C   0  0  0  0  0  0  0  0  0  0  0  0
    3.1329    4.9297   24.1237 C   0  0  0  0  0  0  0  0  0  0  0  0
    2.4894    6.0613   24.6825 C   0  0  0  0  0  0  0  0  0  0  0  0
    1.1226    6.2230   24.5015 C   0  0  0  0  0  0  0  0  0  0  0  0
   -1.1150    5.4653   23.5639 C   0  0  0  0  0  0  0  0  0  0  0  0
   -1.6303    5.1531   22.1367 C   0  0  0  0  0  0  0  0  0  0  0  0
   -0.7968    5.7876   21.0293 C   0  0  0  0  0  0  0  0  0  0  0  0
   -0.7999    7.1547   20.7364 C   0  0  0  0  0  0  0  0  0  0  0  0
    0.0624    7.3380   19.7026 N   0  0  0  0  0  0  0  0  0  0  0  0
    0.6440    6.1562   19.2887 C   0  0  0  0  0  0  0  0  0  0  0  0
    0.1324    5.1493   20.0998 C   0  0  0  0  0  0  0  0  0  0  0  0
    0.6017    3.8027   19.8575 C   0  0  0  0  0  0  0  0  0  0  0  0
    0.1384    2.7463   20.6369 O   0  0  0  0  0  0  0  0  0  0  0  0
    1.5162    3.5794   18.8368 N   0  0  0  0  0  0  0  0  0  0  0  0
    1.9991    4.6010   18.0715 C   0  0  0  0  0  0  0  0  0  0  0  0
    1.5853    5.8627   18.2682 N   0  0  0  0  0  0  0  0  0  0  0  0
    2.9764    4.3174   17.0156 N   0  0  0  0  0  0  0  0  0  0  0  0
    4.6152    4.7308   24.2981 C   0  0  0  0  0  0  0  0  0  0  0  0
    5.0370    3.8407   25.0341 O   0  0  0  0  0  0  0  0  0  0  0  0
    5.5203    5.6016   23.5962 N   0  0  0  0  0  0  0  0  0  0  0  0
  1  2  2  0  0  0  0
  1  6  1  0  0  0  0
  1  7  1  0  0  0  0
  2  3  1  0  0  0  0
  3  4  2  0  0  0  0
  4  5  1  0  0  0  0
  4 20  1  0  0  0  0
  5  6  2  0  0  0  0
  7  8  1  0  0  0  0
  8  9  1  0  0  0  0
  9 10  2  0  0  0  0
  9 13  1  0  0  0  0
 10 11  1  0  0  0  0
 11 12  1  0  0  0  0
 12 13  2  0  0  0  0
 12 18  1  0  0  0  0
 13 14  1  0  0  0  0
 14 15  1  0  0  0  0
 14 16  2  0  0  0  0
 16 17  1  0  0  0  0
 17 18  2  0  0  0  0
 17 19  1  0  0  0  0
 20 21  2  0  0  0  0
 20 22  1  0  0  0  0
M  END
>  <CHROM.1>
-41.43128731,-71.59519103,-47.95578318,-72.48641953,1.43848655,5.04730868
21.60503345,1.08124069,-0.25772536,1.47963045

>  <Name>
ligand

>  <RI>
0

>  <Rbt.Current_Directory>
/home/itssahil/PROJECTS/Mol_Feturizer/New_Systems/rnas/4LVY

>  <Rbt.Executable>
rbdock ($Id: //depot/dev/client3/rdock/2013.1/src/exe/rbdock.cxx#4 $)

>  <Rbt.Library>
libRbt.so (2013.1, Build901 2013/11/27)

>  <Rbt.Parameter_File>
/export/apps/rDock/src/rDock_2013.1_src/data/scripts/dock_solv.prm

>  <Rbt.Receptor>
prm/pocket_docking_7.prm

>  <SCORE>
-15.1439

>  <SCORE.INTER>
-14.1329

>  <SCORE.INTER.CONST>
1

>  <SCORE.INTER.POLAR>
0

>  <SCORE.INTER.ROT>
4

>  <SCORE.INTER.SOLV>
6.45959

>  <SCORE.INTER.VDW>
-17.8418

>  <SCORE.INTER.norm>
-0.642404

>  <SCORE.INTRA>
-1.01101

>  <SCORE.INTRA.DIHEDRAL>
0.642741

>  <SCORE.INTRA.DIHEDRAL.0>
6.18831

>  <SCORE.INTRA.POLAR>
0

>  <SCORE.INTRA.POLAR.0>
0

>  <SCORE.INTRA.REPUL>
0

>  <SCORE.INTRA.REPUL.0>
0

>  <SCORE.INTRA.SOLV>
0.257846

>  <SCORE.INTRA.SOLV.lig_0>
-44.3465

>  <SCORE.INTRA.VDW>
-1.4613

>  <SCORE.INTRA.VDW.0>
-0.778272

>  <SCORE.INTRA.norm>
-0.045955

>  <SCORE.RESTR>
0

>  <SCORE.RESTR.CAVITY>
0

>  <SCORE.RESTR.norm>
0

>  <SCORE.SYSTEM>
0

>  <SCORE.SYSTEM.CONST>
0

>  <SCORE.SYSTEM.DIHEDRAL>
0

>  <SCORE.SYSTEM.SOLV>
0

>  <SCORE.SYSTEM.norm>
0

>  <SCORE.heavy>
22

>  <SCORE.norm>
-0.688359

>  <RMSD>
6.162

$$$$
ligand
 OpenBabel11021811503D
libRbt.so/2013.1/901 2013/11/27
 22 24  0  0  0  0  0  0  0  0999 V2000
    0.6837    5.8940   23.8536 C   0  0  0  0  0  0  0  0  0  0  0  0
    1.4613    4.7325   23.6618 C   0  0  0  0  0  0  0  0  0  0  0  0
    2.8192    4.7605   23.9675 C   0  0  0  0  0  0  0  0  0  0  0  0
    3.3933    5.9451   24.4610 C   0  0  0  0  0  0  0  0  0  0  0  0
    2.6157    7.1148   24.6451 C   0  0  0  0  0  0  0  0  0  0  0  0
    1.2620    7.0851   24.3391 C   0  0  0  0  0  0  0  0  0  0  0  0
   -0.8167    5.8849   23.5033 C   0  0  0  0  0  0  0  0  0  0  0  0
   -1.3345    4.5655   22.8779 C   0  0  0  0  0  0  0  0  0  0  0  0
   -0.5810    4.1429   21.6220 C   0  0  0  0  0  0  0  0  0  0  0  0
   -0.2799    2.8155   21.3024 C   0  0  0  0  0  0  0  0  0  0  0  0
    0.3860    2.8368   20.1183 N   0  0  0  0  0  0  0  0  0  0  0  0
    0.5451    4.1179   19.6288 C   0  0  0  0  0  0  0  0  0  0  0  0
   -0.0521    4.9767   20.5451 C   0  0  0  0  0  0  0  0  0  0  0  0
   -0.0169    6.3914   20.2453 C   0  0  0  0  0  0  0  0  0  0  0  0
   -0.6024    7.3082   21.1140 O   0  0  0  0  0  0  0  0  0  0  0  0
    0.6104    6.8203   19.0833 N   0  0  0  0  0  0  0  0  0  0  0  0
    1.1751    5.9395   18.2071 C   0  0  0  0  0  0  0  0  0  0  0  0
    1.1614    4.6201   18.4535 N   0  0  0  0  0  0  0  0  0  0  0  0
    1.8121    6.4397   16.9846 N   0  0  0  0  0  0  0  0  0  0  0  0
    4.8652    5.9490   24.7784 C   0  0  0  0  0  0  0  0  0  0  0  0
    5.6388    6.6360   24.1138 O   0  0  0  0  0  0  0  0  0  0  0  0
    5.3444    5.1334   25.8625 N   0  0  0  0  0  0  0  0  0  0  0  0
  1  2  2  0  0  0  0
  1  6  1  0  0  0  0
  1  7  1  0  0  0  0
  2  3  1  0  0  0  0
  3  4  2  0  0  0  0
  4  5  1  0  0  0  0
  4 20  1  0  0  0  0
  5  6  2  0  0  0  0
  7  8  1  0  0  0  0
  8  9  1  0  0  0  0
  9 10  2  0  0  0  0
  9 13  1  0  0  0  0
 10 11  1  0  0  0  0
 11 12  1  0  0  0  0
 12 13  2  0  0  0  0
 12 18  1  0  0  0  0
 13 14  1  0  0  0  0
 14 15  1  0  0  0  0
 14 16  2  0  0  0  0
 16 17  1  0  0  0  0
 17 18  2  0  0  0  0
 17 19  1  0  0  0  0
 20 21  2  0  0  0  0
 20 22  1  0  0  0  0
M  END
>  <CHROM.1>
-3.15958257,113.14793421,-56.08388626,142.66245659,1.38265244,5.48829636
21.94114565,0.96689772,0.30060642,1.63820656

>  <Name>
ligand

>  <RI>
0

>  <Rbt.Current_Directory>
/home/itssahil/PROJECTS/Mol_Feturizer/New_Systems/rnas/4LVY

>  <Rbt.Executable>
rbdock ($Id: //depot/dev/client3/rdock/2013.1/src/exe/rbdock.cxx#4 $)

>  <Rbt.Library>
libRbt.so (2013.1, Build901 2013/11/27)

>  <Rbt.Parameter_File>
/export/apps/rDock/src/rDock_2013.1_src/data/scripts/dock_solv.prm

>  <Rbt.Receptor>
prm/pocket_docking_8.prm

>  <SCORE>
-15.3343

>  <SCORE.INTER>
-15.4198

>  <SCORE.INTER.CONST>
1

>  <SCORE.INTER.POLAR>
0

>  <SCORE.INTER.ROT>
4

>  <SCORE.INTER.SOLV>
6.07504

>  <SCORE.INTER.VDW>
-18.5715

>  <SCORE.INTER.norm>
-0.7009

>  <SCORE.INTRA>
0.0854555

>  <SCORE.INTRA.DIHEDRAL>
0.088469

>  <SCORE.INTRA.DIHEDRAL.0>
6.18831

>  <SCORE.INTRA.POLAR>
0

>  <SCORE.INTRA.POLAR.0>
0

>  <SCORE.INTRA.REPUL>
0

>  <SCORE.INTRA.REPUL.0>
0

>  <SCORE.INTRA.SOLV>
0.51361

>  <SCORE.INTRA.SOLV.lig_0>
-44.3465

>  <SCORE.INTRA.VDW>
-0.215584

>  <SCORE.INTRA.VDW.0>
-0.778272

>  <SCORE.INTRA.norm>
0.00388434

>  <SCORE.RESTR>
0

>  <SCORE.RESTR.CAVITY>
0

>  <SCORE.RESTR.norm>
0

>  <SCORE.SYSTEM>
0

>  <SCORE.SYSTEM.CONST>
0

>  <SCORE.SYSTEM.DIHEDRAL>
0

>  <SCORE.SYSTEM.SOLV>
0

>  <SCORE.SYSTEM.norm>
0

>  <SCORE.heavy>
22

>  <SCORE.norm>
-0.697016

>  <RMSD>
6.164

$$$$
ligand
 OpenBabel11021811503D
libRbt.so/2013.1/901 2013/11/27
 22 24  0  0  0  0  0  0  0  0999 V2000
    0.4890    6.0112   24.1760 C   0  0  0  0  0  0  0  0  0  0  0  0
    1.4810    5.0598   23.8576 C   0  0  0  0  0  0  0  0  0  0  0  0
    2.8007    5.4746   23.7001 C   0  0  0  0  0  0  0  0  0  0  0  0
    3.1228    6.8336   23.8599 C   0  0  0  0  0  0  0  0  0  0  0  0
    2.1262    7.7914   24.1703 C   0  0  0  0  0  0  0  0  0  0  0  0
    0.8108    7.3759   24.3262 C   0  0  0  0  0  0  0  0  0  0  0  0
   -0.9790    5.5713   24.3361 C   0  0  0  0  0  0  0  0  0  0  0  0
   -1.7295    5.3010   23.0081 C   0  0  0  0  0  0  0  0  0  0  0  0
   -0.9100    4.5214   21.9862 C   0  0  0  0  0  0  0  0  0  0  0  0
   -0.7772    3.1295   21.9908 C   0  0  0  0  0  0  0  0  0  0  0  0
    0.0147    2.8060   20.9353 N   0  0  0  0  0  0  0  0  0  0  0  0
    0.4191    3.9172   20.2227 C   0  0  0  0  0  0  0  0  0  0  0  0
   -0.1427    5.0243   20.8490 C   0  0  0  0  0  0  0  0  0  0  0  0
    0.1383    6.3219   20.2751 C   0  0  0  0  0  0  0  0  0  0  0  0
   -0.3979    7.4732   20.8452 O   0  0  0  0  0  0  0  0  0  0  0  0
    0.9512    6.4023   19.1523 N   0  0  0  0  0  0  0  0  0  0  0  0
    1.4732    5.2867   18.5645 C   0  0  0  0  0  0  0  0  0  0  0  0
    1.2336    4.0667   19.0704 N   0  0  0  0  0  0  0  0  0  0  0  0
    2.3130    5.4214   17.3699 N   0  0  0  0  0  0  0  0  0  0  0  0
    4.5569    7.2554   23.6787 C   0  0  0  0  0  0  0  0  0  0  0  0
    5.4280    6.8232   24.4313 O   0  0  0  0  0  0  0  0  0  0  0  0
    4.8827    8.1725   22.6191 N   0  0  0  0  0  0  0  0  0  0  0  0
  1  2  2  0  0  0  0
  1  6  1  0  0  0  0
  1  7  1  0  0  0  0
  2  3  1  0  0  0  0
  3  4  2  0  0  0  0
  4  5  1  0  0  0  0
  4 20  1  0  0  0  0
  5  6  2  0  0  0  0
  7  8  1  0  0  0  0
  8  9  1  0  0  0  0
  9 10  2  0  0  0  0
  9 13  1  0  0  0  0
 10 11  1  0  0  0  0
 11 12  1  0  0  0  0
 12 13  2  0  0  0  0
 12 18  1  0  0  0  0
 13 14  1  0  0  0  0
 14 15  1  0  0  0  0
 14 16  2  0  0  0  0
 16 17  1  0  0  0  0
 17 18  2  0  0  0  0
 17 19  1  0  0  0  0
 20 21  2  0  0  0  0
 20 22  1  0  0  0  0
M  END
>  <CHROM.1>
-76.58350273,-62.87914462,43.03430194,82.41096495,1.26231944,5.75215253,21.94152617
0.87582511,0.43692017,1.37090086

>  <Name>
ligand

>  <RI>
0

>  <Rbt.Current_Directory>
/home/itssahil/PROJECTS/Mol_Feturizer/New_Systems/rnas/4LVY

>  <Rbt.Executable>
rbdock ($Id: //depot/dev/client3/rdock/2013.1/src/exe/rbdock.cxx#4 $)

>  <Rbt.Library>
libRbt.so (2013.1, Build901 2013/11/27)

>  <Rbt.Parameter_File>
/export/apps/rDock/src/rDock_2013.1_src/data/scripts/dock_solv.prm

>  <Rbt.Receptor>
prm/pocket_docking_5.prm

>  <SCORE>
-16.0795

>  <SCORE.INTER>
-14.8261

>  <SCORE.INTER.CONST>
1

>  <SCORE.INTER.POLAR>
0

>  <SCORE.INTER.ROT>
4

>  <SCORE.INTER.SOLV>
5.50366

>  <SCORE.INTER.VDW>
-17.9853

>  <SCORE.INTER.norm>
-0.673916

>  <SCORE.INTRA>
-1.27066

>  <SCORE.INTRA.DIHEDRAL>
1.1137

>  <SCORE.INTRA.DIHEDRAL.0>
6.18831

>  <SCORE.INTRA.POLAR>
0

>  <SCORE.INTRA.POLAR.0>
0

>  <SCORE.INTRA.REPUL>
0

>  <SCORE.INTRA.REPUL.0>
0

>  <SCORE.INTRA.SOLV>
0.19285

>  <SCORE.INTRA.SOLV.lig_0>
-44.3465

>  <SCORE.INTRA.VDW>
-1.92394

>  <SCORE.INTRA.VDW.0>
-0.778272

>  <SCORE.INTRA.norm>
-0.0577575

>  <SCORE.RESTR>
0.0172706

>  <SCORE.RESTR.CAVITY>
0.0172706

>  <SCORE.RESTR.norm>
0.000785027

>  <SCORE.SYSTEM>
0

>  <SCORE.SYSTEM.CONST>
0

>  <SCORE.SYSTEM.DIHEDRAL>
0

>  <SCORE.SYSTEM.SOLV>
0

>  <SCORE.SYSTEM.norm>
0

>  <SCORE.heavy>
22

>  <SCORE.norm>
-0.730888

>  <RMSD>
6.313

$$$$
ligand
 OpenBabel11021811503D
libRbt.so/2013.1/901 2013/11/27
 22 24  0  0  0  0  0  0  0  0999 V2000
   -0.1856    5.1778   20.6029 C   0  0  0  0  0  0  0  0  0  0  0  0
    0.8274    5.2465   19.6233 C   0  0  0  0  0  0  0  0  0  0  0  0
    1.0865    6.4599   18.9917 C   0  0  0  0  0  0  0  0  0  0  0  0
    0.3347    7.5957   19.3395 C   0  0  0  0  0  0  0  0  0  0  0  0
   -0.6890    7.5260   20.3162 C   0  0  0  0  0  0  0  0  0  0  0  0
   -0.9464    6.3150   20.9443 C   0  0  0  0  0  0  0  0  0  0  0  0
   -0.4970    3.8386   21.2984 C   0  0  0  0  0  0  0  0  0  0  0  0
   -1.0831    3.9640   22.7269 C   0  0  0  0  0  0  0  0  0  0  0  0
   -0.6185    5.2079   23.4754 C   0  0  0  0  0  0  0  0  0  0  0  0
   -1.4687    6.0381   24.2121 C   0  0  0  0  0  0  0  0  0  0  0  0
   -0.6980    7.0283   24.7332 N   0  0  0  0  0  0  0  0  0  0  0  0
    0.6305    6.9001   24.3798 C   0  0  0  0  0  0  0  0  0  0  0  0
    0.7287    5.7624   23.5863 C   0  0  0  0  0  0  0  0  0  0  0  0
    2.0420    5.4136   23.0905 C   0  0  0  0  0  0  0  0  0  0  0  0
    2.2159    4.2829   22.2972 O   0  0  0  0  0  0  0  0  0  0  0  0
    3.1231    6.2226   23.4140 N   0  0  0  0  0  0  0  0  0  0  0  0
    2.9810    7.3255   24.2052 C   0  0  0  0  0  0  0  0  0  0  0  0
    1.7773    7.6791   24.6823 N   0  0  0  0  0  0  0  0  0  0  0  0
    4.1558    8.1397   24.5328 N   0  0  0  0  0  0  0  0  0  0  0  0
    0.6324    8.8938   18.6370 C   0  0  0  0  0  0  0  0  0  0  0  0
   -0.1407    9.3265   17.7843 O   0  0  0  0  0  0  0  0  0  0  0  0
    1.8343    9.6080   18.9769 N   0  0  0  0  0  0  0  0  0  0  0  0
  1  2  2  0  0  0  0
  1  6  1  0  0  0  0
  1  7  1  0  0  0  0
  2  3  1  0  0  0  0
  3  4  2  0  0  0  0
  4  5  1  0  0  0  0
  4 20  1  0  0  0  0
  5  6  2  0  0  0  0
  7  8  1  0  0  0  0
  8  9  1  0  0  0  0
  9 10  2  0  0  0  0
  9 13  1  0  0  0  0
 10 11  1  0  0  0  0
 11 12  1  0  0  0  0
 12 13  2  0  0  0  0
 12 18  1  0  0  0  0
 13 14  1  0  0  0  0
 14 15  1  0  0  0  0
 14 16  2  0  0  0  0
 16 17  1  0  0  0  0
 17 18  2  0  0  0  0
 17 19  1  0  0  0  0
 20 21  2  0  0  0  0
 20 22  1  0  0  0  0
M  END
>  <CHROM.1>
152.58520489,106.03754894,-29.80002817,135.20833858,0.76204833,6.55490922
21.89956523,1.79394188,-0.79277873,-1.06450649

>  <Name>
ligand

>  <RI>
0

>  <Rbt.Current_Directory>
/home/itssahil/PROJECTS/Mol_Feturizer/New_Systems/rnas/4LVY

>  <Rbt.Executable>
rbdock ($Id: //depot/dev/client3/rdock/2013.1/src/exe/rbdock.cxx#4 $)

>  <Rbt.Library>
libRbt.so (2013.1, Build901 2013/11/27)

>  <Rbt.Parameter_File>
/export/apps/rDock/src/rDock_2013.1_src/data/scripts/dock_solv.prm

>  <Rbt.Receptor>
prm/pocket_docking_8.prm

>  <SCORE>
-16.5015

>  <SCORE.INTER>
-17.3906

>  <SCORE.INTER.CONST>
1

>  <SCORE.INTER.POLAR>
0

>  <SCORE.INTER.ROT>
4

>  <SCORE.INTER.SOLV>
7.76444

>  <SCORE.INTER.VDW>
-20.4486

>  <SCORE.INTER.norm>
-0.790482

>  <SCORE.INTRA>
0.889103

>  <SCORE.INTRA.DIHEDRAL>
3.0398

>  <SCORE.INTRA.DIHEDRAL.0>
6.18831

>  <SCORE.INTRA.POLAR>
0

>  <SCORE.INTRA.POLAR.0>
0

>  <SCORE.INTRA.REPUL>
0

>  <SCORE.INTRA.REPUL.0>
0

>  <SCORE.INTRA.SOLV>
0.61303

>  <SCORE.INTRA.SOLV.lig_0>
-44.3465

>  <SCORE.INTRA.VDW>
-0.937312

>  <SCORE.INTRA.VDW.0>
-0.778272

>  <SCORE.INTRA.norm>
0.0404138

>  <SCORE.RESTR>
0

>  <SCORE.RESTR.CAVITY>
0

>  <SCORE.RESTR.norm>
0

>  <SCORE.SYSTEM>
0

>  <SCORE.SYSTEM.CONST>
0

>  <SCORE.SYSTEM.DIHEDRAL>
0

>  <SCORE.SYSTEM.SOLV>
0

>  <SCORE.SYSTEM.norm>
0

>  <SCORE.heavy>
22

>  <SCORE.norm>
-0.750069

>  <RMSD>
6.638

$$$$
ligand
 OpenBabel11021811503D
libRbt.so/2013.1/901 2013/11/27
 22 24  0  0  0  0  0  0  0  0999 V2000
    0.2164    6.5108   22.8164 C   0  0  0  0  0  0  0  0  0  0  0  0
    1.0508    6.8774   21.7393 C   0  0  0  0  0  0  0  0  0  0  0  0
    2.2037    7.6171   21.9886 C   0  0  0  0  0  0  0  0  0  0  0  0
    2.5169    7.9870   23.3082 C   0  0  0  0  0  0  0  0  0  0  0  0
    1.6750    7.6277   24.3894 C   0  0  0  0  0  0  0  0  0  0  0  0
    0.5256    6.8908   24.1387 C   0  0  0  0  0  0  0  0  0  0  0  0
   -1.0724    5.7077   22.5554 C   0  0  0  0  0  0  0  0  0  0  0  0
   -0.9888    4.2025   22.9120 C   0  0  0  0  0  0  0  0  0  0  0  0
   -0.0747    3.4021   21.9914 C   0  0  0  0  0  0  0  0  0  0  0  0
   -0.5188    2.7086   20.8615 C   0  0  0  0  0  0  0  0  0  0  0  0
    0.5744    2.1291   20.3002 N   0  0  0  0  0  0  0  0  0  0  0  0
    1.7316    2.4024   21.0019 C   0  0  0  0  0  0  0  0  0  0  0  0
    1.3705    3.2055   22.0780 C   0  0  0  0  0  0  0  0  0  0  0  0
    2.4274    3.6313   22.9691 C   0  0  0  0  0  0  0  0  0  0  0  0
    2.1397    4.4436   24.0625 O   0  0  0  0  0  0  0  0  0  0  0  0
    3.7289    3.2165   22.7202 N   0  0  0  0  0  0  0  0  0  0  0  0
    4.0386    2.4356   21.6446 C   0  0  0  0  0  0  0  0  0  0  0  0
    3.0832    2.0216   20.7975 N   0  0  0  0  0  0  0  0  0  0  0  0
    5.4308    2.0366   21.4145 N   0  0  0  0  0  0  0  0  0  0  0  0
    3.7669    8.7913   23.5485 C   0  0  0  0  0  0  0  0  0  0  0  0
    3.7029   10.0141   23.6611 O   0  0  0  0  0  0  0  0  0  0  0  0
    5.0284    8.1050   23.6364 N   0  0  0  0  0  0  0  0  0  0  0  0
  1  2  2  0  0  0  0
  1  6  1  0  0  0  0
  1  7  1  0  0  0  0
  2  3  1  0  0  0  0
  3  4  2  0  0  0  0
  4  5  1  0  0  0  0
  4 20  1  0  0  0  0
  5  6  2  0  0  0  0
  7  8  1  0  0  0  0
  8  9  1  0  0  0  0
  9 10  2  0  0  0  0
  9 13  1  0  0  0  0
 10 11  1  0  0  0  0
 11 12  1  0  0  0  0
 12 13  2  0  0  0  0
 12 18  1  0  0  0  0
 13 14  1  0  0  0  0
 14 15  1  0  0  0  0
 14 16  2  0  0  0  0
 16 17  1  0  0  0  0
 17 18  2  0  0  0  0
 17 19  1  0  0  0  0
 20 21  2  0  0  0  0
 20 22  1  0  0  0  0
M  END
>  <CHROM.1>
103.61840886,97.33367251,-69.08324807,-94.05171354,1.97714757,5.09168470
22.49642461,1.40512591,-0.02148645,0.34397451

>  <Name>
ligand

>  <RI>
0

>  <Rbt.Current_Directory>
/home/itssahil/PROJECTS/Mol_Feturizer/New_Systems/rnas/4LVY

>  <Rbt.Executable>
rbdock ($Id: //depot/dev/client3/rdock/2013.1/src/exe/rbdock.cxx#4 $)

>  <Rbt.Library>
libRbt.so (2013.1, Build901 2013/11/27)

>  <Rbt.Parameter_File>
/export/apps/rDock/src/rDock_2013.1_src/data/scripts/dock_solv.prm

>  <Rbt.Receptor>
prm/pocket_docking_8.prm

>  <SCORE>
-17.2721

>  <SCORE.INTER>
-15.6764

>  <SCORE.INTER.CONST>
1

>  <SCORE.INTER.POLAR>
0

>  <SCORE.INTER.ROT>
4

>  <SCORE.INTER.SOLV>
5.91453

>  <SCORE.INTER.VDW>
-18.6891

>  <SCORE.INTER.norm>
-0.712565

>  <SCORE.INTRA>
-1.59569

>  <SCORE.INTRA.DIHEDRAL>
0.423078

>  <SCORE.INTRA.DIHEDRAL.0>
6.18831

>  <SCORE.INTRA.POLAR>
0

>  <SCORE.INTRA.POLAR.0>
0

>  <SCORE.INTRA.REPUL>
0

>  <SCORE.INTRA.REPUL.0>
0

>  <SCORE.INTRA.SOLV>
0.70398

>  <SCORE.INTRA.SOLV.lig_0>
-44.3465

>  <SCORE.INTRA.VDW>
-2.15922

>  <SCORE.INTRA.VDW.0>
-0.778272

>  <SCORE.INTRA.norm>
-0.0725313

>  <SCORE.RESTR>
0

>  <SCORE.RESTR.CAVITY>
0

>  <SCORE.RESTR.norm>
0

>  <SCORE.SYSTEM>
0

>  <SCORE.SYSTEM.CONST>
0

>  <SCORE.SYSTEM.DIHEDRAL>
0

>  <SCORE.SYSTEM.SOLV>
0

>  <SCORE.SYSTEM.norm>
0

>  <SCORE.heavy>
22

>  <SCORE.norm>
-0.785097

>  <RMSD>
6.644

$$$$
ligand
 OpenBabel11021811503D
libRbt.so/2013.1/901 2013/11/27
 22 24  0  0  0  0  0  0  0  0999 V2000
    0.1770    5.6795   23.8157 C   0  0  0  0  0  0  0  0  0  0  0  0
    1.2893    4.8212   23.6856 C   0  0  0  0  0  0  0  0  0  0  0  0
    2.5662    5.3132   23.9418 C   0  0  0  0  0  0  0  0  0  0  0  0
    2.7265    6.6563   24.3248 C   0  0  0  0  0  0  0  0  0  0  0  0
    1.6116    7.5216   24.4466 C   0  0  0  0  0  0  0  0  0  0  0  0
    0.3392    7.0294   24.1900 C   0  0  0  0  0  0  0  0  0  0  0  0
   -1.2411    5.1554   23.5185 C   0  0  0  0  0  0  0  0  0  0  0  0
   -1.6014    5.0597   22.0148 C   0  0  0  0  0  0  0  0  0  0  0  0
   -0.6623    4.1661   21.2129 C   0  0  0  0  0  0  0  0  0  0  0  0
   -0.5483    2.7855   21.4019 C   0  0  0  0  0  0  0  0  0  0  0  0
    0.3736    2.3405   20.5086 N   0  0  0  0  0  0  0  0  0  0  0  0
    0.8831    3.3595   19.7288 C   0  0  0  0  0  0  0  0  0  0  0  0
    0.2562    4.5316   20.1370 C   0  0  0  0  0  0  0  0  0  0  0  0
    0.6272    5.7520   19.4548 C   0  0  0  0  0  0  0  0  0  0  0  0
    0.0337    6.9613   19.8058 O   0  0  0  0  0  0  0  0  0  0  0  0
    1.5838    5.7000   18.4496 N   0  0  0  0  0  0  0  0  0  0  0  0
    2.1660    4.5238   18.0751 C   0  0  0  0  0  0  0  0  0  0  0  0
    1.8461    3.3726   18.6867 N   0  0  0  0  0  0  0  0  0  0  0  0
    3.1596    4.5172   16.9965 N   0  0  0  0  0  0  0  0  0  0  0  0
    4.1192    7.1635   24.5906 C   0  0  0  0  0  0  0  0  0  0  0  0
    4.5051    7.3330   25.7457 O   0  0  0  0  0  0  0  0  0  0  0  0
    4.9794    7.4495   23.4733 N   0  0  0  0  0  0  0  0  0  0  0  0
  1  2  2  0  0  0  0
  1  6  1  0  0  0  0
  1  7  1  0  0  0  0
  2  3  1  0  0  0  0
  3  4  2  0  0  0  0
  4  5  1  0  0  0  0
  4 20  1  0  0  0  0
  5  6  2  0  0  0  0
  7  8  1  0  0  0  0
  8  9  1  0  0  0  0
  9 10  2  0  0  0  0
  9 13  1  0  0  0  0
 10 11  1  0  0  0  0
 11 12  1  0  0  0  0
 12 13  2  0  0  0  0
 12 18  1  0  0  0  0
 13 14  1  0  0  0  0
 14 15  1  0  0  0  0
 14 16  2  0  0  0  0
 16 17  1  0  0  0  0
 17 18  2  0  0  0  0
 17 19  1  0  0  0  0
 20 21  2  0  0  0  0
 20 22  1  0  0  0  0
M  END
>  <CHROM.1>
-78.59070178,-104.04277497,58.24069196,65.53919703,1.35138040,5.35187827
21.70637287,1.24071803,0.38879502,1.24852333

>  <Name>
ligand

>  <RI>
0

>  <Rbt.Current_Directory>
/home/itssahil/PROJECTS/Mol_Feturizer/New_Systems/rnas/4LVY

>  <Rbt.Executable>
rbdock ($Id: //depot/dev/client3/rdock/2013.1/src/exe/rbdock.cxx#4 $)

>  <Rbt.Library>
libRbt.so (2013.1, Build901 2013/11/27)

>  <Rbt.Parameter_File>
/export/apps/rDock/src/rDock_2013.1_src/data/scripts/dock_solv.prm

>  <Rbt.Receptor>
prm/pocket_docking_7.prm

>  <SCORE>
-18.3388

>  <SCORE.INTER>
-16.9642

>  <SCORE.INTER.CONST>
1

>  <SCORE.INTER.POLAR>
0

>  <SCORE.INTER.ROT>
4

>  <SCORE.INTER.SOLV>
5.37451

>  <SCORE.INTER.VDW>
-19.3676

>  <SCORE.INTER.norm>
-0.771098

>  <SCORE.INTRA>
-1.37469

>  <SCORE.INTRA.DIHEDRAL>
-0.0415811

>  <SCORE.INTRA.DIHEDRAL.0>
6.18831

>  <SCORE.INTRA.POLAR>
0

>  <SCORE.INTRA.POLAR.0>
0

>  <SCORE.INTRA.REPUL>
0

>  <SCORE.INTRA.REPUL.0>
0

>  <SCORE.INTRA.SOLV>
0.0562421

>  <SCORE.INTRA.SOLV.lig_0>
-44.3465

>  <SCORE.INTRA.VDW>
-1.38202

>  <SCORE.INTRA.VDW.0>
-0.778272

>  <SCORE.INTRA.norm>
-0.0624859

>  <SCORE.RESTR>
0

>  <SCORE.RESTR.CAVITY>
0

>  <SCORE.RESTR.norm>
0

>  <SCORE.SYSTEM>
0

>  <SCORE.SYSTEM.CONST>
0

>  <SCORE.SYSTEM.DIHEDRAL>
0

>  <SCORE.SYSTEM.SOLV>
0

>  <SCORE.SYSTEM.norm>
0

>  <SCORE.heavy>
22

>  <SCORE.norm>
-0.833584

>  <RMSD>
6.650

$$$$
ligand
 OpenBabel11021811503D
libRbt.so/2013.1/901 2013/11/27
 22 24  0  0  0  0  0  0  0  0999 V2000
    0.1768    5.6779   23.8196 C   0  0  0  0  0  0  0  0  0  0  0  0
    1.2979    4.8294   23.7028 C   0  0  0  0  0  0  0  0  0  0  0  0
    2.5692    5.3374   23.9562 C   0  0  0  0  0  0  0  0  0  0  0  0
    2.7149    6.6866   24.3233 C   0  0  0  0  0  0  0  0  0  0  0  0
    1.5910    7.5420   24.4317 C   0  0  0  0  0  0  0  0  0  0  0  0
    0.3243    7.0338   24.1779 C   0  0  0  0  0  0  0  0  0  0  0  0
   -1.2352    5.1359   23.5251 C   0  0  0  0  0  0  0  0  0  0  0  0
   -1.6001    5.0432   22.0224 C   0  0  0  0  0  0  0  0  0  0  0  0
   -0.6621    4.1530   21.2155 C   0  0  0  0  0  0  0  0  0  0  0  0
   -0.5363    2.7740   21.4092 C   0  0  0  0  0  0  0  0  0  0  0  0
    0.3804    2.3320   20.5091 N   0  0  0  0  0  0  0  0  0  0  0  0
    0.8752    3.3513   19.7203 C   0  0  0  0  0  0  0  0  0  0  0  0
    0.2436    4.5206   20.1294 C   0  0  0  0  0  0  0  0  0  0  0  0
    0.5993    5.7407   19.4387 C   0  0  0  0  0  0  0  0  0  0  0  0
    0.0003    6.9472   19.7902 O   0  0  0  0  0  0  0  0  0  0  0  0
    1.5468    5.6914   18.4248 N   0  0  0  0  0  0  0  0  0  0  0  0
    2.1341    4.5179   18.0498 C   0  0  0  0  0  0  0  0  0  0  0  0
    1.8283    3.3670   18.6691 N   0  0  0  0  0  0  0  0  0  0  0  0
    3.1175    4.5139   16.9619 N   0  0  0  0  0  0  0  0  0  0  0  0
    4.1017    7.2110   24.5864 C   0  0  0  0  0  0  0  0  0  0  0  0
    4.7276    6.8341   25.5754 O   0  0  0  0  0  0  0  0  0  0  0  0
    4.6716    8.1599   23.6672 N   0  0  0  0  0  0  0  0  0  0  0  0
  1  2  2  0  0  0  0
  1  6  1  0  0  0  0
  1  7  1  0  0  0  0
  2  3  1  0  0  0  0
  3  4  2  0  0  0  0
  4  5  1  0  0  0  0
  4 20  1  0  0  0  0
  5  6  2  0  0  0  0
  7  8  1  0  0  0  0
  8  9  1  0  0  0  0
  9 10  2  0  0  0  0
  9 13  1  0  0  0  0
 10 11  1  0  0  0  0
 11 12  1  0  0  0  0
 12 13  2  0  0  0  0
 12 18  1  0  0  0  0
 13 14  1  0  0  0  0
 14 15  1  0  0  0  0
 14 16  2  0  0  0  0
 16 17  1  0  0  0  0
 17 18  2  0  0  0  0
 17 19  1  0  0  0  0
 20 21  2  0  0  0  0
 20 22  1  0  0  0  0
M  END
>  <CHROM.1>
-79.67298244,-69.18127076,58.95159996,64.93239337,1.33773973,5.35796986,21.70053980
1.22989871,0.41540844,1.25670358

>  <Name>
ligand

>  <RI>
0

>  <Rbt.Current_Directory>
/home/itssahil/PROJECTS/Mol_Feturizer/New_Systems/rnas/4LVY

>  <Rbt.Executable>
rbdock ($Id: //depot/dev/client3/rdock/2013.1/src/exe/rbdock.cxx#4 $)

>  <Rbt.Library>
libRbt.so (2013.1, Build901 2013/11/27)

>  <Rbt.Parameter_File>
/export/apps/rDock/src/rDock_2013.1_src/data/scripts/dock_solv.prm

>  <Rbt.Receptor>
prm/pocket_docking_5.prm

>  <SCORE>
-18.2859

>  <SCORE.INTER>
-16.9377

>  <SCORE.INTER.CONST>
1

>  <SCORE.INTER.POLAR>
0

>  <SCORE.INTER.ROT>
4

>  <SCORE.INTER.SOLV>
5.35659

>  <SCORE.INTER.VDW>
-19.344

>  <SCORE.INTER.norm>
-0.769894

>  <SCORE.INTRA>
-1.34823

>  <SCORE.INTRA.DIHEDRAL>
-0.044411

>  <SCORE.INTRA.DIHEDRAL.0>
6.18831

>  <SCORE.INTRA.POLAR>
0

>  <SCORE.INTRA.POLAR.0>
0

>  <SCORE.INTRA.REPUL>
0

>  <SCORE.INTRA.REPUL.0>
0

>  <SCORE.INTRA.SOLV>
0.0545632

>  <SCORE.INTRA.SOLV.lig_0>
-44.3465

>  <SCORE.INTRA.VDW>
-1.35331

>  <SCORE.INTRA.VDW.0>
-0.778272

>  <SCORE.INTRA.norm>
-0.0612833

>  <SCORE.RESTR>
0

>  <SCORE.RESTR.CAVITY>
0

>  <SCORE.RESTR.norm>
0

>  <SCORE.SYSTEM>
0

>  <SCORE.SYSTEM.CONST>
0

>  <SCORE.SYSTEM.DIHEDRAL>
0

>  <SCORE.SYSTEM.SOLV>
0

>  <SCORE.SYSTEM.norm>
0

>  <SCORE.heavy>
22

>  <SCORE.norm>
-0.831177

>  <RMSD>
6.663

$$$$
ligand
 OpenBabel11021811503D
libRbt.so/2013.1/901 2013/11/27
 22 24  0  0  0  0  0  0  0  0999 V2000
    0.1803    5.6997   23.7990 C   0  0  0  0  0  0  0  0  0  0  0  0
    0.3465    7.0492   24.1756 C   0  0  0  0  0  0  0  0  0  0  0  0
    1.6245    7.5315   24.4445 C   0  0  0  0  0  0  0  0  0  0  0  0
    2.7275    6.6666   24.3373 C   0  0  0  0  0  0  0  0  0  0  0  0
    2.5610    5.3090   23.9685 C   0  0  0  0  0  0  0  0  0  0  0  0
    1.2858    4.8297   23.7015 C   0  0  0  0  0  0  0  0  0  0  0  0
   -1.2293    5.1457   23.5154 C   0  0  0  0  0  0  0  0  0  0  0  0
   -1.5985    5.0335   22.0151 C   0  0  0  0  0  0  0  0  0  0  0  0
   -0.6548    4.1439   21.2142 C   0  0  0  0  0  0  0  0  0  0  0  0
   -0.5404    2.7626   21.3985 C   0  0  0  0  0  0  0  0  0  0  0  0
    0.3861    2.3219   20.5078 N   0  0  0  0  0  0  0  0  0  0  0  0
    0.8983    3.3444   19.7343 C   0  0  0  0  0  0  0  0  0  0  0  0
    0.2684    4.5144   20.1440 C   0  0  0  0  0  0  0  0  0  0  0  0
    0.6415    5.7376   19.4682 C   0  0  0  0  0  0  0  0  0  0  0  0
    0.0451    6.9451   19.8210 O   0  0  0  0  0  0  0  0  0  0  0  0
    1.6027    5.6904   18.4674 N   0  0  0  0  0  0  0  0  0  0  0  0
    2.1879    4.5162   18.0911 C   0  0  0  0  0  0  0  0  0  0  0  0
    1.8662    3.3624   18.6968 N   0  0  0  0  0  0  0  0  0  0  0  0
    3.1865    4.5146   17.0172 N   0  0  0  0  0  0  0  0  0  0  0  0
    4.0977    7.2132   24.6390 C   0  0  0  0  0  0  0  0  0  0  0  0
    4.4951    7.2783   25.8008 O   0  0  0  0  0  0  0  0  0  0  0  0
    4.9230    7.6602   23.5485 N   0  0  0  0  0  0  0  0  0  0  0  0
  1  2  2  0  0  0  0
  1  6  1  0  0  0  0
  1  7  1  0  0  0  0
  2  3  1  0  0  0  0
  3  4  2  0  0  0  0
  4  5  1  0  0  0  0
  4 20  1  0  0  0  0
  5  6  2  0  0  0  0
  7  8  1  0  0  0  0
  8  9  1  0  0  0  0
  9 10  2  0  0  0  0
  9 13  1  0  0  0  0
 10 11  1  0  0  0  0
 11 12  1  0  0  0  0
 12 13  2  0  0  0  0
 12 18  1  0  0  0  0
 13 14  1  0  0  0  0
 14 15  1  0  0  0  0
 14 16  2  0  0  0  0
 16 17  1  0  0  0  0
 17 18  2  0  0  0  0
 17 19  1  0  0  0  0
 20 21  2  0  0  0  0
 20 22  1  0  0  0  0
M  END
>  <CHROM.1>
100.59859851,83.20499014,58.75332757,66.65914495,1.35633583,5.35507675,21.72079194
1.24045002,0.40353518,1.24536269

>  <Name>
ligand

>  <RI>
0

>  <Rbt.Current_Directory>
/home/itssahil/PROJECTS/Mol_Feturizer/New_Systems/rnas/4LVY

>  <Rbt.Executable>
rbdock ($Id: //depot/dev/client3/rdock/2013.1/src/exe/rbdock.cxx#4 $)

>  <Rbt.Library>
libRbt.so (2013.1, Build901 2013/11/27)

>  <Rbt.Parameter_File>
/export/apps/rDock/src/rDock_2013.1_src/data/scripts/dock_solv.prm

>  <Rbt.Receptor>
prm/pocket_docking_8.prm

>  <SCORE>
-18.2345

>  <SCORE.INTER>
-16.9341

>  <SCORE.INTER.CONST>
1

>  <SCORE.INTER.POLAR>
0

>  <SCORE.INTER.ROT>
4

>  <SCORE.INTER.SOLV>
5.36162

>  <SCORE.INTER.VDW>
-19.3433

>  <SCORE.INTER.norm>
-0.769734

>  <SCORE.INTRA>
-1.30035

>  <SCORE.INTRA.DIHEDRAL>
0.130854

>  <SCORE.INTRA.DIHEDRAL.0>
6.18831

>  <SCORE.INTRA.POLAR>
0

>  <SCORE.INTRA.POLAR.0>
0

>  <SCORE.INTRA.REPUL>
0

>  <SCORE.INTRA.REPUL.0>
0

>  <SCORE.INTRA.SOLV>
0.0574671

>  <SCORE.INTRA.SOLV.lig_0>
-44.3465

>  <SCORE.INTRA.VDW>
-1.39452

>  <SCORE.INTRA.VDW.0>
-0.778272

>  <SCORE.INTRA.norm>
-0.059107

>  <SCORE.RESTR>
0

>  <SCORE.RESTR.CAVITY>
0

>  <SCORE.RESTR.norm>
0

>  <SCORE.SYSTEM>
0

>  <SCORE.SYSTEM.CONST>
0

>  <SCORE.SYSTEM.DIHEDRAL>
0

>  <SCORE.SYSTEM.SOLV>
0

>  <SCORE.SYSTEM.norm>
0

>  <SCORE.heavy>
22

>  <SCORE.norm>
-0.828841

>  <RMSD>
6.665

$$$$
ligand
 OpenBabel11021811503D
libRbt.so/2013.1/901 2013/11/27
 22 24  0  0  0  0  0  0  0  0999 V2000
    0.1909    5.6956   23.7858 C   0  0  0  0  0  0  0  0  0  0  0  0
    0.3678    7.0402   24.1750 C   0  0  0  0  0  0  0  0  0  0  0  0
    1.6514    7.5146   24.4308 C   0  0  0  0  0  0  0  0  0  0  0  0
    2.7494    6.6468   24.2982 C   0  0  0  0  0  0  0  0  0  0  0  0
    2.5723    5.2941   23.9167 C   0  0  0  0  0  0  0  0  0  0  0  0
    1.2916    4.8226   23.6627 C   0  0  0  0  0  0  0  0  0  0  0  0
   -1.2247    5.1501   23.5163 C   0  0  0  0  0  0  0  0  0  0  0  0
   -1.6049    5.0281   22.0195 C   0  0  0  0  0  0  0  0  0  0  0  0
   -0.6618    4.1403   21.2157 C   0  0  0  0  0  0  0  0  0  0  0  0
   -0.5481    2.7584   21.3959 C   0  0  0  0  0  0  0  0  0  0  0  0
    0.3779    2.3198   20.5037 N   0  0  0  0  0  0  0  0  0  0  0  0
    0.8905    3.3443   19.7331 C   0  0  0  0  0  0  0  0  0  0  0  0
    0.2613    4.5134   20.1464 C   0  0  0  0  0  0  0  0  0  0  0  0
    0.6349    5.7385   19.4742 C   0  0  0  0  0  0  0  0  0  0  0  0
    0.0393    6.9453   19.8308 O   0  0  0  0  0  0  0  0  0  0  0  0
    1.5959    5.6937   18.4730 N   0  0  0  0  0  0  0  0  0  0  0  0
    2.1803    4.5204   18.0931 C   0  0  0  0  0  0  0  0  0  0  0  0
    1.8581    3.3649   18.6954 N   0  0  0  0  0  0  0  0  0  0  0  0
    3.1787    4.5214   17.0190 N   0  0  0  0  0  0  0  0  0  0  0  0
    4.1259    7.1848   24.5862 C   0  0  0  0  0  0  0  0  0  0  0  0
    4.7366    7.8136   23.7238 O   0  0  0  0  0  0  0  0  0  0  0  0
    4.7095    6.9438   25.8791 N   0  0  0  0  0  0  0  0  0  0  0  0
  1  2  2  0  0  0  0
  1  6  1  0  0  0  0
  1  7  1  0  0  0  0
  2  3  1  0  0  0  0
  3  4  2  0  0  0  0
  4  5  1  0  0  0  0
  4 20  1  0  0  0  0
  5  6  2  0  0  0  0
  7  8  1  0  0  0  0
  8  9  1  0  0  0  0
  9 10  2  0  0  0  0
  9 13  1  0  0  0  0
 10 11  1  0  0  0  0
 11 12  1  0  0  0  0
 12 13  2  0  0  0  0
 12 18  1  0  0  0  0
 13 14  1  0  0  0  0
 14 15  1  0  0  0  0
 14 16  2  0  0  0  0
 16 17  1  0  0  0  0
 17 18  2  0  0  0  0
 17 19  1  0  0  0  0
 20 21  2  0  0  0  0
 20 22  1  0  0  0  0
M  END
>  <CHROM.1>
101.82816490,-82.40545332,57.92840445,67.39995234,1.36092508,5.34606083,21.71118662
1.22686962,0.40131301,1.25268329

>  <Name>
ligand

>  <RI>
0

>  <Rbt.Current_Directory>
/home/itssahil/PROJECTS/Mol_Feturizer/New_Systems/rnas/4LVY

>  <Rbt.Executable>
rbdock ($Id: //depot/dev/client3/rdock/2013.1/src/exe/rbdock.cxx#4 $)

>  <Rbt.Library>
libRbt.so (2013.1, Build901 2013/11/27)

>  <Rbt.Parameter_File>
/export/apps/rDock/src/rDock_2013.1_src/data/scripts/dock_solv.prm

>  <Rbt.Receptor>
prm/pocket_docking_8.prm

>  <SCORE>
-18.3043

>  <SCORE.INTER>
-16.9712

>  <SCORE.INTER.CONST>
1

>  <SCORE.INTER.POLAR>
0

>  <SCORE.INTER.ROT>
4

>  <SCORE.INTER.SOLV>
5.28035

>  <SCORE.INTER.VDW>
-19.3409

>  <SCORE.INTER.norm>
-0.771419

>  <SCORE.INTRA>
-1.33314

>  <SCORE.INTRA.DIHEDRAL>
0.0893995

>  <SCORE.INTRA.DIHEDRAL.0>
6.18831

>  <SCORE.INTRA.POLAR>
0

>  <SCORE.INTRA.POLAR.0>
0

>  <SCORE.INTRA.REPUL>
0

>  <SCORE.INTRA.REPUL.0>
0

>  <SCORE.INTRA.SOLV>
0.0616744

>  <SCORE.INTRA.SOLV.lig_0>
-44.3465

>  <SCORE.INTRA.VDW>
-1.40868

>  <SCORE.INTRA.VDW.0>
-0.778272

>  <SCORE.INTRA.norm>
-0.0605974

>  <SCORE.RESTR>
0

>  <SCORE.RESTR.CAVITY>
0

>  <SCORE.RESTR.norm>
0

>  <SCORE.SYSTEM>
0

>  <SCORE.SYSTEM.CONST>
0

>  <SCORE.SYSTEM.DIHEDRAL>
0

>  <SCORE.SYSTEM.SOLV>
0

>  <SCORE.SYSTEM.norm>
0

>  <SCORE.heavy>
22

>  <SCORE.norm>
-0.832016

>  <RMSD>
6.666

$$$$
ligand
 OpenBabel11021811503D
libRbt.so/2013.1/901 2013/11/27
 22 24  0  0  0  0  0  0  0  0999 V2000
    0.1858    5.7069   23.7805 C   0  0  0  0  0  0  0  0  0  0  0  0
    0.3447    7.0516   24.1769 C   0  0  0  0  0  0  0  0  0  0  0  0
    1.6218    7.5416   24.4363 C   0  0  0  0  0  0  0  0  0  0  0  0
    2.7312    6.6890   24.3000 C   0  0  0  0  0  0  0  0  0  0  0  0
    2.5722    5.3360   23.9113 C   0  0  0  0  0  0  0  0  0  0  0  0
    1.2979    4.8491   23.6538 C   0  0  0  0  0  0  0  0  0  0  0  0
   -1.2223    5.1442   23.5071 C   0  0  0  0  0  0  0  0  0  0  0  0
   -1.6078    5.0449   22.0099 C   0  0  0  0  0  0  0  0  0  0  0  0
   -0.6651    4.1730   21.1886 C   0  0  0  0  0  0  0  0  0  0  0  0
   -0.5331    2.7915   21.3588 C   0  0  0  0  0  0  0  0  0  0  0  0
    0.3862    2.3690   20.4520 N   0  0  0  0  0  0  0  0  0  0  0  0
    0.8768    3.4040   19.6810 C   0  0  0  0  0  0  0  0  0  0  0  0
    0.2396    4.5632   20.1097 C   0  0  0  0  0  0  0  0  0  0  0  0
    0.5902    5.7965   19.4401 C   0  0  0  0  0  0  0  0  0  0  0  0
   -0.0146    6.9941   19.8117 O   0  0  0  0  0  0  0  0  0  0  0  0
    1.5385    5.7689   18.4263 N   0  0  0  0  0  0  0  0  0  0  0  0
    2.1315    4.6047   18.0317 C   0  0  0  0  0  0  0  0  0  0  0  0
    1.8305    3.4420   18.6310 N   0  0  0  0  0  0  0  0  0  0  0  0
    3.1156    4.6238   16.9446 N   0  0  0  0  0  0  0  0  0  0  0  0
    4.1003    7.2436   24.5920 C   0  0  0  0  0  0  0  0  0  0  0  0
    4.5803    7.1428   25.7196 O   0  0  0  0  0  0  0  0  0  0  0  0
    4.8262    7.8945   23.5341 N   0  0  0  0  0  0  0  0  0  0  0  0
  1  2  2  0  0  0  0
  1  6  1  0  0  0  0
  1  7  1  0  0  0  0
  2  3  1  0  0  0  0
  3  4  2  0  0  0  0
  4  5  1  0  0  0  0
  4 20  1  0  0  0  0
  5  6  2  0  0  0  0
  7  8  1  0  0  0  0
  8  9  1  0  0  0  0
  9 10  2  0  0  0  0
  9 13  1  0  0  0  0
 10 11  1  0  0  0  0
 11 12  1  0  0  0  0
 12 13  2  0  0  0  0
 12 18  1  0  0  0  0
 13 14  1  0  0  0  0
 14 15  1  0  0  0  0
 14 16  2  0  0  0  0
 16 17  1  0  0  0  0
 17 18  2  0  0  0  0
 17 19  1  0  0  0  0
 20 21  2  0  0  0  0
 20 22  1  0  0  0  0
M  END
>  <CHROM.1>
100.95337257,92.25977216,58.68669326,66.48022224,1.33909460,5.39573505,21.68377306
1.22842840,0.41968696,1.26435778

>  <Name>
ligand

>  <RI>
0

>  <Rbt.Current_Directory>
/home/itssahil/PROJECTS/Mol_Feturizer/New_Systems/rnas/4LVY

>  <Rbt.Executable>
rbdock ($Id: //depot/dev/client3/rdock/2013.1/src/exe/rbdock.cxx#4 $)

>  <Rbt.Library>
libRbt.so (2013.1, Build901 2013/11/27)

>  <Rbt.Parameter_File>
/export/apps/rDock/src/rDock_2013.1_src/data/scripts/dock_solv.prm

>  <Rbt.Receptor>
prm/pocket_docking_6.prm

>  <SCORE>
-18.1937

>  <SCORE.INTER>
-16.894

>  <SCORE.INTER.CONST>
1

>  <SCORE.INTER.POLAR>
0

>  <SCORE.INTER.ROT>
4

>  <SCORE.INTER.SOLV>
5.35052

>  <SCORE.INTER.VDW>
-19.3128

>  <SCORE.INTER.norm>
-0.767909

>  <SCORE.INTRA>
-1.29969

>  <SCORE.INTRA.DIHEDRAL>
0.131914

>  <SCORE.INTRA.DIHEDRAL.0>
6.18831

>  <SCORE.INTRA.POLAR>
0

>  <SCORE.INTRA.POLAR.0>
0

>  <SCORE.INTRA.REPUL>
0

>  <SCORE.INTRA.REPUL.0>
0

>  <SCORE.INTRA.SOLV>
0.0569127

>  <SCORE.INTRA.SOLV.lig_0>
-44.3465

>  <SCORE.INTRA.VDW>
-1.3941

>  <SCORE.INTRA.VDW.0>
-0.778272

>  <SCORE.INTRA.norm>
-0.0590766

>  <SCORE.RESTR>
0

>  <SCORE.RESTR.CAVITY>
0

>  <SCORE.RESTR.norm>
0

>  <SCORE.SYSTEM>
0

>  <SCORE.SYSTEM.CONST>
0

>  <SCORE.SYSTEM.DIHEDRAL>
0

>  <SCORE.SYSTEM.SOLV>
0

>  <SCORE.SYSTEM.norm>
0

>  <SCORE.heavy>
22

>  <SCORE.norm>
-0.826986

>  <RMSD>
6.667

$$$$
ligand
 OpenBabel11021811503D
libRbt.so/2013.1/901 2013/11/27
 22 24  0  0  0  0  0  0  0  0999 V2000
    0.2028    5.6741   23.7891 C   0  0  0  0  0  0  0  0  0  0  0  0
    0.3537    7.0268   24.1610 C   0  0  0  0  0  0  0  0  0  0  0  0
    1.6278    7.5291   24.4109 C   0  0  0  0  0  0  0  0  0  0  0  0
    2.7423    6.6810   24.2896 C   0  0  0  0  0  0  0  0  0  0  0  0
    2.5915    5.3203   23.9255 C   0  0  0  0  0  0  0  0  0  0  0  0
    1.3201    4.8210   23.6774 C   0  0  0  0  0  0  0  0  0  0  0  0
   -1.2019    5.0980   23.5265 C   0  0  0  0  0  0  0  0  0  0  0  0
   -1.5993    4.9983   22.0325 C   0  0  0  0  0  0  0  0  0  0  0  0
   -0.6458    4.1512   21.1977 C   0  0  0  0  0  0  0  0  0  0  0  0
   -0.5080    2.7667   21.3354 C   0  0  0  0  0  0  0  0  0  0  0  0
    0.4205    2.3710   20.4258 N   0  0  0  0  0  0  0  0  0  0  0  0
    0.9117    3.4268   19.6841 C   0  0  0  0  0  0  0  0  0  0  0  0
    0.2652    4.5721   20.1356 C   0  0  0  0  0  0  0  0  0  0  0  0
    0.6146    5.8230   19.4990 C   0  0  0  0  0  0  0  0  0  0  0  0
    0.0007    7.0082   19.8948 O   0  0  0  0  0  0  0  0  0  0  0  0
    1.5708    5.8247   18.4922 N   0  0  0  0  0  0  0  0  0  0  0  0
    2.1728    4.6734   18.0742 C   0  0  0  0  0  0  0  0  0  0  0  0
    1.8732    3.4950   18.6428 N   0  0  0  0  0  0  0  0  0  0  0  0
    3.1652    4.7238   16.9957 N   0  0  0  0  0  0  0  0  0  0  0  0
    4.1081    7.2490   24.5709 C   0  0  0  0  0  0  0  0  0  0  0  0
    4.7293    7.8326   23.6845 O   0  0  0  0  0  0  0  0  0  0  0  0
    4.6693    7.0901   25.8862 N   0  0  0  0  0  0  0  0  0  0  0  0
  1  2  2  0  0  0  0
  1  6  1  0  0  0  0
  1  7  1  0  0  0  0
  2  3  1  0  0  0  0
  3  4  2  0  0  0  0
  4  5  1  0  0  0  0
  4 20  1  0  0  0  0
  5  6  2  0  0  0  0
  7  8  1  0  0  0  0
  8  9  1  0  0  0  0
  9 10  2  0  0  0  0
  9 13  1  0  0  0  0
 10 11  1  0  0  0  0
 11 12  1  0  0  0  0
 12 13  2  0  0  0  0
 12 18  1  0  0  0  0
 13 14  1  0  0  0  0
 14 15  1  0  0  0  0
 14 16  2  0  0  0  0
 16 17  1  0  0  0  0
 17 18  2  0  0  0  0
 17 19  1  0  0  0  0
 20 21  2  0  0  0  0
 20 22  1  0  0  0  0
M  END
>  <CHROM.1>
99.67504898,-85.28507588,57.99516722,68.22582192,1.36082393,5.39996480,21.70060457
1.22203531,0.43003178,1.27187594

>  <Name>
ligand

>  <RI>
0

>  <Rbt.Current_Directory>
/home/itssahil/PROJECTS/Mol_Feturizer/New_Systems/rnas/4LVY

>  <Rbt.Executable>
rbdock ($Id: //depot/dev/client3/rdock/2013.1/src/exe/rbdock.cxx#4 $)

>  <Rbt.Library>
libRbt.so (2013.1, Build901 2013/11/27)

>  <Rbt.Parameter_File>
/export/apps/rDock/src/rDock_2013.1_src/data/scripts/dock_solv.prm

>  <Rbt.Receptor>
prm/pocket_docking_8.prm

>  <SCORE>
-18.2101

>  <SCORE.INTER>
-16.845

>  <SCORE.INTER.CONST>
1

>  <SCORE.INTER.POLAR>
0

>  <SCORE.INTER.ROT>
4

>  <SCORE.INTER.SOLV>
5.31605

>  <SCORE.INTER.VDW>
-19.2687

>  <SCORE.INTER.norm>
-0.765682

>  <SCORE.INTRA>
-1.36504

>  <SCORE.INTRA.DIHEDRAL>
0.0922289

>  <SCORE.INTRA.DIHEDRAL.0>
6.18831

>  <SCORE.INTRA.POLAR>
0

>  <SCORE.INTRA.POLAR.0>
0

>  <SCORE.INTRA.REPUL>
0

>  <SCORE.INTRA.REPUL.0>
0

>  <SCORE.INTRA.SOLV>
0.0644865

>  <SCORE.INTRA.SOLV.lig_0>
-44.3465

>  <SCORE.INTRA.VDW>
-1.4434

>  <SCORE.INTRA.VDW.0>
-0.778272

>  <SCORE.INTRA.norm>
-0.0620475

>  <SCORE.RESTR>
0

>  <SCORE.RESTR.CAVITY>
0

>  <SCORE.RESTR.norm>
0

>  <SCORE.SYSTEM>
0

>  <SCORE.SYSTEM.CONST>
0

>  <SCORE.SYSTEM.DIHEDRAL>
0

>  <SCORE.SYSTEM.SOLV>
0

>  <SCORE.SYSTEM.norm>
0

>  <SCORE.heavy>
22

>  <SCORE.norm>
-0.82773

>  <RMSD>
6.670

$$$$
ligand
 OpenBabel11021811503D
libRbt.so/2013.1/901 2013/11/27
 22 24  0  0  0  0  0  0  0  0999 V2000
    0.1802    5.7166   23.8099 C   0  0  0  0  0  0  0  0  0  0  0  0
    1.2852    4.8449   23.7115 C   0  0  0  0  0  0  0  0  0  0  0  0
    2.5626    5.3269   23.9841 C   0  0  0  0  0  0  0  0  0  0  0  0
    2.7305    6.6733   24.3518 C   0  0  0  0  0  0  0  0  0  0  0  0
    1.6230    7.5520   24.4418 C   0  0  0  0  0  0  0  0  0  0  0  0
    0.3501    7.0697   24.1689 C   0  0  0  0  0  0  0  0  0  0  0  0
   -1.2380    5.2035   23.4941 C   0  0  0  0  0  0  0  0  0  0  0  0
   -1.5811    5.1155   21.9860 C   0  0  0  0  0  0  0  0  0  0  0  0
   -0.6487    4.2052   21.1951 C   0  0  0  0  0  0  0  0  0  0  0  0
   -0.5437    2.8265   21.4020 C   0  0  0  0  0  0  0  0  0  0  0  0
    0.3744    2.3637   20.5138 N   0  0  0  0  0  0  0  0  0  0  0  0
    0.8900    3.3690   19.7204 C   0  0  0  0  0  0  0  0  0  0  0  0
    0.2713    4.5506   20.1138 C   0  0  0  0  0  0  0  0  0  0  0  0
    0.6499    5.7594   19.4154 C   0  0  0  0  0  0  0  0  0  0  0  0
    0.0647    6.9772   19.7511 O   0  0  0  0  0  0  0  0  0  0  0  0
    1.6052    5.6879   18.4103 N   0  0  0  0  0  0  0  0  0  0  0  0
    2.1793    4.5031   18.0507 C   0  0  0  0  0  0  0  0  0  0  0  0
    1.8522    3.3621   18.6775 N   0  0  0  0  0  0  0  0  0  0  0  0
    3.1718    4.4758   16.9715 N   0  0  0  0  0  0  0  0  0  0  0  0
    4.1235    7.1694   24.6359 C   0  0  0  0  0  0  0  0  0  0  0  0
    4.4830    7.3725   25.7941 O   0  0  0  0  0  0  0  0  0  0  0  0
    5.0156    7.4052   23.5320 N   0  0  0  0  0  0  0  0  0  0  0  0
  1  2  2  0  0  0  0
  1  6  1  0  0  0  0
  1  7  1  0  0  0  0
  2  3  1  0  0  0  0
  3  4  2  0  0  0  0
  4  5  1  0  0  0  0
  4 20  1  0  0  0  0
  5  6  2  0  0  0  0
  7  8  1  0  0  0  0
  8  9  1  0  0  0  0
  9 10  2  0  0  0  0
  9 13  1  0  0  0  0
 10 11  1  0  0  0  0
 11 12  1  0  0  0  0
 12 13  2  0  0  0  0
 12 18  1  0  0  0  0
 13 14  1  0  0  0  0
 14 15  1  0  0  0  0
 14 16  2  0  0  0  0
 16 17  1  0  0  0  0
 17 18  2  0  0  0  0
 17 19  1  0  0  0  0
 20 21  2  0  0  0  0
 20 22  1  0  0  0  0
M  END
>  <CHROM.1>
-79.64734882,-105.29279687,58.91405809,64.24972543,1.36108303,5.36693977
21.70275524,1.24952304,0.37571046,1.24539198

>  <Name>
ligand

>  <RI>
0

>  <Rbt.Current_Directory>
/home/itssahil/PROJECTS/Mol_Feturizer/New_Systems/rnas/4LVY

>  <Rbt.Executable>
rbdock ($Id: //depot/dev/client3/rdock/2013.1/src/exe/rbdock.cxx#4 $)

>  <Rbt.Library>
libRbt.so (2013.1, Build901 2013/11/27)

>  <Rbt.Parameter_File>
/export/apps/rDock/src/rDock_2013.1_src/data/scripts/dock_solv.prm

>  <Rbt.Receptor>
prm/pocket_docking_8.prm

>  <SCORE>
-18.1564

>  <SCORE.INTER>
-16.7998

>  <SCORE.INTER.CONST>
1

>  <SCORE.INTER.POLAR>
0

>  <SCORE.INTER.ROT>
4

>  <SCORE.INTER.SOLV>
5.41223

>  <SCORE.INTER.VDW>
-19.2706

>  <SCORE.INTER.norm>
-0.763629

>  <SCORE.INTRA>
-1.3566

>  <SCORE.INTRA.DIHEDRAL>
-0.0522104

>  <SCORE.INTRA.DIHEDRAL.0>
6.18831

>  <SCORE.INTRA.POLAR>
0

>  <SCORE.INTRA.POLAR.0>
0

>  <SCORE.INTRA.REPUL>
0

>  <SCORE.INTRA.REPUL.0>
0

>  <SCORE.INTRA.SOLV>
0.0520357

>  <SCORE.INTRA.SOLV.lig_0>
-44.3465

>  <SCORE.INTRA.VDW>
-1.35651

>  <SCORE.INTRA.VDW.0>
-0.778272

>  <SCORE.INTRA.norm>
-0.0616637

>  <SCORE.RESTR>
0

>  <SCORE.RESTR.CAVITY>
0

>  <SCORE.RESTR.norm>
0

>  <SCORE.SYSTEM>
0

>  <SCORE.SYSTEM.CONST>
0

>  <SCORE.SYSTEM.DIHEDRAL>
0

>  <SCORE.SYSTEM.SOLV>
0

>  <SCORE.SYSTEM.norm>
0

>  <SCORE.heavy>
22

>  <SCORE.norm>
-0.825293

>  <RMSD>
6.670

$$$$
ligand
 OpenBabel11021811503D
libRbt.so/2013.1/901 2013/11/27
 22 24  0  0  0  0  0  0  0  0999 V2000
    0.1914    5.6812   23.7971 C   0  0  0  0  0  0  0  0  0  0  0  0
    1.3217    4.8455   23.6754 C   0  0  0  0  0  0  0  0  0  0  0  0
    2.5890    5.3706   23.9132 C   0  0  0  0  0  0  0  0  0  0  0  0
    2.7218    6.7239   24.2696 C   0  0  0  0  0  0  0  0  0  0  0  0
    1.5885    7.5665   24.3829 C   0  0  0  0  0  0  0  0  0  0  0  0
    0.3258    7.0412   24.1446 C   0  0  0  0  0  0  0  0  0  0  0  0
   -1.2166    5.1201   23.5198 C   0  0  0  0  0  0  0  0  0  0  0  0
   -1.6010    5.0285   22.0219 C   0  0  0  0  0  0  0  0  0  0  0  0
   -0.6522    4.1688   21.1948 C   0  0  0  0  0  0  0  0  0  0  0  0
   -0.5185    2.7854   21.3481 C   0  0  0  0  0  0  0  0  0  0  0  0
    0.4066    2.3762   20.4411 N   0  0  0  0  0  0  0  0  0  0  0  0
    0.8996    3.4218   19.6863 C   0  0  0  0  0  0  0  0  0  0  0  0
    0.2578    4.5743   20.1260 C   0  0  0  0  0  0  0  0  0  0  0  0
    0.6099    5.8167   19.4742 C   0  0  0  0  0  0  0  0  0  0  0  0
    0.0008    7.0084   19.8577 O   0  0  0  0  0  0  0  0  0  0  0  0
    1.5639    5.8037   18.4654 N   0  0  0  0  0  0  0  0  0  0  0  0
    2.1612    4.6457   18.0594 C   0  0  0  0  0  0  0  0  0  0  0  0
    1.8591    3.4749   18.6422 N   0  0  0  0  0  0  0  0  0  0  0  0
    3.1514    4.6804   16.9782 N   0  0  0  0  0  0  0  0  0  0  0  0
    4.1044    7.2670   24.5159 C   0  0  0  0  0  0  0  0  0  0  0  0
    4.6603    7.9533   23.6603 O   0  0  0  0  0  0  0  0  0  0  0  0
    4.7587    6.9627   25.7606 N   0  0  0  0  0  0  0  0  0  0  0  0
  1  2  2  0  0  0  0
  1  6  1  0  0  0  0
  1  7  1  0  0  0  0
  2  3  1  0  0  0  0
  3  4  2  0  0  0  0
  4  5  1  0  0  0  0
  4 20  1  0  0  0  0
  5  6  2  0  0  0  0
  7  8  1  0  0  0  0
  8  9  1  0  0  0  0
  9 10  2  0  0  0  0
  9 13  1  0  0  0  0
 10 11  1  0  0  0  0
 11 12  1  0  0  0  0
 12 13  2  0  0  0  0
 12 18  1  0  0  0  0
 13 14  1  0  0  0  0
 14 15  1  0  0  0  0
 14 16  2  0  0  0  0
 16 17  1  0  0  0  0
 17 18  2  0  0  0  0
 17 19  1  0  0  0  0
 20 21  2  0  0  0  0
 20 22  1  0  0  0  0
M  END
>  <CHROM.1>
-80.37925661,102.50676625,58.26760794,67.02109620,1.35159728,5.40730597,21.68189606
1.22286739,0.42733703,1.26526827

>  <Name>
ligand

>  <RI>
0

>  <Rbt.Current_Directory>
/home/itssahil/PROJECTS/Mol_Feturizer/New_Systems/rnas/4LVY

>  <Rbt.Executable>
rbdock ($Id: //depot/dev/client3/rdock/2013.1/src/exe/rbdock.cxx#4 $)

>  <Rbt.Library>
libRbt.so (2013.1, Build901 2013/11/27)

>  <Rbt.Parameter_File>
/export/apps/rDock/src/rDock_2013.1_src/data/scripts/dock_solv.prm

>  <Rbt.Receptor>
prm/pocket_docking_8.prm

>  <SCORE>
-18.2847

>  <SCORE.INTER>
-16.8881

>  <SCORE.INTER.CONST>
1

>  <SCORE.INTER.POLAR>
0

>  <SCORE.INTER.ROT>
4

>  <SCORE.INTER.SOLV>
5.26131

>  <SCORE.INTER.VDW>
-19.2792

>  <SCORE.INTER.norm>
-0.767641

>  <SCORE.INTRA>
-1.39659

>  <SCORE.INTRA.DIHEDRAL>
-0.00125287

>  <SCORE.INTRA.DIHEDRAL.0>
6.18831

>  <SCORE.INTRA.POLAR>
0

>  <SCORE.INTRA.POLAR.0>
0

>  <SCORE.INTRA.REPUL>
0

>  <SCORE.INTRA.REPUL.0>
0

>  <SCORE.INTRA.SOLV>
0.0598384

>  <SCORE.INTRA.SOLV.lig_0>
-44.3465

>  <SCORE.INTRA.VDW>
-1.42588

>  <SCORE.INTRA.VDW.0>
-0.778272

>  <SCORE.INTRA.norm>
-0.0634813

>  <SCORE.RESTR>
0

>  <SCORE.RESTR.CAVITY>
0

>  <SCORE.RESTR.norm>
0

>  <SCORE.SYSTEM>
0

>  <SCORE.SYSTEM.CONST>
0

>  <SCORE.SYSTEM.DIHEDRAL>
0

>  <SCORE.SYSTEM.SOLV>
0

>  <SCORE.SYSTEM.norm>
0

>  <SCORE.heavy>
22

>  <SCORE.norm>
-0.831122

>  <RMSD>
6.676

$$$$
ligand
 OpenBabel11021811503D
libRbt.so/2013.1/901 2013/11/27
 22 24  0  0  0  0  0  0  0  0999 V2000
    0.1903    5.7025   23.8027 C   0  0  0  0  0  0  0  0  0  0  0  0
    0.3602    7.0522   24.1768 C   0  0  0  0  0  0  0  0  0  0  0  0
    1.6408    7.5345   24.4337 C   0  0  0  0  0  0  0  0  0  0  0  0
    2.7426    6.6693   24.3170 C   0  0  0  0  0  0  0  0  0  0  0  0
    2.5724    5.3114   23.9506 C   0  0  0  0  0  0  0  0  0  0  0  0
    1.2947    4.8322   23.6957 C   0  0  0  0  0  0  0  0  0  0  0  0
   -1.2219    5.1485   23.5325 C   0  0  0  0  0  0  0  0  0  0  0  0
   -1.6034    5.0315   22.0356 C   0  0  0  0  0  0  0  0  0  0  0  0
   -0.6596    4.1484   21.2275 C   0  0  0  0  0  0  0  0  0  0  0  0
   -0.5376    2.7672   21.4078 C   0  0  0  0  0  0  0  0  0  0  0  0
    0.3863    2.3332   20.5112 N   0  0  0  0  0  0  0  0  0  0  0  0
    0.8895    3.3600   19.7375 C   0  0  0  0  0  0  0  0  0  0  0  0
    0.2561    4.5259   20.1535 C   0  0  0  0  0  0  0  0  0  0  0  0
    0.6198    5.7526   19.4788 C   0  0  0  0  0  0  0  0  0  0  0  0
    0.0195    6.9564   19.8377 O   0  0  0  0  0  0  0  0  0  0  0  0
    1.5760    5.7125   18.4728 N   0  0  0  0  0  0  0  0  0  0  0  0
    2.1649    4.5421   18.0906 C   0  0  0  0  0  0  0  0  0  0  0  0
    1.8518    3.3852   18.6950 N   0  0  0  0  0  0  0  0  0  0  0  0
    3.1578    4.5480   17.0114 N   0  0  0  0  0  0  0  0  0  0  0  0
    4.1156    7.2158   24.6057 C   0  0  0  0  0  0  0  0  0  0  0  0
    4.7534    7.7834   23.7208 O   0  0  0  0  0  0  0  0  0  0  0  0
    4.6637    7.0551   25.9262 N   0  0  0  0  0  0  0  0  0  0  0  0
  1  2  2  0  0  0  0
  1  6  1  0  0  0  0
  1  7  1  0  0  0  0
  2  3  1  0  0  0  0
  3  4  2  0  0  0  0
  4  5  1  0  0  0  0
  4 20  1  0  0  0  0
  5  6  2  0  0  0  0
  7  8  1  0  0  0  0
  8  9  1  0  0  0  0
  9 10  2  0  0  0  0
  9 13  1  0  0  0  0
 10 11  1  0  0  0  0
 11 12  1  0  0  0  0
 12 13  2  0  0  0  0
 12 18  1  0  0  0  0
 13 14  1  0  0  0  0
 14 15  1  0  0  0  0
 14 16  2  0  0  0  0
 16 17  1  0  0  0  0
 17 18  2  0  0  0  0
 17 19  1  0  0  0  0
 20 21  2  0  0  0  0
 20 22  1  0  0  0  0
M  END
>  <CHROM.1>
100.77217648,-85.71964128,58.23598509,67.00610495,1.35444856,5.36279567,21.72213374
1.22854370,0.40737551,1.25493185

>  <Name>
ligand

>  <RI>
0

>  <Rbt.Current_Directory>
/home/itssahil/PROJECTS/Mol_Feturizer/New_Systems/rnas/4LVY

>  <Rbt.Executable>
rbdock ($Id: //depot/dev/client3/rdock/2013.1/src/exe/rbdock.cxx#4 $)

>  <Rbt.Library>
libRbt.so (2013.1, Build901 2013/11/27)

>  <Rbt.Parameter_File>
/export/apps/rDock/src/rDock_2013.1_src/data/scripts/dock_solv.prm

>  <Rbt.Receptor>
prm/pocket_docking_5.prm

>  <SCORE>
-18.2769

>  <SCORE.INTER>
-16.9458

>  <SCORE.INTER.CONST>
1

>  <SCORE.INTER.POLAR>
0

>  <SCORE.INTER.ROT>
4

>  <SCORE.INTER.SOLV>
5.3675

>  <SCORE.INTER.VDW>
-19.3531

>  <SCORE.INTER.norm>
-0.770265

>  <SCORE.INTRA>
-1.33103

>  <SCORE.INTRA.DIHEDRAL>
0.0846512

>  <SCORE.INTRA.DIHEDRAL.0>
6.18831

>  <SCORE.INTRA.POLAR>
0

>  <SCORE.INTRA.POLAR.0>
0

>  <SCORE.INTRA.REPUL>
0

>  <SCORE.INTRA.REPUL.0>
0

>  <SCORE.INTRA.SOLV>
0.0601596

>  <SCORE.INTRA.SOLV.lig_0>
-44.3465

>  <SCORE.INTRA.VDW>
-1.40344

>  <SCORE.INTRA.VDW.0>
-0.778272

>  <SCORE.INTRA.norm>
-0.0605015

>  <SCORE.RESTR>
0

>  <SCORE.RESTR.CAVITY>
0

>  <SCORE.RESTR.norm>
0

>  <SCORE.SYSTEM>
0

>  <SCORE.SYSTEM.CONST>
0

>  <SCORE.SYSTEM.DIHEDRAL>
0

>  <SCORE.SYSTEM.SOLV>
0

>  <SCORE.SYSTEM.norm>
0

>  <SCORE.heavy>
22

>  <SCORE.norm>
-0.830766

>  <RMSD>
6.678

$$$$
ligand
 OpenBabel11021811503D
libRbt.so/2013.1/901 2013/11/27
 22 24  0  0  0  0  0  0  0  0999 V2000
    0.1898    5.6749   23.7985 C   0  0  0  0  0  0  0  0  0  0  0  0
    1.3284    4.8494   23.6861 C   0  0  0  0  0  0  0  0  0  0  0  0
    2.5887    5.3851   23.9369 C   0  0  0  0  0  0  0  0  0  0  0  0
    2.7063    6.7388   24.2970 C   0  0  0  0  0  0  0  0  0  0  0  0
    1.5647    7.5712   24.4010 C   0  0  0  0  0  0  0  0  0  0  0  0
    0.3089    7.0354   24.1499 C   0  0  0  0  0  0  0  0  0  0  0  0
   -1.2106    5.1021   23.5069 C   0  0  0  0  0  0  0  0  0  0  0  0
   -1.5859    5.0239   22.0059 C   0  0  0  0  0  0  0  0  0  0  0  0
   -0.6408    4.1590   21.1799 C   0  0  0  0  0  0  0  0  0  0  0  0
   -0.4995    2.7781   21.3478 C   0  0  0  0  0  0  0  0  0  0  0  0
    0.4191    2.3626   20.4369 N   0  0  0  0  0  0  0  0  0  0  0  0
    0.9002    3.4017   19.6655 C   0  0  0  0  0  0  0  0  0  0  0  0
    0.2573    4.5563   20.0981 C   0  0  0  0  0  0  0  0  0  0  0  0
    0.5976    5.7927   19.4288 C   0  0  0  0  0  0  0  0  0  0  0  0
   -0.0133    6.9859   19.8043 O   0  0  0  0  0  0  0  0  0  0  0  0
    1.5423    5.7723   18.4114 N   0  0  0  0  0  0  0  0  0  0  0  0
    2.1411    4.6124   18.0130 C   0  0  0  0  0  0  0  0  0  0  0  0
    1.8497    3.4470   18.6120 N   0  0  0  0  0  0  0  0  0  0  0  0
    3.1210    4.6391   16.9223 N   0  0  0  0  0  0  0  0  0  0  0  0
    4.0817    7.2934   24.5573 C   0  0  0  0  0  0  0  0  0  0  0  0
    4.5983    7.1695   25.6663 O   0  0  0  0  0  0  0  0  0  0  0  0
    4.7705    7.9717   23.4917 N   0  0  0  0  0  0  0  0  0  0  0  0
  1  2  2  0  0  0  0
  1  6  1  0  0  0  0
  1  7  1  0  0  0  0
  2  3  1  0  0  0  0
  3  4  2  0  0  0  0
  4  5  1  0  0  0  0
  4 20  1  0  0  0  0
  5  6  2  0  0  0  0
  7  8  1  0  0  0  0
  8  9  1  0  0  0  0
  9 10  2  0  0  0  0
  9 13  1  0  0  0  0
 10 11  1  0  0  0  0
 11 12  1  0  0  0  0
 12 13  2  0  0  0  0
 12 18  1  0  0  0  0
 13 14  1  0  0  0  0
 14 15  1  0  0  0  0
 14 16  2  0  0  0  0
 16 17  1  0  0  0  0
 17 18  2  0  0  0  0
 17 19  1  0  0  0  0
 20 21  2  0  0  0  0
 20 22  1  0  0  0  0
M  END
>  <CHROM.1>
-80.99505030,-84.73540332,59.54780074,65.39346581,1.34337054,5.40240903,21.67037891
1.23383616,0.43644980,1.26257228

>  <Name>
ligand

>  <RI>
0

>  <Rbt.Current_Directory>
/home/itssahil/PROJECTS/Mol_Feturizer/New_Systems/rnas/4LVY

>  <Rbt.Executable>
rbdock ($Id: //depot/dev/client3/rdock/2013.1/src/exe/rbdock.cxx#4 $)

>  <Rbt.Library>
libRbt.so (2013.1, Build901 2013/11/27)

>  <Rbt.Parameter_File>
/export/apps/rDock/src/rDock_2013.1_src/data/scripts/dock_solv.prm

>  <Rbt.Receptor>
prm/pocket_docking_6.prm

>  <SCORE>
-18.338

>  <SCORE.INTER>
-16.9545

>  <SCORE.INTER.CONST>
1

>  <SCORE.INTER.POLAR>
0

>  <SCORE.INTER.ROT>
4

>  <SCORE.INTER.SOLV>
5.35419

>  <SCORE.INTER.VDW>
-19.3544

>  <SCORE.INTER.norm>
-0.770659

>  <SCORE.INTRA>
-1.3835

>  <SCORE.INTRA.DIHEDRAL>
-0.0640813

>  <SCORE.INTRA.DIHEDRAL.0>
6.18831

>  <SCORE.INTRA.POLAR>
0

>  <SCORE.INTRA.POLAR.0>
0

>  <SCORE.INTRA.REPUL>
0

>  <SCORE.INTRA.REPUL.0>
0

>  <SCORE.INTRA.SOLV>
0.0545003

>  <SCORE.INTRA.SOLV.lig_0>
-44.3465

>  <SCORE.INTRA.VDW>
-1.37871

>  <SCORE.INTRA.VDW.0>
-0.778272

>  <SCORE.INTRA.norm>
-0.0628863

>  <SCORE.RESTR>
0

>  <SCORE.RESTR.CAVITY>
0

>  <SCORE.RESTR.norm>
0

>  <SCORE.SYSTEM>
0

>  <SCORE.SYSTEM.CONST>
0

>  <SCORE.SYSTEM.DIHEDRAL>
0

>  <SCORE.SYSTEM.SOLV>
0

>  <SCORE.SYSTEM.norm>
0

>  <SCORE.heavy>
22

>  <SCORE.norm>
-0.833545

>  <RMSD>
6.678

$$$$
ligand
 OpenBabel11021811503D
libRbt.so/2013.1/901 2013/11/27
 22 24  0  0  0  0  0  0  0  0999 V2000
    0.1898    5.6742   23.8044 C   0  0  0  0  0  0  0  0  0  0  0  0
    1.3292    4.8503   23.6879 C   0  0  0  0  0  0  0  0  0  0  0  0
    2.5889    5.3853   23.9433 C   0  0  0  0  0  0  0  0  0  0  0  0
    2.7050    6.7369   24.3121 C   0  0  0  0  0  0  0  0  0  0  0  0
    1.5627    7.5677   24.4203 C   0  0  0  0  0  0  0  0  0  0  0  0
    0.3076    7.0326   24.1644 C   0  0  0  0  0  0  0  0  0  0  0  0
   -1.2098    5.1022   23.5077 C   0  0  0  0  0  0  0  0  0  0  0  0
   -1.5800    5.0250   22.0054 C   0  0  0  0  0  0  0  0  0  0  0  0
   -0.6343    4.1578   21.1826 C   0  0  0  0  0  0  0  0  0  0  0  0
   -0.5043    2.7751   21.3440 C   0  0  0  0  0  0  0  0  0  0  0  0
    0.4189    2.3580   20.4386 N   0  0  0  0  0  0  0  0  0  0  0  0
    0.9141    3.3977   19.6771 C   0  0  0  0  0  0  0  0  0  0  0  0
    0.2758    4.5546   20.1106 C   0  0  0  0  0  0  0  0  0  0  0  0
    0.6307    5.7921   19.4512 C   0  0  0  0  0  0  0  0  0  0  0  0
    0.0252    6.9877   19.8281 O   0  0  0  0  0  0  0  0  0  0  0  0
    1.5838    5.7705   18.4416 N   0  0  0  0  0  0  0  0  0  0  0  0
    2.1775    4.6085   18.0419 C   0  0  0  0  0  0  0  0  0  0  0  0
    1.8727    3.4420   18.6319 N   0  0  0  0  0  0  0  0  0  0  0  0
    3.1668    4.6340   16.9597 N   0  0  0  0  0  0  0  0  0  0  0  0
    4.0798    7.2909   24.5774 C   0  0  0  0  0  0  0  0  0  0  0  0
    4.8389    6.7147   25.3544 O   0  0  0  0  0  0  0  0  0  0  0  0
    4.4807    8.5025   23.9130 N   0  0  0  0  0  0  0  0  0  0  0  0
  1  2  2  0  0  0  0
  1  6  1  0  0  0  0
  1  7  1  0  0  0  0
  2  3  1  0  0  0  0
  3  4  2  0  0  0  0
  4  5  1  0  0  0  0
  4 20  1  0  0  0  0
  5  6  2  0  0  0  0
  7  8  1  0  0  0  0
  8  9  1  0  0  0  0
  9 10  2  0  0  0  0
  9 13  1  0  0  0  0
 10 11  1  0  0  0  0
 11 12  1  0  0  0  0
 12 13  2  0  0  0  0
 12 18  1  0  0  0  0
 13 14  1  0  0  0  0
 14 15  1  0  0  0  0
 14 16  2  0  0  0  0
 16 17  1  0  0  0  0
 17 18  2  0  0  0  0
 17 19  1  0  0  0  0
 20 21  2  0  0  0  0
 20 22  1  0  0  0  0
M  END
>  <CHROM.1>
-80.63310008,-51.57887480,59.66796364,65.89604115,1.35462601,5.40125570,21.68588565
1.23044114,0.43701012,1.25570914

>  <Name>
ligand

>  <RI>
0

>  <Rbt.Current_Directory>
/home/itssahil/PROJECTS/Mol_Feturizer/New_Systems/rnas/4LVY

>  <Rbt.Executable>
rbdock ($Id: //depot/dev/client3/rdock/2013.1/src/exe/rbdock.cxx#4 $)

>  <Rbt.Library>
libRbt.so (2013.1, Build901 2013/11/27)

>  <Rbt.Parameter_File>
/export/apps/rDock/src/rDock_2013.1_src/data/scripts/dock_solv.prm

>  <Rbt.Receptor>
prm/pocket_docking_8.prm

>  <SCORE>
-18.2654

>  <SCORE.INTER>
-16.9774

>  <SCORE.INTER.CONST>
1

>  <SCORE.INTER.POLAR>
0

>  <SCORE.INTER.ROT>
4

>  <SCORE.INTER.SOLV>
5.35246

>  <SCORE.INTER.VDW>
-19.3691

>  <SCORE.INTER.norm>
-0.7717

>  <SCORE.INTRA>
-1.28801

>  <SCORE.INTRA.DIHEDRAL>
-0.0245561

>  <SCORE.INTRA.DIHEDRAL.0>
6.18831

>  <SCORE.INTRA.POLAR>
0

>  <SCORE.INTRA.POLAR.0>
0

>  <SCORE.INTRA.REPUL>
0

>  <SCORE.INTRA.REPUL.0>
0

>  <SCORE.INTRA.SOLV>
0.0618561

>  <SCORE.INTRA.SOLV.lig_0>
-44.3465

>  <SCORE.INTRA.VDW>
-1.30666

>  <SCORE.INTRA.VDW.0>
-0.778272

>  <SCORE.INTRA.norm>
-0.0585461

>  <SCORE.RESTR>
0

>  <SCORE.RESTR.CAVITY>
0

>  <SCORE.RESTR.norm>
0

>  <SCORE.SYSTEM>
0

>  <SCORE.SYSTEM.CONST>
0

>  <SCORE.SYSTEM.DIHEDRAL>
0

>  <SCORE.SYSTEM.SOLV>
0

>  <SCORE.SYSTEM.norm>
0

>  <SCORE.heavy>
22

>  <SCORE.norm>
-0.830246

>  <RMSD>
6.679

$$$$
ligand
 OpenBabel11021811503D
libRbt.so/2013.1/901 2013/11/27
 22 24  0  0  0  0  0  0  0  0999 V2000
    0.1737    5.6878   23.8037 C   0  0  0  0  0  0  0  0  0  0  0  0
    1.2912    4.8354   23.6800 C   0  0  0  0  0  0  0  0  0  0  0  0
    2.5652    5.3377   23.9305 C   0  0  0  0  0  0  0  0  0  0  0  0
    2.7175    6.6851   24.3015 C   0  0  0  0  0  0  0  0  0  0  0  0
    1.5972    7.5444   24.4170 C   0  0  0  0  0  0  0  0  0  0  0  0
    0.3277    7.0419   24.1661 C   0  0  0  0  0  0  0  0  0  0  0  0
   -1.2414    5.1522   23.5126 C   0  0  0  0  0  0  0  0  0  0  0  0
   -1.6054    5.0485   22.0104 C   0  0  0  0  0  0  0  0  0  0  0  0
   -0.6632    4.1575   21.2092 C   0  0  0  0  0  0  0  0  0  0  0  0
   -0.5374    2.7790   21.4059 C   0  0  0  0  0  0  0  0  0  0  0  0
    0.3837    2.3359   20.5107 N   0  0  0  0  0  0  0  0  0  0  0  0
    0.8814    3.3543   19.7225 C   0  0  0  0  0  0  0  0  0  0  0  0
    0.2473    4.5239   20.1268 C   0  0  0  0  0  0  0  0  0  0  0  0
    0.6055    5.7430   19.4356 C   0  0  0  0  0  0  0  0  0  0  0  0
    0.0041    6.9497   19.7824 O   0  0  0  0  0  0  0  0  0  0  0  0
    1.5576    5.6925   18.4262 N   0  0  0  0  0  0  0  0  0  0  0  0
    2.1473    4.5188   18.0558 C   0  0  0  0  0  0  0  0  0  0  0  0
    1.8393    3.3687   18.6757 N   0  0  0  0  0  0  0  0  0  0  0  0
    3.1357    4.5136   16.9725 N   0  0  0  0  0  0  0  0  0  0  0  0
    4.1072    7.2033   24.5614 C   0  0  0  0  0  0  0  0  0  0  0  0
    4.7350    7.7646   23.6654 O   0  0  0  0  0  0  0  0  0  0  0  0
    4.6828    7.0234   25.8676 N   0  0  0  0  0  0  0  0  0  0  0  0
  1  2  2  0  0  0  0
  1  6  1  0  0  0  0
  1  7  1  0  0  0  0
  2  3  1  0  0  0  0
  3  4  2  0  0  0  0
  4  5  1  0  0  0  0
  4 20  1  0  0  0  0
  5  6  2  0  0  0  0
  7  8  1  0  0  0  0
  8  9  1  0  0  0  0
  9 10  2  0  0  0  0
  9 13  1  0  0  0  0
 10 11  1  0  0  0  0
 11 12  1  0  0  0  0
 12 13  2  0  0  0  0
 12 18  1  0  0  0  0
 13 14  1  0  0  0  0
 14 15  1  0  0  0  0
 14 16  2  0  0  0  0
 16 17  1  0  0  0  0
 17 18  2  0  0  0  0
 17 19  1  0  0  0  0
 20 21  2  0  0  0  0
 20 22  1  0  0  0  0
M  END
>  <CHROM.1>
-78.91126243,94.64182978,58.31245688,65.35325427,1.34176712,5.35741030,21.69473101
1.23406385,0.40108263,1.25319039

>  <Name>
ligand

>  <RI>
0

>  <Rbt.Current_Directory>
/home/itssahil/PROJECTS/Mol_Feturizer/New_Systems/rnas/4LVY

>  <Rbt.Executable>
rbdock ($Id: //depot/dev/client3/rdock/2013.1/src/exe/rbdock.cxx#4 $)

>  <Rbt.Library>
libRbt.so (2013.1, Build901 2013/11/27)

>  <Rbt.Parameter_File>
/export/apps/rDock/src/rDock_2013.1_src/data/scripts/dock_solv.prm

>  <Rbt.Receptor>
prm/pocket_docking_8.prm

>  <SCORE>
-18.3452

>  <SCORE.INTER>
-16.9891

>  <SCORE.INTER.CONST>
1

>  <SCORE.INTER.POLAR>
0

>  <SCORE.INTER.ROT>
4

>  <SCORE.INTER.SOLV>
5.4373

>  <SCORE.INTER.VDW>
-19.4052

>  <SCORE.INTER.norm>
-0.772231

>  <SCORE.INTRA>
-1.35609

>  <SCORE.INTRA.DIHEDRAL>
0.00392637

>  <SCORE.INTRA.DIHEDRAL.0>
6.18831

>  <SCORE.INTRA.POLAR>
0

>  <SCORE.INTRA.POLAR.0>
0

>  <SCORE.INTRA.REPUL>
0

>  <SCORE.INTRA.REPUL.0>
0

>  <SCORE.INTRA.SOLV>
0.0530913

>  <SCORE.INTRA.SOLV.lig_0>
-44.3465

>  <SCORE.INTRA.VDW>
-1.3846

>  <SCORE.INTRA.VDW.0>
-0.778272

>  <SCORE.INTRA.norm>
-0.0616405

>  <SCORE.RESTR>
0

>  <SCORE.RESTR.CAVITY>
0

>  <SCORE.RESTR.norm>
0

>  <SCORE.SYSTEM>
0

>  <SCORE.SYSTEM.CONST>
0

>  <SCORE.SYSTEM.DIHEDRAL>
0

>  <SCORE.SYSTEM.SOLV>
0

>  <SCORE.SYSTEM.norm>
0

>  <SCORE.heavy>
22

>  <SCORE.norm>
-0.833871

>  <RMSD>
6.682

$$$$
ligand
 OpenBabel11021811503D
libRbt.so/2013.1/901 2013/11/27
 22 24  0  0  0  0  0  0  0  0999 V2000
    0.1789    5.6931   23.8300 C   0  0  0  0  0  0  0  0  0  0  0  0
    1.3129    4.8598   23.7282 C   0  0  0  0  0  0  0  0  0  0  0  0
    2.5754    5.3895   23.9811 C   0  0  0  0  0  0  0  0  0  0  0  0
    2.6997    6.7449   24.3327 C   0  0  0  0  0  0  0  0  0  0  0  0
    1.5628    7.5849   24.4261 C   0  0  0  0  0  0  0  0  0  0  0  0
    0.3049    7.0551   24.1728 C   0  0  0  0  0  0  0  0  0  0  0  0
   -1.2236    5.1269   23.5359 C   0  0  0  0  0  0  0  0  0  0  0  0
   -1.5946    5.0457   22.0340 C   0  0  0  0  0  0  0  0  0  0  0  0
   -0.6572    4.1653   21.2156 C   0  0  0  0  0  0  0  0  0  0  0  0
   -0.5310    2.7842   21.3927 C   0  0  0  0  0  0  0  0  0  0  0  0
    0.3849    2.3530   20.4865 N   0  0  0  0  0  0  0  0  0  0  0  0
    0.8788    3.3818   19.7095 C   0  0  0  0  0  0  0  0  0  0  0  0
    0.2475    4.5460   20.1332 C   0  0  0  0  0  0  0  0  0  0  0  0
    0.6025    5.7743   19.4568 C   0  0  0  0  0  0  0  0  0  0  0  0
    0.0036    6.9765   19.8233 O   0  0  0  0  0  0  0  0  0  0  0  0
    1.5490    5.7372   18.4416 N   0  0  0  0  0  0  0  0  0  0  0  0
    2.1361    4.5684   18.0520 C   0  0  0  0  0  0  0  0  0  0  0  0
    1.8309    3.4101   18.6578 N   0  0  0  0  0  0  0  0  0  0  0  0
    3.1185    4.5775   16.9633 N   0  0  0  0  0  0  0  0  0  0  0  0
    4.0773    7.2928   24.5956 C   0  0  0  0  0  0  0  0  0  0  0  0
    4.6022    7.1428   25.6974 O   0  0  0  0  0  0  0  0  0  0  0  0
    4.7584    7.9956   23.5410 N   0  0  0  0  0  0  0  0  0  0  0  0
  1  2  2  0  0  0  0
  1  6  1  0  0  0  0
  1  7  1  0  0  0  0
  2  3  1  0  0  0  0
  3  4  2  0  0  0  0
  4  5  1  0  0  0  0
  4 20  1  0  0  0  0
  5  6  2  0  0  0  0
  7  8  1  0  0  0  0
  8  9  1  0  0  0  0
  9 10  2  0  0  0  0
  9 13  1  0  0  0  0
 10 11  1  0  0  0  0
 11 12  1  0  0  0  0
 12 13  2  0  0  0  0
 12 18  1  0  0  0  0
 13 14  1  0  0  0  0
 14 15  1  0  0  0  0
 14 16  2  0  0  0  0
 16 17  1  0  0  0  0
 17 18  2  0  0  0  0
 17 19  1  0  0  0  0
 20 21  2  0  0  0  0
 20 22  1  0  0  0  0
M  END
>  <CHROM.1>
-81.20380012,-82.84824595,59.93589546,65.25874895,1.33478321,5.39647608,21.70611520
1.23450572,0.43007580,1.25513306

>  <Name>
ligand

>  <RI>
0

>  <Rbt.Current_Directory>
/home/itssahil/PROJECTS/Mol_Feturizer/New_Systems/rnas/4LVY

>  <Rbt.Executable>
rbdock ($Id: //depot/dev/client3/rdock/2013.1/src/exe/rbdock.cxx#4 $)

>  <Rbt.Library>
libRbt.so (2013.1, Build901 2013/11/27)

>  <Rbt.Parameter_File>
/export/apps/rDock/src/rDock_2013.1_src/data/scripts/dock_solv.prm

>  <Rbt.Receptor>
prm/pocket_docking_7.prm

>  <SCORE>
-18.3151

>  <SCORE.INTER>
-16.9366

>  <SCORE.INTER.CONST>
1

>  <SCORE.INTER.POLAR>
0

>  <SCORE.INTER.ROT>
4

>  <SCORE.INTER.SOLV>
5.37864

>  <SCORE.INTER.VDW>
-19.3506

>  <SCORE.INTER.norm>
-0.769846

>  <SCORE.INTRA>
-1.37851

>  <SCORE.INTRA.DIHEDRAL>
-0.0645256

>  <SCORE.INTRA.DIHEDRAL.0>
6.18831

>  <SCORE.INTRA.POLAR>
0

>  <SCORE.INTRA.POLAR.0>
0

>  <SCORE.INTRA.REPUL>
0

>  <SCORE.INTRA.REPUL.0>
0

>  <SCORE.INTRA.SOLV>
0.0541161

>  <SCORE.INTRA.SOLV.lig_0>
-44.3465

>  <SCORE.INTRA.VDW>
-1.37331

>  <SCORE.INTRA.VDW.0>
-0.778272

>  <SCORE.INTRA.norm>
-0.0626597

>  <SCORE.RESTR>
0

>  <SCORE.RESTR.CAVITY>
0

>  <SCORE.RESTR.norm>
0

>  <SCORE.SYSTEM>
0

>  <SCORE.SYSTEM.CONST>
0

>  <SCORE.SYSTEM.DIHEDRAL>
0

>  <SCORE.SYSTEM.SOLV>
0

>  <SCORE.SYSTEM.norm>
0

>  <SCORE.heavy>
22

>  <SCORE.norm>
-0.832505

>  <RMSD>
6.684

$$$$
ligand
 OpenBabel11021811503D
libRbt.so/2013.1/901 2013/11/27
 22 24  0  0  0  0  0  0  0  0999 V2000
    0.2029    5.6712   23.7934 C   0  0  0  0  0  0  0  0  0  0  0  0
    0.3498    7.0228   24.1707 C   0  0  0  0  0  0  0  0  0  0  0  0
    1.6220    7.5262   24.4287 C   0  0  0  0  0  0  0  0  0  0  0  0
    2.7383    6.6801   24.3102 C   0  0  0  0  0  0  0  0  0  0  0  0
    2.5914    5.3204   23.9407 C   0  0  0  0  0  0  0  0  0  0  0  0
    1.3220    4.8201   23.6844 C   0  0  0  0  0  0  0  0  0  0  0  0
   -1.1996    5.0940   23.5217 C   0  0  0  0  0  0  0  0  0  0  0  0
   -1.5920    5.0051   22.0257 C   0  0  0  0  0  0  0  0  0  0  0  0
   -0.6512    4.1417   21.1933 C   0  0  0  0  0  0  0  0  0  0  0  0
   -0.5166    2.7590   21.3509 C   0  0  0  0  0  0  0  0  0  0  0  0
    0.3999    2.3457   20.4370 N   0  0  0  0  0  0  0  0  0  0  0  0
    0.8862    3.3881   19.6734 C   0  0  0  0  0  0  0  0  0  0  0  0
    0.2490    4.5426   20.1145 C   0  0  0  0  0  0  0  0  0  0  0  0
    0.5954    5.7822   19.4545 C   0  0  0  0  0  0  0  0  0  0  0  0
   -0.0097    6.9757   19.8388 O   0  0  0  0  0  0  0  0  0  0  0  0
    1.5400    5.7648   18.4369 N   0  0  0  0  0  0  0  0  0  0  0  0
    2.1331    4.6049   18.0300 C   0  0  0  0  0  0  0  0  0  0  0  0
    1.8359    3.4366   18.6202 N   0  0  0  0  0  0  0  0  0  0  0  0
    3.1132    4.6349   16.9395 N   0  0  0  0  0  0  0  0  0  0  0  0
    4.1018    7.2492   24.6003 C   0  0  0  0  0  0  0  0  0  0  0  0
    4.7282    7.8333   23.7180 O   0  0  0  0  0  0  0  0  0  0  0  0
    4.6547    7.0905   25.9191 N   0  0  0  0  0  0  0  0  0  0  0  0
  1  2  2  0  0  0  0
  1  6  1  0  0  0  0
  1  7  1  0  0  0  0
  2  3  1  0  0  0  0
  3  4  2  0  0  0  0
  4  5  1  0  0  0  0
  4 20  1  0  0  0  0
  5  6  2  0  0  0  0
  7  8  1  0  0  0  0
  8  9  1  0  0  0  0
  9 10  2  0  0  0  0
  9 13  1  0  0  0  0
 10 11  1  0  0  0  0
 11 12  1  0  0  0  0
 12 13  2  0  0  0  0
 12 18  1  0  0  0  0
 13 14  1  0  0  0  0
 14 15  1  0  0  0  0
 14 16  2  0  0  0  0
 16 17  1  0  0  0  0
 17 18  2  0  0  0  0
 17 19  1  0  0  0  0
 20 21  2  0  0  0  0
 20 22  1  0  0  0  0
M  END
>  <CHROM.1>
99.39235991,-85.49134567,59.27578002,66.58769779,1.34747286,5.37832325,21.69414801
1.22611250,0.42821376,1.26971404

>  <Name>
ligand

>  <RI>
0

>  <Rbt.Current_Directory>
/home/itssahil/PROJECTS/Mol_Feturizer/New_Systems/rnas/4LVY

>  <Rbt.Executable>
rbdock ($Id: //depot/dev/client3/rdock/2013.1/src/exe/rbdock.cxx#4 $)

>  <Rbt.Library>
libRbt.so (2013.1, Build901 2013/11/27)

>  <Rbt.Parameter_File>
/export/apps/rDock/src/rDock_2013.1_src/data/scripts/dock_solv.prm

>  <Rbt.Receptor>
prm/pocket_docking_6.prm

>  <SCORE>
-18.2284

>  <SCORE.INTER>
-16.9035

>  <SCORE.INTER.CONST>
1

>  <SCORE.INTER.POLAR>
0

>  <SCORE.INTER.ROT>
4

>  <SCORE.INTER.SOLV>
5.42841

>  <SCORE.INTER.VDW>
-19.3451

>  <SCORE.INTER.norm>
-0.768342

>  <SCORE.INTRA>
-1.32488

>  <SCORE.INTRA.DIHEDRAL>
0.0759767

>  <SCORE.INTRA.DIHEDRAL.0>
6.18831

>  <SCORE.INTRA.POLAR>
0

>  <SCORE.INTRA.POLAR.0>
0

>  <SCORE.INTRA.REPUL>
0

>  <SCORE.INTRA.REPUL.0>
0

>  <SCORE.INTRA.SOLV>
0.0587013

>  <SCORE.INTRA.SOLV.lig_0>
-44.3465

>  <SCORE.INTRA.VDW>
-1.39222

>  <SCORE.INTRA.VDW.0>
-0.778272

>  <SCORE.INTRA.norm>
-0.060222

>  <SCORE.RESTR>
0

>  <SCORE.RESTR.CAVITY>
0

>  <SCORE.RESTR.norm>
0

>  <SCORE.SYSTEM>
0

>  <SCORE.SYSTEM.CONST>
0

>  <SCORE.SYSTEM.DIHEDRAL>
0

>  <SCORE.SYSTEM.SOLV>
0

>  <SCORE.SYSTEM.norm>
0

>  <SCORE.heavy>
22

>  <SCORE.norm>
-0.828564

>  <RMSD>
6.686

$$$$
ligand
 OpenBabel11021811503D
libRbt.so/2013.1/901 2013/11/27
 22 24  0  0  0  0  0  0  0  0999 V2000
    0.1673    5.6871   23.8211 C   0  0  0  0  0  0  0  0  0  0  0  0
    1.2948    4.8470   23.7047 C   0  0  0  0  0  0  0  0  0  0  0  0
    2.5631    5.3673   23.9473 C   0  0  0  0  0  0  0  0  0  0  0  0
    2.6997    6.7204   24.3031 C   0  0  0  0  0  0  0  0  0  0  0  0
    1.5694    7.5675   24.4111 C   0  0  0  0  0  0  0  0  0  0  0  0
    0.3056    7.0469   24.1681 C   0  0  0  0  0  0  0  0  0  0  0  0
   -1.2417    5.1313   23.5386 C   0  0  0  0  0  0  0  0  0  0  0  0
   -1.6147    5.0256   22.0387 C   0  0  0  0  0  0  0  0  0  0  0  0
   -0.6672    4.1475   21.2296 C   0  0  0  0  0  0  0  0  0  0  0  0
   -0.5396    2.7666   21.4080 C   0  0  0  0  0  0  0  0  0  0  0  0
    0.3863    2.3375   20.5110 N   0  0  0  0  0  0  0  0  0  0  0  0
    0.8855    3.3675   19.7389 C   0  0  0  0  0  0  0  0  0  0  0  0
    0.2473    4.5302   20.1563 C   0  0  0  0  0  0  0  0  0  0  0  0
    0.6061    5.7593   19.4834 C   0  0  0  0  0  0  0  0  0  0  0  0
    0.0009    6.9601   19.8439 O   0  0  0  0  0  0  0  0  0  0  0  0
    1.5628    5.7244   18.4776 N   0  0  0  0  0  0  0  0  0  0  0  0
    2.1564    4.5570   18.0939 C   0  0  0  0  0  0  0  0  0  0  0  0
    1.8479    3.3980   18.6966 N   0  0  0  0  0  0  0  0  0  0  0  0
    3.1495    4.5684   17.0150 N   0  0  0  0  0  0  0  0  0  0  0  0
    4.0835    7.2583   24.5546 C   0  0  0  0  0  0  0  0  0  0  0  0
    4.6446    7.9436   23.7017 O   0  0  0  0  0  0  0  0  0  0  0  0
    4.7326    6.9503   25.8011 N   0  0  0  0  0  0  0  0  0  0  0  0
  1  2  2  0  0  0  0
  1  6  1  0  0  0  0
  1  7  1  0  0  0  0
  2  3  1  0  0  0  0
  3  4  2  0  0  0  0
  4  5  1  0  0  0  0
  4 20  1  0  0  0  0
  5  6  2  0  0  0  0
  7  8  1  0  0  0  0
  8  9  1  0  0  0  0
  9 10  2  0  0  0  0
  9 13  1  0  0  0  0
 10 11  1  0  0  0  0
 11 12  1  0  0  0  0
 12 13  2  0  0  0  0
 12 18  1  0  0  0  0
 13 14  1  0  0  0  0
 14 15  1  0  0  0  0
 14 16  2  0  0  0  0
 16 17  1  0  0  0  0
 17 18  2  0  0  0  0
 17 19  1  0  0  0  0
 20 21  2  0  0  0  0
 20 22  1  0  0  0  0
M  END
>  <CHROM.1>
-79.75039077,102.62906004,58.47178462,66.45793352,1.33626236,5.37685844,21.71379899
1.22942089,0.41861062,1.25147798

>  <Name>
ligand

>  <RI>
0

>  <Rbt.Current_Directory>
/home/itssahil/PROJECTS/Mol_Feturizer/New_Systems/rnas/4LVY

>  <Rbt.Executable>
rbdock ($Id: //depot/dev/client3/rdock/2013.1/src/exe/rbdock.cxx#4 $)

>  <Rbt.Library>
libRbt.so (2013.1, Build901 2013/11/27)

>  <Rbt.Parameter_File>
/export/apps/rDock/src/rDock_2013.1_src/data/scripts/dock_solv.prm

>  <Rbt.Receptor>
prm/pocket_docking_7.prm

>  <SCORE>
-18.348

>  <SCORE.INTER>
-16.9781

>  <SCORE.INTER.CONST>
1

>  <SCORE.INTER.POLAR>
0

>  <SCORE.INTER.ROT>
4

>  <SCORE.INTER.SOLV>
5.35216

>  <SCORE.INTER.VDW>
-19.3694

>  <SCORE.INTER.norm>
-0.771731

>  <SCORE.INTRA>
-1.36994

>  <SCORE.INTRA.DIHEDRAL>
-0.003688

>  <SCORE.INTRA.DIHEDRAL.0>
6.18831

>  <SCORE.INTRA.POLAR>
0

>  <SCORE.INTRA.POLAR.0>
0

>  <SCORE.INTRA.REPUL>
0

>  <SCORE.INTRA.REPUL.0>
0

>  <SCORE.INTRA.SOLV>
0.0578867

>  <SCORE.INTRA.SOLV.lig_0>
-44.3465

>  <SCORE.INTRA.VDW>
-1.39704

>  <SCORE.INTRA.VDW.0>
-0.778272

>  <SCORE.INTRA.norm>
-0.0622699

>  <SCORE.RESTR>
0

>  <SCORE.RESTR.CAVITY>
0

>  <SCORE.RESTR.norm>
0

>  <SCORE.SYSTEM>
0

>  <SCORE.SYSTEM.CONST>
0

>  <SCORE.SYSTEM.DIHEDRAL>
0

>  <SCORE.SYSTEM.SOLV>
0

>  <SCORE.SYSTEM.norm>
0

>  <SCORE.heavy>
22

>  <SCORE.norm>
-0.834001

>  <RMSD>
6.687

$$$$
ligand
 OpenBabel11021811503D
libRbt.so/2013.1/901 2013/11/27
 22 24  0  0  0  0  0  0  0  0999 V2000
    0.1692    5.7144   23.7705 C   0  0  0  0  0  0  0  0  0  0  0  0
    0.3276    7.0566   24.1756 C   0  0  0  0  0  0  0  0  0  0  0  0
    1.6049    7.5468   24.4331 C   0  0  0  0  0  0  0  0  0  0  0  0
    2.7151    6.6971   24.2860 C   0  0  0  0  0  0  0  0  0  0  0  0
    2.5567    5.3466   23.8884 C   0  0  0  0  0  0  0  0  0  0  0  0
    1.2821    4.8595   23.6329 C   0  0  0  0  0  0  0  0  0  0  0  0
   -1.2392    5.1514   23.4990 C   0  0  0  0  0  0  0  0  0  0  0  0
   -1.6147    5.0221   22.0017 C   0  0  0  0  0  0  0  0  0  0  0  0
   -0.6675    4.1328   21.2045 C   0  0  0  0  0  0  0  0  0  0  0  0
   -0.5571    2.7508   21.3856 C   0  0  0  0  0  0  0  0  0  0  0  0
    0.3744    2.3107   20.4998 N   0  0  0  0  0  0  0  0  0  0  0  0
    0.8938    3.3344   19.7327 C   0  0  0  0  0  0  0  0  0  0  0  0
    0.2636    4.5044   20.1416 C   0  0  0  0  0  0  0  0  0  0  0  0
    0.6437    5.7289   19.4718 C   0  0  0  0  0  0  0  0  0  0  0  0
    0.0475    6.9365   19.8241 O   0  0  0  0  0  0  0  0  0  0  0  0
    1.6115    5.6825   18.4772 N   0  0  0  0  0  0  0  0  0  0  0  0
    2.1968    4.5082   18.1015 C   0  0  0  0  0  0  0  0  0  0  0  0
    1.8686    3.3533   18.7017 N   0  0  0  0  0  0  0  0  0  0  0  0
    3.2025    4.5077   17.0343 N   0  0  0  0  0  0  0  0  0  0  0  0
    4.0846    7.2518   24.5761 C   0  0  0  0  0  0  0  0  0  0  0  0
    4.6582    7.9494   23.7416 O   0  0  0  0  0  0  0  0  0  0  0  0
    4.7054    6.9454   25.8373 N   0  0  0  0  0  0  0  0  0  0  0  0
  1  2  2  0  0  0  0
  1  6  1  0  0  0  0
  1  7  1  0  0  0  0
  2  3  1  0  0  0  0
  3  4  2  0  0  0  0
  4  5  1  0  0  0  0
  4 20  1  0  0  0  0
  5  6  2  0  0  0  0
  7  8  1  0  0  0  0
  8  9  1  0  0  0  0
  9 10  2  0  0  0  0
  9 13  1  0  0  0  0
 10 11  1  0  0  0  0
 11 12  1  0  0  0  0
 12 13  2  0  0  0  0
 12 18  1  0  0  0  0
 13 14  1  0  0  0  0
 14 15  1  0  0  0  0
 14 16  2  0  0  0  0
 16 17  1  0  0  0  0
 17 18  2  0  0  0  0
 17 19  1  0  0  0  0
 20 21  2  0  0  0  0
 20 22  1  0  0  0  0
M  END
>  <CHROM.1>
102.71198786,-79.20883978,58.52270537,67.78882324,1.34977086,5.35993116,21.70433819
1.23253628,0.40992681,1.23940980

>  <Name>
ligand

>  <RI>
0

>  <Rbt.Current_Directory>
/home/itssahil/PROJECTS/Mol_Feturizer/New_Systems/rnas/4LVY

>  <Rbt.Executable>
rbdock ($Id: //depot/dev/client3/rdock/2013.1/src/exe/rbdock.cxx#4 $)

>  <Rbt.Library>
libRbt.so (2013.1, Build901 2013/11/27)

>  <Rbt.Parameter_File>
/export/apps/rDock/src/rDock_2013.1_src/data/scripts/dock_solv.prm

>  <Rbt.Receptor>
prm/pocket_docking_5.prm

>  <SCORE>
-18.2577

>  <SCORE.INTER>
-16.9193

>  <SCORE.INTER.CONST>
1

>  <SCORE.INTER.POLAR>
0

>  <SCORE.INTER.ROT>
4

>  <SCORE.INTER.SOLV>
5.29745

>  <SCORE.INTER.VDW>
-19.312

>  <SCORE.INTER.norm>
-0.76906

>  <SCORE.INTRA>
-1.33836

>  <SCORE.INTRA.DIHEDRAL>
0.0812419

>  <SCORE.INTRA.DIHEDRAL.0>
6.18831

>  <SCORE.INTRA.POLAR>
0

>  <SCORE.INTRA.POLAR.0>
0

>  <SCORE.INTRA.REPUL>
0

>  <SCORE.INTRA.REPUL.0>
0

>  <SCORE.INTRA.SOLV>
0.0632757

>  <SCORE.INTRA.SOLV.lig_0>
-44.3465

>  <SCORE.INTRA.VDW>
-1.41062

>  <SCORE.INTRA.VDW.0>
-0.778272

>  <SCORE.INTRA.norm>
-0.0608347

>  <SCORE.RESTR>
0

>  <SCORE.RESTR.CAVITY>
0

>  <SCORE.RESTR.norm>
0

>  <SCORE.SYSTEM>
0

>  <SCORE.SYSTEM.CONST>
0

>  <SCORE.SYSTEM.DIHEDRAL>
0

>  <SCORE.SYSTEM.SOLV>
0

>  <SCORE.SYSTEM.norm>
0

>  <SCORE.heavy>
22

>  <SCORE.norm>
-0.829894

>  <RMSD>
6.689

$$$$
ligand
 OpenBabel11021811503D
libRbt.so/2013.1/901 2013/11/27
 22 24  0  0  0  0  0  0  0  0999 V2000
    0.1618    5.6577   23.7906 C   0  0  0  0  0  0  0  0  0  0  0  0
    1.3108    4.8485   23.6661 C   0  0  0  0  0  0  0  0  0  0  0  0
    2.5648    5.3983   23.9179 C   0  0  0  0  0  0  0  0  0  0  0  0
    2.6657    6.7500   24.2909 C   0  0  0  0  0  0  0  0  0  0  0  0
    1.5136    7.5661   24.4071 C   0  0  0  0  0  0  0  0  0  0  0  0
    0.2642    7.0162   24.1549 C   0  0  0  0  0  0  0  0  0  0  0  0
   -1.2319    5.0692   23.4981 C   0  0  0  0  0  0  0  0  0  0  0  0
   -1.6017    4.9784   21.9965 C   0  0  0  0  0  0  0  0  0  0  0  0
   -0.6468    4.1162   21.1789 C   0  0  0  0  0  0  0  0  0  0  0  0
   -0.5074    2.7348   21.3441 C   0  0  0  0  0  0  0  0  0  0  0  0
    0.4220    2.3223   20.4429 N   0  0  0  0  0  0  0  0  0  0  0  0
    0.9122    3.3638   19.6806 C   0  0  0  0  0  0  0  0  0  0  0  0
    0.2641    4.5170   20.1092 C   0  0  0  0  0  0  0  0  0  0  0  0
    0.6123    5.7555   19.4481 C   0  0  0  0  0  0  0  0  0  0  0  0
   -0.0031    6.9476   19.8201 O   0  0  0  0  0  0  0  0  0  0  0  0
    1.5690    5.7385   18.4419 N   0  0  0  0  0  0  0  0  0  0  0  0
    2.1726    4.5799   18.0470 C   0  0  0  0  0  0  0  0  0  0  0  0
    1.8742    3.4126   18.6386 N   0  0  0  0  0  0  0  0  0  0  0  0
    3.1654    4.6102   16.9681 N   0  0  0  0  0  0  0  0  0  0  0  0
    4.0347    7.3202   24.5521 C   0  0  0  0  0  0  0  0  0  0  0  0
    4.7921    6.7689   25.3486 O   0  0  0  0  0  0  0  0  0  0  0  0
    4.4319    8.5177   23.8606 N   0  0  0  0  0  0  0  0  0  0  0  0
  1  2  2  0  0  0  0
  1  6  1  0  0  0  0
  1  7  1  0  0  0  0
  2  3  1  0  0  0  0
  3  4  2  0  0  0  0
  4  5  1  0  0  0  0
  4 20  1  0  0  0  0
  5  6  2  0  0  0  0
  7  8  1  0  0  0  0
  8  9  1  0  0  0  0
  9 10  2  0  0  0  0
  9 13  1  0  0  0  0
 10 11  1  0  0  0  0
 11 12  1  0  0  0  0
 12 13  2  0  0  0  0
 12 18  1  0  0  0  0
 13 14  1  0  0  0  0
 14 15  1  0  0  0  0
 14 16  2  0  0  0  0
 16 17  1  0  0  0  0
 17 18  2  0  0  0  0
 17 19  1  0  0  0  0
 20 21  2  0  0  0  0
 20 22  1  0  0  0  0
M  END
>  <CHROM.1>
-79.99720408,-53.36368597,59.64165629,66.27590389,1.33273572,5.38460152,21.67715702
1.23439543,0.44661462,1.24619225

>  <Name>
ligand

>  <RI>
0

>  <Rbt.Current_Directory>
/home/itssahil/PROJECTS/Mol_Feturizer/New_Systems/rnas/4LVY

>  <Rbt.Executable>
rbdock ($Id: //depot/dev/client3/rdock/2013.1/src/exe/rbdock.cxx#4 $)

>  <Rbt.Library>
libRbt.so (2013.1, Build901 2013/11/27)

>  <Rbt.Parameter_File>
/export/apps/rDock/src/rDock_2013.1_src/data/scripts/dock_solv.prm

>  <Rbt.Receptor>
prm/pocket_docking_6.prm

>  <SCORE>
-18.1968

>  <SCORE.INTER>
-16.8935

>  <SCORE.INTER.CONST>
1

>  <SCORE.INTER.POLAR>
0

>  <SCORE.INTER.ROT>
4

>  <SCORE.INTER.SOLV>
5.42661

>  <SCORE.INTER.VDW>
-19.3379

>  <SCORE.INTER.norm>
-0.767889

>  <SCORE.INTRA>
-1.3032

>  <SCORE.INTRA.DIHEDRAL>
-0.0251973

>  <SCORE.INTRA.DIHEDRAL.0>
6.18831

>  <SCORE.INTRA.POLAR>
0

>  <SCORE.INTRA.POLAR.0>
0

>  <SCORE.INTRA.REPUL>
0

>  <SCORE.INTRA.REPUL.0>
0

>  <SCORE.INTRA.SOLV>
0.0627093

>  <SCORE.INTRA.SOLV.lig_0>
-44.3465

>  <SCORE.INTRA.VDW>
-1.32196

>  <SCORE.INTRA.VDW.0>
-0.778272

>  <SCORE.INTRA.norm>
-0.0592365

>  <SCORE.RESTR>
0

>  <SCORE.RESTR.CAVITY>
0

>  <SCORE.RESTR.norm>
0

>  <SCORE.SYSTEM>
0

>  <SCORE.SYSTEM.CONST>
0

>  <SCORE.SYSTEM.DIHEDRAL>
0

>  <SCORE.SYSTEM.SOLV>
0

>  <SCORE.SYSTEM.norm>
0

>  <SCORE.heavy>
22

>  <SCORE.norm>
-0.827125

>  <RMSD>
6.689

$$$$
ligand
 OpenBabel11021811503D
libRbt.so/2013.1/901 2013/11/27
 22 24  0  0  0  0  0  0  0  0999 V2000
    0.3380    5.9303   24.0135 C   0  0  0  0  0  0  0  0  0  0  0  0
    1.3338    4.9397   23.8805 C   0  0  0  0  0  0  0  0  0  0  0  0
    2.6705    5.2857   24.0591 C   0  0  0  0  0  0  0  0  0  0  0  0
    3.0060    6.6155   24.3679 C   0  0  0  0  0  0  0  0  0  0  0  0
    2.0079    7.6130   24.4923 C   0  0  0  0  0  0  0  0  0  0  0  0
    0.6757    7.2662   24.3132 C   0  0  0  0  0  0  0  0  0  0  0  0
   -1.1445    5.5676   23.8014 C   0  0  0  0  0  0  0  0  0  0  0  0
   -1.4755    4.9488   22.4203 C   0  0  0  0  0  0  0  0  0  0  0  0
   -0.7974    5.6545   21.2516 C   0  0  0  0  0  0  0  0  0  0  0  0
   -0.9209    7.0221   20.9883 C   0  0  0  0  0  0  0  0  0  0  0  0
   -0.1767    7.2786   19.8808 N   0  0  0  0  0  0  0  0  0  0  0  0
    0.4405    6.1455   19.3894 C   0  0  0  0  0  0  0  0  0  0  0  0
    0.0785    5.0946   20.2249 C   0  0  0  0  0  0  0  0  0  0  0  0
    0.6119    3.7871   19.9116 C   0  0  0  0  0  0  0  0  0  0  0  0
    0.2981    2.6907   20.7100 O   0  0  0  0  0  0  0  0  0  0  0  0
    1.4365    3.6415   18.8040 N   0  0  0  0  0  0  0  0  0  0  0  0
    1.7733    4.7045   18.0171 C   0  0  0  0  0  0  0  0  0  0  0  0
    1.2964    5.9318   18.2780 N   0  0  0  0  0  0  0  0  0  0  0  0
    2.6610    4.5036   16.8673 N   0  0  0  0  0  0  0  0  0  0  0  0
    4.4596    6.9630   24.5504 C   0  0  0  0  0  0  0  0  0  0  0  0
    5.1147    7.3972   23.6047 O   0  0  0  0  0  0  0  0  0  0  0  0
    5.0627    6.7716   25.8426 N   0  0  0  0  0  0  0  0  0  0  0  0
  1  2  2  0  0  0  0
  1  6  1  0  0  0  0
  1  7  1  0  0  0  0
  2  3  1  0  0  0  0
  3  4  2  0  0  0  0
  4  5  1  0  0  0  0
  4 20  1  0  0  0  0
  5  6  2  0  0  0  0
  7  8  1  0  0  0  0
  8  9  1  0  0  0  0
  9 10  2  0  0  0  0
  9 13  1  0  0  0  0
 10 11  1  0  0  0  0
 11 12  1  0  0  0  0
 12 13  2  0  0  0  0
 12 18  1  0  0  0  0
 13 14  1  0  0  0  0
 14 15  1  0  0  0  0
 14 16  2  0  0  0  0
 16 17  1  0  0  0  0
 17 18  2  0  0  0  0
 17 19  1  0  0  0  0
 20 21  2  0  0  0  0
 20 22  1  0  0  0  0
M  END
>  <CHROM.1>
-57.18350849,94.01706339,-43.48096726,-55.58828104,1.33508595,5.68770085
21.76628116,1.18082991,0.13938873,1.29547875

>  <Name>
ligand

>  <RI>
0

>  <Rbt.Current_Directory>
/home/itssahil/PROJECTS/Mol_Feturizer/New_Systems/rnas/4LVY

>  <Rbt.Executable>
rbdock ($Id: //depot/dev/client3/rdock/2013.1/src/exe/rbdock.cxx#4 $)

>  <Rbt.Library>
libRbt.so (2013.1, Build901 2013/11/27)

>  <Rbt.Parameter_File>
/export/apps/rDock/src/rDock_2013.1_src/data/scripts/dock_solv.prm

>  <Rbt.Receptor>
prm/pocket_docking_6.prm

>  <SCORE>
-16.022

>  <SCORE.INTER>
-15.3731

>  <SCORE.INTER.CONST>
1

>  <SCORE.INTER.POLAR>
0

>  <SCORE.INTER.ROT>
4

>  <SCORE.INTER.SOLV>
6.37135

>  <SCORE.INTER.VDW>
-18.6392

>  <SCORE.INTER.norm>
-0.698778

>  <SCORE.INTRA>
-0.648883

>  <SCORE.INTRA.DIHEDRAL>
1.13982

>  <SCORE.INTRA.DIHEDRAL.0>
6.18831

>  <SCORE.INTRA.POLAR>
0

>  <SCORE.INTRA.POLAR.0>
0

>  <SCORE.INTRA.REPUL>
0

>  <SCORE.INTRA.REPUL.0>
0

>  <SCORE.INTRA.SOLV>
0.024084

>  <SCORE.INTRA.SOLV.lig_0>
-44.3465

>  <SCORE.INTRA.VDW>
-1.23083

>  <SCORE.INTRA.VDW.0>
-0.778272

>  <SCORE.INTRA.norm>
-0.0294947

>  <SCORE.RESTR>
0

>  <SCORE.RESTR.CAVITY>
0

>  <SCORE.RESTR.norm>
0

>  <SCORE.SYSTEM>
0

>  <SCORE.SYSTEM.CONST>
0

>  <SCORE.SYSTEM.DIHEDRAL>
0

>  <SCORE.SYSTEM.SOLV>
0

>  <SCORE.SYSTEM.norm>
0

>  <SCORE.heavy>
22

>  <SCORE.norm>
-0.728273

>  <RMSD>
6.690

$$$$
ligand
 OpenBabel11021811503D
libRbt.so/2013.1/901 2013/11/27
 22 24  0  0  0  0  0  0  0  0999 V2000
    0.1800    5.6984   23.7755 C   0  0  0  0  0  0  0  0  0  0  0  0
    0.3142    7.0479   24.1647 C   0  0  0  0  0  0  0  0  0  0  0  0
    1.5814    7.5605   24.4290 C   0  0  0  0  0  0  0  0  0  0  0  0
    2.7055    6.7256   24.3046 C   0  0  0  0  0  0  0  0  0  0  0  0
    2.5713    5.3679   23.9231 C   0  0  0  0  0  0  0  0  0  0  0  0
    1.3069    4.8585   23.6608 C   0  0  0  0  0  0  0  0  0  0  0  0
   -1.2169    5.1108   23.4969 C   0  0  0  0  0  0  0  0  0  0  0  0
   -1.5964    5.0080   21.9985 C   0  0  0  0  0  0  0  0  0  0  0  0
   -0.6496    4.1353   21.1827 C   0  0  0  0  0  0  0  0  0  0  0  0
   -0.5130    2.7551   21.3598 C   0  0  0  0  0  0  0  0  0  0  0  0
    0.4090    2.3314   20.4563 N   0  0  0  0  0  0  0  0  0  0  0  0
    0.8971    3.3643   19.6810 C   0  0  0  0  0  0  0  0  0  0  0  0
    0.2553    4.5234   20.1031 C   0  0  0  0  0  0  0  0  0  0  0  0
    0.6026    5.7546   19.4280 C   0  0  0  0  0  0  0  0  0  0  0  0
   -0.0068    6.9519   19.7930 O   0  0  0  0  0  0  0  0  0  0  0  0
    1.5525    5.7253   18.4157 N   0  0  0  0  0  0  0  0  0  0  0  0
    2.1499    4.5613   18.0276 C   0  0  0  0  0  0  0  0  0  0  0  0
    1.8521    3.4005   18.6322 N   0  0  0  0  0  0  0  0  0  0  0  0
    3.1355    4.5785   16.9418 N   0  0  0  0  0  0  0  0  0  0  0  0
    4.0634    7.3045   24.6016 C   0  0  0  0  0  0  0  0  0  0  0  0
    4.8134    6.7439   25.3986 O   0  0  0  0  0  0  0  0  0  0  0  0
    4.4590    8.5212   23.9434 N   0  0  0  0  0  0  0  0  0  0  0  0
  1  2  2  0  0  0  0
  1  6  1  0  0  0  0
  1  7  1  0  0  0  0
  2  3  1  0  0  0  0
  3  4  2  0  0  0  0
  4  5  1  0  0  0  0
  4 20  1  0  0  0  0
  5  6  2  0  0  0  0
  7  8  1  0  0  0  0
  8  9  1  0  0  0  0
  9 10  2  0  0  0  0
  9 13  1  0  0  0  0
 10 11  1  0  0  0  0
 11 12  1  0  0  0  0
 12 13  2  0  0  0  0
 12 18  1  0  0  0  0
 13 14  1  0  0  0  0
 14 15  1  0  0  0  0
 14 16  2  0  0  0  0
 16 17  1  0  0  0  0
 17 18  2  0  0  0  0
 17 19  1  0  0  0  0
 20 21  2  0  0  0  0
 20 22  1  0  0  0  0
M  END
>  <CHROM.1>
100.43597204,127.42337928,59.70117383,66.22615626,1.33803739,5.38615758,21.68256298
1.22967387,0.43670764,1.25043042

>  <Name>
ligand

>  <RI>
0

>  <Rbt.Current_Directory>
/home/itssahil/PROJECTS/Mol_Feturizer/New_Systems/rnas/4LVY

>  <Rbt.Executable>
rbdock ($Id: //depot/dev/client3/rdock/2013.1/src/exe/rbdock.cxx#4 $)

>  <Rbt.Library>
libRbt.so (2013.1, Build901 2013/11/27)

>  <Rbt.Parameter_File>
/export/apps/rDock/src/rDock_2013.1_src/data/scripts/dock_solv.prm

>  <Rbt.Receptor>
prm/pocket_docking_6.prm

>  <SCORE>
-18.1914

>  <SCORE.INTER>
-16.95

>  <SCORE.INTER.CONST>
1

>  <SCORE.INTER.POLAR>
0

>  <SCORE.INTER.ROT>
4

>  <SCORE.INTER.SOLV>
5.45737

>  <SCORE.INTER.VDW>
-19.3858

>  <SCORE.INTER.norm>
-0.770456

>  <SCORE.INTRA>
-1.24138

>  <SCORE.INTRA.DIHEDRAL>
0.0875007

>  <SCORE.INTRA.DIHEDRAL.0>
6.18831

>  <SCORE.INTRA.POLAR>
0

>  <SCORE.INTRA.POLAR.0>
0

>  <SCORE.INTRA.REPUL>
0

>  <SCORE.INTRA.REPUL.0>
0

>  <SCORE.INTRA.SOLV>
0.0634599

>  <SCORE.INTRA.SOLV.lig_0>
-44.3465

>  <SCORE.INTRA.VDW>
-1.31686

>  <SCORE.INTRA.VDW.0>
-0.778272

>  <SCORE.INTRA.norm>
-0.0564264

>  <SCORE.RESTR>
0

>  <SCORE.RESTR.CAVITY>
0

>  <SCORE.RESTR.norm>
0

>  <SCORE.SYSTEM>
0

>  <SCORE.SYSTEM.CONST>
0

>  <SCORE.SYSTEM.DIHEDRAL>
0

>  <SCORE.SYSTEM.SOLV>
0

>  <SCORE.SYSTEM.norm>
0

>  <SCORE.heavy>
22

>  <SCORE.norm>
-0.826882

>  <RMSD>
6.691

$$$$
ligand
 OpenBabel11021811503D
libRbt.so/2013.1/901 2013/11/27
 22 24  0  0  0  0  0  0  0  0999 V2000
    0.1782    5.7003   23.8255 C   0  0  0  0  0  0  0  0  0  0  0  0
    1.3096    4.8654   23.7093 C   0  0  0  0  0  0  0  0  0  0  0  0
    2.5754    5.3914   23.9533 C   0  0  0  0  0  0  0  0  0  0  0  0
    2.7055    6.7449   24.3102 C   0  0  0  0  0  0  0  0  0  0  0  0
    1.5711    7.5866   24.4180 C   0  0  0  0  0  0  0  0  0  0  0  0
    0.3099    7.0604   24.1736 C   0  0  0  0  0  0  0  0  0  0  0  0
   -1.2280    5.1382   23.5414 C   0  0  0  0  0  0  0  0  0  0  0  0
   -1.6066    5.0497   22.0418 C   0  0  0  0  0  0  0  0  0  0  0  0
   -0.6768    4.1606   21.2241 C   0  0  0  0  0  0  0  0  0  0  0  0
   -0.5655    2.7780   21.3996 C   0  0  0  0  0  0  0  0  0  0  0  0
    0.3477    2.3384   20.4948 N   0  0  0  0  0  0  0  0  0  0  0  0
    0.8540    3.3629   19.7201 C   0  0  0  0  0  0  0  0  0  0  0  0
    0.2341    4.5332   20.1441 C   0  0  0  0  0  0  0  0  0  0  0  0
    0.6033    5.7586   19.4700 C   0  0  0  0  0  0  0  0  0  0  0  0
    0.0164    6.9665   19.8368 O   0  0  0  0  0  0  0  0  0  0  0  0
    1.5515    5.7129   18.4567 N   0  0  0  0  0  0  0  0  0  0  0  0
    2.1271    4.5385   18.0667 C   0  0  0  0  0  0  0  0  0  0  0  0
    1.8086    3.3827   18.6704 N   0  0  0  0  0  0  0  0  0  0  0  0
    3.1118    4.5387   16.9801 N   0  0  0  0  0  0  0  0  0  0  0  0
    4.0865    7.2889   24.5632 C   0  0  0  0  0  0  0  0  0  0  0  0
    4.4237    8.3681   24.0799 O   0  0  0  0  0  0  0  0  0  0  0  0
    4.9981    6.5222   25.3703 N   0  0  0  0  0  0  0  0  0  0  0  0
  1  2  2  0  0  0  0
  1  6  1  0  0  0  0
  1  7  1  0  0  0  0
  2  3  1  0  0  0  0
  3  4  2  0  0  0  0
  4  5  1  0  0  0  0
  4 20  1  0  0  0  0
  5  6  2  0  0  0  0
  7  8  1  0  0  0  0
  8  9  1  0  0  0  0
  9 10  2  0  0  0  0
  9 13  1  0  0  0  0
 10 11  1  0  0  0  0
 11 12  1  0  0  0  0
 12 13  2  0  0  0  0
 12 18  1  0  0  0  0
 13 14  1  0  0  0  0
 14 15  1  0  0  0  0
 14 16  2  0  0  0  0
 16 17  1  0  0  0  0
 17 18  2  0  0  0  0
 17 19  1  0  0  0  0
 20 21  2  0  0  0  0
 20 22  1  0  0  0  0
M  END
>  <CHROM.1>
-80.53156128,134.34850196,59.93942240,65.93279918,1.33013542,5.38494925,21.70716733
1.22246558,0.41779273,1.24413355

>  <Name>
ligand

>  <RI>
0

>  <Rbt.Current_Directory>
/home/itssahil/PROJECTS/Mol_Feturizer/New_Systems/rnas/4LVY

>  <Rbt.Executable>
rbdock ($Id: //depot/dev/client3/rdock/2013.1/src/exe/rbdock.cxx#4 $)

>  <Rbt.Library>
libRbt.so (2013.1, Build901 2013/11/27)

>  <Rbt.Parameter_File>
/export/apps/rDock/src/rDock_2013.1_src/data/scripts/dock_solv.prm

>  <Rbt.Receptor>
prm/pocket_docking_6.prm

>  <SCORE>
-18.2447

>  <SCORE.INTER>
-16.9624

>  <SCORE.INTER.CONST>
1

>  <SCORE.INTER.POLAR>
0

>  <SCORE.INTER.ROT>
4

>  <SCORE.INTER.SOLV>
5.40245

>  <SCORE.INTER.VDW>
-19.3758

>  <SCORE.INTER.norm>
-0.771019

>  <SCORE.INTRA>
-1.28229

>  <SCORE.INTRA.DIHEDRAL>
-0.0562407

>  <SCORE.INTRA.DIHEDRAL.0>
6.18831

>  <SCORE.INTRA.POLAR>
0

>  <SCORE.INTRA.POLAR.0>
0

>  <SCORE.INTRA.REPUL>
0

>  <SCORE.INTRA.REPUL.0>
0

>  <SCORE.INTRA.SOLV>
0.0646085

>  <SCORE.INTRA.SOLV.lig_0>
-44.3465

>  <SCORE.INTRA.VDW>
-1.28648

>  <SCORE.INTRA.VDW.0>
-0.778272

>  <SCORE.INTRA.norm>
-0.0582861

>  <SCORE.RESTR>
0

>  <SCORE.RESTR.CAVITY>
0

>  <SCORE.RESTR.norm>
0

>  <SCORE.SYSTEM>
0

>  <SCORE.SYSTEM.CONST>
0

>  <SCORE.SYSTEM.DIHEDRAL>
0

>  <SCORE.SYSTEM.SOLV>
0

>  <SCORE.SYSTEM.norm>
0

>  <SCORE.heavy>
22

>  <SCORE.norm>
-0.829305

>  <RMSD>
6.696

$$$$
ligand
 OpenBabel11021811503D
libRbt.so/2013.1/901 2013/11/27
 22 24  0  0  0  0  0  0  0  0999 V2000
    0.1833    5.6685   23.7944 C   0  0  0  0  0  0  0  0  0  0  0  0
    1.3219    4.8452   23.6668 C   0  0  0  0  0  0  0  0  0  0  0  0
    2.5829    5.3783   23.9200 C   0  0  0  0  0  0  0  0  0  0  0  0
    2.7011    6.7272   24.2975 C   0  0  0  0  0  0  0  0  0  0  0  0
    1.5594    7.5575   24.4168 C   0  0  0  0  0  0  0  0  0  0  0  0
    0.3030    7.0243   24.1632 C   0  0  0  0  0  0  0  0  0  0  0  0
   -1.2178    5.0987   23.5005 C   0  0  0  0  0  0  0  0  0  0  0  0
   -1.5849    5.0073   21.9982 C   0  0  0  0  0  0  0  0  0  0  0  0
   -0.6370    4.1331   21.1854 C   0  0  0  0  0  0  0  0  0  0  0  0
   -0.5071    2.7519   21.3594 C   0  0  0  0  0  0  0  0  0  0  0  0
    0.4184    2.3270   20.4601 N   0  0  0  0  0  0  0  0  0  0  0  0
    0.9152    3.3600   19.6906 C   0  0  0  0  0  0  0  0  0  0  0  0
    0.2757    4.5205   20.1122 C   0  0  0  0  0  0  0  0  0  0  0  0
    0.6319    5.7522   19.4427 C   0  0  0  0  0  0  0  0  0  0  0  0
    0.0252    6.9510   19.8075 O   0  0  0  0  0  0  0  0  0  0  0  0
    1.5874    5.7218   18.4357 N   0  0  0  0  0  0  0  0  0  0  0  0
    2.1824    4.5565   18.0477 C   0  0  0  0  0  0  0  0  0  0  0  0
    1.8764    3.3952   18.6473 N   0  0  0  0  0  0  0  0  0  0  0  0
    3.1743    4.5727   16.9678 N   0  0  0  0  0  0  0  0  0  0  0  0
    4.0772    7.2792   24.5601 C   0  0  0  0  0  0  0  0  0  0  0  0
    4.6362    7.9740   23.7135 O   0  0  0  0  0  0  0  0  0  0  0  0
    4.7216    6.9733   25.8095 N   0  0  0  0  0  0  0  0  0  0  0  0
  1  2  2  0  0  0  0
  1  6  1  0  0  0  0
  1  7  1  0  0  0  0
  2  3  1  0  0  0  0
  3  4  2  0  0  0  0
  4  5  1  0  0  0  0
  4 20  1  0  0  0  0
  5  6  2  0  0  0  0
  7  8  1  0  0  0  0
  8  9  1  0  0  0  0
  9 10  2  0  0  0  0
  9 13  1  0  0  0  0
 10 11  1  0  0  0  0
 11 12  1  0  0  0  0
 12 13  2  0  0  0  0
 12 18  1  0  0  0  0
 13 14  1  0  0  0  0
 14 15  1  0  0  0  0
 14 16  2  0  0  0  0
 16 17  1  0  0  0  0
 17 18  2  0  0  0  0
 17 19  1  0  0  0  0
 20 21  2  0  0  0  0
 20 22  1  0  0  0  0
M  END
>  <CHROM.1>
-79.54469774,101.88594659,59.40769812,65.93588767,1.35377953,5.37323881,21.68447463
1.23710927,0.42670771,1.25178028

>  <Name>
ligand

>  <RI>
0

>  <Rbt.Current_Directory>
/home/itssahil/PROJECTS/Mol_Feturizer/New_Systems/rnas/4LVY

>  <Rbt.Executable>
rbdock ($Id: //depot/dev/client3/rdock/2013.1/src/exe/rbdock.cxx#4 $)

>  <Rbt.Library>
libRbt.so (2013.1, Build901 2013/11/27)

>  <Rbt.Parameter_File>
/export/apps/rDock/src/rDock_2013.1_src/data/scripts/dock_solv.prm

>  <Rbt.Receptor>
prm/pocket_docking_6.prm

>  <SCORE>
-18.3255

>  <SCORE.INTER>
-16.9618

>  <SCORE.INTER.CONST>
1

>  <SCORE.INTER.POLAR>
0

>  <SCORE.INTER.ROT>
4

>  <SCORE.INTER.SOLV>
5.33174

>  <SCORE.INTER.VDW>
-19.3518

>  <SCORE.INTER.norm>
-0.770993

>  <SCORE.INTRA>
-1.36365

>  <SCORE.INTRA.DIHEDRAL>
-0.0116132

>  <SCORE.INTRA.DIHEDRAL.0>
6.18831

>  <SCORE.INTRA.POLAR>
0

>  <SCORE.INTRA.POLAR.0>
0

>  <SCORE.INTRA.REPUL>
0

>  <SCORE.INTRA.REPUL.0>
0

>  <SCORE.INTRA.SOLV>
0.055955

>  <SCORE.INTRA.SOLV.lig_0>
-44.3465

>  <SCORE.INTRA.VDW>
-1.38582

>  <SCORE.INTRA.VDW.0>
-0.778272

>  <SCORE.INTRA.norm>
-0.0619842

>  <SCORE.RESTR>
0

>  <SCORE.RESTR.CAVITY>
0

>  <SCORE.RESTR.norm>
0

>  <SCORE.SYSTEM>
0

>  <SCORE.SYSTEM.CONST>
0

>  <SCORE.SYSTEM.DIHEDRAL>
0

>  <SCORE.SYSTEM.SOLV>
0

>  <SCORE.SYSTEM.norm>
0

>  <SCORE.heavy>
22

>  <SCORE.norm>
-0.832977

>  <RMSD>
6.698

$$$$
ligand
 OpenBabel11021811503D
libRbt.so/2013.1/901 2013/11/27
 22 24  0  0  0  0  0  0  0  0999 V2000
    0.3240    5.9576   24.0726 C   0  0  0  0  0  0  0  0  0  0  0  0
    1.3524    5.0006   23.9414 C   0  0  0  0  0  0  0  0  0  0  0  0
    2.6785    5.3973   24.0914 C   0  0  0  0  0  0  0  0  0  0  0  0
    2.9710    6.7438   24.3700 C   0  0  0  0  0  0  0  0  0  0  0  0
    1.9398    7.7074   24.4926 C   0  0  0  0  0  0  0  0  0  0  0  0
    0.6183    7.3101   24.3420 C   0  0  0  0  0  0  0  0  0  0  0  0
   -1.1477    5.5385   23.8917 C   0  0  0  0  0  0  0  0  0  0  0  0
   -1.4892    4.9291   22.5090 C   0  0  0  0  0  0  0  0  0  0  0  0
   -0.8052    5.6311   21.3416 C   0  0  0  0  0  0  0  0  0  0  0  0
   -0.9140    7.0008   21.0828 C   0  0  0  0  0  0  0  0  0  0  0  0
   -0.1687    7.2527   19.9751 N   0  0  0  0  0  0  0  0  0  0  0  0
    0.4352    6.1146   19.4790 C   0  0  0  0  0  0  0  0  0  0  0  0
    0.0630    5.0650   20.3117 C   0  0  0  0  0  0  0  0  0  0  0  0
    0.5814    3.7527   19.9933 C   0  0  0  0  0  0  0  0  0  0  0  0
    0.2568    2.6572   20.7887 O   0  0  0  0  0  0  0  0  0  0  0  0
    1.4027    3.6017   18.8840 N   0  0  0  0  0  0  0  0  0  0  0  0
    1.7500    4.6634   18.1000 C   0  0  0  0  0  0  0  0  0  0  0  0
    1.2871    5.8950   18.3656 N   0  0  0  0  0  0  0  0  0  0  0  0
    2.6337    4.4565   16.9482 N   0  0  0  0  0  0  0  0  0  0  0  0
    4.4139    7.1462   24.5221 C   0  0  0  0  0  0  0  0  0  0  0  0
    4.8492    7.4823   25.6220 O   0  0  0  0  0  0  0  0  0  0  0  0
    5.2641    7.1358   23.3614 N   0  0  0  0  0  0  0  0  0  0  0  0
  1  2  2  0  0  0  0
  1  6  1  0  0  0  0
  1  7  1  0  0  0  0
  2  3  1  0  0  0  0
  3  4  2  0  0  0  0
  4  5  1  0  0  0  0
  4 20  1  0  0  0  0
  5  6  2  0  0  0  0
  7  8  1  0  0  0  0
  8  9  1  0  0  0  0
  9 10  2  0  0  0  0
  9 13  1  0  0  0  0
 10 11  1  0  0  0  0
 11 12  1  0  0  0  0
 12 13  2  0  0  0  0
 12 18  1  0  0  0  0
 13 14  1  0  0  0  0
 14 15  1  0  0  0  0
 14 16  2  0  0  0  0
 16 17  1  0  0  0  0
 17 18  2  0  0  0  0
 17 19  1  0  0  0  0
 20 21  2  0  0  0  0
 20 22  1  0  0  0  0
M  END
>  <CHROM.1>
-59.29988570,-111.09743705,-40.10276791,-55.67523604,1.31260930,5.71837842
21.81612409,1.18745500,0.18295922,1.26413243

>  <Name>
ligand

>  <RI>
0

>  <Rbt.Current_Directory>
/home/itssahil/PROJECTS/Mol_Feturizer/New_Systems/rnas/4LVY

>  <Rbt.Executable>
rbdock ($Id: //depot/dev/client3/rdock/2013.1/src/exe/rbdock.cxx#4 $)

>  <Rbt.Library>
libRbt.so (2013.1, Build901 2013/11/27)

>  <Rbt.Parameter_File>
/export/apps/rDock/src/rDock_2013.1_src/data/scripts/dock_solv.prm

>  <Rbt.Receptor>
prm/pocket_docking_5.prm

>  <SCORE>
-15.9017

>  <SCORE.INTER>
-15.4344

>  <SCORE.INTER.CONST>
1

>  <SCORE.INTER.POLAR>
0

>  <SCORE.INTER.ROT>
4

>  <SCORE.INTER.SOLV>
6.65911

>  <SCORE.INTER.VDW>
-18.7759

>  <SCORE.INTER.norm>
-0.701561

>  <SCORE.INTRA>
-0.473475

>  <SCORE.INTRA.DIHEDRAL>
1.53229

>  <SCORE.INTRA.DIHEDRAL.0>
6.18831

>  <SCORE.INTRA.POLAR>
0

>  <SCORE.INTRA.POLAR.0>
0

>  <SCORE.INTRA.REPUL>
0

>  <SCORE.INTRA.REPUL.0>
0

>  <SCORE.INTRA.SOLV>
0.0282322

>  <SCORE.INTRA.SOLV.lig_0>
-44.3465

>  <SCORE.INTRA.VDW>
-1.25373

>  <SCORE.INTRA.VDW.0>
-0.778272

>  <SCORE.INTRA.norm>
-0.0215216

>  <SCORE.RESTR>
0.00616047

>  <SCORE.RESTR.CAVITY>
0.00616047

>  <SCORE.RESTR.norm>
0.000280021

>  <SCORE.SYSTEM>
0

>  <SCORE.SYSTEM.CONST>
0

>  <SCORE.SYSTEM.DIHEDRAL>
0

>  <SCORE.SYSTEM.SOLV>
0

>  <SCORE.SYSTEM.norm>
0

>  <SCORE.heavy>
22

>  <SCORE.norm>
-0.722803

>  <RMSD>
6.699

$$$$
ligand
 OpenBabel11021811503D
libRbt.so/2013.1/901 2013/11/27
 22 24  0  0  0  0  0  0  0  0999 V2000
    0.3014    5.8740   23.9735 C   0  0  0  0  0  0  0  0  0  0  0  0
    1.3364    4.9223   23.8558 C   0  0  0  0  0  0  0  0  0  0  0  0
    2.6579    5.3244   24.0298 C   0  0  0  0  0  0  0  0  0  0  0  0
    2.9394    6.6711   24.3187 C   0  0  0  0  0  0  0  0  0  0  0  0
    1.9019    7.6295   24.4278 C   0  0  0  0  0  0  0  0  0  0  0  0
    0.5848    7.2268   24.2533 C   0  0  0  0  0  0  0  0  0  0  0  0
   -1.1650    5.4489   23.7662 C   0  0  0  0  0  0  0  0  0  0  0  0
   -1.4938    4.8996   22.3555 C   0  0  0  0  0  0  0  0  0  0  0  0
   -0.7986    5.6505   21.2256 C   0  0  0  0  0  0  0  0  0  0  0  0
   -0.9010    7.0307   21.0274 C   0  0  0  0  0  0  0  0  0  0  0  0
   -0.1465    7.3291   19.9376 N   0  0  0  0  0  0  0  0  0  0  0  0
    0.4575    6.2120   19.3958 C   0  0  0  0  0  0  0  0  0  0  0  0
    0.0755    5.1277   20.1781 C   0  0  0  0  0  0  0  0  0  0  0  0
    0.5922    3.8291   19.8054 C   0  0  0  0  0  0  0  0  0  0  0  0
    0.2580    2.7004   20.5487 O   0  0  0  0  0  0  0  0  0  0  0  0
    1.4214    3.7247   18.6966 N   0  0  0  0  0  0  0  0  0  0  0  0
    1.7781    4.8191   17.9634 C   0  0  0  0  0  0  0  0  0  0  0  0
    1.3171    6.0393   18.2801 N   0  0  0  0  0  0  0  0  0  0  0  0
    2.6699    4.6605   16.8100 N   0  0  0  0  0  0  0  0  0  0  0  0
    4.3777    7.0795   24.4967 C   0  0  0  0  0  0  0  0  0  0  0  0
    4.9789    6.7905   25.5297 O   0  0  0  0  0  0  0  0  0  0  0  0
    5.0264    7.8149   23.4440 N   0  0  0  0  0  0  0  0  0  0  0  0
  1  2  2  0  0  0  0
  1  6  1  0  0  0  0
  1  7  1  0  0  0  0
  2  3  1  0  0  0  0
  3  4  2  0  0  0  0
  4  5  1  0  0  0  0
  4 20  1  0  0  0  0
  5  6  2  0  0  0  0
  7  8  1  0  0  0  0
  8  9  1  0  0  0  0
  9 10  2  0  0  0  0
  9 13  1  0  0  0  0
 10 11  1  0  0  0  0
 11 12  1  0  0  0  0
 12 13  2  0  0  0  0
 12 18  1  0  0  0  0
 13 14  1  0  0  0  0
 14 15  1  0  0  0  0
 14 16  2  0  0  0  0
 16 17  1  0  0  0  0
 17 18  2  0  0  0  0
 17 19  1  0  0  0  0
 20 21  2  0  0  0  0
 20 22  1  0  0  0  0
M  END
>  <CHROM.1>
-61.78318579,-75.26248034,-39.43070580,-55.45615020,1.30805679,5.73237857
21.71606926,1.18835298,0.20812129,1.31449365

>  <Name>
ligand

>  <RI>
0

>  <Rbt.Current_Directory>
/home/itssahil/PROJECTS/Mol_Feturizer/New_Systems/rnas/4LVY

>  <Rbt.Executable>
rbdock ($Id: //depot/dev/client3/rdock/2013.1/src/exe/rbdock.cxx#4 $)

>  <Rbt.Library>
libRbt.so (2013.1, Build901 2013/11/27)

>  <Rbt.Parameter_File>
/export/apps/rDock/src/rDock_2013.1_src/data/scripts/dock_solv.prm

>  <Rbt.Receptor>
prm/pocket_docking_6.prm

>  <SCORE>
-15.9213

>  <SCORE.INTER>
-15.4694

>  <SCORE.INTER.CONST>
1

>  <SCORE.INTER.POLAR>
0

>  <SCORE.INTER.ROT>
4

>  <SCORE.INTER.SOLV>
6.27068

>  <SCORE.INTER.VDW>
-18.6698

>  <SCORE.INTER.norm>
-0.703153

>  <SCORE.INTRA>
-0.451905

>  <SCORE.INTRA.DIHEDRAL>
1.61005

>  <SCORE.INTRA.DIHEDRAL.0>
6.18831

>  <SCORE.INTRA.POLAR>
0

>  <SCORE.INTRA.POLAR.0>
0

>  <SCORE.INTRA.REPUL>
0

>  <SCORE.INTRA.REPUL.0>
0

>  <SCORE.INTRA.SOLV>
0.0257498

>  <SCORE.INTRA.SOLV.lig_0>
-44.3465

>  <SCORE.INTRA.VDW>
-1.2698

>  <SCORE.INTRA.VDW.0>
-0.778272

>  <SCORE.INTRA.norm>
-0.0205411

>  <SCORE.RESTR>
0

>  <SCORE.RESTR.CAVITY>
0

>  <SCORE.RESTR.norm>
0

>  <SCORE.SYSTEM>
0

>  <SCORE.SYSTEM.CONST>
0

>  <SCORE.SYSTEM.DIHEDRAL>
0

>  <SCORE.SYSTEM.SOLV>
0

>  <SCORE.SYSTEM.norm>
0

>  <SCORE.heavy>
22

>  <SCORE.norm>
-0.723694

>  <RMSD>
6.699

$$$$
ligand
 OpenBabel11021811503D
libRbt.so/2013.1/901 2013/11/27
 22 24  0  0  0  0  0  0  0  0999 V2000
    0.1767    5.6533   23.7779 C   0  0  0  0  0  0  0  0  0  0  0  0
    0.2809    7.0064   24.1636 C   0  0  0  0  0  0  0  0  0  0  0  0
    1.5355    7.5453   24.4354 C   0  0  0  0  0  0  0  0  0  0  0  0
    2.6771    6.7328   24.3219 C   0  0  0  0  0  0  0  0  0  0  0  0
    2.5731    5.3715   23.9439 C   0  0  0  0  0  0  0  0  0  0  0  0
    1.3211    4.8359   23.6741 C   0  0  0  0  0  0  0  0  0  0  0  0
   -1.2060    5.0369   23.4911 C   0  0  0  0  0  0  0  0  0  0  0  0
   -1.5930    4.9668   21.9927 C   0  0  0  0  0  0  0  0  0  0  0  0
   -0.6349    4.1345   21.1483 C   0  0  0  0  0  0  0  0  0  0  0  0
   -0.4791    2.7513   21.2801 C   0  0  0  0  0  0  0  0  0  0  0  0
    0.4479    2.3702   20.3627 N   0  0  0  0  0  0  0  0  0  0  0  0
    0.9209    3.4346   19.6214 C   0  0  0  0  0  0  0  0  0  0  0  0
    0.2634    4.5702   20.0816 C   0  0  0  0  0  0  0  0  0  0  0  0
    0.5930    5.8276   19.4470 C   0  0  0  0  0  0  0  0  0  0  0  0
   -0.0326    7.0037   19.8512 O   0  0  0  0  0  0  0  0  0  0  0  0
    1.5422    5.8446   18.4337 N   0  0  0  0  0  0  0  0  0  0  0  0
    2.1554    4.7023   18.0074 C   0  0  0  0  0  0  0  0  0  0  0  0
    1.8743    3.5183   18.5738 N   0  0  0  0  0  0  0  0  0  0  0  0
    3.1396    4.7687   16.9223 N   0  0  0  0  0  0  0  0  0  0  0  0
    4.0209    7.3398   24.6269 C   0  0  0  0  0  0  0  0  0  0  0  0
    4.7539    6.8264   25.4701 O   0  0  0  0  0  0  0  0  0  0  0  0
    4.4230    8.5275   23.9212 N   0  0  0  0  0  0  0  0  0  0  0  0
  1  2  2  0  0  0  0
  1  6  1  0  0  0  0
  1  7  1  0  0  0  0
  2  3  1  0  0  0  0
  3  4  2  0  0  0  0
  4  5  1  0  0  0  0
  4 20  1  0  0  0  0
  5  6  2  0  0  0  0
  7  8  1  0  0  0  0
  8  9  1  0  0  0  0
  9 10  2  0  0  0  0
  9 13  1  0  0  0  0
 10 11  1  0  0  0  0
 11 12  1  0  0  0  0
 12 13  2  0  0  0  0
 12 18  1  0  0  0  0
 13 14  1  0  0  0  0
 14 15  1  0  0  0  0
 14 16  2  0  0  0  0
 16 17  1  0  0  0  0
 17 18  2  0  0  0  0
 17 19  1  0  0  0  0
 20 21  2  0  0  0  0
 20 22  1  0  0  0  0
M  END
>  <CHROM.1>
98.41051694,124.53270351,60.14576397,66.77425543,1.33231201,5.42155432,21.67594790
1.23141204,0.46522421,1.27288693

>  <Name>
ligand

>  <RI>
0

>  <Rbt.Current_Directory>
/home/itssahil/PROJECTS/Mol_Feturizer/New_Systems/rnas/4LVY

>  <Rbt.Executable>
rbdock ($Id: //depot/dev/client3/rdock/2013.1/src/exe/rbdock.cxx#4 $)

>  <Rbt.Library>
libRbt.so (2013.1, Build901 2013/11/27)

>  <Rbt.Parameter_File>
/export/apps/rDock/src/rDock_2013.1_src/data/scripts/dock_solv.prm

>  <Rbt.Receptor>
prm/pocket_docking_6.prm

>  <SCORE>
-18.1941

>  <SCORE.INTER>
-16.9401

>  <SCORE.INTER.CONST>
1

>  <SCORE.INTER.POLAR>
0

>  <SCORE.INTER.ROT>
4

>  <SCORE.INTER.SOLV>
5.47933

>  <SCORE.INTER.VDW>
-19.3865

>  <SCORE.INTER.norm>
-0.770007

>  <SCORE.INTRA>
-1.25394

>  <SCORE.INTRA.DIHEDRAL>
0.0954425

>  <SCORE.INTRA.DIHEDRAL.0>
6.18831

>  <SCORE.INTRA.POLAR>
0

>  <SCORE.INTRA.POLAR.0>
0

>  <SCORE.INTRA.REPUL>
0

>  <SCORE.INTRA.REPUL.0>
0

>  <SCORE.INTRA.SOLV>
0.0644658

>  <SCORE.INTRA.SOLV.lig_0>
-44.3465

>  <SCORE.INTRA.VDW>
-1.3339

>  <SCORE.INTRA.VDW.0>
-0.778272

>  <SCORE.INTRA.norm>
-0.0569974

>  <SCORE.RESTR>
0

>  <SCORE.RESTR.CAVITY>
0

>  <SCORE.RESTR.norm>
0

>  <SCORE.SYSTEM>
0

>  <SCORE.SYSTEM.CONST>
0

>  <SCORE.SYSTEM.DIHEDRAL>
0

>  <SCORE.SYSTEM.SOLV>
0

>  <SCORE.SYSTEM.norm>
0

>  <SCORE.heavy>
22

>  <SCORE.norm>
-0.827004

>  <RMSD>
6.702

$$$$
ligand
 OpenBabel11021811503D
libRbt.so/2013.1/901 2013/11/27
 22 24  0  0  0  0  0  0  0  0999 V2000
    0.2980    5.9055   23.9876 C   0  0  0  0  0  0  0  0  0  0  0  0
    0.6225    7.2455   24.2871 C   0  0  0  0  0  0  0  0  0  0  0  0
    1.9557    7.6011   24.4724 C   0  0  0  0  0  0  0  0  0  0  0  0
    2.9560    6.6198   24.3590 C   0  0  0  0  0  0  0  0  0  0  0  0
    2.6308    5.2722   24.0676 C   0  0  0  0  0  0  0  0  0  0  0  0
    1.3008    4.9194   23.8839 C   0  0  0  0  0  0  0  0  0  0  0  0
   -1.1741    5.4919   23.7973 C   0  0  0  0  0  0  0  0  0  0  0  0
   -1.5177    4.9212   22.3987 C   0  0  0  0  0  0  0  0  0  0  0  0
   -0.8234    5.6454   21.2512 C   0  0  0  0  0  0  0  0  0  0  0  0
   -0.9395    7.0178   21.0107 C   0  0  0  0  0  0  0  0  0  0  0  0
   -0.1811    7.2916   19.9172 N   0  0  0  0  0  0  0  0  0  0  0  0
    0.4387    6.1656   19.4132 C   0  0  0  0  0  0  0  0  0  0  0  0
    0.0635    5.1011   20.2254 C   0  0  0  0  0  0  0  0  0  0  0  0
    0.5968    3.7977   19.8954 C   0  0  0  0  0  0  0  0  0  0  0  0
    0.2700    2.6882   20.6703 O   0  0  0  0  0  0  0  0  0  0  0  0
    1.4345    3.6692   18.7955 N   0  0  0  0  0  0  0  0  0  0  0  0
    1.7841    4.7450   18.0319 C   0  0  0  0  0  0  0  0  0  0  0  0
    1.3076    5.9689   18.3088 N   0  0  0  0  0  0  0  0  0  0  0  0
    2.6852    4.5617   16.8895 N   0  0  0  0  0  0  0  0  0  0  0  0
    4.3891    7.0310   24.5695 C   0  0  0  0  0  0  0  0  0  0  0  0
    5.0980    7.3166   23.6062 O   0  0  0  0  0  0  0  0  0  0  0  0
    4.9093    7.0757   25.9102 N   0  0  0  0  0  0  0  0  0  0  0  0
  1  2  2  0  0  0  0
  1  6  1  0  0  0  0
  1  7  1  0  0  0  0
  2  3  1  0  0  0  0
  3  4  2  0  0  0  0
  4  5  1  0  0  0  0
  4 20  1  0  0  0  0
  5  6  2  0  0  0  0
  7  8  1  0  0  0  0
  8  9  1  0  0  0  0
  9 10  2  0  0  0  0
  9 13  1  0  0  0  0
 10 11  1  0  0  0  0
 11 12  1  0  0  0  0
 12 13  2  0  0  0  0
 12 18  1  0  0  0  0
 13 14  1  0  0  0  0
 14 15  1  0  0  0  0
 14 16  2  0  0  0  0
 16 17  1  0  0  0  0
 17 18  2  0  0  0  0
 17 19  1  0  0  0  0
 20 21  2  0  0  0  0
 20 22  1  0  0  0  0
M  END
>  <CHROM.1>
119.06311701,-95.45971413,-39.47824384,-57.03507696,1.30601499,5.70143366
21.76992927,1.18846615,0.16779362,1.29790875

>  <Name>
ligand

>  <RI>
0

>  <Rbt.Current_Directory>
/home/itssahil/PROJECTS/Mol_Feturizer/New_Systems/rnas/4LVY

>  <Rbt.Executable>
rbdock ($Id: //depot/dev/client3/rdock/2013.1/src/exe/rbdock.cxx#4 $)

>  <Rbt.Library>
libRbt.so (2013.1, Build901 2013/11/27)

>  <Rbt.Parameter_File>
/export/apps/rDock/src/rDock_2013.1_src/data/scripts/dock_solv.prm

>  <Rbt.Receptor>
prm/pocket_docking_8.prm

>  <SCORE>
-15.8873

>  <SCORE.INTER>
-15.4537

>  <SCORE.INTER.CONST>
1

>  <SCORE.INTER.POLAR>
0

>  <SCORE.INTER.ROT>
4

>  <SCORE.INTER.SOLV>
6.47866

>  <SCORE.INTER.VDW>
-18.7287

>  <SCORE.INTER.norm>
-0.702439

>  <SCORE.INTRA>
-0.433621

>  <SCORE.INTRA.DIHEDRAL>
1.60999

>  <SCORE.INTRA.DIHEDRAL.0>
6.18831

>  <SCORE.INTRA.POLAR>
0

>  <SCORE.INTRA.POLAR.0>
0

>  <SCORE.INTRA.REPUL>
0

>  <SCORE.INTRA.REPUL.0>
0

>  <SCORE.INTRA.SOLV>
0.0301324

>  <SCORE.INTRA.SOLV.lig_0>
-44.3465

>  <SCORE.INTRA.VDW>
-1.25368

>  <SCORE.INTRA.VDW.0>
-0.778272

>  <SCORE.INTRA.norm>
-0.0197101

>  <SCORE.RESTR>
0

>  <SCORE.RESTR.CAVITY>
0

>  <SCORE.RESTR.norm>
0

>  <SCORE.SYSTEM>
0

>  <SCORE.SYSTEM.CONST>
0

>  <SCORE.SYSTEM.DIHEDRAL>
0

>  <SCORE.SYSTEM.SOLV>
0

>  <SCORE.SYSTEM.norm>
0

>  <SCORE.heavy>
22

>  <SCORE.norm>
-0.722149

>  <RMSD>
6.711

$$$$
ligand
 OpenBabel11021811503D
libRbt.so/2013.1/901 2013/11/27
 22 24  0  0  0  0  0  0  0  0999 V2000
    0.1754    5.6654   23.7889 C   0  0  0  0  0  0  0  0  0  0  0  0
    0.2762    7.0251   24.1517 C   0  0  0  0  0  0  0  0  0  0  0  0
    1.5307    7.5748   24.4016 C   0  0  0  0  0  0  0  0  0  0  0  0
    2.6754    6.7666   24.2894 C   0  0  0  0  0  0  0  0  0  0  0  0
    2.5749    5.3988   23.9344 C   0  0  0  0  0  0  0  0  0  0  0  0
    1.3231    4.8524   23.6863 C   0  0  0  0  0  0  0  0  0  0  0  0
   -1.2068    5.0372   23.5265 C   0  0  0  0  0  0  0  0  0  0  0  0
   -1.6149    4.9538   22.0344 C   0  0  0  0  0  0  0  0  0  0  0  0
   -0.6573    4.1316   21.1797 C   0  0  0  0  0  0  0  0  0  0  0  0
   -0.4961    2.7480   21.3000 C   0  0  0  0  0  0  0  0  0  0  0  0
    0.4286    2.3774   20.3761 N   0  0  0  0  0  0  0  0  0  0  0  0
    0.8950    3.4493   19.6415 C   0  0  0  0  0  0  0  0  0  0  0  0
    0.2354    4.5789   20.1131 C   0  0  0  0  0  0  0  0  0  0  0  0
    0.5581    5.8424   19.4872 C   0  0  0  0  0  0  0  0  0  0  0  0
   -0.0700    7.0131   19.9031 O   0  0  0  0  0  0  0  0  0  0  0  0
    1.5033    5.8708   18.4704 N   0  0  0  0  0  0  0  0  0  0  0  0
    2.1188    4.7340   18.0328 C   0  0  0  0  0  0  0  0  0  0  0  0
    1.8441    3.5446   18.5909 N   0  0  0  0  0  0  0  0  0  0  0  0
    3.0986    4.8125   16.9445 N   0  0  0  0  0  0  0  0  0  0  0  0
    4.0190    7.3855   24.5704 C   0  0  0  0  0  0  0  0  0  0  0  0
    4.3554    8.4195   23.9962 O   0  0  0  0  0  0  0  0  0  0  0  0
    4.8965    6.7430   25.5124 N   0  0  0  0  0  0  0  0  0  0  0  0
  1  2  2  0  0  0  0
  1  6  1  0  0  0  0
  1  7  1  0  0  0  0
  2  3  1  0  0  0  0
  3  4  2  0  0  0  0
  4  5  1  0  0  0  0
  4 20  1  0  0  0  0
  5  6  2  0  0  0  0
  7  8  1  0  0  0  0
  8  9  1  0  0  0  0
  9 10  2  0  0  0  0
  9 13  1  0  0  0  0
 10 11  1  0  0  0  0
 11 12  1  0  0  0  0
 12 13  2  0  0  0  0
 12 18  1  0  0  0  0
 13 14  1  0  0  0  0
 14 15  1  0  0  0  0
 14 16  2  0  0  0  0
 16 17  1  0  0  0  0
 17 18  2  0  0  0  0
 17 19  1  0  0  0  0
 20 21  2  0  0  0  0
 20 22  1  0  0  0  0
M  END
>  <CHROM.1>
97.82537231,-52.57087179,59.68669506,67.94204376,1.31632807,5.43862986,21.68446925
1.21810993,0.46860448,1.27265495

>  <Name>
ligand

>  <RI>
0

>  <Rbt.Current_Directory>
/home/itssahil/PROJECTS/Mol_Feturizer/New_Systems/rnas/4LVY

>  <Rbt.Executable>
rbdock ($Id: //depot/dev/client3/rdock/2013.1/src/exe/rbdock.cxx#4 $)

>  <Rbt.Library>
libRbt.so (2013.1, Build901 2013/11/27)

>  <Rbt.Parameter_File>
/export/apps/rDock/src/rDock_2013.1_src/data/scripts/dock_solv.prm

>  <Rbt.Receptor>
prm/pocket_docking_6.prm

>  <SCORE>
-18.109

>  <SCORE.INTER>
-16.8468

>  <SCORE.INTER.CONST>
1

>  <SCORE.INTER.POLAR>
0

>  <SCORE.INTER.ROT>
4

>  <SCORE.INTER.SOLV>
5.42348

>  <SCORE.INTER.VDW>
-19.3057

>  <SCORE.INTER.norm>
-0.765764

>  <SCORE.INTRA>
-1.26223

>  <SCORE.INTRA.DIHEDRAL>
0.11606

>  <SCORE.INTRA.DIHEDRAL.0>
6.18831

>  <SCORE.INTRA.POLAR>
0

>  <SCORE.INTRA.POLAR.0>
0

>  <SCORE.INTRA.REPUL>
0

>  <SCORE.INTRA.REPUL.0>
0

>  <SCORE.INTRA.SOLV>
0.0688561

>  <SCORE.INTRA.SOLV.lig_0>
-44.3465

>  <SCORE.INTRA.VDW>
-1.35468

>  <SCORE.INTRA.VDW.0>
-0.778272

>  <SCORE.INTRA.norm>
-0.0573739

>  <SCORE.RESTR>
0

>  <SCORE.RESTR.CAVITY>
0

>  <SCORE.RESTR.norm>
0

>  <SCORE.SYSTEM>
0

>  <SCORE.SYSTEM.CONST>
0

>  <SCORE.SYSTEM.DIHEDRAL>
0

>  <SCORE.SYSTEM.SOLV>
0

>  <SCORE.SYSTEM.norm>
0

>  <SCORE.heavy>
22

>  <SCORE.norm>
-0.823138

>  <RMSD>
6.716

$$$$
ligand
 OpenBabel11021811503D
libRbt.so/2013.1/901 2013/11/27
 22 24  0  0  0  0  0  0  0  0999 V2000
    0.1851    5.6992   23.7798 C   0  0  0  0  0  0  0  0  0  0  0  0
    0.3097    7.0548   24.1503 C   0  0  0  0  0  0  0  0  0  0  0  0
    1.5723    7.5776   24.4166 C   0  0  0  0  0  0  0  0  0  0  0  0
    2.7014    6.7467   24.3129 C   0  0  0  0  0  0  0  0  0  0  0  0
    2.5769    5.3829   23.9502 C   0  0  0  0  0  0  0  0  0  0  0  0
    1.3170    4.8633   23.6858 C   0  0  0  0  0  0  0  0  0  0  0  0
   -1.2067    5.1006   23.4993 C   0  0  0  0  0  0  0  0  0  0  0  0
   -1.5881    5.0057   22.0008 C   0  0  0  0  0  0  0  0  0  0  0  0
   -0.6426    4.1371   21.1792 C   0  0  0  0  0  0  0  0  0  0  0  0
   -0.5098    2.7552   21.3456 C   0  0  0  0  0  0  0  0  0  0  0  0
    0.4122    2.3363   20.4398 N   0  0  0  0  0  0  0  0  0  0  0  0
    0.9038    3.3740   19.6732 C   0  0  0  0  0  0  0  0  0  0  0  0
    0.2644    4.5314   20.1037 C   0  0  0  0  0  0  0  0  0  0  0  0
    0.6156    5.7670   19.4387 C   0  0  0  0  0  0  0  0  0  0  0  0
    0.0088    6.9629   19.8125 O   0  0  0  0  0  0  0  0  0  0  0  0
    1.5664    5.7432   18.4272 N   0  0  0  0  0  0  0  0  0  0  0  0
    2.1614    4.5808   18.0306 C   0  0  0  0  0  0  0  0  0  0  0  0
    1.8600    3.4160   18.6257 N   0  0  0  0  0  0  0  0  0  0  0  0
    3.1482    4.6040   16.9461 N   0  0  0  0  0  0  0  0  0  0  0  0
    4.0542    7.3367   24.6116 C   0  0  0  0  0  0  0  0  0  0  0  0
    4.4272    8.3535   24.0293 O   0  0  0  0  0  0  0  0  0  0  0  0
    4.8970    6.6871   25.5800 N   0  0  0  0  0  0  0  0  0  0  0  0
  1  2  2  0  0  0  0
  1  6  1  0  0  0  0
  1  7  1  0  0  0  0
  2  3  1  0  0  0  0
  3  4  2  0  0  0  0
  4  5  1  0  0  0  0
  4 20  1  0  0  0  0
  5  6  2  0  0  0  0
  7  8  1  0  0  0  0
  8  9  1  0  0  0  0
  9 10  2  0  0  0  0
  9 13  1  0  0  0  0
 10 11  1  0  0  0  0
 11 12  1  0  0  0  0
 12 13  2  0  0  0  0
 12 18  1  0  0  0  0
 13 14  1  0  0  0  0
 14 15  1  0  0  0  0
 14 16  2  0  0  0  0
 16 17  1  0  0  0  0
 17 18  2  0  0  0  0
 17 19  1  0  0  0  0
 20 21  2  0  0  0  0
 20 22  1  0  0  0  0
M  END
>  <CHROM.1>
99.02164409,-53.81217376,60.27946938,66.46493219,1.34335831,5.39578979,21.68861396
1.23090080,0.43773239,1.25219359

>  <Name>
ligand

>  <RI>
0

>  <Rbt.Current_Directory>
/home/itssahil/PROJECTS/Mol_Feturizer/New_Systems/rnas/4LVY

>  <Rbt.Executable>
rbdock ($Id: //depot/dev/client3/rdock/2013.1/src/exe/rbdock.cxx#4 $)

>  <Rbt.Library>
libRbt.so (2013.1, Build901 2013/11/27)

>  <Rbt.Parameter_File>
/export/apps/rDock/src/rDock_2013.1_src/data/scripts/dock_solv.prm

>  <Rbt.Receptor>
prm/pocket_docking_8.prm

>  <SCORE>
-18.1416

>  <SCORE.INTER>
-16.9136

>  <SCORE.INTER.CONST>
1

>  <SCORE.INTER.POLAR>
0

>  <SCORE.INTER.ROT>
4

>  <SCORE.INTER.SOLV>
5.36166

>  <SCORE.INTER.VDW>
-19.3296

>  <SCORE.INTER.norm>
-0.768801

>  <SCORE.INTRA>
-1.22803

>  <SCORE.INTRA.DIHEDRAL>
0.110569

>  <SCORE.INTRA.DIHEDRAL.0>
6.18831

>  <SCORE.INTRA.POLAR>
0

>  <SCORE.INTRA.POLAR.0>
0

>  <SCORE.INTRA.REPUL>
0

>  <SCORE.INTRA.REPUL.0>
0

>  <SCORE.INTRA.SOLV>
0.0633339

>  <SCORE.INTRA.SOLV.lig_0>
-44.3465

>  <SCORE.INTRA.VDW>
-1.31498

>  <SCORE.INTRA.VDW.0>
-0.778272

>  <SCORE.INTRA.norm>
-0.0558195

>  <SCORE.RESTR>
0

>  <SCORE.RESTR.CAVITY>
0

>  <SCORE.RESTR.norm>
0

>  <SCORE.SYSTEM>
0

>  <SCORE.SYSTEM.CONST>
0

>  <SCORE.SYSTEM.DIHEDRAL>
0

>  <SCORE.SYSTEM.SOLV>
0

>  <SCORE.SYSTEM.norm>
0

>  <SCORE.heavy>
22

>  <SCORE.norm>
-0.82462

>  <RMSD>
6.720

$$$$
ligand
 OpenBabel11021811503D
libRbt.so/2013.1/901 2013/11/27
 22 24  0  0  0  0  0  0  0  0999 V2000
    0.3385    5.9438   24.0051 C   0  0  0  0  0  0  0  0  0  0  0  0
    0.6522    7.2853   24.3094 C   0  0  0  0  0  0  0  0  0  0  0  0
    1.9822    7.6499   24.5008 C   0  0  0  0  0  0  0  0  0  0  0  0
    2.9899    6.6762   24.3886 C   0  0  0  0  0  0  0  0  0  0  0  0
    2.6755    5.3271   24.0924 C   0  0  0  0  0  0  0  0  0  0  0  0
    1.3488    4.9653   23.9026 C   0  0  0  0  0  0  0  0  0  0  0  0
   -1.1298    5.5202   23.8080 C   0  0  0  0  0  0  0  0  0  0  0  0
   -1.4549    4.9129   22.4205 C   0  0  0  0  0  0  0  0  0  0  0  0
   -0.7834    5.6371   21.2594 C   0  0  0  0  0  0  0  0  0  0  0  0
   -0.9120    7.0079   21.0158 C   0  0  0  0  0  0  0  0  0  0  0  0
   -0.1727    7.2823   19.9094 N   0  0  0  0  0  0  0  0  0  0  0  0
    0.4462    6.1582   19.3998 C   0  0  0  0  0  0  0  0  0  0  0  0
    0.0906    5.0946   20.2218 C   0  0  0  0  0  0  0  0  0  0  0  0
    0.6268    3.7932   19.8881 C   0  0  0  0  0  0  0  0  0  0  0  0
    0.3194    2.6847   20.6722 O   0  0  0  0  0  0  0  0  0  0  0  0
    1.4478    3.6658   18.7756 N   0  0  0  0  0  0  0  0  0  0  0  0
    1.7784    4.7408   18.0026 C   0  0  0  0  0  0  0  0  0  0  0  0
    1.2987    5.9628   18.2824 N   0  0  0  0  0  0  0  0  0  0  0  0
    2.6625    4.5589   16.8468 N   0  0  0  0  0  0  0  0  0  0  0  0
    4.4192    7.0971   24.6057 C   0  0  0  0  0  0  0  0  0  0  0  0
    5.1440    7.3432   23.6433 O   0  0  0  0  0  0  0  0  0  0  0  0
    4.9170    7.1979   25.9518 N   0  0  0  0  0  0  0  0  0  0  0  0
  1  2  2  0  0  0  0
  1  6  1  0  0  0  0
  1  7  1  0  0  0  0
  2  3  1  0  0  0  0
  3  4  2  0  0  0  0
  4  5  1  0  0  0  0
  4 20  1  0  0  0  0
  5  6  2  0  0  0  0
  7  8  1  0  0  0  0
  8  9  1  0  0  0  0
  9 10  2  0  0  0  0
  9 13  1  0  0  0  0
 10 11  1  0  0  0  0
 11 12  1  0  0  0  0
 12 13  2  0  0  0  0
 12 18  1  0  0  0  0
 13 14  1  0  0  0  0
 14 15  1  0  0  0  0
 14 16  2  0  0  0  0
 16 17  1  0  0  0  0
 17 18  2  0  0  0  0
 17 19  1  0  0  0  0
 20 21  2  0  0  0  0
 20 22  1  0  0  0  0
M  END
>  <CHROM.1>
120.74716442,-98.12170798,-41.26114022,-55.12961797,1.33243454,5.72162745
21.77676494,1.19131100,0.17486491,1.29209497

>  <Name>
ligand

>  <RI>
0

>  <Rbt.Current_Directory>
/home/itssahil/PROJECTS/Mol_Feturizer/New_Systems/rnas/4LVY

>  <Rbt.Executable>
rbdock ($Id: //depot/dev/client3/rdock/2013.1/src/exe/rbdock.cxx#4 $)

>  <Rbt.Library>
libRbt.so (2013.1, Build901 2013/11/27)

>  <Rbt.Parameter_File>
/export/apps/rDock/src/rDock_2013.1_src/data/scripts/dock_solv.prm

>  <Rbt.Receptor>
prm/pocket_docking_7.prm

>  <SCORE>
-15.9249

>  <SCORE.INTER>
-15.4085

>  <SCORE.INTER.CONST>
1

>  <SCORE.INTER.POLAR>
0

>  <SCORE.INTER.ROT>
4

>  <SCORE.INTER.SOLV>
6.44833

>  <SCORE.INTER.VDW>
-18.6884

>  <SCORE.INTER.norm>
-0.700385

>  <SCORE.INTRA>
-0.516484

>  <SCORE.INTRA.DIHEDRAL>
1.36256

>  <SCORE.INTRA.DIHEDRAL.0>
6.18831

>  <SCORE.INTRA.POLAR>
0

>  <SCORE.INTRA.POLAR.0>
0

>  <SCORE.INTRA.REPUL>
0

>  <SCORE.INTRA.REPUL.0>
0

>  <SCORE.INTRA.SOLV>
0.0245381

>  <SCORE.INTRA.SOLV.lig_0>
-44.3465

>  <SCORE.INTRA.VDW>
-1.21003

>  <SCORE.INTRA.VDW.0>
-0.778272

>  <SCORE.INTRA.norm>
-0.0234765

>  <SCORE.RESTR>
0

>  <SCORE.RESTR.CAVITY>
0

>  <SCORE.RESTR.norm>
0

>  <SCORE.SYSTEM>
0

>  <SCORE.SYSTEM.CONST>
0

>  <SCORE.SYSTEM.DIHEDRAL>
0

>  <SCORE.SYSTEM.SOLV>
0

>  <SCORE.SYSTEM.norm>
0

>  <SCORE.heavy>
22

>  <SCORE.norm>
-0.723861

>  <RMSD>
6.729

$$$$
ligand
 OpenBabel11021811503D
libRbt.so/2013.1/901 2013/11/27
 22 24  0  0  0  0  0  0  0  0999 V2000
    0.2941    5.8794   23.9360 C   0  0  0  0  0  0  0  0  0  0  0  0
    0.5476    7.2252   24.2755 C   0  0  0  0  0  0  0  0  0  0  0  0
    1.8557    7.6335   24.5213 C   0  0  0  0  0  0  0  0  0  0  0  0
    2.9016    6.6989   24.4283 C   0  0  0  0  0  0  0  0  0  0  0  0
    2.6474    5.3452   24.0968 C   0  0  0  0  0  0  0  0  0  0  0  0
    1.3423    4.9399   23.8527 C   0  0  0  0  0  0  0  0  0  0  0  0
   -1.1499    5.4074   23.6784 C   0  0  0  0  0  0  0  0  0  0  0  0
   -1.4027    4.8140   22.2699 C   0  0  0  0  0  0  0  0  0  0  0  0
   -0.7334    5.5942   21.1445 C   0  0  0  0  0  0  0  0  0  0  0  0
   -0.8616    6.9754   20.9692 C   0  0  0  0  0  0  0  0  0  0  0  0
   -0.1247    7.3037   19.8759 N   0  0  0  0  0  0  0  0  0  0  0  0
    0.4921    6.2058   19.3099 C   0  0  0  0  0  0  0  0  0  0  0  0
    0.1376    5.1030   20.0791 C   0  0  0  0  0  0  0  0  0  0  0  0
    0.6720    3.8194   19.6802 C   0  0  0  0  0  0  0  0  0  0  0  0
    0.3655    2.6737   20.4093 O   0  0  0  0  0  0  0  0  0  0  0  0
    1.4902    3.7467   18.5608 N   0  0  0  0  0  0  0  0  0  0  0  0
    1.8198    4.8584   17.8410 C   0  0  0  0  0  0  0  0  0  0  0  0
    1.3417    6.0653   18.1821 N   0  0  0  0  0  0  0  0  0  0  0  0
    2.7010    4.7332   16.6755 N   0  0  0  0  0  0  0  0  0  0  0  0
    4.3061    7.1664   24.7045 C   0  0  0  0  0  0  0  0  0  0  0  0
    4.9250    7.8008   23.8522 O   0  0  0  0  0  0  0  0  0  0  0  0
    4.9060    6.8518   25.9738 N   0  0  0  0  0  0  0  0  0  0  0  0
  1  2  2  0  0  0  0
  1  6  1  0  0  0  0
  1  7  1  0  0  0  0
  2  3  1  0  0  0  0
  3  4  2  0  0  0  0
  4  5  1  0  0  0  0
  4 20  1  0  0  0  0
  5  6  2  0  0  0  0
  7  8  1  0  0  0  0
  8  9  1  0  0  0  0
  9 10  2  0  0  0  0
  9 13  1  0  0  0  0
 10 11  1  0  0  0  0
 11 12  1  0  0  0  0
 12 13  2  0  0  0  0
 12 18  1  0  0  0  0
 13 14  1  0  0  0  0
 14 15  1  0  0  0  0
 14 16  2  0  0  0  0
 16 17  1  0  0  0  0
 17 18  2  0  0  0  0
 17 19  1  0  0  0  0
 20 21  2  0  0  0  0
 20 22  1  0  0  0  0
M  END
>  <CHROM.1>
120.82084419,-77.73668731,-42.10998322,-51.30527701,1.32249205,5.74069153
21.70406161,1.22015542,0.22623908,1.32190740

>  <Name>
ligand

>  <RI>
0

>  <Rbt.Current_Directory>
/home/itssahil/PROJECTS/Mol_Feturizer/New_Systems/rnas/4LVY

>  <Rbt.Executable>
rbdock ($Id: //depot/dev/client3/rdock/2013.1/src/exe/rbdock.cxx#4 $)

>  <Rbt.Library>
libRbt.so (2013.1, Build901 2013/11/27)

>  <Rbt.Parameter_File>
/export/apps/rDock/src/rDock_2013.1_src/data/scripts/dock_solv.prm

>  <Rbt.Receptor>
prm/pocket_docking_6.prm

>  <SCORE>
-15.9465

>  <SCORE.INTER>
-15.441

>  <SCORE.INTER.CONST>
1

>  <SCORE.INTER.POLAR>
0

>  <SCORE.INTER.ROT>
4

>  <SCORE.INTER.SOLV>
6.2717

>  <SCORE.INTER.VDW>
-18.6512

>  <SCORE.INTER.norm>
-0.701863

>  <SCORE.INTRA>
-0.505481

>  <SCORE.INTRA.DIHEDRAL>
1.25932

>  <SCORE.INTRA.DIHEDRAL.0>
6.18831

>  <SCORE.INTRA.POLAR>
0

>  <SCORE.INTRA.POLAR.0>
0

>  <SCORE.INTRA.REPUL>
0

>  <SCORE.INTRA.REPUL.0>
0

>  <SCORE.INTRA.SOLV>
0.0133639

>  <SCORE.INTRA.SOLV.lig_0>
-44.3465

>  <SCORE.INTRA.VDW>
-1.14183

>  <SCORE.INTRA.VDW.0>
-0.778272

>  <SCORE.INTRA.norm>
-0.0229764

>  <SCORE.RESTR>
0

>  <SCORE.RESTR.CAVITY>
0

>  <SCORE.RESTR.norm>
0

>  <SCORE.SYSTEM>
0

>  <SCORE.SYSTEM.CONST>
0

>  <SCORE.SYSTEM.DIHEDRAL>
0

>  <SCORE.SYSTEM.SOLV>
0

>  <SCORE.SYSTEM.norm>
0

>  <SCORE.heavy>
22

>  <SCORE.norm>
-0.724839

>  <RMSD>
6.805

$$$$
ligand
 OpenBabel11021811503D
libRbt.so/2013.1/901 2013/11/27
 22 24  0  0  0  0  0  0  0  0999 V2000
   -0.1256    6.4744   21.6315 C   0  0  0  0  0  0  0  0  0  0  0  0
    1.0646    6.0874   20.9801 C   0  0  0  0  0  0  0  0  0  0  0  0
    1.4172    6.6989   19.7801 C   0  0  0  0  0  0  0  0  0  0  0  0
    0.5818    7.6905   19.2369 C   0  0  0  0  0  0  0  0  0  0  0  0
   -0.6183    8.0734   19.8850 C   0  0  0  0  0  0  0  0  0  0  0  0
   -0.9685    7.4619   21.0811 C   0  0  0  0  0  0  0  0  0  0  0  0
   -0.5392    5.7948   22.9510 C   0  0  0  0  0  0  0  0  0  0  0  0
   -1.0255    4.3308   22.8085 C   0  0  0  0  0  0  0  0  0  0  0  0
   -0.1019    3.4547   21.9702 C   0  0  0  0  0  0  0  0  0  0  0  0
   -0.5268    2.6995   20.8729 C   0  0  0  0  0  0  0  0  0  0  0  0
    0.5698    2.0630   20.3846 N   0  0  0  0  0  0  0  0  0  0  0  0
    1.7109    2.3568   21.1041 C   0  0  0  0  0  0  0  0  0  0  0  0
    1.3352    3.2344   22.1152 C   0  0  0  0  0  0  0  0  0  0  0  0
    2.3736    3.6946   23.0108 C   0  0  0  0  0  0  0  0  0  0  0  0
    2.0710    4.5810   24.0408 O   0  0  0  0  0  0  0  0  0  0  0  0
    3.6725    3.2382   22.8304 N   0  0  0  0  0  0  0  0  0  0  0  0
    3.9972    2.3839   21.8169 C   0  0  0  0  0  0  0  0  0  0  0  0
    3.0592    1.9362   20.9676 N   0  0  0  0  0  0  0  0  0  0  0  0
    5.3865    1.9424   21.6570 N   0  0  0  0  0  0  0  0  0  0  0  0
    0.9845    8.3316   17.9353 C   0  0  0  0  0  0  0  0  0  0  0  0
    1.4466    9.4710   17.9246 O   0  0  0  0  0  0  0  0  0  0  0  0
    0.8123    7.5912   16.7137 N   0  0  0  0  0  0  0  0  0  0  0  0
  1  2  2  0  0  0  0
  1  6  1  0  0  0  0
  1  7  1  0  0  0  0
  2  3  1  0  0  0  0
  3  4  2  0  0  0  0
  4  5  1  0  0  0  0
  4 20  1  0  0  0  0
  5  6  2  0  0  0  0
  7  8  1  0  0  0  0
  8  9  1  0  0  0  0
  9 10  2  0  0  0  0
  9 13  1  0  0  0  0
 10 11  1  0  0  0  0
 11 12  1  0  0  0  0
 12 13  2  0  0  0  0
 12 18  1  0  0  0  0
 13 14  1  0  0  0  0
 14 15  1  0  0  0  0
 14 16  2  0  0  0  0
 16 17  1  0  0  0  0
 17 18  2  0  0  0  0
 17 19  1  0  0  0  0
 20 21  2  0  0  0  0
 20 22  1  0  0  0  0
M  END
>  <CHROM.1>
-71.54781532,-104.83938374,48.40840998,-126.60833696,1.24738727,4.98279501
20.99627370,1.95845079,0.55139436,-0.75741671

>  <Name>
ligand

>  <RI>
0

>  <Rbt.Current_Directory>
/home/itssahil/PROJECTS/Mol_Feturizer/New_Systems/rnas/4LVY

>  <Rbt.Executable>
rbdock ($Id: //depot/dev/client3/rdock/2013.1/src/exe/rbdock.cxx#4 $)

>  <Rbt.Library>
libRbt.so (2013.1, Build901 2013/11/27)

>  <Rbt.Parameter_File>
/export/apps/rDock/src/rDock_2013.1_src/data/scripts/dock_solv.prm

>  <Rbt.Receptor>
prm/pocket_docking_7.prm

>  <SCORE>
-17.3859

>  <SCORE.INTER>
-16.1708

>  <SCORE.INTER.CONST>
1

>  <SCORE.INTER.POLAR>
0

>  <SCORE.INTER.ROT>
4

>  <SCORE.INTER.SOLV>
5.55037

>  <SCORE.INTER.VDW>
-18.8974

>  <SCORE.INTER.norm>
-0.735038

>  <SCORE.INTRA>
-1.21507

>  <SCORE.INTRA.DIHEDRAL>
0.513667

>  <SCORE.INTRA.DIHEDRAL.0>
6.18831

>  <SCORE.INTRA.POLAR>
0

>  <SCORE.INTRA.POLAR.0>
0

>  <SCORE.INTRA.REPUL>
0

>  <SCORE.INTRA.REPUL.0>
0

>  <SCORE.INTRA.SOLV>
0.407747

>  <SCORE.INTRA.SOLV.lig_0>
-44.3465

>  <SCORE.INTRA.VDW>
-1.67578

>  <SCORE.INTRA.VDW.0>
-0.778272

>  <SCORE.INTRA.norm>
-0.0552306

>  <SCORE.RESTR>
0

>  <SCORE.RESTR.CAVITY>
0

>  <SCORE.RESTR.norm>
0

>  <SCORE.SYSTEM>
0

>  <SCORE.SYSTEM.CONST>
0

>  <SCORE.SYSTEM.DIHEDRAL>
0

>  <SCORE.SYSTEM.SOLV>
0

>  <SCORE.SYSTEM.norm>
0

>  <SCORE.heavy>
22

>  <SCORE.norm>
-0.790269

>  <RMSD>
6.828

$$$$
ligand
 OpenBabel11021811503D
libRbt.so/2013.1/901 2013/11/27
 22 24  0  0  0  0  0  0  0  0999 V2000
    0.3135    5.7556   23.9087 C   0  0  0  0  0  0  0  0  0  0  0  0
    0.3982    7.1377   24.1789 C   0  0  0  0  0  0  0  0  0  0  0  0
    1.6396    7.7064   24.4508 C   0  0  0  0  0  0  0  0  0  0  0  0
    2.7873    6.8947   24.4525 C   0  0  0  0  0  0  0  0  0  0  0  0
    2.7025    5.5050   24.1907 C   0  0  0  0  0  0  0  0  0  0  0  0
    1.4637    4.9397   23.9206 C   0  0  0  0  0  0  0  0  0  0  0  0
   -1.0550    5.1075   23.6236 C   0  0  0  0  0  0  0  0  0  0  0  0
   -1.1654    4.3862   22.2571 C   0  0  0  0  0  0  0  0  0  0  0  0
   -0.5346    5.1560   21.1025 C   0  0  0  0  0  0  0  0  0  0  0  0
   -0.7565    6.5144   20.8571 C   0  0  0  0  0  0  0  0  0  0  0  0
   -0.0272    6.8403   19.7580 N   0  0  0  0  0  0  0  0  0  0  0  0
    0.6740    5.7625   19.2551 C   0  0  0  0  0  0  0  0  0  0  0  0
    0.3856    4.6763   20.0739 C   0  0  0  0  0  0  0  0  0  0  0  0
    1.0150    3.4159   19.7462 C   0  0  0  0  0  0  0  0  0  0  0  0
    0.7782    2.2883   20.5276 O   0  0  0  0  0  0  0  0  0  0  0  0
    1.8541    3.3467   18.6421 N   0  0  0  0  0  0  0  0  0  0  0  0
    2.1163    4.4424   17.8719 C   0  0  0  0  0  0  0  0  0  0  0  0
    1.5493    5.6277   18.1465 N   0  0  0  0  0  0  0  0  0  0  0  0
    3.0226    4.3233   16.7252 N   0  0  0  0  0  0  0  0  0  0  0  0
    4.1163    7.5348   24.7549 C   0  0  0  0  0  0  0  0  0  0  0  0
    4.7930    7.1365   25.7011 O   0  0  0  0  0  0  0  0  0  0  0  0
    4.5708    8.6179   23.9240 N   0  0  0  0  0  0  0  0  0  0  0  0
  1  2  2  0  0  0  0
  1  6  1  0  0  0  0
  1  7  1  0  0  0  0
  2  3  1  0  0  0  0
  3  4  2  0  0  0  0
  4  5  1  0  0  0  0
  4 20  1  0  0  0  0
  5  6  2  0  0  0  0
  7  8  1  0  0  0  0
  8  9  1  0  0  0  0
  9 10  2  0  0  0  0
  9 13  1  0  0  0  0
 10 11  1  0  0  0  0
 11 12  1  0  0  0  0
 12 13  2  0  0  0  0
 12 18  1  0  0  0  0
 13 14  1  0  0  0  0
 14 15  1  0  0  0  0
 14 16  2  0  0  0  0
 16 17  1  0  0  0  0
 17 18  2  0  0  0  0
 17 19  1  0  0  0  0
 20 21  2  0  0  0  0
 20 22  1  0  0  0  0
M  END
>  <CHROM.1>
122.17785845,121.58565024,-42.62662974,-47.66534880,1.42428079,5.56497053
21.70614592,1.28815022,0.34698915,1.23196136

>  <Name>
ligand

>  <RI>
0

>  <Rbt.Current_Directory>
/home/itssahil/PROJECTS/Mol_Feturizer/New_Systems/rnas/4LVY

>  <Rbt.Executable>
rbdock ($Id: //depot/dev/client3/rdock/2013.1/src/exe/rbdock.cxx#4 $)

>  <Rbt.Library>
libRbt.so (2013.1, Build901 2013/11/27)

>  <Rbt.Parameter_File>
/export/apps/rDock/src/rDock_2013.1_src/data/scripts/dock_solv.prm

>  <Rbt.Receptor>
prm/pocket_docking_7.prm

>  <SCORE>
-15.7879

>  <SCORE.INTER>
-15.3938

>  <SCORE.INTER.CONST>
1

>  <SCORE.INTER.POLAR>
0

>  <SCORE.INTER.ROT>
4

>  <SCORE.INTER.SOLV>
6.45905

>  <SCORE.INTER.VDW>
-18.6822

>  <SCORE.INTER.norm>
-0.699717

>  <SCORE.INTRA>
-0.394142

>  <SCORE.INTRA.DIHEDRAL>
1.21103

>  <SCORE.INTRA.DIHEDRAL.0>
6.18831

>  <SCORE.INTRA.POLAR>
0

>  <SCORE.INTRA.POLAR.0>
0

>  <SCORE.INTRA.REPUL>
0

>  <SCORE.INTRA.REPUL.0>
0

>  <SCORE.INTRA.SOLV>
0.00711492

>  <SCORE.INTRA.SOLV.lig_0>
-44.3465

>  <SCORE.INTRA.VDW>
-1.00321

>  <SCORE.INTRA.VDW.0>
-0.778272

>  <SCORE.INTRA.norm>
-0.0179156

>  <SCORE.RESTR>
0

>  <SCORE.RESTR.CAVITY>
0

>  <SCORE.RESTR.norm>
0

>  <SCORE.SYSTEM>
0

>  <SCORE.SYSTEM.CONST>
0

>  <SCORE.SYSTEM.DIHEDRAL>
0

>  <SCORE.SYSTEM.SOLV>
0

>  <SCORE.SYSTEM.norm>
0

>  <SCORE.heavy>
22

>  <SCORE.norm>
-0.717633

>  <RMSD>
6.856

$$$$
ligand
 OpenBabel11021811503D
libRbt.so/2013.1/901 2013/11/27
 22 24  0  0  0  0  0  0  0  0999 V2000
    0.3838    5.2977   23.6323 C   0  0  0  0  0  0  0  0  0  0  0  0
    1.6438    4.6662   23.6978 C   0  0  0  0  0  0  0  0  0  0  0  0
    2.7524    5.3945   24.1208 C   0  0  0  0  0  0  0  0  0  0  0  0
    2.5986    6.7463   24.4746 C   0  0  0  0  0  0  0  0  0  0  0  0
    1.3359    7.3841   24.4003 C   0  0  0  0  0  0  0  0  0  0  0  0
    0.2318    6.6565   23.9776 C   0  0  0  0  0  0  0  0  0  0  0  0
   -0.8496    4.5107   23.1492 C   0  0  0  0  0  0  0  0  0  0  0  0
   -1.6450    5.1811   22.0013 C   0  0  0  0  0  0  0  0  0  0  0  0
   -0.7644    5.7773   20.9092 C   0  0  0  0  0  0  0  0  0  0  0  0
   -0.7334    7.1377   20.5880 C   0  0  0  0  0  0  0  0  0  0  0  0
    0.1656    7.2838   19.5797 N   0  0  0  0  0  0  0  0  0  0  0  0
    0.7391    6.0836   19.2100 C   0  0  0  0  0  0  0  0  0  0  0  0
    0.1831    5.1032   20.0245 C   0  0  0  0  0  0  0  0  0  0  0  0
    0.6358    3.7438   19.8260 C   0  0  0  0  0  0  0  0  0  0  0  0
    0.1282    2.7126   20.6115 O   0  0  0  0  0  0  0  0  0  0  0  0
    1.5791    3.4830   18.8411 N   0  0  0  0  0  0  0  0  0  0  0  0
    2.1051    4.4795   18.0711 C   0  0  0  0  0  0  0  0  0  0  0  0
    1.7079    5.7521   18.2277 N   0  0  0  0  0  0  0  0  0  0  0  0
    3.1113    4.1565   17.0543 N   0  0  0  0  0  0  0  0  0  0  0  0
    3.8152    7.5116   24.9235 C   0  0  0  0  0  0  0  0  0  0  0  0
    4.0767    8.6045   24.4243 O   0  0  0  0  0  0  0  0  0  0  0  0
    4.6621    6.9386   25.9357 N   0  0  0  0  0  0  0  0  0  0  0  0
  1  2  2  0  0  0  0
  1  6  1  0  0  0  0
  1  7  1  0  0  0  0
  2  3  1  0  0  0  0
  3  4  2  0  0  0  0
  4  5  1  0  0  0  0
  4 20  1  0  0  0  0
  5  6  2  0  0  0  0
  7  8  1  0  0  0  0
  8  9  1  0  0  0  0
  9 10  2  0  0  0  0
  9 13  1  0  0  0  0
 10 11  1  0  0  0  0
 11 12  1  0  0  0  0
 12 13  2  0  0  0  0
 12 18  1  0  0  0  0
 13 14  1  0  0  0  0
 14 15  1  0  0  0  0
 14 16  2  0  0  0  0
 16 17  1  0  0  0  0
 17 18  2  0  0  0  0
 17 19  1  0  0  0  0
 20 21  2  0  0  0  0
 20 22  1  0  0  0  0
M  END
>  <CHROM.1>
-127.26925523,130.14355112,42.85476014,-117.85414343,1.28852835,5.64726719
21.68510124,1.25980491,0.30099654,1.27537085

>  <Name>
ligand

>  <RI>
0

>  <Rbt.Current_Directory>
/home/itssahil/PROJECTS/Mol_Feturizer/New_Systems/rnas/4LVY

>  <Rbt.Executable>
rbdock ($Id: //depot/dev/client3/rdock/2013.1/src/exe/rbdock.cxx#4 $)

>  <Rbt.Library>
libRbt.so (2013.1, Build901 2013/11/27)

>  <Rbt.Parameter_File>
/export/apps/rDock/src/rDock_2013.1_src/data/scripts/dock_solv.prm

>  <Rbt.Receptor>
prm/pocket_docking_8.prm

>  <SCORE>
-15.3945

>  <SCORE.INTER>
-14.75

>  <SCORE.INTER.CONST>
1

>  <SCORE.INTER.POLAR>
0

>  <SCORE.INTER.ROT>
4

>  <SCORE.INTER.SOLV>
7.2689

>  <SCORE.INTER.VDW>
-18.523

>  <SCORE.INTER.norm>
-0.670454

>  <SCORE.INTRA>
-0.644547

>  <SCORE.INTRA.DIHEDRAL>
1.1898

>  <SCORE.INTRA.DIHEDRAL.0>
6.18831

>  <SCORE.INTRA.POLAR>
0

>  <SCORE.INTRA.POLAR.0>
0

>  <SCORE.INTRA.REPUL>
0

>  <SCORE.INTRA.REPUL.0>
0

>  <SCORE.INTRA.SOLV>
0.287724

>  <SCORE.INTRA.SOLV.lig_0>
-44.3465

>  <SCORE.INTRA.VDW>
-1.38331

>  <SCORE.INTRA.VDW.0>
-0.778272

>  <SCORE.INTRA.norm>
-0.0292976

>  <SCORE.RESTR>
0

>  <SCORE.RESTR.CAVITY>
0

>  <SCORE.RESTR.norm>
0

>  <SCORE.SYSTEM>
0

>  <SCORE.SYSTEM.CONST>
0

>  <SCORE.SYSTEM.DIHEDRAL>
0

>  <SCORE.SYSTEM.SOLV>
0

>  <SCORE.SYSTEM.norm>
0

>  <SCORE.heavy>
22

>  <SCORE.norm>
-0.699752

>  <RMSD>
6.876

$$$$
ligand
 OpenBabel11021811503D
libRbt.so/2013.1/901 2013/11/27
 22 24  0  0  0  0  0  0  0  0999 V2000
    4.2930    2.8366   23.4969 C   0  0  0  0  0  0  0  0  0  0  0  0
    2.9745    3.0368   23.9572 C   0  0  0  0  0  0  0  0  0  0  0  0
    2.5194    4.3326   24.1857 C   0  0  0  0  0  0  0  0  0  0  0  0
    3.3806    5.4194   23.9550 C   0  0  0  0  0  0  0  0  0  0  0  0
    4.7078    5.2193   23.5018 C   0  0  0  0  0  0  0  0  0  0  0  0
    5.1600    3.9265   23.2753 C   0  0  0  0  0  0  0  0  0  0  0  0
    4.8179    1.4080   23.2563 C   0  0  0  0  0  0  0  0  0  0  0  0
    5.0325    1.0317   21.7690 C   0  0  0  0  0  0  0  0  0  0  0  0
    3.9247    1.5228   20.8442 C   0  0  0  0  0  0  0  0  0  0  0  0
    2.5713    1.5508   21.1943 C   0  0  0  0  0  0  0  0  0  0  0  0
    1.8984    2.0516   20.1255 N   0  0  0  0  0  0  0  0  0  0  0  0
    2.7385    2.3611   19.0745 C   0  0  0  0  0  0  0  0  0  0  0  0
    4.0294    2.0453   19.4838 C   0  0  0  0  0  0  0  0  0  0  0  0
    5.0997    2.2886   18.5416 C   0  0  0  0  0  0  0  0  0  0  0  0
    6.4179    2.0038   18.8871 O   0  0  0  0  0  0  0  0  0  0  0  0
    4.7934    2.8059   17.2900 N   0  0  0  0  0  0  0  0  0  0  0  0
    3.5113    3.1104   16.9350 C   0  0  0  0  0  0  0  0  0  0  0  0
    2.4935    2.8973   17.7838 N   0  0  0  0  0  0  0  0  0  0  0  0
    3.2396    3.6703   15.6071 N   0  0  0  0  0  0  0  0  0  0  0  0
    2.8643    6.8097   24.2153 C   0  0  0  0  0  0  0  0  0  0  0  0
    1.7821    7.1639   23.7512 O   0  0  0  0  0  0  0  0  0  0  0  0
    3.6606    7.7097   25.0064 N   0  0  0  0  0  0  0  0  0  0  0  0
  1  2  2  0  0  0  0
  1  6  1  0  0  0  0
  1  7  1  0  0  0  0
  2  3  1  0  0  0  0
  3  4  2  0  0  0  0
  4  5  1  0  0  0  0
  4 20  1  0  0  0  0
  5  6  2  0  0  0  0
  7  8  1  0  0  0  0
  8  9  1  0  0  0  0
  9 10  2  0  0  0  0
  9 13  1  0  0  0  0
 10 11  1  0  0  0  0
 11 12  1  0  0  0  0
 12 13  2  0  0  0  0
 12 18  1  0  0  0  0
 13 14  1  0  0  0  0
 14 15  1  0  0  0  0
 14 16  2  0  0  0  0
 16 17  1  0  0  0  0
 17 18  2  0  0  0  0
 17 19  1  0  0  0  0
 20 21  2  0  0  0  0
 20 22  1  0  0  0  0
M  END
>  <CHROM.1>
109.79264613,-49.55429978,-41.41425724,-37.24187339,3.73298533,3.43404448
21.13973001,-1.79502192,1.12408462,-1.83744456

>  <Name>
ligand

>  <RI>
0

>  <Rbt.Current_Directory>
/home/itssahil/PROJECTS/Mol_Feturizer/New_Systems/rnas/4LVY

>  <Rbt.Executable>
rbdock ($Id: //depot/dev/client3/rdock/2013.1/src/exe/rbdock.cxx#4 $)

>  <Rbt.Library>
libRbt.so (2013.1, Build901 2013/11/27)

>  <Rbt.Parameter_File>
/export/apps/rDock/src/rDock_2013.1_src/data/scripts/dock_solv.prm

>  <Rbt.Receptor>
prm/pocket_docking_7.prm

>  <SCORE>
-10.5683

>  <SCORE.INTER>
-10.4703

>  <SCORE.INTER.CONST>
1

>  <SCORE.INTER.POLAR>
0

>  <SCORE.INTER.ROT>
4

>  <SCORE.INTER.SOLV>
5.5175

>  <SCORE.INTER.VDW>
-15.086

>  <SCORE.INTER.norm>
-0.475923

>  <SCORE.INTRA>
-0.0979523

>  <SCORE.INTRA.DIHEDRAL>
1.44129

>  <SCORE.INTRA.DIHEDRAL.0>
6.18831

>  <SCORE.INTRA.POLAR>
0

>  <SCORE.INTRA.POLAR.0>
0

>  <SCORE.INTRA.REPUL>
0

>  <SCORE.INTRA.REPUL.0>
0

>  <SCORE.INTRA.SOLV>
-0.00106543

>  <SCORE.INTRA.SOLV.lig_0>
-44.3465

>  <SCORE.INTRA.VDW>
-0.818066

>  <SCORE.INTRA.VDW.0>
-0.778272

>  <SCORE.INTRA.norm>
-0.00445238

>  <SCORE.RESTR>
0

>  <SCORE.RESTR.CAVITY>
0

>  <SCORE.RESTR.norm>
0

>  <SCORE.SYSTEM>
0

>  <SCORE.SYSTEM.CONST>
0

>  <SCORE.SYSTEM.DIHEDRAL>
0

>  <SCORE.SYSTEM.SOLV>
0

>  <SCORE.SYSTEM.norm>
0

>  <SCORE.heavy>
22

>  <SCORE.norm>
-0.480375

>  <RMSD>
6.893

$$$$
ligand
 OpenBabel11021811503D
libRbt.so/2013.1/901 2013/11/27
 22 24  0  0  0  0  0  0  0  0999 V2000
    4.7664    3.0232   23.1477 C   0  0  0  0  0  0  0  0  0  0  0  0
    3.8760    2.8110   24.2213 C   0  0  0  0  0  0  0  0  0  0  0  0
    3.2570    3.9038   24.8223 C   0  0  0  0  0  0  0  0  0  0  0  0
    3.5297    5.1996   24.3505 C   0  0  0  0  0  0  0  0  0  0  0  0
    4.4307    5.4148   23.2788 C   0  0  0  0  0  0  0  0  0  0  0  0
    5.0475    4.3240   22.6813 C   0  0  0  0  0  0  0  0  0  0  0  0
    5.4733    1.8260   22.4833 C   0  0  0  0  0  0  0  0  0  0  0  0
    4.5319    0.8247   21.7685 C   0  0  0  0  0  0  0  0  0  0  0  0
    3.5711    1.4799   20.7830 C   0  0  0  0  0  0  0  0  0  0  0  0
    2.2066    1.6620   21.0277 C   0  0  0  0  0  0  0  0  0  0  0  0
    1.6891    2.2783   19.9329 N   0  0  0  0  0  0  0  0  0  0  0  0
    2.6441    2.5179   18.9651 C   0  0  0  0  0  0  0  0  0  0  0  0
    3.8496    2.0319   19.4592 C   0  0  0  0  0  0  0  0  0  0  0  0
    5.0155    2.1739   18.6148 C   0  0  0  0  0  0  0  0  0  0  0  0
    6.2570    1.7174   19.0488 O   0  0  0  0  0  0  0  0  0  0  0  0
    4.8778    2.7676   17.3672 N   0  0  0  0  0  0  0  0  0  0  0  0
    3.6751    3.2395   16.9274 C   0  0  0  0  0  0  0  0  0  0  0  0
    2.5726    3.1242   17.6842 N   0  0  0  0  0  0  0  0  0  0  0  0
    3.5830    3.8738   15.6084 N   0  0  0  0  0  0  0  0  0  0  0  0
    2.8506    6.3636   25.0223 C   0  0  0  0  0  0  0  0  0  0  0  0
    1.8372    6.8560   24.5298 O   0  0  0  0  0  0  0  0  0  0  0  0
    3.4118    6.8875   26.2391 N   0  0  0  0  0  0  0  0  0  0  0  0
  1  2  2  0  0  0  0
  1  6  1  0  0  0  0
  1  7  1  0  0  0  0
  2  3  1  0  0  0  0
  3  4  2  0  0  0  0
  4  5  1  0  0  0  0
  4 20  1  0  0  0  0
  5  6  2  0  0  0  0
  7  8  1  0  0  0  0
  8  9  1  0  0  0  0
  9 10  2  0  0  0  0
  9 13  1  0  0  0  0
 10 11  1  0  0  0  0
 11 12  1  0  0  0  0
 12 13  2  0  0  0  0
 12 18  1  0  0  0  0
 13 14  1  0  0  0  0
 14 15  1  0  0  0  0
 14 16  2  0  0  0  0
 16 17  1  0  0  0  0
 17 18  2  0  0  0  0
 17 19  1  0  0  0  0
 20 21  2  0  0  0  0
 20 22  1  0  0  0  0
M  END
>  <CHROM.1>
64.23401246,-97.91766644,51.63311076,-105.50137703,3.77672148,3.38800204
21.23115638,-1.72699729,1.00886074,-1.84147448

>  <Name>
ligand

>  <RI>
0

>  <Rbt.Current_Directory>
/home/itssahil/PROJECTS/Mol_Feturizer/New_Systems/rnas/4LVY

>  <Rbt.Executable>
rbdock ($Id: //depot/dev/client3/rdock/2013.1/src/exe/rbdock.cxx#4 $)

>  <Rbt.Library>
libRbt.so (2013.1, Build901 2013/11/27)

>  <Rbt.Parameter_File>
/export/apps/rDock/src/rDock_2013.1_src/data/scripts/dock_solv.prm

>  <Rbt.Receptor>
prm/pocket_docking_5.prm

>  <SCORE>
-11.4531

>  <SCORE.INTER>
-10.319

>  <SCORE.INTER.CONST>
1

>  <SCORE.INTER.POLAR>
0

>  <SCORE.INTER.ROT>
4

>  <SCORE.INTER.SOLV>
6.89591

>  <SCORE.INTER.VDW>
-15.4446

>  <SCORE.INTER.norm>
-0.469045

>  <SCORE.INTRA>
-1.13412

>  <SCORE.INTRA.DIHEDRAL>
0.284095

>  <SCORE.INTRA.DIHEDRAL.0>
6.18831

>  <SCORE.INTRA.POLAR>
0

>  <SCORE.INTRA.POLAR.0>
0

>  <SCORE.INTRA.REPUL>
0

>  <SCORE.INTRA.REPUL.0>
0

>  <SCORE.INTRA.SOLV>
0.223841

>  <SCORE.INTRA.SOLV.lig_0>
-44.3465

>  <SCORE.INTRA.VDW>
-1.38809

>  <SCORE.INTRA.VDW.0>
-0.778272

>  <SCORE.INTRA.norm>
-0.0515508

>  <SCORE.RESTR>
0

>  <SCORE.RESTR.CAVITY>
0

>  <SCORE.RESTR.norm>
0

>  <SCORE.SYSTEM>
0

>  <SCORE.SYSTEM.CONST>
0

>  <SCORE.SYSTEM.DIHEDRAL>
0

>  <SCORE.SYSTEM.SOLV>
0

>  <SCORE.SYSTEM.norm>
0

>  <SCORE.heavy>
22

>  <SCORE.norm>
-0.520595

>  <RMSD>
6.895

$$$$
ligand
 OpenBabel11021811503D
libRbt.so/2013.1/901 2013/11/27
 22 24  0  0  0  0  0  0  0  0999 V2000
    0.3041    5.3136   23.6050 C   0  0  0  0  0  0  0  0  0  0  0  0
    1.5800    4.7113   23.6203 C   0  0  0  0  0  0  0  0  0  0  0  0
    2.6818    5.4544   24.0352 C   0  0  0  0  0  0  0  0  0  0  0  0
    2.5055    6.7917   24.4310 C   0  0  0  0  0  0  0  0  0  0  0  0
    1.2266    7.4005   24.4070 C   0  0  0  0  0  0  0  0  0  0  0  0
    0.1292    6.6582   23.9923 C   0  0  0  0  0  0  0  0  0  0  0  0
   -0.9227    4.5105   23.1315 C   0  0  0  0  0  0  0  0  0  0  0  0
   -1.6903    5.1316   21.9378 C   0  0  0  0  0  0  0  0  0  0  0  0
   -0.7847    5.7474   20.8776 C   0  0  0  0  0  0  0  0  0  0  0  0
   -0.7624    7.1104   20.5666 C   0  0  0  0  0  0  0  0  0  0  0  0
    0.1651    7.2758   19.5876 N   0  0  0  0  0  0  0  0  0  0  0  0
    0.7662    6.0861   19.2279 C   0  0  0  0  0  0  0  0  0  0  0  0
    0.1989    5.0926   20.0182 C   0  0  0  0  0  0  0  0  0  0  0  0
    0.6762    3.7409   19.8247 C   0  0  0  0  0  0  0  0  0  0  0  0
    0.1589    2.6973   20.5871 O   0  0  0  0  0  0  0  0  0  0  0  0
    1.6530    3.4999   18.8677 N   0  0  0  0  0  0  0  0  0  0  0  0
    2.1888    4.5089   18.1211 C   0  0  0  0  0  0  0  0  0  0  0  0
    1.7694    5.7748   18.2738 N   0  0  0  0  0  0  0  0  0  0  0  0
    3.2302    4.2068   17.1339 N   0  0  0  0  0  0  0  0  0  0  0  0
    3.7150    7.5737   24.8700 C   0  0  0  0  0  0  0  0  0  0  0  0
    4.2264    8.3973   24.1137 O   0  0  0  0  0  0  0  0  0  0  0  0
    4.2594    7.3338   26.1801 N   0  0  0  0  0  0  0  0  0  0  0  0
  1  2  2  0  0  0  0
  1  6  1  0  0  0  0
  1  7  1  0  0  0  0
  2  3  1  0  0  0  0
  3  4  2  0  0  0  0
  4  5  1  0  0  0  0
  4 20  1  0  0  0  0
  5  6  2  0  0  0  0
  7  8  1  0  0  0  0
  8  9  1  0  0  0  0
  9 10  2  0  0  0  0
  9 13  1  0  0  0  0
 10 11  1  0  0  0  0
 11 12  1  0  0  0  0
 12 13  2  0  0  0  0
 12 18  1  0  0  0  0
 13 14  1  0  0  0  0
 14 15  1  0  0  0  0
 14 16  2  0  0  0  0
 16 17  1  0  0  0  0
 17 18  2  0  0  0  0
 17 19  1  0  0  0  0
 20 21  2  0  0  0  0
 20 22  1  0  0  0  0
M  END
>  <CHROM.1>
-122.02965775,103.14791228,39.46830433,-115.69494603,1.26447062,5.66446875
21.67133022,1.28410564,0.32601467,1.26314453

>  <Name>
ligand

>  <RI>
0

>  <Rbt.Current_Directory>
/home/itssahil/PROJECTS/Mol_Feturizer/New_Systems/rnas/4LVY

>  <Rbt.Executable>
rbdock ($Id: //depot/dev/client3/rdock/2013.1/src/exe/rbdock.cxx#4 $)

>  <Rbt.Library>
libRbt.so (2013.1, Build901 2013/11/27)

>  <Rbt.Parameter_File>
/export/apps/rDock/src/rDock_2013.1_src/data/scripts/dock_solv.prm

>  <Rbt.Receptor>
prm/pocket_docking_7.prm

>  <SCORE>
-15.2358

>  <SCORE.INTER>
-14.6575

>  <SCORE.INTER.CONST>
1

>  <SCORE.INTER.POLAR>
0

>  <SCORE.INTER.ROT>
4

>  <SCORE.INTER.SOLV>
7.48196

>  <SCORE.INTER.VDW>
-18.5323

>  <SCORE.INTER.norm>
-0.666251

>  <SCORE.INTRA>
-0.57828

>  <SCORE.INTRA.DIHEDRAL>
1.65421

>  <SCORE.INTRA.DIHEDRAL.0>
6.18831

>  <SCORE.INTRA.POLAR>
0

>  <SCORE.INTRA.POLAR.0>
0

>  <SCORE.INTRA.REPUL>
0

>  <SCORE.INTRA.REPUL.0>
0

>  <SCORE.INTRA.SOLV>
0.272497

>  <SCORE.INTRA.SOLV.lig_0>
-44.3465

>  <SCORE.INTRA.VDW>
-1.54163

>  <SCORE.INTRA.VDW.0>
-0.778272

>  <SCORE.INTRA.norm>
-0.0262854

>  <SCORE.RESTR>
0

>  <SCORE.RESTR.CAVITY>
0

>  <SCORE.RESTR.norm>
0

>  <SCORE.SYSTEM>
0

>  <SCORE.SYSTEM.CONST>
0

>  <SCORE.SYSTEM.DIHEDRAL>
0

>  <SCORE.SYSTEM.SOLV>
0

>  <SCORE.SYSTEM.norm>
0

>  <SCORE.heavy>
22

>  <SCORE.norm>
-0.692536

>  <RMSD>
6.906

$$$$
ligand
 OpenBabel11021811503D
libRbt.so/2013.1/901 2013/11/27
 22 24  0  0  0  0  0  0  0  0999 V2000
    4.5421    2.5881   23.6393 C   0  0  0  0  0  0  0  0  0  0  0  0
    5.4946    3.6195   23.7793 C   0  0  0  0  0  0  0  0  0  0  0  0
    5.0806    4.8797   24.2023 C   0  0  0  0  0  0  0  0  0  0  0  0
    3.7213    5.1040   24.4820 C   0  0  0  0  0  0  0  0  0  0  0  0
    2.7624    4.0719   24.3327 C   0  0  0  0  0  0  0  0  0  0  0  0
    3.1771    2.8163   23.9101 C   0  0  0  0  0  0  0  0  0  0  0  0
    4.9811    1.1929   23.1549 C   0  0  0  0  0  0  0  0  0  0  0  0
    5.2763    1.0900   21.6376 C   0  0  0  0  0  0  0  0  0  0  0  0
    4.1251    1.5565   20.7540 C   0  0  0  0  0  0  0  0  0  0  0  0
    2.7839    1.5439   21.1488 C   0  0  0  0  0  0  0  0  0  0  0  0
    2.0621    2.0333   20.1070 N   0  0  0  0  0  0  0  0  0  0  0  0
    2.8579    2.3738   19.0313 C   0  0  0  0  0  0  0  0  0  0  0  0
    4.1699    2.0914   19.3951 C   0  0  0  0  0  0  0  0  0  0  0  0
    5.2011    2.3714   18.4201 C   0  0  0  0  0  0  0  0  0  0  0  0
    6.5375    2.1212   18.7195 O   0  0  0  0  0  0  0  0  0  0  0  0
    4.8391    2.8888   17.1835 N   0  0  0  0  0  0  0  0  0  0  0  0
    3.5379    3.1598   16.8736 C   0  0  0  0  0  0  0  0  0  0  0  0
    2.5553    2.9122   17.7538 N   0  0  0  0  0  0  0  0  0  0  0  0
    3.2067    3.7214   15.5600 N   0  0  0  0  0  0  0  0  0  0  0  0
    3.3004    6.4776   24.9327 C   0  0  0  0  0  0  0  0  0  0  0  0
    3.4572    6.8190   26.1035 O   0  0  0  0  0  0  0  0  0  0  0  0
    2.7095    7.3727   23.9736 N   0  0  0  0  0  0  0  0  0  0  0  0
  1  2  2  0  0  0  0
  1  6  1  0  0  0  0
  1  7  1  0  0  0  0
  2  3  1  0  0  0  0
  3  4  2  0  0  0  0
  4  5  1  0  0  0  0
  4 20  1  0  0  0  0
  5  6  2  0  0  0  0
  7  8  1  0  0  0  0
  8  9  1  0  0  0  0
  9 10  2  0  0  0  0
  9 13  1  0  0  0  0
 10 11  1  0  0  0  0
 11 12  1  0  0  0  0
 12 13  2  0  0  0  0
 12 18  1  0  0  0  0
 13 14  1  0  0  0  0
 14 15  1  0  0  0  0
 14 16  2  0  0  0  0
 16 17  1  0  0  0  0
 17 18  2  0  0  0  0
 17 19  1  0  0  0  0
 20 21  2  0  0  0  0
 20 22  1  0  0  0  0
M  END
>  <CHROM.1>
-75.65496869,-80.27335314,-54.59518524,-25.74428912,3.94341590,3.32775259
21.28404419,-1.66433653,1.09427066,-1.86413664

>  <Name>
ligand

>  <RI>
0

>  <Rbt.Current_Directory>
/home/itssahil/PROJECTS/Mol_Feturizer/New_Systems/rnas/4LVY

>  <Rbt.Executable>
rbdock ($Id: //depot/dev/client3/rdock/2013.1/src/exe/rbdock.cxx#4 $)

>  <Rbt.Library>
libRbt.so (2013.1, Build901 2013/11/27)

>  <Rbt.Parameter_File>
/export/apps/rDock/src/rDock_2013.1_src/data/scripts/dock_solv.prm

>  <Rbt.Receptor>
prm/pocket_docking_5.prm

>  <SCORE>
-10.8663

>  <SCORE.INTER>
-10.2138

>  <SCORE.INTER.CONST>
1

>  <SCORE.INTER.POLAR>
0

>  <SCORE.INTER.ROT>
4

>  <SCORE.INTER.SOLV>
5.53644

>  <SCORE.INTER.VDW>
-14.9213

>  <SCORE.INTER.norm>
-0.464263

>  <SCORE.INTRA>
-0.652504

>  <SCORE.INTRA.DIHEDRAL>
0.0891063

>  <SCORE.INTRA.DIHEDRAL.0>
6.18831

>  <SCORE.INTRA.POLAR>
0

>  <SCORE.INTRA.POLAR.0>
0

>  <SCORE.INTRA.REPUL>
0

>  <SCORE.INTRA.REPUL.0>
0

>  <SCORE.INTRA.SOLV>
-0.00706814

>  <SCORE.INTRA.SOLV.lig_0>
-44.3465

>  <SCORE.INTRA.VDW>
-0.693523

>  <SCORE.INTRA.VDW.0>
-0.778272

>  <SCORE.INTRA.norm>
-0.0296593

>  <SCORE.RESTR>
0

>  <SCORE.RESTR.CAVITY>
0

>  <SCORE.RESTR.norm>
0

>  <SCORE.SYSTEM>
0

>  <SCORE.SYSTEM.CONST>
0

>  <SCORE.SYSTEM.DIHEDRAL>
0

>  <SCORE.SYSTEM.SOLV>
0

>  <SCORE.SYSTEM.norm>
0

>  <SCORE.heavy>
22

>  <SCORE.norm>
-0.493922

>  <RMSD>
6.937

$$$$
ligand
 OpenBabel11021811503D
libRbt.so/2013.1/901 2013/11/27
 22 24  0  0  0  0  0  0  0  0999 V2000
    1.5017    4.0024   22.7160 C   0  0  0  0  0  0  0  0  0  0  0  0
    2.3036    2.9260   23.1507 C   0  0  0  0  0  0  0  0  0  0  0  0
    3.1751    3.1111   24.2205 C   0  0  0  0  0  0  0  0  0  0  0  0
    3.2425    4.3667   24.8492 C   0  0  0  0  0  0  0  0  0  0  0  0
    2.4448    5.4510   24.4076 C   0  0  0  0  0  0  0  0  0  0  0  0
    1.5770    5.2647   23.3403 C   0  0  0  0  0  0  0  0  0  0  0  0
    0.5452    3.8192   21.5220 C   0  0  0  0  0  0  0  0  0  0  0  0
    0.7049    2.4828   20.7549 C   0  0  0  0  0  0  0  0  0  0  0  0
    2.1063    2.2558   20.2000 C   0  0  0  0  0  0  0  0  0  0  0  0
    3.0611    1.4328   20.8050 C   0  0  0  0  0  0  0  0  0  0  0  0
    4.1716    1.4776   20.0234 N   0  0  0  0  0  0  0  0  0  0  0  0
    4.0053    2.2929   18.9217 C   0  0  0  0  0  0  0  0  0  0  0  0
    2.7143    2.8050   18.9903 C   0  0  0  0  0  0  0  0  0  0  0  0
    2.2993    3.6958   17.9289 C   0  0  0  0  0  0  0  0  0  0  0  0
    1.0176    4.2392   17.9288 O   0  0  0  0  0  0  0  0  0  0  0  0
    3.1967    4.0025   16.9147 N   0  0  0  0  0  0  0  0  0  0  0  0
    4.4519    3.4678   16.8830 C   0  0  0  0  0  0  0  0  0  0  0  0
    4.8707    2.6381   17.8515 N   0  0  0  0  0  0  0  0  0  0  0  0
    5.3584    3.8091   15.7820 N   0  0  0  0  0  0  0  0  0  0  0  0
    4.1974    4.5405   26.0003 C   0  0  0  0  0  0  0  0  0  0  0  0
    4.6683    5.6485   26.2507 O   0  0  0  0  0  0  0  0  0  0  0  0
    4.5497    3.3909   26.7904 N   0  0  0  0  0  0  0  0  0  0  0  0
  1  2  2  0  0  0  0
  1  6  1  0  0  0  0
  1  7  1  0  0  0  0
  2  3  1  0  0  0  0
  3  4  2  0  0  0  0
  4  5  1  0  0  0  0
  4 20  1  0  0  0  0
  5  6  2  0  0  0  0
  7  8  1  0  0  0  0
  8  9  1  0  0  0  0
  9 10  2  0  0  0  0
  9 13  1  0  0  0  0
 10 11  1  0  0  0  0
 11 12  1  0  0  0  0
 12 13  2  0  0  0  0
 12 18  1  0  0  0  0
 13 14  1  0  0  0  0
 14 15  1  0  0  0  0
 14 16  2  0  0  0  0
 16 17  1  0  0  0  0
 17 18  2  0  0  0  0
 17 19  1  0  0  0  0
 20 21  2  0  0  0  0
 20 22  1  0  0  0  0
M  END
>  <CHROM.1>
-8.63675590,152.60459727,-57.84835997,100.52654220,3.01885949,3.52517097
21.15664316,1.57488866,-0.08617887,1.42238549

>  <Name>
ligand

>  <RI>
0

>  <Rbt.Current_Directory>
/home/itssahil/PROJECTS/Mol_Feturizer/New_Systems/rnas/4LVY

>  <Rbt.Executable>
rbdock ($Id: //depot/dev/client3/rdock/2013.1/src/exe/rbdock.cxx#4 $)

>  <Rbt.Library>
libRbt.so (2013.1, Build901 2013/11/27)

>  <Rbt.Parameter_File>
/export/apps/rDock/src/rDock_2013.1_src/data/scripts/dock_solv.prm

>  <Rbt.Receptor>
prm/pocket_docking_7.prm

>  <SCORE>
-13.9887

>  <SCORE.INTER>
-14.0477

>  <SCORE.INTER.CONST>
1

>  <SCORE.INTER.POLAR>
0

>  <SCORE.INTER.ROT>
4

>  <SCORE.INTER.SOLV>
7.09836

>  <SCORE.INTER.VDW>
-17.9979

>  <SCORE.INTER.norm>
-0.638533

>  <SCORE.INTRA>
0.0590723

>  <SCORE.INTRA.DIHEDRAL>
0.073367

>  <SCORE.INTRA.DIHEDRAL.0>
6.18831

>  <SCORE.INTRA.POLAR>
0

>  <SCORE.INTRA.POLAR.0>
0

>  <SCORE.INTRA.REPUL>
0

>  <SCORE.INTRA.REPUL.0>
0

>  <SCORE.INTRA.SOLV>
0.210549

>  <SCORE.INTRA.SOLV.lig_0>
-44.3465

>  <SCORE.INTRA.VDW>
-0.0828857

>  <SCORE.INTRA.VDW.0>
-0.778272

>  <SCORE.INTRA.norm>
0.0026851

>  <SCORE.RESTR>
0

>  <SCORE.RESTR.CAVITY>
0

>  <SCORE.RESTR.norm>
0

>  <SCORE.SYSTEM>
0

>  <SCORE.SYSTEM.CONST>
0

>  <SCORE.SYSTEM.DIHEDRAL>
0

>  <SCORE.SYSTEM.SOLV>
0

>  <SCORE.SYSTEM.norm>
0

>  <SCORE.heavy>
22

>  <SCORE.norm>
-0.635848

>  <RMSD>
6.951

$$$$
ligand
 OpenBabel11021811503D
libRbt.so/2013.1/901 2013/11/27
 22 24  0  0  0  0  0  0  0  0999 V2000
    4.5975    2.5148   23.5926 C   0  0  0  0  0  0  0  0  0  0  0  0
    3.2530    2.7467   23.9521 C   0  0  0  0  0  0  0  0  0  0  0  0
    2.8845    3.9921   24.4537 C   0  0  0  0  0  0  0  0  0  0  0  0
    3.8573    4.9971   24.5944 C   0  0  0  0  0  0  0  0  0  0  0  0
    5.2094    4.7626   24.2427 C   0  0  0  0  0  0  0  0  0  0  0  0
    5.5750    3.5199   23.7434 C   0  0  0  0  0  0  0  0  0  0  0  0
    5.0252    1.1364   23.0529 C   0  0  0  0  0  0  0  0  0  0  0  0
    5.3088    1.0892   21.5306 C   0  0  0  0  0  0  0  0  0  0  0  0
    4.1436    1.5685   20.6727 C   0  0  0  0  0  0  0  0  0  0  0  0
    2.8119    1.5750   21.0988 C   0  0  0  0  0  0  0  0  0  0  0  0
    2.0725    2.0711   20.0725 N   0  0  0  0  0  0  0  0  0  0  0  0
    2.8474    2.3978   18.9775 C   0  0  0  0  0  0  0  0  0  0  0  0
    4.1637    2.0991   19.3115 C   0  0  0  0  0  0  0  0  0  0  0  0
    5.1754    2.3625   18.3118 C   0  0  0  0  0  0  0  0  0  0  0  0
    6.5150    2.0953   18.5807 O   0  0  0  0  0  0  0  0  0  0  0  0
    4.7915    2.8812   17.0824 N   0  0  0  0  0  0  0  0  0  0  0  0
    3.4872    3.1687   16.8021 C   0  0  0  0  0  0  0  0  0  0  0  0
    2.5222    2.9367   17.7058 N   0  0  0  0  0  0  0  0  0  0  0  0
    3.1328    3.7310   15.4948 N   0  0  0  0  0  0  0  0  0  0  0  0
    3.4322    6.3328   25.1443 C   0  0  0  0  0  0  0  0  0  0  0  0
    2.8053    7.1206   24.4383 O   0  0  0  0  0  0  0  0  0  0  0  0
    3.7781    6.6679   26.5000 N   0  0  0  0  0  0  0  0  0  0  0  0
  1  2  2  0  0  0  0
  1  6  1  0  0  0  0
  1  7  1  0  0  0  0
  2  3  1  0  0  0  0
  3  4  2  0  0  0  0
  4  5  1  0  0  0  0
  4 20  1  0  0  0  0
  5  6  2  0  0  0  0
  7  8  1  0  0  0  0
  8  9  1  0  0  0  0
  9 10  2  0  0  0  0
  9 13  1  0  0  0  0
 10 11  1  0  0  0  0
 11 12  1  0  0  0  0
 12 13  2  0  0  0  0
 12 18  1  0  0  0  0
 13 14  1  0  0  0  0
 14 15  1  0  0  0  0
 14 16  2  0  0  0  0
 16 17  1  0  0  0  0
 17 18  2  0  0  0  0
 17 19  1  0  0  0  0
 20 21  2  0  0  0  0
 20 22  1  0  0  0  0
M  END
>  <CHROM.1>
106.15874210,-75.44126794,-55.74903784,-22.96871863,3.98339159,3.28316780
21.28425426,-1.61309771,1.05572114,-1.88373857

>  <Name>
ligand

>  <RI>
0

>  <Rbt.Current_Directory>
/home/itssahil/PROJECTS/Mol_Feturizer/New_Systems/rnas/4LVY

>  <Rbt.Executable>
rbdock ($Id: //depot/dev/client3/rdock/2013.1/src/exe/rbdock.cxx#4 $)

>  <Rbt.Library>
libRbt.so (2013.1, Build901 2013/11/27)

>  <Rbt.Parameter_File>
/export/apps/rDock/src/rDock_2013.1_src/data/scripts/dock_solv.prm

>  <Rbt.Receptor>
prm/pocket_docking_6.prm

>  <SCORE>
-10.6452

>  <SCORE.INTER>
-10.0711

>  <SCORE.INTER.CONST>
1

>  <SCORE.INTER.POLAR>
0

>  <SCORE.INTER.ROT>
4

>  <SCORE.INTER.SOLV>
5.8485

>  <SCORE.INTER.VDW>
-14.9302

>  <SCORE.INTER.norm>
-0.457776

>  <SCORE.INTRA>
-0.574172

>  <SCORE.INTRA.DIHEDRAL>
0.155994

>  <SCORE.INTRA.DIHEDRAL.0>
6.18831

>  <SCORE.INTRA.POLAR>
0

>  <SCORE.INTRA.POLAR.0>
0

>  <SCORE.INTRA.REPUL>
0

>  <SCORE.INTRA.REPUL.0>
0

>  <SCORE.INTRA.SOLV>
-0.00653112

>  <SCORE.INTRA.SOLV.lig_0>
-44.3465

>  <SCORE.INTRA.VDW>
-0.648903

>  <SCORE.INTRA.VDW.0>
-0.778272

>  <SCORE.INTRA.norm>
-0.0260987

>  <SCORE.RESTR>
0

>  <SCORE.RESTR.CAVITY>
0

>  <SCORE.RESTR.norm>
0

>  <SCORE.SYSTEM>
0

>  <SCORE.SYSTEM.CONST>
0

>  <SCORE.SYSTEM.DIHEDRAL>
0

>  <SCORE.SYSTEM.SOLV>
0

>  <SCORE.SYSTEM.norm>
0

>  <SCORE.heavy>
22

>  <SCORE.norm>
-0.483875

>  <RMSD>
6.954

$$$$
ligand
 OpenBabel11021811503D
libRbt.so/2013.1/901 2013/11/27
 22 24  0  0  0  0  0  0  0  0999 V2000
    0.3640    4.4711   22.8728 C   0  0  0  0  0  0  0  0  0  0  0  0
    1.6338    3.8818   23.0491 C   0  0  0  0  0  0  0  0  0  0  0  0
    2.5889    4.5346   23.8237 C   0  0  0  0  0  0  0  0  0  0  0  0
    2.2731    5.7696   24.4163 C   0  0  0  0  0  0  0  0  0  0  0  0
    1.0019    6.3670   24.2323 C   0  0  0  0  0  0  0  0  0  0  0  0
    0.0511    5.7149   23.4590 C   0  0  0  0  0  0  0  0  0  0  0  0
   -0.6980    3.7704   22.0038 C   0  0  0  0  0  0  0  0  0  0  0  0
   -0.1371    2.7554   20.9766 C   0  0  0  0  0  0  0  0  0  0  0  0
    0.8653    3.3591   19.9998 C   0  0  0  0  0  0  0  0  0  0  0  0
    0.5921    4.4602   19.1825 C   0  0  0  0  0  0  0  0  0  0  0  0
    1.7184    4.7061   18.4635 N   0  0  0  0  0  0  0  0  0  0  0  0
    2.7348    3.8204   18.7614 C   0  0  0  0  0  0  0  0  0  0  0  0
    2.2421    2.9517   19.7289 C   0  0  0  0  0  0  0  0  0  0  0  0
    3.1369    1.9222   20.2104 C   0  0  0  0  0  0  0  0  0  0  0  0
    2.7133    1.0228   21.1849 O   0  0  0  0  0  0  0  0  0  0  0  0
    4.4198    1.8426   19.6854 N   0  0  0  0  0  0  0  0  0  0  0  0
    4.8642    2.7242   18.7431 C   0  0  0  0  0  0  0  0  0  0  0  0
    4.0610    3.6916   18.2733 N   0  0  0  0  0  0  0  0  0  0  0  0
    6.2334    2.6096   18.2307 N   0  0  0  0  0  0  0  0  0  0  0  0
    3.3266    6.4562   25.2446 C   0  0  0  0  0  0  0  0  0  0  0  0
    3.5986    7.6382   25.0423 O   0  0  0  0  0  0  0  0  0  0  0  0
    4.0073    5.7043   26.2651 N   0  0  0  0  0  0  0  0  0  0  0  0
  1  2  2  0  0  0  0
  1  6  1  0  0  0  0
  1  7  1  0  0  0  0
  2  3  1  0  0  0  0
  3  4  2  0  0  0  0
  4  5  1  0  0  0  0
  4 20  1  0  0  0  0
  5  6  2  0  0  0  0
  7  8  1  0  0  0  0
  8  9  1  0  0  0  0
  9 10  2  0  0  0  0
  9 13  1  0  0  0  0
 10 11  1  0  0  0  0
 11 12  1  0  0  0  0
 12 13  2  0  0  0  0
 12 18  1  0  0  0  0
 13 14  1  0  0  0  0
 14 15  1  0  0  0  0
 14 16  2  0  0  0  0
 16 17  1  0  0  0  0
 17 18  2  0  0  0  0
 17 19  1  0  0  0  0
 20 21  2  0  0  0  0
 20 22  1  0  0  0  0
M  END
>  <CHROM.1>
-21.85876695,129.76490554,-57.75918311,-56.03251716,2.38951674,4.07997511
21.53458633,1.74712845,0.00618340,1.05410433

>  <Name>
ligand

>  <RI>
0

>  <Rbt.Current_Directory>
/home/itssahil/PROJECTS/Mol_Feturizer/New_Systems/rnas/4LVY

>  <Rbt.Executable>
rbdock ($Id: //depot/dev/client3/rdock/2013.1/src/exe/rbdock.cxx#4 $)

>  <Rbt.Library>
libRbt.so (2013.1, Build901 2013/11/27)

>  <Rbt.Parameter_File>
/export/apps/rDock/src/rDock_2013.1_src/data/scripts/dock_solv.prm

>  <Rbt.Receptor>
prm/pocket_docking_8.prm

>  <SCORE>
-14.8199

>  <SCORE.INTER>
-14.2047

>  <SCORE.INTER.CONST>
1

>  <SCORE.INTER.POLAR>
0

>  <SCORE.INTER.ROT>
4

>  <SCORE.INTER.SOLV>
9.76482

>  <SCORE.INTER.VDW>
-18.9914

>  <SCORE.INTER.norm>
-0.645666

>  <SCORE.INTRA>
-0.615256

>  <SCORE.INTRA.DIHEDRAL>
0.106234

>  <SCORE.INTRA.DIHEDRAL.0>
6.18831

>  <SCORE.INTRA.POLAR>
0

>  <SCORE.INTRA.POLAR.0>
0

>  <SCORE.INTRA.REPUL>
0

>  <SCORE.INTRA.REPUL.0>
0

>  <SCORE.INTRA.SOLV>
0.0937452

>  <SCORE.INTRA.SOLV.lig_0>
-44.3465

>  <SCORE.INTRA.VDW>
-0.715246

>  <SCORE.INTRA.VDW.0>
-0.778272

>  <SCORE.INTRA.norm>
-0.0279662

>  <SCORE.RESTR>
0

>  <SCORE.RESTR.CAVITY>
0

>  <SCORE.RESTR.norm>
0

>  <SCORE.SYSTEM>
0

>  <SCORE.SYSTEM.CONST>
0

>  <SCORE.SYSTEM.DIHEDRAL>
0

>  <SCORE.SYSTEM.SOLV>
0

>  <SCORE.SYSTEM.norm>
0

>  <SCORE.heavy>
22

>  <SCORE.norm>
-0.673632

>  <RMSD>
6.967

$$$$
ligand
 OpenBabel11021811503D
libRbt.so/2013.1/901 2013/11/27
 22 24  0  0  0  0  0  0  0  0999 V2000
   -0.8114    6.0986   20.7719 C   0  0  0  0  0  0  0  0  0  0  0  0
    0.3589    5.8012   20.0421 C   0  0  0  0  0  0  0  0  0  0  0  0
    0.9398    6.7877   19.2498 C   0  0  0  0  0  0  0  0  0  0  0  0
    0.3509    8.0627   19.1892 C   0  0  0  0  0  0  0  0  0  0  0  0
   -0.8295    8.3599   19.9140 C   0  0  0  0  0  0  0  0  0  0  0  0
   -1.4076    7.3747   20.7029 C   0  0  0  0  0  0  0  0  0  0  0  0
   -1.4767    5.0128   21.6393 C   0  0  0  0  0  0  0  0  0  0  0  0
   -0.5626    4.3914   22.7248 C   0  0  0  0  0  0  0  0  0  0  0  0
    0.2627    5.4162   23.4942 C   0  0  0  0  0  0  0  0  0  0  0  0
   -0.1972    6.6922   23.8338 C   0  0  0  0  0  0  0  0  0  0  0  0
    0.8072    7.3050   24.5132 N   0  0  0  0  0  0  0  0  0  0  0  0
    1.9199    6.4983   24.6451 C   0  0  0  0  0  0  0  0  0  0  0  0
    1.6212    5.2937   24.0180 C   0  0  0  0  0  0  0  0  0  0  0  0
    2.6450    4.2719   24.0273 C   0  0  0  0  0  0  0  0  0  0  0  0
    2.4118    3.0384   23.4256 O   0  0  0  0  0  0  0  0  0  0  0  0
    3.8615    4.5400   24.6408 N   0  0  0  0  0  0  0  0  0  0  0  0
    4.1069    5.7346   25.2534 C   0  0  0  0  0  0  0  0  0  0  0  0
    3.1801    6.7055   25.2636 N   0  0  0  0  0  0  0  0  0  0  0  0
    5.4016    5.9648   25.9023 N   0  0  0  0  0  0  0  0  0  0  0  0
    0.9970    9.1091   18.3203 C   0  0  0  0  0  0  0  0  0  0  0  0
    0.4862    9.4221   17.2465 O   0  0  0  0  0  0  0  0  0  0  0  0
    2.2183    9.7250   18.7663 N   0  0  0  0  0  0  0  0  0  0  0  0
  1  2  2  0  0  0  0
  1  6  1  0  0  0  0
  1  7  1  0  0  0  0
  2  3  1  0  0  0  0
  3  4  2  0  0  0  0
  4  5  1  0  0  0  0
  4 20  1  0  0  0  0
  5  6  2  0  0  0  0
  7  8  1  0  0  0  0
  8  9  1  0  0  0  0
  9 10  2  0  0  0  0
  9 13  1  0  0  0  0
 10 11  1  0  0  0  0
 11 12  1  0  0  0  0
 12 13  2  0  0  0  0
 12 18  1  0  0  0  0
 13 14  1  0  0  0  0
 14 15  1  0  0  0  0
 14 16  2  0  0  0  0
 16 17  1  0  0  0  0
 17 18  2  0  0  0  0
 17 19  1  0  0  0  0
 20 21  2  0  0  0  0
 20 22  1  0  0  0  0
M  END
>  <CHROM.1>
57.36624033,105.53216293,44.27714427,35.88373463,1.23683347,6.42079152,22.16995273
2.02467886,-0.47835788,-0.87392896

>  <Name>
ligand

>  <RI>
0

>  <Rbt.Current_Directory>
/home/itssahil/PROJECTS/Mol_Feturizer/New_Systems/rnas/4LVY

>  <Rbt.Executable>
rbdock ($Id: //depot/dev/client3/rdock/2013.1/src/exe/rbdock.cxx#4 $)

>  <Rbt.Library>
libRbt.so (2013.1, Build901 2013/11/27)

>  <Rbt.Parameter_File>
/export/apps/rDock/src/rDock_2013.1_src/data/scripts/dock_solv.prm

>  <Rbt.Receptor>
prm/pocket_docking_8.prm

>  <SCORE>
-14.8082

>  <SCORE.INTER>
-14.4312

>  <SCORE.INTER.CONST>
1

>  <SCORE.INTER.POLAR>
0

>  <SCORE.INTER.ROT>
4

>  <SCORE.INTER.SOLV>
8.09807

>  <SCORE.INTER.VDW>
-18.5869

>  <SCORE.INTER.norm>
-0.655966

>  <SCORE.INTRA>
-0.37698

>  <SCORE.INTRA.DIHEDRAL>
0.984489

>  <SCORE.INTRA.DIHEDRAL.0>
6.18831

>  <SCORE.INTRA.POLAR>
0

>  <SCORE.INTRA.POLAR.0>
0

>  <SCORE.INTRA.REPUL>
0

>  <SCORE.INTRA.REPUL.0>
0

>  <SCORE.INTRA.SOLV>
-0.00701063

>  <SCORE.INTRA.SOLV.lig_0>
-44.3465

>  <SCORE.INTRA.VDW>
-0.865719

>  <SCORE.INTRA.VDW.0>
-0.778272

>  <SCORE.INTRA.norm>
-0.0171354

>  <SCORE.RESTR>
0

>  <SCORE.RESTR.CAVITY>
0

>  <SCORE.RESTR.norm>
0

>  <SCORE.SYSTEM>
0

>  <SCORE.SYSTEM.CONST>
0

>  <SCORE.SYSTEM.DIHEDRAL>
0

>  <SCORE.SYSTEM.SOLV>
0

>  <SCORE.SYSTEM.norm>
0

>  <SCORE.heavy>
22

>  <SCORE.norm>
-0.673101

>  <RMSD>
6.993

$$$$
ligand
 OpenBabel11021811503D
libRbt.so/2013.1/901 2013/11/27
 22 24  0  0  0  0  0  0  0  0999 V2000
    0.3751    4.4679   22.8238 C   0  0  0  0  0  0  0  0  0  0  0  0
    1.6383    3.8951   23.0826 C   0  0  0  0  0  0  0  0  0  0  0  0
    2.5602    4.5941   23.8570 C   0  0  0  0  0  0  0  0  0  0  0  0
    2.2182    5.8585   24.3674 C   0  0  0  0  0  0  0  0  0  0  0  0
    0.9537    6.4389   24.1005 C   0  0  0  0  0  0  0  0  0  0  0  0
    0.0361    5.7407   23.3275 C   0  0  0  0  0  0  0  0  0  0  0  0
   -0.6498    3.7152   21.9537 C   0  0  0  0  0  0  0  0  0  0  0  0
   -0.0451    2.6544   21.0004 C   0  0  0  0  0  0  0  0  0  0  0  0
    0.9470    3.2259   19.9942 C   0  0  0  0  0  0  0  0  0  0  0  0
    0.6611    4.2922   19.1361 C   0  0  0  0  0  0  0  0  0  0  0  0
    1.7812    4.5171   18.4007 N   0  0  0  0  0  0  0  0  0  0  0  0
    2.8055    3.6506   18.7264 C   0  0  0  0  0  0  0  0  0  0  0  0
    2.3248    2.8174   19.7304 C   0  0  0  0  0  0  0  0  0  0  0  0
    3.2297    1.8135   20.2461 C   0  0  0  0  0  0  0  0  0  0  0  0
    2.8184    0.9503   21.2579 O   0  0  0  0  0  0  0  0  0  0  0  0
    4.5098    1.7218   19.7162 N   0  0  0  0  0  0  0  0  0  0  0  0
    4.9422    2.5686   18.7372 C   0  0  0  0  0  0  0  0  0  0  0  0
    4.1294    3.5115   18.2350 N   0  0  0  0  0  0  0  0  0  0  0  0
    6.3090    2.4432   18.2208 N   0  0  0  0  0  0  0  0  0  0  0  0
    3.2362    6.5947   25.1974 C   0  0  0  0  0  0  0  0  0  0  0  0
    3.5220    6.1933   26.3240 O   0  0  0  0  0  0  0  0  0  0  0  0
    3.8573    7.7721   24.6515 N   0  0  0  0  0  0  0  0  0  0  0  0
  1  2  2  0  0  0  0
  1  6  1  0  0  0  0
  1  7  1  0  0  0  0
  2  3  1  0  0  0  0
  3  4  2  0  0  0  0
  4  5  1  0  0  0  0
  4 20  1  0  0  0  0
  5  6  2  0  0  0  0
  7  8  1  0  0  0  0
  8  9  1  0  0  0  0
  9 10  2  0  0  0  0
  9 13  1  0  0  0  0
 10 11  1  0  0  0  0
 11 12  1  0  0  0  0
 12 13  2  0  0  0  0
 12 18  1  0  0  0  0
 13 14  1  0  0  0  0
 14 15  1  0  0  0  0
 14 16  2  0  0  0  0
 16 17  1  0  0  0  0
 17 18  2  0  0  0  0
 17 19  1  0  0  0  0
 20 21  2  0  0  0  0
 20 22  1  0  0  0  0
M  END
>  <CHROM.1>
-22.24998636,-70.29393128,-60.07682263,-53.69527300,2.41580107,4.03665319
21.50946258,1.77035262,0.03294568,1.01257830

>  <Name>
ligand

>  <RI>
0

>  <Rbt.Current_Directory>
/home/itssahil/PROJECTS/Mol_Feturizer/New_Systems/rnas/4LVY

>  <Rbt.Executable>
rbdock ($Id: //depot/dev/client3/rdock/2013.1/src/exe/rbdock.cxx#4 $)

>  <Rbt.Library>
libRbt.so (2013.1, Build901 2013/11/27)

>  <Rbt.Parameter_File>
/export/apps/rDock/src/rDock_2013.1_src/data/scripts/dock_solv.prm

>  <Rbt.Receptor>
prm/pocket_docking_4.prm

>  <SCORE>
-14.9311

>  <SCORE.INTER>
-14.3038

>  <SCORE.INTER.CONST>
1

>  <SCORE.INTER.POLAR>
0

>  <SCORE.INTER.ROT>
4

>  <SCORE.INTER.SOLV>
10.2033

>  <SCORE.INTER.VDW>
-19.2036

>  <SCORE.INTER.norm>
-0.650172

>  <SCORE.INTRA>
-0.627336

>  <SCORE.INTRA.DIHEDRAL>
0.0890797

>  <SCORE.INTRA.DIHEDRAL.0>
6.18831

>  <SCORE.INTRA.POLAR>
0

>  <SCORE.INTRA.POLAR.0>
0

>  <SCORE.INTRA.REPUL>
0

>  <SCORE.INTRA.REPUL.0>
0

>  <SCORE.INTRA.SOLV>
0.067412

>  <SCORE.INTRA.SOLV.lig_0>
-44.3465

>  <SCORE.INTRA.VDW>
-0.705582

>  <SCORE.INTRA.VDW.0>
-0.778272

>  <SCORE.INTRA.norm>
-0.0285153

>  <SCORE.RESTR>
0

>  <SCORE.RESTR.CAVITY>
0

>  <SCORE.RESTR.norm>
0

>  <SCORE.SYSTEM>
0

>  <SCORE.SYSTEM.CONST>
0

>  <SCORE.SYSTEM.DIHEDRAL>
0

>  <SCORE.SYSTEM.SOLV>
0

>  <SCORE.SYSTEM.norm>
0

>  <SCORE.heavy>
22

>  <SCORE.norm>
-0.678687

>  <RMSD>
6.995

$$$$
ligand
 OpenBabel11021811503D
libRbt.so/2013.1/901 2013/11/27
 22 24  0  0  0  0  0  0  0  0999 V2000
   -0.8439    6.1754   20.9031 C   0  0  0  0  0  0  0  0  0  0  0  0
    0.2700    5.7186   20.1673 C   0  0  0  0  0  0  0  0  0  0  0  0
    0.9229    6.5924   19.3022 C   0  0  0  0  0  0  0  0  0  0  0  0
    0.4617    7.9143   19.1754 C   0  0  0  0  0  0  0  0  0  0  0  0
   -0.6624    8.3716   19.9064 C   0  0  0  0  0  0  0  0  0  0  0  0
   -1.3125    7.4985   20.7679 C   0  0  0  0  0  0  0  0  0  0  0  0
   -1.5886    5.2159   21.8512 C   0  0  0  0  0  0  0  0  0  0  0  0
   -0.6766    4.2826   22.6863 C   0  0  0  0  0  0  0  0  0  0  0  0
    0.2152    3.3787   21.8431 C   0  0  0  0  0  0  0  0  0  0  0  0
   -0.2326    2.6576   20.7321 C   0  0  0  0  0  0  0  0  0  0  0  0
    0.8395    1.9808   20.2436 N   0  0  0  0  0  0  0  0  0  0  0  0
    1.9861    2.2150   20.9762 C   0  0  0  0  0  0  0  0  0  0  0  0
    1.6402    3.0943   21.9964 C   0  0  0  0  0  0  0  0  0  0  0  0
    2.6900    3.4969   22.9064 C   0  0  0  0  0  0  0  0  0  0  0  0
    2.4173    4.3814   23.9462 O   0  0  0  0  0  0  0  0  0  0  0  0
    3.9694    2.9869   22.7299 N   0  0  0  0  0  0  0  0  0  0  0  0
    4.2654    2.1331   21.7072 C   0  0  0  0  0  0  0  0  0  0  0  0
    3.3160    1.7382   20.8444 N   0  0  0  0  0  0  0  0  0  0  0  0
    5.6355    1.6341   21.5521 N   0  0  0  0  0  0  0  0  0  0  0  0
    1.1832    8.8365   18.2287 C   0  0  0  0  0  0  0  0  0  0  0  0
    1.9133    9.7238   18.6666 O   0  0  0  0  0  0  0  0  0  0  0  0
    0.9967    8.6631   16.8126 N   0  0  0  0  0  0  0  0  0  0  0  0
  1  2  2  0  0  0  0
  1  6  1  0  0  0  0
  1  7  1  0  0  0  0
  2  3  1  0  0  0  0
  3  4  2  0  0  0  0
  4  5  1  0  0  0  0
  4 20  1  0  0  0  0
  5  6  2  0  0  0  0
  7  8  1  0  0  0  0
  8  9  1  0  0  0  0
  9 10  2  0  0  0  0
  9 13  1  0  0  0  0
 10 11  1  0  0  0  0
 11 12  1  0  0  0  0
 12 13  2  0  0  0  0
 12 18  1  0  0  0  0
 13 14  1  0  0  0  0
 14 15  1  0  0  0  0
 14 16  2  0  0  0  0
 16 17  1  0  0  0  0
 17 18  2  0  0  0  0
 17 19  1  0  0  0  0
 20 21  2  0  0  0  0
 20 22  1  0  0  0  0
M  END
>  <CHROM.1>
41.21485180,-106.23827794,-59.23052669,-45.58844120,1.29731850,4.94292772
20.83662126,1.97087369,0.29015658,-0.58885375

>  <Name>
ligand

>  <RI>
0

>  <Rbt.Current_Directory>
/home/itssahil/PROJECTS/Mol_Feturizer/New_Systems/rnas/4LVY

>  <Rbt.Executable>
rbdock ($Id: //depot/dev/client3/rdock/2013.1/src/exe/rbdock.cxx#4 $)

>  <Rbt.Library>
libRbt.so (2013.1, Build901 2013/11/27)

>  <Rbt.Parameter_File>
/export/apps/rDock/src/rDock_2013.1_src/data/scripts/dock_solv.prm

>  <Rbt.Receptor>
prm/pocket_docking_8.prm

>  <SCORE>
-18.4317

>  <SCORE.INTER>
-17.8053

>  <SCORE.INTER.CONST>
1

>  <SCORE.INTER.POLAR>
0

>  <SCORE.INTER.ROT>
4

>  <SCORE.INTER.SOLV>
7.20022

>  <SCORE.INTER.VDW>
-20.5369

>  <SCORE.INTER.norm>
-0.809332

>  <SCORE.INTRA>
-0.626428

>  <SCORE.INTRA.DIHEDRAL>
-0.0400044

>  <SCORE.INTRA.DIHEDRAL.0>
6.18831

>  <SCORE.INTRA.POLAR>
0

>  <SCORE.INTRA.POLAR.0>
0

>  <SCORE.INTRA.REPUL>
0

>  <SCORE.INTRA.REPUL.0>
0

>  <SCORE.INTRA.SOLV>
-0.000872229

>  <SCORE.INTRA.SOLV.lig_0>
-44.3465

>  <SCORE.INTRA.VDW>
-0.605989

>  <SCORE.INTRA.VDW.0>
-0.778272

>  <SCORE.INTRA.norm>
-0.028474

>  <SCORE.RESTR>
0

>  <SCORE.RESTR.CAVITY>
0

>  <SCORE.RESTR.norm>
0

>  <SCORE.SYSTEM>
0

>  <SCORE.SYSTEM.CONST>
0

>  <SCORE.SYSTEM.DIHEDRAL>
0

>  <SCORE.SYSTEM.SOLV>
0

>  <SCORE.SYSTEM.norm>
0

>  <SCORE.heavy>
22

>  <SCORE.norm>
-0.837806

>  <RMSD>
7.016

$$$$
ligand
 OpenBabel11021811503D
libRbt.so/2013.1/901 2013/11/27
 22 24  0  0  0  0  0  0  0  0999 V2000
    0.1780    4.5269   20.5927 C   0  0  0  0  0  0  0  0  0  0  0  0
   -0.0355    3.5852   21.6214 C   0  0  0  0  0  0  0  0  0  0  0  0
   -0.5962    4.0030   22.8253 C   0  0  0  0  0  0  0  0  0  0  0  0
   -0.9395    5.3554   22.9965 C   0  0  0  0  0  0  0  0  0  0  0  0
   -0.7170    6.3038   21.9680 C   0  0  0  0  0  0  0  0  0  0  0  0
   -0.1571    5.8854   20.7686 C   0  0  0  0  0  0  0  0  0  0  0  0
    0.8141    4.0843   19.2610 C   0  0  0  0  0  0  0  0  0  0  0  0
    2.3603    3.9888   19.2744 C   0  0  0  0  0  0  0  0  0  0  0  0
    2.9095    3.0514   20.3436 C   0  0  0  0  0  0  0  0  0  0  0  0
    3.2620    1.7193   20.1068 C   0  0  0  0  0  0  0  0  0  0  0  0
    3.7110    1.2152   21.2859 N   0  0  0  0  0  0  0  0  0  0  0  0
    3.6759    2.1484   22.3028 C   0  0  0  0  0  0  0  0  0  0  0  0
    3.1780    3.3248   21.7535 C   0  0  0  0  0  0  0  0  0  0  0  0
    3.0503    4.4640   22.6356 C   0  0  0  0  0  0  0  0  0  0  0  0
    2.5667    5.6765   22.1517 O   0  0  0  0  0  0  0  0  0  0  0  0
    3.4130    4.3299   23.9692 N   0  0  0  0  0  0  0  0  0  0  0  0
    3.9069    3.1572   24.4627 C   0  0  0  0  0  0  0  0  0  0  0  0
    4.0385    2.0799   23.6730 N   0  0  0  0  0  0  0  0  0  0  0  0
    4.2919    3.0693   25.8750 N   0  0  0  0  0  0  0  0  0  0  0  0
   -1.5394    5.7808   24.3104 C   0  0  0  0  0  0  0  0  0  0  0  0
   -2.4301    5.1102   24.8291 O   0  0  0  0  0  0  0  0  0  0  0  0
   -1.0571    6.9824   24.9378 N   0  0  0  0  0  0  0  0  0  0  0  0
  1  2  2  0  0  0  0
  1  6  1  0  0  0  0
  1  7  1  0  0  0  0
  2  3  1  0  0  0  0
  3  4  2  0  0  0  0
  4  5  1  0  0  0  0
  4 20  1  0  0  0  0
  5  6  2  0  0  0  0
  7  8  1  0  0  0  0
  8  9  1  0  0  0  0
  9 10  2  0  0  0  0
  9 13  1  0  0  0  0
 10 11  1  0  0  0  0
 11 12  1  0  0  0  0
 12 13  2  0  0  0  0
 12 18  1  0  0  0  0
 13 14  1  0  0  0  0
 14 15  1  0  0  0  0
 14 16  2  0  0  0  0
 16 17  1  0  0  0  0
 17 18  2  0  0  0  0
 17 19  1  0  0  0  0
 20 21  2  0  0  0  0
 20 22  1  0  0  0  0
M  END
>  <CHROM.1>
-82.09496602,-45.26602249,57.04024532,96.33036828,1.54652770,4.10044192,22.40436195
2.82791032,-0.54088336,1.43035002

>  <Name>
ligand

>  <RI>
0

>  <Rbt.Current_Directory>
/home/itssahil/PROJECTS/Mol_Feturizer/New_Systems/rnas/4LVY

>  <Rbt.Executable>
rbdock ($Id: //depot/dev/client3/rdock/2013.1/src/exe/rbdock.cxx#4 $)

>  <Rbt.Library>
libRbt.so (2013.1, Build901 2013/11/27)

>  <Rbt.Parameter_File>
/export/apps/rDock/src/rDock_2013.1_src/data/scripts/dock_solv.prm

>  <Rbt.Receptor>
prm/pocket_docking_5.prm

>  <SCORE>
-14.5655

>  <SCORE.INTER>
-12.4307

>  <SCORE.INTER.CONST>
1

>  <SCORE.INTER.POLAR>
0

>  <SCORE.INTER.ROT>
4

>  <SCORE.INTER.SOLV>
15.8409

>  <SCORE.INTER.VDW>
-19.8341

>  <SCORE.INTER.norm>
-0.565031

>  <SCORE.INTRA>
-2.13485

>  <SCORE.INTRA.DIHEDRAL>
0.0334084

>  <SCORE.INTRA.DIHEDRAL.0>
6.18831

>  <SCORE.INTRA.POLAR>
0

>  <SCORE.INTRA.POLAR.0>
0

>  <SCORE.INTRA.REPUL>
0

>  <SCORE.INTRA.REPUL.0>
0

>  <SCORE.INTRA.SOLV>
0.733045

>  <SCORE.INTRA.SOLV.lig_0>
-44.3465

>  <SCORE.INTRA.VDW>
-2.51808

>  <SCORE.INTRA.VDW.0>
-0.778272

>  <SCORE.INTRA.norm>
-0.0970386

>  <SCORE.RESTR>
0

>  <SCORE.RESTR.CAVITY>
0

>  <SCORE.RESTR.norm>
0

>  <SCORE.SYSTEM>
0

>  <SCORE.SYSTEM.CONST>
0

>  <SCORE.SYSTEM.DIHEDRAL>
0

>  <SCORE.SYSTEM.SOLV>
0

>  <SCORE.SYSTEM.norm>
0

>  <SCORE.heavy>
22

>  <SCORE.norm>
-0.662069

>  <RMSD>
7.018

$$$$
ligand
 OpenBabel11021811503D
libRbt.so/2013.1/901 2013/11/27
 22 24  0  0  0  0  0  0  0  0999 V2000
   -0.8137    6.2122   20.9221 C   0  0  0  0  0  0  0  0  0  0  0  0
    0.2820    5.7339   20.1730 C   0  0  0  0  0  0  0  0  0  0  0  0
    0.9253    6.5878   19.2812 C   0  0  0  0  0  0  0  0  0  0  0  0
    0.4725    7.9113   19.1411 C   0  0  0  0  0  0  0  0  0  0  0  0
   -0.6334    8.3900   19.8857 C   0  0  0  0  0  0  0  0  0  0  0  0
   -1.2741    7.5369   20.7739 C   0  0  0  0  0  0  0  0  0  0  0  0
   -1.5479    5.2749   21.9001 C   0  0  0  0  0  0  0  0  0  0  0  0
   -0.6290    4.3341   22.7190 C   0  0  0  0  0  0  0  0  0  0  0  0
    0.2104    3.3944   21.8611 C   0  0  0  0  0  0  0  0  0  0  0  0
   -0.2953    2.6610   20.7834 C   0  0  0  0  0  0  0  0  0  0  0  0
    0.7426    1.9516   20.2682 N   0  0  0  0  0  0  0  0  0  0  0  0
    1.9215    2.1757   20.9509 C   0  0  0  0  0  0  0  0  0  0  0  0
    1.6340    3.0825   21.9651 C   0  0  0  0  0  0  0  0  0  0  0  0
    2.7266    3.4805   22.8254 C   0  0  0  0  0  0  0  0  0  0  0  0
    2.5131    4.3914   23.8563 O   0  0  0  0  0  0  0  0  0  0  0  0
    3.9873    2.9397   22.6104 N   0  0  0  0  0  0  0  0  0  0  0  0
    4.2254    2.0594   21.5950 C   0  0  0  0  0  0  0  0  0  0  0  0
    3.2351    1.6677   20.7779 N   0  0  0  0  0  0  0  0  0  0  0  0
    5.5778    1.5279   21.3977 N   0  0  0  0  0  0  0  0  0  0  0  0
    1.1833    8.8116   18.1657 C   0  0  0  0  0  0  0  0  0  0  0  0
    1.9889    9.6477   18.5705 O   0  0  0  0  0  0  0  0  0  0  0  0
    0.8973    8.6784   16.7619 N   0  0  0  0  0  0  0  0  0  0  0  0
  1  2  2  0  0  0  0
  1  6  1  0  0  0  0
  1  7  1  0  0  0  0
  2  3  1  0  0  0  0
  3  4  2  0  0  0  0
  4  5  1  0  0  0  0
  4 20  1  0  0  0  0
  5  6  2  0  0  0  0
  7  8  1  0  0  0  0
  8  9  1  0  0  0  0
  9 10  2  0  0  0  0
  9 13  1  0  0  0  0
 10 11  1  0  0  0  0
 11 12  1  0  0  0  0
 12 13  2  0  0  0  0
 12 18  1  0  0  0  0
 13 14  1  0  0  0  0
 14 15  1  0  0  0  0
 14 16  2  0  0  0  0
 16 17  1  0  0  0  0
 17 18  2  0  0  0  0
 17 19  1  0  0  0  0
 20 21  2  0  0  0  0
 20 22  1  0  0  0  0
M  END
>  <CHROM.1>
40.40937790,-101.94696951,-59.97625518,-45.88651932,1.29492734,4.93109457
20.80018236,1.96842880,0.32070754,-0.59182297

>  <Name>
ligand

>  <RI>
0

>  <Rbt.Current_Directory>
/home/itssahil/PROJECTS/Mol_Feturizer/New_Systems/rnas/4LVY

>  <Rbt.Executable>
rbdock ($Id: //depot/dev/client3/rdock/2013.1/src/exe/rbdock.cxx#4 $)

>  <Rbt.Library>
libRbt.so (2013.1, Build901 2013/11/27)

>  <Rbt.Parameter_File>
/export/apps/rDock/src/rDock_2013.1_src/data/scripts/dock_solv.prm

>  <Rbt.Receptor>
prm/pocket_docking_8.prm

>  <SCORE>
-18.3753

>  <SCORE.INTER>
-17.7242

>  <SCORE.INTER.CONST>
1

>  <SCORE.INTER.POLAR>
0

>  <SCORE.INTER.ROT>
4

>  <SCORE.INTER.SOLV>
7.71201

>  <SCORE.INTER.VDW>
-20.6534

>  <SCORE.INTER.norm>
-0.805643

>  <SCORE.INTRA>
-0.651148

>  <SCORE.INTRA.DIHEDRAL>
-0.0484878

>  <SCORE.INTRA.DIHEDRAL.0>
6.18831

>  <SCORE.INTRA.POLAR>
0

>  <SCORE.INTRA.POLAR.0>
0

>  <SCORE.INTRA.REPUL>
0

>  <SCORE.INTRA.REPUL.0>
0

>  <SCORE.INTRA.SOLV>
-0.000790971

>  <SCORE.INTRA.SOLV.lig_0>
-44.3465

>  <SCORE.INTRA.VDW>
-0.626508

>  <SCORE.INTRA.VDW.0>
-0.778272

>  <SCORE.INTRA.norm>
-0.0295976

>  <SCORE.RESTR>
0

>  <SCORE.RESTR.CAVITY>
0

>  <SCORE.RESTR.norm>
0

>  <SCORE.SYSTEM>
0

>  <SCORE.SYSTEM.CONST>
0

>  <SCORE.SYSTEM.DIHEDRAL>
0

>  <SCORE.SYSTEM.SOLV>
0

>  <SCORE.SYSTEM.norm>
0

>  <SCORE.heavy>
22

>  <SCORE.norm>
-0.835241

>  <RMSD>
7.022

$$$$
ligand
 OpenBabel11021811503D
libRbt.so/2013.1/901 2013/11/27
 22 24  0  0  0  0  0  0  0  0999 V2000
    0.8441    3.1056   21.6492 C   0  0  0  0  0  0  0  0  0  0  0  0
   -0.5590    3.2438   21.5968 C   0  0  0  0  0  0  0  0  0  0  0  0
   -1.1941    4.1111   22.4816 C   0  0  0  0  0  0  0  0  0  0  0  0
   -0.4277    4.8337   23.4126 C   0  0  0  0  0  0  0  0  0  0  0  0
    0.9802    4.6887   23.4726 C   0  0  0  0  0  0  0  0  0  0  0  0
    1.6115    3.8229   22.5901 C   0  0  0  0  0  0  0  0  0  0  0  0
    1.5605    2.1365   20.6891 C   0  0  0  0  0  0  0  0  0  0  0  0
    2.2538    2.8089   19.4779 C   0  0  0  0  0  0  0  0  0  0  0  0
    3.3832    3.7570   19.8640 C   0  0  0  0  0  0  0  0  0  0  0  0
    4.7334    3.3943   19.8855 C   0  0  0  0  0  0  0  0  0  0  0  0
    5.4309    4.4953   20.2694 N   0  0  0  0  0  0  0  0  0  0  0  0
    4.6103    5.5800   20.5063 C   0  0  0  0  0  0  0  0  0  0  0  0
    3.3073    5.1611   20.2611 C   0  0  0  0  0  0  0  0  0  0  0  0
    2.2544    6.1366   20.4403 C   0  0  0  0  0  0  0  0  0  0  0  0
    0.9271    5.7891   20.2045 O   0  0  0  0  0  0  0  0  0  0  0  0
    2.5860    7.4203   20.8529 N   0  0  0  0  0  0  0  0  0  0  0  0
    3.8812    7.7900   21.0723 C   0  0  0  0  0  0  0  0  0  0  0  0
    4.8833    6.9107   20.9163 N   0  0  0  0  0  0  0  0  0  0  0  0
    4.1830    9.1626   21.4915 N   0  0  0  0  0  0  0  0  0  0  0  0
   -1.1409    5.7605   24.3611 C   0  0  0  0  0  0  0  0  0  0  0  0
   -2.1814    5.4024   24.9098 O   0  0  0  0  0  0  0  0  0  0  0  0
   -0.5871    7.0659   24.6047 N   0  0  0  0  0  0  0  0  0  0  0  0
  1  2  2  0  0  0  0
  1  6  1  0  0  0  0
  1  7  1  0  0  0  0
  2  3  1  0  0  0  0
  3  4  2  0  0  0  0
  4  5  1  0  0  0  0
  4 20  1  0  0  0  0
  5  6  2  0  0  0  0
  7  8  1  0  0  0  0
  8  9  1  0  0  0  0
  9 10  2  0  0  0  0
  9 13  1  0  0  0  0
 10 11  1  0  0  0  0
 11 12  1  0  0  0  0
 12 13  2  0  0  0  0
 12 18  1  0  0  0  0
 13 14  1  0  0  0  0
 14 15  1  0  0  0  0
 14 16  2  0  0  0  0
 16 17  1  0  0  0  0
 17 18  2  0  0  0  0
 17 19  1  0  0  0  0
 20 21  2  0  0  0  0
 20 22  1  0  0  0  0
M  END
>  <CHROM.1>
101.91739482,43.20196989,63.11895364,96.23513901,1.85914444,5.15925880,21.59825136
3.01845917,0.56924174,0.39027886

>  <Name>
ligand

>  <RI>
0

>  <Rbt.Current_Directory>
/home/itssahil/PROJECTS/Mol_Feturizer/New_Systems/rnas/4LVY

>  <Rbt.Executable>
rbdock ($Id: //depot/dev/client3/rdock/2013.1/src/exe/rbdock.cxx#4 $)

>  <Rbt.Library>
libRbt.so (2013.1, Build901 2013/11/27)

>  <Rbt.Parameter_File>
/export/apps/rDock/src/rDock_2013.1_src/data/scripts/dock_solv.prm

>  <Rbt.Receptor>
prm/pocket_docking_8.prm

>  <SCORE>
-12.4637

>  <SCORE.INTER>
-10.4996

>  <SCORE.INTER.CONST>
1

>  <SCORE.INTER.POLAR>
0

>  <SCORE.INTER.ROT>
4

>  <SCORE.INTER.SOLV>
11.2041

>  <SCORE.INTER.VDW>
-17.0011

>  <SCORE.INTER.norm>
-0.477256

>  <SCORE.INTRA>
-1.96402

>  <SCORE.INTRA.DIHEDRAL>
0.131153

>  <SCORE.INTRA.DIHEDRAL.0>
6.18831

>  <SCORE.INTRA.POLAR>
0

>  <SCORE.INTRA.POLAR.0>
0

>  <SCORE.INTRA.REPUL>
0

>  <SCORE.INTRA.REPUL.0>
0

>  <SCORE.INTRA.SOLV>
0.74079

>  <SCORE.INTRA.SOLV.lig_0>
-44.3465

>  <SCORE.INTRA.VDW>
-2.39999

>  <SCORE.INTRA.VDW.0>
-0.778272

>  <SCORE.INTRA.norm>
-0.0892736

>  <SCORE.RESTR>
0

>  <SCORE.RESTR.CAVITY>
0

>  <SCORE.RESTR.norm>
0

>  <SCORE.SYSTEM>
0

>  <SCORE.SYSTEM.CONST>
0

>  <SCORE.SYSTEM.DIHEDRAL>
0

>  <SCORE.SYSTEM.SOLV>
0

>  <SCORE.SYSTEM.norm>
0

>  <SCORE.heavy>
22

>  <SCORE.norm>
-0.56653

>  <RMSD>
7.084

$$$$
ligand
 OpenBabel11021811503D
libRbt.so/2013.1/901 2013/11/27
 22 24  0  0  0  0  0  0  0  0999 V2000
    3.4710    3.1318   22.6136 C   0  0  0  0  0  0  0  0  0  0  0  0
    3.7413    4.2140   21.7497 C   0  0  0  0  0  0  0  0  0  0  0  0
    2.7848    5.2119   21.5840 C   0  0  0  0  0  0  0  0  0  0  0  0
    1.5660    5.1247   22.2789 C   0  0  0  0  0  0  0  0  0  0  0  0
    1.2895    4.0338   23.1394 C   0  0  0  0  0  0  0  0  0  0  0  0
    2.2442    3.0394   23.3027 C   0  0  0  0  0  0  0  0  0  0  0  0
    4.5117    2.0099   22.7942 C   0  0  0  0  0  0  0  0  0  0  0  0
    4.5008    0.9235   21.6900 C   0  0  0  0  0  0  0  0  0  0  0  0
    4.8552    1.4510   20.3045 C   0  0  0  0  0  0  0  0  0  0  0  0
    6.1280    1.3526   19.7342 C   0  0  0  0  0  0  0  0  0  0  0  0
    6.0534    1.9235   18.5036 N   0  0  0  0  0  0  0  0  0  0  0  0
    4.7886    2.4002   18.2221 C   0  0  0  0  0  0  0  0  0  0  0  0
    3.9969    2.1221   19.3309 C   0  0  0  0  0  0  0  0  0  0  0  0
    2.6100    2.5286   19.2716 C   0  0  0  0  0  0  0  0  0  0  0  0
    1.7572    2.2748   20.3423 O   0  0  0  0  0  0  0  0  0  0  0  0
    2.1439    3.1767   18.1356 N   0  0  0  0  0  0  0  0  0  0  0  0
    2.9558    3.4201   17.0659 C   0  0  0  0  0  0  0  0  0  0  0  0
    4.2479    3.0571   17.0865 N   0  0  0  0  0  0  0  0  0  0  0  0
    2.4132    4.0933   15.8815 N   0  0  0  0  0  0  0  0  0  0  0  0
    0.5473    6.2151   22.0771 C   0  0  0  0  0  0  0  0  0  0  0  0
    0.7521    7.3424   22.5234 O   0  0  0  0  0  0  0  0  0  0  0  0
   -0.6639    5.9106   21.3626 N   0  0  0  0  0  0  0  0  0  0  0  0
  1  2  2  0  0  0  0
  1  6  1  0  0  0  0
  1  7  1  0  0  0  0
  2  3  1  0  0  0  0
  3  4  2  0  0  0  0
  4  5  1  0  0  0  0
  4 20  1  0  0  0  0
  5  6  2  0  0  0  0
  7  8  1  0  0  0  0
  8  9  1  0  0  0  0
  9 10  2  0  0  0  0
  9 13  1  0  0  0  0
 10 11  1  0  0  0  0
 11 12  1  0  0  0  0
 12 13  2  0  0  0  0
 12 18  1  0  0  0  0
 13 14  1  0  0  0  0
 14 15  1  0  0  0  0
 14 16  2  0  0  0  0
 16 17  1  0  0  0  0
 17 18  2  0  0  0  0
 17 19  1  0  0  0  0
 20 21  2  0  0  0  0
 20 22  1  0  0  0  0
M  END
>  <CHROM.1>
-82.03660932,-69.95122744,63.35784055,98.21266206,2.99610913,3.42671744,20.38597724
-2.47942802,0.77242182,-1.54350520

>  <Name>
ligand

>  <RI>
0

>  <Rbt.Current_Directory>
/home/itssahil/PROJECTS/Mol_Feturizer/New_Systems/rnas/4LVY

>  <Rbt.Executable>
rbdock ($Id: //depot/dev/client3/rdock/2013.1/src/exe/rbdock.cxx#4 $)

>  <Rbt.Library>
libRbt.so (2013.1, Build901 2013/11/27)

>  <Rbt.Parameter_File>
/export/apps/rDock/src/rDock_2013.1_src/data/scripts/dock_solv.prm

>  <Rbt.Receptor>
prm/pocket_docking_7.prm

>  <SCORE>
-11.5577

>  <SCORE.INTER>
-9.36947

>  <SCORE.INTER.CONST>
1

>  <SCORE.INTER.POLAR>
0

>  <SCORE.INTER.ROT>
4

>  <SCORE.INTER.SOLV>
7.51649

>  <SCORE.INTER.VDW>
-15.0185

>  <SCORE.INTER.norm>
-0.425885

>  <SCORE.INTRA>
-2.18825

>  <SCORE.INTRA.DIHEDRAL>
0.0102036

>  <SCORE.INTRA.DIHEDRAL.0>
6.18831

>  <SCORE.INTRA.POLAR>
0

>  <SCORE.INTRA.POLAR.0>
0

>  <SCORE.INTRA.REPUL>
0

>  <SCORE.INTRA.REPUL.0>
0

>  <SCORE.INTRA.SOLV>
0.854816

>  <SCORE.INTRA.SOLV.lig_0>
-44.3465

>  <SCORE.INTRA.VDW>
-2.62076

>  <SCORE.INTRA.VDW.0>
-0.778272

>  <SCORE.INTRA.norm>
-0.0994658

>  <SCORE.RESTR>
0

>  <SCORE.RESTR.CAVITY>
0

>  <SCORE.RESTR.norm>
0

>  <SCORE.SYSTEM>
0

>  <SCORE.SYSTEM.CONST>
0

>  <SCORE.SYSTEM.DIHEDRAL>
0

>  <SCORE.SYSTEM.SOLV>
0

>  <SCORE.SYSTEM.norm>
0

>  <SCORE.heavy>
22

>  <SCORE.norm>
-0.525351

>  <RMSD>
7.085

$$$$
ligand
 OpenBabel11021811503D
libRbt.so/2013.1/901 2013/11/27
 22 24  0  0  0  0  0  0  0  0999 V2000
    0.3721    4.7292   22.9691 C   0  0  0  0  0  0  0  0  0  0  0  0
   -0.2247    5.9532   23.3382 C   0  0  0  0  0  0  0  0  0  0  0  0
    0.5388    6.9163   23.9923 C   0  0  0  0  0  0  0  0  0  0  0  0
    1.8905    6.6533   24.2750 C   0  0  0  0  0  0  0  0  0  0  0  0
    2.4885    5.4210   23.9135 C   0  0  0  0  0  0  0  0  0  0  0  0
    1.7254    4.4617   23.2620 C   0  0  0  0  0  0  0  0  0  0  0  0
   -0.4636    3.6458   22.2606 C   0  0  0  0  0  0  0  0  0  0  0  0
   -0.7309    3.9049   20.7569 C   0  0  0  0  0  0  0  0  0  0  0  0
    0.5233    4.2399   19.9580 C   0  0  0  0  0  0  0  0  0  0  0  0
    0.6679    5.3923   19.1796 C   0  0  0  0  0  0  0  0  0  0  0  0
    1.9097    5.3435   18.6306 N   0  0  0  0  0  0  0  0  0  0  0  0
    2.6049    4.2110   19.0053 C   0  0  0  0  0  0  0  0  0  0  0  0
    1.7688    3.4843   19.8458 C   0  0  0  0  0  0  0  0  0  0  0  0
    2.2840    2.2417   20.3776 C   0  0  0  0  0  0  0  0  0  0  0  0
    1.5049    1.4667   21.2323 O   0  0  0  0  0  0  0  0  0  0  0  0
    3.5623    1.8328   20.0215 N   0  0  0  0  0  0  0  0  0  0  0  0
    4.3519    2.5843   19.2003 C   0  0  0  0  0  0  0  0  0  0  0  0
    3.9062    3.7423   18.6883 N   0  0  0  0  0  0  0  0  0  0  0  0
    5.7016    2.1184   18.8659 N   0  0  0  0  0  0  0  0  0  0  0  0
    2.6914    7.7103   24.9881 C   0  0  0  0  0  0  0  0  0  0  0  0
    3.1366    7.4940   26.1137 O   0  0  0  0  0  0  0  0  0  0  0  0
    2.9172    8.9711   24.3327 N   0  0  0  0  0  0  0  0  0  0  0  0
  1  2  2  0  0  0  0
  1  6  1  0  0  0  0
  1  7  1  0  0  0  0
  2  3  1  0  0  0  0
  3  4  2  0  0  0  0
  4  5  1  0  0  0  0
  4 20  1  0  0  0  0
  5  6  2  0  0  0  0
  7  8  1  0  0  0  0
  8  9  1  0  0  0  0
  9 10  2  0  0  0  0
  9 13  1  0  0  0  0
 10 11  1  0  0  0  0
 11 12  1  0  0  0  0
 12 13  2  0  0  0  0
 12 18  1  0  0  0  0
 13 14  1  0  0  0  0
 14 15  1  0  0  0  0
 14 16  2  0  0  0  0
 16 17  1  0  0  0  0
 17 18  2  0  0  0  0
 17 19  1  0  0  0  0
 20 21  2  0  0  0  0
 20 22  1  0  0  0  0
M  END
>  <CHROM.1>
77.05662008,115.40045007,50.25952189,-124.97613735,1.99146172,4.63343785
21.60477181,1.72592749,0.09356423,0.87278400

>  <Name>
ligand

>  <RI>
0

>  <Rbt.Current_Directory>
/home/itssahil/PROJECTS/Mol_Feturizer/New_Systems/rnas/4LVY

>  <Rbt.Executable>
rbdock ($Id: //depot/dev/client3/rdock/2013.1/src/exe/rbdock.cxx#4 $)

>  <Rbt.Library>
libRbt.so (2013.1, Build901 2013/11/27)

>  <Rbt.Parameter_File>
/export/apps/rDock/src/rDock_2013.1_src/data/scripts/dock_solv.prm

>  <Rbt.Receptor>
prm/pocket_docking_5.prm

>  <SCORE>
-12.6179

>  <SCORE.INTER>
-11.4454

>  <SCORE.INTER.CONST>
1

>  <SCORE.INTER.POLAR>
0

>  <SCORE.INTER.ROT>
4

>  <SCORE.INTER.SOLV>
15.389

>  <SCORE.INTER.VDW>
-19.0266

>  <SCORE.INTER.norm>
-0.520244

>  <SCORE.INTRA>
-1.17249

>  <SCORE.INTRA.DIHEDRAL>
0.483826

>  <SCORE.INTRA.DIHEDRAL.0>
6.18831

>  <SCORE.INTRA.POLAR>
0

>  <SCORE.INTRA.POLAR.0>
0

>  <SCORE.INTRA.REPUL>
0

>  <SCORE.INTRA.REPUL.0>
0

>  <SCORE.INTRA.SOLV>
0.374692

>  <SCORE.INTRA.SOLV.lig_0>
-44.3465

>  <SCORE.INTRA.VDW>
-1.60175

>  <SCORE.INTRA.VDW.0>
-0.778272

>  <SCORE.INTRA.norm>
-0.0532952

>  <SCORE.RESTR>
0

>  <SCORE.RESTR.CAVITY>
0

>  <SCORE.RESTR.norm>
0

>  <SCORE.SYSTEM>
0

>  <SCORE.SYSTEM.CONST>
0

>  <SCORE.SYSTEM.DIHEDRAL>
0

>  <SCORE.SYSTEM.SOLV>
0

>  <SCORE.SYSTEM.norm>
0

>  <SCORE.heavy>
22

>  <SCORE.norm>
-0.573539

>  <RMSD>
7.125

$$$$
ligand
 OpenBabel11021811503D
libRbt.so/2013.1/901 2013/11/27
 22 24  0  0  0  0  0  0  0  0999 V2000
   -0.2226    6.8930   21.4176 C   0  0  0  0  0  0  0  0  0  0  0  0
   -1.1851    7.7841   20.8978 C   0  0  0  0  0  0  0  0  0  0  0  0
   -0.8933    8.5098   19.7460 C   0  0  0  0  0  0  0  0  0  0  0  0
    0.3547    8.3435   19.1207 C   0  0  0  0  0  0  0  0  0  0  0  0
    1.3256    7.4562   19.6469 C   0  0  0  0  0  0  0  0  0  0  0  0
    1.0331    6.7341   20.7958 C   0  0  0  0  0  0  0  0  0  0  0  0
   -0.5229    6.0958   22.7016 C   0  0  0  0  0  0  0  0  0  0  0  0
   -1.1652    4.7048   22.4728 C   0  0  0  0  0  0  0  0  0  0  0  0
   -0.2427    3.7076   21.7813 C   0  0  0  0  0  0  0  0  0  0  0  0
   -0.6053    2.9590   20.6575 C   0  0  0  0  0  0  0  0  0  0  0  0
    0.4696    2.1955   20.3293 N   0  0  0  0  0  0  0  0  0  0  0  0
    1.5367    2.3978   21.1816 C   0  0  0  0  0  0  0  0  0  0  0  0
    1.1334    3.3468   22.1145 C   0  0  0  0  0  0  0  0  0  0  0  0
    2.0951    3.7317   23.1241 C   0  0  0  0  0  0  0  0  0  0  0  0
    1.7624    4.6827   24.0849 O   0  0  0  0  0  0  0  0  0  0  0  0
    3.3503    3.1381   23.1227 N   0  0  0  0  0  0  0  0  0  0  0  0
    3.7061    2.2173   22.1803 C   0  0  0  0  0  0  0  0  0  0  0  0
    2.8390    1.8363   21.2291 N   0  0  0  0  0  0  0  0  0  0  0  0
    5.0495    1.6301   22.2105 N   0  0  0  0  0  0  0  0  0  0  0  0
    0.6458    9.1448   17.8795 C   0  0  0  0  0  0  0  0  0  0  0  0
    1.5351    9.9939   17.8865 O   0  0  0  0  0  0  0  0  0  0  0  0
   -0.1368    8.9024   16.6967 N   0  0  0  0  0  0  0  0  0  0  0  0
  1  2  2  0  0  0  0
  1  6  1  0  0  0  0
  1  7  1  0  0  0  0
  2  3  1  0  0  0  0
  3  4  2  0  0  0  0
  4  5  1  0  0  0  0
  4 20  1  0  0  0  0
  5  6  2  0  0  0  0
  7  8  1  0  0  0  0
  8  9  1  0  0  0  0
  9 10  2  0  0  0  0
  9 13  1  0  0  0  0
 10 11  1  0  0  0  0
 11 12  1  0  0  0  0
 12 13  2  0  0  0  0
 12 18  1  0  0  0  0
 13 14  1  0  0  0  0
 14 15  1  0  0  0  0
 14 16  2  0  0  0  0
 16 17  1  0  0  0  0
 17 18  2  0  0  0  0
 17 19  1  0  0  0  0
 20 21  2  0  0  0  0
 20 22  1  0  0  0  0
M  END
>  <CHROM.1>
91.34568284,114.79661544,66.71043466,-129.38430842,1.03215728,5.28870172
20.98180912,1.91847587,0.47681170,-0.69128640

>  <Name>
ligand

>  <RI>
0

>  <Rbt.Current_Directory>
/home/itssahil/PROJECTS/Mol_Feturizer/New_Systems/rnas/4LVY

>  <Rbt.Executable>
rbdock ($Id: //depot/dev/client3/rdock/2013.1/src/exe/rbdock.cxx#4 $)

>  <Rbt.Library>
libRbt.so (2013.1, Build901 2013/11/27)

>  <Rbt.Parameter_File>
/export/apps/rDock/src/rDock_2013.1_src/data/scripts/dock_solv.prm

>  <Rbt.Receptor>
prm/pocket_docking_8.prm

>  <SCORE>
-18.2334

>  <SCORE.INTER>
-17.2438

>  <SCORE.INTER.CONST>
1

>  <SCORE.INTER.POLAR>
0

>  <SCORE.INTER.ROT>
4

>  <SCORE.INTER.SOLV>
7.82289

>  <SCORE.INTER.VDW>
-20.3702

>  <SCORE.INTER.norm>
-0.783811

>  <SCORE.INTRA>
-0.9938

>  <SCORE.INTRA.DIHEDRAL>
0.306093

>  <SCORE.INTRA.DIHEDRAL.0>
6.18831

>  <SCORE.INTRA.POLAR>
0

>  <SCORE.INTRA.POLAR.0>
0

>  <SCORE.INTRA.REPUL>
0

>  <SCORE.INTRA.REPUL.0>
0

>  <SCORE.INTRA.SOLV>
0.336471

>  <SCORE.INTRA.SOLV.lig_0>
-44.3465

>  <SCORE.INTRA.VDW>
-1.31508

>  <SCORE.INTRA.VDW.0>
-0.778272

>  <SCORE.INTRA.norm>
-0.0451727

>  <SCORE.RESTR>
0.00423264

>  <SCORE.RESTR.CAVITY>
0.00423264

>  <SCORE.RESTR.norm>
0.000192393

>  <SCORE.SYSTEM>
0

>  <SCORE.SYSTEM.CONST>
0

>  <SCORE.SYSTEM.DIHEDRAL>
0

>  <SCORE.SYSTEM.SOLV>
0

>  <SCORE.SYSTEM.norm>
0

>  <SCORE.heavy>
22

>  <SCORE.norm>
-0.828791

>  <RMSD>
7.130

$$$$
ligand
 OpenBabel11021811503D
libRbt.so/2013.1/901 2013/11/27
 22 24  0  0  0  0  0  0  0  0999 V2000
    0.0647    5.0333   23.1691 C   0  0  0  0  0  0  0  0  0  0  0  0
    1.3529    4.5214   23.4320 C   0  0  0  0  0  0  0  0  0  0  0  0
    2.2919    5.3277   24.0696 C   0  0  0  0  0  0  0  0  0  0  0  0
    1.9419    6.6378   24.4400 C   0  0  0  0  0  0  0  0  0  0  0  0
    0.6518    7.1562   24.1681 C   0  0  0  0  0  0  0  0  0  0  0  0
   -0.2829    6.3510   23.5317 C   0  0  0  0  0  0  0  0  0  0  0  0
   -0.9804    4.1601   22.4483 C   0  0  0  0  0  0  0  0  0  0  0  0
   -0.3965    3.1397   21.4394 C   0  0  0  0  0  0  0  0  0  0  0  0
    0.4807    3.7708   20.3643 C   0  0  0  0  0  0  0  0  0  0  0  0
    0.1525    4.9447   19.6795 C   0  0  0  0  0  0  0  0  0  0  0  0
    1.1698    5.1932   18.8139 N   0  0  0  0  0  0  0  0  0  0  0  0
    2.1655    4.2396   18.8868 C   0  0  0  0  0  0  0  0  0  0  0  0
    1.7743    3.3213   19.8550 C   0  0  0  0  0  0  0  0  0  0  0  0
    2.6692    2.2157   20.1175 C   0  0  0  0  0  0  0  0  0  0  0  0
    2.3454    1.2630   21.0796 O   0  0  0  0  0  0  0  0  0  0  0  0
    3.8512    2.1172   19.3956 N   0  0  0  0  0  0  0  0  0  0  0  0
    4.1993    3.0486   18.4608 C   0  0  0  0  0  0  0  0  0  0  0  0
    3.3928    4.0871   18.1911 N   0  0  0  0  0  0  0  0  0  0  0  0
    5.4663    2.9102   17.7355 N   0  0  0  0  0  0  0  0  0  0  0  0
    2.9785    7.4897   25.1233 C   0  0  0  0  0  0  0  0  0  0  0  0
    3.1880    7.3606   26.3281 O   0  0  0  0  0  0  0  0  0  0  0  0
    3.7081    8.4546   24.3445 N   0  0  0  0  0  0  0  0  0  0  0  0
  1  2  2  0  0  0  0
  1  6  1  0  0  0  0
  1  7  1  0  0  0  0
  2  3  1  0  0  0  0
  3  4  2  0  0  0  0
  4  5  1  0  0  0  0
  4 20  1  0  0  0  0
  5  6  2  0  0  0  0
  7  8  1  0  0  0  0
  8  9  1  0  0  0  0
  9 10  2  0  0  0  0
  9 13  1  0  0  0  0
 10 11  1  0  0  0  0
 11 12  1  0  0  0  0
 12 13  2  0  0  0  0
 12 18  1  0  0  0  0
 13 14  1  0  0  0  0
 14 15  1  0  0  0  0
 14 16  2  0  0  0  0
 16 17  1  0  0  0  0
 17 18  2  0  0  0  0
 17 19  1  0  0  0  0
 20 21  2  0  0  0  0
 20 22  1  0  0  0  0
M  END
>  <CHROM.1>
-30.89655225,-80.84606528,-55.86741805,-43.83629535,1.96025344,4.64169614
21.59180387,1.72755296,0.21557849,0.94110734

>  <Name>
ligand

>  <RI>
0

>  <Rbt.Current_Directory>
/home/itssahil/PROJECTS/Mol_Feturizer/New_Systems/rnas/4LVY

>  <Rbt.Executable>
rbdock ($Id: //depot/dev/client3/rdock/2013.1/src/exe/rbdock.cxx#4 $)

>  <Rbt.Library>
libRbt.so (2013.1, Build901 2013/11/27)

>  <Rbt.Parameter_File>
/export/apps/rDock/src/rDock_2013.1_src/data/scripts/dock_solv.prm

>  <Rbt.Receptor>
prm/pocket_docking_4.prm

>  <SCORE>
-15.2227

>  <SCORE.INTER>
-14.6494

>  <SCORE.INTER.CONST>
1

>  <SCORE.INTER.POLAR>
0

>  <SCORE.INTER.ROT>
4

>  <SCORE.INTER.SOLV>
11.7124

>  <SCORE.INTER.VDW>
-19.9371

>  <SCORE.INTER.norm>
-0.665882

>  <SCORE.INTRA>
-0.573276

>  <SCORE.INTRA.DIHEDRAL>
0.165801

>  <SCORE.INTRA.DIHEDRAL.0>
6.18831

>  <SCORE.INTRA.POLAR>
0

>  <SCORE.INTRA.POLAR.0>
0

>  <SCORE.INTRA.REPUL>
0

>  <SCORE.INTRA.REPUL.0>
0

>  <SCORE.INTRA.SOLV>
-0.00672381

>  <SCORE.INTRA.SOLV.lig_0>
-44.3465

>  <SCORE.INTRA.VDW>
-0.652815

>  <SCORE.INTRA.VDW.0>
-0.778272

>  <SCORE.INTRA.norm>
-0.026058

>  <SCORE.RESTR>
0

>  <SCORE.RESTR.CAVITY>
0

>  <SCORE.RESTR.norm>
0

>  <SCORE.SYSTEM>
0

>  <SCORE.SYSTEM.CONST>
0

>  <SCORE.SYSTEM.DIHEDRAL>
0

>  <SCORE.SYSTEM.SOLV>
0

>  <SCORE.SYSTEM.norm>
0

>  <SCORE.heavy>
22

>  <SCORE.norm>
-0.69194

>  <RMSD>
7.160

$$$$
ligand
 OpenBabel11021811503D
libRbt.so/2013.1/901 2013/11/27
 22 24  0  0  0  0  0  0  0  0999 V2000
    2.2206    2.2848   21.4118 C   0  0  0  0  0  0  0  0  0  0  0  0
    2.3248    3.1285   22.5379 C   0  0  0  0  0  0  0  0  0  0  0  0
    1.2153    3.8635   22.9464 C   0  0  0  0  0  0  0  0  0  0  0  0
    0.0104    3.7538   22.2305 C   0  0  0  0  0  0  0  0  0  0  0  0
   -0.0929    2.9143   21.0941 C   0  0  0  0  0  0  0  0  0  0  0  0
    1.0148    2.1827   20.6878 C   0  0  0  0  0  0  0  0  0  0  0  0
    3.4443    1.4783   20.9359 C   0  0  0  0  0  0  0  0  0  0  0  0
    4.1611    2.0522   19.6883 C   0  0  0  0  0  0  0  0  0  0  0  0
    4.5963    3.5049   19.8427 C   0  0  0  0  0  0  0  0  0  0  0  0
    4.1138    4.5521   19.0519 C   0  0  0  0  0  0  0  0  0  0  0  0
    4.7226    5.6865   19.4864 N   0  0  0  0  0  0  0  0  0  0  0  0
    5.5913    5.4480   20.5327 C   0  0  0  0  0  0  0  0  0  0  0  0
    5.5430    4.0830   20.7937 C   0  0  0  0  0  0  0  0  0  0  0  0
    6.3767    3.5851   21.8658 C   0  0  0  0  0  0  0  0  0  0  0  0
    6.3725    2.2307   22.1878 O   0  0  0  0  0  0  0  0  0  0  0  0
    7.1812    4.4749   22.5650 N   0  0  0  0  0  0  0  0  0  0  0  0
    7.1887    5.8096   22.2802 C   0  0  0  0  0  0  0  0  0  0  0  0
    6.4282    6.3062   21.2918 N   0  0  0  0  0  0  0  0  0  0  0  0
    8.0434    6.7126   23.0576 N   0  0  0  0  0  0  0  0  0  0  0  0
   -1.1722    4.5640   22.6911 C   0  0  0  0  0  0  0  0  0  0  0  0
   -1.5076    4.5505   23.8740 O   0  0  0  0  0  0  0  0  0  0  0  0
   -1.8997    5.3427   21.7244 N   0  0  0  0  0  0  0  0  0  0  0  0
  1  2  2  0  0  0  0
  1  6  1  0  0  0  0
  1  7  1  0  0  0  0
  2  3  1  0  0  0  0
  3  4  2  0  0  0  0
  4  5  1  0  0  0  0
  4 20  1  0  0  0  0
  5  6  2  0  0  0  0
  7  8  1  0  0  0  0
  8  9  1  0  0  0  0
  9 10  2  0  0  0  0
  9 13  1  0  0  0  0
 10 11  1  0  0  0  0
 11 12  1  0  0  0  0
 12 13  2  0  0  0  0
 12 18  1  0  0  0  0
 13 14  1  0  0  0  0
 14 15  1  0  0  0  0
 14 16  2  0  0  0  0
 16 17  1  0  0  0  0
 17 18  2  0  0  0  0
 17 19  1  0  0  0  0
 20 21  2  0  0  0  0
 20 22  1  0  0  0  0
M  END
>  <CHROM.1>
-102.93056431,-49.47194652,55.16282255,-117.29327743,3.47601207,4.03231969
21.52098177,-3.06969039,0.14733925,0.52529963

>  <Name>
ligand

>  <RI>
0

>  <Rbt.Current_Directory>
/home/itssahil/PROJECTS/Mol_Feturizer/New_Systems/rnas/4LVY

>  <Rbt.Executable>
rbdock ($Id: //depot/dev/client3/rdock/2013.1/src/exe/rbdock.cxx#4 $)

>  <Rbt.Library>
libRbt.so (2013.1, Build901 2013/11/27)

>  <Rbt.Parameter_File>
/export/apps/rDock/src/rDock_2013.1_src/data/scripts/dock_solv.prm

>  <Rbt.Receptor>
prm/pocket_docking_7.prm

>  <SCORE>
-9.22825

>  <SCORE.INTER>
-8.00581

>  <SCORE.INTER.CONST>
1

>  <SCORE.INTER.POLAR>
0

>  <SCORE.INTER.ROT>
4

>  <SCORE.INTER.SOLV>
9.15419

>  <SCORE.INTER.VDW>
-14.6553

>  <SCORE.INTER.norm>
-0.363901

>  <SCORE.INTRA>
-1.22244

>  <SCORE.INTRA.DIHEDRAL>
0.0750616

>  <SCORE.INTRA.DIHEDRAL.0>
6.18831

>  <SCORE.INTRA.POLAR>
0

>  <SCORE.INTRA.POLAR.0>
0

>  <SCORE.INTRA.REPUL>
0

>  <SCORE.INTRA.REPUL.0>
0

>  <SCORE.INTRA.SOLV>
0.284447

>  <SCORE.INTRA.SOLV.lig_0>
-44.3465

>  <SCORE.INTRA.VDW>
-1.40219

>  <SCORE.INTRA.VDW.0>
-0.778272

>  <SCORE.INTRA.norm>
-0.0555655

>  <SCORE.RESTR>
0

>  <SCORE.RESTR.CAVITY>
0

>  <SCORE.RESTR.norm>
0

>  <SCORE.SYSTEM>
0

>  <SCORE.SYSTEM.CONST>
0

>  <SCORE.SYSTEM.DIHEDRAL>
0

>  <SCORE.SYSTEM.SOLV>
0

>  <SCORE.SYSTEM.norm>
0

>  <SCORE.heavy>
22

>  <SCORE.norm>
-0.419466

>  <RMSD>
7.188

$$$$
ligand
 OpenBabel11021811503D
libRbt.so/2013.1/901 2013/11/27
 22 24  0  0  0  0  0  0  0  0999 V2000
    0.2480    4.5627   23.0070 C   0  0  0  0  0  0  0  0  0  0  0  0
    1.5727    4.1281   23.2238 C   0  0  0  0  0  0  0  0  0  0  0  0
    2.4462    4.9331   23.9500 C   0  0  0  0  0  0  0  0  0  0  0  0
    1.9946    6.1651   24.4544 C   0  0  0  0  0  0  0  0  0  0  0  0
    0.6676    6.6070   24.2295 C   0  0  0  0  0  0  0  0  0  0  0  0
   -0.2016    5.8033   23.5045 C   0  0  0  0  0  0  0  0  0  0  0  0
   -0.7259    3.6919   22.1901 C   0  0  0  0  0  0  0  0  0  0  0  0
   -0.4196    3.6144   20.6735 C   0  0  0  0  0  0  0  0  0  0  0  0
    0.9234    2.9704   20.3494 C   0  0  0  0  0  0  0  0  0  0  0  0
    1.4867    1.9262   21.0891 C   0  0  0  0  0  0  0  0  0  0  0  0
    2.6710    1.6191   20.4982 N   0  0  0  0  0  0  0  0  0  0  0  0
    2.9278    2.4095   19.3957 C   0  0  0  0  0  0  0  0  0  0  0  0
    1.8496    3.2774   19.2618 C   0  0  0  0  0  0  0  0  0  0  0  0
    1.8875    4.2138   18.1600 C   0  0  0  0  0  0  0  0  0  0  0  0
    0.8381    5.1065   17.9603 O   0  0  0  0  0  0  0  0  0  0  0  0
    2.9845    4.2112   17.3087 N   0  0  0  0  0  0  0  0  0  0  0  0
    4.0165    3.3334   17.4729 C   0  0  0  0  0  0  0  0  0  0  0  0
    4.0147    2.4512   18.4845 N   0  0  0  0  0  0  0  0  0  0  0  0
    5.1459    3.3583   16.5378 N   0  0  0  0  0  0  0  0  0  0  0  0
    2.9618    7.0181   25.2317 C   0  0  0  0  0  0  0  0  0  0  0  0
    3.2936    6.6948   26.3708 O   0  0  0  0  0  0  0  0  0  0  0  0
    3.4801    8.2133   24.6211 N   0  0  0  0  0  0  0  0  0  0  0  0
  1  2  2  0  0  0  0
  1  6  1  0  0  0  0
  1  7  1  0  0  0  0
  2  3  1  0  0  0  0
  3  4  2  0  0  0  0
  4  5  1  0  0  0  0
  4 20  1  0  0  0  0
  5  6  2  0  0  0  0
  7  8  1  0  0  0  0
  8  9  1  0  0  0  0
  9 10  2  0  0  0  0
  9 13  1  0  0  0  0
 10 11  1  0  0  0  0
 11 12  1  0  0  0  0
 12 13  2  0  0  0  0
 12 18  1  0  0  0  0
 13 14  1  0  0  0  0
 14 15  1  0  0  0  0
 14 16  2  0  0  0  0
 16 17  1  0  0  0  0
 17 18  2  0  0  0  0
 17 19  1  0  0  0  0
 20 21  2  0  0  0  0
 20 22  1  0  0  0  0
M  END
>  <CHROM.1>
-70.47812921,-72.89582685,63.05422733,34.45297378,2.02611418,4.39572109,21.23663878
1.70713483,0.37567316,1.07962850

>  <Name>
ligand

>  <RI>
0

>  <Rbt.Current_Directory>
/home/itssahil/PROJECTS/Mol_Feturizer/New_Systems/rnas/4LVY

>  <Rbt.Executable>
rbdock ($Id: //depot/dev/client3/rdock/2013.1/src/exe/rbdock.cxx#4 $)

>  <Rbt.Library>
libRbt.so (2013.1, Build901 2013/11/27)

>  <Rbt.Parameter_File>
/export/apps/rDock/src/rDock_2013.1_src/data/scripts/dock_solv.prm

>  <Rbt.Receptor>
prm/pocket_docking_8.prm

>  <SCORE>
-17.2421

>  <SCORE.INTER>
-16.4926

>  <SCORE.INTER.CONST>
1

>  <SCORE.INTER.POLAR>
0

>  <SCORE.INTER.ROT>
4

>  <SCORE.INTER.SOLV>
9.82216

>  <SCORE.INTER.VDW>
-20.5358

>  <SCORE.INTER.norm>
-0.749661

>  <SCORE.INTRA>
-0.749566

>  <SCORE.INTRA.DIHEDRAL>
-0.0209646

>  <SCORE.INTRA.DIHEDRAL.0>
6.18831

>  <SCORE.INTRA.POLAR>
0

>  <SCORE.INTRA.POLAR.0>
0

>  <SCORE.INTRA.REPUL>
0

>  <SCORE.INTRA.REPUL.0>
0

>  <SCORE.INTRA.SOLV>
-0.00622309

>  <SCORE.INTRA.SOLV.lig_0>
-44.3465

>  <SCORE.INTRA.VDW>
-0.735972

>  <SCORE.INTRA.VDW.0>
-0.778272

>  <SCORE.INTRA.norm>
-0.0340712

>  <SCORE.RESTR>
0

>  <SCORE.RESTR.CAVITY>
0

>  <SCORE.RESTR.norm>
0

>  <SCORE.SYSTEM>
0

>  <SCORE.SYSTEM.CONST>
0

>  <SCORE.SYSTEM.DIHEDRAL>
0

>  <SCORE.SYSTEM.SOLV>
0

>  <SCORE.SYSTEM.norm>
0

>  <SCORE.heavy>
22

>  <SCORE.norm>
-0.783733

>  <RMSD>
7.245

$$$$
ligand
 OpenBabel11021811503D
libRbt.so/2013.1/901 2013/11/27
 22 24  0  0  0  0  0  0  0  0999 V2000
    0.4508    3.3131   21.3429 C   0  0  0  0  0  0  0  0  0  0  0  0
   -0.8645    3.8007   21.1919 C   0  0  0  0  0  0  0  0  0  0  0  0
   -1.3937    4.6509   22.1591 C   0  0  0  0  0  0  0  0  0  0  0  0
   -0.6100    5.0086   23.2699 C   0  0  0  0  0  0  0  0  0  0  0  0
    0.7074    4.5121   23.4276 C   0  0  0  0  0  0  0  0  0  0  0  0
    1.2331    3.6640   22.4625 C   0  0  0  0  0  0  0  0  0  0  0  0
    1.0450    2.3571   20.2907 C   0  0  0  0  0  0  0  0  0  0  0  0
    2.5398    2.5949   19.9608 C   0  0  0  0  0  0  0  0  0  0  0  0
    3.4906    2.1686   21.0733 C   0  0  0  0  0  0  0  0  0  0  0  0
    3.8726    0.8443   21.3083 C   0  0  0  0  0  0  0  0  0  0  0  0
    4.7234    0.8619   22.3675 N   0  0  0  0  0  0  0  0  0  0  0  0
    4.9297    2.1376   22.8536 C   0  0  0  0  0  0  0  0  0  0  0  0
    4.1722    2.9969   22.0654 C   0  0  0  0  0  0  0  0  0  0  0  0
    4.2282    4.4070   22.3826 C   0  0  0  0  0  0  0  0  0  0  0  0
    3.5018    5.3258   21.6300 O   0  0  0  0  0  0  0  0  0  0  0  0
    5.0125    4.8292   23.4478 N   0  0  0  0  0  0  0  0  0  0  0  0
    5.7480    3.9500   24.1885 C   0  0  0  0  0  0  0  0  0  0  0  0
    5.7195    2.6346   23.9226 N   0  0  0  0  0  0  0  0  0  0  0  0
    6.5742    4.4461   25.2938 N   0  0  0  0  0  0  0  0  0  0  0  0
   -1.2092    5.9252   24.3034 C   0  0  0  0  0  0  0  0  0  0  0  0
   -2.2619    5.6223   24.8620 O   0  0  0  0  0  0  0  0  0  0  0  0
   -0.5329    7.1560   24.6160 N   0  0  0  0  0  0  0  0  0  0  0  0
  1  2  2  0  0  0  0
  1  6  1  0  0  0  0
  1  7  1  0  0  0  0
  2  3  1  0  0  0  0
  3  4  2  0  0  0  0
  4  5  1  0  0  0  0
  4 20  1  0  0  0  0
  5  6  2  0  0  0  0
  7  8  1  0  0  0  0
  8  9  1  0  0  0  0
  9 10  2  0  0  0  0
  9 13  1  0  0  0  0
 10 11  1  0  0  0  0
 11 12  1  0  0  0  0
 12 13  2  0  0  0  0
 12 18  1  0  0  0  0
 13 14  1  0  0  0  0
 14 15  1  0  0  0  0
 14 16  2  0  0  0  0
 16 17  1  0  0  0  0
 17 18  2  0  0  0  0
 17 19  1  0  0  0  0
 20 21  2  0  0  0  0
 20 22  1  0  0  0  0
M  END
>  <CHROM.1>
141.28557221,56.49029075,72.10869141,79.16617311,2.33574149,3.81798705,22.68071197
2.83558914,-0.23731981,0.84448407

>  <Name>
ligand

>  <RI>
0

>  <Rbt.Current_Directory>
/home/itssahil/PROJECTS/Mol_Feturizer/New_Systems/rnas/4LVY

>  <Rbt.Executable>
rbdock ($Id: //depot/dev/client3/rdock/2013.1/src/exe/rbdock.cxx#4 $)

>  <Rbt.Library>
libRbt.so (2013.1, Build901 2013/11/27)

>  <Rbt.Parameter_File>
/export/apps/rDock/src/rDock_2013.1_src/data/scripts/dock_solv.prm

>  <Rbt.Receptor>
prm/pocket_docking_6.prm

>  <SCORE>
-13.6989

>  <SCORE.INTER>
-12.9765

>  <SCORE.INTER.CONST>
1

>  <SCORE.INTER.POLAR>
0

>  <SCORE.INTER.ROT>
4

>  <SCORE.INTER.SOLV>
10.316

>  <SCORE.INTER.VDW>
-18.3563

>  <SCORE.INTER.norm>
-0.589841

>  <SCORE.INTRA>
-0.722402

>  <SCORE.INTRA.DIHEDRAL>
0.567943

>  <SCORE.INTRA.DIHEDRAL.0>
6.18831

>  <SCORE.INTRA.POLAR>
0

>  <SCORE.INTRA.POLAR.0>
0

>  <SCORE.INTRA.REPUL>
0

>  <SCORE.INTRA.REPUL.0>
0

>  <SCORE.INTRA.SOLV>
0.402196

>  <SCORE.INTRA.SOLV.lig_0>
-44.3465

>  <SCORE.INTRA.VDW>
-1.20747

>  <SCORE.INTRA.VDW.0>
-0.778272

>  <SCORE.INTRA.norm>
-0.0328365

>  <SCORE.RESTR>
0

>  <SCORE.RESTR.CAVITY>
0

>  <SCORE.RESTR.norm>
0

>  <SCORE.SYSTEM>
0

>  <SCORE.SYSTEM.CONST>
0

>  <SCORE.SYSTEM.DIHEDRAL>
0

>  <SCORE.SYSTEM.SOLV>
0

>  <SCORE.SYSTEM.norm>
0

>  <SCORE.heavy>
22

>  <SCORE.norm>
-0.622678

>  <RMSD>
7.254

$$$$
ligand
 OpenBabel11021811503D
libRbt.so/2013.1/901 2013/11/27
 22 24  0  0  0  0  0  0  0  0999 V2000
    0.2416    4.5782   22.9939 C   0  0  0  0  0  0  0  0  0  0  0  0
   -0.2110    5.8127   23.5055 C   0  0  0  0  0  0  0  0  0  0  0  0
    0.6631    6.6107   24.2387 C   0  0  0  0  0  0  0  0  0  0  0  0
    1.9809    6.1732   24.4580 C   0  0  0  0  0  0  0  0  0  0  0  0
    2.4339    4.9296   23.9530 C   0  0  0  0  0  0  0  0  0  0  0  0
    1.5606    4.1351   23.2227 C   0  0  0  0  0  0  0  0  0  0  0  0
   -0.7184    3.6751   22.1957 C   0  0  0  0  0  0  0  0  0  0  0  0
   -0.4229    3.5867   20.6775 C   0  0  0  0  0  0  0  0  0  0  0  0
    0.9211    2.9472   20.3487 C   0  0  0  0  0  0  0  0  0  0  0  0
    1.4832    1.8944   21.0772 C   0  0  0  0  0  0  0  0  0  0  0  0
    2.6690    1.5950   20.4852 N   0  0  0  0  0  0  0  0  0  0  0  0
    2.9279    2.3987   19.3929 C   0  0  0  0  0  0  0  0  0  0  0  0
    1.8496    3.2676   19.2670 C   0  0  0  0  0  0  0  0  0  0  0  0
    1.8896    4.2172   18.1766 C   0  0  0  0  0  0  0  0  0  0  0  0
    0.8403    5.1118   17.9853 O   0  0  0  0  0  0  0  0  0  0  0  0
    2.9885    4.2253   17.3278 N   0  0  0  0  0  0  0  0  0  0  0  0
    4.0205    3.3460   17.4838 C   0  0  0  0  0  0  0  0  0  0  0  0
    4.0169    2.4517   18.4847 N   0  0  0  0  0  0  0  0  0  0  0  0
    5.1521    3.3826   16.5517 N   0  0  0  0  0  0  0  0  0  0  0  0
    2.9034    7.0535   25.2589 C   0  0  0  0  0  0  0  0  0  0  0  0
    3.0141    8.2465   24.9820 O   0  0  0  0  0  0  0  0  0  0  0  0
    3.6515    6.4726   26.3419 N   0  0  0  0  0  0  0  0  0  0  0  0
  1  2  2  0  0  0  0
  1  6  1  0  0  0  0
  1  7  1  0  0  0  0
  2  3  1  0  0  0  0
  3  4  2  0  0  0  0
  4  5  1  0  0  0  0
  4 20  1  0  0  0  0
  5  6  2  0  0  0  0
  7  8  1  0  0  0  0
  8  9  1  0  0  0  0
  9 10  2  0  0  0  0
  9 13  1  0  0  0  0
 10 11  1  0  0  0  0
 11 12  1  0  0  0  0
 12 13  2  0  0  0  0
 12 18  1  0  0  0  0
 13 14  1  0  0  0  0
 14 15  1  0  0  0  0
 14 16  2  0  0  0  0
 16 17  1  0  0  0  0
 17 18  2  0  0  0  0
 17 19  1  0  0  0  0
 20 21  2  0  0  0  0
 20 22  1  0  0  0  0
M  END
>  <CHROM.1>
108.96302664,-49.74649350,64.11115282,35.77296693,2.01481350,4.39679278,21.24805791
1.70905620,0.36005094,1.07518583

>  <Name>
ligand

>  <RI>
0

>  <Rbt.Current_Directory>
/home/itssahil/PROJECTS/Mol_Feturizer/New_Systems/rnas/4LVY

>  <Rbt.Executable>
rbdock ($Id: //depot/dev/client3/rdock/2013.1/src/exe/rbdock.cxx#4 $)

>  <Rbt.Library>
libRbt.so (2013.1, Build901 2013/11/27)

>  <Rbt.Parameter_File>
/export/apps/rDock/src/rDock_2013.1_src/data/scripts/dock_solv.prm

>  <Rbt.Receptor>
prm/pocket_docking_6.prm

>  <SCORE>
-17.1385

>  <SCORE.INTER>
-16.5119

>  <SCORE.INTER.CONST>
1

>  <SCORE.INTER.POLAR>
0

>  <SCORE.INTER.ROT>
4

>  <SCORE.INTER.SOLV>
9.98362

>  <SCORE.INTER.VDW>
-20.6025

>  <SCORE.INTER.norm>
-0.750543

>  <SCORE.INTRA>
-0.626574

>  <SCORE.INTRA.DIHEDRAL>
0.128173

>  <SCORE.INTRA.DIHEDRAL.0>
6.18831

>  <SCORE.INTRA.POLAR>
0

>  <SCORE.INTRA.POLAR.0>
0

>  <SCORE.INTRA.REPUL>
0

>  <SCORE.INTRA.REPUL.0>
0

>  <SCORE.INTRA.SOLV>
-0.00110199

>  <SCORE.INTRA.SOLV.lig_0>
-44.3465

>  <SCORE.INTRA.VDW>
-0.69011

>  <SCORE.INTRA.VDW.0>
-0.778272

>  <SCORE.INTRA.norm>
-0.0284807

>  <SCORE.RESTR>
0

>  <SCORE.RESTR.CAVITY>
0

>  <SCORE.RESTR.norm>
0

>  <SCORE.SYSTEM>
0

>  <SCORE.SYSTEM.CONST>
0

>  <SCORE.SYSTEM.DIHEDRAL>
0

>  <SCORE.SYSTEM.SOLV>
0

>  <SCORE.SYSTEM.norm>
0

>  <SCORE.heavy>
22

>  <SCORE.norm>
-0.779023

>  <RMSD>
7.284

$$$$
ligand
 OpenBabel11021811503D
libRbt.so/2013.1/901 2013/11/27
 22 24  0  0  0  0  0  0  0  0999 V2000
    0.4451    3.2949   21.3762 C   0  0  0  0  0  0  0  0  0  0  0  0
   -0.8749    3.7822   21.2717 C   0  0  0  0  0  0  0  0  0  0  0  0
   -1.3654    4.6427   22.2501 C   0  0  0  0  0  0  0  0  0  0  0  0
   -0.5386    5.0110   23.3256 C   0  0  0  0  0  0  0  0  0  0  0  0
    0.7837    4.5150   23.4368 C   0  0  0  0  0  0  0  0  0  0  0  0
    1.2708    3.6565   22.4606 C   0  0  0  0  0  0  0  0  0  0  0  0
    0.9971    2.3276   20.3114 C   0  0  0  0  0  0  0  0  0  0  0  0
    2.4706    2.5762   19.9028 C   0  0  0  0  0  0  0  0  0  0  0  0
    3.4789    2.2169   20.9881 C   0  0  0  0  0  0  0  0  0  0  0  0
    3.8348    0.9059   21.3192 C   0  0  0  0  0  0  0  0  0  0  0  0
    4.7533    0.9873   22.3171 N   0  0  0  0  0  0  0  0  0  0  0  0
    5.0299    2.2930   22.6704 C   0  0  0  0  0  0  0  0  0  0  0  0
    4.2489    3.1053   21.8556 C   0  0  0  0  0  0  0  0  0  0  0  0
    4.3686    4.5352   22.0382 C   0  0  0  0  0  0  0  0  0  0  0  0
    3.6229    5.4087   21.2514 O   0  0  0  0  0  0  0  0  0  0  0  0
    5.2336    5.0223   23.0091 N   0  0  0  0  0  0  0  0  0  0  0  0
    5.9888    4.1867   23.7798 C   0  0  0  0  0  0  0  0  0  0  0  0
    5.9028    2.8547   23.6379 N   0  0  0  0  0  0  0  0  0  0  0  0
    6.9004    4.7493   24.7813 N   0  0  0  0  0  0  0  0  0  0  0  0
   -1.0964    5.9387   24.3723 C   0  0  0  0  0  0  0  0  0  0  0  0
   -2.0950    5.6175   25.0139 O   0  0  0  0  0  0  0  0  0  0  0  0
   -0.4455    7.2016   24.5993 N   0  0  0  0  0  0  0  0  0  0  0  0
  1  2  2  0  0  0  0
  1  6  1  0  0  0  0
  1  7  1  0  0  0  0
  2  3  1  0  0  0  0
  3  4  2  0  0  0  0
  4  5  1  0  0  0  0
  4 20  1  0  0  0  0
  5  6  2  0  0  0  0
  7  8  1  0  0  0  0
  8  9  1  0  0  0  0
  9 10  2  0  0  0  0
  9 13  1  0  0  0  0
 10 11  1  0  0  0  0
 11 12  1  0  0  0  0
 12 13  2  0  0  0  0
 12 18  1  0  0  0  0
 13 14  1  0  0  0  0
 14 15  1  0  0  0  0
 14 16  2  0  0  0  0
 16 17  1  0  0  0  0
 17 18  2  0  0  0  0
 17 19  1  0  0  0  0
 20 21  2  0  0  0  0
 20 22  1  0  0  0  0
M  END
>  <CHROM.1>
140.27011795,59.52029953,70.45166233,75.04882558,2.42195605,3.89299849,22.56533188
2.82069849,-0.15818125,0.79572674

>  <Name>
ligand

>  <RI>
0

>  <Rbt.Current_Directory>
/home/itssahil/PROJECTS/Mol_Feturizer/New_Systems/rnas/4LVY

>  <Rbt.Executable>
rbdock ($Id: //depot/dev/client3/rdock/2013.1/src/exe/rbdock.cxx#4 $)

>  <Rbt.Library>
libRbt.so (2013.1, Build901 2013/11/27)

>  <Rbt.Parameter_File>
/export/apps/rDock/src/rDock_2013.1_src/data/scripts/dock_solv.prm

>  <Rbt.Receptor>
prm/pocket_docking_7.prm

>  <SCORE>
-13.9061

>  <SCORE.INTER>
-12.9932

>  <SCORE.INTER.CONST>
1

>  <SCORE.INTER.POLAR>
0

>  <SCORE.INTER.ROT>
4

>  <SCORE.INTER.SOLV>
10.2328

>  <SCORE.INTER.VDW>
-18.3397

>  <SCORE.INTER.norm>
-0.590599

>  <SCORE.INTRA>
-0.912897

>  <SCORE.INTRA.DIHEDRAL>
0.423015

>  <SCORE.INTRA.DIHEDRAL.0>
6.18831

>  <SCORE.INTRA.POLAR>
0

>  <SCORE.INTRA.POLAR.0>
0

>  <SCORE.INTRA.REPUL>
0

>  <SCORE.INTRA.REPUL.0>
0

>  <SCORE.INTRA.SOLV>
0.276672

>  <SCORE.INTRA.SOLV.lig_0>
-44.3465

>  <SCORE.INTRA.VDW>
-1.26274

>  <SCORE.INTRA.VDW.0>
-0.778272

>  <SCORE.INTRA.norm>
-0.0414953

>  <SCORE.RESTR>
0

>  <SCORE.RESTR.CAVITY>
0

>  <SCORE.RESTR.norm>
0

>  <SCORE.SYSTEM>
0

>  <SCORE.SYSTEM.CONST>
0

>  <SCORE.SYSTEM.DIHEDRAL>
0

>  <SCORE.SYSTEM.SOLV>
0

>  <SCORE.SYSTEM.norm>
0

>  <SCORE.heavy>
22

>  <SCORE.norm>
-0.632095

>  <RMSD>
7.285

$$$$
ligand
 OpenBabel11021811503D
libRbt.so/2013.1/901 2013/11/27
 22 24  0  0  0  0  0  0  0  0999 V2000
    0.2018    4.6292   22.9921 C   0  0  0  0  0  0  0  0  0  0  0  0
    1.5590    4.2815   23.1585 C   0  0  0  0  0  0  0  0  0  0  0  0
    2.4109    5.1540   23.8302 C   0  0  0  0  0  0  0  0  0  0  0  0
    1.9056    6.3667   24.3305 C   0  0  0  0  0  0  0  0  0  0  0  0
    0.5453    6.7214   24.1559 C   0  0  0  0  0  0  0  0  0  0  0  0
   -0.3025    5.8504   23.4853 C   0  0  0  0  0  0  0  0  0  0  0  0
   -0.7502    3.6829   22.2355 C   0  0  0  0  0  0  0  0  0  0  0  0
   -0.4747    3.5551   20.7164 C   0  0  0  0  0  0  0  0  0  0  0  0
    0.8855    2.9513   20.3866 C   0  0  0  0  0  0  0  0  0  0  0  0
    1.4672    1.9009   21.1030 C   0  0  0  0  0  0  0  0  0  0  0  0
    2.6629    1.6372   20.5141 N   0  0  0  0  0  0  0  0  0  0  0  0
    2.9099    2.4628   19.4354 C   0  0  0  0  0  0  0  0  0  0  0  0
    1.8128    3.3087   19.3156 C   0  0  0  0  0  0  0  0  0  0  0  0
    1.8375    4.2751   18.2395 C   0  0  0  0  0  0  0  0  0  0  0  0
    0.7692    5.1483   18.0548 O   0  0  0  0  0  0  0  0  0  0  0  0
    2.9409    4.3208   17.3978 N   0  0  0  0  0  0  0  0  0  0  0  0
    3.9918    3.4630   17.5472 C   0  0  0  0  0  0  0  0  0  0  0  0
    4.0027    2.5541   18.5349 N   0  0  0  0  0  0  0  0  0  0  0  0
    5.1277    3.5392   16.6228 N   0  0  0  0  0  0  0  0  0  0  0  0
    2.8502    7.2940   25.0482 C   0  0  0  0  0  0  0  0  0  0  0  0
    3.1198    8.3938   24.5689 O   0  0  0  0  0  0  0  0  0  0  0  0
    3.4312    6.8667   26.2932 N   0  0  0  0  0  0  0  0  0  0  0  0
  1  2  2  0  0  0  0
  1  6  1  0  0  0  0
  1  7  1  0  0  0  0
  2  3  1  0  0  0  0
  3  4  2  0  0  0  0
  4  5  1  0  0  0  0
  4 20  1  0  0  0  0
  5  6  2  0  0  0  0
  7  8  1  0  0  0  0
  8  9  1  0  0  0  0
  9 10  2  0  0  0  0
  9 13  1  0  0  0  0
 10 11  1  0  0  0  0
 11 12  1  0  0  0  0
 12 13  2  0  0  0  0
 12 18  1  0  0  0  0
 13 14  1  0  0  0  0
 14 15  1  0  0  0  0
 14 16  2  0  0  0  0
 16 17  1  0  0  0  0
 17 18  2  0  0  0  0
 17 19  1  0  0  0  0
 20 21  2  0  0  0  0
 20 22  1  0  0  0  0
M  END
>  <CHROM.1>
-68.52175505,114.47326798,63.33511478,38.81847446,1.97261959,4.49892801,21.22645852
1.72254265,0.44428705,1.03011646

>  <Name>
ligand

>  <RI>
0

>  <Rbt.Current_Directory>
/home/itssahil/PROJECTS/Mol_Feturizer/New_Systems/rnas/4LVY

>  <Rbt.Executable>
rbdock ($Id: //depot/dev/client3/rdock/2013.1/src/exe/rbdock.cxx#4 $)

>  <Rbt.Library>
libRbt.so (2013.1, Build901 2013/11/27)

>  <Rbt.Parameter_File>
/export/apps/rDock/src/rDock_2013.1_src/data/scripts/dock_solv.prm

>  <Rbt.Receptor>
prm/pocket_docking_4.prm

>  <SCORE>
-17.1915

>  <SCORE.INTER>
-16.3752

>  <SCORE.INTER.CONST>
1

>  <SCORE.INTER.POLAR>
0

>  <SCORE.INTER.ROT>
4

>  <SCORE.INTER.SOLV>
9.63037

>  <SCORE.INTER.VDW>
-20.3936

>  <SCORE.INTER.norm>
-0.744329

>  <SCORE.INTRA>
-0.81629

>  <SCORE.INTRA.DIHEDRAL>
0.0193823

>  <SCORE.INTRA.DIHEDRAL.0>
6.18831

>  <SCORE.INTRA.POLAR>
0

>  <SCORE.INTRA.POLAR.0>
0

>  <SCORE.INTRA.REPUL>
0

>  <SCORE.INTRA.REPUL.0>
0

>  <SCORE.INTRA.SOLV>
-0.0050639

>  <SCORE.INTRA.SOLV.lig_0>
-44.3465

>  <SCORE.INTRA.VDW>
-0.823449

>  <SCORE.INTRA.VDW.0>
-0.778272

>  <SCORE.INTRA.norm>
-0.0371041

>  <SCORE.RESTR>
0

>  <SCORE.RESTR.CAVITY>
0

>  <SCORE.RESTR.norm>
0

>  <SCORE.SYSTEM>
0

>  <SCORE.SYSTEM.CONST>
0

>  <SCORE.SYSTEM.DIHEDRAL>
0

>  <SCORE.SYSTEM.SOLV>
0

>  <SCORE.SYSTEM.norm>
0

>  <SCORE.heavy>
22

>  <SCORE.norm>
-0.781433

>  <RMSD>
7.286

$$$$
ligand
 OpenBabel11021811503D
libRbt.so/2013.1/901 2013/11/27
 22 24  0  0  0  0  0  0  0  0999 V2000
    0.3766    4.8192   21.8095 C   0  0  0  0  0  0  0  0  0  0  0  0
    1.6516    5.3582   21.5366 C   0  0  0  0  0  0  0  0  0  0  0  0
    2.2949    6.1188   22.5093 C   0  0  0  0  0  0  0  0  0  0  0  0
    1.6637    6.3378   23.7461 C   0  0  0  0  0  0  0  0  0  0  0  0
    0.3795    5.8051   24.0180 C   0  0  0  0  0  0  0  0  0  0  0  0
   -0.2606    5.0477   23.0465 C   0  0  0  0  0  0  0  0  0  0  0  0
   -0.3564    3.9904   20.7372 C   0  0  0  0  0  0  0  0  0  0  0  0
    0.0246    2.4893   20.6969 C   0  0  0  0  0  0  0  0  0  0  0  0
    1.5005    2.2368   20.4114 C   0  0  0  0  0  0  0  0  0  0  0  0
    2.3120    1.3989   21.1823 C   0  0  0  0  0  0  0  0  0  0  0  0
    3.5488    1.4227   20.6205 N   0  0  0  0  0  0  0  0  0  0  0  0
    3.6041    2.2382   19.5078 C   0  0  0  0  0  0  0  0  0  0  0  0
    2.3319    2.7727   19.3361 C   0  0  0  0  0  0  0  0  0  0  0  0
    2.1366    3.6681   18.2170 C   0  0  0  0  0  0  0  0  0  0  0  0
    0.8868    4.2336   17.9795 O   0  0  0  0  0  0  0  0  0  0  0  0
    3.2118    3.9569   17.3872 N   0  0  0  0  0  0  0  0  0  0  0  0
    4.4416    3.4005   17.5885 C   0  0  0  0  0  0  0  0  0  0  0  0
    4.6589    2.5659   18.6171 N   0  0  0  0  0  0  0  0  0  0  0  0
    5.5425    3.7235   16.6751 N   0  0  0  0  0  0  0  0  0  0  0  0
    2.3797    7.1684   24.7780 C   0  0  0  0  0  0  0  0  0  0  0  0
    2.2253    8.3880   24.8052 O   0  0  0  0  0  0  0  0  0  0  0  0
    3.2464    6.5109   25.7195 N   0  0  0  0  0  0  0  0  0  0  0  0
  1  2  2  0  0  0  0
  1  6  1  0  0  0  0
  1  7  1  0  0  0  0
  2  3  1  0  0  0  0
  3  4  2  0  0  0  0
  4  5  1  0  0  0  0
  4 20  1  0  0  0  0
  5  6  2  0  0  0  0
  7  8  1  0  0  0  0
  8  9  1  0  0  0  0
  9 10  2  0  0  0  0
  9 13  1  0  0  0  0
 10 11  1  0  0  0  0
 11 12  1  0  0  0  0
 12 13  2  0  0  0  0
 12 18  1  0  0  0  0
 13 14  1  0  0  0  0
 14 15  1  0  0  0  0
 14 16  2  0  0  0  0
 16 17  1  0  0  0  0
 17 18  2  0  0  0  0
 17 19  1  0  0  0  0
 20 21  2  0  0  0  0
 20 22  1  0  0  0  0
M  END
>  <CHROM.1>
84.97928901,89.35439343,-60.24260042,129.59355721,2.18779029,4.27817403,20.92014300
1.82709793,0.37532285,0.92404215

>  <Name>
ligand

>  <RI>
0

>  <Rbt.Current_Directory>
/home/itssahil/PROJECTS/Mol_Feturizer/New_Systems/rnas/4LVY

>  <Rbt.Executable>
rbdock ($Id: //depot/dev/client3/rdock/2013.1/src/exe/rbdock.cxx#4 $)

>  <Rbt.Library>
libRbt.so (2013.1, Build901 2013/11/27)

>  <Rbt.Parameter_File>
/export/apps/rDock/src/rDock_2013.1_src/data/scripts/dock_solv.prm

>  <Rbt.Receptor>
prm/pocket_docking_8.prm

>  <SCORE>
-16.3514

>  <SCORE.INTER>
-15.0832

>  <SCORE.INTER.CONST>
1

>  <SCORE.INTER.POLAR>
0

>  <SCORE.INTER.ROT>
4

>  <SCORE.INTER.SOLV>
8.83927

>  <SCORE.INTER.VDW>
-19.2686

>  <SCORE.INTER.norm>
-0.685601

>  <SCORE.INTRA>
-1.26821

>  <SCORE.INTRA.DIHEDRAL>
0.112426

>  <SCORE.INTRA.DIHEDRAL.0>
6.18831

>  <SCORE.INTRA.POLAR>
0

>  <SCORE.INTRA.POLAR.0>
0

>  <SCORE.INTRA.REPUL>
0

>  <SCORE.INTRA.REPUL.0>
0

>  <SCORE.INTRA.SOLV>
0.350438

>  <SCORE.INTRA.SOLV.lig_0>
-44.3465

>  <SCORE.INTRA.VDW>
-1.49964

>  <SCORE.INTRA.VDW.0>
-0.778272

>  <SCORE.INTRA.norm>
-0.057646

>  <SCORE.RESTR>
0

>  <SCORE.RESTR.CAVITY>
0

>  <SCORE.RESTR.norm>
0

>  <SCORE.SYSTEM>
0

>  <SCORE.SYSTEM.CONST>
0

>  <SCORE.SYSTEM.DIHEDRAL>
0

>  <SCORE.SYSTEM.SOLV>
0

>  <SCORE.SYSTEM.norm>
0

>  <SCORE.heavy>
22

>  <SCORE.norm>
-0.743247

>  <RMSD>
7.328

$$$$
ligand
 OpenBabel11021811503D
libRbt.so/2013.1/901 2013/11/27
 22 24  0  0  0  0  0  0  0  0999 V2000
    0.1468    4.8174   23.1159 C   0  0  0  0  0  0  0  0  0  0  0  0
    1.5253    4.5573   23.2667 C   0  0  0  0  0  0  0  0  0  0  0  0
    2.3361    5.5047   23.8857 C   0  0  0  0  0  0  0  0  0  0  0  0
    1.7688    6.7045   24.3493 C   0  0  0  0  0  0  0  0  0  0  0  0
    0.3866    6.9711   24.1900 C   0  0  0  0  0  0  0  0  0  0  0  0
   -0.4201    6.0254   23.5719 C   0  0  0  0  0  0  0  0  0  0  0  0
   -0.7610    3.7871   22.4170 C   0  0  0  0  0  0  0  0  0  0  0  0
   -0.6019    3.7124   20.8779 C   0  0  0  0  0  0  0  0  0  0  0  0
    0.7202    3.1039   20.4250 C   0  0  0  0  0  0  0  0  0  0  0  0
    1.2964    1.9697   21.0052 C   0  0  0  0  0  0  0  0  0  0  0  0
    2.4546    1.7305   20.3363 N   0  0  0  0  0  0  0  0  0  0  0  0
    2.6816    2.6523   19.3339 C   0  0  0  0  0  0  0  0  0  0  0  0
    1.6105    3.5388   19.3512 C   0  0  0  0  0  0  0  0  0  0  0  0
    1.6207    4.6071   18.3760 C   0  0  0  0  0  0  0  0  0  0  0  0
    0.5763    5.5264   18.3302 O   0  0  0  0  0  0  0  0  0  0  0  0
    2.6862    4.7037   17.4909 N   0  0  0  0  0  0  0  0  0  0  0  0
    3.7122    3.8038   17.5041 C   0  0  0  0  0  0  0  0  0  0  0  0
    3.7355    2.8004   18.3953 N   0  0  0  0  0  0  0  0  0  0  0  0
    4.8074    3.9380   16.5382 N   0  0  0  0  0  0  0  0  0  0  0  0
    2.6697    7.7138   25.0102 C   0  0  0  0  0  0  0  0  0  0  0  0
    3.1309    7.4920   26.1283 O   0  0  0  0  0  0  0  0  0  0  0  0
    2.9717    8.9364   24.3142 N   0  0  0  0  0  0  0  0  0  0  0  0
  1  2  2  0  0  0  0
  1  6  1  0  0  0  0
  1  7  1  0  0  0  0
  2  3  1  0  0  0  0
  3  4  2  0  0  0  0
  4  5  1  0  0  0  0
  4 20  1  0  0  0  0
  5  6  2  0  0  0  0
  7  8  1  0  0  0  0
  8  9  1  0  0  0  0
  9 10  2  0  0  0  0
  9 13  1  0  0  0  0
 10 11  1  0  0  0  0
 11 12  1  0  0  0  0
 12 13  2  0  0  0  0
 12 18  1  0  0  0  0
 13 14  1  0  0  0  0
 14 15  1  0  0  0  0
 14 16  2  0  0  0  0
 16 17  1  0  0  0  0
 17 18  2  0  0  0  0
 17 19  1  0  0  0  0
 20 21  2  0  0  0  0
 20 22  1  0  0  0  0
M  END
>  <CHROM.1>
-74.12981610,-71.25582295,70.28780291,42.92061894,1.79703574,4.77755704,21.24883544
1.72240395,0.61185686,0.98620403

>  <Name>
ligand

>  <RI>
0

>  <Rbt.Current_Directory>
/home/itssahil/PROJECTS/Mol_Feturizer/New_Systems/rnas/4LVY

>  <Rbt.Executable>
rbdock ($Id: //depot/dev/client3/rdock/2013.1/src/exe/rbdock.cxx#4 $)

>  <Rbt.Library>
libRbt.so (2013.1, Build901 2013/11/27)

>  <Rbt.Parameter_File>
/export/apps/rDock/src/rDock_2013.1_src/data/scripts/dock_solv.prm

>  <Rbt.Receptor>
prm/pocket_docking_6.prm

>  <SCORE>
-17.607

>  <SCORE.INTER>
-16.8935

>  <SCORE.INTER.CONST>
1

>  <SCORE.INTER.POLAR>
0

>  <SCORE.INTER.ROT>
4

>  <SCORE.INTER.SOLV>
9.52774

>  <SCORE.INTER.VDW>
-20.7049

>  <SCORE.INTER.norm>
-0.767886

>  <SCORE.INTRA>
-0.713467

>  <SCORE.INTRA.DIHEDRAL>
0.368726

>  <SCORE.INTRA.DIHEDRAL.0>
6.18831

>  <SCORE.INTRA.POLAR>
0

>  <SCORE.INTRA.POLAR.0>
0

>  <SCORE.INTRA.REPUL>
0

>  <SCORE.INTRA.REPUL.0>
0

>  <SCORE.INTRA.SOLV>
-0.00595232

>  <SCORE.INTRA.SOLV.lig_0>
-44.3465

>  <SCORE.INTRA.VDW>
-0.894854

>  <SCORE.INTRA.VDW.0>
-0.778272

>  <SCORE.INTRA.norm>
-0.0324303

>  <SCORE.RESTR>
0

>  <SCORE.RESTR.CAVITY>
0

>  <SCORE.RESTR.norm>
0

>  <SCORE.SYSTEM>
0

>  <SCORE.SYSTEM.CONST>
0

>  <SCORE.SYSTEM.DIHEDRAL>
0

>  <SCORE.SYSTEM.SOLV>
0

>  <SCORE.SYSTEM.norm>
0

>  <SCORE.heavy>
22

>  <SCORE.norm>
-0.800317

>  <RMSD>
7.330

$$$$
ligand
 OpenBabel11021811503D
libRbt.so/2013.1/901 2013/11/27
 22 24  0  0  0  0  0  0  0  0999 V2000
    0.0926    5.1122   22.1432 C   0  0  0  0  0  0  0  0  0  0  0  0
   -0.0581    5.2419   23.5400 C   0  0  0  0  0  0  0  0  0  0  0  0
    0.7298    6.1588   24.2305 C   0  0  0  0  0  0  0  0  0  0  0  0
    1.6625    6.9392   23.5254 C   0  0  0  0  0  0  0  0  0  0  0  0
    1.8216    6.8033   22.1243 C   0  0  0  0  0  0  0  0  0  0  0  0
    1.0355    5.8879   21.4377 C   0  0  0  0  0  0  0  0  0  0  0  0
   -0.7590    4.0894   21.3668 C   0  0  0  0  0  0  0  0  0  0  0  0
    0.0302    2.8927   20.7792 C   0  0  0  0  0  0  0  0  0  0  0  0
    1.0786    3.2941   19.7481 C   0  0  0  0  0  0  0  0  0  0  0  0
    0.8695    4.2587   18.7577 C   0  0  0  0  0  0  0  0  0  0  0  0
    2.0212    4.3440   18.0418 N   0  0  0  0  0  0  0  0  0  0  0  0
    2.9932    3.4809   18.5068 C   0  0  0  0  0  0  0  0  0  0  0  0
    2.4432    2.7979   19.5860 C   0  0  0  0  0  0  0  0  0  0  0  0
    3.2837    1.8269   20.2516 C   0  0  0  0  0  0  0  0  0  0  0  0
    2.8013    1.1121   21.3445 O   0  0  0  0  0  0  0  0  0  0  0  0
    4.5739    1.6165   19.7837 N   0  0  0  0  0  0  0  0  0  0  0  0
    5.0755    2.3181   18.7259 C   0  0  0  0  0  0  0  0  0  0  0  0
    4.3237    3.2263   18.0844 N   0  0  0  0  0  0  0  0  0  0  0  0
    6.4503    2.0721   18.2785 N   0  0  0  0  0  0  0  0  0  0  0  0
    2.5053    7.9192   24.2978 C   0  0  0  0  0  0  0  0  0  0  0  0
    2.7134    9.0444   23.8478 O   0  0  0  0  0  0  0  0  0  0  0  0
    3.0629    7.5121   25.5601 N   0  0  0  0  0  0  0  0  0  0  0  0
  1  2  2  0  0  0  0
  1  6  1  0  0  0  0
  1  7  1  0  0  0  0
  2  3  1  0  0  0  0
  3  4  2  0  0  0  0
  4  5  1  0  0  0  0
  4 20  1  0  0  0  0
  5  6  2  0  0  0  0
  7  8  1  0  0  0  0
  8  9  1  0  0  0  0
  9 10  2  0  0  0  0
  9 13  1  0  0  0  0
 10 11  1  0  0  0  0
 11 12  1  0  0  0  0
 12 13  2  0  0  0  0
 12 18  1  0  0  0  0
 13 14  1  0  0  0  0
 14 15  1  0  0  0  0
 14 16  2  0  0  0  0
 16 17  1  0  0  0  0
 17 18  2  0  0  0  0
 17 19  1  0  0  0  0
 20 21  2  0  0  0  0
 20 22  1  0  0  0  0
M  END
>  <CHROM.1>
-111.64659813,-137.96952079,-62.38065977,-41.85326303,2.25991356,4.43178698
21.09121604,1.88018701,0.11393504,0.76156942

>  <Name>
ligand

>  <RI>
0

>  <Rbt.Current_Directory>
/home/itssahil/PROJECTS/Mol_Feturizer/New_Systems/rnas/4LVY

>  <Rbt.Executable>
rbdock ($Id: //depot/dev/client3/rdock/2013.1/src/exe/rbdock.cxx#4 $)

>  <Rbt.Library>
libRbt.so (2013.1, Build901 2013/11/27)

>  <Rbt.Parameter_File>
/export/apps/rDock/src/rDock_2013.1_src/data/scripts/dock_solv.prm

>  <Rbt.Receptor>
prm/pocket_docking_5.prm

>  <SCORE>
-14.4611

>  <SCORE.INTER>
-13.7193

>  <SCORE.INTER.CONST>
1

>  <SCORE.INTER.POLAR>
0

>  <SCORE.INTER.ROT>
4

>  <SCORE.INTER.SOLV>
13.5843

>  <SCORE.INTER.VDW>
-19.941

>  <SCORE.INTER.norm>
-0.623603

>  <SCORE.INTRA>
-0.741872

>  <SCORE.INTRA.DIHEDRAL>
0.060059

>  <SCORE.INTRA.DIHEDRAL.0>
6.18831

>  <SCORE.INTRA.POLAR>
0

>  <SCORE.INTRA.POLAR.0>
0

>  <SCORE.INTRA.REPUL>
0

>  <SCORE.INTRA.REPUL.0>
0

>  <SCORE.INTRA.SOLV>
0.00281626

>  <SCORE.INTRA.SOLV.lig_0>
-44.3465

>  <SCORE.INTRA.VDW>
-0.77331

>  <SCORE.INTRA.VDW.0>
-0.778272

>  <SCORE.INTRA.norm>
-0.0337215

>  <SCORE.RESTR>
0

>  <SCORE.RESTR.CAVITY>
0

>  <SCORE.RESTR.norm>
0

>  <SCORE.SYSTEM>
0

>  <SCORE.SYSTEM.CONST>
0

>  <SCORE.SYSTEM.DIHEDRAL>
0

>  <SCORE.SYSTEM.SOLV>
0

>  <SCORE.SYSTEM.norm>
0

>  <SCORE.heavy>
22

>  <SCORE.norm>
-0.657325

>  <RMSD>
7.339

$$$$
ligand
 OpenBabel11021811503D
libRbt.so/2013.1/901 2013/11/27
 22 24  0  0  0  0  0  0  0  0999 V2000
    0.3528    4.9018   21.7704 C   0  0  0  0  0  0  0  0  0  0  0  0
    0.9599    4.2329   22.8542 C   0  0  0  0  0  0  0  0  0  0  0  0
    1.6135    4.9736   23.8353 C   0  0  0  0  0  0  0  0  0  0  0  0
    1.6587    6.3747   23.7297 C   0  0  0  0  0  0  0  0  0  0  0  0
    1.0577    7.0470   22.6371 C   0  0  0  0  0  0  0  0  0  0  0  0
    0.4070    6.3066   21.6595 C   0  0  0  0  0  0  0  0  0  0  0  0
   -0.3591    4.0957   20.6670 C   0  0  0  0  0  0  0  0  0  0  0  0
   -0.0271    2.5827   20.6447 C   0  0  0  0  0  0  0  0  0  0  0  0
    1.4488    2.2801   20.4134 C   0  0  0  0  0  0  0  0  0  0  0  0
    2.2206    1.4720   21.2539 C   0  0  0  0  0  0  0  0  0  0  0  0
    3.4711    1.4339   20.7240 N   0  0  0  0  0  0  0  0  0  0  0  0
    3.5735    2.1794   19.5665 C   0  0  0  0  0  0  0  0  0  0  0  0
    2.3192    2.7313   19.3301 C   0  0  0  0  0  0  0  0  0  0  0  0
    2.1732    3.5617   18.1548 C   0  0  0  0  0  0  0  0  0  0  0  0
    0.9437    4.1400   17.8516 O   0  0  0  0  0  0  0  0  0  0  0  0
    3.2752    3.7756   17.3376 N   0  0  0  0  0  0  0  0  0  0  0  0
    4.4859    3.2047   17.6037 C   0  0  0  0  0  0  0  0  0  0  0  0
    4.6576    2.4289   18.6856 N   0  0  0  0  0  0  0  0  0  0  0  0
    5.6164    3.4471   16.7017 N   0  0  0  0  0  0  0  0  0  0  0  0
    2.3767    7.1506   24.8019 C   0  0  0  0  0  0  0  0  0  0  0  0
    2.1299    8.3431   24.9721 O   0  0  0  0  0  0  0  0  0  0  0  0
    3.3547    6.4743   25.6120 N   0  0  0  0  0  0  0  0  0  0  0  0
  1  2  2  0  0  0  0
  1  6  1  0  0  0  0
  1  7  1  0  0  0  0
  2  3  1  0  0  0  0
  3  4  2  0  0  0  0
  4  5  1  0  0  0  0
  4 20  1  0  0  0  0
  5  6  2  0  0  0  0
  7  8  1  0  0  0  0
  8  9  1  0  0  0  0
  9 10  2  0  0  0  0
  9 13  1  0  0  0  0
 10 11  1  0  0  0  0
 11 12  1  0  0  0  0
 12 13  2  0  0  0  0
 12 18  1  0  0  0  0
 13 14  1  0  0  0  0
 14 15  1  0  0  0  0
 14 16  2  0  0  0  0
 16 17  1  0  0  0  0
 17 18  2  0  0  0  0
 17 19  1  0  0  0  0
 20 21  2  0  0  0  0
 20 22  1  0  0  0  0
M  END
>  <CHROM.1>
-15.59513090,-159.15179533,-60.75054032,126.24548860,2.18422585,4.25174966
20.91513892,1.80294517,0.21478039,0.94609093

>  <Name>
ligand

>  <RI>
0

>  <Rbt.Current_Directory>
/home/itssahil/PROJECTS/Mol_Feturizer/New_Systems/rnas/4LVY

>  <Rbt.Executable>
rbdock ($Id: //depot/dev/client3/rdock/2013.1/src/exe/rbdock.cxx#4 $)

>  <Rbt.Library>
libRbt.so (2013.1, Build901 2013/11/27)

>  <Rbt.Parameter_File>
/export/apps/rDock/src/rDock_2013.1_src/data/scripts/dock_solv.prm

>  <Rbt.Receptor>
prm/pocket_docking_7.prm

>  <SCORE>
-15.7231

>  <SCORE.INTER>
-15.4609

>  <SCORE.INTER.CONST>
1

>  <SCORE.INTER.POLAR>
0

>  <SCORE.INTER.ROT>
4

>  <SCORE.INTER.SOLV>
9.88543

>  <SCORE.INTER.VDW>
-19.8691

>  <SCORE.INTER.norm>
-0.702768

>  <SCORE.INTRA>
-0.262226

>  <SCORE.INTRA.DIHEDRAL>
0.100146

>  <SCORE.INTRA.DIHEDRAL.0>
6.18831

>  <SCORE.INTRA.POLAR>
0

>  <SCORE.INTRA.POLAR.0>
0

>  <SCORE.INTRA.REPUL>
0

>  <SCORE.INTRA.REPUL.0>
0

>  <SCORE.INTRA.SOLV>
0.331683

>  <SCORE.INTRA.SOLV.lig_0>
-44.3465

>  <SCORE.INTRA.VDW>
-0.47814

>  <SCORE.INTRA.VDW.0>
-0.778272

>  <SCORE.INTRA.norm>
-0.0119194

>  <SCORE.RESTR>
0

>  <SCORE.RESTR.CAVITY>
0

>  <SCORE.RESTR.norm>
0

>  <SCORE.SYSTEM>
0

>  <SCORE.SYSTEM.CONST>
0

>  <SCORE.SYSTEM.DIHEDRAL>
0

>  <SCORE.SYSTEM.SOLV>
0

>  <SCORE.SYSTEM.norm>
0

>  <SCORE.heavy>
22

>  <SCORE.norm>
-0.714687

>  <RMSD>
7.342

$$$$
ligand
 OpenBabel11021811503D
libRbt.so/2013.1/901 2013/11/27
 22 24  0  0  0  0  0  0  0  0999 V2000
    0.3718    4.8925   21.8237 C   0  0  0  0  0  0  0  0  0  0  0  0
    1.6989    5.3237   21.6151 C   0  0  0  0  0  0  0  0  0  0  0  0
    2.3429    6.0583   22.6070 C   0  0  0  0  0  0  0  0  0  0  0  0
    1.6608    6.3589   23.7989 C   0  0  0  0  0  0  0  0  0  0  0  0
    0.3251    5.9346   24.0057 C   0  0  0  0  0  0  0  0  0  0  0  0
   -0.3157    5.2029   23.0152 C   0  0  0  0  0  0  0  0  0  0  0  0
   -0.3613    4.0941   20.7286 C   0  0  0  0  0  0  0  0  0  0  0  0
   -0.0168    2.5846   20.6779 C   0  0  0  0  0  0  0  0  0  0  0  0
    1.4541    2.2985   20.3981 C   0  0  0  0  0  0  0  0  0  0  0  0
    2.2451    1.4478   21.1762 C   0  0  0  0  0  0  0  0  0  0  0  0
    3.4837    1.4414   20.6176 N   0  0  0  0  0  0  0  0  0  0  0  0
    3.5596    2.2489   19.5003 C   0  0  0  0  0  0  0  0  0  0  0  0
    2.2998    2.8098   19.3219 C   0  0  0  0  0  0  0  0  0  0  0  0
    2.1269    3.7026   18.1970 C   0  0  0  0  0  0  0  0  0  0  0  0
    0.8903    4.2936   17.9528 O   0  0  0  0  0  0  0  0  0  0  0  0
    3.2103    3.9631   17.3685 N   0  0  0  0  0  0  0  0  0  0  0  0
    4.4272    3.3814   17.5766 C   0  0  0  0  0  0  0  0  0  0  0  0
    4.6236    2.5484   18.6106 N   0  0  0  0  0  0  0  0  0  0  0  0
    5.5372    3.6750   16.6643 N   0  0  0  0  0  0  0  0  0  0  0  0
    2.3794    7.1592   24.8526 C   0  0  0  0  0  0  0  0  0  0  0  0
    2.1719    8.3665   24.9602 O   0  0  0  0  0  0  0  0  0  0  0  0
    3.3114    6.4883   25.7194 N   0  0  0  0  0  0  0  0  0  0  0  0
  1  2  2  0  0  0  0
  1  6  1  0  0  0  0
  1  7  1  0  0  0  0
  2  3  1  0  0  0  0
  3  4  2  0  0  0  0
  4  5  1  0  0  0  0
  4 20  1  0  0  0  0
  5  6  2  0  0  0  0
  7  8  1  0  0  0  0
  8  9  1  0  0  0  0
  9 10  2  0  0  0  0
  9 13  1  0  0  0  0
 10 11  1  0  0  0  0
 11 12  1  0  0  0  0
 12 13  2  0  0  0  0
 12 18  1  0  0  0  0
 13 14  1  0  0  0  0
 14 15  1  0  0  0  0
 14 16  2  0  0  0  0
 16 17  1  0  0  0  0
 17 18  2  0  0  0  0
 17 19  1  0  0  0  0
 20 21  2  0  0  0  0
 20 22  1  0  0  0  0
M  END
>  <CHROM.1>
80.62858464,99.61658909,-61.02420640,128.75989966,2.17075883,4.30578421,20.93250022
1.81796361,0.31298390,0.94692208

>  <Name>
ligand

>  <RI>
0

>  <Rbt.Current_Directory>
/home/itssahil/PROJECTS/Mol_Feturizer/New_Systems/rnas/4LVY

>  <Rbt.Executable>
rbdock ($Id: //depot/dev/client3/rdock/2013.1/src/exe/rbdock.cxx#4 $)

>  <Rbt.Library>
libRbt.so (2013.1, Build901 2013/11/27)

>  <Rbt.Parameter_File>
/export/apps/rDock/src/rDock_2013.1_src/data/scripts/dock_solv.prm

>  <Rbt.Receptor>
prm/pocket_docking_5.prm

>  <SCORE>
-16.4295

>  <SCORE.INTER>
-15.1727

>  <SCORE.INTER.CONST>
1

>  <SCORE.INTER.POLAR>
0

>  <SCORE.INTER.ROT>
4

>  <SCORE.INTER.SOLV>
9.01681

>  <SCORE.INTER.VDW>
-19.3874

>  <SCORE.INTER.norm>
-0.689667

>  <SCORE.INTRA>
-1.25683

>  <SCORE.INTRA.DIHEDRAL>
0.106977

>  <SCORE.INTRA.DIHEDRAL.0>
6.18831

>  <SCORE.INTRA.POLAR>
0

>  <SCORE.INTRA.POLAR.0>
0

>  <SCORE.INTRA.REPUL>
0

>  <SCORE.INTRA.REPUL.0>
0

>  <SCORE.INTRA.SOLV>
0.331927

>  <SCORE.INTRA.SOLV.lig_0>
-44.3465

>  <SCORE.INTRA.VDW>
-1.47628

>  <SCORE.INTRA.VDW.0>
-0.778272

>  <SCORE.INTRA.norm>
-0.0571287

>  <SCORE.RESTR>
0

>  <SCORE.RESTR.CAVITY>
0

>  <SCORE.RESTR.norm>
0

>  <SCORE.SYSTEM>
0

>  <SCORE.SYSTEM.CONST>
0

>  <SCORE.SYSTEM.DIHEDRAL>
0

>  <SCORE.SYSTEM.SOLV>
0

>  <SCORE.SYSTEM.norm>
0

>  <SCORE.heavy>
22

>  <SCORE.norm>
-0.746796

>  <RMSD>
7.346

$$$$
ligand
 OpenBabel11021811503D
libRbt.so/2013.1/901 2013/11/27
 22 24  0  0  0  0  0  0  0  0999 V2000
    0.1661    4.9178   22.1292 C   0  0  0  0  0  0  0  0  0  0  0  0
    0.0024    6.2373   21.6574 C   0  0  0  0  0  0  0  0  0  0  0  0
    0.7226    7.2701   22.2515 C   0  0  0  0  0  0  0  0  0  0  0  0
    1.5998    6.9817   23.3115 C   0  0  0  0  0  0  0  0  0  0  0  0
    1.7580    5.6586   23.7925 C   0  0  0  0  0  0  0  0  0  0  0  0
    1.0385    4.6303   23.1992 C   0  0  0  0  0  0  0  0  0  0  0  0
   -0.6370    3.7661   21.4945 C   0  0  0  0  0  0  0  0  0  0  0  0
    0.2204    2.6472   20.8518 C   0  0  0  0  0  0  0  0  0  0  0  0
    1.1720    3.1459   19.7705 C   0  0  0  0  0  0  0  0  0  0  0  0
    0.8362    4.1182   18.8236 C   0  0  0  0  0  0  0  0  0  0  0  0
    1.9319    4.3010   18.0412 N   0  0  0  0  0  0  0  0  0  0  0  0
    2.9874    3.4957   18.4201 C   0  0  0  0  0  0  0  0  0  0  0  0
    2.5541    2.7495   19.5105 C   0  0  0  0  0  0  0  0  0  0  0  0
    3.4985    1.8225   20.0945 C   0  0  0  0  0  0  0  0  0  0  0  0
    3.1355    1.0490   21.1936 O   0  0  0  0  0  0  0  0  0  0  0  0
    4.7679    1.7137   19.5424 N   0  0  0  0  0  0  0  0  0  0  0  0
    5.1531    2.4746   18.4769 C   0  0  0  0  0  0  0  0  0  0  0  0
    4.3027    3.3445   17.9096 N   0  0  0  0  0  0  0  0  0  0  0  0
    6.5103    2.3357   17.9390 N   0  0  0  0  0  0  0  0  0  0  0  0
    2.3622    8.1184   23.9392 C   0  0  0  0  0  0  0  0  0  0  0  0
    2.2064    8.3842   25.1296 O   0  0  0  0  0  0  0  0  0  0  0  0
    3.2645    8.8850   23.1217 N   0  0  0  0  0  0  0  0  0  0  0  0
  1  2  2  0  0  0  0
  1  6  1  0  0  0  0
  1  7  1  0  0  0  0
  2  3  1  0  0  0  0
  3  4  2  0  0  0  0
  4  5  1  0  0  0  0
  4 20  1  0  0  0  0
  5  6  2  0  0  0  0
  7  8  1  0  0  0  0
  8  9  1  0  0  0  0
  9 10  2  0  0  0  0
  9 13  1  0  0  0  0
 10 11  1  0  0  0  0
 11 12  1  0  0  0  0
 12 13  2  0  0  0  0
 12 18  1  0  0  0  0
 13 14  1  0  0  0  0
 14 15  1  0  0  0  0
 14 16  2  0  0  0  0
 16 17  1  0  0  0  0
 17 18  2  0  0  0  0
 17 19  1  0  0  0  0
 20 21  2  0  0  0  0
 20 22  1  0  0  0  0
M  END
>  <CHROM.1>
119.76027709,118.90294827,-57.29517619,-40.26926119,2.29579510,4.43444277
20.94503844,1.91930097,0.24624984,0.67582302

>  <Name>
ligand

>  <RI>
0

>  <Rbt.Current_Directory>
/home/itssahil/PROJECTS/Mol_Feturizer/New_Systems/rnas/4LVY

>  <Rbt.Executable>
rbdock ($Id: //depot/dev/client3/rdock/2013.1/src/exe/rbdock.cxx#4 $)

>  <Rbt.Library>
libRbt.so (2013.1, Build901 2013/11/27)

>  <Rbt.Parameter_File>
/export/apps/rDock/src/rDock_2013.1_src/data/scripts/dock_solv.prm

>  <Rbt.Receptor>
prm/pocket_docking_5.prm

>  <SCORE>
-14.5937

>  <SCORE.INTER>
-13.8641

>  <SCORE.INTER.CONST>
1

>  <SCORE.INTER.POLAR>
0

>  <SCORE.INTER.ROT>
4

>  <SCORE.INTER.SOLV>
12.69

>  <SCORE.INTER.VDW>
-19.7394

>  <SCORE.INTER.norm>
-0.630188

>  <SCORE.INTRA>
-0.729553

>  <SCORE.INTRA.DIHEDRAL>
0.0806994

>  <SCORE.INTRA.DIHEDRAL.0>
6.18831

>  <SCORE.INTRA.POLAR>
0

>  <SCORE.INTRA.POLAR.0>
0

>  <SCORE.INTRA.REPUL>
0

>  <SCORE.INTRA.REPUL.0>
0

>  <SCORE.INTRA.SOLV>
-0.00382822

>  <SCORE.INTRA.SOLV.lig_0>
-44.3465

>  <SCORE.INTRA.VDW>
-0.767989

>  <SCORE.INTRA.VDW.0>
-0.778272

>  <SCORE.INTRA.norm>
-0.0331615

>  <SCORE.RESTR>
0

>  <SCORE.RESTR.CAVITY>
0

>  <SCORE.RESTR.norm>
0

>  <SCORE.SYSTEM>
0

>  <SCORE.SYSTEM.CONST>
0

>  <SCORE.SYSTEM.DIHEDRAL>
0

>  <SCORE.SYSTEM.SOLV>
0

>  <SCORE.SYSTEM.norm>
0

>  <SCORE.heavy>
22

>  <SCORE.norm>
-0.663349

>  <RMSD>
7.347

$$$$
ligand
 OpenBabel11021811503D
libRbt.so/2013.1/901 2013/11/27
 22 24  0  0  0  0  0  0  0  0999 V2000
    0.2941    4.5683   22.9501 C   0  0  0  0  0  0  0  0  0  0  0  0
    1.6419    4.2369   23.2034 C   0  0  0  0  0  0  0  0  0  0  0  0
    2.4501    5.1385   23.8907 C   0  0  0  0  0  0  0  0  0  0  0  0
    1.9108    6.3636   24.3199 C   0  0  0  0  0  0  0  0  0  0  0  0
    0.5602    6.7017   24.0579 C   0  0  0  0  0  0  0  0  0  0  0  0
   -0.2438    5.8018   23.3719 C   0  0  0  0  0  0  0  0  0  0  0  0
   -0.6088    3.5894   22.1751 C   0  0  0  0  0  0  0  0  0  0  0  0
   -0.2787    3.4481   20.6682 C   0  0  0  0  0  0  0  0  0  0  0  0
    1.0896    2.8351   20.3931 C   0  0  0  0  0  0  0  0  0  0  0  0
    1.6763    1.8472   21.1897 C   0  0  0  0  0  0  0  0  0  0  0  0
    2.8786    1.5524   20.6298 N   0  0  0  0  0  0  0  0  0  0  0  0
    3.1251    2.2973   19.4938 C   0  0  0  0  0  0  0  0  0  0  0  0
    2.0208    3.1207   19.3040 C   0  0  0  0  0  0  0  0  0  0  0  0
    2.0438    4.0040   18.1588 C   0  0  0  0  0  0  0  0  0  0  0  0
    0.9684    4.8501   17.9025 O   0  0  0  0  0  0  0  0  0  0  0  0
    3.1525    3.9977   17.3229 N   0  0  0  0  0  0  0  0  0  0  0  0
    4.2106    3.1642   17.5428 C   0  0  0  0  0  0  0  0  0  0  0  0
    4.2233    2.3320   18.5958 N   0  0  0  0  0  0  0  0  0  0  0  0
    5.3521    3.1825   16.6224 N   0  0  0  0  0  0  0  0  0  0  0  0
    2.8086    7.3222   25.0563 C   0  0  0  0  0  0  0  0  0  0  0  0
    3.0610    8.4257   24.5759 O   0  0  0  0  0  0  0  0  0  0  0  0
    3.3660    6.9203   26.3204 N   0  0  0  0  0  0  0  0  0  0  0  0
  1  2  2  0  0  0  0
  1  6  1  0  0  0  0
  1  7  1  0  0  0  0
  2  3  1  0  0  0  0
  3  4  2  0  0  0  0
  4  5  1  0  0  0  0
  4 20  1  0  0  0  0
  5  6  2  0  0  0  0
  7  8  1  0  0  0  0
  8  9  1  0  0  0  0
  9 10  2  0  0  0  0
  9 13  1  0  0  0  0
 10 11  1  0  0  0  0
 11 12  1  0  0  0  0
 12 13  2  0  0  0  0
 12 18  1  0  0  0  0
 13 14  1  0  0  0  0
 14 15  1  0  0  0  0
 14 16  2  0  0  0  0
 16 17  1  0  0  0  0
 17 18  2  0  0  0  0
 17 19  1  0  0  0  0
 20 21  2  0  0  0  0
 20 22  1  0  0  0  0
M  END
>  <CHROM.1>
-70.50273670,116.99068398,65.02850578,34.52479615,2.09999472,4.37578408,21.21529239
1.75069297,0.40834355,0.99540860

>  <Name>
ligand

>  <RI>
0

>  <Rbt.Current_Directory>
/home/itssahil/PROJECTS/Mol_Feturizer/New_Systems/rnas/4LVY

>  <Rbt.Executable>
rbdock ($Id: //depot/dev/client3/rdock/2013.1/src/exe/rbdock.cxx#4 $)

>  <Rbt.Library>
libRbt.so (2013.1, Build901 2013/11/27)

>  <Rbt.Parameter_File>
/export/apps/rDock/src/rDock_2013.1_src/data/scripts/dock_solv.prm

>  <Rbt.Receptor>
prm/pocket_docking_4.prm

>  <SCORE>
-17.1585

>  <SCORE.INTER>
-16.4463

>  <SCORE.INTER.CONST>
1

>  <SCORE.INTER.POLAR>
0

>  <SCORE.INTER.ROT>
4

>  <SCORE.INTER.SOLV>
10.8487

>  <SCORE.INTER.VDW>
-20.8471

>  <SCORE.INTER.norm>
-0.747561

>  <SCORE.INTRA>
-0.71212

>  <SCORE.INTRA.DIHEDRAL>
0.0660188

>  <SCORE.INTRA.DIHEDRAL.0>
6.18831

>  <SCORE.INTRA.POLAR>
0

>  <SCORE.INTRA.POLAR.0>
0

>  <SCORE.INTRA.REPUL>
0

>  <SCORE.INTRA.REPUL.0>
0

>  <SCORE.INTRA.SOLV>
-0.00440476

>  <SCORE.INTRA.SOLV.lig_0>
-44.3465

>  <SCORE.INTRA.VDW>
-0.742927

>  <SCORE.INTRA.VDW.0>
-0.778272

>  <SCORE.INTRA.norm>
-0.0323691

>  <SCORE.RESTR>
0

>  <SCORE.RESTR.CAVITY>
0

>  <SCORE.RESTR.norm>
0

>  <SCORE.SYSTEM>
0

>  <SCORE.SYSTEM.CONST>
0

>  <SCORE.SYSTEM.DIHEDRAL>
0

>  <SCORE.SYSTEM.SOLV>
0

>  <SCORE.SYSTEM.norm>
0

>  <SCORE.heavy>
22

>  <SCORE.norm>
-0.77993

>  <RMSD>
7.348

$$$$
ligand
 OpenBabel11021811503D
libRbt.so/2013.1/901 2013/11/27
 22 24  0  0  0  0  0  0  0  0999 V2000
    0.2127    4.6785   23.0111 C   0  0  0  0  0  0  0  0  0  0  0  0
    1.5803    4.3817   23.1900 C   0  0  0  0  0  0  0  0  0  0  0  0
    2.3977    5.2958   23.8493 C   0  0  0  0  0  0  0  0  0  0  0  0
    1.8477    6.4990   24.3248 C   0  0  0  0  0  0  0  0  0  0  0  0
    0.4767    6.8025   24.1374 C   0  0  0  0  0  0  0  0  0  0  0  0
   -0.3366    5.8901   23.4792 C   0  0  0  0  0  0  0  0  0  0  0  0
   -0.7016    3.6856   22.2678 C   0  0  0  0  0  0  0  0  0  0  0  0
   -0.4495    3.5797   20.7430 C   0  0  0  0  0  0  0  0  0  0  0  0
    0.8948    2.9574   20.3836 C   0  0  0  0  0  0  0  0  0  0  0  0
    1.4843    1.9085   21.0958 C   0  0  0  0  0  0  0  0  0  0  0  0
    2.6608    1.6253   20.4781 N   0  0  0  0  0  0  0  0  0  0  0  0
    2.8874    2.4362   19.3838 C   0  0  0  0  0  0  0  0  0  0  0  0
    1.7966    3.2928   19.2840 C   0  0  0  0  0  0  0  0  0  0  0  0
    1.8026    4.2469   18.1969 C   0  0  0  0  0  0  0  0  0  0  0  0
    0.7390    5.1298   18.0311 O   0  0  0  0  0  0  0  0  0  0  0  0
    2.8833    4.2713   17.3254 N   0  0  0  0  0  0  0  0  0  0  0  0
    3.9286    3.4037   17.4562 C   0  0  0  0  0  0  0  0  0  0  0  0
    3.9564    2.5056   18.4533 N   0  0  0  0  0  0  0  0  0  0  0  0
    5.0399    3.4572   16.5008 N   0  0  0  0  0  0  0  0  0  0  0  0
    2.7555    7.4719   25.0295 C   0  0  0  0  0  0  0  0  0  0  0  0
    3.0264    8.5525   24.5091 O   0  0  0  0  0  0  0  0  0  0  0  0
    3.3003    7.1104   26.3111 N   0  0  0  0  0  0  0  0  0  0  0  0
  1  2  2  0  0  0  0
  1  6  1  0  0  0  0
  1  7  1  0  0  0  0
  2  3  1  0  0  0  0
  3  4  2  0  0  0  0
  4  5  1  0  0  0  0
  4 20  1  0  0  0  0
  5  6  2  0  0  0  0
  7  8  1  0  0  0  0
  8  9  1  0  0  0  0
  9 10  2  0  0  0  0
  9 13  1  0  0  0  0
 10 11  1  0  0  0  0
 11 12  1  0  0  0  0
 12 13  2  0  0  0  0
 12 18  1  0  0  0  0
 13 14  1  0  0  0  0
 14 15  1  0  0  0  0
 14 16  2  0  0  0  0
 16 17  1  0  0  0  0
 17 18  2  0  0  0  0
 17 19  1  0  0  0  0
 20 21  2  0  0  0  0
 20 22  1  0  0  0  0
M  END
>  <CHROM.1>
-70.74089007,111.92085529,67.53562551,36.97032951,1.93890284,4.53607851,21.20161148
1.72783101,0.48804443,1.00123867

>  <Name>
ligand

>  <RI>
0

>  <Rbt.Current_Directory>
/home/itssahil/PROJECTS/Mol_Feturizer/New_Systems/rnas/4LVY

>  <Rbt.Executable>
rbdock ($Id: //depot/dev/client3/rdock/2013.1/src/exe/rbdock.cxx#4 $)

>  <Rbt.Library>
libRbt.so (2013.1, Build901 2013/11/27)

>  <Rbt.Parameter_File>
/export/apps/rDock/src/rDock_2013.1_src/data/scripts/dock_solv.prm

>  <Rbt.Receptor>
prm/pocket_docking_4.prm

>  <SCORE>
-17.3602

>  <SCORE.INTER>
-16.6471

>  <SCORE.INTER.CONST>
1

>  <SCORE.INTER.POLAR>
0

>  <SCORE.INTER.ROT>
4

>  <SCORE.INTER.SOLV>
10.5377

>  <SCORE.INTER.VDW>
-20.8773

>  <SCORE.INTER.norm>
-0.756687

>  <SCORE.INTRA>
-0.713106

>  <SCORE.INTRA.DIHEDRAL>
0.202864

>  <SCORE.INTRA.DIHEDRAL.0>
6.18831

>  <SCORE.INTRA.POLAR>
0

>  <SCORE.INTRA.POLAR.0>
0

>  <SCORE.INTRA.REPUL>
0

>  <SCORE.INTRA.REPUL.0>
0

>  <SCORE.INTRA.SOLV>
-0.00570279

>  <SCORE.INTRA.SOLV.lig_0>
-44.3465

>  <SCORE.INTRA.VDW>
-0.811686

>  <SCORE.INTRA.VDW.0>
-0.778272

>  <SCORE.INTRA.norm>
-0.0324139

>  <SCORE.RESTR>
0

>  <SCORE.RESTR.CAVITY>
0

>  <SCORE.RESTR.norm>
0

>  <SCORE.SYSTEM>
0

>  <SCORE.SYSTEM.CONST>
0

>  <SCORE.SYSTEM.DIHEDRAL>
0

>  <SCORE.SYSTEM.SOLV>
0

>  <SCORE.SYSTEM.norm>
0

>  <SCORE.heavy>
22

>  <SCORE.norm>
-0.789101

>  <RMSD>
7.352

$$$$
ligand
 OpenBabel11021811503D
libRbt.so/2013.1/901 2013/11/27
 22 24  0  0  0  0  0  0  0  0999 V2000
    0.3452    4.8188   21.7900 C   0  0  0  0  0  0  0  0  0  0  0  0
    1.6660    5.2672   21.5777 C   0  0  0  0  0  0  0  0  0  0  0  0
    2.2997    6.0186   22.5637 C   0  0  0  0  0  0  0  0  0  0  0  0
    1.6136    6.3187   23.7534 C   0  0  0  0  0  0  0  0  0  0  0  0
    0.2841    5.8772   23.9639 C   0  0  0  0  0  0  0  0  0  0  0  0
   -0.3464    5.1287   22.9793 C   0  0  0  0  0  0  0  0  0  0  0  0
   -0.3767    4.0015   20.7014 C   0  0  0  0  0  0  0  0  0  0  0  0
    0.0076    2.5018   20.6465 C   0  0  0  0  0  0  0  0  0  0  0  0
    1.4886    2.2555   20.3830 C   0  0  0  0  0  0  0  0  0  0  0  0
    2.2975    1.4392   21.1794 C   0  0  0  0  0  0  0  0  0  0  0  0
    3.5406    1.4619   20.6314 N   0  0  0  0  0  0  0  0  0  0  0  0
    3.6025    2.2560   19.5037 C   0  0  0  0  0  0  0  0  0  0  0  0
    2.3283    2.7770   19.3070 C   0  0  0  0  0  0  0  0  0  0  0  0
    2.1391    3.6488   18.1684 C   0  0  0  0  0  0  0  0  0  0  0  0
    0.8878    4.1996   17.9057 O   0  0  0  0  0  0  0  0  0  0  0  0
    3.2215    3.9300   17.3455 N   0  0  0  0  0  0  0  0  0  0  0  0
    4.4532    3.3874   17.5717 C   0  0  0  0  0  0  0  0  0  0  0  0
    4.6650    2.5747   18.6188 N   0  0  0  0  0  0  0  0  0  0  0  0
    5.5621    3.7013   16.6648 N   0  0  0  0  0  0  0  0  0  0  0  0
    2.3209    7.1374   24.8006 C   0  0  0  0  0  0  0  0  0  0  0  0
    2.1150    8.3469   24.8827 O   0  0  0  0  0  0  0  0  0  0  0  0
    3.2405    6.4811   25.6915 N   0  0  0  0  0  0  0  0  0  0  0  0
  1  2  2  0  0  0  0
  1  6  1  0  0  0  0
  1  7  1  0  0  0  0
  2  3  1  0  0  0  0
  3  4  2  0  0  0  0
  4  5  1  0  0  0  0
  4 20  1  0  0  0  0
  5  6  2  0  0  0  0
  7  8  1  0  0  0  0
  8  9  1  0  0  0  0
  9 10  2  0  0  0  0
  9 13  1  0  0  0  0
 10 11  1  0  0  0  0
 11 12  1  0  0  0  0
 12 13  2  0  0  0  0
 12 18  1  0  0  0  0
 13 14  1  0  0  0  0
 14 15  1  0  0  0  0
 14 16  2  0  0  0  0
 16 17  1  0  0  0  0
 17 18  2  0  0  0  0
 17 19  1  0  0  0  0
 20 21  2  0  0  0  0
 20 22  1  0  0  0  0
M  END
>  <CHROM.1>
79.62059429,98.26467473,-59.75381842,127.60925501,2.16747921,4.27195051,20.90673516
1.83120584,0.32295926,0.94162980

>  <Name>
ligand

>  <RI>
0

>  <Rbt.Current_Directory>
/home/itssahil/PROJECTS/Mol_Feturizer/New_Systems/rnas/4LVY

>  <Rbt.Executable>
rbdock ($Id: //depot/dev/client3/rdock/2013.1/src/exe/rbdock.cxx#4 $)

>  <Rbt.Library>
libRbt.so (2013.1, Build901 2013/11/27)

>  <Rbt.Parameter_File>
/export/apps/rDock/src/rDock_2013.1_src/data/scripts/dock_solv.prm

>  <Rbt.Receptor>
prm/pocket_docking_6.prm

>  <SCORE>
-16.4098

>  <SCORE.INTER>
-15.1201

>  <SCORE.INTER.CONST>
1

>  <SCORE.INTER.POLAR>
0

>  <SCORE.INTER.ROT>
4

>  <SCORE.INTER.SOLV>
8.97276

>  <SCORE.INTER.VDW>
-19.3376

>  <SCORE.INTER.norm>
-0.687276

>  <SCORE.INTRA>
-1.28975

>  <SCORE.INTRA.DIHEDRAL>
0.103048

>  <SCORE.INTRA.DIHEDRAL.0>
6.18831

>  <SCORE.INTRA.POLAR>
0

>  <SCORE.INTRA.POLAR.0>
0

>  <SCORE.INTRA.REPUL>
0

>  <SCORE.INTRA.REPUL.0>
0

>  <SCORE.INTRA.SOLV>
0.324339

>  <SCORE.INTRA.SOLV.lig_0>
-44.3465

>  <SCORE.INTRA.VDW>
-1.50345

>  <SCORE.INTRA.VDW.0>
-0.778272

>  <SCORE.INTRA.norm>
-0.0586252

>  <SCORE.RESTR>
0

>  <SCORE.RESTR.CAVITY>
0

>  <SCORE.RESTR.norm>
0

>  <SCORE.SYSTEM>
0

>  <SCORE.SYSTEM.CONST>
0

>  <SCORE.SYSTEM.DIHEDRAL>
0

>  <SCORE.SYSTEM.SOLV>
0

>  <SCORE.SYSTEM.norm>
0

>  <SCORE.heavy>
22

>  <SCORE.norm>
-0.745901

>  <RMSD>
7.352

$$$$
ligand
 OpenBabel11021811503D
libRbt.so/2013.1/901 2013/11/27
 22 24  0  0  0  0  0  0  0  0999 V2000
    0.1220    4.7447   23.0227 C   0  0  0  0  0  0  0  0  0  0  0  0
    1.4724    4.4022   23.2457 C   0  0  0  0  0  0  0  0  0  0  0  0
    2.2989    5.2899   23.9292 C   0  0  0  0  0  0  0  0  0  0  0  0
    1.7752    6.5124   24.3848 C   0  0  0  0  0  0  0  0  0  0  0  0
    0.4220    6.8616   24.1532 C   0  0  0  0  0  0  0  0  0  0  0  0
   -0.4004    5.9754   23.4709 C   0  0  0  0  0  0  0  0  0  0  0  0
   -0.8013    3.7812   22.2524 C   0  0  0  0  0  0  0  0  0  0  0  0
   -0.5335    3.6963   20.7289 C   0  0  0  0  0  0  0  0  0  0  0  0
    0.7947    3.0383   20.3736 C   0  0  0  0  0  0  0  0  0  0  0  0
    1.3430    1.9596   21.0740 C   0  0  0  0  0  0  0  0  0  0  0  0
    2.5171    1.6501   20.4644 N   0  0  0  0  0  0  0  0  0  0  0  0
    2.7814    2.4718   19.3869 C   0  0  0  0  0  0  0  0  0  0  0  0
    1.7191    3.3638   19.2899 C   0  0  0  0  0  0  0  0  0  0  0  0
    1.7675    4.3356   18.2195 C   0  0  0  0  0  0  0  0  0  0  0  0
    0.7339    5.2541   18.0575 O   0  0  0  0  0  0  0  0  0  0  0  0
    2.8583    4.3407   17.3605 N   0  0  0  0  0  0  0  0  0  0  0  0
    3.8745    3.4386   17.4878 C   0  0  0  0  0  0  0  0  0  0  0  0
    3.8628    2.5233   18.4695 N   0  0  0  0  0  0  0  0  0  0  0  0
    4.9978    3.4734   16.5457 N   0  0  0  0  0  0  0  0  0  0  0  0
    2.6927    7.4559   25.1164 C   0  0  0  0  0  0  0  0  0  0  0  0
    2.8536    8.6038   24.7059 O   0  0  0  0  0  0  0  0  0  0  0  0
    3.3766    6.9877   26.2924 N   0  0  0  0  0  0  0  0  0  0  0  0
  1  2  2  0  0  0  0
  1  6  1  0  0  0  0
  1  7  1  0  0  0  0
  2  3  1  0  0  0  0
  3  4  2  0  0  0  0
  4  5  1  0  0  0  0
  4 20  1  0  0  0  0
  5  6  2  0  0  0  0
  7  8  1  0  0  0  0
  8  9  1  0  0  0  0
  9 10  2  0  0  0  0
  9 13  1  0  0  0  0
 10 11  1  0  0  0  0
 11 12  1  0  0  0  0
 12 13  2  0  0  0  0
 12 18  1  0  0  0  0
 13 14  1  0  0  0  0
 14 15  1  0  0  0  0
 14 16  2  0  0  0  0
 16 17  1  0  0  0  0
 17 18  2  0  0  0  0
 17 19  1  0  0  0  0
 20 21  2  0  0  0  0
 20 22  1  0  0  0  0
M  END
>  <CHROM.1>
-72.58724256,123.15052931,68.33993722,36.82764227,1.86408311,4.58109362,21.22973537
1.72514465,0.45730212,1.01272322

>  <Name>
ligand

>  <RI>
0

>  <Rbt.Current_Directory>
/home/itssahil/PROJECTS/Mol_Feturizer/New_Systems/rnas/4LVY

>  <Rbt.Executable>
rbdock ($Id: //depot/dev/client3/rdock/2013.1/src/exe/rbdock.cxx#4 $)

>  <Rbt.Library>
libRbt.so (2013.1, Build901 2013/11/27)

>  <Rbt.Parameter_File>
/export/apps/rDock/src/rDock_2013.1_src/data/scripts/dock_solv.prm

>  <Rbt.Receptor>
prm/pocket_docking_5.prm

>  <SCORE>
-17.5777

>  <SCORE.INTER>
-16.9082

>  <SCORE.INTER.CONST>
1

>  <SCORE.INTER.POLAR>
0

>  <SCORE.INTER.ROT>
4

>  <SCORE.INTER.SOLV>
10.6957

>  <SCORE.INTER.VDW>
-21.104

>  <SCORE.INTER.norm>
-0.768553

>  <SCORE.INTRA>
-0.669546

>  <SCORE.INTRA.DIHEDRAL>
0.233039

>  <SCORE.INTRA.DIHEDRAL.0>
6.18831

>  <SCORE.INTRA.POLAR>
0

>  <SCORE.INTRA.POLAR.0>
0

>  <SCORE.INTRA.REPUL>
0

>  <SCORE.INTRA.REPUL.0>
0

>  <SCORE.INTRA.SOLV>
-0.00260929

>  <SCORE.INTRA.SOLV.lig_0>
-44.3465

>  <SCORE.INTRA.VDW>
-0.78476

>  <SCORE.INTRA.VDW.0>
-0.778272

>  <SCORE.INTRA.norm>
-0.0304339

>  <SCORE.RESTR>
0

>  <SCORE.RESTR.CAVITY>
0

>  <SCORE.RESTR.norm>
0

>  <SCORE.SYSTEM>
0

>  <SCORE.SYSTEM.CONST>
0

>  <SCORE.SYSTEM.DIHEDRAL>
0

>  <SCORE.SYSTEM.SOLV>
0

>  <SCORE.SYSTEM.norm>
0

>  <SCORE.heavy>
22

>  <SCORE.norm>
-0.798987

>  <RMSD>
7.368

$$$$
ligand
 OpenBabel11021811503D
libRbt.so/2013.1/901 2013/11/27
 22 24  0  0  0  0  0  0  0  0999 V2000
    0.2252    4.6888   22.6704 C   0  0  0  0  0  0  0  0  0  0  0  0
   -0.2292    6.0157   22.5178 C   0  0  0  0  0  0  0  0  0  0  0  0
    0.5180    7.0603   23.0553 C   0  0  0  0  0  0  0  0  0  0  0  0
    1.7115    6.7761   23.7415 C   0  0  0  0  0  0  0  0  0  0  0  0
    2.1641    5.4435   23.9036 C   0  0  0  0  0  0  0  0  0  0  0  0
    1.4173    4.4032   23.3676 C   0  0  0  0  0  0  0  0  0  0  0  0
   -0.5991    3.5200   22.0971 C   0  0  0  0  0  0  0  0  0  0  0  0
   -0.3009    3.1732   20.6170 C   0  0  0  0  0  0  0  0  0  0  0  0
    1.1076    2.6401   20.3819 C   0  0  0  0  0  0  0  0  0  0  0  0
    1.7272    1.6873   21.1964 C   0  0  0  0  0  0  0  0  0  0  0  0
    2.9600    1.4623   20.6714 N   0  0  0  0  0  0  0  0  0  0  0  0
    3.1956    2.2205   19.5418 C   0  0  0  0  0  0  0  0  0  0  0  0
    2.0516    2.9791   19.3195 C   0  0  0  0  0  0  0  0  0  0  0  0
    2.0565    3.8625   18.1742 C   0  0  0  0  0  0  0  0  0  0  0  0
    0.9419    4.6454   17.8861 O   0  0  0  0  0  0  0  0  0  0  0  0
    3.1872    3.9202   17.3703 N   0  0  0  0  0  0  0  0  0  0  0  0
    4.2847    3.1490   17.6215 C   0  0  0  0  0  0  0  0  0  0  0  0
    4.3152    2.3185   18.6756 N   0  0  0  0  0  0  0  0  0  0  0  0
    5.4491    3.2331   16.7340 N   0  0  0  0  0  0  0  0  0  0  0  0
    2.4971    7.9244   24.3173 C   0  0  0  0  0  0  0  0  0  0  0  0
    2.7975    7.9314   25.5096 O   0  0  0  0  0  0  0  0  0  0  0  0
    2.8798    9.0077   23.4513 N   0  0  0  0  0  0  0  0  0  0  0  0
  1  2  2  0  0  0  0
  1  6  1  0  0  0  0
  1  7  1  0  0  0  0
  2  3  1  0  0  0  0
  3  4  2  0  0  0  0
  4  5  1  0  0  0  0
  4 20  1  0  0  0  0
  5  6  2  0  0  0  0
  7  8  1  0  0  0  0
  8  9  1  0  0  0  0
  9 10  2  0  0  0  0
  9 13  1  0  0  0  0
 10 11  1  0  0  0  0
 11 12  1  0  0  0  0
 12 13  2  0  0  0  0
 12 18  1  0  0  0  0
 13 14  1  0  0  0  0
 14 15  1  0  0  0  0
 14 16  2  0  0  0  0
 16 17  1  0  0  0  0
 17 18  2  0  0  0  0
 17 19  1  0  0  0  0
 20 21  2  0  0  0  0
 20 22  1  0  0  0  0
M  END
>  <CHROM.1>
86.91057210,125.40591643,65.63918052,44.25150907,2.03816763,4.47640794,21.00248048
1.82505437,0.61194974,0.78867868

>  <Name>
ligand

>  <RI>
0

>  <Rbt.Current_Directory>
/home/itssahil/PROJECTS/Mol_Feturizer/New_Systems/rnas/4LVY

>  <Rbt.Executable>
rbdock ($Id: //depot/dev/client3/rdock/2013.1/src/exe/rbdock.cxx#4 $)

>  <Rbt.Library>
libRbt.so (2013.1, Build901 2013/11/27)

>  <Rbt.Parameter_File>
/export/apps/rDock/src/rDock_2013.1_src/data/scripts/dock_solv.prm

>  <Rbt.Receptor>
prm/pocket_docking_5.prm

>  <SCORE>
-16.6682

>  <SCORE.INTER>
-15.9149

>  <SCORE.INTER.CONST>
1

>  <SCORE.INTER.POLAR>
0

>  <SCORE.INTER.ROT>
4

>  <SCORE.INTER.SOLV>
11.5076

>  <SCORE.INTER.VDW>
-20.7125

>  <SCORE.INTER.norm>
-0.723406

>  <SCORE.INTRA>
-0.753296

>  <SCORE.INTRA.DIHEDRAL>
0.203773

>  <SCORE.INTRA.DIHEDRAL.0>
6.18831

>  <SCORE.INTRA.POLAR>
0

>  <SCORE.INTRA.POLAR.0>
0

>  <SCORE.INTRA.REPUL>
0

>  <SCORE.INTRA.REPUL.0>
0

>  <SCORE.INTRA.SOLV>
-0.00179982

>  <SCORE.INTRA.SOLV.lig_0>
-44.3465

>  <SCORE.INTRA.VDW>
-0.854282

>  <SCORE.INTRA.VDW.0>
-0.778272

>  <SCORE.INTRA.norm>
-0.0342407

>  <SCORE.RESTR>
0

>  <SCORE.RESTR.CAVITY>
0

>  <SCORE.RESTR.norm>
0

>  <SCORE.SYSTEM>
0

>  <SCORE.SYSTEM.CONST>
0

>  <SCORE.SYSTEM.DIHEDRAL>
0

>  <SCORE.SYSTEM.SOLV>
0

>  <SCORE.SYSTEM.norm>
0

>  <SCORE.heavy>
22

>  <SCORE.norm>
-0.757646

>  <RMSD>
7.371

$$$$
ligand
 OpenBabel11021811503D
libRbt.so/2013.1/901 2013/11/27
 22 24  0  0  0  0  0  0  0  0999 V2000
   -0.1033    3.5827   21.5720 C   0  0  0  0  0  0  0  0  0  0  0  0
    0.7370    3.8129   22.6818 C   0  0  0  0  0  0  0  0  0  0  0  0
    0.3554    4.7405   23.6474 C   0  0  0  0  0  0  0  0  0  0  0  0
   -0.8594    5.4325   23.5007 C   0  0  0  0  0  0  0  0  0  0  0  0
   -1.6995    5.2092   22.3821 C   0  0  0  0  0  0  0  0  0  0  0  0
   -1.3169    4.2845   21.4199 C   0  0  0  0  0  0  0  0  0  0  0  0
    0.3130    2.5726   20.4854 C   0  0  0  0  0  0  0  0  0  0  0  0
    1.7247    2.7982   19.8887 C   0  0  0  0  0  0  0  0  0  0  0  0
    2.8591    2.4863   20.8579 C   0  0  0  0  0  0  0  0  0  0  0  0
    3.3538    1.1996   21.0917 C   0  0  0  0  0  0  0  0  0  0  0  0
    4.3539    1.3218   22.0032 N   0  0  0  0  0  0  0  0  0  0  0  0
    4.5528    2.6317   22.3914 C   0  0  0  0  0  0  0  0  0  0  0  0
    3.6318    3.4039   21.6920 C   0  0  0  0  0  0  0  0  0  0  0  0
    3.6483    4.8304   21.9308 C   0  0  0  0  0  0  0  0  0  0  0  0
    2.7599    5.6654   21.2589 O   0  0  0  0  0  0  0  0  0  0  0  0
    4.5587    5.3527   22.8398 N   0  0  0  0  0  0  0  0  0  0  0  0
    5.4519    4.5569   23.4967 C   0  0  0  0  0  0  0  0  0  0  0  0
    5.4646    3.2292   23.2999 N   0  0  0  0  0  0  0  0  0  0  0  0
    6.4052    5.1574   24.4354 N   0  0  0  0  0  0  0  0  0  0  0  0
   -1.2449    6.4338   24.5571 C   0  0  0  0  0  0  0  0  0  0  0  0
   -0.5576    7.4373   24.7376 O   0  0  0  0  0  0  0  0  0  0  0  0
   -2.4213    6.1902   25.3489 N   0  0  0  0  0  0  0  0  0  0  0  0
  1  2  2  0  0  0  0
  1  6  1  0  0  0  0
  1  7  1  0  0  0  0
  2  3  1  0  0  0  0
  3  4  2  0  0  0  0
  4  5  1  0  0  0  0
  4 20  1  0  0  0  0
  5  6  2  0  0  0  0
  7  8  1  0  0  0  0
  8  9  1  0  0  0  0
  9 10  2  0  0  0  0
  9 13  1  0  0  0  0
 10 11  1  0  0  0  0
 11 12  1  0  0  0  0
 12 13  2  0  0  0  0
 12 18  1  0  0  0  0
 13 14  1  0  0  0  0
 14 15  1  0  0  0  0
 14 16  2  0  0  0  0
 16 17  1  0  0  0  0
 17 18  2  0  0  0  0
 17 19  1  0  0  0  0
 20 21  2  0  0  0  0
 20 22  1  0  0  0  0
M  END
>  <CHROM.1>
-52.73730085,63.82221182,70.00364627,82.34600486,1.93413304,4.24300411,22.54092845
2.71250402,-0.12842607,0.77215990

>  <Name>
ligand

>  <RI>
0

>  <Rbt.Current_Directory>
/home/itssahil/PROJECTS/Mol_Feturizer/New_Systems/rnas/4LVY

>  <Rbt.Executable>
rbdock ($Id: //depot/dev/client3/rdock/2013.1/src/exe/rbdock.cxx#4 $)

>  <Rbt.Library>
libRbt.so (2013.1, Build901 2013/11/27)

>  <Rbt.Parameter_File>
/export/apps/rDock/src/rDock_2013.1_src/data/scripts/dock_solv.prm

>  <Rbt.Receptor>
prm/pocket_docking_8.prm

>  <SCORE>
-14.8258

>  <SCORE.INTER>
-13.5662

>  <SCORE.INTER.CONST>
1

>  <SCORE.INTER.POLAR>
0

>  <SCORE.INTER.ROT>
4

>  <SCORE.INTER.SOLV>
11.6421

>  <SCORE.INTER.VDW>
-19.1915

>  <SCORE.INTER.norm>
-0.616644

>  <SCORE.INTRA>
-1.25962

>  <SCORE.INTRA.DIHEDRAL>
0.489298

>  <SCORE.INTRA.DIHEDRAL.0>
6.18831

>  <SCORE.INTRA.POLAR>
0

>  <SCORE.INTRA.POLAR.0>
0

>  <SCORE.INTRA.REPUL>
0

>  <SCORE.INTRA.REPUL.0>
0

>  <SCORE.INTRA.SOLV>
0.390582

>  <SCORE.INTRA.SOLV.lig_0>
-44.3465

>  <SCORE.INTRA.VDW>
-1.69956

>  <SCORE.INTRA.VDW.0>
-0.778272

>  <SCORE.INTRA.norm>
-0.0572556

>  <SCORE.RESTR>
0

>  <SCORE.RESTR.CAVITY>
0

>  <SCORE.RESTR.norm>
0

>  <SCORE.SYSTEM>
0

>  <SCORE.SYSTEM.CONST>
0

>  <SCORE.SYSTEM.DIHEDRAL>
0

>  <SCORE.SYSTEM.SOLV>
0

>  <SCORE.SYSTEM.norm>
0

>  <SCORE.heavy>
22

>  <SCORE.norm>
-0.673899

>  <RMSD>
7.379

$$$$
ligand
 OpenBabel11021811503D
libRbt.so/2013.1/901 2013/11/27
 22 24  0  0  0  0  0  0  0  0999 V2000
    0.1834    4.8176   22.9706 C   0  0  0  0  0  0  0  0  0  0  0  0
   -0.3937    6.0163   23.4404 C   0  0  0  0  0  0  0  0  0  0  0  0
    0.4133    6.9667   24.0599 C   0  0  0  0  0  0  0  0  0  0  0  0
    1.7887    6.7164   24.2078 C   0  0  0  0  0  0  0  0  0  0  0  0
    2.3677    5.5093   23.7450 C   0  0  0  0  0  0  0  0  0  0  0  0
    1.5613    4.5625   23.1282 C   0  0  0  0  0  0  0  0  0  0  0  0
   -0.6989    3.7478   22.2988 C   0  0  0  0  0  0  0  0  0  0  0  0
   -0.4828    3.5850   20.7735 C   0  0  0  0  0  0  0  0  0  0  0  0
    0.8604    2.9655   20.4053 C   0  0  0  0  0  0  0  0  0  0  0  0
    1.4414    1.8963   21.0938 C   0  0  0  0  0  0  0  0  0  0  0  0
    2.6197    1.6231   20.4750 N   0  0  0  0  0  0  0  0  0  0  0  0
    2.8556    2.4601   19.4027 C   0  0  0  0  0  0  0  0  0  0  0  0
    1.7694    3.3242   19.3190 C   0  0  0  0  0  0  0  0  0  0  0  0
    1.7854    4.3053   18.2563 C   0  0  0  0  0  0  0  0  0  0  0  0
    0.7268    5.1971   18.1075 O   0  0  0  0  0  0  0  0  0  0  0  0
    2.8706    4.3464   17.3911 N   0  0  0  0  0  0  0  0  0  0  0  0
    3.9112    3.4708   17.5052 C   0  0  0  0  0  0  0  0  0  0  0  0
    3.9297    2.5478   18.4796 N   0  0  0  0  0  0  0  0  0  0  0  0
    5.0276    3.5430   16.5570 N   0  0  0  0  0  0  0  0  0  0  0  0
    2.6371    7.7591   24.8862 C   0  0  0  0  0  0  0  0  0  0  0  0
    2.8106    8.8551   24.3563 O   0  0  0  0  0  0  0  0  0  0  0  0
    3.2410    7.4461   26.1540 N   0  0  0  0  0  0  0  0  0  0  0  0
  1  2  2  0  0  0  0
  1  6  1  0  0  0  0
  1  7  1  0  0  0  0
  2  3  1  0  0  0  0
  3  4  2  0  0  0  0
  4  5  1  0  0  0  0
  4 20  1  0  0  0  0
  5  6  2  0  0  0  0
  7  8  1  0  0  0  0
  8  9  1  0  0  0  0
  9 10  2  0  0  0  0
  9 13  1  0  0  0  0
 10 11  1  0  0  0  0
 11 12  1  0  0  0  0
 12 13  2  0  0  0  0
 12 18  1  0  0  0  0
 13 14  1  0  0  0  0
 14 15  1  0  0  0  0
 14 16  2  0  0  0  0
 16 17  1  0  0  0  0
 17 18  2  0  0  0  0
 17 19  1  0  0  0  0
 20 21  2  0  0  0  0
 20 22  1  0  0  0  0
M  END
>  <CHROM.1>
109.56672814,-66.37298758,69.71628528,41.15338205,1.89424534,4.64948444,21.18293051
1.74504967,0.55401443,0.94040388

>  <Name>
ligand

>  <RI>
0

>  <Rbt.Current_Directory>
/home/itssahil/PROJECTS/Mol_Feturizer/New_Systems/rnas/4LVY

>  <Rbt.Executable>
rbdock ($Id: //depot/dev/client3/rdock/2013.1/src/exe/rbdock.cxx#4 $)

>  <Rbt.Library>
libRbt.so (2013.1, Build901 2013/11/27)

>  <Rbt.Parameter_File>
/export/apps/rDock/src/rDock_2013.1_src/data/scripts/dock_solv.prm

>  <Rbt.Receptor>
prm/pocket_docking_5.prm

>  <SCORE>
-17.5017

>  <SCORE.INTER>
-16.8607

>  <SCORE.INTER.CONST>
1

>  <SCORE.INTER.POLAR>
0

>  <SCORE.INTER.ROT>
4

>  <SCORE.INTER.SOLV>
10.5782

>  <SCORE.INTER.VDW>
-21.0332

>  <SCORE.INTER.norm>
-0.766397

>  <SCORE.INTRA>
-0.640999

>  <SCORE.INTRA.DIHEDRAL>
0.422989

>  <SCORE.INTRA.DIHEDRAL.0>
6.18831

>  <SCORE.INTRA.POLAR>
0

>  <SCORE.INTRA.POLAR.0>
0

>  <SCORE.INTRA.REPUL>
0

>  <SCORE.INTRA.REPUL.0>
0

>  <SCORE.INTRA.SOLV>
-0.00503473

>  <SCORE.INTRA.SOLV.lig_0>
-44.3465

>  <SCORE.INTRA.VDW>
-0.849976

>  <SCORE.INTRA.VDW.0>
-0.778272

>  <SCORE.INTRA.norm>
-0.0291363

>  <SCORE.RESTR>
0

>  <SCORE.RESTR.CAVITY>
0

>  <SCORE.RESTR.norm>
0

>  <SCORE.SYSTEM>
0

>  <SCORE.SYSTEM.CONST>
0

>  <SCORE.SYSTEM.DIHEDRAL>
0

>  <SCORE.SYSTEM.SOLV>
0

>  <SCORE.SYSTEM.norm>
0

>  <SCORE.heavy>
22

>  <SCORE.norm>
-0.795533

>  <RMSD>
7.390

$$$$
ligand
 OpenBabel11021811503D
libRbt.so/2013.1/901 2013/11/27
 22 24  0  0  0  0  0  0  0  0999 V2000
    0.2652    4.6079   22.6583 C   0  0  0  0  0  0  0  0  0  0  0  0
    1.5490    4.3639   23.1902 C   0  0  0  0  0  0  0  0  0  0  0  0
    2.2798    5.4215   23.7248 C   0  0  0  0  0  0  0  0  0  0  0  0
    1.7275    6.7142   23.7253 C   0  0  0  0  0  0  0  0  0  0  0  0
    0.4425    6.9622   23.1830 C   0  0  0  0  0  0  0  0  0  0  0  0
   -0.2844    5.9066   22.6497 C   0  0  0  0  0  0  0  0  0  0  0  0
   -0.5492    3.4517   22.0467 C   0  0  0  0  0  0  0  0  0  0  0  0
   -0.2208    3.1313   20.5670 C   0  0  0  0  0  0  0  0  0  0  0  0
    1.1969    2.6153   20.3493 C   0  0  0  0  0  0  0  0  0  0  0  0
    1.8484    1.7344   21.2178 C   0  0  0  0  0  0  0  0  0  0  0  0
    3.0797    1.5021   20.6925 N   0  0  0  0  0  0  0  0  0  0  0  0
    3.2838    2.1868   19.5112 C   0  0  0  0  0  0  0  0  0  0  0  0
    2.1198    2.9026   19.2537 C   0  0  0  0  0  0  0  0  0  0  0  0
    2.0901    3.7060   18.0512 C   0  0  0  0  0  0  0  0  0  0  0  0
    0.9542    4.4422   17.7261 O   0  0  0  0  0  0  0  0  0  0  0  0
    3.2094    3.7346   17.2300 N   0  0  0  0  0  0  0  0  0  0  0  0
    4.3276    3.0071   17.5177 C   0  0  0  0  0  0  0  0  0  0  0  0
    4.3903    2.2510   18.6251 N   0  0  0  0  0  0  0  0  0  0  0  0
    5.4790    3.0569   16.6108 N   0  0  0  0  0  0  0  0  0  0  0  0
    2.5418    7.8403   24.3050 C   0  0  0  0  0  0  0  0  0  0  0  0
    2.0876    8.5236   25.2209 O   0  0  0  0  0  0  0  0  0  0  0  0
    3.8492    8.1021   23.7644 N   0  0  0  0  0  0  0  0  0  0  0  0
  1  2  2  0  0  0  0
  1  6  1  0  0  0  0
  1  7  1  0  0  0  0
  2  3  1  0  0  0  0
  3  4  2  0  0  0  0
  4  5  1  0  0  0  0
  4 20  1  0  0  0  0
  5  6  2  0  0  0  0
  7  8  1  0  0  0  0
  8  9  1  0  0  0  0
  9 10  2  0  0  0  0
  9 13  1  0  0  0  0
 10 11  1  0  0  0  0
 11 12  1  0  0  0  0
 12 13  2  0  0  0  0
 12 18  1  0  0  0  0
 13 14  1  0  0  0  0
 14 15  1  0  0  0  0
 14 16  2  0  0  0  0
 16 17  1  0  0  0  0
 17 18  2  0  0  0  0
 17 19  1  0  0  0  0
 20 21  2  0  0  0  0
 20 22  1  0  0  0  0
M  END
>  <CHROM.1>
-84.14164196,-123.28827431,64.94061020,39.07897998,2.09279592,4.39238069
20.95366582,1.82265535,0.51102812,0.81935386

>  <Name>
ligand

>  <RI>
0

>  <Rbt.Current_Directory>
/home/itssahil/PROJECTS/Mol_Feturizer/New_Systems/rnas/4LVY

>  <Rbt.Executable>
rbdock ($Id: //depot/dev/client3/rdock/2013.1/src/exe/rbdock.cxx#4 $)

>  <Rbt.Library>
libRbt.so (2013.1, Build901 2013/11/27)

>  <Rbt.Parameter_File>
/export/apps/rDock/src/rDock_2013.1_src/data/scripts/dock_solv.prm

>  <Rbt.Receptor>
prm/pocket_docking_7.prm

>  <SCORE>
-16.8217

>  <SCORE.INTER>
-16.0282

>  <SCORE.INTER.CONST>
1

>  <SCORE.INTER.POLAR>
0

>  <SCORE.INTER.ROT>
4

>  <SCORE.INTER.SOLV>
10.6522

>  <SCORE.INTER.VDW>
-20.5029

>  <SCORE.INTER.norm>
-0.728555

>  <SCORE.INTRA>
-0.793444

>  <SCORE.INTRA.DIHEDRAL>
0.0334092

>  <SCORE.INTRA.DIHEDRAL.0>
6.18831

>  <SCORE.INTRA.POLAR>
0

>  <SCORE.INTRA.POLAR.0>
0

>  <SCORE.INTRA.REPUL>
0

>  <SCORE.INTRA.REPUL.0>
0

>  <SCORE.INTRA.SOLV>
-0.00159515

>  <SCORE.INTRA.SOLV.lig_0>
-44.3465

>  <SCORE.INTRA.VDW>
-0.809351

>  <SCORE.INTRA.VDW.0>
-0.778272

>  <SCORE.INTRA.norm>
-0.0360656

>  <SCORE.RESTR>
0

>  <SCORE.RESTR.CAVITY>
0

>  <SCORE.RESTR.norm>
0

>  <SCORE.SYSTEM>
0

>  <SCORE.SYSTEM.CONST>
0

>  <SCORE.SYSTEM.DIHEDRAL>
0

>  <SCORE.SYSTEM.SOLV>
0

>  <SCORE.SYSTEM.norm>
0

>  <SCORE.heavy>
22

>  <SCORE.norm>
-0.764621

>  <RMSD>
7.390

$$$$
ligand
 OpenBabel11021811503D
libRbt.so/2013.1/901 2013/11/27
 22 24  0  0  0  0  0  0  0  0999 V2000
    0.2202    4.5647   22.8957 C   0  0  0  0  0  0  0  0  0  0  0  0
    1.6268    4.4564   22.9081 C   0  0  0  0  0  0  0  0  0  0  0  0
    2.3821    5.4328   23.5520 C   0  0  0  0  0  0  0  0  0  0  0  0
    1.7313    6.5102   24.1781 C   0  0  0  0  0  0  0  0  0  0  0  0
    0.3195    6.6251   24.1584 C   0  0  0  0  0  0  0  0  0  0  0  0
   -0.4318    5.6509   23.5152 C   0  0  0  0  0  0  0  0  0  0  0  0
   -0.6293    3.5021   22.1721 C   0  0  0  0  0  0  0  0  0  0  0  0
   -0.2948    3.3075   20.6721 C   0  0  0  0  0  0  0  0  0  0  0  0
    1.0957    2.7356   20.4211 C   0  0  0  0  0  0  0  0  0  0  0  0
    1.7028    1.7750   21.2357 C   0  0  0  0  0  0  0  0  0  0  0  0
    2.9211    1.5128   20.6944 N   0  0  0  0  0  0  0  0  0  0  0  0
    3.1589    2.2535   19.5538 C   0  0  0  0  0  0  0  0  0  0  0  0
    2.0317    3.0395   19.3412 C   0  0  0  0  0  0  0  0  0  0  0  0
    2.0418    3.9113   18.1870 C   0  0  0  0  0  0  0  0  0  0  0  0
    0.9437    4.7201   17.9079 O   0  0  0  0  0  0  0  0  0  0  0  0
    3.1611    3.9317   17.3656 N   0  0  0  0  0  0  0  0  0  0  0  0
    4.2420    3.1346   17.6078 C   0  0  0  0  0  0  0  0  0  0  0  0
    4.2672    2.3139   18.6697 N   0  0  0  0  0  0  0  0  0  0  0  0
    5.3944    3.1796   16.7020 N   0  0  0  0  0  0  0  0  0  0  0  0
    2.5728    7.5546   24.8626 C   0  0  0  0  0  0  0  0  0  0  0  0
    3.0475    7.3340   25.9752 O   0  0  0  0  0  0  0  0  0  0  0  0
    2.8021    8.8086   24.1954 N   0  0  0  0  0  0  0  0  0  0  0  0
  1  2  2  0  0  0  0
  1  6  1  0  0  0  0
  1  7  1  0  0  0  0
  2  3  1  0  0  0  0
  3  4  2  0  0  0  0
  4  5  1  0  0  0  0
  4 20  1  0  0  0  0
  5  6  2  0  0  0  0
  7  8  1  0  0  0  0
  8  9  1  0  0  0  0
  9 10  2  0  0  0  0
  9 13  1  0  0  0  0
 10 11  1  0  0  0  0
 11 12  1  0  0  0  0
 12 13  2  0  0  0  0
 12 18  1  0  0  0  0
 13 14  1  0  0  0  0
 14 15  1  0  0  0  0
 14 16  2  0  0  0  0
 16 17  1  0  0  0  0
 17 18  2  0  0  0  0
 17 19  1  0  0  0  0
 20 21  2  0  0  0  0
 20 22  1  0  0  0  0
M  END
>  <CHROM.1>
-56.94479100,-78.46199374,66.01155859,36.64119156,2.03767335,4.39272963,21.18098119
1.79897758,0.48948642,0.91282632

>  <Name>
ligand

>  <RI>
0

>  <Rbt.Current_Directory>
/home/itssahil/PROJECTS/Mol_Feturizer/New_Systems/rnas/4LVY

>  <Rbt.Executable>
rbdock ($Id: //depot/dev/client3/rdock/2013.1/src/exe/rbdock.cxx#4 $)

>  <Rbt.Library>
libRbt.so (2013.1, Build901 2013/11/27)

>  <Rbt.Parameter_File>
/export/apps/rDock/src/rDock_2013.1_src/data/scripts/dock_solv.prm

>  <Rbt.Receptor>
prm/pocket_docking_5.prm

>  <SCORE>
-17.3364

>  <SCORE.INTER>
-16.6986

>  <SCORE.INTER.CONST>
1

>  <SCORE.INTER.POLAR>
0

>  <SCORE.INTER.ROT>
4

>  <SCORE.INTER.SOLV>
11.6676

>  <SCORE.INTER.VDW>
-21.2883

>  <SCORE.INTER.norm>
-0.759029

>  <SCORE.INTRA>
-0.637721

>  <SCORE.INTRA.DIHEDRAL>
0.137127

>  <SCORE.INTRA.DIHEDRAL.0>
6.18831

>  <SCORE.INTRA.POLAR>
0

>  <SCORE.INTRA.POLAR.0>
0

>  <SCORE.INTRA.REPUL>
0

>  <SCORE.INTRA.REPUL.0>
0

>  <SCORE.INTRA.SOLV>
-0.00688874

>  <SCORE.INTRA.SOLV.lig_0>
-44.3465

>  <SCORE.INTRA.VDW>
-0.70284

>  <SCORE.INTRA.VDW.0>
-0.778272

>  <SCORE.INTRA.norm>
-0.0289873

>  <SCORE.RESTR>
0

>  <SCORE.RESTR.CAVITY>
0

>  <SCORE.RESTR.norm>
0

>  <SCORE.SYSTEM>
0

>  <SCORE.SYSTEM.CONST>
0

>  <SCORE.SYSTEM.DIHEDRAL>
0

>  <SCORE.SYSTEM.SOLV>
0

>  <SCORE.SYSTEM.norm>
0

>  <SCORE.heavy>
22

>  <SCORE.norm>
-0.788016

>  <RMSD>
7.393

$$$$
ligand
 OpenBabel11021811503D
libRbt.so/2013.1/901 2013/11/27
 22 24  0  0  0  0  0  0  0  0999 V2000
    0.1406    4.8492   23.0467 C   0  0  0  0  0  0  0  0  0  0  0  0
   -0.4209    6.0656   23.4892 C   0  0  0  0  0  0  0  0  0  0  0  0
    0.3889    6.9991   24.1305 C   0  0  0  0  0  0  0  0  0  0  0  0
    1.7515    6.7144   24.3271 C   0  0  0  0  0  0  0  0  0  0  0  0
    2.3144    5.4895   23.8917 C   0  0  0  0  0  0  0  0  0  0  0  0
    1.5052    4.5596   23.2532 C   0  0  0  0  0  0  0  0  0  0  0  0
   -0.7458    3.7980   22.3514 C   0  0  0  0  0  0  0  0  0  0  0  0
   -0.5439    3.6818   20.8199 C   0  0  0  0  0  0  0  0  0  0  0  0
    0.7824    3.0453   20.4208 C   0  0  0  0  0  0  0  0  0  0  0  0
    1.3448    1.9420   21.0699 C   0  0  0  0  0  0  0  0  0  0  0  0
    2.5120    1.6631   20.4329 N   0  0  0  0  0  0  0  0  0  0  0  0
    2.7582    2.5288   19.3859 C   0  0  0  0  0  0  0  0  0  0  0  0
    1.6908    3.4187   19.3390 C   0  0  0  0  0  0  0  0  0  0  0  0
    1.7204    4.4329   18.3081 C   0  0  0  0  0  0  0  0  0  0  0  0
    0.6807    5.3520   18.1968 O   0  0  0  0  0  0  0  0  0  0  0  0
    2.7996    4.4781   17.4356 N   0  0  0  0  0  0  0  0  0  0  0  0
    3.8214    3.5767   17.5130 C   0  0  0  0  0  0  0  0  0  0  0  0
    3.8269    2.6226   18.4572 N   0  0  0  0  0  0  0  0  0  0  0  0
    4.9318    3.6549   16.5583 N   0  0  0  0  0  0  0  0  0  0  0  0
    2.6030    7.7394   25.0281 C   0  0  0  0  0  0  0  0  0  0  0  0
    2.7501    8.8586   24.5403 O   0  0  0  0  0  0  0  0  0  0  0  0
    3.2411    7.3825   26.2672 N   0  0  0  0  0  0  0  0  0  0  0  0
  1  2  2  0  0  0  0
  1  6  1  0  0  0  0
  1  7  1  0  0  0  0
  2  3  1  0  0  0  0
  3  4  2  0  0  0  0
  4  5  1  0  0  0  0
  4 20  1  0  0  0  0
  5  6  2  0  0  0  0
  7  8  1  0  0  0  0
  8  9  1  0  0  0  0
  9 10  2  0  0  0  0
  9 13  1  0  0  0  0
 10 11  1  0  0  0  0
 11 12  1  0  0  0  0
 12 13  2  0  0  0  0
 12 18  1  0  0  0  0
 13 14  1  0  0  0  0
 14 15  1  0  0  0  0
 14 16  2  0  0  0  0
 16 17  1  0  0  0  0
 17 18  2  0  0  0  0
 17 19  1  0  0  0  0
 20 21  2  0  0  0  0
 20 22  1  0  0  0  0
M  END
>  <CHROM.1>
105.91115489,-61.51476850,71.15609888,41.05533161,1.83178628,4.70475845,21.24053749
1.73597422,0.56124254,0.96337707

>  <Name>
ligand

>  <RI>
0

>  <Rbt.Current_Directory>
/home/itssahil/PROJECTS/Mol_Feturizer/New_Systems/rnas/4LVY

>  <Rbt.Executable>
rbdock ($Id: //depot/dev/client3/rdock/2013.1/src/exe/rbdock.cxx#4 $)

>  <Rbt.Library>
libRbt.so (2013.1, Build901 2013/11/27)

>  <Rbt.Parameter_File>
/export/apps/rDock/src/rDock_2013.1_src/data/scripts/dock_solv.prm

>  <Rbt.Receptor>
prm/pocket_docking_6.prm

>  <SCORE>
-17.5397

>  <SCORE.INTER>
-16.9795

>  <SCORE.INTER.CONST>
1

>  <SCORE.INTER.POLAR>
0

>  <SCORE.INTER.ROT>
4

>  <SCORE.INTER.SOLV>
10.5459

>  <SCORE.INTER.VDW>
-21.1016

>  <SCORE.INTER.norm>
-0.771795

>  <SCORE.INTRA>
-0.560171

>  <SCORE.INTRA.DIHEDRAL>
0.56102

>  <SCORE.INTRA.DIHEDRAL.0>
6.18831

>  <SCORE.INTRA.POLAR>
0

>  <SCORE.INTRA.POLAR.0>
0

>  <SCORE.INTRA.REPUL>
0

>  <SCORE.INTRA.REPUL.0>
0

>  <SCORE.INTRA.SOLV>
-0.00401298

>  <SCORE.INTRA.SOLV.lig_0>
-44.3465

>  <SCORE.INTRA.VDW>
-0.838674

>  <SCORE.INTRA.VDW.0>
-0.778272

>  <SCORE.INTRA.norm>
-0.0254623

>  <SCORE.RESTR>
0

>  <SCORE.RESTR.CAVITY>
0

>  <SCORE.RESTR.norm>
0

>  <SCORE.SYSTEM>
0

>  <SCORE.SYSTEM.CONST>
0

>  <SCORE.SYSTEM.DIHEDRAL>
0

>  <SCORE.SYSTEM.SOLV>
0

>  <SCORE.SYSTEM.norm>
0

>  <SCORE.heavy>
22

>  <SCORE.norm>
-0.797257

>  <RMSD>
7.399

$$$$
ligand
 OpenBabel11021811503D
libRbt.so/2013.1/901 2013/11/27
 22 24  0  0  0  0  0  0  0  0999 V2000
    0.1323    4.7017   22.9806 C   0  0  0  0  0  0  0  0  0  0  0  0
   -0.4232    5.9119   23.4469 C   0  0  0  0  0  0  0  0  0  0  0  0
    0.3810    6.8095   24.1439 C   0  0  0  0  0  0  0  0  0  0  0  0
    1.7320    6.4954   24.3724 C   0  0  0  0  0  0  0  0  0  0  0  0
    2.2887    5.2764   23.9130 C   0  0  0  0  0  0  0  0  0  0  0  0
    1.4851    4.3823   23.2188 C   0  0  0  0  0  0  0  0  0  0  0  0
   -0.7485    3.6894   22.2232 C   0  0  0  0  0  0  0  0  0  0  0  0
   -0.4608    3.5793   20.7050 C   0  0  0  0  0  0  0  0  0  0  0  0
    0.8944    2.9624   20.3789 C   0  0  0  0  0  0  0  0  0  0  0  0
    1.4686    1.9133   21.1032 C   0  0  0  0  0  0  0  0  0  0  0  0
    2.6617    1.6357   20.5154 N   0  0  0  0  0  0  0  0  0  0  0  0
    2.9140    2.4506   19.4298 C   0  0  0  0  0  0  0  0  0  0  0  0
    1.8234    3.3040   19.3041 C   0  0  0  0  0  0  0  0  0  0  0  0
    1.8545    4.2613   18.2202 C   0  0  0  0  0  0  0  0  0  0  0  0
    0.7927    5.1413   18.0295 O   0  0  0  0  0  0  0  0  0  0  0  0
    2.9574    4.2917   17.3772 N   0  0  0  0  0  0  0  0  0  0  0  0
    4.0019    3.4271   17.5327 C   0  0  0  0  0  0  0  0  0  0  0  0
    4.0066    2.5262   18.5276 N   0  0  0  0  0  0  0  0  0  0  0  0
    5.1374    3.4870   16.6067 N   0  0  0  0  0  0  0  0  0  0  0  0
    2.5775    7.4818   25.1335 C   0  0  0  0  0  0  0  0  0  0  0  0
    2.6118    8.6617   24.7888 O   0  0  0  0  0  0  0  0  0  0  0  0
    3.3433    7.0171   26.2594 N   0  0  0  0  0  0  0  0  0  0  0  0
  1  2  2  0  0  0  0
  1  6  1  0  0  0  0
  1  7  1  0  0  0  0
  2  3  1  0  0  0  0
  3  4  2  0  0  0  0
  4  5  1  0  0  0  0
  4 20  1  0  0  0  0
  5  6  2  0  0  0  0
  7  8  1  0  0  0  0
  8  9  1  0  0  0  0
  9 10  2  0  0  0  0
  9 13  1  0  0  0  0
 10 11  1  0  0  0  0
 11 12  1  0  0  0  0
 12 13  2  0  0  0  0
 12 18  1  0  0  0  0
 13 14  1  0  0  0  0
 14 15  1  0  0  0  0
 14 16  2  0  0  0  0
 16 17  1  0  0  0  0
 17 18  2  0  0  0  0
 17 19  1  0  0  0  0
 20 21  2  0  0  0  0
 20 22  1  0  0  0  0
M  END
>  <CHROM.1>
108.30850839,-51.63722301,68.22673604,37.39306644,1.90377310,4.54712198,21.23871726
1.75452475,0.46069371,0.99144668

>  <Name>
ligand

>  <RI>
0

>  <Rbt.Current_Directory>
/home/itssahil/PROJECTS/Mol_Feturizer/New_Systems/rnas/4LVY

>  <Rbt.Executable>
rbdock ($Id: //depot/dev/client3/rdock/2013.1/src/exe/rbdock.cxx#4 $)

>  <Rbt.Library>
libRbt.so (2013.1, Build901 2013/11/27)

>  <Rbt.Parameter_File>
/export/apps/rDock/src/rDock_2013.1_src/data/scripts/dock_solv.prm

>  <Rbt.Receptor>
prm/pocket_docking_6.prm

>  <SCORE>
-17.4765

>  <SCORE.INTER>
-16.8914

>  <SCORE.INTER.CONST>
1

>  <SCORE.INTER.POLAR>
0

>  <SCORE.INTER.ROT>
4

>  <SCORE.INTER.SOLV>
10.8245

>  <SCORE.INTER.VDW>
-21.1358

>  <SCORE.INTER.norm>
-0.767792

>  <SCORE.INTRA>
-0.58505

>  <SCORE.INTRA.DIHEDRAL>
0.337511

>  <SCORE.INTRA.DIHEDRAL.0>
6.18831

>  <SCORE.INTRA.POLAR>
0

>  <SCORE.INTRA.POLAR.0>
0

>  <SCORE.INTRA.REPUL>
0

>  <SCORE.INTRA.REPUL.0>
0

>  <SCORE.INTRA.SOLV>
-0.00159762

>  <SCORE.INTRA.SOLV.lig_0>
-44.3465

>  <SCORE.INTRA.VDW>
-0.753006

>  <SCORE.INTRA.VDW.0>
-0.778272

>  <SCORE.INTRA.norm>
-0.0265932

>  <SCORE.RESTR>
0

>  <SCORE.RESTR.CAVITY>
0

>  <SCORE.RESTR.norm>
0

>  <SCORE.SYSTEM>
0

>  <SCORE.SYSTEM.CONST>
0

>  <SCORE.SYSTEM.DIHEDRAL>
0

>  <SCORE.SYSTEM.SOLV>
0

>  <SCORE.SYSTEM.norm>
0

>  <SCORE.heavy>
22

>  <SCORE.norm>
-0.794385

>  <RMSD>
7.400

$$$$
ligand
 OpenBabel11021811503D
libRbt.so/2013.1/901 2013/11/27
 22 24  0  0  0  0  0  0  0  0999 V2000
    0.2580    4.6125   22.6352 C   0  0  0  0  0  0  0  0  0  0  0  0
   -0.3901    5.8051   23.0202 C   0  0  0  0  0  0  0  0  0  0  0  0
    0.3552    6.8367   23.5846 C   0  0  0  0  0  0  0  0  0  0  0  0
    1.7401    6.6731   23.7624 C   0  0  0  0  0  0  0  0  0  0  0  0
    2.3905    5.4725   23.3850 C   0  0  0  0  0  0  0  0  0  0  0  0
    1.6455    4.4448   22.8230 C   0  0  0  0  0  0  0  0  0  0  0  0
   -0.5553    3.4544   22.0257 C   0  0  0  0  0  0  0  0  0  0  0  0
   -0.2165    3.1222   20.5510 C   0  0  0  0  0  0  0  0  0  0  0  0
    1.2040    2.6083   20.3469 C   0  0  0  0  0  0  0  0  0  0  0  0
    1.8484    1.7283   21.2216 C   0  0  0  0  0  0  0  0  0  0  0  0
    3.0851    1.4978   20.7081 N   0  0  0  0  0  0  0  0  0  0  0  0
    3.2995    2.1829   19.5288 C   0  0  0  0  0  0  0  0  0  0  0  0
    2.1370    2.8970   19.2602 C   0  0  0  0  0  0  0  0  0  0  0  0
    2.1176    3.7004   18.0575 C   0  0  0  0  0  0  0  0  0  0  0  0
    0.9838    4.4350   17.7216 O   0  0  0  0  0  0  0  0  0  0  0  0
    3.2447    3.7307   17.2471 N   0  0  0  0  0  0  0  0  0  0  0  0
    4.3612    3.0048   17.5455 C   0  0  0  0  0  0  0  0  0  0  0  0
    4.4143    2.2488   18.6534 N   0  0  0  0  0  0  0  0  0  0  0  0
    5.5211    3.0564   16.6497 N   0  0  0  0  0  0  0  0  0  0  0  0
    2.5209    7.8028   24.3800 C   0  0  0  0  0  0  0  0  0  0  0  0
    2.0133    8.4967   25.2592 O   0  0  0  0  0  0  0  0  0  0  0  0
    3.8601    8.0553   23.9188 N   0  0  0  0  0  0  0  0  0  0  0  0
  1  2  2  0  0  0  0
  1  6  1  0  0  0  0
  1  7  1  0  0  0  0
  2  3  1  0  0  0  0
  3  4  2  0  0  0  0
  4  5  1  0  0  0  0
  4 20  1  0  0  0  0
  5  6  2  0  0  0  0
  7  8  1  0  0  0  0
  8  9  1  0  0  0  0
  9 10  2  0  0  0  0
  9 13  1  0  0  0  0
 10 11  1  0  0  0  0
 11 12  1  0  0  0  0
 12 13  2  0  0  0  0
 12 18  1  0  0  0  0
 13 14  1  0  0  0  0
 14 15  1  0  0  0  0
 14 16  2  0  0  0  0
 16 17  1  0  0  0  0
 17 18  2  0  0  0  0
 17 19  1  0  0  0  0
 20 21  2  0  0  0  0
 20 22  1  0  0  0  0
M  END
>  <CHROM.1>
114.87004638,35.28763748,64.58596045,39.61309450,2.10016114,4.37895096,20.97515264
1.82873363,0.48005034,0.82903751

>  <Name>
ligand

>  <RI>
0

>  <Rbt.Current_Directory>
/home/itssahil/PROJECTS/Mol_Feturizer/New_Systems/rnas/4LVY

>  <Rbt.Executable>
rbdock ($Id: //depot/dev/client3/rdock/2013.1/src/exe/rbdock.cxx#4 $)

>  <Rbt.Library>
libRbt.so (2013.1, Build901 2013/11/27)

>  <Rbt.Parameter_File>
/export/apps/rDock/src/rDock_2013.1_src/data/scripts/dock_solv.prm

>  <Rbt.Receptor>
prm/pocket_docking_7.prm

>  <SCORE>
-16.4611

>  <SCORE.INTER>
-15.8598

>  <SCORE.INTER.CONST>
1

>  <SCORE.INTER.POLAR>
0

>  <SCORE.INTER.ROT>
4

>  <SCORE.INTER.SOLV>
10.4894

>  <SCORE.INTER.VDW>
-20.3363

>  <SCORE.INTER.norm>
-0.720899

>  <SCORE.INTRA>
-0.601361

>  <SCORE.INTRA.DIHEDRAL>
0.0852608

>  <SCORE.INTRA.DIHEDRAL.0>
6.18831

>  <SCORE.INTRA.POLAR>
0

>  <SCORE.INTRA.POLAR.0>
0

>  <SCORE.INTRA.REPUL>
0

>  <SCORE.INTRA.REPUL.0>
0

>  <SCORE.INTRA.SOLV>
0.00157489

>  <SCORE.INTRA.SOLV.lig_0>
-44.3465

>  <SCORE.INTRA.VDW>
-0.644779

>  <SCORE.INTRA.VDW.0>
-0.778272

>  <SCORE.INTRA.norm>
-0.0273346

>  <SCORE.RESTR>
0

>  <SCORE.RESTR.CAVITY>
0

>  <SCORE.RESTR.norm>
0

>  <SCORE.SYSTEM>
0

>  <SCORE.SYSTEM.CONST>
0

>  <SCORE.SYSTEM.DIHEDRAL>
0

>  <SCORE.SYSTEM.SOLV>
0

>  <SCORE.SYSTEM.norm>
0

>  <SCORE.heavy>
22

>  <SCORE.norm>
-0.748233

>  <RMSD>
7.406

$$$$
ligand
 OpenBabel11021811503D
libRbt.so/2013.1/901 2013/11/27
 22 24  0  0  0  0  0  0  0  0999 V2000
    0.1797    4.7776   23.0040 C   0  0  0  0  0  0  0  0  0  0  0  0
   -0.4046    5.9764   23.4646 C   0  0  0  0  0  0  0  0  0  0  0  0
    0.3905    6.9219   24.1066 C   0  0  0  0  0  0  0  0  0  0  0  0
    1.7612    6.6667   24.2860 C   0  0  0  0  0  0  0  0  0  0  0  0
    2.3473    5.4594   23.8324 C   0  0  0  0  0  0  0  0  0  0  0  0
    1.5528    4.5175   23.1932 C   0  0  0  0  0  0  0  0  0  0  0  0
   -0.6898    3.7132   22.3075 C   0  0  0  0  0  0  0  0  0  0  0  0
   -0.4684    3.5850   20.7796 C   0  0  0  0  0  0  0  0  0  0  0  0
    0.8733    2.9679   20.4021 C   0  0  0  0  0  0  0  0  0  0  0  0
    1.4631    1.9027   21.0895 C   0  0  0  0  0  0  0  0  0  0  0  0
    2.6368    1.6305   20.4616 N   0  0  0  0  0  0  0  0  0  0  0  0
    2.8613    2.4643   19.3844 C   0  0  0  0  0  0  0  0  0  0  0  0
    1.7720    3.3251   19.3069 C   0  0  0  0  0  0  0  0  0  0  0  0
    1.7763    4.3025   18.2406 C   0  0  0  0  0  0  0  0  0  0  0  0
    0.7140    5.1909   18.0977 O   0  0  0  0  0  0  0  0  0  0  0  0
    2.8539    4.3434   17.3660 N   0  0  0  0  0  0  0  0  0  0  0  0
    3.8979    3.4710   17.4743 C   0  0  0  0  0  0  0  0  0  0  0  0
    3.9272    2.5516   18.4518 N   0  0  0  0  0  0  0  0  0  0  0  0
    5.0059    3.5429   16.5164 N   0  0  0  0  0  0  0  0  0  0  0  0
    2.5966    7.7041   24.9883 C   0  0  0  0  0  0  0  0  0  0  0  0
    2.6696    8.8464   24.5390 O   0  0  0  0  0  0  0  0  0  0  0  0
    3.3071    7.3318   26.1827 N   0  0  0  0  0  0  0  0  0  0  0  0
  1  2  2  0  0  0  0
  1  6  1  0  0  0  0
  1  7  1  0  0  0  0
  2  3  1  0  0  0  0
  3  4  2  0  0  0  0
  4  5  1  0  0  0  0
  4 20  1  0  0  0  0
  5  6  2  0  0  0  0
  7  8  1  0  0  0  0
  8  9  1  0  0  0  0
  9 10  2  0  0  0  0
  9 13  1  0  0  0  0
 10 11  1  0  0  0  0
 11 12  1  0  0  0  0
 12 13  2  0  0  0  0
 12 18  1  0  0  0  0
 13 14  1  0  0  0  0
 14 15  1  0  0  0  0
 14 16  2  0  0  0  0
 16 17  1  0  0  0  0
 17 18  2  0  0  0  0
 17 19  1  0  0  0  0
 20 21  2  0  0  0  0
 20 22  1  0  0  0  0
M  END
>  <CHROM.1>
107.81048344,-58.59950550,70.60092754,39.40053153,1.88409825,4.62861344,21.20430121
1.74635192,0.54587744,0.95538776

>  <Name>
ligand

>  <RI>
0

>  <Rbt.Current_Directory>
/home/itssahil/PROJECTS/Mol_Feturizer/New_Systems/rnas/4LVY

>  <Rbt.Executable>
rbdock ($Id: //depot/dev/client3/rdock/2013.1/src/exe/rbdock.cxx#4 $)

>  <Rbt.Library>
libRbt.so (2013.1, Build901 2013/11/27)

>  <Rbt.Parameter_File>
/export/apps/rDock/src/rDock_2013.1_src/data/scripts/dock_solv.prm

>  <Rbt.Receptor>
prm/pocket_docking_7.prm

>  <SCORE>
-17.6116

>  <SCORE.INTER>
-17.0592

>  <SCORE.INTER.CONST>
1

>  <SCORE.INTER.POLAR>
0

>  <SCORE.INTER.ROT>
4

>  <SCORE.INTER.SOLV>
10.7486

>  <SCORE.INTER.VDW>
-21.2223

>  <SCORE.INTER.norm>
-0.775419

>  <SCORE.INTRA>
-0.552409

>  <SCORE.INTRA.DIHEDRAL>
0.510456

>  <SCORE.INTRA.DIHEDRAL.0>
6.18831

>  <SCORE.INTRA.POLAR>
0

>  <SCORE.INTRA.POLAR.0>
0

>  <SCORE.INTRA.REPUL>
0

>  <SCORE.INTRA.REPUL.0>
0

>  <SCORE.INTRA.SOLV>
-0.00334671

>  <SCORE.INTRA.SOLV.lig_0>
-44.3465

>  <SCORE.INTRA.VDW>
-0.805964

>  <SCORE.INTRA.VDW.0>
-0.778272

>  <SCORE.INTRA.norm>
-0.0251095

>  <SCORE.RESTR>
0

>  <SCORE.RESTR.CAVITY>
0

>  <SCORE.RESTR.norm>
0

>  <SCORE.SYSTEM>
0

>  <SCORE.SYSTEM.CONST>
0

>  <SCORE.SYSTEM.DIHEDRAL>
0

>  <SCORE.SYSTEM.SOLV>
0

>  <SCORE.SYSTEM.norm>
0

>  <SCORE.heavy>
22

>  <SCORE.norm>
-0.800528

>  <RMSD>
7.407

$$$$
ligand
 OpenBabel11021811503D
libRbt.so/2013.1/901 2013/11/27
 22 24  0  0  0  0  0  0  0  0999 V2000
    0.2667    4.6469   22.5481 C   0  0  0  0  0  0  0  0  0  0  0  0
    1.5770    4.4572   23.0355 C   0  0  0  0  0  0  0  0  0  0  0  0
    2.2858    5.5473   23.5332 C   0  0  0  0  0  0  0  0  0  0  0  0
    1.6851    6.8183   23.5412 C   0  0  0  0  0  0  0  0  0  0  0  0
    0.3730    7.0118   23.0434 C   0  0  0  0  0  0  0  0  0  0  0  0
   -0.3318    5.9238   22.5468 C   0  0  0  0  0  0  0  0  0  0  0  0
   -0.5246    3.4542   21.9773 C   0  0  0  0  0  0  0  0  0  0  0  0
   -0.1752    3.0765   20.5161 C   0  0  0  0  0  0  0  0  0  0  0  0
    1.2526    2.5743   20.3352 C   0  0  0  0  0  0  0  0  0  0  0  0
    1.8920    1.7042   21.2234 C   0  0  0  0  0  0  0  0  0  0  0  0
    3.1380    1.4823   20.7291 N   0  0  0  0  0  0  0  0  0  0  0  0
    3.3635    2.1638   19.5497 C   0  0  0  0  0  0  0  0  0  0  0  0
    2.1987    2.8661   19.2607 C   0  0  0  0  0  0  0  0  0  0  0  0
    2.1898    3.6637   18.0540 C   0  0  0  0  0  0  0  0  0  0  0  0
    1.0545    4.3865   17.6981 O   0  0  0  0  0  0  0  0  0  0  0  0
    3.3282    3.7001   17.2599 N   0  0  0  0  0  0  0  0  0  0  0  0
    4.4466    2.9857   17.5780 C   0  0  0  0  0  0  0  0  0  0  0  0
    4.4903    2.2354   18.6902 N   0  0  0  0  0  0  0  0  0  0  0  0
    5.6190    3.0434   16.6989 N   0  0  0  0  0  0  0  0  0  0  0  0
    2.4763    7.9805   24.0802 C   0  0  0  0  0  0  0  0  0  0  0  0
    2.5114    8.1960   25.2903 O   0  0  0  0  0  0  0  0  0  0  0  0
    3.1790    8.8306   23.1564 N   0  0  0  0  0  0  0  0  0  0  0  0
  1  2  2  0  0  0  0
  1  6  1  0  0  0  0
  1  7  1  0  0  0  0
  2  3  1  0  0  0  0
  3  4  2  0  0  0  0
  4  5  1  0  0  0  0
  4 20  1  0  0  0  0
  5  6  2  0  0  0  0
  7  8  1  0  0  0  0
  8  9  1  0  0  0  0
  9 10  2  0  0  0  0
  9 13  1  0  0  0  0
 10 11  1  0  0  0  0
 11 12  1  0  0  0  0
 12 13  2  0  0  0  0
 12 18  1  0  0  0  0
 13 14  1  0  0  0  0
 14 15  1  0  0  0  0
 14 16  2  0  0  0  0
 16 17  1  0  0  0  0
 17 18  2  0  0  0  0
 17 19  1  0  0  0  0
 20 21  2  0  0  0  0
 20 22  1  0  0  0  0
M  END
>  <CHROM.1>
-80.62145935,-83.42485010,64.85249373,41.40871874,2.12521133,4.41569544,20.88880786
1.85470829,0.56760886,0.75239063

>  <Name>
ligand

>  <RI>
0

>  <Rbt.Current_Directory>
/home/itssahil/PROJECTS/Mol_Feturizer/New_Systems/rnas/4LVY

>  <Rbt.Executable>
rbdock ($Id: //depot/dev/client3/rdock/2013.1/src/exe/rbdock.cxx#4 $)

>  <Rbt.Library>
libRbt.so (2013.1, Build901 2013/11/27)

>  <Rbt.Parameter_File>
/export/apps/rDock/src/rDock_2013.1_src/data/scripts/dock_solv.prm

>  <Rbt.Receptor>
prm/pocket_docking_8.prm

>  <SCORE>
-16.8895

>  <SCORE.INTER>
-15.9669

>  <SCORE.INTER.CONST>
1

>  <SCORE.INTER.POLAR>
0

>  <SCORE.INTER.ROT>
4

>  <SCORE.INTER.SOLV>
11.2561

>  <SCORE.INTER.VDW>
-20.6633

>  <SCORE.INTER.norm>
-0.72577

>  <SCORE.INTRA>
-0.922529

>  <SCORE.INTRA.DIHEDRAL>
0.00641565

>  <SCORE.INTRA.DIHEDRAL.0>
6.18831

>  <SCORE.INTRA.POLAR>
0

>  <SCORE.INTRA.POLAR.0>
0

>  <SCORE.INTRA.REPUL>
0

>  <SCORE.INTRA.REPUL.0>
0

>  <SCORE.INTRA.SOLV>
-0.00720763

>  <SCORE.INTRA.SOLV.lig_0>
-44.3465

>  <SCORE.INTRA.VDW>
-0.922133

>  <SCORE.INTRA.VDW.0>
-0.778272

>  <SCORE.INTRA.norm>
-0.0419331

>  <SCORE.RESTR>
0

>  <SCORE.RESTR.CAVITY>
0

>  <SCORE.RESTR.norm>
0

>  <SCORE.SYSTEM>
0

>  <SCORE.SYSTEM.CONST>
0

>  <SCORE.SYSTEM.DIHEDRAL>
0

>  <SCORE.SYSTEM.SOLV>
0

>  <SCORE.SYSTEM.norm>
0

>  <SCORE.heavy>
22

>  <SCORE.norm>
-0.767703

>  <RMSD>
7.407

$$$$
ligand
 OpenBabel11021811503D
libRbt.so/2013.1/901 2013/11/27
 22 24  0  0  0  0  0  0  0  0999 V2000
    0.1997    4.7690   22.9732 C   0  0  0  0  0  0  0  0  0  0  0  0
   -0.3846    5.9655   23.4397 C   0  0  0  0  0  0  0  0  0  0  0  0
    0.4081    6.9025   24.0969 C   0  0  0  0  0  0  0  0  0  0  0  0
    1.7764    6.6411   24.2855 C   0  0  0  0  0  0  0  0  0  0  0  0
    2.3624    5.4360   23.8260 C   0  0  0  0  0  0  0  0  0  0  0  0
    1.5703    4.5026   23.1716 C   0  0  0  0  0  0  0  0  0  0  0  0
   -0.6673    3.7137   22.2598 C   0  0  0  0  0  0  0  0  0  0  0  0
   -0.3919    3.5574   20.7433 C   0  0  0  0  0  0  0  0  0  0  0  0
    0.9513    2.9107   20.4255 C   0  0  0  0  0  0  0  0  0  0  0  0
    1.5303    1.8965   21.1944 C   0  0  0  0  0  0  0  0  0  0  0  0
    2.7094    1.5762   20.6001 N   0  0  0  0  0  0  0  0  0  0  0  0
    2.9478    2.3291   19.4676 C   0  0  0  0  0  0  0  0  0  0  0  0
    1.8624    3.1851   19.3167 C   0  0  0  0  0  0  0  0  0  0  0  0
    1.8810    4.0826   18.1825 C   0  0  0  0  0  0  0  0  0  0  0  0
    0.8234    4.9613   17.9646 O   0  0  0  0  0  0  0  0  0  0  0  0
    2.9676    4.0570   17.3185 N   0  0  0  0  0  0  0  0  0  0  0  0
    4.0073    3.1919   17.5006 C   0  0  0  0  0  0  0  0  0  0  0  0
    4.0234    2.3456   18.5423 N   0  0  0  0  0  0  0  0  0  0  0  0
    5.1253    3.1910   16.5516 N   0  0  0  0  0  0  0  0  0  0  0  0
    2.6092    7.6694   25.0042 C   0  0  0  0  0  0  0  0  0  0  0  0
    3.0237    7.4449   26.1398 O   0  0  0  0  0  0  0  0  0  0  0  0
    2.9016    8.9128   24.3419 N   0  0  0  0  0  0  0  0  0  0  0  0
  1  2  2  0  0  0  0
  1  6  1  0  0  0  0
  1  7  1  0  0  0  0
  2  3  1  0  0  0  0
  3  4  2  0  0  0  0
  4  5  1  0  0  0  0
  4 20  1  0  0  0  0
  5  6  2  0  0  0  0
  7  8  1  0  0  0  0
  8  9  1  0  0  0  0
  9 10  2  0  0  0  0
  9 13  1  0  0  0  0
 10 11  1  0  0  0  0
 11 12  1  0  0  0  0
 12 13  2  0  0  0  0
 12 18  1  0  0  0  0
 13 14  1  0  0  0  0
 14 15  1  0  0  0  0
 14 16  2  0  0  0  0
 16 17  1  0  0  0  0
 17 18  2  0  0  0  0
 17 19  1  0  0  0  0
 20 21  2  0  0  0  0
 20 22  1  0  0  0  0
M  END
>  <CHROM.1>
110.23445528,108.95947871,70.32634362,35.69723460,1.94213464,4.52860197,21.20741005
1.75555385,0.49987911,0.93823914

>  <Name>
ligand

>  <RI>
0

>  <Rbt.Current_Directory>
/home/itssahil/PROJECTS/Mol_Feturizer/New_Systems/rnas/4LVY

>  <Rbt.Executable>
rbdock ($Id: //depot/dev/client3/rdock/2013.1/src/exe/rbdock.cxx#4 $)

>  <Rbt.Library>
libRbt.so (2013.1, Build901 2013/11/27)

>  <Rbt.Parameter_File>
/export/apps/rDock/src/rDock_2013.1_src/data/scripts/dock_solv.prm

>  <Rbt.Receptor>
prm/pocket_docking_8.prm

>  <SCORE>
-17.4164

>  <SCORE.INTER>
-16.8915

>  <SCORE.INTER.CONST>
1

>  <SCORE.INTER.POLAR>
0

>  <SCORE.INTER.ROT>
4

>  <SCORE.INTER.SOLV>
12.171

>  <SCORE.INTER.VDW>
-21.5847

>  <SCORE.INTER.norm>
-0.767797

>  <SCORE.INTRA>
-0.524847

>  <SCORE.INTRA.DIHEDRAL>
0.48983

>  <SCORE.INTRA.DIHEDRAL.0>
6.18831

>  <SCORE.INTRA.POLAR>
0

>  <SCORE.INTRA.POLAR.0>
0

>  <SCORE.INTRA.REPUL>
0

>  <SCORE.INTRA.REPUL.0>
0

>  <SCORE.INTRA.SOLV>
-0.00631561

>  <SCORE.INTRA.SOLV.lig_0>
-44.3465

>  <SCORE.INTRA.VDW>
-0.766604

>  <SCORE.INTRA.VDW.0>
-0.778272

>  <SCORE.INTRA.norm>
-0.0238567

>  <SCORE.RESTR>
0

>  <SCORE.RESTR.CAVITY>
0

>  <SCORE.RESTR.norm>
0

>  <SCORE.SYSTEM>
0

>  <SCORE.SYSTEM.CONST>
0

>  <SCORE.SYSTEM.DIHEDRAL>
0

>  <SCORE.SYSTEM.SOLV>
0

>  <SCORE.SYSTEM.norm>
0

>  <SCORE.heavy>
22

>  <SCORE.norm>
-0.791654

>  <RMSD>
7.415

$$$$
ligand
 OpenBabel11021811503D
libRbt.so/2013.1/901 2013/11/27
 22 24  0  0  0  0  0  0  0  0999 V2000
    0.1639    4.7938   23.0054 C   0  0  0  0  0  0  0  0  0  0  0  0
   -0.4271    5.9824   23.4836 C   0  0  0  0  0  0  0  0  0  0  0  0
    0.3667    6.9326   24.1202 C   0  0  0  0  0  0  0  0  0  0  0  0
    1.7429    6.6922   24.2767 C   0  0  0  0  0  0  0  0  0  0  0  0
    2.3360    5.4951   23.8054 C   0  0  0  0  0  0  0  0  0  0  0  0
    1.5426    4.5485   23.1716 C   0  0  0  0  0  0  0  0  0  0  0  0
   -0.7038    3.7242   22.3147 C   0  0  0  0  0  0  0  0  0  0  0  0
   -0.4872    3.5930   20.7863 C   0  0  0  0  0  0  0  0  0  0  0  0
    0.8493    2.9664   20.4060 C   0  0  0  0  0  0  0  0  0  0  0  0
    1.4329    1.8971   21.0922 C   0  0  0  0  0  0  0  0  0  0  0  0
    2.6034    1.6165   20.4618 N   0  0  0  0  0  0  0  0  0  0  0  0
    2.8315    2.4487   19.3841 C   0  0  0  0  0  0  0  0  0  0  0  0
    1.7481    3.3172   19.3089 C   0  0  0  0  0  0  0  0  0  0  0  0
    1.7571    4.2945   18.2425 C   0  0  0  0  0  0  0  0  0  0  0  0
    0.7008    5.1904   18.1018 O   0  0  0  0  0  0  0  0  0  0  0  0
    2.8331    4.3278   17.3656 N   0  0  0  0  0  0  0  0  0  0  0  0
    3.8711    3.4480   17.4718 C   0  0  0  0  0  0  0  0  0  0  0  0
    3.8960    2.5284   18.4492 N   0  0  0  0  0  0  0  0  0  0  0  0
    4.9776    3.5120   16.5115 N   0  0  0  0  0  0  0  0  0  0  0  0
    2.5769    7.7343   24.9736 C   0  0  0  0  0  0  0  0  0  0  0  0
    2.6742    8.8654   24.5010 O   0  0  0  0  0  0  0  0  0  0  0  0
    3.2574    7.3797   26.1906 N   0  0  0  0  0  0  0  0  0  0  0  0
  1  2  2  0  0  0  0
  1  6  1  0  0  0  0
  1  7  1  0  0  0  0
  2  3  1  0  0  0  0
  3  4  2  0  0  0  0
  4  5  1  0  0  0  0
  4 20  1  0  0  0  0
  5  6  2  0  0  0  0
  7  8  1  0  0  0  0
  8  9  1  0  0  0  0
  9 10  2  0  0  0  0
  9 13  1  0  0  0  0
 10 11  1  0  0  0  0
 11 12  1  0  0  0  0
 12 13  2  0  0  0  0
 12 18  1  0  0  0  0
 13 14  1  0  0  0  0
 14 15  1  0  0  0  0
 14 16  2  0  0  0  0
 16 17  1  0  0  0  0
 17 18  2  0  0  0  0
 17 19  1  0  0  0  0
 20 21  2  0  0  0  0
 20 22  1  0  0  0  0
M  END
>  <CHROM.1>
108.79518194,-61.62037369,71.22407839,39.46305832,1.86245845,4.63275545,21.20179945
1.74612988,0.55250635,0.94838088

>  <Name>
ligand

>  <RI>
0

>  <Rbt.Current_Directory>
/home/itssahil/PROJECTS/Mol_Feturizer/New_Systems/rnas/4LVY

>  <Rbt.Executable>
rbdock ($Id: //depot/dev/client3/rdock/2013.1/src/exe/rbdock.cxx#4 $)

>  <Rbt.Library>
libRbt.so (2013.1, Build901 2013/11/27)

>  <Rbt.Parameter_File>
/export/apps/rDock/src/rDock_2013.1_src/data/scripts/dock_solv.prm

>  <Rbt.Receptor>
prm/pocket_docking_6.prm

>  <SCORE>
-17.6113

>  <SCORE.INTER>
-17.0767

>  <SCORE.INTER.CONST>
1

>  <SCORE.INTER.POLAR>
0

>  <SCORE.INTER.ROT>
4

>  <SCORE.INTER.SOLV>
11.0051

>  <SCORE.INTER.VDW>
-21.3195

>  <SCORE.INTER.norm>
-0.776212

>  <SCORE.INTRA>
-0.534638

>  <SCORE.INTRA.DIHEDRAL>
0.556987

>  <SCORE.INTRA.DIHEDRAL.0>
6.18831

>  <SCORE.INTRA.POLAR>
0

>  <SCORE.INTRA.POLAR.0>
0

>  <SCORE.INTRA.REPUL>
0

>  <SCORE.INTRA.REPUL.0>
0

>  <SCORE.INTRA.SOLV>
-0.00404626

>  <SCORE.INTRA.SOLV.lig_0>
-44.3465

>  <SCORE.INTRA.VDW>
-0.811109

>  <SCORE.INTRA.VDW.0>
-0.778272

>  <SCORE.INTRA.norm>
-0.0243017

>  <SCORE.RESTR>
0

>  <SCORE.RESTR.CAVITY>
0

>  <SCORE.RESTR.norm>
0

>  <SCORE.SYSTEM>
0

>  <SCORE.SYSTEM.CONST>
0

>  <SCORE.SYSTEM.DIHEDRAL>
0

>  <SCORE.SYSTEM.SOLV>
0

>  <SCORE.SYSTEM.norm>
0

>  <SCORE.heavy>
22

>  <SCORE.norm>
-0.800514

>  <RMSD>
7.416

$$$$
ligand
 OpenBabel11021811503D
libRbt.so/2013.1/901 2013/11/27
 22 24  0  0  0  0  0  0  0  0999 V2000
    0.1474    4.8263   23.0443 C   0  0  0  0  0  0  0  0  0  0  0  0
    1.5197    4.5721   23.2511 C   0  0  0  0  0  0  0  0  0  0  0  0
    2.3051    5.5322   23.8833 C   0  0  0  0  0  0  0  0  0  0  0  0
    1.7188    6.7386   24.3040 C   0  0  0  0  0  0  0  0  0  0  0  0
    0.3431    6.9990   24.0885 C   0  0  0  0  0  0  0  0  0  0  0  0
   -0.4383    6.0408   23.4573 C   0  0  0  0  0  0  0  0  0  0  0  0
   -0.7319    3.7817   22.3302 C   0  0  0  0  0  0  0  0  0  0  0  0
   -0.5016    3.6671   20.8025 C   0  0  0  0  0  0  0  0  0  0  0  0
    0.8286    3.0241   20.4275 C   0  0  0  0  0  0  0  0  0  0  0  0
    1.4001    1.9528   21.1207 C   0  0  0  0  0  0  0  0  0  0  0  0
    2.5682    1.6561   20.4934 N   0  0  0  0  0  0  0  0  0  0  0  0
    2.8063    2.4794   19.4109 C   0  0  0  0  0  0  0  0  0  0  0  0
    1.7323    3.3588   19.3293 C   0  0  0  0  0  0  0  0  0  0  0  0
    1.7527    4.3295   18.2571 C   0  0  0  0  0  0  0  0  0  0  0  0
    0.7061    5.2357   18.1099 O   0  0  0  0  0  0  0  0  0  0  0  0
    2.8300    4.3462   17.3813 N   0  0  0  0  0  0  0  0  0  0  0  0
    3.8585    3.4562   17.4939 C   0  0  0  0  0  0  0  0  0  0  0  0
    3.8726    2.5422   18.4768 N   0  0  0  0  0  0  0  0  0  0  0  0
    4.9666    3.5027   16.5345 N   0  0  0  0  0  0  0  0  0  0  0  0
    2.5926    7.7615   24.9803 C   0  0  0  0  0  0  0  0  0  0  0  0
    2.6991    8.8921   24.5086 O   0  0  0  0  0  0  0  0  0  0  0  0
    3.2998    7.3891   26.1766 N   0  0  0  0  0  0  0  0  0  0  0  0
  1  2  2  0  0  0  0
  1  6  1  0  0  0  0
  1  7  1  0  0  0  0
  2  3  1  0  0  0  0
  3  4  2  0  0  0  0
  4  5  1  0  0  0  0
  4 20  1  0  0  0  0
  5  6  2  0  0  0  0
  7  8  1  0  0  0  0
  8  9  1  0  0  0  0
  9 10  2  0  0  0  0
  9 13  1  0  0  0  0
 10 11  1  0  0  0  0
 11 12  1  0  0  0  0
 12 13  2  0  0  0  0
 12 18  1  0  0  0  0
 13 14  1  0  0  0  0
 14 15  1  0  0  0  0
 14 16  2  0  0  0  0
 16 17  1  0  0  0  0
 17 18  2  0  0  0  0
 17 19  1  0  0  0  0
 20 21  2  0  0  0  0
 20 22  1  0  0  0  0
M  END
>  <CHROM.1>
-73.34928702,121.65352249,71.12092754,38.20584817,1.85112491,4.66857644,21.22117637
1.74281593,0.53952186,0.95122895

>  <Name>
ligand

>  <RI>
0

>  <Rbt.Current_Directory>
/home/itssahil/PROJECTS/Mol_Feturizer/New_Systems/rnas/4LVY

>  <Rbt.Executable>
rbdock ($Id: //depot/dev/client3/rdock/2013.1/src/exe/rbdock.cxx#4 $)

>  <Rbt.Library>
libRbt.so (2013.1, Build901 2013/11/27)

>  <Rbt.Parameter_File>
/export/apps/rDock/src/rDock_2013.1_src/data/scripts/dock_solv.prm

>  <Rbt.Receptor>
prm/pocket_docking_7.prm

>  <SCORE>
-17.7428

>  <SCORE.INTER>
-17.1652

>  <SCORE.INTER.CONST>
1

>  <SCORE.INTER.POLAR>
0

>  <SCORE.INTER.ROT>
4

>  <SCORE.INTER.SOLV>
10.9719

>  <SCORE.INTER.VDW>
-21.3674

>  <SCORE.INTER.norm>
-0.780237

>  <SCORE.INTRA>
-0.577549

>  <SCORE.INTRA.DIHEDRAL>
0.450689

>  <SCORE.INTRA.DIHEDRAL.0>
6.18831

>  <SCORE.INTRA.POLAR>
0

>  <SCORE.INTRA.POLAR.0>
0

>  <SCORE.INTRA.REPUL>
0

>  <SCORE.INTRA.REPUL.0>
0

>  <SCORE.INTRA.SOLV>
-0.00305677

>  <SCORE.INTRA.SOLV.lig_0>
-44.3465

>  <SCORE.INTRA.VDW>
-0.801365

>  <SCORE.INTRA.VDW.0>
-0.778272

>  <SCORE.INTRA.norm>
-0.0262522

>  <SCORE.RESTR>
0

>  <SCORE.RESTR.CAVITY>
0

>  <SCORE.RESTR.norm>
0

>  <SCORE.SYSTEM>
0

>  <SCORE.SYSTEM.CONST>
0

>  <SCORE.SYSTEM.DIHEDRAL>
0

>  <SCORE.SYSTEM.SOLV>
0

>  <SCORE.SYSTEM.norm>
0

>  <SCORE.heavy>
22

>  <SCORE.norm>
-0.806489

>  <RMSD>
7.419

$$$$
ligand
 OpenBabel11021811503D
libRbt.so/2013.1/901 2013/11/27
 22 24  0  0  0  0  0  0  0  0999 V2000
    0.2904    4.6748   22.5117 C   0  0  0  0  0  0  0  0  0  0  0  0
   -0.3852    5.9066   22.6416 C   0  0  0  0  0  0  0  0  0  0  0  0
    0.3020    7.0152   23.1286 C   0  0  0  0  0  0  0  0  0  0  0  0
    1.6564    6.8890   23.4834 C   0  0  0  0  0  0  0  0  0  0  0  0
    2.3333    5.6505   23.3624 C   0  0  0  0  0  0  0  0  0  0  0  0
    1.6462    4.5461   22.8773 C   0  0  0  0  0  0  0  0  0  0  0  0
   -0.4605    3.4340   21.9913 C   0  0  0  0  0  0  0  0  0  0  0  0
   -0.1111    3.0187   20.5403 C   0  0  0  0  0  0  0  0  0  0  0  0
    1.3225    2.5301   20.3686 C   0  0  0  0  0  0  0  0  0  0  0  0
    1.9640    1.6651   21.2604 C   0  0  0  0  0  0  0  0  0  0  0  0
    3.2153    1.4554   20.7743 N   0  0  0  0  0  0  0  0  0  0  0  0
    3.4424    2.1400   19.5970 C   0  0  0  0  0  0  0  0  0  0  0  0
    2.2731    2.8317   19.3008 C   0  0  0  0  0  0  0  0  0  0  0  0
    2.2649    3.6303   18.0948 C   0  0  0  0  0  0  0  0  0  0  0  0
    1.1253    4.3427   17.7318 O   0  0  0  0  0  0  0  0  0  0  0  0
    3.4082    3.6781   17.3084 N   0  0  0  0  0  0  0  0  0  0  0  0
    4.5311    2.9738   17.6335 C   0  0  0  0  0  0  0  0  0  0  0  0
    4.5743    2.2230   18.7453 N   0  0  0  0  0  0  0  0  0  0  0  0
    5.7088    3.0433   16.7623 N   0  0  0  0  0  0  0  0  0  0  0  0
    2.3738    8.1026   24.0123 C   0  0  0  0  0  0  0  0  0  0  0  0
    2.2599    8.4216   25.1944 O   0  0  0  0  0  0  0  0  0  0  0  0
    3.1834    8.8788   23.1111 N   0  0  0  0  0  0  0  0  0  0  0  0
  1  2  2  0  0  0  0
  1  6  1  0  0  0  0
  1  7  1  0  0  0  0
  2  3  1  0  0  0  0
  3  4  2  0  0  0  0
  4  5  1  0  0  0  0
  4 20  1  0  0  0  0
  5  6  2  0  0  0  0
  7  8  1  0  0  0  0
  8  9  1  0  0  0  0
  9 10  2  0  0  0  0
  9 13  1  0  0  0  0
 10 11  1  0  0  0  0
 11 12  1  0  0  0  0
 12 13  2  0  0  0  0
 12 18  1  0  0  0  0
 13 14  1  0  0  0  0
 14 15  1  0  0  0  0
 14 16  2  0  0  0  0
 16 17  1  0  0  0  0
 17 18  2  0  0  0  0
 17 19  1  0  0  0  0
 20 21  2  0  0  0  0
 20 22  1  0  0  0  0
M  END
>  <CHROM.1>
106.03944409,81.77825966,66.36134292,43.22594390,2.15205132,4.43028738,20.89295364
1.88559535,0.58418614,0.70327868

>  <Name>
ligand

>  <RI>
0

>  <Rbt.Current_Directory>
/home/itssahil/PROJECTS/Mol_Feturizer/New_Systems/rnas/4LVY

>  <Rbt.Executable>
rbdock ($Id: //depot/dev/client3/rdock/2013.1/src/exe/rbdock.cxx#4 $)

>  <Rbt.Library>
libRbt.so (2013.1, Build901 2013/11/27)

>  <Rbt.Parameter_File>
/export/apps/rDock/src/rDock_2013.1_src/data/scripts/dock_solv.prm

>  <Rbt.Receptor>
prm/pocket_docking_7.prm

>  <SCORE>
-16.8477

>  <SCORE.INTER>
-16.0432

>  <SCORE.INTER.CONST>
1

>  <SCORE.INTER.POLAR>
0

>  <SCORE.INTER.ROT>
4

>  <SCORE.INTER.SOLV>
11.4026

>  <SCORE.INTER.VDW>
-20.763

>  <SCORE.INTER.norm>
-0.729236

>  <SCORE.INTRA>
-0.804454

>  <SCORE.INTRA.DIHEDRAL>
0.250098

>  <SCORE.INTRA.DIHEDRAL.0>
6.18831

>  <SCORE.INTRA.POLAR>
0

>  <SCORE.INTRA.POLAR.0>
0

>  <SCORE.INTRA.REPUL>
0

>  <SCORE.INTRA.REPUL.0>
0

>  <SCORE.INTRA.SOLV>
-0.00861891

>  <SCORE.INTRA.SOLV.lig_0>
-44.3465

>  <SCORE.INTRA.VDW>
-0.925193

>  <SCORE.INTRA.VDW.0>
-0.778272

>  <SCORE.INTRA.norm>
-0.0365661

>  <SCORE.RESTR>
0

>  <SCORE.RESTR.CAVITY>
0

>  <SCORE.RESTR.norm>
0

>  <SCORE.SYSTEM>
0

>  <SCORE.SYSTEM.CONST>
0

>  <SCORE.SYSTEM.DIHEDRAL>
0

>  <SCORE.SYSTEM.SOLV>
0

>  <SCORE.SYSTEM.norm>
0

>  <SCORE.heavy>
22

>  <SCORE.norm>
-0.765802

>  <RMSD>
7.444

$$$$
ligand
 OpenBabel11021811503D
libRbt.so/2013.1/901 2013/11/27
 22 24  0  0  0  0  0  0  0  0999 V2000
    0.2222    4.6813   22.5632 C   0  0  0  0  0  0  0  0  0  0  0  0
    1.4572    4.5044   23.2221 C   0  0  0  0  0  0  0  0  0  0  0  0
    2.1390    5.6172   23.7069 C   0  0  0  0  0  0  0  0  0  0  0  0
    1.5868    6.8980   23.5314 C   0  0  0  0  0  0  0  0  0  0  0  0
    0.3515    7.0779   22.8616 C   0  0  0  0  0  0  0  0  0  0  0  0
   -0.3265    5.9672   22.3783 C   0  0  0  0  0  0  0  0  0  0  0  0
   -0.5363    3.4618   22.0050 C   0  0  0  0  0  0  0  0  0  0  0  0
   -0.1884    3.0883   20.5424 C   0  0  0  0  0  0  0  0  0  0  0  0
    1.2400    2.5891   20.3582 C   0  0  0  0  0  0  0  0  0  0  0  0
    1.8867    1.7281   21.2501 C   0  0  0  0  0  0  0  0  0  0  0  0
    3.1308    1.5061   20.7512 N   0  0  0  0  0  0  0  0  0  0  0  0
    3.3482    2.1788   19.5652 C   0  0  0  0  0  0  0  0  0  0  0  0
    2.1798    2.8752   19.2766 C   0  0  0  0  0  0  0  0  0  0  0  0
    2.1622    3.6630   18.0636 C   0  0  0  0  0  0  0  0  0  0  0  0
    1.0229    4.3794   17.7076 O   0  0  0  0  0  0  0  0  0  0  0  0
    3.2965    3.6966   17.2634 N   0  0  0  0  0  0  0  0  0  0  0  0
    4.4188    2.9882   17.5815 C   0  0  0  0  0  0  0  0  0  0  0  0
    4.4704    2.2470   18.6995 N   0  0  0  0  0  0  0  0  0  0  0  0
    5.5864    3.0424   16.6960 N   0  0  0  0  0  0  0  0  0  0  0  0
    2.3480    8.0844   24.0609 C   0  0  0  0  0  0  0  0  0  0  0  0
    2.3466    8.3321   25.2653 O   0  0  0  0  0  0  0  0  0  0  0  0
    3.0657    8.9191   23.1345 N   0  0  0  0  0  0  0  0  0  0  0  0
  1  2  2  0  0  0  0
  1  6  1  0  0  0  0
  1  7  1  0  0  0  0
  2  3  1  0  0  0  0
  3  4  2  0  0  0  0
  4  5  1  0  0  0  0
  4 20  1  0  0  0  0
  5  6  2  0  0  0  0
  7  8  1  0  0  0  0
  8  9  1  0  0  0  0
  9 10  2  0  0  0  0
  9 13  1  0  0  0  0
 10 11  1  0  0  0  0
 11 12  1  0  0  0  0
 12 13  2  0  0  0  0
 12 18  1  0  0  0  0
 13 14  1  0  0  0  0
 14 15  1  0  0  0  0
 14 16  2  0  0  0  0
 16 17  1  0  0  0  0
 17 18  2  0  0  0  0
 17 19  1  0  0  0  0
 20 21  2  0  0  0  0
 20 22  1  0  0  0  0
M  END
>  <CHROM.1>
-90.18957985,-76.52687238,66.64555777,40.76667995,2.07524362,4.45105340,20.89484214
1.87101442,0.60012338,0.72413380

>  <Name>
ligand

>  <RI>
0

>  <Rbt.Current_Directory>
/home/itssahil/PROJECTS/Mol_Feturizer/New_Systems/rnas/4LVY

>  <Rbt.Executable>
rbdock ($Id: //depot/dev/client3/rdock/2013.1/src/exe/rbdock.cxx#4 $)

>  <Rbt.Library>
libRbt.so (2013.1, Build901 2013/11/27)

>  <Rbt.Parameter_File>
/export/apps/rDock/src/rDock_2013.1_src/data/scripts/dock_solv.prm

>  <Rbt.Receptor>
prm/pocket_docking_6.prm

>  <SCORE>
-16.882

>  <SCORE.INTER>
-16.0515

>  <SCORE.INTER.CONST>
1

>  <SCORE.INTER.POLAR>
0

>  <SCORE.INTER.ROT>
4

>  <SCORE.INTER.SOLV>
11.9765

>  <SCORE.INTER.VDW>
-20.9598

>  <SCORE.INTER.norm>
-0.729614

>  <SCORE.INTRA>
-0.830523

>  <SCORE.INTRA.DIHEDRAL>
0.0884529

>  <SCORE.INTRA.DIHEDRAL.0>
6.18831

>  <SCORE.INTRA.POLAR>
0

>  <SCORE.INTRA.POLAR.0>
0

>  <SCORE.INTRA.REPUL>
0

>  <SCORE.INTRA.REPUL.0>
0

>  <SCORE.INTRA.SOLV>
-0.00666756

>  <SCORE.INTRA.SOLV.lig_0>
-44.3465

>  <SCORE.INTRA.VDW>
-0.871415

>  <SCORE.INTRA.VDW.0>
-0.778272

>  <SCORE.INTRA.norm>
-0.037751

>  <SCORE.RESTR>
0

>  <SCORE.RESTR.CAVITY>
0

>  <SCORE.RESTR.norm>
0

>  <SCORE.SYSTEM>
0

>  <SCORE.SYSTEM.CONST>
0

>  <SCORE.SYSTEM.DIHEDRAL>
0

>  <SCORE.SYSTEM.SOLV>
0

>  <SCORE.SYSTEM.norm>
0

>  <SCORE.heavy>
22

>  <SCORE.norm>
-0.767365

>  <RMSD>
7.447

$$$$
ligand
 OpenBabel11021811503D
libRbt.so/2013.1/901 2013/11/27
 22 24  0  0  0  0  0  0  0  0999 V2000
    0.3666    4.9239   20.1343 C   0  0  0  0  0  0  0  0  0  0  0  0
   -0.6250    4.1367   20.7570 C   0  0  0  0  0  0  0  0  0  0  0  0
   -1.1023    4.5052   22.0119 C   0  0  0  0  0  0  0  0  0  0  0  0
   -0.5882    5.6541   22.6380 C   0  0  0  0  0  0  0  0  0  0  0  0
    0.4142    6.4400   22.0181 C   0  0  0  0  0  0  0  0  0  0  0  0
    0.8894    6.0706   20.7671 C   0  0  0  0  0  0  0  0  0  0  0  0
    0.9183    4.5198   18.7536 C   0  0  0  0  0  0  0  0  0  0  0  0
    2.3550    3.9404   18.7671 C   0  0  0  0  0  0  0  0  0  0  0  0
    2.5536    2.8116   19.7720 C   0  0  0  0  0  0  0  0  0  0  0  0
    1.5128    2.2122   20.4878 C   0  0  0  0  0  0  0  0  0  0  0  0
    2.0740    1.2538   21.2704 N   0  0  0  0  0  0  0  0  0  0  0  0
    3.4437    1.1827   21.1121 C   0  0  0  0  0  0  0  0  0  0  0  0
    3.7917    2.1475   20.1732 C   0  0  0  0  0  0  0  0  0  0  0  0
    5.1928    2.2640   19.8331 C   0  0  0  0  0  0  0  0  0  0  0  0
    5.6122    3.2027   18.8946 O   0  0  0  0  0  0  0  0  0  0  0  0
    6.1110    1.4301   20.4572 N   0  0  0  0  0  0  0  0  0  0  0  0
    5.7221    0.4897   21.3666 C   0  0  0  0  0  0  0  0  0  0  0  0
    4.4306    0.3541   21.7062 N   0  0  0  0  0  0  0  0  0  0  0  0
    6.7274   -0.3792   21.9870 N   0  0  0  0  0  0  0  0  0  0  0  0
   -1.1184    6.0265   23.9972 C   0  0  0  0  0  0  0  0  0  0  0  0
   -0.6594    6.9983   24.5946 O   0  0  0  0  0  0  0  0  0  0  0  0
   -2.1604    5.2238   24.5802 N   0  0  0  0  0  0  0  0  0  0  0  0
  1  2  2  0  0  0  0
  1  6  1  0  0  0  0
  1  7  1  0  0  0  0
  2  3  1  0  0  0  0
  3  4  2  0  0  0  0
  4  5  1  0  0  0  0
  4 20  1  0  0  0  0
  5  6  2  0  0  0  0
  7  8  1  0  0  0  0
  8  9  1  0  0  0  0
  9 10  2  0  0  0  0
  9 13  1  0  0  0  0
 10 11  1  0  0  0  0
 11 12  1  0  0  0  0
 12 13  2  0  0  0  0
 12 18  1  0  0  0  0
 13 14  1  0  0  0  0
 14 15  1  0  0  0  0
 14 16  2  0  0  0  0
 16 17  1  0  0  0  0
 17 18  2  0  0  0  0
 17 19  1  0  0  0  0
 20 21  2  0  0  0  0
 20 22  1  0  0  0  0
M  END
>  <CHROM.1>
-106.88043388,177.49457549,51.14480284,8.60671348,2.13637483,3.42104820,21.19526207
3.07339260,-0.69747822,1.92824371

>  <Name>
ligand

>  <RI>
0

>  <Rbt.Current_Directory>
/home/itssahil/PROJECTS/Mol_Feturizer/New_Systems/rnas/4LVY

>  <Rbt.Executable>
rbdock ($Id: //depot/dev/client3/rdock/2013.1/src/exe/rbdock.cxx#4 $)

>  <Rbt.Library>
libRbt.so (2013.1, Build901 2013/11/27)

>  <Rbt.Parameter_File>
/export/apps/rDock/src/rDock_2013.1_src/data/scripts/dock_solv.prm

>  <Rbt.Receptor>
prm/pocket_docking_5.prm

>  <SCORE>
-16.5505

>  <SCORE.INTER>
-16.8113

>  <SCORE.INTER.CONST>
1

>  <SCORE.INTER.POLAR>
0

>  <SCORE.INTER.ROT>
4

>  <SCORE.INTER.SOLV>
13.3819

>  <SCORE.INTER.VDW>
-21.9349

>  <SCORE.INTER.norm>
-0.764152

>  <SCORE.INTRA>
0.260819

>  <SCORE.INTRA.DIHEDRAL>
0.286424

>  <SCORE.INTRA.DIHEDRAL.0>
6.18831

>  <SCORE.INTRA.POLAR>
0

>  <SCORE.INTRA.POLAR.0>
0

>  <SCORE.INTRA.REPUL>
0

>  <SCORE.INTRA.REPUL.0>
0

>  <SCORE.INTRA.SOLV>
0.0103887

>  <SCORE.INTRA.SOLV.lig_0>
-44.3465

>  <SCORE.INTRA.VDW>
0.112413

>  <SCORE.INTRA.VDW.0>
-0.778272

>  <SCORE.INTRA.norm>
0.0118554

>  <SCORE.RESTR>
0

>  <SCORE.RESTR.CAVITY>
0

>  <SCORE.RESTR.norm>
0

>  <SCORE.SYSTEM>
0

>  <SCORE.SYSTEM.CONST>
0

>  <SCORE.SYSTEM.DIHEDRAL>
0

>  <SCORE.SYSTEM.SOLV>
0

>  <SCORE.SYSTEM.norm>
0

>  <SCORE.heavy>
22

>  <SCORE.norm>
-0.752297

>  <RMSD>
7.802

$$$$
ligand
 OpenBabel11021811503D
libRbt.so/2013.1/901 2013/11/27
 22 24  0  0  0  0  0  0  0  0999 V2000
    0.3544    4.8581   20.1484 C   0  0  0  0  0  0  0  0  0  0  0  0
   -0.5695    4.0348   20.8260 C   0  0  0  0  0  0  0  0  0  0  0  0
   -1.0407    4.4220   22.0776 C   0  0  0  0  0  0  0  0  0  0  0  0
   -0.5879    5.6255   22.6457 C   0  0  0  0  0  0  0  0  0  0  0  0
    0.3470    6.4484   21.9706 C   0  0  0  0  0  0  0  0  0  0  0  0
    0.8162    6.0602   20.7231 C   0  0  0  0  0  0  0  0  0  0  0  0
    0.8992    4.4351   18.7706 C   0  0  0  0  0  0  0  0  0  0  0  0
    2.3464    3.8824   18.7808 C   0  0  0  0  0  0  0  0  0  0  0  0
    2.5682    2.7579   19.7858 C   0  0  0  0  0  0  0  0  0  0  0  0
    1.5422    2.1505   20.5159 C   0  0  0  0  0  0  0  0  0  0  0  0
    2.1221    1.1993   21.2936 N   0  0  0  0  0  0  0  0  0  0  0  0
    3.4904    1.1408   21.1185 C   0  0  0  0  0  0  0  0  0  0  0  0
    3.8175    2.1065   20.1730 C   0  0  0  0  0  0  0  0  0  0  0  0
    5.2130    2.2355   19.8152 C   0  0  0  0  0  0  0  0  0  0  0  0
    5.6118    3.1759   18.8694 O   0  0  0  0  0  0  0  0  0  0  0  0
    6.1469    1.4118   20.4297 N   0  0  0  0  0  0  0  0  0  0  0  0
    5.7783    0.4700   21.3460 C   0  0  0  0  0  0  0  0  0  0  0  0
    4.4924    0.3230   21.7021 N   0  0  0  0  0  0  0  0  0  0  0  0
    6.7995   -0.3878   21.9558 N   0  0  0  0  0  0  0  0  0  0  0  0
   -1.1097    6.0174   24.0027 C   0  0  0  0  0  0  0  0  0  0  0  0
   -0.6276    6.9808   24.5956 O   0  0  0  0  0  0  0  0  0  0  0  0
   -2.1711    5.2430   24.5890 N   0  0  0  0  0  0  0  0  0  0  0  0
  1  2  2  0  0  0  0
  1  6  1  0  0  0  0
  1  7  1  0  0  0  0
  2  3  1  0  0  0  0
  3  4  2  0  0  0  0
  4  5  1  0  0  0  0
  4 20  1  0  0  0  0
  5  6  2  0  0  0  0
  7  8  1  0  0  0  0
  8  9  1  0  0  0  0
  9 10  2  0  0  0  0
  9 13  1  0  0  0  0
 10 11  1  0  0  0  0
 11 12  1  0  0  0  0
 12 13  2  0  0  0  0
 12 18  1  0  0  0  0
 13 14  1  0  0  0  0
 14 15  1  0  0  0  0
 14 16  2  0  0  0  0
 16 17  1  0  0  0  0
 17 18  2  0  0  0  0
 17 19  1  0  0  0  0
 20 21  2  0  0  0  0
 20 22  1  0  0  0  0
M  END
>  <CHROM.1>
-103.92969195,171.87068422,52.40451348,7.82862261,2.15389405,3.38447023,21.19726237
3.06606518,-0.69600827,1.91937688

>  <Name>
ligand

>  <RI>
0

>  <Rbt.Current_Directory>
/home/itssahil/PROJECTS/Mol_Feturizer/New_Systems/rnas/4LVY

>  <Rbt.Executable>
rbdock ($Id: //depot/dev/client3/rdock/2013.1/src/exe/rbdock.cxx#4 $)

>  <Rbt.Library>
libRbt.so (2013.1, Build901 2013/11/27)

>  <Rbt.Parameter_File>
/export/apps/rDock/src/rDock_2013.1_src/data/scripts/dock_solv.prm

>  <Rbt.Receptor>
prm/pocket_docking_4.prm

>  <SCORE>
-16.627

>  <SCORE.INTER>
-16.8964

>  <SCORE.INTER.CONST>
1

>  <SCORE.INTER.POLAR>
0

>  <SCORE.INTER.ROT>
4

>  <SCORE.INTER.SOLV>
13.2989

>  <SCORE.INTER.VDW>
-21.9639

>  <SCORE.INTER.norm>
-0.768018

>  <SCORE.INTRA>
0.269382

>  <SCORE.INTRA.DIHEDRAL>
0.186536

>  <SCORE.INTRA.DIHEDRAL.0>
6.18831

>  <SCORE.INTRA.POLAR>
0

>  <SCORE.INTRA.POLAR.0>
0

>  <SCORE.INTRA.REPUL>
0

>  <SCORE.INTRA.REPUL.0>
0

>  <SCORE.INTRA.SOLV>
0.010021

>  <SCORE.INTRA.SOLV.lig_0>
-44.3465

>  <SCORE.INTRA.VDW>
0.171104

>  <SCORE.INTRA.VDW.0>
-0.778272

>  <SCORE.INTRA.norm>
0.0122446

>  <SCORE.RESTR>
0

>  <SCORE.RESTR.CAVITY>
0

>  <SCORE.RESTR.norm>
0

>  <SCORE.SYSTEM>
0

>  <SCORE.SYSTEM.CONST>
0

>  <SCORE.SYSTEM.DIHEDRAL>
0

>  <SCORE.SYSTEM.SOLV>
0

>  <SCORE.SYSTEM.norm>
0

>  <SCORE.heavy>
22

>  <SCORE.norm>
-0.755773

>  <RMSD>
7.814

$$$$
ligand
 OpenBabel11021811503D
libRbt.so/2013.1/901 2013/11/27
 22 24  0  0  0  0  0  0  0  0999 V2000
    0.2598    3.4740   21.6565 C   0  0  0  0  0  0  0  0  0  0  0  0
   -1.0707    3.9430   21.6330 C   0  0  0  0  0  0  0  0  0  0  0  0
   -1.4886    4.8621   22.5916 C   0  0  0  0  0  0  0  0  0  0  0  0
   -0.5792    5.3068   23.5670 C   0  0  0  0  0  0  0  0  0  0  0  0
    0.7543    4.8296   23.5974 C   0  0  0  0  0  0  0  0  0  0  0  0
    1.1689    3.9126   22.6412 C   0  0  0  0  0  0  0  0  0  0  0  0
    0.7331    2.4432   20.6136 C   0  0  0  0  0  0  0  0  0  0  0  0
    2.1166    1.8087   20.9021 C   0  0  0  0  0  0  0  0  0  0  0  0
    3.2525    2.4113   20.0835 C   0  0  0  0  0  0  0  0  0  0  0  0
    3.2427    2.5083   18.6887 C   0  0  0  0  0  0  0  0  0  0  0  0
    4.4111    3.0998   18.3269 N   0  0  0  0  0  0  0  0  0  0  0  0
    5.2042    3.4041   19.4153 C   0  0  0  0  0  0  0  0  0  0  0  0
    4.5118    2.9889   20.5474 C   0  0  0  0  0  0  0  0  0  0  0  0
    5.1473    3.2076   21.8283 C   0  0  0  0  0  0  0  0  0  0  0  0
    4.5082    2.8244   23.0041 O   0  0  0  0  0  0  0  0  0  0  0  0
    6.4021    3.8009   21.8673 N   0  0  0  0  0  0  0  0  0  0  0  0
    7.0405    4.2019   20.7297 C   0  0  0  0  0  0  0  0  0  0  0  0
    6.4807    4.0143   19.5243 N   0  0  0  0  0  0  0  0  0  0  0  0
    8.3580    4.8390   20.8232 N   0  0  0  0  0  0  0  0  0  0  0  0
   -1.0593    6.2969   24.5948 C   0  0  0  0  0  0  0  0  0  0  0  0
   -0.4995    7.3854   24.7131 O   0  0  0  0  0  0  0  0  0  0  0  0
   -2.1735    5.9427   25.4334 N   0  0  0  0  0  0  0  0  0  0  0  0
  1  2  2  0  0  0  0
  1  6  1  0  0  0  0
  1  7  1  0  0  0  0
  2  3  1  0  0  0  0
  3  4  2  0  0  0  0
  4  5  1  0  0  0  0
  4 20  1  0  0  0  0
  5  6  2  0  0  0  0
  7  8  1  0  0  0  0
  8  9  1  0  0  0  0
  9 10  2  0  0  0  0
  9 13  1  0  0  0  0
 10 11  1  0  0  0  0
 11 12  1  0  0  0  0
 12 13  2  0  0  0  0
 12 18  1  0  0  0  0
 13 14  1  0  0  0  0
 14 15  1  0  0  0  0
 14 16  2  0  0  0  0
 16 17  1  0  0  0  0
 17 18  2  0  0  0  0
 17 19  1  0  0  0  0
 20 21  2  0  0  0  0
 20 22  1  0  0  0  0
M  END
>  <CHROM.1>
-168.89371610,-121.93916613,-100.94794298,-54.06335210,2.61982202,3.99547371
21.70337389,2.61700898,0.10471687,0.89373415

>  <Name>
ligand

>  <RI>
0

>  <Rbt.Current_Directory>
/home/itssahil/PROJECTS/Mol_Feturizer/New_Systems/rnas/4LVY

>  <Rbt.Executable>
rbdock ($Id: //depot/dev/client3/rdock/2013.1/src/exe/rbdock.cxx#4 $)

>  <Rbt.Library>
libRbt.so (2013.1, Build901 2013/11/27)

>  <Rbt.Parameter_File>
/export/apps/rDock/src/rDock_2013.1_src/data/scripts/dock_solv.prm

>  <Rbt.Receptor>
prm/pocket_docking_7.prm

>  <SCORE>
-11.8423

>  <SCORE.INTER>
-14.1957

>  <SCORE.INTER.CONST>
1

>  <SCORE.INTER.POLAR>
0

>  <SCORE.INTER.ROT>
4

>  <SCORE.INTER.SOLV>
11.3036

>  <SCORE.INTER.VDW>
-19.4984

>  <SCORE.INTER.norm>
-0.64526

>  <SCORE.INTRA>
2.35345

>  <SCORE.INTRA.DIHEDRAL>
4.79285

>  <SCORE.INTRA.DIHEDRAL.0>
6.18831

>  <SCORE.INTRA.POLAR>
0

>  <SCORE.INTRA.POLAR.0>
0

>  <SCORE.INTRA.REPUL>
0

>  <SCORE.INTRA.REPUL.0>
0

>  <SCORE.INTRA.SOLV>
0.09483

>  <SCORE.INTRA.SOLV.lig_0>
-44.3465

>  <SCORE.INTRA.VDW>
-0.090391

>  <SCORE.INTRA.VDW.0>
-0.778272

>  <SCORE.INTRA.norm>
0.106975

>  <SCORE.RESTR>
0

>  <SCORE.RESTR.CAVITY>
0

>  <SCORE.RESTR.norm>
0

>  <SCORE.SYSTEM>
0

>  <SCORE.SYSTEM.CONST>
0

>  <SCORE.SYSTEM.DIHEDRAL>
0

>  <SCORE.SYSTEM.SOLV>
0

>  <SCORE.SYSTEM.norm>
0

>  <SCORE.heavy>
22

>  <SCORE.norm>
-0.538286

>  <RMSD>
7.856

$$$$
ligand
 OpenBabel11021811503D
libRbt.so/2013.1/901 2013/11/27
 22 24  0  0  0  0  0  0  0  0999 V2000
    0.9756    3.4891   22.2124 C   0  0  0  0  0  0  0  0  0  0  0  0
    1.6514    4.3765   23.0764 C   0  0  0  0  0  0  0  0  0  0  0  0
    0.9148    5.2512   23.8706 C   0  0  0  0  0  0  0  0  0  0  0  0
   -0.4890    5.2367   23.7981 C   0  0  0  0  0  0  0  0  0  0  0  0
   -1.1685    4.3528   22.9240 C   0  0  0  0  0  0  0  0  0  0  0  0
   -0.4323    3.4819   22.1324 C   0  0  0  0  0  0  0  0  0  0  0  0
    1.7764    2.5272   21.3137 C   0  0  0  0  0  0  0  0  0  0  0  0
    1.4968    2.6641   19.7962 C   0  0  0  0  0  0  0  0  0  0  0  0
    1.6278    4.0898   19.2728 C   0  0  0  0  0  0  0  0  0  0  0  0
    0.6250    5.0575   19.3856 C   0  0  0  0  0  0  0  0  0  0  0  0
    1.1066    6.1921   18.8140 N   0  0  0  0  0  0  0  0  0  0  0  0
    2.3867    6.0298   18.3231 C   0  0  0  0  0  0  0  0  0  0  0  0
    2.7583    4.7171   18.5921 C   0  0  0  0  0  0  0  0  0  0  0  0
    4.0787    4.3040   18.1699 C   0  0  0  0  0  0  0  0  0  0  0  0
    4.5203    3.0065   18.4140 O   0  0  0  0  0  0  0  0  0  0  0  0
    4.8956    5.2171   17.5166 N   0  0  0  0  0  0  0  0  0  0  0  0
    4.4921    6.4997   17.2826 C   0  0  0  0  0  0  0  0  0  0  0  0
    3.2736    6.9172   17.6601 N   0  0  0  0  0  0  0  0  0  0  0  0
    5.3972    7.4325   16.6033 N   0  0  0  0  0  0  0  0  0  0  0  0
   -1.2605    6.1969   24.6641 C   0  0  0  0  0  0  0  0  0  0  0  0
   -0.8270    7.3292   24.8691 O   0  0  0  0  0  0  0  0  0  0  0  0
   -2.5020    5.7629   25.2473 N   0  0  0  0  0  0  0  0  0  0  0  0
  1  2  2  0  0  0  0
  1  6  1  0  0  0  0
  1  7  1  0  0  0  0
  2  3  1  0  0  0  0
  3  4  2  0  0  0  0
  4  5  1  0  0  0  0
  4 20  1  0  0  0  0
  5  6  2  0  0  0  0
  7  8  1  0  0  0  0
  8  9  1  0  0  0  0
  9 10  2  0  0  0  0
  9 13  1  0  0  0  0
 10 11  1  0  0  0  0
 11 12  1  0  0  0  0
 12 13  2  0  0  0  0
 12 18  1  0  0  0  0
 13 14  1  0  0  0  0
 14 15  1  0  0  0  0
 14 16  2  0  0  0  0
 16 17  1  0  0  0  0
 17 18  2  0  0  0  0
 17 19  1  0  0  0  0
 20 21  2  0  0  0  0
 20 22  1  0  0  0  0
M  END
>  <CHROM.1>
-122.30225980,36.80135226,52.11151873,-81.39895853,1.64056635,5.02182220
20.60946087,-3.06424710,0.91562372,-0.08314437

>  <Name>
ligand

>  <RI>
0

>  <Rbt.Current_Directory>
/home/itssahil/PROJECTS/Mol_Feturizer/New_Systems/rnas/4LVY

>  <Rbt.Executable>
rbdock ($Id: //depot/dev/client3/rdock/2013.1/src/exe/rbdock.cxx#4 $)

>  <Rbt.Library>
libRbt.so (2013.1, Build901 2013/11/27)

>  <Rbt.Parameter_File>
/export/apps/rDock/src/rDock_2013.1_src/data/scripts/dock_solv.prm

>  <Rbt.Receptor>
prm/pocket_docking_8.prm

>  <SCORE>
-12.7876

>  <SCORE.INTER>
-11.9658

>  <SCORE.INTER.CONST>
1

>  <SCORE.INTER.POLAR>
0

>  <SCORE.INTER.ROT>
4

>  <SCORE.INTER.SOLV>
11.9059

>  <SCORE.INTER.VDW>
-18.2125

>  <SCORE.INTER.norm>
-0.543898

>  <SCORE.INTRA>
-0.821882

>  <SCORE.INTRA.DIHEDRAL>
0.243919

>  <SCORE.INTRA.DIHEDRAL.0>
6.18831

>  <SCORE.INTRA.POLAR>
0

>  <SCORE.INTRA.POLAR.0>
0

>  <SCORE.INTRA.REPUL>
0

>  <SCORE.INTRA.REPUL.0>
0

>  <SCORE.INTRA.SOLV>
0.126447

>  <SCORE.INTRA.SOLV.lig_0>
-44.3465

>  <SCORE.INTRA.VDW>
-1.00706

>  <SCORE.INTRA.VDW.0>
-0.778272

>  <SCORE.INTRA.norm>
-0.0373583

>  <SCORE.RESTR>
0

>  <SCORE.RESTR.CAVITY>
0

>  <SCORE.RESTR.norm>
0

>  <SCORE.SYSTEM>
0

>  <SCORE.SYSTEM.CONST>
0

>  <SCORE.SYSTEM.DIHEDRAL>
0

>  <SCORE.SYSTEM.SOLV>
0

>  <SCORE.SYSTEM.norm>
0

>  <SCORE.heavy>
22

>  <SCORE.norm>
-0.581257

>  <RMSD>
7.858

$$$$
ligand
 OpenBabel11021811503D
libRbt.so/2013.1/901 2013/11/27
 22 24  0  0  0  0  0  0  0  0999 V2000
    0.7964    5.3491   20.5128 C   0  0  0  0  0  0  0  0  0  0  0  0
    1.4063    5.0112   21.7393 C   0  0  0  0  0  0  0  0  0  0  0  0
    0.6780    5.1280   22.9201 C   0  0  0  0  0  0  0  0  0  0  0  0
   -0.6518    5.5812   22.8712 C   0  0  0  0  0  0  0  0  0  0  0  0
   -1.2624    5.9299   21.6414 C   0  0  0  0  0  0  0  0  0  0  0  0
   -0.5344    5.8134   20.4652 C   0  0  0  0  0  0  0  0  0  0  0  0
    1.5943    5.2425   19.1990 C   0  0  0  0  0  0  0  0  0  0  0  0
    1.7215    3.8091   18.6253 C   0  0  0  0  0  0  0  0  0  0  0  0
    2.2044    2.7806   19.6413 C   0  0  0  0  0  0  0  0  0  0  0  0
    1.3719    2.1560   20.5750 C   0  0  0  0  0  0  0  0  0  0  0  0
    2.1533    1.3089   21.2947 N   0  0  0  0  0  0  0  0  0  0  0  0
    3.4719    1.3366   20.8863 C   0  0  0  0  0  0  0  0  0  0  0  0
    3.5514    2.2513   19.8420 C   0  0  0  0  0  0  0  0  0  0  0  0
    4.8501    2.4540   19.2382 C   0  0  0  0  0  0  0  0  0  0  0  0
    5.0020    3.3487   18.1825 O   0  0  0  0  0  0  0  0  0  0  0  0
    5.9405    1.7474   19.7278 N   0  0  0  0  0  0  0  0  0  0  0  0
    5.8132    0.8513   20.7493 C   0  0  0  0  0  0  0  0  0  0  0  0
    4.6235    0.6385   21.3333 N   0  0  0  0  0  0  0  0  0  0  0  0
    6.9914    0.1166   21.2210 N   0  0  0  0  0  0  0  0  0  0  0  0
   -1.4145    5.7031   24.1638 C   0  0  0  0  0  0  0  0  0  0  0  0
   -2.1930    4.8158   24.5080 O   0  0  0  0  0  0  0  0  0  0  0  0
   -1.2196    6.8734   24.9777 N   0  0  0  0  0  0  0  0  0  0  0  0
  1  2  2  0  0  0  0
  1  6  1  0  0  0  0
  1  7  1  0  0  0  0
  2  3  1  0  0  0  0
  3  4  2  0  0  0  0
  4  5  1  0  0  0  0
  4 20  1  0  0  0  0
  5  6  2  0  0  0  0
  7  8  1  0  0  0  0
  8  9  1  0  0  0  0
  9 10  2  0  0  0  0
  9 13  1  0  0  0  0
 10 11  1  0  0  0  0
 11 12  1  0  0  0  0
 12 13  2  0  0  0  0
 12 18  1  0  0  0  0
 13 14  1  0  0  0  0
 14 15  1  0  0  0  0
 14 16  2  0  0  0  0
 16 17  1  0  0  0  0
 17 18  2  0  0  0  0
 17 19  1  0  0  0  0
 20 21  2  0  0  0  0
 20 22  1  0  0  0  0
M  END
>  <CHROM.1>
79.22282656,-98.90058517,-50.45313846,81.82055788,2.07530953,3.53546591,21.10214646
3.00224080,-0.69504479,1.98987342

>  <Name>
ligand

>  <RI>
0

>  <Rbt.Current_Directory>
/home/itssahil/PROJECTS/Mol_Feturizer/New_Systems/rnas/4LVY

>  <Rbt.Executable>
rbdock ($Id: //depot/dev/client3/rdock/2013.1/src/exe/rbdock.cxx#4 $)

>  <Rbt.Library>
libRbt.so (2013.1, Build901 2013/11/27)

>  <Rbt.Parameter_File>
/export/apps/rDock/src/rDock_2013.1_src/data/scripts/dock_solv.prm

>  <Rbt.Receptor>
prm/pocket_docking_6.prm

>  <SCORE>
-16.9937

>  <SCORE.INTER>
-15.9656

>  <SCORE.INTER.CONST>
1

>  <SCORE.INTER.POLAR>
0

>  <SCORE.INTER.ROT>
4

>  <SCORE.INTER.SOLV>
14.6518

>  <SCORE.INTER.VDW>
-21.7944

>  <SCORE.INTER.norm>
-0.725711

>  <SCORE.INTRA>
-1.02805

>  <SCORE.INTRA.DIHEDRAL>
0.459408

>  <SCORE.INTRA.DIHEDRAL.0>
6.18831

>  <SCORE.INTRA.POLAR>
0

>  <SCORE.INTRA.POLAR.0>
0

>  <SCORE.INTRA.REPUL>
0

>  <SCORE.INTRA.REPUL.0>
0

>  <SCORE.INTRA.SOLV>
0.117105

>  <SCORE.INTRA.SOLV.lig_0>
-44.3465

>  <SCORE.INTRA.VDW>
-1.31631

>  <SCORE.INTRA.VDW.0>
-0.778272

>  <SCORE.INTRA.norm>
-0.0467295

>  <SCORE.RESTR>
0

>  <SCORE.RESTR.CAVITY>
0

>  <SCORE.RESTR.norm>
0

>  <SCORE.SYSTEM>
0

>  <SCORE.SYSTEM.CONST>
0

>  <SCORE.SYSTEM.DIHEDRAL>
0

>  <SCORE.SYSTEM.SOLV>
0

>  <SCORE.SYSTEM.norm>
0

>  <SCORE.heavy>
22

>  <SCORE.norm>
-0.772441

>  <RMSD>
7.861

$$$$
ligand
 OpenBabel11021811503D
libRbt.so/2013.1/901 2013/11/27
 22 24  0  0  0  0  0  0  0  0999 V2000
    0.3344    4.8138   20.3294 C   0  0  0  0  0  0  0  0  0  0  0  0
    0.6367    6.0875   20.8556 C   0  0  0  0  0  0  0  0  0  0  0  0
    0.1284    6.4515   22.0996 C   0  0  0  0  0  0  0  0  0  0  0  0
   -0.6777    5.5452   22.8101 C   0  0  0  0  0  0  0  0  0  0  0  0
   -0.9898    4.2696   22.2788 C   0  0  0  0  0  0  0  0  0  0  0  0
   -0.4827    3.9087   21.0379 C   0  0  0  0  0  0  0  0  0  0  0  0
    0.8742    4.4023   18.9461 C   0  0  0  0  0  0  0  0  0  0  0  0
    2.3562    3.9516   18.9298 C   0  0  0  0  0  0  0  0  0  0  0  0
    2.6571    2.7926   19.8731 C   0  0  0  0  0  0  0  0  0  0  0  0
    1.6796    2.0982   20.5923 C   0  0  0  0  0  0  0  0  0  0  0  0
    2.3242    1.1416   21.3102 N   0  0  0  0  0  0  0  0  0  0  0  0
    3.6894    1.1624   21.1053 C   0  0  0  0  0  0  0  0  0  0  0  0
    3.9460    2.1886   20.2027 C   0  0  0  0  0  0  0  0  0  0  0  0
    5.3249    2.4066   19.8242 C   0  0  0  0  0  0  0  0  0  0  0  0
    5.6543    3.4112   18.9185 O   0  0  0  0  0  0  0  0  0  0  0  0
    6.3127    1.6035   20.3784 N   0  0  0  0  0  0  0  0  0  0  0  0
    6.0128    0.6004   21.2539 C   0  0  0  0  0  0  0  0  0  0  0  0
    4.7443    0.3701   21.6276 N   0  0  0  0  0  0  0  0  0  0  0  0
    7.0895   -0.2321   21.8001 N   0  0  0  0  0  0  0  0  0  0  0  0
   -1.2184    5.9668   24.1507 C   0  0  0  0  0  0  0  0  0  0  0  0
   -0.7824    6.9749   24.7036 O   0  0  0  0  0  0  0  0  0  0  0  0
   -2.2429    5.1680   24.7690 N   0  0  0  0  0  0  0  0  0  0  0  0
  1  2  2  0  0  0  0
  1  6  1  0  0  0  0
  1  7  1  0  0  0  0
  2  3  1  0  0  0  0
  3  4  2  0  0  0  0
  4  5  1  0  0  0  0
  4 20  1  0  0  0  0
  5  6  2  0  0  0  0
  7  8  1  0  0  0  0
  8  9  1  0  0  0  0
  9 10  2  0  0  0  0
  9 13  1  0  0  0  0
 10 11  1  0  0  0  0
 11 12  1  0  0  0  0
 12 13  2  0  0  0  0
 12 18  1  0  0  0  0
 13 14  1  0  0  0  0
 14 15  1  0  0  0  0
 14 16  2  0  0  0  0
 16 17  1  0  0  0  0
 17 18  2  0  0  0  0
 17 19  1  0  0  0  0
 20 21  2  0  0  0  0
 20 22  1  0  0  0  0
M  END
>  <CHROM.1>
78.98690385,-12.16662855,56.82959154,6.18936459,2.20556007,3.41038721,21.27087750
3.06018902,-0.67010819,1.95552558

>  <Name>
ligand

>  <RI>
0

>  <Rbt.Current_Directory>
/home/itssahil/PROJECTS/Mol_Feturizer/New_Systems/rnas/4LVY

>  <Rbt.Executable>
rbdock ($Id: //depot/dev/client3/rdock/2013.1/src/exe/rbdock.cxx#4 $)

>  <Rbt.Library>
libRbt.so (2013.1, Build901 2013/11/27)

>  <Rbt.Parameter_File>
/export/apps/rDock/src/rDock_2013.1_src/data/scripts/dock_solv.prm

>  <Rbt.Receptor>
prm/pocket_docking_4.prm

>  <SCORE>
-16.5482

>  <SCORE.INTER>
-16.7542

>  <SCORE.INTER.CONST>
1

>  <SCORE.INTER.POLAR>
0

>  <SCORE.INTER.ROT>
4

>  <SCORE.INTER.SOLV>
13.0504

>  <SCORE.INTER.VDW>
-21.7863

>  <SCORE.INTER.norm>
-0.761556

>  <SCORE.INTRA>
0.206032

>  <SCORE.INTRA.DIHEDRAL>
0.136391

>  <SCORE.INTRA.DIHEDRAL.0>
6.18831

>  <SCORE.INTRA.POLAR>
0

>  <SCORE.INTRA.POLAR.0>
0

>  <SCORE.INTRA.REPUL>
0

>  <SCORE.INTRA.REPUL.0>
0

>  <SCORE.INTRA.SOLV>
0.00699314

>  <SCORE.INTRA.SOLV.lig_0>
-44.3465

>  <SCORE.INTRA.VDW>
0.13434

>  <SCORE.INTRA.VDW.0>
-0.778272

>  <SCORE.INTRA.norm>
0.00936509

>  <SCORE.RESTR>
0

>  <SCORE.RESTR.CAVITY>
0

>  <SCORE.RESTR.norm>
0

>  <SCORE.SYSTEM>
0

>  <SCORE.SYSTEM.CONST>
0

>  <SCORE.SYSTEM.DIHEDRAL>
0

>  <SCORE.SYSTEM.SOLV>
0

>  <SCORE.SYSTEM.norm>
0

>  <SCORE.heavy>
22

>  <SCORE.norm>
-0.752191

>  <RMSD>
7.891

$$$$
ligand
 OpenBabel11021811503D
libRbt.so/2013.1/901 2013/11/27
 22 24  0  0  0  0  0  0  0  0999 V2000
    0.6385    5.3813   20.4377 C   0  0  0  0  0  0  0  0  0  0  0  0
    1.1842    6.1557   21.4833 C   0  0  0  0  0  0  0  0  0  0  0  0
    0.5006    6.2506   22.6924 C   0  0  0  0  0  0  0  0  0  0  0  0
   -0.7217    5.5746   22.8514 C   0  0  0  0  0  0  0  0  0  0  0  0
   -1.2754    4.8044   21.7993 C   0  0  0  0  0  0  0  0  0  0  0  0
   -0.5926    4.7116   20.5941 C   0  0  0  0  0  0  0  0  0  0  0  0
    1.3736    5.2805   19.0873 C   0  0  0  0  0  0  0  0  0  0  0  0
    1.5487    3.8405   18.5436 C   0  0  0  0  0  0  0  0  0  0  0  0
    2.0688    2.8509   19.5797 C   0  0  0  0  0  0  0  0  0  0  0  0
    1.2725    2.2670   20.5696 C   0  0  0  0  0  0  0  0  0  0  0  0
    2.0796    1.4458   21.2908 N   0  0  0  0  0  0  0  0  0  0  0  0
    3.3810    1.4519   20.8298 C   0  0  0  0  0  0  0  0  0  0  0  0
    3.4214    2.3244   19.7478 C   0  0  0  0  0  0  0  0  0  0  0  0
    4.6956    2.4977   19.0855 C   0  0  0  0  0  0  0  0  0  0  0  0
    4.8078    3.3494   17.9900 O   0  0  0  0  0  0  0  0  0  0  0  0
    5.8027    1.8064   19.5592 N   0  0  0  0  0  0  0  0  0  0  0  0
    5.7138    0.9519   20.6195 C   0  0  0  0  0  0  0  0  0  0  0  0
    4.5477    0.7672   21.2581 N   0  0  0  0  0  0  0  0  0  0  0  0
    6.9080    0.2316   21.0730 N   0  0  0  0  0  0  0  0  0  0  0  0
   -1.4424    5.6988   24.1676 C   0  0  0  0  0  0  0  0  0  0  0  0
   -2.2012    4.8071   24.5433 O   0  0  0  0  0  0  0  0  0  0  0  0
   -1.2314    6.8764   24.9668 N   0  0  0  0  0  0  0  0  0  0  0  0
  1  2  2  0  0  0  0
  1  6  1  0  0  0  0
  1  7  1  0  0  0  0
  2  3  1  0  0  0  0
  3  4  2  0  0  0  0
  4  5  1  0  0  0  0
  4 20  1  0  0  0  0
  5  6  2  0  0  0  0
  7  8  1  0  0  0  0
  8  9  1  0  0  0  0
  9 10  2  0  0  0  0
  9 13  1  0  0  0  0
 10 11  1  0  0  0  0
 11 12  1  0  0  0  0
 12 13  2  0  0  0  0
 12 18  1  0  0  0  0
 13 14  1  0  0  0  0
 14 15  1  0  0  0  0
 14 16  2  0  0  0  0
 16 17  1  0  0  0  0
 17 18  2  0  0  0  0
 17 19  1  0  0  0  0
 20 21  2  0  0  0  0
 20 22  1  0  0  0  0
M  END
>  <CHROM.1>
131.03098601,-153.53501346,-47.44683238,78.61508789,1.96572198,3.58420530
21.03090470,2.96441444,-0.69785773,1.97691099

>  <Name>
ligand

>  <RI>
0

>  <Rbt.Current_Directory>
/home/itssahil/PROJECTS/Mol_Feturizer/New_Systems/rnas/4LVY

>  <Rbt.Executable>
rbdock ($Id: //depot/dev/client3/rdock/2013.1/src/exe/rbdock.cxx#4 $)

>  <Rbt.Library>
libRbt.so (2013.1, Build901 2013/11/27)

>  <Rbt.Parameter_File>
/export/apps/rDock/src/rDock_2013.1_src/data/scripts/dock_solv.prm

>  <Rbt.Receptor>
prm/pocket_docking_7.prm

>  <SCORE>
-17.6488

>  <SCORE.INTER>
-17.2409

>  <SCORE.INTER.CONST>
1

>  <SCORE.INTER.POLAR>
0

>  <SCORE.INTER.ROT>
4

>  <SCORE.INTER.SOLV>
15.1166

>  <SCORE.INTER.VDW>
-22.7995

>  <SCORE.INTER.norm>
-0.783679

>  <SCORE.INTRA>
-0.40788

>  <SCORE.INTRA.DIHEDRAL>
0.669938

>  <SCORE.INTRA.DIHEDRAL.0>
6.18831

>  <SCORE.INTRA.POLAR>
0

>  <SCORE.INTRA.POLAR.0>
0

>  <SCORE.INTRA.REPUL>
0

>  <SCORE.INTRA.REPUL.0>
0

>  <SCORE.INTRA.SOLV>
0.118126

>  <SCORE.INTRA.SOLV.lig_0>
-44.3465

>  <SCORE.INTRA.VDW>
-0.801912

>  <SCORE.INTRA.VDW.0>
-0.778272

>  <SCORE.INTRA.norm>
-0.01854

>  <SCORE.RESTR>
0

>  <SCORE.RESTR.CAVITY>
0

>  <SCORE.RESTR.norm>
0

>  <SCORE.SYSTEM>
0

>  <SCORE.SYSTEM.CONST>
0

>  <SCORE.SYSTEM.DIHEDRAL>
0

>  <SCORE.SYSTEM.SOLV>
0

>  <SCORE.SYSTEM.norm>
0

>  <SCORE.heavy>
22

>  <SCORE.norm>
-0.802219

>  <RMSD>
7.892

$$$$
ligand
 OpenBabel11021811503D
libRbt.so/2013.1/901 2013/11/27
 22 24  0  0  0  0  0  0  0  0999 V2000
    0.6674    5.5135   20.4153 C   0  0  0  0  0  0  0  0  0  0  0  0
   -0.5894    4.9085   20.6278 C   0  0  0  0  0  0  0  0  0  0  0  0
   -1.2242    5.0647   21.8571 C   0  0  0  0  0  0  0  0  0  0  0  0
   -0.6027    5.8213   22.8658 C   0  0  0  0  0  0  0  0  0  0  0  0
    0.6634    6.4213   22.6570 C   0  0  0  0  0  0  0  0  0  0  0  0
    1.2951    6.2638   21.4309 C   0  0  0  0  0  0  0  0  0  0  0  0
    1.3914    5.3353   19.0668 C   0  0  0  0  0  0  0  0  0  0  0  0
    1.4663    3.8761   18.5523 C   0  0  0  0  0  0  0  0  0  0  0  0
    1.9786    2.8836   19.5896 C   0  0  0  0  0  0  0  0  0  0  0  0
    1.1752    2.2985   20.5730 C   0  0  0  0  0  0  0  0  0  0  0  0
    1.9768    1.4748   21.2976 N   0  0  0  0  0  0  0  0  0  0  0  0
    3.2811    1.4805   20.8451 C   0  0  0  0  0  0  0  0  0  0  0  0
    3.3295    2.3553   19.7653 C   0  0  0  0  0  0  0  0  0  0  0  0
    4.6082    2.5287   19.1117 C   0  0  0  0  0  0  0  0  0  0  0  0
    4.7284    3.3826   18.0188 O   0  0  0  0  0  0  0  0  0  0  0  0
    5.7115    1.8352   19.5911 N   0  0  0  0  0  0  0  0  0  0  0  0
    5.6147    0.9784   20.6490 C   0  0  0  0  0  0  0  0  0  0  0  0
    4.4443    0.7936   21.2796 N   0  0  0  0  0  0  0  0  0  0  0  0
    6.8051    0.2558   21.1087 N   0  0  0  0  0  0  0  0  0  0  0  0
   -1.3091    5.9695   24.1873 C   0  0  0  0  0  0  0  0  0  0  0  0
   -1.0784    6.9403   24.9059 O   0  0  0  0  0  0  0  0  0  0  0  0
   -2.2472    4.9561   24.5912 N   0  0  0  0  0  0  0  0  0  0  0  0
  1  2  2  0  0  0  0
  1  6  1  0  0  0  0
  1  7  1  0  0  0  0
  2  3  1  0  0  0  0
  3  4  2  0  0  0  0
  4  5  1  0  0  0  0
  4 20  1  0  0  0  0
  5  6  2  0  0  0  0
  7  8  1  0  0  0  0
  8  9  1  0  0  0  0
  9 10  2  0  0  0  0
  9 13  1  0  0  0  0
 10 11  1  0  0  0  0
 11 12  1  0  0  0  0
 12 13  2  0  0  0  0
 12 18  1  0  0  0  0
 13 14  1  0  0  0  0
 14 15  1  0  0  0  0
 14 16  2  0  0  0  0
 16 17  1  0  0  0  0
 17 18  2  0  0  0  0
 17 19  1  0  0  0  0
 20 21  2  0  0  0  0
 20 22  1  0  0  0  0
M  END
>  <CHROM.1>
-48.26736745,-154.81073724,-50.03127475,83.01036309,1.95341533,3.68682649
21.04345166,2.96149127,-0.72859345,1.95559303

>  <Name>
ligand

>  <RI>
0

>  <Rbt.Current_Directory>
/home/itssahil/PROJECTS/Mol_Feturizer/New_Systems/rnas/4LVY

>  <Rbt.Executable>
rbdock ($Id: //depot/dev/client3/rdock/2013.1/src/exe/rbdock.cxx#4 $)

>  <Rbt.Library>
libRbt.so (2013.1, Build901 2013/11/27)

>  <Rbt.Parameter_File>
/export/apps/rDock/src/rDock_2013.1_src/data/scripts/dock_solv.prm

>  <Rbt.Receptor>
prm/pocket_docking_4.prm

>  <SCORE>
-17.1488

>  <SCORE.INTER>
-16.6204

>  <SCORE.INTER.CONST>
1

>  <SCORE.INTER.POLAR>
0

>  <SCORE.INTER.ROT>
4

>  <SCORE.INTER.SOLV>
15.2668

>  <SCORE.INTER.VDW>
-22.4359

>  <SCORE.INTER.norm>
-0.755474

>  <SCORE.INTRA>
-0.528329

>  <SCORE.INTRA.DIHEDRAL>
0.52362

>  <SCORE.INTRA.DIHEDRAL.0>
6.18831

>  <SCORE.INTRA.POLAR>
0

>  <SCORE.INTRA.POLAR.0>
0

>  <SCORE.INTRA.REPUL>
0

>  <SCORE.INTRA.REPUL.0>
0

>  <SCORE.INTRA.SOLV>
0.13605

>  <SCORE.INTRA.SOLV.lig_0>
-44.3465

>  <SCORE.INTRA.VDW>
-0.858164

>  <SCORE.INTRA.VDW.0>
-0.778272

>  <SCORE.INTRA.norm>
-0.024015

>  <SCORE.RESTR>
0

>  <SCORE.RESTR.CAVITY>
0

>  <SCORE.RESTR.norm>
0

>  <SCORE.SYSTEM>
0

>  <SCORE.SYSTEM.CONST>
0

>  <SCORE.SYSTEM.DIHEDRAL>
0

>  <SCORE.SYSTEM.SOLV>
0

>  <SCORE.SYSTEM.norm>
0

>  <SCORE.heavy>
22

>  <SCORE.norm>
-0.779489

>  <RMSD>
7.894

$$$$
ligand
 OpenBabel11021811503D
libRbt.so/2013.1/901 2013/11/27
 22 24  0  0  0  0  0  0  0  0999 V2000
    0.6928    5.5139   20.4123 C   0  0  0  0  0  0  0  0  0  0  0  0
    1.2801    6.2902   21.4336 C   0  0  0  0  0  0  0  0  0  0  0  0
    0.6228    6.4251   22.6535 C   0  0  0  0  0  0  0  0  0  0  0  0
   -0.6147    5.7869   22.8473 C   0  0  0  0  0  0  0  0  0  0  0  0
   -1.2100    5.0150   21.8194 C   0  0  0  0  0  0  0  0  0  0  0  0
   -0.5535    4.8823   20.6035 C   0  0  0  0  0  0  0  0  0  0  0  0
    1.3986    5.3693   19.0503 C   0  0  0  0  0  0  0  0  0  0  0  0
    1.5109    3.9171   18.5226 C   0  0  0  0  0  0  0  0  0  0  0  0
    2.0213    2.9235   19.5598 C   0  0  0  0  0  0  0  0  0  0  0  0
    1.2186    2.3462   20.5483 C   0  0  0  0  0  0  0  0  0  0  0  0
    2.0179    1.5187   21.2711 N   0  0  0  0  0  0  0  0  0  0  0  0
    3.3201    1.5144   20.8125 C   0  0  0  0  0  0  0  0  0  0  0  0
    3.3693    2.3864   19.7304 C   0  0  0  0  0  0  0  0  0  0  0  0
    4.6461    2.5495   19.0704 C   0  0  0  0  0  0  0  0  0  0  0  0
    4.7670    3.4000   17.9750 O   0  0  0  0  0  0  0  0  0  0  0  0
    5.7468    1.8495   19.5462 N   0  0  0  0  0  0  0  0  0  0  0  0
    5.6492    0.9959   20.6065 C   0  0  0  0  0  0  0  0  0  0  0  0
    4.4805    0.8205   21.2430 N   0  0  0  0  0  0  0  0  0  0  0  0
    6.8368    0.2662   21.0623 N   0  0  0  0  0  0  0  0  0  0  0  0
   -1.3061    5.9540   24.1744 C   0  0  0  0  0  0  0  0  0  0  0  0
   -1.0898    6.9496   24.8629 O   0  0  0  0  0  0  0  0  0  0  0  0
   -2.2128    4.9293   24.6193 N   0  0  0  0  0  0  0  0  0  0  0  0
  1  2  2  0  0  0  0
  1  6  1  0  0  0  0
  1  7  1  0  0  0  0
  2  3  1  0  0  0  0
  3  4  2  0  0  0  0
  4  5  1  0  0  0  0
  4 20  1  0  0  0  0
  5  6  2  0  0  0  0
  7  8  1  0  0  0  0
  8  9  1  0  0  0  0
  9 10  2  0  0  0  0
  9 13  1  0  0  0  0
 10 11  1  0  0  0  0
 11 12  1  0  0  0  0
 12 13  2  0  0  0  0
 12 18  1  0  0  0  0
 13 14  1  0  0  0  0
 14 15  1  0  0  0  0
 14 16  2  0  0  0  0
 16 17  1  0  0  0  0
 17 18  2  0  0  0  0
 17 19  1  0  0  0  0
 20 21  2  0  0  0  0
 20 22  1  0  0  0  0
M  END
>  <CHROM.1>
131.57168874,25.91543539,-47.78066434,80.86333592,1.97663897,3.69937051,21.01742938
2.96158032,-0.72504445,1.96358601

>  <Name>
ligand

>  <RI>
0

>  <Rbt.Current_Directory>
/home/itssahil/PROJECTS/Mol_Feturizer/New_Systems/rnas/4LVY

>  <Rbt.Executable>
rbdock ($Id: //depot/dev/client3/rdock/2013.1/src/exe/rbdock.cxx#4 $)

>  <Rbt.Library>
libRbt.so (2013.1, Build901 2013/11/27)

>  <Rbt.Parameter_File>
/export/apps/rDock/src/rDock_2013.1_src/data/scripts/dock_solv.prm

>  <Rbt.Receptor>
prm/pocket_docking_4.prm

>  <SCORE>
-17.1018

>  <SCORE.INTER>
-16.657

>  <SCORE.INTER.CONST>
1

>  <SCORE.INTER.POLAR>
0

>  <SCORE.INTER.ROT>
4

>  <SCORE.INTER.SOLV>
15.2033

>  <SCORE.INTER.VDW>
-22.4391

>  <SCORE.INTER.norm>
-0.757137

>  <SCORE.INTRA>
-0.444751

>  <SCORE.INTRA.DIHEDRAL>
0.583089

>  <SCORE.INTRA.DIHEDRAL.0>
6.18831

>  <SCORE.INTRA.POLAR>
0

>  <SCORE.INTRA.POLAR.0>
0

>  <SCORE.INTRA.REPUL>
0

>  <SCORE.INTRA.REPUL.0>
0

>  <SCORE.INTRA.SOLV>
0.123881

>  <SCORE.INTRA.SOLV.lig_0>
-44.3465

>  <SCORE.INTRA.VDW>
-0.798236

>  <SCORE.INTRA.VDW.0>
-0.778272

>  <SCORE.INTRA.norm>
-0.0202159

>  <SCORE.RESTR>
0

>  <SCORE.RESTR.CAVITY>
0

>  <SCORE.RESTR.norm>
0

>  <SCORE.SYSTEM>
0

>  <SCORE.SYSTEM.CONST>
0

>  <SCORE.SYSTEM.DIHEDRAL>
0

>  <SCORE.SYSTEM.SOLV>
0

>  <SCORE.SYSTEM.norm>
0

>  <SCORE.heavy>
22

>  <SCORE.norm>
-0.777353

>  <RMSD>
7.901

$$$$
ligand
 OpenBabel11021811503D
libRbt.so/2013.1/901 2013/11/27
 22 24  0  0  0  0  0  0  0  0999 V2000
    0.6254    5.4185   20.5125 C   0  0  0  0  0  0  0  0  0  0  0  0
    1.1756    6.1685   21.5734 C   0  0  0  0  0  0  0  0  0  0  0  0
    0.4858    6.2544   22.7796 C   0  0  0  0  0  0  0  0  0  0  0  0
   -0.7470    5.5937   22.9206 C   0  0  0  0  0  0  0  0  0  0  0  0
   -1.3051    4.8482   21.8531 C   0  0  0  0  0  0  0  0  0  0  0  0
   -0.6161    4.7643   20.6509 C   0  0  0  0  0  0  0  0  0  0  0  0
    1.3675    5.3283   19.1652 C   0  0  0  0  0  0  0  0  0  0  0  0
    1.5199    3.8952   18.5969 C   0  0  0  0  0  0  0  0  0  0  0  0
    2.0471    2.8849   19.6093 C   0  0  0  0  0  0  0  0  0  0  0  0
    1.2553    2.2733   20.5860 C   0  0  0  0  0  0  0  0  0  0  0  0
    2.0681    1.4405   21.2873 N   0  0  0  0  0  0  0  0  0  0  0  0
    3.3690    1.4654   20.8255 C   0  0  0  0  0  0  0  0  0  0  0  0
    3.4030    2.3630   19.7641 C   0  0  0  0  0  0  0  0  0  0  0  0
    4.6755    2.5595   19.1050 C   0  0  0  0  0  0  0  0  0  0  0  0
    4.7815    3.4371   18.0295 O   0  0  0  0  0  0  0  0  0  0  0  0
    5.7873    1.8643   19.5616 N   0  0  0  0  0  0  0  0  0  0  0  0
    5.7046    0.9848   20.6019 C   0  0  0  0  0  0  0  0  0  0  0  0
    4.5403    0.7781   21.2369 N   0  0  0  0  0  0  0  0  0  0  0  0
    6.9036    0.2615   21.0376 N   0  0  0  0  0  0  0  0  0  0  0  0
   -1.4741    5.7078   24.2342 C   0  0  0  0  0  0  0  0  0  0  0  0
   -2.2385    4.8155   24.5969 O   0  0  0  0  0  0  0  0  0  0  0  0
   -1.2625    6.8765   25.0462 N   0  0  0  0  0  0  0  0  0  0  0  0
  1  2  2  0  0  0  0
  1  6  1  0  0  0  0
  1  7  1  0  0  0  0
  2  3  1  0  0  0  0
  3  4  2  0  0  0  0
  4  5  1  0  0  0  0
  4 20  1  0  0  0  0
  5  6  2  0  0  0  0
  7  8  1  0  0  0  0
  8  9  1  0  0  0  0
  9 10  2  0  0  0  0
  9 13  1  0  0  0  0
 10 11  1  0  0  0  0
 11 12  1  0  0  0  0
 12 13  2  0  0  0  0
 12 18  1  0  0  0  0
 13 14  1  0  0  0  0
 14 15  1  0  0  0  0
 14 16  2  0  0  0  0
 16 17  1  0  0  0  0
 17 18  2  0  0  0  0
 17 19  1  0  0  0  0
 20 21  2  0  0  0  0
 20 22  1  0  0  0  0
M  END
>  <CHROM.1>
131.28684593,-152.85956395,-48.84668119,79.95398308,1.94675237,3.61452135
21.06703719,2.96739688,-0.69991878,1.99463359

>  <Name>
ligand

>  <RI>
0

>  <Rbt.Current_Directory>
/home/itssahil/PROJECTS/Mol_Feturizer/New_Systems/rnas/4LVY

>  <Rbt.Executable>
rbdock ($Id: //depot/dev/client3/rdock/2013.1/src/exe/rbdock.cxx#4 $)

>  <Rbt.Library>
libRbt.so (2013.1, Build901 2013/11/27)

>  <Rbt.Parameter_File>
/export/apps/rDock/src/rDock_2013.1_src/data/scripts/dock_solv.prm

>  <Rbt.Receptor>
prm/pocket_docking_7.prm

>  <SCORE>
-17.61

>  <SCORE.INTER>
-17.1273

>  <SCORE.INTER.CONST>
1

>  <SCORE.INTER.POLAR>
0

>  <SCORE.INTER.ROT>
4

>  <SCORE.INTER.SOLV>
15.1134

>  <SCORE.INTER.VDW>
-22.7227

>  <SCORE.INTER.norm>
-0.778515

>  <SCORE.INTRA>
-0.482634

>  <SCORE.INTRA.DIHEDRAL>
0.539778

>  <SCORE.INTRA.DIHEDRAL.0>
6.18831

>  <SCORE.INTRA.POLAR>
0

>  <SCORE.INTRA.POLAR.0>
0

>  <SCORE.INTRA.REPUL>
0

>  <SCORE.INTRA.REPUL.0>
0

>  <SCORE.INTRA.SOLV>
0.123309

>  <SCORE.INTRA.SOLV.lig_0>
-44.3465

>  <SCORE.INTRA.VDW>
-0.814177

>  <SCORE.INTRA.VDW.0>
-0.778272

>  <SCORE.INTRA.norm>
-0.0219379

>  <SCORE.RESTR>
0

>  <SCORE.RESTR.CAVITY>
0

>  <SCORE.RESTR.norm>
0

>  <SCORE.SYSTEM>
0

>  <SCORE.SYSTEM.CONST>
0

>  <SCORE.SYSTEM.DIHEDRAL>
0

>  <SCORE.SYSTEM.SOLV>
0

>  <SCORE.SYSTEM.norm>
0

>  <SCORE.heavy>
22

>  <SCORE.norm>
-0.800453

>  <RMSD>
7.905

$$$$
ligand
 OpenBabel11021811503D
libRbt.so/2013.1/901 2013/11/27
 22 24  0  0  0  0  0  0  0  0999 V2000
    0.6708    5.5269   20.4036 C   0  0  0  0  0  0  0  0  0  0  0  0
    1.2610    6.3157   21.4135 C   0  0  0  0  0  0  0  0  0  0  0  0
    0.6185    6.4468   22.6417 C   0  0  0  0  0  0  0  0  0  0  0  0
   -0.6072    5.7922   22.8550 C   0  0  0  0  0  0  0  0  0  0  0  0
   -1.2055    5.0076   21.8386 C   0  0  0  0  0  0  0  0  0  0  0  0
   -0.5637    4.8787   20.6144 C   0  0  0  0  0  0  0  0  0  0  0  0
    1.3600    5.3862   19.0327 C   0  0  0  0  0  0  0  0  0  0  0  0
    1.4324    3.9400   18.4821 C   0  0  0  0  0  0  0  0  0  0  0  0
    1.9813    2.9282   19.4814 C   0  0  0  0  0  0  0  0  0  0  0  0
    1.1998    2.2746   20.4390 C   0  0  0  0  0  0  0  0  0  0  0  0
    2.0316    1.4547   21.1332 N   0  0  0  0  0  0  0  0  0  0  0  0
    3.3354    1.5284   20.6850 C   0  0  0  0  0  0  0  0  0  0  0  0
    3.3513    2.4459   19.6402 C   0  0  0  0  0  0  0  0  0  0  0  0
    4.6232    2.6938   18.9974 C   0  0  0  0  0  0  0  0  0  0  0  0
    4.7118    3.5937   17.9390 O   0  0  0  0  0  0  0  0  0  0  0  0
    5.7518    2.0251   19.4525 N   0  0  0  0  0  0  0  0  0  0  0  0
    5.6868    1.1246   20.4759 C   0  0  0  0  0  0  0  0  0  0  0  0
    4.5236    0.8703   21.0955 N   0  0  0  0  0  0  0  0  0  0  0  0
    6.9036    0.4310   20.9105 N   0  0  0  0  0  0  0  0  0  0  0  0
   -1.2828    5.9554   24.1907 C   0  0  0  0  0  0  0  0  0  0  0  0
   -1.0522    6.9451   24.8831 O   0  0  0  0  0  0  0  0  0  0  0  0
   -2.1914    4.9340   24.6391 N   0  0  0  0  0  0  0  0  0  0  0  0
  1  2  2  0  0  0  0
  1  6  1  0  0  0  0
  1  7  1  0  0  0  0
  2  3  1  0  0  0  0
  3  4  2  0  0  0  0
  4  5  1  0  0  0  0
  4 20  1  0  0  0  0
  5  6  2  0  0  0  0
  7  8  1  0  0  0  0
  8  9  1  0  0  0  0
  9 10  2  0  0  0  0
  9 13  1  0  0  0  0
 10 11  1  0  0  0  0
 11 12  1  0  0  0  0
 12 13  2  0  0  0  0
 12 18  1  0  0  0  0
 13 14  1  0  0  0  0
 14 15  1  0  0  0  0
 14 16  2  0  0  0  0
 16 17  1  0  0  0  0
 17 18  2  0  0  0  0
 17 19  1  0  0  0  0
 20 21  2  0  0  0  0
 20 22  1  0  0  0  0
M  END
>  <CHROM.1>
134.02667853,24.57237472,-50.10197913,85.59938770,1.97444055,3.74215717,20.96370552
2.93654321,-0.71957267,1.95491223

>  <Name>
ligand

>  <RI>
0

>  <Rbt.Current_Directory>
/home/itssahil/PROJECTS/Mol_Feturizer/New_Systems/rnas/4LVY

>  <Rbt.Executable>
rbdock ($Id: //depot/dev/client3/rdock/2013.1/src/exe/rbdock.cxx#4 $)

>  <Rbt.Library>
libRbt.so (2013.1, Build901 2013/11/27)

>  <Rbt.Parameter_File>
/export/apps/rDock/src/rDock_2013.1_src/data/scripts/dock_solv.prm

>  <Rbt.Receptor>
prm/pocket_docking_4.prm

>  <SCORE>
-17.1301

>  <SCORE.INTER>
-16.6039

>  <SCORE.INTER.CONST>
1

>  <SCORE.INTER.POLAR>
0

>  <SCORE.INTER.ROT>
4

>  <SCORE.INTER.SOLV>
14.8796

>  <SCORE.INTER.VDW>
-22.2958

>  <SCORE.INTER.norm>
-0.754724

>  <SCORE.INTRA>
-0.526161

>  <SCORE.INTRA.DIHEDRAL>
0.374517

>  <SCORE.INTRA.DIHEDRAL.0>
6.18831

>  <SCORE.INTRA.POLAR>
0

>  <SCORE.INTRA.POLAR.0>
0

>  <SCORE.INTRA.REPUL>
0

>  <SCORE.INTRA.REPUL.0>
0

>  <SCORE.INTRA.SOLV>
0.143437

>  <SCORE.INTRA.SOLV.lig_0>
-44.3465

>  <SCORE.INTRA.VDW>
-0.785138

>  <SCORE.INTRA.VDW.0>
-0.778272

>  <SCORE.INTRA.norm>
-0.0239164

>  <SCORE.RESTR>
0

>  <SCORE.RESTR.CAVITY>
0

>  <SCORE.RESTR.norm>
0

>  <SCORE.SYSTEM>
0

>  <SCORE.SYSTEM.CONST>
0

>  <SCORE.SYSTEM.DIHEDRAL>
0

>  <SCORE.SYSTEM.SOLV>
0

>  <SCORE.SYSTEM.norm>
0

>  <SCORE.heavy>
22

>  <SCORE.norm>
-0.778641

>  <RMSD>
7.907

$$$$
ligand
 OpenBabel11021811503D
libRbt.so/2013.1/901 2013/11/27
 22 24  0  0  0  0  0  0  0  0999 V2000
    0.5900    5.4008   20.4525 C   0  0  0  0  0  0  0  0  0  0  0  0
    1.1506    6.1628   21.4992 C   0  0  0  0  0  0  0  0  0  0  0  0
    0.4783    6.2531   22.7151 C   0  0  0  0  0  0  0  0  0  0  0  0
   -0.7474    5.5848   22.8796 C   0  0  0  0  0  0  0  0  0  0  0  0
   -1.3161    4.8271   21.8263 C   0  0  0  0  0  0  0  0  0  0  0  0
   -0.6446    4.7388   20.6145 C   0  0  0  0  0  0  0  0  0  0  0  0
    1.3125    5.3054   19.0949 C   0  0  0  0  0  0  0  0  0  0  0  0
    1.4805    3.8678   18.5428 C   0  0  0  0  0  0  0  0  0  0  0  0
    2.0264    2.8765   19.5641 C   0  0  0  0  0  0  0  0  0  0  0  0
    1.2510    2.2774   20.5614 C   0  0  0  0  0  0  0  0  0  0  0  0
    2.0773    1.4599   21.2648 N   0  0  0  0  0  0  0  0  0  0  0  0
    3.3716    1.4831   20.7848 C   0  0  0  0  0  0  0  0  0  0  0  0
    3.3867    2.3634   19.7085 C   0  0  0  0  0  0  0  0  0  0  0  0
    4.6491    2.5548   19.0287 C   0  0  0  0  0  0  0  0  0  0  0  0
    4.7361    3.4152   17.9377 O   0  0  0  0  0  0  0  0  0  0  0  0
    5.7704    1.8721   19.4811 N   0  0  0  0  0  0  0  0  0  0  0  0
    5.7062    1.0093   20.5367 C   0  0  0  0  0  0  0  0  0  0  0  0
    4.5517    0.8078   21.1910 N   0  0  0  0  0  0  0  0  0  0  0  0
    6.9144    0.2987   20.9674 N   0  0  0  0  0  0  0  0  0  0  0  0
   -1.4557    5.7038   24.2030 C   0  0  0  0  0  0  0  0  0  0  0  0
   -2.2173    4.8144   24.5785 O   0  0  0  0  0  0  0  0  0  0  0  0
   -1.2294    6.8737   25.0093 N   0  0  0  0  0  0  0  0  0  0  0  0
  1  2  2  0  0  0  0
  1  6  1  0  0  0  0
  1  7  1  0  0  0  0
  2  3  1  0  0  0  0
  3  4  2  0  0  0  0
  4  5  1  0  0  0  0
  4 20  1  0  0  0  0
  5  6  2  0  0  0  0
  7  8  1  0  0  0  0
  8  9  1  0  0  0  0
  9 10  2  0  0  0  0
  9 13  1  0  0  0  0
 10 11  1  0  0  0  0
 11 12  1  0  0  0  0
 12 13  2  0  0  0  0
 12 18  1  0  0  0  0
 13 14  1  0  0  0  0
 14 15  1  0  0  0  0
 14 16  2  0  0  0  0
 16 17  1  0  0  0  0
 17 18  2  0  0  0  0
 17 19  1  0  0  0  0
 20 21  2  0  0  0  0
 20 22  1  0  0  0  0
M  END
>  <CHROM.1>
130.64293031,-153.50840265,-48.21813505,79.22839374,1.93669251,3.61310472
21.01533227,2.94443530,-0.69601979,1.96637709

>  <Name>
ligand

>  <RI>
0

>  <Rbt.Current_Directory>
/home/itssahil/PROJECTS/Mol_Feturizer/New_Systems/rnas/4LVY

>  <Rbt.Executable>
rbdock ($Id: //depot/dev/client3/rdock/2013.1/src/exe/rbdock.cxx#4 $)

>  <Rbt.Library>
libRbt.so (2013.1, Build901 2013/11/27)

>  <Rbt.Parameter_File>
/export/apps/rDock/src/rDock_2013.1_src/data/scripts/dock_solv.prm

>  <Rbt.Receptor>
prm/pocket_docking_5.prm

>  <SCORE>
-17.6099

>  <SCORE.INTER>
-17.1592

>  <SCORE.INTER.CONST>
1

>  <SCORE.INTER.POLAR>
0

>  <SCORE.INTER.ROT>
4

>  <SCORE.INTER.SOLV>
15.257

>  <SCORE.INTER.VDW>
-22.7918

>  <SCORE.INTER.norm>
-0.779964

>  <SCORE.INTRA>
-0.450691

>  <SCORE.INTRA.DIHEDRAL>
0.598229

>  <SCORE.INTRA.DIHEDRAL.0>
6.18831

>  <SCORE.INTRA.POLAR>
0

>  <SCORE.INTRA.POLAR.0>
0

>  <SCORE.INTRA.REPUL>
0

>  <SCORE.INTRA.REPUL.0>
0

>  <SCORE.INTRA.SOLV>
0.120563

>  <SCORE.INTRA.SOLV.lig_0>
-44.3465

>  <SCORE.INTRA.VDW>
-0.810087

>  <SCORE.INTRA.VDW.0>
-0.778272

>  <SCORE.INTRA.norm>
-0.020486

>  <SCORE.RESTR>
0

>  <SCORE.RESTR.CAVITY>
0

>  <SCORE.RESTR.norm>
0

>  <SCORE.SYSTEM>
0

>  <SCORE.SYSTEM.CONST>
0

>  <SCORE.SYSTEM.DIHEDRAL>
0

>  <SCORE.SYSTEM.SOLV>
0

>  <SCORE.SYSTEM.norm>
0

>  <SCORE.heavy>
22

>  <SCORE.norm>
-0.80045

>  <RMSD>
7.908

$$$$
ligand
 OpenBabel11021811503D
libRbt.so/2013.1/901 2013/11/27
 22 24  0  0  0  0  0  0  0  0999 V2000
    0.6932    5.4764   20.4168 C   0  0  0  0  0  0  0  0  0  0  0  0
    1.2981    6.2515   21.4287 C   0  0  0  0  0  0  0  0  0  0  0  0
    0.6498    6.4063   22.6510 C   0  0  0  0  0  0  0  0  0  0  0  0
   -0.5963    5.7889   22.8567 C   0  0  0  0  0  0  0  0  0  0  0  0
   -1.2092    5.0181   21.8383 C   0  0  0  0  0  0  0  0  0  0  0  0
   -0.5615    4.8656   20.6199 C   0  0  0  0  0  0  0  0  0  0  0  0
    1.3891    5.3101   19.0522 C   0  0  0  0  0  0  0  0  0  0  0  0
    1.4742    3.8525   18.5345 C   0  0  0  0  0  0  0  0  0  0  0  0
    2.0172    2.8657   19.5616 C   0  0  0  0  0  0  0  0  0  0  0  0
    1.2385    2.2687   20.5577 C   0  0  0  0  0  0  0  0  0  0  0  0
    2.0631    1.4549   21.2674 N   0  0  0  0  0  0  0  0  0  0  0  0
    3.3594    1.4786   20.7929 C   0  0  0  0  0  0  0  0  0  0  0  0
    3.3778    2.3552   19.7137 C   0  0  0  0  0  0  0  0  0  0  0  0
    4.6428    2.5463   19.0387 C   0  0  0  0  0  0  0  0  0  0  0  0
    4.7331    3.4031   17.9452 O   0  0  0  0  0  0  0  0  0  0  0  0
    5.7631    1.8670   19.4984 N   0  0  0  0  0  0  0  0  0  0  0  0
    5.6958    1.0078   20.5566 C   0  0  0  0  0  0  0  0  0  0  0  0
    4.5387    0.8067   21.2066 N   0  0  0  0  0  0  0  0  0  0  0  0
    6.9033    0.3006   20.9950 N   0  0  0  0  0  0  0  0  0  0  0  0
   -1.2777    5.9771   24.1862 C   0  0  0  0  0  0  0  0  0  0  0  0
   -0.9830    6.9327   24.9018 O   0  0  0  0  0  0  0  0  0  0  0  0
   -2.2679    5.0194   24.6011 N   0  0  0  0  0  0  0  0  0  0  0  0
  1  2  2  0  0  0  0
  1  6  1  0  0  0  0
  1  7  1  0  0  0  0
  2  3  1  0  0  0  0
  3  4  2  0  0  0  0
  4  5  1  0  0  0  0
  4 20  1  0  0  0  0
  5  6  2  0  0  0  0
  7  8  1  0  0  0  0
  8  9  1  0  0  0  0
  9 10  2  0  0  0  0
  9 13  1  0  0  0  0
 10 11  1  0  0  0  0
 11 12  1  0  0  0  0
 12 13  2  0  0  0  0
 12 18  1  0  0  0  0
 13 14  1  0  0  0  0
 14 15  1  0  0  0  0
 14 16  2  0  0  0  0
 16 17  1  0  0  0  0
 17 18  2  0  0  0  0
 17 19  1  0  0  0  0
 20 21  2  0  0  0  0
 20 22  1  0  0  0  0
M  END
>  <CHROM.1>
131.66295640,21.54142520,-49.70293322,83.03240124,1.99290832,3.68404888,21.00789720
2.93604888,-0.72224425,1.93120556

>  <Name>
ligand

>  <RI>
0

>  <Rbt.Current_Directory>
/home/itssahil/PROJECTS/Mol_Feturizer/New_Systems/rnas/4LVY

>  <Rbt.Executable>
rbdock ($Id: //depot/dev/client3/rdock/2013.1/src/exe/rbdock.cxx#4 $)

>  <Rbt.Library>
libRbt.so (2013.1, Build901 2013/11/27)

>  <Rbt.Parameter_File>
/export/apps/rDock/src/rDock_2013.1_src/data/scripts/dock_solv.prm

>  <Rbt.Receptor>
prm/pocket_docking_4.prm

>  <SCORE>
-17.1625

>  <SCORE.INTER>
-16.6472

>  <SCORE.INTER.CONST>
1

>  <SCORE.INTER.POLAR>
0

>  <SCORE.INTER.ROT>
4

>  <SCORE.INTER.SOLV>
15.0436

>  <SCORE.INTER.VDW>
-22.3793

>  <SCORE.INTER.norm>
-0.756691

>  <SCORE.INTRA>
-0.515247

>  <SCORE.INTRA.DIHEDRAL>
0.414772

>  <SCORE.INTRA.DIHEDRAL.0>
6.18831

>  <SCORE.INTRA.POLAR>
0

>  <SCORE.INTRA.POLAR.0>
0

>  <SCORE.INTRA.REPUL>
0

>  <SCORE.INTRA.REPUL.0>
0

>  <SCORE.INTRA.SOLV>
0.133594

>  <SCORE.INTRA.SOLV.lig_0>
-44.3465

>  <SCORE.INTRA.VDW>
-0.78943

>  <SCORE.INTRA.VDW.0>
-0.778272

>  <SCORE.INTRA.norm>
-0.0234203

>  <SCORE.RESTR>
0

>  <SCORE.RESTR.CAVITY>
0

>  <SCORE.RESTR.norm>
0

>  <SCORE.SYSTEM>
0

>  <SCORE.SYSTEM.CONST>
0

>  <SCORE.SYSTEM.DIHEDRAL>
0

>  <SCORE.SYSTEM.SOLV>
0

>  <SCORE.SYSTEM.norm>
0

>  <SCORE.heavy>
22

>  <SCORE.norm>
-0.780112

>  <RMSD>
7.911

$$$$
ligand
 OpenBabel11021811503D
libRbt.so/2013.1/901 2013/11/27
 22 24  0  0  0  0  0  0  0  0999 V2000
    0.6317    5.5251   20.4439 C   0  0  0  0  0  0  0  0  0  0  0  0
    1.2238    6.3150   21.4519 C   0  0  0  0  0  0  0  0  0  0  0  0
    0.5771    6.4583   22.6765 C   0  0  0  0  0  0  0  0  0  0  0  0
   -0.6547    5.8147   22.8883 C   0  0  0  0  0  0  0  0  0  0  0  0
   -1.2549    5.0290   21.8738 C   0  0  0  0  0  0  0  0  0  0  0  0
   -0.6089    4.8880   20.6531 C   0  0  0  0  0  0  0  0  0  0  0  0
    1.3256    5.3710   19.0769 C   0  0  0  0  0  0  0  0  0  0  0  0
    1.3925    3.9205   18.5369 C   0  0  0  0  0  0  0  0  0  0  0  0
    1.9375    2.9140   19.5436 C   0  0  0  0  0  0  0  0  0  0  0  0
    1.1554    2.2780   20.5125 C   0  0  0  0  0  0  0  0  0  0  0  0
    1.9833    1.4574   21.2105 N   0  0  0  0  0  0  0  0  0  0  0  0
    3.2851    1.5137   20.7539 C   0  0  0  0  0  0  0  0  0  0  0  0
    3.3037    2.4200   19.6995 C   0  0  0  0  0  0  0  0  0  0  0  0
    4.5741    2.6488   19.0468 C   0  0  0  0  0  0  0  0  0  0  0  0
    4.6652    3.5368   17.9785 O   0  0  0  0  0  0  0  0  0  0  0  0
    5.6989    1.9740   19.5024 N   0  0  0  0  0  0  0  0  0  0  0  0
    5.6313    1.0849   20.5356 C   0  0  0  0  0  0  0  0  0  0  0  0
    4.4693    0.8485   21.1645 N   0  0  0  0  0  0  0  0  0  0  0  0
    6.8439    0.3841   20.9703 N   0  0  0  0  0  0  0  0  0  0  0  0
   -1.3348    5.9910   24.2200 C   0  0  0  0  0  0  0  0  0  0  0  0
   -1.0735    6.9654   24.9232 O   0  0  0  0  0  0  0  0  0  0  0  0
   -2.2840    4.9999   24.6520 N   0  0  0  0  0  0  0  0  0  0  0  0
  1  2  2  0  0  0  0
  1  6  1  0  0  0  0
  1  7  1  0  0  0  0
  2  3  1  0  0  0  0
  3  4  2  0  0  0  0
  4  5  1  0  0  0  0
  4 20  1  0  0  0  0
  5  6  2  0  0  0  0
  7  8  1  0  0  0  0
  8  9  1  0  0  0  0
  9 10  2  0  0  0  0
  9 13  1  0  0  0  0
 10 11  1  0  0  0  0
 11 12  1  0  0  0  0
 12 13  2  0  0  0  0
 12 18  1  0  0  0  0
 13 14  1  0  0  0  0
 14 15  1  0  0  0  0
 14 16  2  0  0  0  0
 16 17  1  0  0  0  0
 17 18  2  0  0  0  0
 17 19  1  0  0  0  0
 20 21  2  0  0  0  0
 20 22  1  0  0  0  0
M  END
>  <CHROM.1>
133.85740872,22.70234711,-50.34662910,85.08895042,1.92665489,3.73431475,21.01230536
2.94055368,-0.72372996,1.95075213

>  <Name>
ligand

>  <RI>
0

>  <Rbt.Current_Directory>
/home/itssahil/PROJECTS/Mol_Feturizer/New_Systems/rnas/4LVY

>  <Rbt.Executable>
rbdock ($Id: //depot/dev/client3/rdock/2013.1/src/exe/rbdock.cxx#4 $)

>  <Rbt.Library>
libRbt.so (2013.1, Build901 2013/11/27)

>  <Rbt.Parameter_File>
/export/apps/rDock/src/rDock_2013.1_src/data/scripts/dock_solv.prm

>  <Rbt.Receptor>
prm/pocket_docking_4.prm

>  <SCORE>
-17.1172

>  <SCORE.INTER>
-16.5914

>  <SCORE.INTER.CONST>
1

>  <SCORE.INTER.POLAR>
0

>  <SCORE.INTER.ROT>
4

>  <SCORE.INTER.SOLV>
15.1891

>  <SCORE.INTER.VDW>
-22.3906

>  <SCORE.INTER.norm>
-0.754153

>  <SCORE.INTRA>
-0.525841

>  <SCORE.INTRA.DIHEDRAL>
0.356498

>  <SCORE.INTRA.DIHEDRAL.0>
6.18831

>  <SCORE.INTRA.POLAR>
0

>  <SCORE.INTRA.POLAR.0>
0

>  <SCORE.INTRA.REPUL>
0

>  <SCORE.INTRA.REPUL.0>
0

>  <SCORE.INTRA.SOLV>
0.14175

>  <SCORE.INTRA.SOLV.lig_0>
-44.3465

>  <SCORE.INTRA.VDW>
-0.774965

>  <SCORE.INTRA.VDW.0>
-0.778272

>  <SCORE.INTRA.norm>
-0.0239018

>  <SCORE.RESTR>
0

>  <SCORE.RESTR.CAVITY>
0

>  <SCORE.RESTR.norm>
0

>  <SCORE.SYSTEM>
0

>  <SCORE.SYSTEM.CONST>
0

>  <SCORE.SYSTEM.DIHEDRAL>
0

>  <SCORE.SYSTEM.SOLV>
0

>  <SCORE.SYSTEM.norm>
0

>  <SCORE.heavy>
22

>  <SCORE.norm>
-0.778055

>  <RMSD>
7.917

$$$$
ligand
 OpenBabel11021811503D
libRbt.so/2013.1/901 2013/11/27
 22 24  0  0  0  0  0  0  0  0999 V2000
    0.6203    5.4251   20.4874 C   0  0  0  0  0  0  0  0  0  0  0  0
    1.1592    6.2076   21.5304 C   0  0  0  0  0  0  0  0  0  0  0  0
    0.4725    6.3042   22.7376 C   0  0  0  0  0  0  0  0  0  0  0  0
   -0.7461    5.6218   22.8973 C   0  0  0  0  0  0  0  0  0  0  0  0
   -1.2931    4.8434   21.8476 C   0  0  0  0  0  0  0  0  0  0  0  0
   -0.6072    4.7488   20.6444 C   0  0  0  0  0  0  0  0  0  0  0  0
    1.3588    5.3222   19.1390 C   0  0  0  0  0  0  0  0  0  0  0  0
    1.5023    3.8847   18.5796 C   0  0  0  0  0  0  0  0  0  0  0  0
    2.0517    2.8837   19.5895 C   0  0  0  0  0  0  0  0  0  0  0  0
    1.2810    2.2795   20.5874 C   0  0  0  0  0  0  0  0  0  0  0  0
    2.1093    1.4537   21.2788 N   0  0  0  0  0  0  0  0  0  0  0  0
    3.4003    1.4762   20.7901 C   0  0  0  0  0  0  0  0  0  0  0  0
    3.4112    2.3648   19.7206 C   0  0  0  0  0  0  0  0  0  0  0  0
    4.6696    2.5573   19.0338 C   0  0  0  0  0  0  0  0  0  0  0  0
    4.7522    3.4258   17.9490 O   0  0  0  0  0  0  0  0  0  0  0  0
    5.7915    1.8673   19.4733 N   0  0  0  0  0  0  0  0  0  0  0  0
    5.7315    0.9965   20.5225 C   0  0  0  0  0  0  0  0  0  0  0  0
    4.5808    0.7938   21.1831 N   0  0  0  0  0  0  0  0  0  0  0  0
    6.9402    0.2784   20.9394 N   0  0  0  0  0  0  0  0  0  0  0  0
   -1.4703    5.7480   24.2114 C   0  0  0  0  0  0  0  0  0  0  0  0
   -2.2296    4.8565   24.5867 O   0  0  0  0  0  0  0  0  0  0  0  0
   -1.2621    6.9272   25.0089 N   0  0  0  0  0  0  0  0  0  0  0  0
  1  2  2  0  0  0  0
  1  6  1  0  0  0  0
  1  7  1  0  0  0  0
  2  3  1  0  0  0  0
  3  4  2  0  0  0  0
  4  5  1  0  0  0  0
  4 20  1  0  0  0  0
  5  6  2  0  0  0  0
  7  8  1  0  0  0  0
  8  9  1  0  0  0  0
  9 10  2  0  0  0  0
  9 13  1  0  0  0  0
 10 11  1  0  0  0  0
 11 12  1  0  0  0  0
 12 13  2  0  0  0  0
 12 18  1  0  0  0  0
 13 14  1  0  0  0  0
 14 15  1  0  0  0  0
 14 16  2  0  0  0  0
 16 17  1  0  0  0  0
 17 18  2  0  0  0  0
 17 19  1  0  0  0  0
 20 21  2  0  0  0  0
 20 22  1  0  0  0  0
M  END
>  <CHROM.1>
132.96152222,-153.88157281,-49.95658444,79.91668616,1.95377043,3.62739658
21.02837602,2.96120140,-0.70272424,1.98924824

>  <Name>
ligand

>  <RI>
0

>  <Rbt.Current_Directory>
/home/itssahil/PROJECTS/Mol_Feturizer/New_Systems/rnas/4LVY

>  <Rbt.Executable>
rbdock ($Id: //depot/dev/client3/rdock/2013.1/src/exe/rbdock.cxx#4 $)

>  <Rbt.Library>
libRbt.so (2013.1, Build901 2013/11/27)

>  <Rbt.Parameter_File>
/export/apps/rDock/src/rDock_2013.1_src/data/scripts/dock_solv.prm

>  <Rbt.Receptor>
prm/pocket_docking_4.prm

>  <SCORE>
-17.6361

>  <SCORE.INTER>
-17.1352

>  <SCORE.INTER.CONST>
1

>  <SCORE.INTER.POLAR>
0

>  <SCORE.INTER.ROT>
4

>  <SCORE.INTER.SOLV>
15.2719

>  <SCORE.INTER.VDW>
-22.7807

>  <SCORE.INTER.norm>
-0.778871

>  <SCORE.INTRA>
-0.500883

>  <SCORE.INTRA.DIHEDRAL>
0.440325

>  <SCORE.INTRA.DIHEDRAL.0>
6.18831

>  <SCORE.INTRA.POLAR>
0

>  <SCORE.INTRA.POLAR.0>
0

>  <SCORE.INTRA.REPUL>
0

>  <SCORE.INTRA.REPUL.0>
0

>  <SCORE.INTRA.SOLV>
0.123404

>  <SCORE.INTRA.SOLV.lig_0>
-44.3465

>  <SCORE.INTRA.VDW>
-0.782748

>  <SCORE.INTRA.VDW.0>
-0.778272

>  <SCORE.INTRA.norm>
-0.0227674

>  <SCORE.RESTR>
0

>  <SCORE.RESTR.CAVITY>
0

>  <SCORE.RESTR.norm>
0

>  <SCORE.SYSTEM>
0

>  <SCORE.SYSTEM.CONST>
0

>  <SCORE.SYSTEM.DIHEDRAL>
0

>  <SCORE.SYSTEM.SOLV>
0

>  <SCORE.SYSTEM.norm>
0

>  <SCORE.heavy>
22

>  <SCORE.norm>
-0.801639

>  <RMSD>
7.926

$$$$
ligand
 OpenBabel11021811503D
libRbt.so/2013.1/901 2013/11/27
 22 24  0  0  0  0  0  0  0  0999 V2000
    0.7015    5.5421   20.4358 C   0  0  0  0  0  0  0  0  0  0  0  0
    1.2161    6.4205   21.4127 C   0  0  0  0  0  0  0  0  0  0  0  0
    0.5557    6.5499   22.6315 C   0  0  0  0  0  0  0  0  0  0  0  0
   -0.6124    5.8046   22.8685 C   0  0  0  0  0  0  0  0  0  0  0  0
   -1.1354    4.9294   21.8849 C   0  0  0  0  0  0  0  0  0  0  0  0
   -0.4759    4.8023   20.6699 C   0  0  0  0  0  0  0  0  0  0  0  0
    1.4104    5.4009   19.0750 C   0  0  0  0  0  0  0  0  0  0  0  0
    1.4790    3.9562   18.5199 C   0  0  0  0  0  0  0  0  0  0  0  0
    2.0436    2.9433   19.5092 C   0  0  0  0  0  0  0  0  0  0  0  0
    1.2778    2.2902   20.4797 C   0  0  0  0  0  0  0  0  0  0  0  0
    2.1203    1.4690   21.1593 N   0  0  0  0  0  0  0  0  0  0  0  0
    3.4163    1.5413   20.6889 C   0  0  0  0  0  0  0  0  0  0  0  0
    3.4156    2.4592   19.6444 C   0  0  0  0  0  0  0  0  0  0  0  0
    4.6766    2.7058   18.9802 C   0  0  0  0  0  0  0  0  0  0  0  0
    4.7482    3.6062   17.9207 O   0  0  0  0  0  0  0  0  0  0  0  0
    5.8120    2.0356   19.4156 N   0  0  0  0  0  0  0  0  0  0  0  0
    5.7634    1.1347   20.4396 C   0  0  0  0  0  0  0  0  0  0  0  0
    4.6105    0.8816   21.0789 N   0  0  0  0  0  0  0  0  0  0  0  0
    6.9866    0.4394   20.8530 N   0  0  0  0  0  0  0  0  0  0  0  0
   -1.3094    5.9679   24.1932 C   0  0  0  0  0  0  0  0  0  0  0  0
   -1.0748    6.9476   24.8982 O   0  0  0  0  0  0  0  0  0  0  0  0
   -2.2429    4.9581   24.6162 N   0  0  0  0  0  0  0  0  0  0  0  0
  1  2  2  0  0  0  0
  1  6  1  0  0  0  0
  1  7  1  0  0  0  0
  2  3  1  0  0  0  0
  3  4  2  0  0  0  0
  4  5  1  0  0  0  0
  4 20  1  0  0  0  0
  5  6  2  0  0  0  0
  7  8  1  0  0  0  0
  8  9  1  0  0  0  0
  9 10  2  0  0  0  0
  9 13  1  0  0  0  0
 10 11  1  0  0  0  0
 11 12  1  0  0  0  0
 12 13  2  0  0  0  0
 12 18  1  0  0  0  0
 13 14  1  0  0  0  0
 14 15  1  0  0  0  0
 14 16  2  0  0  0  0
 16 17  1  0  0  0  0
 17 18  2  0  0  0  0
 17 19  1  0  0  0  0
 20 21  2  0  0  0  0
 20 22  1  0  0  0  0
M  END
>  <CHROM.1>
139.99868753,18.03627474,-51.85266899,85.27360271,2.01253047,3.75510986,20.96898385
2.95873268,-0.72055579,1.99085016

>  <Name>
ligand

>  <RI>
0

>  <Rbt.Current_Directory>
/home/itssahil/PROJECTS/Mol_Feturizer/New_Systems/rnas/4LVY

>  <Rbt.Executable>
rbdock ($Id: //depot/dev/client3/rdock/2013.1/src/exe/rbdock.cxx#4 $)

>  <Rbt.Library>
libRbt.so (2013.1, Build901 2013/11/27)

>  <Rbt.Parameter_File>
/export/apps/rDock/src/rDock_2013.1_src/data/scripts/dock_solv.prm

>  <Rbt.Receptor>
prm/pocket_docking_6.prm

>  <SCORE>
-17.1271

>  <SCORE.INTER>
-16.6754

>  <SCORE.INTER.CONST>
1

>  <SCORE.INTER.POLAR>
0

>  <SCORE.INTER.ROT>
4

>  <SCORE.INTER.SOLV>
14.6422

>  <SCORE.INTER.VDW>
-22.2643

>  <SCORE.INTER.norm>
-0.757973

>  <SCORE.INTRA>
-0.451708

>  <SCORE.INTRA.DIHEDRAL>
0.235236

>  <SCORE.INTRA.DIHEDRAL.0>
6.18831

>  <SCORE.INTRA.POLAR>
0

>  <SCORE.INTRA.POLAR.0>
0

>  <SCORE.INTRA.REPUL>
0

>  <SCORE.INTRA.REPUL.0>
0

>  <SCORE.INTRA.SOLV>
0.143442

>  <SCORE.INTRA.SOLV.lig_0>
-44.3465

>  <SCORE.INTRA.VDW>
-0.641047

>  <SCORE.INTRA.VDW.0>
-0.778272

>  <SCORE.INTRA.norm>
-0.0205322

>  <SCORE.RESTR>
0

>  <SCORE.RESTR.CAVITY>
0

>  <SCORE.RESTR.norm>
0

>  <SCORE.SYSTEM>
0

>  <SCORE.SYSTEM.CONST>
0

>  <SCORE.SYSTEM.DIHEDRAL>
0

>  <SCORE.SYSTEM.SOLV>
0

>  <SCORE.SYSTEM.norm>
0

>  <SCORE.heavy>
22

>  <SCORE.norm>
-0.778505

>  <RMSD>
7.933

$$$$
ligand
 OpenBabel11021811503D
libRbt.so/2013.1/901 2013/11/27
 22 24  0  0  0  0  0  0  0  0999 V2000
    0.3329    4.6069   20.2976 C   0  0  0  0  0  0  0  0  0  0  0  0
    0.4675    5.9281   20.7740 C   0  0  0  0  0  0  0  0  0  0  0  0
   -0.0764    6.2680   22.0097 C   0  0  0  0  0  0  0  0  0  0  0  0
   -0.7510    5.2904   22.7616 C   0  0  0  0  0  0  0  0  0  0  0  0
   -0.8951    3.9658   22.2802 C   0  0  0  0  0  0  0  0  0  0  0  0
   -0.3527    3.6290   21.0475 C   0  0  0  0  0  0  0  0  0  0  0  0
    0.9135    4.2189   18.9241 C   0  0  0  0  0  0  0  0  0  0  0  0
    2.4373    3.9402   18.9130 C   0  0  0  0  0  0  0  0  0  0  0  0
    2.8585    2.7879   19.8177 C   0  0  0  0  0  0  0  0  0  0  0  0
    1.9731    2.0633   20.6214 C   0  0  0  0  0  0  0  0  0  0  0  0
    2.7094    1.1240   21.2706 N   0  0  0  0  0  0  0  0  0  0  0  0
    4.0482    1.1853   20.9391 C   0  0  0  0  0  0  0  0  0  0  0  0
    4.1895    2.2210   20.0221 C   0  0  0  0  0  0  0  0  0  0  0  0
    5.5201    2.4803   19.5175 C   0  0  0  0  0  0  0  0  0  0  0  0
    5.7341    3.4966   18.5905 O   0  0  0  0  0  0  0  0  0  0  0  0
    6.5782    1.7049   19.9726 N   0  0  0  0  0  0  0  0  0  0  0  0
    6.3906    0.6911   20.8668 C   0  0  0  0  0  0  0  0  0  0  0  0
    5.1699    0.4228   21.3562 N   0  0  0  0  0  0  0  0  0  0  0  0
    7.5372   -0.1110   21.3054 N   0  0  0  0  0  0  0  0  0  0  0  0
   -1.3341    5.6867   24.0921 C   0  0  0  0  0  0  0  0  0  0  0  0
   -2.2073    4.9963   24.6144 O   0  0  0  0  0  0  0  0  0  0  0  0
   -0.8566    6.8842   24.7309 N   0  0  0  0  0  0  0  0  0  0  0  0
  1  2  2  0  0  0  0
  1  6  1  0  0  0  0
  1  7  1  0  0  0  0
  2  3  1  0  0  0  0
  3  4  2  0  0  0  0
  4  5  1  0  0  0  0
  4 20  1  0  0  0  0
  5  6  2  0  0  0  0
  7  8  1  0  0  0  0
  8  9  1  0  0  0  0
  9 10  2  0  0  0  0
  9 13  1  0  0  0  0
 10 11  1  0  0  0  0
 11 12  1  0  0  0  0
 12 13  2  0  0  0  0
 12 18  1  0  0  0  0
 13 14  1  0  0  0  0
 14 15  1  0  0  0  0
 14 16  2  0  0  0  0
 16 17  1  0  0  0  0
 17 18  2  0  0  0  0
 17 19  1  0  0  0  0
 20 21  2  0  0  0  0
 20 22  1  0  0  0  0
M  END
>  <CHROM.1>
80.13190686,161.09142663,60.76657915,-1.82683895,2.33449571,3.32916745,21.12717229
3.03930795,-0.62568282,1.99252964

>  <Name>
ligand

>  <RI>
0

>  <Rbt.Current_Directory>
/home/itssahil/PROJECTS/Mol_Feturizer/New_Systems/rnas/4LVY

>  <Rbt.Executable>
rbdock ($Id: //depot/dev/client3/rdock/2013.1/src/exe/rbdock.cxx#4 $)

>  <Rbt.Library>
libRbt.so (2013.1, Build901 2013/11/27)

>  <Rbt.Parameter_File>
/export/apps/rDock/src/rDock_2013.1_src/data/scripts/dock_solv.prm

>  <Rbt.Receptor>
prm/pocket_docking_5.prm

>  <SCORE>
-16.8232

>  <SCORE.INTER>
-17.0085

>  <SCORE.INTER.CONST>
1

>  <SCORE.INTER.POLAR>
0

>  <SCORE.INTER.ROT>
4

>  <SCORE.INTER.SOLV>
12.3979

>  <SCORE.INTER.VDW>
-21.7383

>  <SCORE.INTER.norm>
-0.773112

>  <SCORE.INTRA>
0.18524

>  <SCORE.INTRA.DIHEDRAL>
0.0711354

>  <SCORE.INTRA.DIHEDRAL.0>
6.18831

>  <SCORE.INTRA.POLAR>
0

>  <SCORE.INTRA.POLAR.0>
0

>  <SCORE.INTRA.REPUL>
0

>  <SCORE.INTRA.REPUL.0>
0

>  <SCORE.INTRA.SOLV>
0.00849207

>  <SCORE.INTRA.SOLV.lig_0>
-44.3465

>  <SCORE.INTRA.VDW>
0.145426

>  <SCORE.INTRA.VDW.0>
-0.778272

>  <SCORE.INTRA.norm>
0.00842

>  <SCORE.RESTR>
0

>  <SCORE.RESTR.CAVITY>
0

>  <SCORE.RESTR.norm>
0

>  <SCORE.SYSTEM>
0

>  <SCORE.SYSTEM.CONST>
0

>  <SCORE.SYSTEM.DIHEDRAL>
0

>  <SCORE.SYSTEM.SOLV>
0

>  <SCORE.SYSTEM.norm>
0

>  <SCORE.heavy>
22

>  <SCORE.norm>
-0.764692

>  <RMSD>
7.963

$$$$
ligand
 OpenBabel11021811503D
libRbt.so/2013.1/901 2013/11/27
 22 24  0  0  0  0  0  0  0  0999 V2000
    0.3054    4.6655   20.3208 C   0  0  0  0  0  0  0  0  0  0  0  0
   -0.2518    3.7231   21.2107 C   0  0  0  0  0  0  0  0  0  0  0  0
   -0.7344    4.1502   22.4448 C   0  0  0  0  0  0  0  0  0  0  0  0
   -0.6579    5.5122   22.7842 C   0  0  0  0  0  0  0  0  0  0  0  0
   -0.0901    6.4581   21.8955 C   0  0  0  0  0  0  0  0  0  0  0  0
    0.3912    6.0302   20.6657 C   0  0  0  0  0  0  0  0  0  0  0  0
    0.8602    4.2065   18.9585 C   0  0  0  0  0  0  0  0  0  0  0  0
    2.3868    3.9449   18.9285 C   0  0  0  0  0  0  0  0  0  0  0  0
    2.8317    2.7954   19.8253 C   0  0  0  0  0  0  0  0  0  0  0  0
    1.9552    2.0137   20.5842 C   0  0  0  0  0  0  0  0  0  0  0  0
    2.7132    1.0969   21.2408 N   0  0  0  0  0  0  0  0  0  0  0  0
    4.0579    1.2278   20.9569 C   0  0  0  0  0  0  0  0  0  0  0  0
    4.1805    2.2875   20.0649 C   0  0  0  0  0  0  0  0  0  0  0  0
    5.5135    2.6192   19.6116 C   0  0  0  0  0  0  0  0  0  0  0  0
    5.7100    3.6631   18.7117 O   0  0  0  0  0  0  0  0  0  0  0  0
    6.5914    1.8851   20.0882 N   0  0  0  0  0  0  0  0  0  0  0  0
    6.4223    0.8456   20.9562 C   0  0  0  0  0  0  0  0  0  0  0  0
    5.1999    0.5104   21.3981 N   0  0  0  0  0  0  0  0  0  0  0  0
    7.5904    0.0894   21.4190 N   0  0  0  0  0  0  0  0  0  0  0  0
   -1.1824    5.9457   24.1274 C   0  0  0  0  0  0  0  0  0  0  0  0
   -0.6811    6.9085   24.7052 O   0  0  0  0  0  0  0  0  0  0  0  0
   -2.2693    5.2115   24.7187 N   0  0  0  0  0  0  0  0  0  0  0  0
  1  2  2  0  0  0  0
  1  6  1  0  0  0  0
  1  7  1  0  0  0  0
  2  3  1  0  0  0  0
  3  4  2  0  0  0  0
  4  5  1  0  0  0  0
  4 20  1  0  0  0  0
  5  6  2  0  0  0  0
  7  8  1  0  0  0  0
  8  9  1  0  0  0  0
  9 10  2  0  0  0  0
  9 13  1  0  0  0  0
 10 11  1  0  0  0  0
 11 12  1  0  0  0  0
 12 13  2  0  0  0  0
 12 18  1  0  0  0  0
 13 14  1  0  0  0  0
 14 15  1  0  0  0  0
 14 16  2  0  0  0  0
 16 17  1  0  0  0  0
 17 18  2  0  0  0  0
 17 19  1  0  0  0  0
 20 21  2  0  0  0  0
 20 22  1  0  0  0  0
M  END
>  <CHROM.1>
-95.63825544,149.49318753,64.20907626,1.67498170,2.36468602,3.44641296,21.16949623
3.00632214,-0.63042952,1.91740833

>  <Name>
ligand

>  <RI>
0

>  <Rbt.Current_Directory>
/home/itssahil/PROJECTS/Mol_Feturizer/New_Systems/rnas/4LVY

>  <Rbt.Executable>
rbdock ($Id: //depot/dev/client3/rdock/2013.1/src/exe/rbdock.cxx#4 $)

>  <Rbt.Library>
libRbt.so (2013.1, Build901 2013/11/27)

>  <Rbt.Parameter_File>
/export/apps/rDock/src/rDock_2013.1_src/data/scripts/dock_solv.prm

>  <Rbt.Receptor>
prm/pocket_docking_5.prm

>  <SCORE>
-16.439

>  <SCORE.INTER>
-16.459

>  <SCORE.INTER.CONST>
1

>  <SCORE.INTER.POLAR>
0

>  <SCORE.INTER.ROT>
4

>  <SCORE.INTER.SOLV>
11.8895

>  <SCORE.INTER.VDW>
-21.2025

>  <SCORE.INTER.norm>
-0.748135

>  <SCORE.INTRA>
0.0200035

>  <SCORE.INTRA.DIHEDRAL>
-0.00403515

>  <SCORE.INTRA.DIHEDRAL.0>
6.18831

>  <SCORE.INTRA.POLAR>
0

>  <SCORE.INTRA.POLAR.0>
0

>  <SCORE.INTRA.REPUL>
0

>  <SCORE.INTRA.REPUL.0>
0

>  <SCORE.INTRA.SOLV>
0.0055476

>  <SCORE.INTRA.SOLV.lig_0>
-44.3465

>  <SCORE.INTRA.VDW>
0.0192473

>  <SCORE.INTRA.VDW.0>
-0.778272

>  <SCORE.INTRA.norm>
0.000909251

>  <SCORE.RESTR>
0

>  <SCORE.RESTR.CAVITY>
0

>  <SCORE.RESTR.norm>
0

>  <SCORE.SYSTEM>
0

>  <SCORE.SYSTEM.CONST>
0

>  <SCORE.SYSTEM.DIHEDRAL>
0

>  <SCORE.SYSTEM.SOLV>
0

>  <SCORE.SYSTEM.norm>
0

>  <SCORE.heavy>
22

>  <SCORE.norm>
-0.747226

>  <RMSD>
7.964

$$$$
ligand
 OpenBabel11021811503D
libRbt.so/2013.1/901 2013/11/27
 22 24  0  0  0  0  0  0  0  0999 V2000
    0.9233    3.3926   22.0479 C   0  0  0  0  0  0  0  0  0  0  0  0
   -0.4846    3.4554   21.9810 C   0  0  0  0  0  0  0  0  0  0  0  0
   -1.1700    4.3360   22.8135 C   0  0  0  0  0  0  0  0  0  0  0  0
   -0.4489    5.1469   23.7071 C   0  0  0  0  0  0  0  0  0  0  0  0
    0.9641    5.0781   23.7821 C   0  0  0  0  0  0  0  0  0  0  0  0
    1.6457    4.1989   22.9516 C   0  0  0  0  0  0  0  0  0  0  0  0
    1.6957    2.4106   21.1461 C   0  0  0  0  0  0  0  0  0  0  0  0
    3.1286    2.8602   20.7660 C   0  0  0  0  0  0  0  0  0  0  0  0
    3.3981    2.8525   19.2658 C   0  0  0  0  0  0  0  0  0  0  0  0
    4.5259    2.2710   18.6787 C   0  0  0  0  0  0  0  0  0  0  0  0
    4.4124    2.4577   17.3377 N   0  0  0  0  0  0  0  0  0  0  0  0
    3.2598    3.1379   16.9984 C   0  0  0  0  0  0  0  0  0  0  0  0
    2.5861    3.4065   18.1848 C   0  0  0  0  0  0  0  0  0  0  0  0
    1.3306    4.1179   18.0855 C   0  0  0  0  0  0  0  0  0  0  0  0
    0.5981    4.4134   19.2319 O   0  0  0  0  0  0  0  0  0  0  0  0
    0.8696    4.5033   16.8338 N   0  0  0  0  0  0  0  0  0  0  0  0
    1.5604    4.2089   15.6942 C   0  0  0  0  0  0  0  0  0  0  0  0
    2.7289    3.5506   15.7489 N   0  0  0  0  0  0  0  0  0  0  0  0
    1.0245    4.6229   14.3934 N   0  0  0  0  0  0  0  0  0  0  0  0
   -1.2158    6.0863   24.5997 C   0  0  0  0  0  0  0  0  0  0  0  0
   -0.8065    7.2301   24.7900 O   0  0  0  0  0  0  0  0  0  0  0  0
   -2.4241    5.6190   25.2253 N   0  0  0  0  0  0  0  0  0  0  0  0
  1  2  2  0  0  0  0
  1  6  1  0  0  0  0
  1  7  1  0  0  0  0
  2  3  1  0  0  0  0
  3  4  2  0  0  0  0
  4  5  1  0  0  0  0
  4 20  1  0  0  0  0
  5  6  2  0  0  0  0
  7  8  1  0  0  0  0
  8  9  1  0  0  0  0
  9 10  2  0  0  0  0
  9 13  1  0  0  0  0
 10 11  1  0  0  0  0
 11 12  1  0  0  0  0
 12 13  2  0  0  0  0
 12 18  1  0  0  0  0
 13 14  1  0  0  0  0
 14 15  1  0  0  0  0
 14 16  2  0  0  0  0
 16 17  1  0  0  0  0
 17 18  2  0  0  0  0
 17 19  1  0  0  0  0
 20 21  2  0  0  0  0
 20 22  1  0  0  0  0
M  END
>  <CHROM.1>
151.11239042,-138.17519855,-126.85620170,-131.51574674,1.25640212,4.09374524
20.17547045,-2.08159715,0.61091101,-1.51503002

>  <Name>
ligand

>  <RI>
0

>  <Rbt.Current_Directory>
/home/itssahil/PROJECTS/Mol_Feturizer/New_Systems/rnas/4LVY

>  <Rbt.Executable>
rbdock ($Id: //depot/dev/client3/rdock/2013.1/src/exe/rbdock.cxx#4 $)

>  <Rbt.Library>
libRbt.so (2013.1, Build901 2013/11/27)

>  <Rbt.Parameter_File>
/export/apps/rDock/src/rDock_2013.1_src/data/scripts/dock_solv.prm

>  <Rbt.Receptor>
prm/pocket_docking_8.prm

>  <SCORE>
-15.5024

>  <SCORE.INTER>
-18.3581

>  <SCORE.INTER.CONST>
1

>  <SCORE.INTER.POLAR>
0

>  <SCORE.INTER.ROT>
4

>  <SCORE.INTER.SOLV>
14.3525

>  <SCORE.INTER.VDW>
-23.2896

>  <SCORE.INTER.norm>
-0.834461

>  <SCORE.INTRA>
2.85577

>  <SCORE.INTRA.DIHEDRAL>
5.90925

>  <SCORE.INTRA.DIHEDRAL.0>
6.18831

>  <SCORE.INTRA.POLAR>
0

>  <SCORE.INTRA.POLAR.0>
0

>  <SCORE.INTRA.REPUL>
0

>  <SCORE.INTRA.REPUL.0>
0

>  <SCORE.INTRA.SOLV>
0.636637

>  <SCORE.INTRA.SOLV.lig_0>
-44.3465

>  <SCORE.INTRA.VDW>
-0.417172

>  <SCORE.INTRA.VDW.0>
-0.778272

>  <SCORE.INTRA.norm>
0.129808

>  <SCORE.RESTR>
0

>  <SCORE.RESTR.CAVITY>
0

>  <SCORE.RESTR.norm>
0

>  <SCORE.SYSTEM>
0

>  <SCORE.SYSTEM.CONST>
0

>  <SCORE.SYSTEM.DIHEDRAL>
0

>  <SCORE.SYSTEM.SOLV>
0

>  <SCORE.SYSTEM.norm>
0

>  <SCORE.heavy>
22

>  <SCORE.norm>
-0.704653

>  <RMSD>
7.978

$$$$
ligand
 OpenBabel11021811503D
libRbt.so/2013.1/901 2013/11/27
 22 24  0  0  0  0  0  0  0  0999 V2000
    0.8131    3.1356   21.6862 C   0  0  0  0  0  0  0  0  0  0  0  0
    1.5835    3.8586   22.6213 C   0  0  0  0  0  0  0  0  0  0  0  0
    0.9489    4.7318   23.5006 C   0  0  0  0  0  0  0  0  0  0  0  0
   -0.4479    4.8793   23.4419 C   0  0  0  0  0  0  0  0  0  0  0  0
   -1.2216    4.1610   22.4973 C   0  0  0  0  0  0  0  0  0  0  0  0
   -0.5869    3.2914   21.6209 C   0  0  0  0  0  0  0  0  0  0  0  0
    1.5020    2.1787   20.6942 C   0  0  0  0  0  0  0  0  0  0  0  0
    2.4614    2.8603   19.6869 C   0  0  0  0  0  0  0  0  0  0  0  0
    1.8149    3.9845   18.8857 C   0  0  0  0  0  0  0  0  0  0  0  0
    0.9696    4.9508   19.4395 C   0  0  0  0  0  0  0  0  0  0  0  0
    0.6002    5.7778   18.4267 N   0  0  0  0  0  0  0  0  0  0  0  0
    1.1592    5.4105   17.2189 C   0  0  0  0  0  0  0  0  0  0  0  0
    1.9365    4.2831   17.4606 C   0  0  0  0  0  0  0  0  0  0  0  0
    2.6354    3.7077   16.3325 C   0  0  0  0  0  0  0  0  0  0  0  0
    3.4384    2.5833   16.5028 O   0  0  0  0  0  0  0  0  0  0  0  0
    2.4916    4.2900   15.0802 N   0  0  0  0  0  0  0  0  0  0  0  0
    1.7251    5.4033   14.8917 C   0  0  0  0  0  0  0  0  0  0  0  0
    1.0622    5.9634   15.9157 N   0  0  0  0  0  0  0  0  0  0  0  0
    1.6171    5.9917   13.5528 N   0  0  0  0  0  0  0  0  0  0  0  0
   -1.1077    5.8343   24.4011 C   0  0  0  0  0  0  0  0  0  0  0  0
   -2.1274    5.5007   25.0019 O   0  0  0  0  0  0  0  0  0  0  0  0
   -0.5284    7.1372   24.5930 N   0  0  0  0  0  0  0  0  0  0  0  0
  1  2  2  0  0  0  0
  1  6  1  0  0  0  0
  1  7  1  0  0  0  0
  2  3  1  0  0  0  0
  3  4  2  0  0  0  0
  4  5  1  0  0  0  0
  4 20  1  0  0  0  0
  5  6  2  0  0  0  0
  7  8  1  0  0  0  0
  8  9  1  0  0  0  0
  9 10  2  0  0  0  0
  9 13  1  0  0  0  0
 10 11  1  0  0  0  0
 11 12  1  0  0  0  0
 12 13  2  0  0  0  0
 12 18  1  0  0  0  0
 13 14  1  0  0  0  0
 14 15  1  0  0  0  0
 14 16  2  0  0  0  0
 16 17  1  0  0  0  0
 17 18  2  0  0  0  0
 17 19  1  0  0  0  0
 20 21  2  0  0  0  0
 20 22  1  0  0  0  0
M  END
>  <CHROM.1>
-63.97659385,-134.82534075,-54.66890146,43.24877288,0.95301057,4.54417833
19.66221644,-2.15805479,0.96669077,-1.12072839

>  <Name>
ligand

>  <RI>
0

>  <Rbt.Current_Directory>
/home/itssahil/PROJECTS/Mol_Feturizer/New_Systems/rnas/4LVY

>  <Rbt.Executable>
rbdock ($Id: //depot/dev/client3/rdock/2013.1/src/exe/rbdock.cxx#4 $)

>  <Rbt.Library>
libRbt.so (2013.1, Build901 2013/11/27)

>  <Rbt.Parameter_File>
/export/apps/rDock/src/rDock_2013.1_src/data/scripts/dock_solv.prm

>  <Rbt.Receptor>
prm/pocket_docking_8.prm

>  <SCORE>
-16.1944

>  <SCORE.INTER>
-15.6369

>  <SCORE.INTER.CONST>
1

>  <SCORE.INTER.POLAR>
0

>  <SCORE.INTER.ROT>
4

>  <SCORE.INTER.SOLV>
14.432

>  <SCORE.INTER.VDW>
-21.502

>  <SCORE.INTER.norm>
-0.710769

>  <SCORE.INTRA>
-0.557496

>  <SCORE.INTRA.DIHEDRAL>
0.122989

>  <SCORE.INTRA.DIHEDRAL.0>
6.18831

>  <SCORE.INTRA.POLAR>
0

>  <SCORE.INTRA.POLAR.0>
0

>  <SCORE.INTRA.REPUL>
0

>  <SCORE.INTRA.REPUL.0>
0

>  <SCORE.INTRA.SOLV>
0.00188926

>  <SCORE.INTRA.SOLV.lig_0>
-44.3465

>  <SCORE.INTRA.VDW>
-0.619935

>  <SCORE.INTRA.VDW.0>
-0.778272

>  <SCORE.INTRA.norm>
-0.0253407

>  <SCORE.RESTR>
0

>  <SCORE.RESTR.CAVITY>
0

>  <SCORE.RESTR.norm>
0

>  <SCORE.SYSTEM>
0

>  <SCORE.SYSTEM.CONST>
0

>  <SCORE.SYSTEM.DIHEDRAL>
0

>  <SCORE.SYSTEM.SOLV>
0

>  <SCORE.SYSTEM.norm>
0

>  <SCORE.heavy>
22

>  <SCORE.norm>
-0.736109

>  <RMSD>
7.992

$$$$
ligand
 OpenBabel11021811503D
libRbt.so/2013.1/901 2013/11/27
 22 24  0  0  0  0  0  0  0  0999 V2000
    0.2818    4.5625   20.3889 C   0  0  0  0  0  0  0  0  0  0  0  0
    0.4802    5.8639   20.8963 C   0  0  0  0  0  0  0  0  0  0  0  0
   -0.0601    6.2051   22.1333 C   0  0  0  0  0  0  0  0  0  0  0  0
   -0.7946    5.2484   22.8555 C   0  0  0  0  0  0  0  0  0  0  0  0
   -1.0025    3.9443   22.3428 C   0  0  0  0  0  0  0  0  0  0  0  0
   -0.4636    3.6062   21.1089 C   0  0  0  0  0  0  0  0  0  0  0  0
    0.8578    4.1744   19.0134 C   0  0  0  0  0  0  0  0  0  0  0  0
    2.3905    3.9505   18.9856 C   0  0  0  0  0  0  0  0  0  0  0  0
    2.8582    2.7889   19.8548 C   0  0  0  0  0  0  0  0  0  0  0  0
    2.0132    2.0455   20.6844 C   0  0  0  0  0  0  0  0  0  0  0  0
    2.7834    1.1031   21.2882 N   0  0  0  0  0  0  0  0  0  0  0  0
    4.1065    1.1803   20.9015 C   0  0  0  0  0  0  0  0  0  0  0  0
    4.2010    2.2301   19.9946 C   0  0  0  0  0  0  0  0  0  0  0  0
    5.5071    2.5076   19.4383 C   0  0  0  0  0  0  0  0  0  0  0  0
    5.6740    3.5388   18.5180 O   0  0  0  0  0  0  0  0  0  0  0  0
    6.5894    1.7345   19.8369 N   0  0  0  0  0  0  0  0  0  0  0  0
    6.4475    0.7065   20.7234 C   0  0  0  0  0  0  0  0  0  0  0  0
    5.2506    0.4212   21.2598 N   0  0  0  0  0  0  0  0  0  0  0  0
    7.6177   -0.0923   21.1014 N   0  0  0  0  0  0  0  0  0  0  0  0
   -1.3721    5.6459   24.1880 C   0  0  0  0  0  0  0  0  0  0  0  0
   -2.2530    4.9635   24.7081 O   0  0  0  0  0  0  0  0  0  0  0  0
   -0.8803    6.8351   24.8315 N   0  0  0  0  0  0  0  0  0  0  0  0
  1  2  2  0  0  0  0
  1  6  1  0  0  0  0
  1  7  1  0  0  0  0
  2  3  1  0  0  0  0
  3  4  2  0  0  0  0
  4  5  1  0  0  0  0
  4 20  1  0  0  0  0
  5  6  2  0  0  0  0
  7  8  1  0  0  0  0
  8  9  1  0  0  0  0
  9 10  2  0  0  0  0
  9 13  1  0  0  0  0
 10 11  1  0  0  0  0
 11 12  1  0  0  0  0
 12 13  2  0  0  0  0
 12 18  1  0  0  0  0
 13 14  1  0  0  0  0
 14 15  1  0  0  0  0
 14 16  2  0  0  0  0
 16 17  1  0  0  0  0
 17 18  2  0  0  0  0
 17 19  1  0  0  0  0
 20 21  2  0  0  0  0
 20 22  1  0  0  0  0
M  END
>  <CHROM.1>
74.41683094,163.76811393,63.29157202,-4.53489658,2.32739943,3.31560578,21.14017868
3.02053558,-0.62346124,2.00120277

>  <Name>
ligand

>  <RI>
0

>  <Rbt.Current_Directory>
/home/itssahil/PROJECTS/Mol_Feturizer/New_Systems/rnas/4LVY

>  <Rbt.Executable>
rbdock ($Id: //depot/dev/client3/rdock/2013.1/src/exe/rbdock.cxx#4 $)

>  <Rbt.Library>
libRbt.so (2013.1, Build901 2013/11/27)

>  <Rbt.Parameter_File>
/export/apps/rDock/src/rDock_2013.1_src/data/scripts/dock_solv.prm

>  <Rbt.Receptor>
prm/pocket_docking_3.prm

>  <SCORE>
-16.5919

>  <SCORE.INTER>
-16.6322

>  <SCORE.INTER.CONST>
1

>  <SCORE.INTER.POLAR>
0

>  <SCORE.INTER.ROT>
4

>  <SCORE.INTER.SOLV>
12.7942

>  <SCORE.INTER.VDW>
-21.6196

>  <SCORE.INTER.norm>
-0.756011

>  <SCORE.INTRA>
0.0377585

>  <SCORE.INTRA.DIHEDRAL>
0.105321

>  <SCORE.INTRA.DIHEDRAL.0>
6.18831

>  <SCORE.INTRA.POLAR>
0

>  <SCORE.INTRA.POLAR.0>
0

>  <SCORE.INTRA.REPUL>
0

>  <SCORE.INTRA.REPUL.0>
0

>  <SCORE.INTRA.SOLV>
0.00899662

>  <SCORE.INTRA.SOLV.lig_0>
-44.3465

>  <SCORE.INTRA.VDW>
-0.0194005

>  <SCORE.INTRA.VDW.0>
-0.778272

>  <SCORE.INTRA.norm>
0.0017163

>  <SCORE.RESTR>
0.00253927

>  <SCORE.RESTR.CAVITY>
0.00253927

>  <SCORE.RESTR.norm>
0.000115421

>  <SCORE.SYSTEM>
0

>  <SCORE.SYSTEM.CONST>
0

>  <SCORE.SYSTEM.DIHEDRAL>
0

>  <SCORE.SYSTEM.SOLV>
0

>  <SCORE.SYSTEM.norm>
0

>  <SCORE.heavy>
22

>  <SCORE.norm>
-0.75418

>  <RMSD>
8.012

$$$$
ligand
 OpenBabel11021811503D
libRbt.so/2013.1/901 2013/11/27
 22 24  0  0  0  0  0  0  0  0999 V2000
    0.6405    3.3983   21.8727 C   0  0  0  0  0  0  0  0  0  0  0  0
    1.4247    4.1544   22.7693 C   0  0  0  0  0  0  0  0  0  0  0  0
    0.8003    5.0346   23.6489 C   0  0  0  0  0  0  0  0  0  0  0  0
   -0.6001    5.1561   23.6289 C   0  0  0  0  0  0  0  0  0  0  0  0
   -1.3879    4.4045   22.7227 C   0  0  0  0  0  0  0  0  0  0  0  0
   -0.7635    3.5280   21.8459 C   0  0  0  0  0  0  0  0  0  0  0  0
    1.3173    2.4331   20.8805 C   0  0  0  0  0  0  0  0  0  0  0  0
    2.7816    2.0621   21.2242 C   0  0  0  0  0  0  0  0  0  0  0  0
    3.7571    2.2773   20.0729 C   0  0  0  0  0  0  0  0  0  0  0  0
    4.7799    1.3841   19.7397 C   0  0  0  0  0  0  0  0  0  0  0  0
    5.4275    1.9094   18.6670 N   0  0  0  0  0  0  0  0  0  0  0  0
    4.8856    3.1140   18.2652 C   0  0  0  0  0  0  0  0  0  0  0  0
    3.8259    3.3858   19.1235 C   0  0  0  0  0  0  0  0  0  0  0  0
    3.0892    4.6099   18.8974 C   0  0  0  0  0  0  0  0  0  0  0  0
    2.0110    4.9418   19.7131 O   0  0  0  0  0  0  0  0  0  0  0  0
    3.4743    5.4482   17.8597 N   0  0  0  0  0  0  0  0  0  0  0  0
    4.5159    5.1355   17.0352 C   0  0  0  0  0  0  0  0  0  0  0  0
    5.2218    4.0083   17.2160 N   0  0  0  0  0  0  0  0  0  0  0  0
    4.8746    6.0452   15.9423 N   0  0  0  0  0  0  0  0  0  0  0  0
   -1.2488    6.1193   24.5874 C   0  0  0  0  0  0  0  0  0  0  0  0
   -0.7455    7.2228   24.7899 O   0  0  0  0  0  0  0  0  0  0  0  0
   -2.4565    5.7219   25.2608 N   0  0  0  0  0  0  0  0  0  0  0  0
  1  2  2  0  0  0  0
  1  6  1  0  0  0  0
  1  7  1  0  0  0  0
  2  3  1  0  0  0  0
  3  4  2  0  0  0  0
  4  5  1  0  0  0  0
  4 20  1  0  0  0  0
  5  6  2  0  0  0  0
  7  8  1  0  0  0  0
  8  9  1  0  0  0  0
  9 10  2  0  0  0  0
  9 13  1  0  0  0  0
 10 11  1  0  0  0  0
 11 12  1  0  0  0  0
 12 13  2  0  0  0  0
 12 18  1  0  0  0  0
 13 14  1  0  0  0  0
 14 15  1  0  0  0  0
 14 16  2  0  0  0  0
 16 17  1  0  0  0  0
 17 18  2  0  0  0  0
 17 19  1  0  0  0  0
 20 21  2  0  0  0  0
 20 22  1  0  0  0  0
M  END
>  <CHROM.1>
17.19404429,41.30098271,-127.82548417,-138.24621261,2.07638559,4.20184599
20.70378577,-2.99347492,0.83815913,-0.45618833

>  <Name>
ligand

>  <RI>
0

>  <Rbt.Current_Directory>
/home/itssahil/PROJECTS/Mol_Feturizer/New_Systems/rnas/4LVY

>  <Rbt.Executable>
rbdock ($Id: //depot/dev/client3/rdock/2013.1/src/exe/rbdock.cxx#4 $)

>  <Rbt.Library>
libRbt.so (2013.1, Build901 2013/11/27)

>  <Rbt.Parameter_File>
/export/apps/rDock/src/rDock_2013.1_src/data/scripts/dock_solv.prm

>  <Rbt.Receptor>
prm/pocket_docking_7.prm

>  <SCORE>
-12.1792

>  <SCORE.INTER>
-15.4

>  <SCORE.INTER.CONST>
1

>  <SCORE.INTER.POLAR>
0

>  <SCORE.INTER.ROT>
4

>  <SCORE.INTER.SOLV>
11.2469

>  <SCORE.INTER.VDW>
-20.2823

>  <SCORE.INTER.norm>
-0.699999

>  <SCORE.INTRA>
3.22078

>  <SCORE.INTRA.DIHEDRAL>
5.83069

>  <SCORE.INTRA.DIHEDRAL.0>
6.18831

>  <SCORE.INTRA.POLAR>
0

>  <SCORE.INTRA.POLAR.0>
0

>  <SCORE.INTRA.REPUL>
0

>  <SCORE.INTRA.REPUL.0>
0

>  <SCORE.INTRA.SOLV>
0.663769

>  <SCORE.INTRA.SOLV.lig_0>
-44.3465

>  <SCORE.INTRA.VDW>
-0.0264478

>  <SCORE.INTRA.VDW.0>
-0.778272

>  <SCORE.INTRA.norm>
0.146399

>  <SCORE.RESTR>
0

>  <SCORE.RESTR.CAVITY>
0

>  <SCORE.RESTR.norm>
0

>  <SCORE.SYSTEM>
0

>  <SCORE.SYSTEM.CONST>
0

>  <SCORE.SYSTEM.DIHEDRAL>
0

>  <SCORE.SYSTEM.SOLV>
0

>  <SCORE.SYSTEM.norm>
0

>  <SCORE.heavy>
22

>  <SCORE.norm>
-0.5536

>  <RMSD>
8.020

$$$$
ligand
 OpenBabel11021811503D
libRbt.so/2013.1/901 2013/11/27
 22 24  0  0  0  0  0  0  0  0999 V2000
    1.1894    5.0966   20.3123 C   0  0  0  0  0  0  0  0  0  0  0  0
   -0.2081    4.9045   20.3404 C   0  0  0  0  0  0  0  0  0  0  0  0
   -0.9062    5.1356   21.5226 C   0  0  0  0  0  0  0  0  0  0  0  0
   -0.2079    5.5553   22.6682 C   0  0  0  0  0  0  0  0  0  0  0  0
    1.1965    5.7393   22.6439 C   0  0  0  0  0  0  0  0  0  0  0  0
    1.8910    5.5078   21.4644 C   0  0  0  0  0  0  0  0  0  0  0  0
    1.9793    4.8279   19.0169 C   0  0  0  0  0  0  0  0  0  0  0  0
    2.0578    3.3393   18.5952 C   0  0  0  0  0  0  0  0  0  0  0  0
    2.8310    2.4628   19.5737 C   0  0  0  0  0  0  0  0  0  0  0  0
    2.2625    1.8646   20.7023 C   0  0  0  0  0  0  0  0  0  0  0  0
    3.2514    1.1643   21.3170 N   0  0  0  0  0  0  0  0  0  0  0  0
    4.4572    1.2653   20.6522 C   0  0  0  0  0  0  0  0  0  0  0  0
    4.2393    2.0749   19.5428 C   0  0  0  0  0  0  0  0  0  0  0  0
    5.3700    2.3282   18.6770 C   0  0  0  0  0  0  0  0  0  0  0  0
    5.2228    3.1230   17.5436 O   0  0  0  0  0  0  0  0  0  0  0  0
    6.6017    1.7710   18.9939 N   0  0  0  0  0  0  0  0  0  0  0  0
    6.7667    0.9734   20.0890 C   0  0  0  0  0  0  0  0  0  0  0  0
    5.7396    0.7176   20.9145 N   0  0  0  0  0  0  0  0  0  0  0  0
    8.0836    0.3943   20.3732 N   0  0  0  0  0  0  0  0  0  0  0  0
   -0.9872    5.7927   23.9345 C   0  0  0  0  0  0  0  0  0  0  0  0
   -0.7569    6.7836   24.6252 O   0  0  0  0  0  0  0  0  0  0  0  0
   -1.9940    4.8398   24.3197 N   0  0  0  0  0  0  0  0  0  0  0  0
  1  2  2  0  0  0  0
  1  6  1  0  0  0  0
  1  7  1  0  0  0  0
  2  3  1  0  0  0  0
  3  4  2  0  0  0  0
  4  5  1  0  0  0  0
  4 20  1  0  0  0  0
  5  6  2  0  0  0  0
  7  8  1  0  0  0  0
  8  9  1  0  0  0  0
  9 10  2  0  0  0  0
  9 13  1  0  0  0  0
 10 11  1  0  0  0  0
 11 12  1  0  0  0  0
 12 13  2  0  0  0  0
 12 18  1  0  0  0  0
 13 14  1  0  0  0  0
 14 15  1  0  0  0  0
 14 16  2  0  0  0  0
 16 17  1  0  0  0  0
 17 18  2  0  0  0  0
 17 19  1  0  0  0  0
 20 21  2  0  0  0  0
 20 22  1  0  0  0  0
M  END
>  <CHROM.1>
-68.56643136,-136.57648867,-65.05503577,85.89762727,2.67903133,3.43251442
20.80255852,2.86763425,-0.64633346,1.82302167

>  <Name>
ligand

>  <RI>
0

>  <Rbt.Current_Directory>
/home/itssahil/PROJECTS/Mol_Feturizer/New_Systems/rnas/4LVY

>  <Rbt.Executable>
rbdock ($Id: //depot/dev/client3/rdock/2013.1/src/exe/rbdock.cxx#4 $)

>  <Rbt.Library>
libRbt.so (2013.1, Build901 2013/11/27)

>  <Rbt.Parameter_File>
/export/apps/rDock/src/rDock_2013.1_src/data/scripts/dock_solv.prm

>  <Rbt.Receptor>
prm/pocket_docking_3.prm

>  <SCORE>
-15.6595

>  <SCORE.INTER>
-14.699

>  <SCORE.INTER.CONST>
1

>  <SCORE.INTER.POLAR>
0

>  <SCORE.INTER.ROT>
4

>  <SCORE.INTER.SOLV>
12.0171

>  <SCORE.INTER.VDW>
-20.0717

>  <SCORE.INTER.norm>
-0.668138

>  <SCORE.INTRA>
-0.960416

>  <SCORE.INTRA.DIHEDRAL>
0.14051

>  <SCORE.INTRA.DIHEDRAL.0>
6.18831

>  <SCORE.INTRA.POLAR>
0

>  <SCORE.INTRA.POLAR.0>
0

>  <SCORE.INTRA.REPUL>
0

>  <SCORE.INTRA.REPUL.0>
0

>  <SCORE.INTRA.SOLV>
0.142801

>  <SCORE.INTRA.SOLV.lig_0>
-44.3465

>  <SCORE.INTRA.VDW>
-1.10207

>  <SCORE.INTRA.VDW.0>
-0.778272

>  <SCORE.INTRA.norm>
-0.0436553

>  <SCORE.RESTR>
0

>  <SCORE.RESTR.CAVITY>
0

>  <SCORE.RESTR.norm>
0

>  <SCORE.SYSTEM>
0

>  <SCORE.SYSTEM.CONST>
0

>  <SCORE.SYSTEM.DIHEDRAL>
0

>  <SCORE.SYSTEM.SOLV>
0

>  <SCORE.SYSTEM.norm>
0

>  <SCORE.heavy>
22

>  <SCORE.norm>
-0.711793

>  <RMSD>
8.056

$$$$
ligand
 OpenBabel11021811503D
libRbt.so/2013.1/901 2013/11/27
 22 24  0  0  0  0  0  0  0  0999 V2000
    0.8993    5.4580   20.5153 C   0  0  0  0  0  0  0  0  0  0  0  0
   -0.3241    6.1605   20.5328 C   0  0  0  0  0  0  0  0  0  0  0  0
   -1.0041    6.3193   21.7373 C   0  0  0  0  0  0  0  0  0  0  0  0
   -0.4615    5.7769   22.9153 C   0  0  0  0  0  0  0  0  0  0  0  0
    0.7621    5.0631   22.8975 C   0  0  0  0  0  0  0  0  0  0  0  0
    1.4382    4.9052   21.6954 C   0  0  0  0  0  0  0  0  0  0  0  0
    1.6554    5.2580   19.1877 C   0  0  0  0  0  0  0  0  0  0  0  0
    1.6301    3.8122   18.6318 C   0  0  0  0  0  0  0  0  0  0  0  0
    2.3900    2.8091   19.4920 C   0  0  0  0  0  0  0  0  0  0  0  0
    1.8027    2.0512   20.5096 C   0  0  0  0  0  0  0  0  0  0  0  0
    2.7845    1.2762   21.0401 N   0  0  0  0  0  0  0  0  0  0  0  0
    4.0036    1.4795   20.4247 C   0  0  0  0  0  0  0  0  0  0  0  0
    3.8024    2.4387   19.4383 C   0  0  0  0  0  0  0  0  0  0  0  0
    4.9493    2.8210   18.6442 C   0  0  0  0  0  0  0  0  0  0  0  0
    4.8193    3.7695   17.6335 O   0  0  0  0  0  0  0  0  0  0  0  0
    6.1791    2.2319   18.9062 N   0  0  0  0  0  0  0  0  0  0  0  0
    6.3276    1.2863   19.8790 C   0  0  0  0  0  0  0  0  0  0  0  0
    5.2852    0.9079   20.6353 N   0  0  0  0  0  0  0  0  0  0  0  0
    7.6435    0.6808   20.1075 N   0  0  0  0  0  0  0  0  0  0  0  0
   -1.2205    5.9589   24.2029 C   0  0  0  0  0  0  0  0  0  0  0  0
   -1.0185    6.9481   24.9048 O   0  0  0  0  0  0  0  0  0  0  0  0
   -2.1744    4.9557   24.5948 N   0  0  0  0  0  0  0  0  0  0  0  0
  1  2  2  0  0  0  0
  1  6  1  0  0  0  0
  1  7  1  0  0  0  0
  2  3  1  0  0  0  0
  3  4  2  0  0  0  0
  4  5  1  0  0  0  0
  4 20  1  0  0  0  0
  5  6  2  0  0  0  0
  7  8  1  0  0  0  0
  8  9  1  0  0  0  0
  9 10  2  0  0  0  0
  9 13  1  0  0  0  0
 10 11  1  0  0  0  0
 11 12  1  0  0  0  0
 12 13  2  0  0  0  0
 12 18  1  0  0  0  0
 13 14  1  0  0  0  0
 14 15  1  0  0  0  0
 14 16  2  0  0  0  0
 16 17  1  0  0  0  0
 17 18  2  0  0  0  0
 17 19  1  0  0  0  0
 20 21  2  0  0  0  0
 20 22  1  0  0  0  0
M  END
>  <CHROM.1>
-108.08045404,-89.42382751,-66.81274401,91.99231605,2.31883861,3.73971701
20.83426723,2.91653926,-0.69650478,1.97656857

>  <Name>
ligand

>  <RI>
0

>  <Rbt.Current_Directory>
/home/itssahil/PROJECTS/Mol_Feturizer/New_Systems/rnas/4LVY

>  <Rbt.Executable>
rbdock ($Id: //depot/dev/client3/rdock/2013.1/src/exe/rbdock.cxx#4 $)

>  <Rbt.Library>
libRbt.so (2013.1, Build901 2013/11/27)

>  <Rbt.Parameter_File>
/export/apps/rDock/src/rDock_2013.1_src/data/scripts/dock_solv.prm

>  <Rbt.Receptor>
prm/pocket_docking_4.prm

>  <SCORE>
-16.2528

>  <SCORE.INTER>
-15.1878

>  <SCORE.INTER.CONST>
1

>  <SCORE.INTER.POLAR>
0

>  <SCORE.INTER.ROT>
4

>  <SCORE.INTER.SOLV>
13.2124

>  <SCORE.INTER.VDW>
-20.796

>  <SCORE.INTER.norm>
-0.690353

>  <SCORE.INTRA>
-1.065

>  <SCORE.INTRA.DIHEDRAL>
0.171735

>  <SCORE.INTRA.DIHEDRAL.0>
6.18831

>  <SCORE.INTRA.POLAR>
0

>  <SCORE.INTRA.POLAR.0>
0

>  <SCORE.INTRA.REPUL>
0

>  <SCORE.INTRA.REPUL.0>
0

>  <SCORE.INTRA.SOLV>
0.158894

>  <SCORE.INTRA.SOLV.lig_0>
-44.3465

>  <SCORE.INTRA.VDW>
-1.23031

>  <SCORE.INTRA.VDW.0>
-0.778272

>  <SCORE.INTRA.norm>
-0.0484091

>  <SCORE.RESTR>
0

>  <SCORE.RESTR.CAVITY>
0

>  <SCORE.RESTR.norm>
0

>  <SCORE.SYSTEM>
0

>  <SCORE.SYSTEM.CONST>
0

>  <SCORE.SYSTEM.DIHEDRAL>
0

>  <SCORE.SYSTEM.SOLV>
0

>  <SCORE.SYSTEM.norm>
0

>  <SCORE.heavy>
22

>  <SCORE.norm>
-0.738762

>  <RMSD>
8.060

$$$$
ligand
 OpenBabel11021811503D
libRbt.so/2013.1/901 2013/11/27
 22 24  0  0  0  0  0  0  0  0999 V2000
    1.1062    5.0995   20.4171 C   0  0  0  0  0  0  0  0  0  0  0  0
    1.7855    5.5140   21.5821 C   0  0  0  0  0  0  0  0  0  0  0  0
    1.0630    5.7421   22.7502 C   0  0  0  0  0  0  0  0  0  0  0  0
   -0.3305    5.5566   22.7495 C   0  0  0  0  0  0  0  0  0  0  0  0
   -1.0150    5.1495   21.5779 C   0  0  0  0  0  0  0  0  0  0  0  0
   -0.2929    4.9234   20.4140 C   0  0  0  0  0  0  0  0  0  0  0  0
    1.8887    4.8603   19.1114 C   0  0  0  0  0  0  0  0  0  0  0  0
    1.9734    3.3804   18.6613 C   0  0  0  0  0  0  0  0  0  0  0  0
    2.7577    2.4903   19.6185 C   0  0  0  0  0  0  0  0  0  0  0  0
    2.2034    1.8802   20.7478 C   0  0  0  0  0  0  0  0  0  0  0  0
    3.1987    1.1701   21.3403 N   0  0  0  0  0  0  0  0  0  0  0  0
    4.3954    1.2758   20.6599 C   0  0  0  0  0  0  0  0  0  0  0  0
    4.1644    2.0990   19.5633 C   0  0  0  0  0  0  0  0  0  0  0  0
    5.2836    2.3594   18.6847 C   0  0  0  0  0  0  0  0  0  0  0  0
    5.1227    3.1680   17.5629 O   0  0  0  0  0  0  0  0  0  0  0  0
    6.5180    1.7952   18.9777 N   0  0  0  0  0  0  0  0  0  0  0  0
    6.6960    0.9843   20.0610 C   0  0  0  0  0  0  0  0  0  0  0  0
    5.6798    0.7215   20.8977 N   0  0  0  0  0  0  0  0  0  0  0  0
    8.0151    0.3984   20.3197 N   0  0  0  0  0  0  0  0  0  0  0  0
   -1.0877    5.8154   24.0250 C   0  0  0  0  0  0  0  0  0  0  0  0
   -0.8356    6.8103   24.7023 O   0  0  0  0  0  0  0  0  0  0  0  0
   -2.0995    4.8781   24.4347 N   0  0  0  0  0  0  0  0  0  0  0  0
  1  2  2  0  0  0  0
  1  6  1  0  0  0  0
  1  7  1  0  0  0  0
  2  3  1  0  0  0  0
  3  4  2  0  0  0  0
  4  5  1  0  0  0  0
  4 20  1  0  0  0  0
  5  6  2  0  0  0  0
  7  8  1  0  0  0  0
  8  9  1  0  0  0  0
  9 10  2  0  0  0  0
  9 13  1  0  0  0  0
 10 11  1  0  0  0  0
 11 12  1  0  0  0  0
 12 13  2  0  0  0  0
 12 18  1  0  0  0  0
 13 14  1  0  0  0  0
 14 15  1  0  0  0  0
 14 16  2  0  0  0  0
 16 17  1  0  0  0  0
 17 18  2  0  0  0  0
 17 19  1  0  0  0  0
 20 21  2  0  0  0  0
 20 22  1  0  0  0  0
M  END
>  <CHROM.1>
111.12352540,43.78162717,-65.00075549,85.10767286,2.59344994,3.45175848,20.84888383
2.86162668,-0.64879752,1.82910904

>  <Name>
ligand

>  <RI>
0

>  <Rbt.Current_Directory>
/home/itssahil/PROJECTS/Mol_Feturizer/New_Systems/rnas/4LVY

>  <Rbt.Executable>
rbdock ($Id: //depot/dev/client3/rdock/2013.1/src/exe/rbdock.cxx#4 $)

>  <Rbt.Library>
libRbt.so (2013.1, Build901 2013/11/27)

>  <Rbt.Parameter_File>
/export/apps/rDock/src/rDock_2013.1_src/data/scripts/dock_solv.prm

>  <Rbt.Receptor>
prm/pocket_docking_3.prm

>  <SCORE>
-15.8745

>  <SCORE.INTER>
-14.9577

>  <SCORE.INTER.CONST>
1

>  <SCORE.INTER.POLAR>
0

>  <SCORE.INTER.ROT>
4

>  <SCORE.INTER.SOLV>
12.5603

>  <SCORE.INTER.VDW>
-20.4252

>  <SCORE.INTER.norm>
-0.679894

>  <SCORE.INTRA>
-0.916877

>  <SCORE.INTRA.DIHEDRAL>
0.168735

>  <SCORE.INTRA.DIHEDRAL.0>
6.18831

>  <SCORE.INTRA.POLAR>
0

>  <SCORE.INTRA.POLAR.0>
0

>  <SCORE.INTRA.REPUL>
0

>  <SCORE.INTRA.REPUL.0>
0

>  <SCORE.INTRA.SOLV>
0.136257

>  <SCORE.INTRA.SOLV.lig_0>
-44.3465

>  <SCORE.INTRA.VDW>
-1.06937

>  <SCORE.INTRA.VDW.0>
-0.778272

>  <SCORE.INTRA.norm>
-0.0416762

>  <SCORE.RESTR>
0

>  <SCORE.RESTR.CAVITY>
0

>  <SCORE.RESTR.norm>
0

>  <SCORE.SYSTEM>
0

>  <SCORE.SYSTEM.CONST>
0

>  <SCORE.SYSTEM.DIHEDRAL>
0

>  <SCORE.SYSTEM.SOLV>
0

>  <SCORE.SYSTEM.norm>
0

>  <SCORE.heavy>
22

>  <SCORE.norm>
-0.72157

>  <RMSD>
8.085

$$$$
ligand
 OpenBabel11021811503D
libRbt.so/2013.1/901 2013/11/27
 22 24  0  0  0  0  0  0  0  0999 V2000
    0.7994    5.2372   20.5227 C   0  0  0  0  0  0  0  0  0  0  0  0
    1.1842    4.5137   21.6712 C   0  0  0  0  0  0  0  0  0  0  0  0
    0.4567    4.6629   22.8488 C   0  0  0  0  0  0  0  0  0  0  0  0
   -0.6480    5.5319   22.8746 C   0  0  0  0  0  0  0  0  0  0  0  0
   -1.0297    6.2661   21.7248 C   0  0  0  0  0  0  0  0  0  0  0  0
   -0.3026    6.1166   20.5517 C   0  0  0  0  0  0  0  0  0  0  0  0
    1.6047    5.0970   19.2166 C   0  0  0  0  0  0  0  0  0  0  0  0
    1.6806    3.6588   18.6459 C   0  0  0  0  0  0  0  0  0  0  0  0
    2.4861    2.6958   19.5103 C   0  0  0  0  0  0  0  0  0  0  0  0
    1.9430    1.9489   20.5601 C   0  0  0  0  0  0  0  0  0  0  0  0
    2.9565    1.2112   21.0841 N   0  0  0  0  0  0  0  0  0  0  0  0
    4.1547    1.4289   20.4337 C   0  0  0  0  0  0  0  0  0  0  0  0
    3.9055    2.3586   19.4301 C   0  0  0  0  0  0  0  0  0  0  0  0
    5.0228    2.7492   18.5986 C   0  0  0  0  0  0  0  0  0  0  0  0
    4.8445    3.6693   17.5692 O   0  0  0  0  0  0  0  0  0  0  0  0
    6.2729    2.1968   18.8437 N   0  0  0  0  0  0  0  0  0  0  0  0
    6.4687    1.2791   19.8347 C   0  0  0  0  0  0  0  0  0  0  0  0
    5.4549    0.8940   20.6256 N   0  0  0  0  0  0  0  0  0  0  0  0
    7.8045    0.7115   20.0444 N   0  0  0  0  0  0  0  0  0  0  0  0
   -1.4137    5.6783   24.1628 C   0  0  0  0  0  0  0  0  0  0  0  0
   -2.2157    4.8120   24.5069 O   0  0  0  0  0  0  0  0  0  0  0  0
   -1.1938    6.8469   24.9728 N   0  0  0  0  0  0  0  0  0  0  0  0
  1  2  2  0  0  0  0
  1  6  1  0  0  0  0
  1  7  1  0  0  0  0
  2  3  1  0  0  0  0
  3  4  2  0  0  0  0
  4  5  1  0  0  0  0
  4 20  1  0  0  0  0
  5  6  2  0  0  0  0
  7  8  1  0  0  0  0
  8  9  1  0  0  0  0
  9 10  2  0  0  0  0
  9 13  1  0  0  0  0
 10 11  1  0  0  0  0
 11 12  1  0  0  0  0
 12 13  2  0  0  0  0
 12 18  1  0  0  0  0
 13 14  1  0  0  0  0
 14 15  1  0  0  0  0
 14 16  2  0  0  0  0
 16 17  1  0  0  0  0
 17 18  2  0  0  0  0
 17 19  1  0  0  0  0
 20 21  2  0  0  0  0
 20 22  1  0  0  0  0
M  END
>  <CHROM.1>
59.25565448,-78.10887099,-67.49510163,88.12540333,2.31631936,3.60130540,20.81783998
2.92396271,-0.66284661,2.00006752

>  <Name>
ligand

>  <RI>
0

>  <Rbt.Current_Directory>
/home/itssahil/PROJECTS/Mol_Feturizer/New_Systems/rnas/4LVY

>  <Rbt.Executable>
rbdock ($Id: //depot/dev/client3/rdock/2013.1/src/exe/rbdock.cxx#4 $)

>  <Rbt.Library>
libRbt.so (2013.1, Build901 2013/11/27)

>  <Rbt.Parameter_File>
/export/apps/rDock/src/rDock_2013.1_src/data/scripts/dock_solv.prm

>  <Rbt.Receptor>
prm/pocket_docking_5.prm

>  <SCORE>
-16.9233

>  <SCORE.INTER>
-16.2351

>  <SCORE.INTER.CONST>
1

>  <SCORE.INTER.POLAR>
0

>  <SCORE.INTER.ROT>
4

>  <SCORE.INTER.SOLV>
12.8944

>  <SCORE.INTER.VDW>
-21.3882

>  <SCORE.INTER.norm>
-0.737961

>  <SCORE.INTRA>
-0.68815

>  <SCORE.INTRA.DIHEDRAL>
0.254108

>  <SCORE.INTRA.DIHEDRAL.0>
6.18831

>  <SCORE.INTRA.POLAR>
0

>  <SCORE.INTRA.POLAR.0>
0

>  <SCORE.INTRA.REPUL>
0

>  <SCORE.INTRA.REPUL.0>
0

>  <SCORE.INTRA.SOLV>
0.142929

>  <SCORE.INTRA.SOLV.lig_0>
-44.3465

>  <SCORE.INTRA.VDW>
-0.886669

>  <SCORE.INTRA.VDW.0>
-0.778272

>  <SCORE.INTRA.norm>
-0.0312796

>  <SCORE.RESTR>
0

>  <SCORE.RESTR.CAVITY>
0

>  <SCORE.RESTR.norm>
0

>  <SCORE.SYSTEM>
0

>  <SCORE.SYSTEM.CONST>
0

>  <SCORE.SYSTEM.DIHEDRAL>
0

>  <SCORE.SYSTEM.SOLV>
0

>  <SCORE.SYSTEM.norm>
0

>  <SCORE.heavy>
22

>  <SCORE.norm>
-0.76924

>  <RMSD>
8.086

$$$$
ligand
 OpenBabel11021811503D
libRbt.so/2013.1/901 2013/11/27
 22 24  0  0  0  0  0  0  0  0999 V2000
    1.2689    2.9265   21.7039 C   0  0  0  0  0  0  0  0  0  0  0  0
   -0.1165    3.0462   21.4651 C   0  0  0  0  0  0  0  0  0  0  0  0
   -0.8674    3.9365   22.2280 C   0  0  0  0  0  0  0  0  0  0  0  0
   -0.2336    4.7004   23.2235 C   0  0  0  0  0  0  0  0  0  0  0  0
    1.1556    4.5744   23.4707 C   0  0  0  0  0  0  0  0  0  0  0  0
    1.9024    3.6856   22.7095 C   0  0  0  0  0  0  0  0  0  0  0  0
    2.1108    1.9328   20.8806 C   0  0  0  0  0  0  0  0  0  0  0  0
    3.0926    2.5838   19.8745 C   0  0  0  0  0  0  0  0  0  0  0  0
    2.4036    3.3200   18.7314 C   0  0  0  0  0  0  0  0  0  0  0  0
    1.1759    3.9775   18.8546 C   0  0  0  0  0  0  0  0  0  0  0  0
    0.8924    4.5134   17.6386 N   0  0  0  0  0  0  0  0  0  0  0  0
    1.8740    4.2454   16.7054 C   0  0  0  0  0  0  0  0  0  0  0  0
    2.8504    3.4952   17.3514 C   0  0  0  0  0  0  0  0  0  0  0  0
    3.9985    3.0912   16.5697 C   0  0  0  0  0  0  0  0  0  0  0  0
    5.0187    2.3454   17.1537 O   0  0  0  0  0  0  0  0  0  0  0  0
    4.0662    3.4543   15.2313 N   0  0  0  0  0  0  0  0  0  0  0  0
    3.0877    4.2007   14.6412 C   0  0  0  0  0  0  0  0  0  0  0  0
    2.0083    4.5926   15.3362 N   0  0  0  0  0  0  0  0  0  0  0  0
    3.2120    4.5735   13.2284 N   0  0  0  0  0  0  0  0  0  0  0  0
   -1.0705    5.6516   24.0372 C   0  0  0  0  0  0  0  0  0  0  0  0
   -2.1882    5.3153   24.4242 O   0  0  0  0  0  0  0  0  0  0  0  0
   -0.5419    6.9540   24.3441 N   0  0  0  0  0  0  0  0  0  0  0  0
  1  2  2  0  0  0  0
  1  6  1  0  0  0  0
  1  7  1  0  0  0  0
  2  3  1  0  0  0  0
  3  4  2  0  0  0  0
  4  5  1  0  0  0  0
  4 20  1  0  0  0  0
  5  6  2  0  0  0  0
  7  8  1  0  0  0  0
  8  9  1  0  0  0  0
  9 10  2  0  0  0  0
  9 13  1  0  0  0  0
 10 11  1  0  0  0  0
 11 12  1  0  0  0  0
 12 13  2  0  0  0  0
 12 18  1  0  0  0  0
 13 14  1  0  0  0  0
 14 15  1  0  0  0  0
 14 16  2  0  0  0  0
 16 17  1  0  0  0  0
 17 18  2  0  0  0  0
 17 19  1  0  0  0  0
 20 21  2  0  0  0  0
 20 22  1  0  0  0  0
M  END
>  <CHROM.1>
109.75924745,40.95865804,-66.69138398,32.37555874,1.61617470,3.96216687,19.50025615
-2.17724392,0.72483771,-1.28683250

>  <Name>
ligand

>  <RI>
0

>  <Rbt.Current_Directory>
/home/itssahil/PROJECTS/Mol_Feturizer/New_Systems/rnas/4LVY

>  <Rbt.Executable>
rbdock ($Id: //depot/dev/client3/rdock/2013.1/src/exe/rbdock.cxx#4 $)

>  <Rbt.Library>
libRbt.so (2013.1, Build901 2013/11/27)

>  <Rbt.Parameter_File>
/export/apps/rDock/src/rDock_2013.1_src/data/scripts/dock_solv.prm

>  <Rbt.Receptor>
prm/pocket_docking_7.prm

>  <SCORE>
-16.0817

>  <SCORE.INTER>
-15.7215

>  <SCORE.INTER.CONST>
1

>  <SCORE.INTER.POLAR>
0

>  <SCORE.INTER.ROT>
4

>  <SCORE.INTER.SOLV>
11.3536

>  <SCORE.INTER.VDW>
-20.5322

>  <SCORE.INTER.norm>
-0.714616

>  <SCORE.INTRA>
-0.360154

>  <SCORE.INTRA.DIHEDRAL>
0.202454

>  <SCORE.INTRA.DIHEDRAL.0>
6.18831

>  <SCORE.INTRA.POLAR>
0

>  <SCORE.INTRA.POLAR.0>
0

>  <SCORE.INTRA.REPUL>
0

>  <SCORE.INTRA.REPUL.0>
0

>  <SCORE.INTRA.SOLV>
-5.16822e-05

>  <SCORE.INTRA.SOLV.lig_0>
-44.3465

>  <SCORE.INTRA.VDW>
-0.461355

>  <SCORE.INTRA.VDW.0>
-0.778272

>  <SCORE.INTRA.norm>
-0.0163706

>  <SCORE.RESTR>
0

>  <SCORE.RESTR.CAVITY>
0

>  <SCORE.RESTR.norm>
0

>  <SCORE.SYSTEM>
0

>  <SCORE.SYSTEM.CONST>
0

>  <SCORE.SYSTEM.DIHEDRAL>
0

>  <SCORE.SYSTEM.SOLV>
0

>  <SCORE.SYSTEM.norm>
0

>  <SCORE.heavy>
22

>  <SCORE.norm>
-0.730986

>  <RMSD>
8.096

$$$$
ligand
 OpenBabel11021811503D
libRbt.so/2013.1/901 2013/11/27
 22 24  0  0  0  0  0  0  0  0999 V2000
    0.9380    5.1892   20.5269 C   0  0  0  0  0  0  0  0  0  0  0  0
   -0.4077    5.6095   20.4703 C   0  0  0  0  0  0  0  0  0  0  0  0
   -1.1252    5.7664   21.6531 C   0  0  0  0  0  0  0  0  0  0  0  0
   -0.4981    5.5028   22.8833 C   0  0  0  0  0  0  0  0  0  0  0  0
    0.8501    5.0717   22.9410 C   0  0  0  0  0  0  0  0  0  0  0  0
    1.5637    4.9152   21.7606 C   0  0  0  0  0  0  0  0  0  0  0  0
    1.7406    4.9936   19.2262 C   0  0  0  0  0  0  0  0  0  0  0  0
    1.8218    3.5313   18.7213 C   0  0  0  0  0  0  0  0  0  0  0  0
    2.6547    2.6179   19.6133 C   0  0  0  0  0  0  0  0  0  0  0  0
    2.1553    1.9652   20.7444 C   0  0  0  0  0  0  0  0  0  0  0  0
    3.1816    1.2459   21.2692 N   0  0  0  0  0  0  0  0  0  0  0  0
    4.3466    1.3861   20.5417 C   0  0  0  0  0  0  0  0  0  0  0  0
    4.0609    2.2429   19.4843 C   0  0  0  0  0  0  0  0  0  0  0  0
    5.1386    2.5436   18.5675 C   0  0  0  0  0  0  0  0  0  0  0  0
    4.9221    3.3872   17.4814 O   0  0  0  0  0  0  0  0  0  0  0  0
    6.3894    1.9825   18.7878 N   0  0  0  0  0  0  0  0  0  0  0  0
    6.6213    1.1380   19.8345 C   0  0  0  0  0  0  0  0  0  0  0  0
    5.6449    0.8373   20.7050 N   0  0  0  0  0  0  0  0  0  0  0  0
    7.9555    0.5571   20.0163 N   0  0  0  0  0  0  0  0  0  0  0  0
   -1.2990    5.6754   24.1466 C   0  0  0  0  0  0  0  0  0  0  0  0
   -2.1202    4.8227   24.4791 O   0  0  0  0  0  0  0  0  0  0  0  0
   -1.0898    6.8530   24.9464 N   0  0  0  0  0  0  0  0  0  0  0  0
  1  2  2  0  0  0  0
  1  6  1  0  0  0  0
  1  7  1  0  0  0  0
  2  3  1  0  0  0  0
  3  4  2  0  0  0  0
  4  5  1  0  0  0  0
  4 20  1  0  0  0  0
  5  6  2  0  0  0  0
  7  8  1  0  0  0  0
  8  9  1  0  0  0  0
  9 10  2  0  0  0  0
  9 13  1  0  0  0  0
 10 11  1  0  0  0  0
 11 12  1  0  0  0  0
 12 13  2  0  0  0  0
 12 18  1  0  0  0  0
 13 14  1  0  0  0  0
 14 15  1  0  0  0  0
 14 16  2  0  0  0  0
 16 17  1  0  0  0  0
 17 18  2  0  0  0  0
 17 19  1  0  0  0  0
 20 21  2  0  0  0  0
 20 22  1  0  0  0  0
M  END
>  <CHROM.1>
-97.81057221,77.07006966,-68.52417481,84.94183744,2.46080988,3.52060243,20.84168708
2.87043786,-0.64693232,1.89976946

>  <Name>
ligand

>  <RI>
0

>  <Rbt.Current_Directory>
/home/itssahil/PROJECTS/Mol_Feturizer/New_Systems/rnas/4LVY

>  <Rbt.Executable>
rbdock ($Id: //depot/dev/client3/rdock/2013.1/src/exe/rbdock.cxx#4 $)

>  <Rbt.Library>
libRbt.so (2013.1, Build901 2013/11/27)

>  <Rbt.Parameter_File>
/export/apps/rDock/src/rDock_2013.1_src/data/scripts/dock_solv.prm

>  <Rbt.Receptor>
prm/pocket_docking_4.prm

>  <SCORE>
-16.6364

>  <SCORE.INTER>
-15.6344

>  <SCORE.INTER.CONST>
1

>  <SCORE.INTER.POLAR>
0

>  <SCORE.INTER.ROT>
4

>  <SCORE.INTER.SOLV>
12.8874

>  <SCORE.INTER.VDW>
-20.9854

>  <SCORE.INTER.norm>
-0.710656

>  <SCORE.INTRA>
-1.00196

>  <SCORE.INTRA.DIHEDRAL>
0.300939

>  <SCORE.INTRA.DIHEDRAL.0>
6.18831

>  <SCORE.INTRA.POLAR>
0

>  <SCORE.INTRA.POLAR.0>
0

>  <SCORE.INTRA.REPUL>
0

>  <SCORE.INTRA.REPUL.0>
0

>  <SCORE.INTRA.SOLV>
0.128089

>  <SCORE.INTRA.SOLV.lig_0>
-44.3465

>  <SCORE.INTRA.VDW>
-1.21647

>  <SCORE.INTRA.VDW.0>
-0.778272

>  <SCORE.INTRA.norm>
-0.0455435

>  <SCORE.RESTR>
0

>  <SCORE.RESTR.CAVITY>
0

>  <SCORE.RESTR.norm>
0

>  <SCORE.SYSTEM>
0

>  <SCORE.SYSTEM.CONST>
0

>  <SCORE.SYSTEM.DIHEDRAL>
0

>  <SCORE.SYSTEM.SOLV>
0

>  <SCORE.SYSTEM.norm>
0

>  <SCORE.heavy>
22

>  <SCORE.norm>
-0.756199

>  <RMSD>
8.104

$$$$
ligand
 OpenBabel11021811503D
libRbt.so/2013.1/901 2013/11/27
 22 24  0  0  0  0  0  0  0  0999 V2000
    0.2279    4.5053   20.4590 C   0  0  0  0  0  0  0  0  0  0  0  0
    0.1858    5.8741   20.7982 C   0  0  0  0  0  0  0  0  0  0  0  0
   -0.3533    6.2588   22.0229 C   0  0  0  0  0  0  0  0  0  0  0  0
   -0.8474    5.2779   22.9004 C   0  0  0  0  0  0  0  0  0  0  0  0
   -0.8144    3.9039   22.5570 C   0  0  0  0  0  0  0  0  0  0  0  0
   -0.2771    3.5224   21.3352 C   0  0  0  0  0  0  0  0  0  0  0  0
    0.8049    4.0644   19.1001 C   0  0  0  0  0  0  0  0  0  0  0  0
    2.3496    3.9583   19.0486 C   0  0  0  0  0  0  0  0  0  0  0  0
    2.9148    2.8061   19.8711 C   0  0  0  0  0  0  0  0  0  0  0  0
    2.1630    2.0524   20.7776 C   0  0  0  0  0  0  0  0  0  0  0  0
    3.0010    1.1232   21.3073 N   0  0  0  0  0  0  0  0  0  0  0  0
    4.2804    1.2191   20.7974 C   0  0  0  0  0  0  0  0  0  0  0  0
    4.2730    2.2679   19.8844 C   0  0  0  0  0  0  0  0  0  0  0  0
    5.5165    2.5634   19.2070 C   0  0  0  0  0  0  0  0  0  0  0  0
    5.5802    3.5945   18.2738 O   0  0  0  0  0  0  0  0  0  0  0  0
    6.6431    1.8076   19.5027 N   0  0  0  0  0  0  0  0  0  0  0  0
    6.6010    0.7800   20.3998 C   0  0  0  0  0  0  0  0  0  0  0  0
    5.4645    0.4782   21.0471 N   0  0  0  0  0  0  0  0  0  0  0  0
    7.8137   -0.0002   20.6668 N   0  0  0  0  0  0  0  0  0  0  0  0
   -1.4298    5.7223   24.2159 C   0  0  0  0  0  0  0  0  0  0  0  0
   -2.3062    5.0539   24.7610 O   0  0  0  0  0  0  0  0  0  0  0  0
   -0.9478    6.9391   24.8134 N   0  0  0  0  0  0  0  0  0  0  0  0
  1  2  2  0  0  0  0
  1  6  1  0  0  0  0
  1  7  1  0  0  0  0
  2  3  1  0  0  0  0
  3  4  2  0  0  0  0
  4  5  1  0  0  0  0
  4 20  1  0  0  0  0
  5  6  2  0  0  0  0
  7  8  1  0  0  0  0
  8  9  1  0  0  0  0
  9 10  2  0  0  0  0
  9 13  1  0  0  0  0
 10 11  1  0  0  0  0
 11 12  1  0  0  0  0
 12 13  2  0  0  0  0
 12 18  1  0  0  0  0
 13 14  1  0  0  0  0
 14 15  1  0  0  0  0
 14 16  2  0  0  0  0
 16 17  1  0  0  0  0
 17 18  2  0  0  0  0
 17 19  1  0  0  0  0
 20 21  2  0  0  0  0
 20 22  1  0  0  0  0
M  END
>  <CHROM.1>
82.13460935,151.36519820,69.44402161,-10.78617559,2.35458273,3.34487154,21.07689558
3.00777432,-0.62729575,2.02448199

>  <Name>
ligand

>  <RI>
0

>  <Rbt.Current_Directory>
/home/itssahil/PROJECTS/Mol_Feturizer/New_Systems/rnas/4LVY

>  <Rbt.Executable>
rbdock ($Id: //depot/dev/client3/rdock/2013.1/src/exe/rbdock.cxx#4 $)

>  <Rbt.Library>
libRbt.so (2013.1, Build901 2013/11/27)

>  <Rbt.Parameter_File>
/export/apps/rDock/src/rDock_2013.1_src/data/scripts/dock_solv.prm

>  <Rbt.Receptor>
prm/pocket_docking_4.prm

>  <SCORE>
-16.8206

>  <SCORE.INTER>
-17.0115

>  <SCORE.INTER.CONST>
1

>  <SCORE.INTER.POLAR>
0

>  <SCORE.INTER.ROT>
4

>  <SCORE.INTER.SOLV>
13.0411

>  <SCORE.INTER.VDW>
-21.9547

>  <SCORE.INTER.norm>
-0.773251

>  <SCORE.INTRA>
0.19091

>  <SCORE.INTRA.DIHEDRAL>
0.445531

>  <SCORE.INTRA.DIHEDRAL.0>
6.18831

>  <SCORE.INTRA.POLAR>
0

>  <SCORE.INTRA.POLAR.0>
0

>  <SCORE.INTRA.REPUL>
0

>  <SCORE.INTRA.REPUL.0>
0

>  <SCORE.INTRA.SOLV>
0.00618554

>  <SCORE.INTRA.SOLV.lig_0>
-44.3465

>  <SCORE.INTRA.VDW>
-0.0349484

>  <SCORE.INTRA.VDW.0>
-0.778272

>  <SCORE.INTRA.norm>
0.00867772

>  <SCORE.RESTR>
0

>  <SCORE.RESTR.CAVITY>
0

>  <SCORE.RESTR.norm>
0

>  <SCORE.SYSTEM>
0

>  <SCORE.SYSTEM.CONST>
0

>  <SCORE.SYSTEM.DIHEDRAL>
0

>  <SCORE.SYSTEM.SOLV>
0

>  <SCORE.SYSTEM.norm>
0

>  <SCORE.heavy>
22

>  <SCORE.norm>
-0.764573

>  <RMSD>
8.111

$$$$
ligand
 OpenBabel11021811503D
libRbt.so/2013.1/901 2013/11/27
 22 24  0  0  0  0  0  0  0  0999 V2000
    0.6109    3.4261   21.5025 C   0  0  0  0  0  0  0  0  0  0  0  0
    1.3432    3.9628   22.5824 C   0  0  0  0  0  0  0  0  0  0  0  0
    0.6887    4.7432   23.5316 C   0  0  0  0  0  0  0  0  0  0  0  0
   -0.6898    4.9843   23.3981 C   0  0  0  0  0  0  0  0  0  0  0  0
   -1.4244    4.4538   22.3091 C   0  0  0  0  0  0  0  0  0  0  0  0
   -0.7699    3.6765   21.3633 C   0  0  0  0  0  0  0  0  0  0  0  0
    1.3238    2.5752   20.4338 C   0  0  0  0  0  0  0  0  0  0  0  0
    2.0652    3.3847   19.3406 C   0  0  0  0  0  0  0  0  0  0  0  0
    3.4228    2.8051   18.9606 C   0  0  0  0  0  0  0  0  0  0  0  0
    3.9728    2.8828   17.6775 C   0  0  0  0  0  0  0  0  0  0  0  0
    5.1821    2.2656   17.7293 N   0  0  0  0  0  0  0  0  0  0  0  0
    5.4685    1.7775   18.9886 C   0  0  0  0  0  0  0  0  0  0  0  0
    4.3859    2.0968   19.8007 C   0  0  0  0  0  0  0  0  0  0  0  0
    4.4552    1.6872   21.1862 C   0  0  0  0  0  0  0  0  0  0  0  0
    3.4109    1.9808   22.0587 O   0  0  0  0  0  0  0  0  0  0  0  0
    5.5743    0.9960   21.6311 N   0  0  0  0  0  0  0  0  0  0  0  0
    6.6188    0.7128   20.7995 C   0  0  0  0  0  0  0  0  0  0  0  0
    6.5881    1.0774   19.5081 N   0  0  0  0  0  0  0  0  0  0  0  0
    7.7865   -0.0054   21.3201 N   0  0  0  0  0  0  0  0  0  0  0  0
   -1.3714    5.8360   24.4360 C   0  0  0  0  0  0  0  0  0  0  0  0
   -2.4088    5.4478   24.9699 O   0  0  0  0  0  0  0  0  0  0  0  0
   -0.7914    7.1064   24.7821 N   0  0  0  0  0  0  0  0  0  0  0  0
  1  2  2  0  0  0  0
  1  6  1  0  0  0  0
  1  7  1  0  0  0  0
  2  3  1  0  0  0  0
  3  4  2  0  0  0  0
  4  5  1  0  0  0  0
  4 20  1  0  0  0  0
  5  6  2  0  0  0  0
  7  8  1  0  0  0  0
  8  9  1  0  0  0  0
  9 10  2  0  0  0  0
  9 13  1  0  0  0  0
 10 11  1  0  0  0  0
 11 12  1  0  0  0  0
 12 13  2  0  0  0  0
 12 18  1  0  0  0  0
 13 14  1  0  0  0  0
 14 15  1  0  0  0  0
 14 16  2  0  0  0  0
 16 17  1  0  0  0  0
 17 18  2  0  0  0  0
 17 19  1  0  0  0  0
 20 21  2  0  0  0  0
 20 22  1  0  0  0  0
M  END
>  <CHROM.1>
-81.31430050,-130.40543139,138.84877456,147.40713131,2.53404433,3.07341368
21.31896278,2.66430044,-0.50973168,1.53966123

>  <Name>
ligand

>  <RI>
0

>  <Rbt.Current_Directory>
/home/itssahil/PROJECTS/Mol_Feturizer/New_Systems/rnas/4LVY

>  <Rbt.Executable>
rbdock ($Id: //depot/dev/client3/rdock/2013.1/src/exe/rbdock.cxx#4 $)

>  <Rbt.Library>
libRbt.so (2013.1, Build901 2013/11/27)

>  <Rbt.Parameter_File>
/export/apps/rDock/src/rDock_2013.1_src/data/scripts/dock_solv.prm

>  <Rbt.Receptor>
prm/pocket_docking_3.prm

>  <SCORE>
-15.422

>  <SCORE.INTER>
-18.2908

>  <SCORE.INTER.CONST>
1

>  <SCORE.INTER.POLAR>
0

>  <SCORE.INTER.ROT>
4

>  <SCORE.INTER.SOLV>
13.115

>  <SCORE.INTER.VDW>
-22.8322

>  <SCORE.INTER.norm>
-0.831402

>  <SCORE.INTRA>
2.86881

>  <SCORE.INTRA.DIHEDRAL>
4.6895

>  <SCORE.INTRA.DIHEDRAL.0>
6.18831

>  <SCORE.INTRA.POLAR>
0

>  <SCORE.INTRA.POLAR.0>
0

>  <SCORE.INTRA.REPUL>
0

>  <SCORE.INTRA.REPUL.0>
0

>  <SCORE.INTRA.SOLV>
0.685813

>  <SCORE.INTRA.SOLV.lig_0>
-44.3465

>  <SCORE.INTRA.VDW>
0.181151

>  <SCORE.INTRA.VDW.0>
-0.778272

>  <SCORE.INTRA.norm>
0.1304

>  <SCORE.RESTR>
0

>  <SCORE.RESTR.CAVITY>
0

>  <SCORE.RESTR.norm>
0

>  <SCORE.SYSTEM>
0

>  <SCORE.SYSTEM.CONST>
0

>  <SCORE.SYSTEM.DIHEDRAL>
0

>  <SCORE.SYSTEM.SOLV>
0

>  <SCORE.SYSTEM.norm>
0

>  <SCORE.heavy>
22

>  <SCORE.norm>
-0.701002

>  <RMSD>
8.122

$$$$
ligand
 OpenBabel11021811503D
libRbt.so/2013.1/901 2013/11/27
 22 24  0  0  0  0  0  0  0  0999 V2000
    0.6167    3.4264   21.4311 C   0  0  0  0  0  0  0  0  0  0  0  0
    1.3493    3.9250   22.5290 C   0  0  0  0  0  0  0  0  0  0  0  0
    0.6995    4.6899   23.4938 C   0  0  0  0  0  0  0  0  0  0  0  0
   -0.6747    4.9535   23.3581 C   0  0  0  0  0  0  0  0  0  0  0  0
   -1.4094    4.4614   22.2514 C   0  0  0  0  0  0  0  0  0  0  0  0
   -0.7595    3.6995   21.2900 C   0  0  0  0  0  0  0  0  0  0  0  0
    1.3247    2.5934   20.3453 C   0  0  0  0  0  0  0  0  0  0  0  0
    2.0606    3.4208   19.2619 C   0  0  0  0  0  0  0  0  0  0  0  0
    3.4122    2.8427   18.8589 C   0  0  0  0  0  0  0  0  0  0  0  0
    3.9399    2.9203   17.5665 C   0  0  0  0  0  0  0  0  0  0  0  0
    5.1507    2.3046   17.5978 N   0  0  0  0  0  0  0  0  0  0  0  0
    5.4594    1.8177   18.8523 C   0  0  0  0  0  0  0  0  0  0  0  0
    4.3905    2.1362   19.6827 C   0  0  0  0  0  0  0  0  0  0  0  0
    4.4842    1.7276   21.0671 C   0  0  0  0  0  0  0  0  0  0  0  0
    3.4547    2.0205   21.9573 O   0  0  0  0  0  0  0  0  0  0  0  0
    5.6116    1.0381   21.4932 N   0  0  0  0  0  0  0  0  0  0  0  0
    6.6420    0.7557   20.6439 C   0  0  0  0  0  0  0  0  0  0  0  0
    6.5886    1.1193   19.3530 N   0  0  0  0  0  0  0  0  0  0  0  0
    7.8195    0.0393   21.1448 N   0  0  0  0  0  0  0  0  0  0  0  0
   -1.3511    5.7878   24.4134 C   0  0  0  0  0  0  0  0  0  0  0  0
   -2.3820    5.3874   24.9509 O   0  0  0  0  0  0  0  0  0  0  0  0
   -0.7741    7.0561   24.7717 N   0  0  0  0  0  0  0  0  0  0  0  0
  1  2  2  0  0  0  0
  1  6  1  0  0  0  0
  1  7  1  0  0  0  0
  2  3  1  0  0  0  0
  3  4  2  0  0  0  0
  4  5  1  0  0  0  0
  4 20  1  0  0  0  0
  5  6  2  0  0  0  0
  7  8  1  0  0  0  0
  8  9  1  0  0  0  0
  9 10  2  0  0  0  0
  9 13  1  0  0  0  0
 10 11  1  0  0  0  0
 11 12  1  0  0  0  0
 12 13  2  0  0  0  0
 12 18  1  0  0  0  0
 13 14  1  0  0  0  0
 14 15  1  0  0  0  0
 14 16  2  0  0  0  0
 16 17  1  0  0  0  0
 17 18  2  0  0  0  0
 17 19  1  0  0  0  0
 20 21  2  0  0  0  0
 20 22  1  0  0  0  0
M  END
>  <CHROM.1>
-82.47900887,-128.87326227,139.25209320,146.09714506,2.54426399,3.08480419
21.22811601,2.65140514,-0.50144650,1.54032353

>  <Name>
ligand

>  <RI>
0

>  <Rbt.Current_Directory>
/home/itssahil/PROJECTS/Mol_Feturizer/New_Systems/rnas/4LVY

>  <Rbt.Executable>
rbdock ($Id: //depot/dev/client3/rdock/2013.1/src/exe/rbdock.cxx#4 $)

>  <Rbt.Library>
libRbt.so (2013.1, Build901 2013/11/27)

>  <Rbt.Parameter_File>
/export/apps/rDock/src/rDock_2013.1_src/data/scripts/dock_solv.prm

>  <Rbt.Receptor>
prm/pocket_docking_7.prm

>  <SCORE>
-15.4218

>  <SCORE.INTER>
-18.134

>  <SCORE.INTER.CONST>
1

>  <SCORE.INTER.POLAR>
0

>  <SCORE.INTER.ROT>
4

>  <SCORE.INTER.SOLV>
13.1774

>  <SCORE.INTER.VDW>
-22.7484

>  <SCORE.INTER.norm>
-0.824271

>  <SCORE.INTRA>
2.71217

>  <SCORE.INTRA.DIHEDRAL>
4.6318

>  <SCORE.INTRA.DIHEDRAL.0>
6.18831

>  <SCORE.INTRA.POLAR>
0

>  <SCORE.INTRA.POLAR.0>
0

>  <SCORE.INTRA.REPUL>
0

>  <SCORE.INTRA.REPUL.0>
0

>  <SCORE.INTRA.SOLV>
0.681425

>  <SCORE.INTRA.SOLV.lig_0>
-44.3465

>  <SCORE.INTRA.VDW>
0.0555563

>  <SCORE.INTRA.VDW.0>
-0.778272

>  <SCORE.INTRA.norm>
0.123281

>  <SCORE.RESTR>
0

>  <SCORE.RESTR.CAVITY>
0

>  <SCORE.RESTR.norm>
0

>  <SCORE.SYSTEM>
0

>  <SCORE.SYSTEM.CONST>
0

>  <SCORE.SYSTEM.DIHEDRAL>
0

>  <SCORE.SYSTEM.SOLV>
0

>  <SCORE.SYSTEM.norm>
0

>  <SCORE.heavy>
22

>  <SCORE.norm>
-0.700991

>  <RMSD>
8.124

$$$$
ligand
 OpenBabel11021811503D
libRbt.so/2013.1/901 2013/11/27
 22 24  0  0  0  0  0  0  0  0999 V2000
    0.6398    3.4235   21.4347 C   0  0  0  0  0  0  0  0  0  0  0  0
    1.3691    3.9362   22.5283 C   0  0  0  0  0  0  0  0  0  0  0  0
    0.7128    4.6995   23.4901 C   0  0  0  0  0  0  0  0  0  0  0  0
   -0.6644    4.9475   23.3556 C   0  0  0  0  0  0  0  0  0  0  0  0
   -1.3959    4.4413   22.2531 C   0  0  0  0  0  0  0  0  0  0  0  0
   -0.7396    3.6810   21.2948 C   0  0  0  0  0  0  0  0  0  0  0  0
    1.3547    2.5920   20.3523 C   0  0  0  0  0  0  0  0  0  0  0  0
    2.0505    3.4208   19.2438 C   0  0  0  0  0  0  0  0  0  0  0  0
    3.4083    2.8696   18.8243 C   0  0  0  0  0  0  0  0  0  0  0  0
    3.9134    2.9469   17.5228 C   0  0  0  0  0  0  0  0  0  0  0  0
    5.1381    2.3589   17.5402 N   0  0  0  0  0  0  0  0  0  0  0  0
    5.4778    1.8909   18.7939 C   0  0  0  0  0  0  0  0  0  0  0  0
    4.4153    2.1931   19.6385 C   0  0  0  0  0  0  0  0  0  0  0  0
    4.5404    1.7996   21.0248 C   0  0  0  0  0  0  0  0  0  0  0  0
    3.5188    2.0776   21.9288 O   0  0  0  0  0  0  0  0  0  0  0  0
    5.6898    1.1397   21.4388 N   0  0  0  0  0  0  0  0  0  0  0  0
    6.7126    0.8726   20.5756 C   0  0  0  0  0  0  0  0  0  0  0  0
    6.6304    1.2229   19.2824 N   0  0  0  0  0  0  0  0  0  0  0  0
    7.9138    0.1876   21.0637 N   0  0  0  0  0  0  0  0  0  0  0  0
   -1.3478    5.7804   24.4075 C   0  0  0  0  0  0  0  0  0  0  0  0
   -2.3772    5.3752   24.9442 O   0  0  0  0  0  0  0  0  0  0  0  0
   -0.7791    7.0532   24.7636 N   0  0  0  0  0  0  0  0  0  0  0  0
  1  2  2  0  0  0  0
  1  6  1  0  0  0  0
  1  7  1  0  0  0  0
  2  3  1  0  0  0  0
  3  4  2  0  0  0  0
  4  5  1  0  0  0  0
  4 20  1  0  0  0  0
  5  6  2  0  0  0  0
  7  8  1  0  0  0  0
  8  9  1  0  0  0  0
  9 10  2  0  0  0  0
  9 13  1  0  0  0  0
 10 11  1  0  0  0  0
 11 12  1  0  0  0  0
 12 13  2  0  0  0  0
 12 18  1  0  0  0  0
 13 14  1  0  0  0  0
 14 15  1  0  0  0  0
 14 16  2  0  0  0  0
 16 17  1  0  0  0  0
 17 18  2  0  0  0  0
 17 19  1  0  0  0  0
 20 21  2  0  0  0  0
 20 22  1  0  0  0  0
M  END
>  <CHROM.1>
-83.89364076,-129.26144069,139.57371956,146.43832862,2.56890932,3.12125846
21.19996676,2.63693739,-0.47952458,1.52217302

>  <Name>
ligand

>  <RI>
0

>  <Rbt.Current_Directory>
/home/itssahil/PROJECTS/Mol_Feturizer/New_Systems/rnas/4LVY

>  <Rbt.Executable>
rbdock ($Id: //depot/dev/client3/rdock/2013.1/src/exe/rbdock.cxx#4 $)

>  <Rbt.Library>
libRbt.so (2013.1, Build901 2013/11/27)

>  <Rbt.Parameter_File>
/export/apps/rDock/src/rDock_2013.1_src/data/scripts/dock_solv.prm

>  <Rbt.Receptor>
prm/pocket_docking_3.prm

>  <SCORE>
-15.3925

>  <SCORE.INTER>
-18.1116

>  <SCORE.INTER.CONST>
1

>  <SCORE.INTER.POLAR>
0

>  <SCORE.INTER.ROT>
4

>  <SCORE.INTER.SOLV>
12.6614

>  <SCORE.INTER.VDW>
-22.5615

>  <SCORE.INTER.norm>
-0.823253

>  <SCORE.INTRA>
2.71904

>  <SCORE.INTRA.DIHEDRAL>
4.58661

>  <SCORE.INTRA.DIHEDRAL.0>
6.18831

>  <SCORE.INTRA.POLAR>
0

>  <SCORE.INTRA.POLAR.0>
0

>  <SCORE.INTRA.REPUL>
0

>  <SCORE.INTRA.REPUL.0>
0

>  <SCORE.INTRA.SOLV>
0.680649

>  <SCORE.INTRA.SOLV.lig_0>
-44.3465

>  <SCORE.INTRA.VDW>
0.0854174

>  <SCORE.INTRA.VDW.0>
-0.778272

>  <SCORE.INTRA.norm>
0.123593

>  <SCORE.RESTR>
0

>  <SCORE.RESTR.CAVITY>
0

>  <SCORE.RESTR.norm>
0

>  <SCORE.SYSTEM>
0

>  <SCORE.SYSTEM.CONST>
0

>  <SCORE.SYSTEM.DIHEDRAL>
0

>  <SCORE.SYSTEM.SOLV>
0

>  <SCORE.SYSTEM.norm>
0

>  <SCORE.heavy>
22

>  <SCORE.norm>
-0.699661

>  <RMSD>
8.127

$$$$
ligand
 OpenBabel11021811503D
libRbt.so/2013.1/901 2013/11/27
 22 24  0  0  0  0  0  0  0  0999 V2000
    0.2476    4.4419   20.4902 C   0  0  0  0  0  0  0  0  0  0  0  0
    0.2255    5.8141   20.8177 C   0  0  0  0  0  0  0  0  0  0  0  0
   -0.3131    6.2175   22.0365 C   0  0  0  0  0  0  0  0  0  0  0  0
   -0.8265    5.2519   22.9199 C   0  0  0  0  0  0  0  0  0  0  0  0
   -0.8135    3.8747   22.5883 C   0  0  0  0  0  0  0  0  0  0  0  0
   -0.2767    3.4745   21.3722 C   0  0  0  0  0  0  0  0  0  0  0  0
    0.8239    3.9806   19.1377 C   0  0  0  0  0  0  0  0  0  0  0  0
    2.3703    3.9143   19.0738 C   0  0  0  0  0  0  0  0  0  0  0  0
    2.9710    2.7719   19.8847 C   0  0  0  0  0  0  0  0  0  0  0  0
    2.2521    2.0103   20.8110 C   0  0  0  0  0  0  0  0  0  0  0  0
    3.1152    1.0939   21.3219 N   0  0  0  0  0  0  0  0  0  0  0  0
    4.3804    1.2058   20.7806 C   0  0  0  0  0  0  0  0  0  0  0  0
    4.3364    2.2521   19.8658 C   0  0  0  0  0  0  0  0  0  0  0  0
    5.5588    2.5628   19.1575 C   0  0  0  0  0  0  0  0  0  0  0  0
    5.5856    3.5924   18.2209 O   0  0  0  0  0  0  0  0  0  0  0  0
    6.7025    1.8231   19.4272 N   0  0  0  0  0  0  0  0  0  0  0  0
    6.6963    0.7971   20.3272 C   0  0  0  0  0  0  0  0  0  0  0  0
    5.5802    0.4815   21.0028 N   0  0  0  0  0  0  0  0  0  0  0  0
    7.9256    0.0341   20.5660 N   0  0  0  0  0  0  0  0  0  0  0  0
   -1.4079    5.7165   24.2289 C   0  0  0  0  0  0  0  0  0  0  0  0
   -2.3040    5.0719   24.7705 O   0  0  0  0  0  0  0  0  0  0  0  0
   -0.9014    6.9244   24.8243 N   0  0  0  0  0  0  0  0  0  0  0  0
  1  2  2  0  0  0  0
  1  6  1  0  0  0  0
  1  7  1  0  0  0  0
  2  3  1  0  0  0  0
  3  4  2  0  0  0  0
  4  5  1  0  0  0  0
  4 20  1  0  0  0  0
  5  6  2  0  0  0  0
  7  8  1  0  0  0  0
  8  9  1  0  0  0  0
  9 10  2  0  0  0  0
  9 13  1  0  0  0  0
 10 11  1  0  0  0  0
 11 12  1  0  0  0  0
 12 13  2  0  0  0  0
 12 18  1  0  0  0  0
 13 14  1  0  0  0  0
 14 15  1  0  0  0  0
 14 16  2  0  0  0  0
 16 17  1  0  0  0  0
 17 18  2  0  0  0  0
 17 19  1  0  0  0  0
 20 21  2  0  0  0  0
 20 22  1  0  0  0  0
M  END
>  <CHROM.1>
79.37268610,150.82408732,71.32401822,-12.06736319,2.40363427,3.32473390,21.07029935
2.99486781,-0.62301463,2.01605386

>  <Name>
ligand

>  <RI>
0

>  <Rbt.Current_Directory>
/home/itssahil/PROJECTS/Mol_Feturizer/New_Systems/rnas/4LVY

>  <Rbt.Executable>
rbdock ($Id: //depot/dev/client3/rdock/2013.1/src/exe/rbdock.cxx#4 $)

>  <Rbt.Library>
libRbt.so (2013.1, Build901 2013/11/27)

>  <Rbt.Parameter_File>
/export/apps/rDock/src/rDock_2013.1_src/data/scripts/dock_solv.prm

>  <Rbt.Receptor>
prm/pocket_docking_6.prm

>  <SCORE>
-16.9124

>  <SCORE.INTER>
-17.0737

>  <SCORE.INTER.CONST>
1

>  <SCORE.INTER.POLAR>
0

>  <SCORE.INTER.ROT>
4

>  <SCORE.INTER.SOLV>
12.7011

>  <SCORE.INTER.VDW>
-21.8828

>  <SCORE.INTER.norm>
-0.776077

>  <SCORE.INTRA>
0.161345

>  <SCORE.INTRA.DIHEDRAL>
0.597183

>  <SCORE.INTRA.DIHEDRAL.0>
6.18831

>  <SCORE.INTRA.POLAR>
0

>  <SCORE.INTRA.POLAR.0>
0

>  <SCORE.INTRA.REPUL>
0

>  <SCORE.INTRA.REPUL.0>
0

>  <SCORE.INTRA.SOLV>
0.00604147

>  <SCORE.INTRA.SOLV.lig_0>
-44.3465

>  <SCORE.INTRA.VDW>
-0.140268

>  <SCORE.INTRA.VDW.0>
-0.778272

>  <SCORE.INTRA.norm>
0.00733384

>  <SCORE.RESTR>
0

>  <SCORE.RESTR.CAVITY>
0

>  <SCORE.RESTR.norm>
0

>  <SCORE.SYSTEM>
0

>  <SCORE.SYSTEM.CONST>
0

>  <SCORE.SYSTEM.DIHEDRAL>
0

>  <SCORE.SYSTEM.SOLV>
0

>  <SCORE.SYSTEM.norm>
0

>  <SCORE.heavy>
22

>  <SCORE.norm>
-0.768743

>  <RMSD>
8.134

$$$$
ligand
 OpenBabel11021811503D
libRbt.so/2013.1/901 2013/11/27
 22 24  0  0  0  0  0  0  0  0999 V2000
    0.5860    3.5532   21.6256 C   0  0  0  0  0  0  0  0  0  0  0  0
   -0.8207    3.6591   21.6485 C   0  0  0  0  0  0  0  0  0  0  0  0
   -1.4307    4.4566   22.6129 C   0  0  0  0  0  0  0  0  0  0  0  0
   -0.6358    5.1422   23.5480 C   0  0  0  0  0  0  0  0  0  0  0  0
    0.7762    5.0293   23.5320 C   0  0  0  0  0  0  0  0  0  0  0  0
    1.3826    4.2330   22.5701 C   0  0  0  0  0  0  0  0  0  0  0  0
    1.2757    2.6605   20.5760 C   0  0  0  0  0  0  0  0  0  0  0  0
    2.0404    3.4258   19.4672 C   0  0  0  0  0  0  0  0  0  0  0  0
    3.3860    2.8062   19.1082 C   0  0  0  0  0  0  0  0  0  0  0  0
    3.9363    2.8267   17.8230 C   0  0  0  0  0  0  0  0  0  0  0  0
    5.1332    2.1879   17.8968 N   0  0  0  0  0  0  0  0  0  0  0  0
    5.4110    1.7400   19.1729 C   0  0  0  0  0  0  0  0  0  0  0  0
    4.3356    2.1098   19.9731 C   0  0  0  0  0  0  0  0  0  0  0  0
    4.3980    1.7491   21.3725 C   0  0  0  0  0  0  0  0  0  0  0  0
    3.3604    2.0946   22.2340 O   0  0  0  0  0  0  0  0  0  0  0  0
    5.5036    1.0525   21.8419 N   0  0  0  0  0  0  0  0  0  0  0  0
    6.5415    0.7189   21.0210 C   0  0  0  0  0  0  0  0  0  0  0  0
    6.5170    1.0371   19.7172 N   0  0  0  0  0  0  0  0  0  0  0  0
    7.6954   -0.0030   21.5669 N   0  0  0  0  0  0  0  0  0  0  0  0
   -1.3219    5.9935   24.5832 C   0  0  0  0  0  0  0  0  0  0  0  0
   -0.8675    7.0983   24.8747 O   0  0  0  0  0  0  0  0  0  0  0  0
   -2.5069    5.4882   25.2239 N   0  0  0  0  0  0  0  0  0  0  0  0
  1  2  2  0  0  0  0
  1  6  1  0  0  0  0
  1  7  1  0  0  0  0
  2  3  1  0  0  0  0
  3  4  2  0  0  0  0
  4  5  1  0  0  0  0
  4 20  1  0  0  0  0
  5  6  2  0  0  0  0
  7  8  1  0  0  0  0
  8  9  1  0  0  0  0
  9 10  2  0  0  0  0
  9 13  1  0  0  0  0
 10 11  1  0  0  0  0
 11 12  1  0  0  0  0
 12 13  2  0  0  0  0
 12 18  1  0  0  0  0
 13 14  1  0  0  0  0
 14 15  1  0  0  0  0
 14 16  2  0  0  0  0
 16 17  1  0  0  0  0
 17 18  2  0  0  0  0
 17 19  1  0  0  0  0
 20 21  2  0  0  0  0
 20 22  1  0  0  0  0
M  END
>  <CHROM.1>
108.98065947,-138.07216132,138.44809498,146.64996927,2.50904587,3.13698462
21.48529629,2.65320345,-0.51907006,1.51467792

>  <Name>
ligand

>  <RI>
0

>  <Rbt.Current_Directory>
/home/itssahil/PROJECTS/Mol_Feturizer/New_Systems/rnas/4LVY

>  <Rbt.Executable>
rbdock ($Id: //depot/dev/client3/rdock/2013.1/src/exe/rbdock.cxx#4 $)

>  <Rbt.Library>
libRbt.so (2013.1, Build901 2013/11/27)

>  <Rbt.Parameter_File>
/export/apps/rDock/src/rDock_2013.1_src/data/scripts/dock_solv.prm

>  <Rbt.Receptor>
prm/pocket_docking_3.prm

>  <SCORE>
-14.9566

>  <SCORE.INTER>
-17.8847

>  <SCORE.INTER.CONST>
1

>  <SCORE.INTER.POLAR>
0

>  <SCORE.INTER.ROT>
4

>  <SCORE.INTER.SOLV>
13.0981

>  <SCORE.INTER.VDW>
-22.5558

>  <SCORE.INTER.norm>
-0.812941

>  <SCORE.INTRA>
2.92816

>  <SCORE.INTRA.DIHEDRAL>
4.86442

>  <SCORE.INTRA.DIHEDRAL.0>
6.18831

>  <SCORE.INTRA.POLAR>
0

>  <SCORE.INTRA.POLAR.0>
0

>  <SCORE.INTRA.REPUL>
0

>  <SCORE.INTRA.REPUL.0>
0

>  <SCORE.INTRA.SOLV>
0.68356

>  <SCORE.INTRA.SOLV.lig_0>
-44.3465

>  <SCORE.INTRA.VDW>
0.154167

>  <SCORE.INTRA.VDW.0>
-0.778272

>  <SCORE.INTRA.norm>
0.133098

>  <SCORE.RESTR>
0

>  <SCORE.RESTR.CAVITY>
0

>  <SCORE.RESTR.norm>
0

>  <SCORE.SYSTEM>
0

>  <SCORE.SYSTEM.CONST>
0

>  <SCORE.SYSTEM.DIHEDRAL>
0

>  <SCORE.SYSTEM.SOLV>
0

>  <SCORE.SYSTEM.norm>
0

>  <SCORE.heavy>
22

>  <SCORE.norm>
-0.679843

>  <RMSD>
8.141

$$$$
ligand
 OpenBabel11021811503D
libRbt.so/2013.1/901 2013/11/27
 22 24  0  0  0  0  0  0  0  0999 V2000
    1.0877    4.9235   20.5809 C   0  0  0  0  0  0  0  0  0  0  0  0
    1.5780    4.5158   21.8394 C   0  0  0  0  0  0  0  0  0  0  0  0
    0.8064    4.7349   22.9774 C   0  0  0  0  0  0  0  0  0  0  0  0
   -0.4472    5.3590   22.8541 C   0  0  0  0  0  0  0  0  0  0  0  0
   -0.9366    5.7774   21.5922 C   0  0  0  0  0  0  0  0  0  0  0  0
   -0.1654    5.5587   20.4588 C   0  0  0  0  0  0  0  0  0  0  0  0
    1.9370    4.7046   19.3140 C   0  0  0  0  0  0  0  0  0  0  0  0
    2.0355    3.2335   18.8385 C   0  0  0  0  0  0  0  0  0  0  0  0
    2.9046    2.3554   19.7314 C   0  0  0  0  0  0  0  0  0  0  0  0
    2.4420    1.7177   20.8864 C   0  0  0  0  0  0  0  0  0  0  0  0
    3.4929    1.0294   21.4040 N   0  0  0  0  0  0  0  0  0  0  0  0
    4.6393    1.1762   20.6488 C   0  0  0  0  0  0  0  0  0  0  0  0
    4.3149    2.0046   19.5801 C   0  0  0  0  0  0  0  0  0  0  0  0
    5.3669    2.3061   18.6342 C   0  0  0  0  0  0  0  0  0  0  0  0
    5.1112    3.1220   17.5356 O   0  0  0  0  0  0  0  0  0  0  0  0
    6.6328    1.7737   18.8393 N   0  0  0  0  0  0  0  0  0  0  0  0
    6.9031    0.9563   19.8983 C   0  0  0  0  0  0  0  0  0  0  0  0
    5.9512    0.6558   20.7957 N   0  0  0  0  0  0  0  0  0  0  0  0
    8.2519    0.4050   20.0635 N   0  0  0  0  0  0  0  0  0  0  0  0
   -1.2584    5.5883   24.1018 C   0  0  0  0  0  0  0  0  0  0  0  0
   -2.1066    4.7676   24.4470 O   0  0  0  0  0  0  0  0  0  0  0  0
   -1.0268    6.7816   24.8715 N   0  0  0  0  0  0  0  0  0  0  0  0
  1  2  2  0  0  0  0
  1  6  1  0  0  0  0
  1  7  1  0  0  0  0
  2  3  1  0  0  0  0
  3  4  2  0  0  0  0
  4  5  1  0  0  0  0
  4 20  1  0  0  0  0
  5  6  2  0  0  0  0
  7  8  1  0  0  0  0
  8  9  1  0  0  0  0
  9 10  2  0  0  0  0
  9 13  1  0  0  0  0
 10 11  1  0  0  0  0
 11 12  1  0  0  0  0
 12 13  2  0  0  0  0
 12 18  1  0  0  0  0
 13 14  1  0  0  0  0
 14 15  1  0  0  0  0
 14 16  2  0  0  0  0
 16 17  1  0  0  0  0
 17 18  2  0  0  0  0
 17 19  1  0  0  0  0
 20 21  2  0  0  0  0
 20 22  1  0  0  0  0
M  END
>  <CHROM.1>
72.62903380,-94.16455884,-72.03033549,84.96685371,2.64578823,3.32212994,20.89104329
2.89488256,-0.63985583,1.90497448

>  <Name>
ligand

>  <RI>
0

>  <Rbt.Current_Directory>
/home/itssahil/PROJECTS/Mol_Feturizer/New_Systems/rnas/4LVY

>  <Rbt.Executable>
rbdock ($Id: //depot/dev/client3/rdock/2013.1/src/exe/rbdock.cxx#4 $)

>  <Rbt.Library>
libRbt.so (2013.1, Build901 2013/11/27)

>  <Rbt.Parameter_File>
/export/apps/rDock/src/rDock_2013.1_src/data/scripts/dock_solv.prm

>  <Rbt.Receptor>
prm/pocket_docking_3.prm

>  <SCORE>
-16.6747

>  <SCORE.INTER>
-15.926

>  <SCORE.INTER.CONST>
1

>  <SCORE.INTER.POLAR>
0

>  <SCORE.INTER.ROT>
4

>  <SCORE.INTER.SOLV>
12.3588

>  <SCORE.INTER.VDW>
-21.0036

>  <SCORE.INTER.norm>
-0.723911

>  <SCORE.INTRA>
-0.748614

>  <SCORE.INTRA.DIHEDRAL>
0.653321

>  <SCORE.INTRA.DIHEDRAL.0>
6.18831

>  <SCORE.INTRA.POLAR>
0

>  <SCORE.INTRA.POLAR.0>
0

>  <SCORE.INTRA.REPUL>
0

>  <SCORE.INTRA.REPUL.0>
0

>  <SCORE.INTRA.SOLV>
0.129492

>  <SCORE.INTRA.SOLV.lig_0>
-44.3465

>  <SCORE.INTRA.VDW>
-1.14002

>  <SCORE.INTRA.VDW.0>
-0.778272

>  <SCORE.INTRA.norm>
-0.0340279

>  <SCORE.RESTR>
0

>  <SCORE.RESTR.CAVITY>
0

>  <SCORE.RESTR.norm>
0

>  <SCORE.SYSTEM>
0

>  <SCORE.SYSTEM.CONST>
0

>  <SCORE.SYSTEM.DIHEDRAL>
0

>  <SCORE.SYSTEM.SOLV>
0

>  <SCORE.SYSTEM.norm>
0

>  <SCORE.heavy>
22

>  <SCORE.norm>
-0.757939

>  <RMSD>
8.146

$$$$
ligand
 OpenBabel11021811503D
libRbt.so/2013.1/901 2013/11/27
 22 24  0  0  0  0  0  0  0  0999 V2000
    0.2300    4.4801   20.3492 C   0  0  0  0  0  0  0  0  0  0  0  0
   -0.2477    3.5024   21.2473 C   0  0  0  0  0  0  0  0  0  0  0  0
   -0.7886    3.9003   22.4669 C   0  0  0  0  0  0  0  0  0  0  0  0
   -0.8492    5.2686   22.7837 C   0  0  0  0  0  0  0  0  0  0  0  0
   -0.3613    6.2508   21.8870 C   0  0  0  0  0  0  0  0  0  0  0  0
    0.1783    5.8520   20.6717 C   0  0  0  0  0  0  0  0  0  0  0  0
    0.8479    4.0554   19.0031 C   0  0  0  0  0  0  0  0  0  0  0  0
    2.3966    4.0383   18.9705 C   0  0  0  0  0  0  0  0  0  0  0  0
    3.0153    2.8785   19.7422 C   0  0  0  0  0  0  0  0  0  0  0  0
    2.3280    2.1206   20.6952 C   0  0  0  0  0  0  0  0  0  0  0  0
    3.1985    1.1850   21.1567 N   0  0  0  0  0  0  0  0  0  0  0  0
    4.4382    1.2805   20.5567 C   0  0  0  0  0  0  0  0  0  0  0  0
    4.3690    2.3359   19.6538 C   0  0  0  0  0  0  0  0  0  0  0  0
    5.5615    2.6323   18.8908 C   0  0  0  0  0  0  0  0  0  0  0  0
    5.5617    3.6700   17.9626 O   0  0  0  0  0  0  0  0  0  0  0  0
    6.7037    1.8709   19.0993 N   0  0  0  0  0  0  0  0  0  0  0  0
    6.7226    0.8370   19.9899 C   0  0  0  0  0  0  0  0  0  0  0  0
    5.6345    0.5341   20.7152 N   0  0  0  0  0  0  0  0  0  0  0  0
    7.9484    0.0510   20.1635 N   0  0  0  0  0  0  0  0  0  0  0  0
   -1.4342    5.6706   24.1117 C   0  0  0  0  0  0  0  0  0  0  0  0
   -2.3495    5.0160   24.6074 O   0  0  0  0  0  0  0  0  0  0  0  0
   -0.9083    6.8313   24.7797 N   0  0  0  0  0  0  0  0  0  0  0  0
  1  2  2  0  0  0  0
  1  6  1  0  0  0  0
  1  7  1  0  0  0  0
  2  3  1  0  0  0  0
  3  4  2  0  0  0  0
  4  5  1  0  0  0  0
  4 20  1  0  0  0  0
  5  6  2  0  0  0  0
  7  8  1  0  0  0  0
  8  9  1  0  0  0  0
  9 10  2  0  0  0  0
  9 13  1  0  0  0  0
 10 11  1  0  0  0  0
 11 12  1  0  0  0  0
 12 13  2  0  0  0  0
 12 18  1  0  0  0  0
 13 14  1  0  0  0  0
 14 15  1  0  0  0  0
 14 16  2  0  0  0  0
 16 17  1  0  0  0  0
 17 18  2  0  0  0  0
 17 19  1  0  0  0  0
 20 21  2  0  0  0  0
 20 22  1  0  0  0  0
M  END
>  <CHROM.1>
-99.73625001,-33.51767744,73.16610013,-17.30433092,2.41531013,3.36728365
20.88122196,2.99480150,-0.62461023,2.05089911

>  <Name>
ligand

>  <RI>
0

>  <Rbt.Current_Directory>
/home/itssahil/PROJECTS/Mol_Feturizer/New_Systems/rnas/4LVY

>  <Rbt.Executable>
rbdock ($Id: //depot/dev/client3/rdock/2013.1/src/exe/rbdock.cxx#4 $)

>  <Rbt.Library>
libRbt.so (2013.1, Build901 2013/11/27)

>  <Rbt.Parameter_File>
/export/apps/rDock/src/rDock_2013.1_src/data/scripts/dock_solv.prm

>  <Rbt.Receptor>
prm/pocket_docking_4.prm

>  <SCORE>
-16.6681

>  <SCORE.INTER>
-16.831

>  <SCORE.INTER.CONST>
1

>  <SCORE.INTER.POLAR>
0

>  <SCORE.INTER.ROT>
4

>  <SCORE.INTER.SOLV>
13.0271

>  <SCORE.INTER.VDW>
-21.8297

>  <SCORE.INTER.norm>
-0.765045

>  <SCORE.INTRA>
0.162863

>  <SCORE.INTRA.DIHEDRAL>
0.704672

>  <SCORE.INTRA.DIHEDRAL.0>
6.18831

>  <SCORE.INTRA.POLAR>
0

>  <SCORE.INTRA.POLAR.0>
0

>  <SCORE.INTRA.REPUL>
0

>  <SCORE.INTRA.REPUL.0>
0

>  <SCORE.INTRA.SOLV>
0.00302794

>  <SCORE.INTRA.SOLV.lig_0>
-44.3465

>  <SCORE.INTRA.VDW>
-0.190987

>  <SCORE.INTRA.VDW.0>
-0.778272

>  <SCORE.INTRA.norm>
0.00740286

>  <SCORE.RESTR>
0

>  <SCORE.RESTR.CAVITY>
0

>  <SCORE.RESTR.norm>
0

>  <SCORE.SYSTEM>
0

>  <SCORE.SYSTEM.CONST>
0

>  <SCORE.SYSTEM.DIHEDRAL>
0

>  <SCORE.SYSTEM.SOLV>
0

>  <SCORE.SYSTEM.norm>
0

>  <SCORE.heavy>
22

>  <SCORE.norm>
-0.757642

>  <RMSD>
8.179

$$$$
ligand
 OpenBabel11021811503D
libRbt.so/2013.1/901 2013/11/27
 22 24  0  0  0  0  0  0  0  0999 V2000
    2.2889    3.1652   22.4606 C   0  0  0  0  0  0  0  0  0  0  0  0
    1.2109    2.7629   21.6442 C   0  0  0  0  0  0  0  0  0  0  0  0
   -0.0249    3.3882   21.7863 C   0  0  0  0  0  0  0  0  0  0  0  0
   -0.1785    4.4088   22.7408 C   0  0  0  0  0  0  0  0  0  0  0  0
    0.9005    4.8072   23.5677 C   0  0  0  0  0  0  0  0  0  0  0  0
    2.1318    4.1820   23.4250 C   0  0  0  0  0  0  0  0  0  0  0  0
    3.6582    2.4710   22.3282 C   0  0  0  0  0  0  0  0  0  0  0  0
    3.7393    1.3899   21.2217 C   0  0  0  0  0  0  0  0  0  0  0  0
    3.7082    1.9549   19.8063 C   0  0  0  0  0  0  0  0  0  0  0  0
    2.5462    2.4026   19.1704 C   0  0  0  0  0  0  0  0  0  0  0  0
    2.9144    2.8350   17.9361 N   0  0  0  0  0  0  0  0  0  0  0  0
    4.2703    2.6978   17.7150 C   0  0  0  0  0  0  0  0  0  0  0  0
    4.8137    2.1473   18.8705 C   0  0  0  0  0  0  0  0  0  0  0  0
    6.2405    1.9099   18.8821 C   0  0  0  0  0  0  0  0  0  0  0  0
    6.8535    1.3687   20.0087 O   0  0  0  0  0  0  0  0  0  0  0  0
    6.9871    2.2259   17.7548 N   0  0  0  0  0  0  0  0  0  0  0  0
    6.4119    2.7745   16.6454 C   0  0  0  0  0  0  0  0  0  0  0  0
    5.0909    3.0080   16.5996 N   0  0  0  0  0  0  0  0  0  0  0  0
    7.2450    3.1064   15.4851 N   0  0  0  0  0  0  0  0  0  0  0  0
   -1.5272    5.0643   22.8770 C   0  0  0  0  0  0  0  0  0  0  0  0
   -2.2593    5.1815   21.8961 O   0  0  0  0  0  0  0  0  0  0  0  0
   -1.9351    5.5527   24.1675 N   0  0  0  0  0  0  0  0  0  0  0  0
  1  2  2  0  0  0  0
  1  6  1  0  0  0  0
  1  7  1  0  0  0  0
  2  3  1  0  0  0  0
  3  4  2  0  0  0  0
  4  5  1  0  0  0  0
  4 20  1  0  0  0  0
  5  6  2  0  0  0  0
  7  8  1  0  0  0  0
  8  9  1  0  0  0  0
  9 10  2  0  0  0  0
  9 13  1  0  0  0  0
 10 11  1  0  0  0  0
 11 12  1  0  0  0  0
 12 13  2  0  0  0  0
 12 18  1  0  0  0  0
 13 14  1  0  0  0  0
 14 15  1  0  0  0  0
 14 16  2  0  0  0  0
 16 17  1  0  0  0  0
 17 18  2  0  0  0  0
 17 19  1  0  0  0  0
 20 21  2  0  0  0  0
 20 22  1  0  0  0  0
M  END
>  <CHROM.1>
2.52581115,-31.81540197,70.57752996,-77.26769258,2.98888058,3.12234494,20.28864419
-2.55670361,0.43521738,-1.40039027

>  <Name>
ligand

>  <RI>
0

>  <Rbt.Current_Directory>
/home/itssahil/PROJECTS/Mol_Feturizer/New_Systems/rnas/4LVY

>  <Rbt.Executable>
rbdock ($Id: //depot/dev/client3/rdock/2013.1/src/exe/rbdock.cxx#4 $)

>  <Rbt.Library>
libRbt.so (2013.1, Build901 2013/11/27)

>  <Rbt.Parameter_File>
/export/apps/rDock/src/rDock_2013.1_src/data/scripts/dock_solv.prm

>  <Rbt.Receptor>
prm/pocket_docking_4.prm

>  <SCORE>
-14.085

>  <SCORE.INTER>
-14.548

>  <SCORE.INTER.CONST>
1

>  <SCORE.INTER.POLAR>
0

>  <SCORE.INTER.ROT>
4

>  <SCORE.INTER.SOLV>
12.05

>  <SCORE.INTER.VDW>
-19.982

>  <SCORE.INTER.norm>
-0.661273

>  <SCORE.INTRA>
0.462956

>  <SCORE.INTRA.DIHEDRAL>
0.480847

>  <SCORE.INTRA.DIHEDRAL.0>
6.18831

>  <SCORE.INTRA.POLAR>
0

>  <SCORE.INTRA.POLAR.0>
0

>  <SCORE.INTRA.REPUL>
0

>  <SCORE.INTRA.REPUL.0>
0

>  <SCORE.INTRA.SOLV>
0.112357

>  <SCORE.INTRA.SOLV.lig_0>
-44.3465

>  <SCORE.INTRA.VDW>
0.166354

>  <SCORE.INTRA.VDW.0>
-0.778272

>  <SCORE.INTRA.norm>
0.0210435

>  <SCORE.RESTR>
0

>  <SCORE.RESTR.CAVITY>
0

>  <SCORE.RESTR.norm>
0

>  <SCORE.SYSTEM>
0

>  <SCORE.SYSTEM.CONST>
0

>  <SCORE.SYSTEM.DIHEDRAL>
0

>  <SCORE.SYSTEM.SOLV>
0

>  <SCORE.SYSTEM.norm>
0

>  <SCORE.heavy>
22

>  <SCORE.norm>
-0.640229

>  <RMSD>
8.183

$$$$
ligand
 OpenBabel11021811503D
libRbt.so/2013.1/901 2013/11/27
 22 24  0  0  0  0  0  0  0  0999 V2000
    0.9053    3.2716   21.9413 C   0  0  0  0  0  0  0  0  0  0  0  0
   -0.5010    3.2925   21.8288 C   0  0  0  0  0  0  0  0  0  0  0  0
   -1.2395    4.1454   22.6445 C   0  0  0  0  0  0  0  0  0  0  0  0
   -0.5728    4.9705   23.5668 C   0  0  0  0  0  0  0  0  0  0  0  0
    0.8385    4.9437   23.6875 C   0  0  0  0  0  0  0  0  0  0  0  0
    1.5731    4.0921   22.8738 C   0  0  0  0  0  0  0  0  0  0  0  0
    1.7361    2.3205   21.0585 C   0  0  0  0  0  0  0  0  0  0  0  0
    3.2708    2.5036   21.1636 C   0  0  0  0  0  0  0  0  0  0  0  0
    3.9957    2.3987   19.8269 C   0  0  0  0  0  0  0  0  0  0  0  0
    5.2681    1.8404   19.6712 C   0  0  0  0  0  0  0  0  0  0  0  0
    5.5736    1.9190   18.3496 N   0  0  0  0  0  0  0  0  0  0  0  0
    4.5642    2.5044   17.6117 C   0  0  0  0  0  0  0  0  0  0  0  0
    3.5454    2.8223   18.5030 C   0  0  0  0  0  0  0  0  0  0  0  0
    2.3622    3.4509   17.9578 C   0  0  0  0  0  0  0  0  0  0  0  0
    1.2993    3.7892   18.7908 O   0  0  0  0  0  0  0  0  0  0  0  0
    2.3038    3.7140   16.5957 N   0  0  0  0  0  0  0  0  0  0  0  0
    3.3250    3.3750   15.7562 C   0  0  0  0  0  0  0  0  0  0  0  0
    4.4378    2.7909   16.2277 N   0  0  0  0  0  0  0  0  0  0  0  0
    3.2099    3.6586   14.3221 N   0  0  0  0  0  0  0  0  0  0  0  0
   -1.3965    5.8793   24.4402 C   0  0  0  0  0  0  0  0  0  0  0  0
   -2.5137    5.5294   24.8161 O   0  0  0  0  0  0  0  0  0  0  0  0
   -0.8558    7.1583   24.8170 N   0  0  0  0  0  0  0  0  0  0  0  0
  1  2  2  0  0  0  0
  1  6  1  0  0  0  0
  1  7  1  0  0  0  0
  2  3  1  0  0  0  0
  3  4  2  0  0  0  0
  4  5  1  0  0  0  0
  4 20  1  0  0  0  0
  5  6  2  0  0  0  0
  7  8  1  0  0  0  0
  8  9  1  0  0  0  0
  9 10  2  0  0  0  0
  9 13  1  0  0  0  0
 10 11  1  0  0  0  0
 11 12  1  0  0  0  0
 12 13  2  0  0  0  0
 12 18  1  0  0  0  0
 13 14  1  0  0  0  0
 14 15  1  0  0  0  0
 14 16  2  0  0  0  0
 16 17  1  0  0  0  0
 17 18  2  0  0  0  0
 17 19  1  0  0  0  0
 20 21  2  0  0  0  0
 20 22  1  0  0  0  0
M  END
>  <CHROM.1>
173.51758276,33.20940094,-139.53189140,-144.95381500,1.84653496,3.67055173
20.26906054,-2.27081892,0.55204813,-1.48836773

>  <Name>
ligand

>  <RI>
0

>  <Rbt.Current_Directory>
/home/itssahil/PROJECTS/Mol_Feturizer/New_Systems/rnas/4LVY

>  <Rbt.Executable>
rbdock ($Id: //depot/dev/client3/rdock/2013.1/src/exe/rbdock.cxx#4 $)

>  <Rbt.Library>
libRbt.so (2013.1, Build901 2013/11/27)

>  <Rbt.Parameter_File>
/export/apps/rDock/src/rDock_2013.1_src/data/scripts/dock_solv.prm

>  <Rbt.Receptor>
prm/pocket_docking_6.prm

>  <SCORE>
-14.2396

>  <SCORE.INTER>
-17.7653

>  <SCORE.INTER.CONST>
1

>  <SCORE.INTER.POLAR>
0

>  <SCORE.INTER.ROT>
4

>  <SCORE.INTER.SOLV>
12.737

>  <SCORE.INTER.VDW>
-22.3558

>  <SCORE.INTER.norm>
-0.807512

>  <SCORE.INTRA>
3.52564

>  <SCORE.INTRA.DIHEDRAL>
4.64803

>  <SCORE.INTRA.DIHEDRAL.0>
6.18831

>  <SCORE.INTRA.POLAR>
0

>  <SCORE.INTRA.POLAR.0>
0

>  <SCORE.INTRA.REPUL>
0

>  <SCORE.INTRA.REPUL.0>
0

>  <SCORE.INTRA.SOLV>
0.578475

>  <SCORE.INTRA.SOLV.lig_0>
-44.3465

>  <SCORE.INTRA.VDW>
0.912389

>  <SCORE.INTRA.VDW.0>
-0.778272

>  <SCORE.INTRA.norm>
0.160256

>  <SCORE.RESTR>
0

>  <SCORE.RESTR.CAVITY>
0

>  <SCORE.RESTR.norm>
0

>  <SCORE.SYSTEM>
0

>  <SCORE.SYSTEM.CONST>
0

>  <SCORE.SYSTEM.DIHEDRAL>
0

>  <SCORE.SYSTEM.SOLV>
0

>  <SCORE.SYSTEM.norm>
0

>  <SCORE.heavy>
22

>  <SCORE.norm>
-0.647255

>  <RMSD>
8.210

$$$$
ligand
 OpenBabel11021811503D
libRbt.so/2013.1/901 2013/11/27
 22 24  0  0  0  0  0  0  0  0999 V2000
    1.0748    5.0259   20.6374 C   0  0  0  0  0  0  0  0  0  0  0  0
    1.6840    4.9049   21.9042 C   0  0  0  0  0  0  0  0  0  0  0  0
    0.9491    5.2060   23.0478 C   0  0  0  0  0  0  0  0  0  0  0  0
   -0.3865    5.6261   22.9216 C   0  0  0  0  0  0  0  0  0  0  0  0
   -0.9964    5.7571   21.6497 C   0  0  0  0  0  0  0  0  0  0  0  0
   -0.2618    5.4571   20.5106 C   0  0  0  0  0  0  0  0  0  0  0  0
    1.8797    4.7138   19.3611 C   0  0  0  0  0  0  0  0  0  0  0  0
    1.9044    3.2198   18.9522 C   0  0  0  0  0  0  0  0  0  0  0  0
    2.8399    2.3654   19.7998 C   0  0  0  0  0  0  0  0  0  0  0  0
    2.4601    1.7393   20.9909 C   0  0  0  0  0  0  0  0  0  0  0  0
    3.5506    1.0714   21.4498 N   0  0  0  0  0  0  0  0  0  0  0  0
    4.6446    1.2207   20.6209 C   0  0  0  0  0  0  0  0  0  0  0  0
    4.2420    2.0292   19.5636 C   0  0  0  0  0  0  0  0  0  0  0  0
    5.2276    2.3292   18.5483 C   0  0  0  0  0  0  0  0  0  0  0  0
    4.8919    3.1257   17.4570 O   0  0  0  0  0  0  0  0  0  0  0  0
    6.5107    1.8150   18.6794 N   0  0  0  0  0  0  0  0  0  0  0  0
    6.8585    1.0167   19.7303 C   0  0  0  0  0  0  0  0  0  0  0  0
    5.9698    0.7182   20.6909 N   0  0  0  0  0  0  0  0  0  0  0  0
    8.2221    0.4840   19.8166 N   0  0  0  0  0  0  0  0  0  0  0  0
   -1.1562    5.9503   24.1744 C   0  0  0  0  0  0  0  0  0  0  0  0
   -0.8895    6.9629   24.8190 O   0  0  0  0  0  0  0  0  0  0  0  0
   -2.1975    5.0540   24.6016 N   0  0  0  0  0  0  0  0  0  0  0  0
  1  2  2  0  0  0  0
  1  6  1  0  0  0  0
  1  7  1  0  0  0  0
  2  3  1  0  0  0  0
  3  4  2  0  0  0  0
  4  5  1  0  0  0  0
  4 20  1  0  0  0  0
  5  6  2  0  0  0  0
  7  8  1  0  0  0  0
  8  9  1  0  0  0  0
  9 10  2  0  0  0  0
  9 13  1  0  0  0  0
 10 11  1  0  0  0  0
 11 12  1  0  0  0  0
 12 13  2  0  0  0  0
 12 18  1  0  0  0  0
 13 14  1  0  0  0  0
 14 15  1  0  0  0  0
 14 16  2  0  0  0  0
 16 17  1  0  0  0  0
 17 18  2  0  0  0  0
 17 19  1  0  0  0  0
 20 21  2  0  0  0  0
 20 22  1  0  0  0  0
M  END
>  <CHROM.1>
85.31672850,71.13420021,-76.26720257,88.29948920,2.62900500,3.44066174,20.89255700
2.83323783,-0.65538761,1.81820598

>  <Name>
ligand

>  <RI>
0

>  <Rbt.Current_Directory>
/home/itssahil/PROJECTS/Mol_Feturizer/New_Systems/rnas/4LVY

>  <Rbt.Executable>
rbdock ($Id: //depot/dev/client3/rdock/2013.1/src/exe/rbdock.cxx#4 $)

>  <Rbt.Library>
libRbt.so (2013.1, Build901 2013/11/27)

>  <Rbt.Parameter_File>
/export/apps/rDock/src/rDock_2013.1_src/data/scripts/dock_solv.prm

>  <Rbt.Receptor>
prm/pocket_docking_3.prm

>  <SCORE>
-15.9526

>  <SCORE.INTER>
-15.4673

>  <SCORE.INTER.CONST>
1

>  <SCORE.INTER.POLAR>
0

>  <SCORE.INTER.ROT>
4

>  <SCORE.INTER.SOLV>
12.7388

>  <SCORE.INTER.VDW>
-20.8245

>  <SCORE.INTER.norm>
-0.703058

>  <SCORE.INTRA>
-0.485312

>  <SCORE.INTRA.DIHEDRAL>
1.18256

>  <SCORE.INTRA.DIHEDRAL.0>
6.18831

>  <SCORE.INTRA.POLAR>
0

>  <SCORE.INTRA.POLAR.0>
0

>  <SCORE.INTRA.REPUL>
0

>  <SCORE.INTRA.REPUL.0>
0

>  <SCORE.INTRA.SOLV>
0.142964

>  <SCORE.INTRA.SOLV.lig_0>
-44.3465

>  <SCORE.INTRA.VDW>
-1.14808

>  <SCORE.INTRA.VDW.0>
-0.778272

>  <SCORE.INTRA.norm>
-0.0220596

>  <SCORE.RESTR>
0

>  <SCORE.RESTR.CAVITY>
0

>  <SCORE.RESTR.norm>
0

>  <SCORE.SYSTEM>
0

>  <SCORE.SYSTEM.CONST>
0

>  <SCORE.SYSTEM.DIHEDRAL>
0

>  <SCORE.SYSTEM.SOLV>
0

>  <SCORE.SYSTEM.norm>
0

>  <SCORE.heavy>
22

>  <SCORE.norm>
-0.725118

>  <RMSD>
8.215

$$$$
ligand
 OpenBabel11021811503D
libRbt.so/2013.1/901 2013/11/27
 22 24  0  0  0  0  0  0  0  0999 V2000
    1.7153    3.4128   19.0269 C   0  0  0  0  0  0  0  0  0  0  0  0
    1.1653    2.5301   19.9803 C   0  0  0  0  0  0  0  0  0  0  0  0
    0.2670    3.0180   20.9255 C   0  0  0  0  0  0  0  0  0  0  0  0
   -0.0765    4.3811   20.9150 C   0  0  0  0  0  0  0  0  0  0  0  0
    0.4822    5.2703   19.9643 C   0  0  0  0  0  0  0  0  0  0  0  0
    1.3783    4.7821   19.0231 C   0  0  0  0  0  0  0  0  0  0  0  0
    2.7246    2.8924   17.9854 C   0  0  0  0  0  0  0  0  0  0  0  0
    4.2127    3.0148   18.3985 C   0  0  0  0  0  0  0  0  0  0  0  0
    4.6188    2.0689   19.5226 C   0  0  0  0  0  0  0  0  0  0  0  0
    3.7901    1.7336   20.5977 C   0  0  0  0  0  0  0  0  0  0  0  0
    4.4903    0.8718   21.3807 N   0  0  0  0  0  0  0  0  0  0  0  0
    5.7507    0.6135   20.8799 C   0  0  0  0  0  0  0  0  0  0  0  0
    5.8759    1.3470   19.7053 C   0  0  0  0  0  0  0  0  0  0  0  0
    7.1263    1.2357   18.9865 C   0  0  0  0  0  0  0  0  0  0  0  0
    7.3183    1.9355   17.7984 O   0  0  0  0  0  0  0  0  0  0  0  0
    8.1305    0.4254   19.4993 N   0  0  0  0  0  0  0  0  0  0  0  0
    7.9592   -0.2848   20.6520 C   0  0  0  0  0  0  0  0  0  0  0  0
    6.8124   -0.2050   21.3450 N   0  0  0  0  0  0  0  0  0  0  0  0
    9.0435   -1.1401   21.1452 N   0  0  0  0  0  0  0  0  0  0  0  0
   -1.0463    4.8829   21.9518 C   0  0  0  0  0  0  0  0  0  0  0  0
   -1.5837    5.9805   21.8155 O   0  0  0  0  0  0  0  0  0  0  0  0
   -1.3235    4.0606   23.0994 N   0  0  0  0  0  0  0  0  0  0  0  0
  1  2  2  0  0  0  0
  1  6  1  0  0  0  0
  1  7  1  0  0  0  0
  2  3  1  0  0  0  0
  3  4  2  0  0  0  0
  4  5  1  0  0  0  0
  4 20  1  0  0  0  0
  5  6  2  0  0  0  0
  7  8  1  0  0  0  0
  8  9  1  0  0  0  0
  9 10  2  0  0  0  0
  9 13  1  0  0  0  0
 10 11  1  0  0  0  0
 11 12  1  0  0  0  0
 12 13  2  0  0  0  0
 12 18  1  0  0  0  0
 13 14  1  0  0  0  0
 14 15  1  0  0  0  0
 14 16  2  0  0  0  0
 16 17  1  0  0  0  0
 17 18  2  0  0  0  0
 17 19  1  0  0  0  0
 20 21  2  0  0  0  0
 20 22  1  0  0  0  0
M  END
>  <CHROM.1>
-92.35189498,-164.86247340,69.91643502,-36.74673172,3.62607893,2.39666738
20.20723136,-3.04029108,-0.50280424,2.03526612

>  <Name>
ligand

>  <RI>
0

>  <Rbt.Current_Directory>
/home/itssahil/PROJECTS/Mol_Feturizer/New_Systems/rnas/4LVY

>  <Rbt.Executable>
rbdock ($Id: //depot/dev/client3/rdock/2013.1/src/exe/rbdock.cxx#4 $)

>  <Rbt.Library>
libRbt.so (2013.1, Build901 2013/11/27)

>  <Rbt.Parameter_File>
/export/apps/rDock/src/rDock_2013.1_src/data/scripts/dock_solv.prm

>  <Rbt.Receptor>
prm/pocket_docking_4.prm

>  <SCORE>
-13.868

>  <SCORE.INTER>
-13.9877

>  <SCORE.INTER.CONST>
1

>  <SCORE.INTER.POLAR>
0

>  <SCORE.INTER.ROT>
4

>  <SCORE.INTER.SOLV>
10.0273

>  <SCORE.INTER.VDW>
-18.9342

>  <SCORE.INTER.norm>
-0.635805

>  <SCORE.INTRA>
0.119709

>  <SCORE.INTRA.DIHEDRAL>
0.395536

>  <SCORE.INTRA.DIHEDRAL.0>
6.18831

>  <SCORE.INTRA.POLAR>
0

>  <SCORE.INTRA.POLAR.0>
0

>  <SCORE.INTRA.REPUL>
0

>  <SCORE.INTRA.REPUL.0>
0

>  <SCORE.INTRA.SOLV>
0.00946746

>  <SCORE.INTRA.SOLV.lig_0>
-44.3465

>  <SCORE.INTRA.VDW>
-0.082793

>  <SCORE.INTRA.VDW.0>
-0.778272

>  <SCORE.INTRA.norm>
0.0054413

>  <SCORE.RESTR>
0

>  <SCORE.RESTR.CAVITY>
0

>  <SCORE.RESTR.norm>
0

>  <SCORE.SYSTEM>
0

>  <SCORE.SYSTEM.CONST>
0

>  <SCORE.SYSTEM.DIHEDRAL>
0

>  <SCORE.SYSTEM.SOLV>
0

>  <SCORE.SYSTEM.norm>
0

>  <SCORE.heavy>
22

>  <SCORE.norm>
-0.630364

>  <RMSD>
8.255

$$$$
ligand
 OpenBabel11021811503D
libRbt.so/2013.1/901 2013/11/27
 22 24  0  0  0  0  0  0  0  0999 V2000
    0.6894    4.5914   20.8036 C   0  0  0  0  0  0  0  0  0  0  0  0
   -0.7176    4.4909   20.8356 C   0  0  0  0  0  0  0  0  0  0  0  0
   -1.4027    4.8521   21.9925 C   0  0  0  0  0  0  0  0  0  0  0  0
   -0.6821    5.3099   23.1093 C   0  0  0  0  0  0  0  0  0  0  0  0
    0.7313    5.4022   23.0819 C   0  0  0  0  0  0  0  0  0  0  0  0
    1.4127    5.0409   21.9276 C   0  0  0  0  0  0  0  0  0  0  0  0
    1.4640    4.1787   19.5372 C   0  0  0  0  0  0  0  0  0  0  0  0
    1.7317    2.6590   19.4003 C   0  0  0  0  0  0  0  0  0  0  0  0
    2.8929    2.1598   20.2523 C   0  0  0  0  0  0  0  0  0  0  0  0
    2.7769    1.8090   21.6008 C   0  0  0  0  0  0  0  0  0  0  0  0
    4.0092    1.4107   22.0116 N   0  0  0  0  0  0  0  0  0  0  0  0
    4.9466    1.4782   21.0002 C   0  0  0  0  0  0  0  0  0  0  0  0
    4.2863    1.9446   19.8688 C   0  0  0  0  0  0  0  0  0  0  0  0
    5.0695    2.0977   18.6624 C   0  0  0  0  0  0  0  0  0  0  0  0
    4.4719    2.5520   17.4899 O   0  0  0  0  0  0  0  0  0  0  0  0
    6.4228    1.7886   18.6917 N   0  0  0  0  0  0  0  0  0  0  0  0
    7.0271    1.3240   19.8237 C   0  0  0  0  0  0  0  0  0  0  0  0
    6.3312    1.1702   20.9612 N   0  0  0  0  0  0  0  0  0  0  0  0
    8.4561    0.9955   19.8008 N   0  0  0  0  0  0  0  0  0  0  0  0
   -1.4479    5.6887   24.3492 C   0  0  0  0  0  0  0  0  0  0  0  0
   -2.3266    4.9464   24.7838 O   0  0  0  0  0  0  0  0  0  0  0  0
   -1.1370    6.9308   25.0054 N   0  0  0  0  0  0  0  0  0  0  0  0
  1  2  2  0  0  0  0
  1  6  1  0  0  0  0
  1  7  1  0  0  0  0
  2  3  1  0  0  0  0
  3  4  2  0  0  0  0
  4  5  1  0  0  0  0
  4 20  1  0  0  0  0
  5  6  2  0  0  0  0
  7  8  1  0  0  0  0
  8  9  1  0  0  0  0
  9 10  2  0  0  0  0
  9 13  1  0  0  0  0
 10 11  1  0  0  0  0
 11 12  1  0  0  0  0
 12 13  2  0  0  0  0
 12 18  1  0  0  0  0
 13 14  1  0  0  0  0
 14 15  1  0  0  0  0
 14 16  2  0  0  0  0
 16 17  1  0  0  0  0
 17 18  2  0  0  0  0
 17 19  1  0  0  0  0
 20 21  2  0  0  0  0
 20 22  1  0  0  0  0
M  END
>  <CHROM.1>
-82.16195186,46.76803174,-78.93933900,84.05265249,2.52851936,3.29416317,21.11795394
2.66558449,-0.47674399,1.51532811

>  <Name>
ligand

>  <RI>
0

>  <Rbt.Current_Directory>
/home/itssahil/PROJECTS/Mol_Feturizer/New_Systems/rnas/4LVY

>  <Rbt.Executable>
rbdock ($Id: //depot/dev/client3/rdock/2013.1/src/exe/rbdock.cxx#4 $)

>  <Rbt.Library>
libRbt.so (2013.1, Build901 2013/11/27)

>  <Rbt.Parameter_File>
/export/apps/rDock/src/rDock_2013.1_src/data/scripts/dock_solv.prm

>  <Rbt.Receptor>
prm/pocket_docking_2.prm

>  <SCORE>
-13.8594

>  <SCORE.INTER>
-13.69

>  <SCORE.INTER.CONST>
1

>  <SCORE.INTER.POLAR>
0

>  <SCORE.INTER.ROT>
4

>  <SCORE.INTER.SOLV>
13.1869

>  <SCORE.INTER.VDW>
-19.789

>  <SCORE.INTER.norm>
-0.622274

>  <SCORE.INTRA>
-0.255913

>  <SCORE.INTRA.DIHEDRAL>
1.34506

>  <SCORE.INTRA.DIHEDRAL.0>
6.18831

>  <SCORE.INTRA.POLAR>
0

>  <SCORE.INTRA.POLAR.0>
0

>  <SCORE.INTRA.REPUL>
0

>  <SCORE.INTRA.REPUL.0>
0

>  <SCORE.INTRA.SOLV>
0.130999

>  <SCORE.INTRA.SOLV.lig_0>
-44.3465

>  <SCORE.INTRA.VDW>
-0.993942

>  <SCORE.INTRA.VDW.0>
-0.778272

>  <SCORE.INTRA.norm>
-0.0116324

>  <SCORE.RESTR>
0.0864843

>  <SCORE.RESTR.CAVITY>
0.0864843

>  <SCORE.RESTR.norm>
0.0039311

>  <SCORE.SYSTEM>
0

>  <SCORE.SYSTEM.CONST>
0

>  <SCORE.SYSTEM.DIHEDRAL>
0

>  <SCORE.SYSTEM.SOLV>
0

>  <SCORE.SYSTEM.norm>
0

>  <SCORE.heavy>
22

>  <SCORE.norm>
-0.629975

>  <RMSD>
8.273

$$$$
ligand
 OpenBabel11021811503D
libRbt.so/2013.1/901 2013/11/27
 22 24  0  0  0  0  0  0  0  0999 V2000
    0.4066    3.2843   21.4853 C   0  0  0  0  0  0  0  0  0  0  0  0
    1.3989    3.5916   22.4400 C   0  0  0  0  0  0  0  0  0  0  0  0
    1.1424    4.5625   23.4043 C   0  0  0  0  0  0  0  0  0  0  0  0
   -0.0996    5.2209   23.4105 C   0  0  0  0  0  0  0  0  0  0  0  0
   -1.0933    4.9201   22.4467 C   0  0  0  0  0  0  0  0  0  0  0  0
   -0.8354    3.9522   21.4855 C   0  0  0  0  0  0  0  0  0  0  0  0
    0.6812    2.2251   20.4005 C   0  0  0  0  0  0  0  0  0  0  0  0
    1.9400    2.4853   19.5358 C   0  0  0  0  0  0  0  0  0  0  0  0
    3.2179    1.8895   20.1150 C   0  0  0  0  0  0  0  0  0  0  0  0
    3.2835    1.2318   21.3471 C   0  0  0  0  0  0  0  0  0  0  0  0
    4.5735    0.8402   21.5163 N   0  0  0  0  0  0  0  0  0  0  0  0
    5.3762    1.2051   20.4539 C   0  0  0  0  0  0  0  0  0  0  0  0
    4.5622    1.8692   19.5429 C   0  0  0  0  0  0  0  0  0  0  0  0
    5.1842    2.3507   18.3290 C   0  0  0  0  0  0  0  0  0  0  0  0
    4.4280    3.0170   17.3687 O   0  0  0  0  0  0  0  0  0  0  0  0
    6.5436    2.1418   18.1377 N   0  0  0  0  0  0  0  0  0  0  0  0
    7.3020    1.4752   19.0559 C   0  0  0  0  0  0  0  0  0  0  0  0
    6.7581    1.0151   20.1935 N   0  0  0  0  0  0  0  0  0  0  0  0
    8.7308    1.2649   18.8014 N   0  0  0  0  0  0  0  0  0  0  0  0
   -0.3482    6.2704   24.4613 C   0  0  0  0  0  0  0  0  0  0  0  0
    0.4363    7.2075   24.5965 O   0  0  0  0  0  0  0  0  0  0  0  0
   -1.5102    6.1508   25.3013 N   0  0  0  0  0  0  0  0  0  0  0  0
  1  2  2  0  0  0  0
  1  6  1  0  0  0  0
  1  7  1  0  0  0  0
  2  3  1  0  0  0  0
  3  4  2  0  0  0  0
  4  5  1  0  0  0  0
  4 20  1  0  0  0  0
  5  6  2  0  0  0  0
  7  8  1  0  0  0  0
  8  9  1  0  0  0  0
  9 10  2  0  0  0  0
  9 13  1  0  0  0  0
 10 11  1  0  0  0  0
 11 12  1  0  0  0  0
 12 13  2  0  0  0  0
 12 18  1  0  0  0  0
 13 14  1  0  0  0  0
 14 15  1  0  0  0  0
 14 16  2  0  0  0  0
 16 17  1  0  0  0  0
 17 18  2  0  0  0  0
 17 19  1  0  0  0  0
 20 21  2  0  0  0  0
 20 22  1  0  0  0  0
M  END
>  <CHROM.1>
-55.72217985,54.17432510,88.62915384,-3.46113715,2.86622214,3.11588710,21.05441373
2.42108565,-0.17297449,1.06564836

>  <Name>
ligand

>  <RI>
0

>  <Rbt.Current_Directory>
/home/itssahil/PROJECTS/Mol_Feturizer/New_Systems/rnas/4LVY

>  <Rbt.Executable>
rbdock ($Id: //depot/dev/client3/rdock/2013.1/src/exe/rbdock.cxx#4 $)

>  <Rbt.Library>
libRbt.so (2013.1, Build901 2013/11/27)

>  <Rbt.Parameter_File>
/export/apps/rDock/src/rDock_2013.1_src/data/scripts/dock_solv.prm

>  <Rbt.Receptor>
prm/pocket_docking_3.prm

>  <SCORE>
-16.4947

>  <SCORE.INTER>
-17.8667

>  <SCORE.INTER.CONST>
1

>  <SCORE.INTER.POLAR>
0

>  <SCORE.INTER.ROT>
4

>  <SCORE.INTER.SOLV>
11.7382

>  <SCORE.INTER.VDW>
-22.0905

>  <SCORE.INTER.norm>
-0.812124

>  <SCORE.INTRA>
1.22725

>  <SCORE.INTRA.DIHEDRAL>
2.8758

>  <SCORE.INTRA.DIHEDRAL.0>
6.18831

>  <SCORE.INTRA.POLAR>
0

>  <SCORE.INTRA.POLAR.0>
0

>  <SCORE.INTRA.REPUL>
0

>  <SCORE.INTRA.REPUL.0>
0

>  <SCORE.INTRA.SOLV>
-0.00402465

>  <SCORE.INTRA.SOLV.lig_0>
-44.3465

>  <SCORE.INTRA.VDW>
-0.208637

>  <SCORE.INTRA.VDW.0>
-0.778272

>  <SCORE.INTRA.norm>
0.055784

>  <SCORE.RESTR>
0.14481

>  <SCORE.RESTR.CAVITY>
0.14481

>  <SCORE.RESTR.norm>
0.00658226

>  <SCORE.SYSTEM>
0

>  <SCORE.SYSTEM.CONST>
0

>  <SCORE.SYSTEM.DIHEDRAL>
0

>  <SCORE.SYSTEM.SOLV>
0

>  <SCORE.SYSTEM.norm>
0

>  <SCORE.heavy>
22

>  <SCORE.norm>
-0.749757

>  <RMSD>
8.290

$$$$
ligand
 OpenBabel11021811503D
libRbt.so/2013.1/901 2013/11/27
 22 24  0  0  0  0  0  0  0  0999 V2000
    1.9878    2.2462   21.5531 C   0  0  0  0  0  0  0  0  0  0  0  0
    0.8128    2.2282   20.7723 C   0  0  0  0  0  0  0  0  0  0  0  0
   -0.2303    3.0951   21.0866 C   0  0  0  0  0  0  0  0  0  0  0  0
   -0.0963    3.9728   22.1765 C   0  0  0  0  0  0  0  0  0  0  0  0
    1.0791    3.9853   22.9671 C   0  0  0  0  0  0  0  0  0  0  0  0
    2.1178    3.1197   22.6525 C   0  0  0  0  0  0  0  0  0  0  0  0
    3.1442    1.2808   21.2295 C   0  0  0  0  0  0  0  0  0  0  0  0
    4.3974    1.9462   20.6076 C   0  0  0  0  0  0  0  0  0  0  0  0
    4.2239    2.3379   19.1447 C   0  0  0  0  0  0  0  0  0  0  0  0
    2.9973    2.6851   18.5703 C   0  0  0  0  0  0  0  0  0  0  0  0
    3.2414    2.9741   17.2653 N   0  0  0  0  0  0  0  0  0  0  0  0
    4.5757    2.8369   16.9382 C   0  0  0  0  0  0  0  0  0  0  0  0
    5.2356    2.4382   18.0954 C   0  0  0  0  0  0  0  0  0  0  0  0
    6.6641    2.2304   18.0035 C   0  0  0  0  0  0  0  0  0  0  0  0
    7.3906    1.8387   19.1247 O   0  0  0  0  0  0  0  0  0  0  0  0
    7.2979    2.4238   16.7833 N   0  0  0  0  0  0  0  0  0  0  0  0
    6.6104    2.8256   15.6749 C   0  0  0  0  0  0  0  0  0  0  0  0
    5.2843    3.0273   15.7237 N   0  0  0  0  0  0  0  0  0  0  0  0
    7.3268    3.0325   14.4122 N   0  0  0  0  0  0  0  0  0  0  0  0
   -1.2420    4.8958   22.4973 C   0  0  0  0  0  0  0  0  0  0  0  0
   -1.7664    5.5625   21.6071 O   0  0  0  0  0  0  0  0  0  0  0  0
   -1.7019    4.9854   23.8576 N   0  0  0  0  0  0  0  0  0  0  0  0
  1  2  2  0  0  0  0
  1  6  1  0  0  0  0
  1  7  1  0  0  0  0
  2  3  1  0  0  0  0
  3  4  2  0  0  0  0
  4  5  1  0  0  0  0
  4 20  1  0  0  0  0
  5  6  2  0  0  0  0
  7  8  1  0  0  0  0
  8  9  1  0  0  0  0
  9 10  2  0  0  0  0
  9 13  1  0  0  0  0
 10 11  1  0  0  0  0
 11 12  1  0  0  0  0
 12 13  2  0  0  0  0
 12 18  1  0  0  0  0
 13 14  1  0  0  0  0
 14 15  1  0  0  0  0
 14 16  2  0  0  0  0
 16 17  1  0  0  0  0
 17 18  2  0  0  0  0
 17 19  1  0  0  0  0
 20 21  2  0  0  0  0
 20 22  1  0  0  0  0
M  END
>  <CHROM.1>
108.23344364,-48.66982319,-74.95271248,29.13749421,3.19117061,3.00874110
19.55132154,-2.56269278,0.45063443,-1.25893084

>  <Name>
ligand

>  <RI>
0

>  <Rbt.Current_Directory>
/home/itssahil/PROJECTS/Mol_Feturizer/New_Systems/rnas/4LVY

>  <Rbt.Executable>
rbdock ($Id: //depot/dev/client3/rdock/2013.1/src/exe/rbdock.cxx#4 $)

>  <Rbt.Library>
libRbt.so (2013.1, Build901 2013/11/27)

>  <Rbt.Parameter_File>
/export/apps/rDock/src/rDock_2013.1_src/data/scripts/dock_solv.prm

>  <Rbt.Receptor>
prm/pocket_docking_5.prm

>  <SCORE>
-15.3539

>  <SCORE.INTER>
-15.3462

>  <SCORE.INTER.CONST>
1

>  <SCORE.INTER.POLAR>
0

>  <SCORE.INTER.ROT>
4

>  <SCORE.INTER.SOLV>
11.0828

>  <SCORE.INTER.VDW>
-20.1917

>  <SCORE.INTER.norm>
-0.697554

>  <SCORE.INTRA>
-0.00767886

>  <SCORE.INTRA.DIHEDRAL>
0.95107

>  <SCORE.INTRA.DIHEDRAL.0>
6.18831

>  <SCORE.INTRA.POLAR>
0

>  <SCORE.INTRA.POLAR.0>
0

>  <SCORE.INTRA.REPUL>
0

>  <SCORE.INTRA.REPUL.0>
0

>  <SCORE.INTRA.SOLV>
-0.000828941

>  <SCORE.INTRA.SOLV.lig_0>
-44.3465

>  <SCORE.INTRA.VDW>
-0.482799

>  <SCORE.INTRA.VDW.0>
-0.778272

>  <SCORE.INTRA.norm>
-0.000349039

>  <SCORE.RESTR>
0

>  <SCORE.RESTR.CAVITY>
0

>  <SCORE.RESTR.norm>
0

>  <SCORE.SYSTEM>
0

>  <SCORE.SYSTEM.CONST>
0

>  <SCORE.SYSTEM.DIHEDRAL>
0

>  <SCORE.SYSTEM.SOLV>
0

>  <SCORE.SYSTEM.norm>
0

>  <SCORE.heavy>
22

>  <SCORE.norm>
-0.697903

>  <RMSD>
8.366

$$$$
ligand
 OpenBabel11021811503D
libRbt.so/2013.1/901 2013/11/27
 22 24  0  0  0  0  0  0  0  0999 V2000
    0.4000    3.3688   21.3963 C   0  0  0  0  0  0  0  0  0  0  0  0
    1.1781    4.4817   21.7793 C   0  0  0  0  0  0  0  0  0  0  0  0
    0.7089    5.3337   22.7755 C   0  0  0  0  0  0  0  0  0  0  0  0
   -0.5318    5.0720   23.3823 C   0  0  0  0  0  0  0  0  0  0  0  0
   -1.3184    3.9603   22.9921 C   0  0  0  0  0  0  0  0  0  0  0  0
   -0.8492    3.1124   21.9982 C   0  0  0  0  0  0  0  0  0  0  0  0
    0.8966    2.4264   20.2831 C   0  0  0  0  0  0  0  0  0  0  0  0
    2.2873    2.7796   19.6990 C   0  0  0  0  0  0  0  0  0  0  0  0
    3.4260    1.9454   20.2743 C   0  0  0  0  0  0  0  0  0  0  0  0
    3.2810    1.0634   21.3495 C   0  0  0  0  0  0  0  0  0  0  0  0
    4.5001    0.5047   21.5677 N   0  0  0  0  0  0  0  0  0  0  0  0
    5.4563    0.9714   20.6879 C   0  0  0  0  0  0  0  0  0  0  0  0
    4.8228    1.8830   19.8503 C   0  0  0  0  0  0  0  0  0  0  0  0
    5.6294    2.5125   18.8279 C   0  0  0  0  0  0  0  0  0  0  0  0
    5.0594    3.4290   17.9486 O   0  0  0  0  0  0  0  0  0  0  0  0
    6.9776    2.1924   18.7386 N   0  0  0  0  0  0  0  0  0  0  0  0
    7.5550    1.2833   19.5769 C   0  0  0  0  0  0  0  0  0  0  0  0
    6.8369    0.6803   20.5373 N   0  0  0  0  0  0  0  0  0  0  0  0
    8.9794    0.9659   19.4329 N   0  0  0  0  0  0  0  0  0  0  0  0
   -1.0175    6.0127   24.4531 C   0  0  0  0  0  0  0  0  0  0  0  0
   -1.9749    5.7030   25.1598 O   0  0  0  0  0  0  0  0  0  0  0  0
   -0.3474    7.2740   24.6259 N   0  0  0  0  0  0  0  0  0  0  0  0
  1  2  2  0  0  0  0
  1  6  1  0  0  0  0
  1  7  1  0  0  0  0
  2  3  1  0  0  0  0
  3  4  2  0  0  0  0
  4  5  1  0  0  0  0
  4 20  1  0  0  0  0
  5  6  2  0  0  0  0
  7  8  1  0  0  0  0
  8  9  1  0  0  0  0
  9 10  2  0  0  0  0
  9 13  1  0  0  0  0
 10 11  1  0  0  0  0
 11 12  1  0  0  0  0
 12 13  2  0  0  0  0
 12 18  1  0  0  0  0
 13 14  1  0  0  0  0
 14 15  1  0  0  0  0
 14 16  2  0  0  0  0
 16 17  1  0  0  0  0
 17 18  2  0  0  0  0
 17 19  1  0  0  0  0
 20 21  2  0  0  0  0
 20 22  1  0  0  0  0
M  END
>  <CHROM.1>
2.09690982,-167.75363457,99.18142097,-7.93213223,2.85312853,3.05458422,21.22449330
2.50287945,0.13105691,0.65514012

>  <Name>
ligand

>  <RI>
0

>  <Rbt.Current_Directory>
/home/itssahil/PROJECTS/Mol_Feturizer/New_Systems/rnas/4LVY

>  <Rbt.Executable>
rbdock ($Id: //depot/dev/client3/rdock/2013.1/src/exe/rbdock.cxx#4 $)

>  <Rbt.Library>
libRbt.so (2013.1, Build901 2013/11/27)

>  <Rbt.Parameter_File>
/export/apps/rDock/src/rDock_2013.1_src/data/scripts/dock_solv.prm

>  <Rbt.Receptor>
prm/pocket_docking_2.prm

>  <SCORE>
-13.079

>  <SCORE.INTER>
-16.6496

>  <SCORE.INTER.CONST>
1

>  <SCORE.INTER.POLAR>
0

>  <SCORE.INTER.ROT>
4

>  <SCORE.INTER.SOLV>
10.9865

>  <SCORE.INTER.VDW>
-21.0286

>  <SCORE.INTER.norm>
-0.756799

>  <SCORE.INTRA>
3.02482

>  <SCORE.INTRA.DIHEDRAL>
4.52042

>  <SCORE.INTRA.DIHEDRAL.0>
6.18831

>  <SCORE.INTRA.POLAR>
0

>  <SCORE.INTRA.POLAR.0>
0

>  <SCORE.INTRA.REPUL>
0

>  <SCORE.INTRA.REPUL.0>
0

>  <SCORE.INTRA.SOLV>
0.00969117

>  <SCORE.INTRA.SOLV.lig_0>
-44.3465

>  <SCORE.INTRA.VDW>
0.759766

>  <SCORE.INTRA.VDW.0>
-0.778272

>  <SCORE.INTRA.norm>
0.137492

>  <SCORE.RESTR>
0.545741

>  <SCORE.RESTR.CAVITY>
0.545741

>  <SCORE.RESTR.norm>
0.0248064

>  <SCORE.SYSTEM>
0

>  <SCORE.SYSTEM.CONST>
0

>  <SCORE.SYSTEM.DIHEDRAL>
0

>  <SCORE.SYSTEM.SOLV>
0

>  <SCORE.SYSTEM.norm>
0

>  <SCORE.heavy>
22

>  <SCORE.norm>
-0.594501

>  <RMSD>
8.379

$$$$
ligand
 OpenBabel11021811503D
libRbt.so/2013.1/901 2013/11/27
 22 24  0  0  0  0  0  0  0  0999 V2000
    0.2078    3.6153   21.3886 C   0  0  0  0  0  0  0  0  0  0  0  0
    0.9630    4.7712   21.6785 C   0  0  0  0  0  0  0  0  0  0  0  0
    0.5618    5.6074   22.7169 C   0  0  0  0  0  0  0  0  0  0  0  0
   -0.5887    5.2871   23.4584 C   0  0  0  0  0  0  0  0  0  0  0  0
   -1.3533    4.1318   23.1622 C   0  0  0  0  0  0  0  0  0  0  0  0
   -0.9520    3.2997   22.1261 C   0  0  0  0  0  0  0  0  0  0  0  0
    0.6281    2.6890   20.2312 C   0  0  0  0  0  0  0  0  0  0  0  0
    2.0397    2.9621   19.6544 C   0  0  0  0  0  0  0  0  0  0  0  0
    3.1274    2.0705   20.2422 C   0  0  0  0  0  0  0  0  0  0  0  0
    2.9340    1.2223   21.3367 C   0  0  0  0  0  0  0  0  0  0  0  0
    4.1170    0.5928   21.5611 N   0  0  0  0  0  0  0  0  0  0  0  0
    5.0951    0.9800   20.6670 C   0  0  0  0  0  0  0  0  0  0  0  0
    4.5150    1.9115   19.8130 C   0  0  0  0  0  0  0  0  0  0  0  0
    5.3532    2.4674   18.7734 C   0  0  0  0  0  0  0  0  0  0  0  0
    4.8363    3.3991   17.8774 O   0  0  0  0  0  0  0  0  0  0  0  0
    6.6781    2.0615   18.6847 N   0  0  0  0  0  0  0  0  0  0  0  0
    7.2025    1.1359   19.5396 C   0  0  0  0  0  0  0  0  0  0  0  0
    6.4538    0.5996   20.5162 N   0  0  0  0  0  0  0  0  0  0  0  0
    8.6034    0.7268   19.3957 N   0  0  0  0  0  0  0  0  0  0  0  0
   -1.0028    6.2116   24.5724 C   0  0  0  0  0  0  0  0  0  0  0  0
   -0.4131    7.2771   24.7426 O   0  0  0  0  0  0  0  0  0  0  0  0
   -2.0899    5.8221   25.4306 N   0  0  0  0  0  0  0  0  0  0  0  0
  1  2  2  0  0  0  0
  1  6  1  0  0  0  0
  1  7  1  0  0  0  0
  2  3  1  0  0  0  0
  3  4  2  0  0  0  0
  4  5  1  0  0  0  0
  4 20  1  0  0  0  0
  5  6  2  0  0  0  0
  7  8  1  0  0  0  0
  8  9  1  0  0  0  0
  9 10  2  0  0  0  0
  9 13  1  0  0  0  0
 10 11  1  0  0  0  0
 11 12  1  0  0  0  0
 12 13  2  0  0  0  0
 12 18  1  0  0  0  0
 13 14  1  0  0  0  0
 14 15  1  0  0  0  0
 14 16  2  0  0  0  0
 16 17  1  0  0  0  0
 17 18  2  0  0  0  0
 17 19  1  0  0  0  0
 20 21  2  0  0  0  0
 20 22  1  0  0  0  0
M  END
>  <CHROM.1>
12.09872722,6.38156645,95.96443254,-9.13961611,2.63449289,3.14571340,21.23153345
2.51187865,-0.31776124,1.21821143

>  <Name>
ligand

>  <RI>
0

>  <Rbt.Current_Directory>
/home/itssahil/PROJECTS/Mol_Feturizer/New_Systems/rnas/4LVY

>  <Rbt.Executable>
rbdock ($Id: //depot/dev/client3/rdock/2013.1/src/exe/rbdock.cxx#4 $)

>  <Rbt.Library>
libRbt.so (2013.1, Build901 2013/11/27)

>  <Rbt.Parameter_File>
/export/apps/rDock/src/rDock_2013.1_src/data/scripts/dock_solv.prm

>  <Rbt.Receptor>
prm/pocket_docking_2.prm

>  <SCORE>
-14.7601

>  <SCORE.INTER>
-18.0447

>  <SCORE.INTER.CONST>
1

>  <SCORE.INTER.POLAR>
0

>  <SCORE.INTER.ROT>
4

>  <SCORE.INTER.SOLV>
12.2026

>  <SCORE.INTER.VDW>
-22.364

>  <SCORE.INTER.norm>
-0.820216

>  <SCORE.INTRA>
2.7257

>  <SCORE.INTRA.DIHEDRAL>
3.98327

>  <SCORE.INTRA.DIHEDRAL.0>
6.18831

>  <SCORE.INTRA.POLAR>
0

>  <SCORE.INTRA.POLAR.0>
0

>  <SCORE.INTRA.REPUL>
0

>  <SCORE.INTRA.REPUL.0>
0

>  <SCORE.INTRA.SOLV>
0.00706019

>  <SCORE.INTRA.SOLV.lig_0>
-44.3465

>  <SCORE.INTRA.VDW>
0.730541

>  <SCORE.INTRA.VDW.0>
-0.778272

>  <SCORE.INTRA.norm>
0.123896

>  <SCORE.RESTR>
0.558948

>  <SCORE.RESTR.CAVITY>
0.558948

>  <SCORE.RESTR.norm>
0.0254067

>  <SCORE.SYSTEM>
0

>  <SCORE.SYSTEM.CONST>
0

>  <SCORE.SYSTEM.DIHEDRAL>
0

>  <SCORE.SYSTEM.SOLV>
0

>  <SCORE.SYSTEM.norm>
0

>  <SCORE.heavy>
22

>  <SCORE.norm>
-0.670913

>  <RMSD>
8.389

$$$$
ligand
 OpenBabel11021811503D
libRbt.so/2013.1/901 2013/11/27
 22 24  0  0  0  0  0  0  0  0999 V2000
    0.1796    3.3827   21.3956 C   0  0  0  0  0  0  0  0  0  0  0  0
    1.0467    3.6637   22.4725 C   0  0  0  0  0  0  0  0  0  0  0  0
    0.6393    4.5513   23.4647 C   0  0  0  0  0  0  0  0  0  0  0  0
   -0.6280    5.1532   23.3770 C   0  0  0  0  0  0  0  0  0  0  0  0
   -1.4959    4.8793   22.2913 C   0  0  0  0  0  0  0  0  0  0  0  0
   -1.0875    3.9945   21.3026 C   0  0  0  0  0  0  0  0  0  0  0  0
    0.6225    2.4165   20.2800 C   0  0  0  0  0  0  0  0  0  0  0  0
    1.9412    2.8033   19.5649 C   0  0  0  0  0  0  0  0  0  0  0  0
    3.1659    2.0636   20.0906 C   0  0  0  0  0  0  0  0  0  0  0  0
    3.1668    1.2809   21.2491 C   0  0  0  0  0  0  0  0  0  0  0  0
    4.4240    0.7846   21.3881 N   0  0  0  0  0  0  0  0  0  0  0  0
    5.2664    1.1986   20.3756 C   0  0  0  0  0  0  0  0  0  0  0  0
    4.5144    2.0074   19.5308 C   0  0  0  0  0  0  0  0  0  0  0  0
    5.1869    2.5653   18.3781 C   0  0  0  0  0  0  0  0  0  0  0  0
    4.4934    3.3773   17.4849 O   0  0  0  0  0  0  0  0  0  0  0  0
    6.5314    2.2822   18.1778 N   0  0  0  0  0  0  0  0  0  0  0  0
    7.2278    1.4740   19.0290 C   0  0  0  0  0  0  0  0  0  0  0  0
    6.6358    0.9397   20.1088 N   0  0  0  0  0  0  0  0  0  0  0  0
    8.6425    1.1911   18.7664 N   0  0  0  0  0  0  0  0  0  0  0  0
   -1.0411    6.1133   24.4610 C   0  0  0  0  0  0  0  0  0  0  0  0
   -1.9822    5.8393   25.2034 O   0  0  0  0  0  0  0  0  0  0  0  0
   -0.3213    7.3508   24.6042 N   0  0  0  0  0  0  0  0  0  0  0  0
  1  2  2  0  0  0  0
  1  6  1  0  0  0  0
  1  7  1  0  0  0  0
  2  3  1  0  0  0  0
  3  4  2  0  0  0  0
  4  5  1  0  0  0  0
  4 20  1  0  0  0  0
  5  6  2  0  0  0  0
  7  8  1  0  0  0  0
  8  9  1  0  0  0  0
  9 10  2  0  0  0  0
  9 13  1  0  0  0  0
 10 11  1  0  0  0  0
 11 12  1  0  0  0  0
 12 13  2  0  0  0  0
 12 18  1  0  0  0  0
 13 14  1  0  0  0  0
 14 15  1  0  0  0  0
 14 16  2  0  0  0  0
 16 17  1  0  0  0  0
 17 18  2  0  0  0  0
 17 19  1  0  0  0  0
 20 21  2  0  0  0  0
 20 22  1  0  0  0  0
M  END
>  <CHROM.1>
-56.58700864,-114.71876484,97.98195927,-10.36967745,2.63101053,3.16124212
21.02259358,2.51525403,-0.31917964,1.29422765

>  <Name>
ligand

>  <RI>
0

>  <Rbt.Current_Directory>
/home/itssahil/PROJECTS/Mol_Feturizer/New_Systems/rnas/4LVY

>  <Rbt.Executable>
rbdock ($Id: //depot/dev/client3/rdock/2013.1/src/exe/rbdock.cxx#4 $)

>  <Rbt.Library>
libRbt.so (2013.1, Build901 2013/11/27)

>  <Rbt.Parameter_File>
/export/apps/rDock/src/rDock_2013.1_src/data/scripts/dock_solv.prm

>  <Rbt.Receptor>
prm/pocket_docking_5.prm

>  <SCORE>
-17.6878

>  <SCORE.INTER>
-19.6456

>  <SCORE.INTER.CONST>
1

>  <SCORE.INTER.POLAR>
0

>  <SCORE.INTER.ROT>
4

>  <SCORE.INTER.SOLV>
12.3494

>  <SCORE.INTER.VDW>
-23.4802

>  <SCORE.INTER.norm>
-0.892983

>  <SCORE.INTRA>
1.9578

>  <SCORE.INTRA.DIHEDRAL>
4.34212

>  <SCORE.INTRA.DIHEDRAL.0>
6.18831

>  <SCORE.INTRA.POLAR>
0

>  <SCORE.INTRA.POLAR.0>
0

>  <SCORE.INTRA.REPUL>
0

>  <SCORE.INTRA.REPUL.0>
0

>  <SCORE.INTRA.SOLV>
-0.00403215

>  <SCORE.INTRA.SOLV.lig_0>
-44.3465

>  <SCORE.INTRA.VDW>
-0.211241

>  <SCORE.INTRA.VDW.0>
-0.778272

>  <SCORE.INTRA.norm>
0.088991

>  <SCORE.RESTR>
0

>  <SCORE.RESTR.CAVITY>
0

>  <SCORE.RESTR.norm>
0

>  <SCORE.SYSTEM>
0

>  <SCORE.SYSTEM.CONST>
0

>  <SCORE.SYSTEM.DIHEDRAL>
0

>  <SCORE.SYSTEM.SOLV>
0

>  <SCORE.SYSTEM.norm>
0

>  <SCORE.heavy>
22

>  <SCORE.norm>
-0.803992

>  <RMSD>
8.392

$$$$
ligand
 OpenBabel11021811503D
libRbt.so/2013.1/901 2013/11/27
 22 24  0  0  0  0  0  0  0  0999 V2000
    0.9223    4.4004   20.9517 C   0  0  0  0  0  0  0  0  0  0  0  0
    1.5494    4.6569   22.1893 C   0  0  0  0  0  0  0  0  0  0  0  0
    0.7757    5.0409   23.2812 C   0  0  0  0  0  0  0  0  0  0  0  0
   -0.6165    5.1673   23.1328 C   0  0  0  0  0  0  0  0  0  0  0  0
   -1.2463    4.9192   21.8883 C   0  0  0  0  0  0  0  0  0  0  0  0
   -0.4730    4.5372   20.8006 C   0  0  0  0  0  0  0  0  0  0  0  0
    1.7663    3.9920   19.7289 C   0  0  0  0  0  0  0  0  0  0  0  0
    1.9085    2.4646   19.5128 C   0  0  0  0  0  0  0  0  0  0  0  0
    3.1537    1.8656   20.1564 C   0  0  0  0  0  0  0  0  0  0  0  0
    3.1702    1.2775   21.4248 C   0  0  0  0  0  0  0  0  0  0  0  0
    4.4433    0.8585   21.6480 N   0  0  0  0  0  0  0  0  0  0  0  0
    5.2815    1.1386   20.5872 C   0  0  0  0  0  0  0  0  0  0  0  0
    4.5097    1.7733   19.6202 C   0  0  0  0  0  0  0  0  0  0  0  0
    5.1745    2.1665   18.3971 C   0  0  0  0  0  0  0  0  0  0  0  0
    4.4617    2.7989   17.3822 O   0  0  0  0  0  0  0  0  0  0  0  0
    6.5308    1.9073   18.2520 N   0  0  0  0  0  0  0  0  0  0  0  0
    7.2468    1.2721   19.2249 C   0  0  0  0  0  0  0  0  0  0  0  0
    6.6626    0.8937   20.3726 N   0  0  0  0  0  0  0  0  0  0  0  0
    8.6740    1.0058   19.0186 N   0  0  0  0  0  0  0  0  0  0  0  0
   -1.4284    5.5891   24.3286 C   0  0  0  0  0  0  0  0  0  0  0  0
   -2.3510    4.8821   24.7297 O   0  0  0  0  0  0  0  0  0  0  0  0
   -1.1088    6.8302   24.9826 N   0  0  0  0  0  0  0  0  0  0  0  0
  1  2  2  0  0  0  0
  1  6  1  0  0  0  0
  1  7  1  0  0  0  0
  2  3  1  0  0  0  0
  3  4  2  0  0  0  0
  4  5  1  0  0  0  0
  4 20  1  0  0  0  0
  5  6  2  0  0  0  0
  7  8  1  0  0  0  0
  8  9  1  0  0  0  0
  9 10  2  0  0  0  0
  9 13  1  0  0  0  0
 10 11  1  0  0  0  0
 11 12  1  0  0  0  0
 12 13  2  0  0  0  0
 12 18  1  0  0  0  0
 13 14  1  0  0  0  0
 14 15  1  0  0  0  0
 14 16  2  0  0  0  0
 16 17  1  0  0  0  0
 17 18  2  0  0  0  0
 17 19  1  0  0  0  0
 20 21  2  0  0  0  0
 20 22  1  0  0  0  0
M  END
>  <CHROM.1>
93.60833487,-123.33403784,-93.18667454,94.83910122,2.70711540,3.14646040
20.96073131,2.69409866,-0.52581675,1.64555608

>  <Name>
ligand

>  <RI>
0

>  <Rbt.Current_Directory>
/home/itssahil/PROJECTS/Mol_Feturizer/New_Systems/rnas/4LVY

>  <Rbt.Executable>
rbdock ($Id: //depot/dev/client3/rdock/2013.1/src/exe/rbdock.cxx#4 $)

>  <Rbt.Library>
libRbt.so (2013.1, Build901 2013/11/27)

>  <Rbt.Parameter_File>
/export/apps/rDock/src/rDock_2013.1_src/data/scripts/dock_solv.prm

>  <Rbt.Receptor>
prm/pocket_docking_2.prm

>  <SCORE>
-14.1812

>  <SCORE.INTER>
-15.5523

>  <SCORE.INTER.CONST>
1

>  <SCORE.INTER.POLAR>
0

>  <SCORE.INTER.ROT>
4

>  <SCORE.INTER.SOLV>
13.1081

>  <SCORE.INTER.VDW>
-21.0043

>  <SCORE.INTER.norm>
-0.706924

>  <SCORE.INTRA>
0.990687

>  <SCORE.INTRA.DIHEDRAL>
3.69635

>  <SCORE.INTRA.DIHEDRAL.0>
6.18831

>  <SCORE.INTRA.POLAR>
0

>  <SCORE.INTRA.POLAR.0>
0

>  <SCORE.INTRA.REPUL>
0

>  <SCORE.INTRA.REPUL.0>
0

>  <SCORE.INTRA.SOLV>
0.177146

>  <SCORE.INTRA.SOLV.lig_0>
-44.3465

>  <SCORE.INTRA.VDW>
-0.946059

>  <SCORE.INTRA.VDW.0>
-0.778272

>  <SCORE.INTRA.norm>
0.0450312

>  <SCORE.RESTR>
0.380461

>  <SCORE.RESTR.CAVITY>
0.380461

>  <SCORE.RESTR.norm>
0.0172937

>  <SCORE.SYSTEM>
0

>  <SCORE.SYSTEM.CONST>
0

>  <SCORE.SYSTEM.DIHEDRAL>
0

>  <SCORE.SYSTEM.SOLV>
0

>  <SCORE.SYSTEM.norm>
0

>  <SCORE.heavy>
22

>  <SCORE.norm>
-0.644599

>  <RMSD>
8.396

$$$$
ligand
 OpenBabel11021811503D
libRbt.so/2013.1/901 2013/11/27
 22 24  0  0  0  0  0  0  0  0999 V2000
    0.1746    3.4687   21.3404 C   0  0  0  0  0  0  0  0  0  0  0  0
   -1.1022    4.0669   21.2884 C   0  0  0  0  0  0  0  0  0  0  0  0
   -1.5040    4.9116   22.3196 C   0  0  0  0  0  0  0  0  0  0  0  0
   -0.6321    5.1539   23.3954 C   0  0  0  0  0  0  0  0  0  0  0  0
    0.6464    4.5465   23.4535 C   0  0  0  0  0  0  0  0  0  0  0  0
    1.0449    3.7040   22.4247 C   0  0  0  0  0  0  0  0  0  0  0  0
    0.6274    2.5173   20.2161 C   0  0  0  0  0  0  0  0  0  0  0  0
    2.0041    2.8528   19.5901 C   0  0  0  0  0  0  0  0  0  0  0  0
    3.1661    2.0882   20.2135 C   0  0  0  0  0  0  0  0  0  0  0  0
    3.0962    1.4316   21.4460 C   0  0  0  0  0  0  0  0  0  0  0  0
    4.3129    0.8662   21.6605 N   0  0  0  0  0  0  0  0  0  0  0  0
    5.1957    1.1134   20.6282 C   0  0  0  0  0  0  0  0  0  0  0  0
    4.5142    1.8806   19.6898 C   0  0  0  0  0  0  0  0  0  0  0  0
    5.2397    2.2678   18.4998 C   0  0  0  0  0  0  0  0  0  0  0  0
    4.6175    3.0291   17.5143 O   0  0  0  0  0  0  0  0  0  0  0  0
    6.5631    1.8726   18.3569 N   0  0  0  0  0  0  0  0  0  0  0  0
    7.1890    1.1106   19.3004 C   0  0  0  0  0  0  0  0  0  0  0  0
    6.5465    0.7336   20.4170 N   0  0  0  0  0  0  0  0  0  0  0  0
    8.5832    0.7042   19.0968 N   0  0  0  0  0  0  0  0  0  0  0  0
   -1.0942    6.0673   24.4996 C   0  0  0  0  0  0  0  0  0  0  0  0
   -2.0214    5.7298   25.2335 O   0  0  0  0  0  0  0  0  0  0  0  0
   -0.4379    7.3359   24.6722 N   0  0  0  0  0  0  0  0  0  0  0  0
  1  2  2  0  0  0  0
  1  6  1  0  0  0  0
  1  7  1  0  0  0  0
  2  3  1  0  0  0  0
  3  4  2  0  0  0  0
  4  5  1  0  0  0  0
  4 20  1  0  0  0  0
  5  6  2  0  0  0  0
  7  8  1  0  0  0  0
  8  9  1  0  0  0  0
  9 10  2  0  0  0  0
  9 13  1  0  0  0  0
 10 11  1  0  0  0  0
 11 12  1  0  0  0  0
 12 13  2  0  0  0  0
 12 18  1  0  0  0  0
 13 14  1  0  0  0  0
 14 15  1  0  0  0  0
 14 16  2  0  0  0  0
 16 17  1  0  0  0  0
 17 18  2  0  0  0  0
 17 19  1  0  0  0  0
 20 21  2  0  0  0  0
 20 22  1  0  0  0  0
M  END
>  <CHROM.1>
128.27402842,67.00408779,94.49160182,-16.64433574,2.61353245,3.07064465,21.12608245
2.56155966,-0.40633612,1.37583446

>  <Name>
ligand

>  <RI>
0

>  <Rbt.Current_Directory>
/home/itssahil/PROJECTS/Mol_Feturizer/New_Systems/rnas/4LVY

>  <Rbt.Executable>
rbdock ($Id: //depot/dev/client3/rdock/2013.1/src/exe/rbdock.cxx#4 $)

>  <Rbt.Library>
libRbt.so (2013.1, Build901 2013/11/27)

>  <Rbt.Parameter_File>
/export/apps/rDock/src/rDock_2013.1_src/data/scripts/dock_solv.prm

>  <Rbt.Receptor>
prm/pocket_docking_3.prm

>  <SCORE>
-17.6776

>  <SCORE.INTER>
-19.3589

>  <SCORE.INTER.CONST>
1

>  <SCORE.INTER.POLAR>
0

>  <SCORE.INTER.ROT>
4

>  <SCORE.INTER.SOLV>
13.1472

>  <SCORE.INTER.VDW>
-23.555

>  <SCORE.INTER.norm>
-0.879951

>  <SCORE.INTRA>
1.68128

>  <SCORE.INTRA.DIHEDRAL>
3.79717

>  <SCORE.INTRA.DIHEDRAL.0>
6.18831

>  <SCORE.INTRA.POLAR>
0

>  <SCORE.INTRA.POLAR.0>
0

>  <SCORE.INTRA.REPUL>
0

>  <SCORE.INTRA.REPUL.0>
0

>  <SCORE.INTRA.SOLV>
-0.00693138

>  <SCORE.INTRA.SOLV.lig_0>
-44.3465

>  <SCORE.INTRA.VDW>
-0.213836

>  <SCORE.INTRA.VDW.0>
-0.778272

>  <SCORE.INTRA.norm>
0.0764219

>  <SCORE.RESTR>
0

>  <SCORE.RESTR.CAVITY>
0

>  <SCORE.RESTR.norm>
0

>  <SCORE.SYSTEM>
0

>  <SCORE.SYSTEM.CONST>
0

>  <SCORE.SYSTEM.DIHEDRAL>
0

>  <SCORE.SYSTEM.SOLV>
0

>  <SCORE.SYSTEM.norm>
0

>  <SCORE.heavy>
22

>  <SCORE.norm>
-0.803529

>  <RMSD>
8.398

$$$$
ligand
 OpenBabel11021811503D
libRbt.so/2013.1/901 2013/11/27
 22 24  0  0  0  0  0  0  0  0999 V2000
   -0.0700    3.5821   21.5432 C   0  0  0  0  0  0  0  0  0  0  0  0
    0.8164    3.8264   22.6134 C   0  0  0  0  0  0  0  0  0  0  0  0
    0.4765    4.7673   23.5816 C   0  0  0  0  0  0  0  0  0  0  0  0
   -0.7429    5.4588   23.4767 C   0  0  0  0  0  0  0  0  0  0  0  0
   -1.6295    5.2214   22.3976 C   0  0  0  0  0  0  0  0  0  0  0  0
   -1.2885    4.2833   21.4329 C   0  0  0  0  0  0  0  0  0  0  0  0
    0.2994    2.5570   20.4538 C   0  0  0  0  0  0  0  0  0  0  0  0
    1.5936    2.8780   19.6652 C   0  0  0  0  0  0  0  0  0  0  0  0
    2.8237    2.1348   20.1730 C   0  0  0  0  0  0  0  0  0  0  0  0
    2.8345    1.3372   21.3213 C   0  0  0  0  0  0  0  0  0  0  0  0
    4.0939    0.8426   21.4454 N   0  0  0  0  0  0  0  0  0  0  0  0
    4.9284    1.2719   20.4328 C   0  0  0  0  0  0  0  0  0  0  0  0
    4.1685    2.0896   19.6036 C   0  0  0  0  0  0  0  0  0  0  0  0
    4.8319    2.6642   18.4537 C   0  0  0  0  0  0  0  0  0  0  0  0
    4.1303    3.4858   17.5758 O   0  0  0  0  0  0  0  0  0  0  0  0
    6.1758    2.3874   18.2408 N   0  0  0  0  0  0  0  0  0  0  0  0
    6.8799    1.5701   19.0768 C   0  0  0  0  0  0  0  0  0  0  0  0
    6.2966    1.0203   20.1534 N   0  0  0  0  0  0  0  0  0  0  0  0
    8.2936    1.2945   18.8011 N   0  0  0  0  0  0  0  0  0  0  0  0
   -1.0830    6.4748   24.5347 C   0  0  0  0  0  0  0  0  0  0  0  0
   -0.3775    7.4707   24.6847 O   0  0  0  0  0  0  0  0  0  0  0  0
   -2.2376    6.2541   25.3643 N   0  0  0  0  0  0  0  0  0  0  0  0
  1  2  2  0  0  0  0
  1  6  1  0  0  0  0
  1  7  1  0  0  0  0
  2  3  1  0  0  0  0
  3  4  2  0  0  0  0
  4  5  1  0  0  0  0
  4 20  1  0  0  0  0
  5  6  2  0  0  0  0
  7  8  1  0  0  0  0
  8  9  1  0  0  0  0
  9 10  2  0  0  0  0
  9 13  1  0  0  0  0
 10 11  1  0  0  0  0
 11 12  1  0  0  0  0
 12 13  2  0  0  0  0
 12 18  1  0  0  0  0
 13 14  1  0  0  0  0
 14 15  1  0  0  0  0
 14 16  2  0  0  0  0
 16 17  1  0  0  0  0
 17 18  2  0  0  0  0
 17 19  1  0  0  0  0
 20 21  2  0  0  0  0
 20 22  1  0  0  0  0
M  END
>  <CHROM.1>
-60.52278701,62.82919809,97.75366773,-6.05206641,2.37245965,3.33115131,21.11041908
2.46279098,-0.27646011,1.18531396

>  <Name>
ligand

>  <RI>
0

>  <Rbt.Current_Directory>
/home/itssahil/PROJECTS/Mol_Feturizer/New_Systems/rnas/4LVY

>  <Rbt.Executable>
rbdock ($Id: //depot/dev/client3/rdock/2013.1/src/exe/rbdock.cxx#4 $)

>  <Rbt.Library>
libRbt.so (2013.1, Build901 2013/11/27)

>  <Rbt.Parameter_File>
/export/apps/rDock/src/rDock_2013.1_src/data/scripts/dock_solv.prm

>  <Rbt.Receptor>
prm/pocket_docking_4.prm

>  <SCORE>
-18.7991

>  <SCORE.INTER>
-20.7428

>  <SCORE.INTER.CONST>
1

>  <SCORE.INTER.POLAR>
0

>  <SCORE.INTER.ROT>
4

>  <SCORE.INTER.SOLV>
13.7038

>  <SCORE.INTER.VDW>
-24.6631

>  <SCORE.INTER.norm>
-0.942853

>  <SCORE.INTRA>
1.94363

>  <SCORE.INTRA.DIHEDRAL>
4.30034

>  <SCORE.INTRA.DIHEDRAL.0>
6.18831

>  <SCORE.INTRA.POLAR>
0

>  <SCORE.INTRA.POLAR.0>
0

>  <SCORE.INTRA.REPUL>
0

>  <SCORE.INTRA.REPUL.0>
0

>  <SCORE.INTRA.SOLV>
-0.00614769

>  <SCORE.INTRA.SOLV.lig_0>
-44.3465

>  <SCORE.INTRA.VDW>
-0.203471

>  <SCORE.INTRA.VDW.0>
-0.778272

>  <SCORE.INTRA.norm>
0.0883466

>  <SCORE.RESTR>
0

>  <SCORE.RESTR.CAVITY>
0

>  <SCORE.RESTR.norm>
0

>  <SCORE.SYSTEM>
0

>  <SCORE.SYSTEM.CONST>
0

>  <SCORE.SYSTEM.DIHEDRAL>
0

>  <SCORE.SYSTEM.SOLV>
0

>  <SCORE.SYSTEM.norm>
0

>  <SCORE.heavy>
22

>  <SCORE.norm>
-0.854506

>  <RMSD>
8.405

$$$$
ligand
 OpenBabel11021811503D
libRbt.so/2013.1/901 2013/11/27
 22 24  0  0  0  0  0  0  0  0999 V2000
    0.1639    3.4153   21.4109 C   0  0  0  0  0  0  0  0  0  0  0  0
    1.0232    3.6889   22.4959 C   0  0  0  0  0  0  0  0  0  0  0  0
    0.6063    4.5655   23.4940 C   0  0  0  0  0  0  0  0  0  0  0  0
   -0.6626    5.1638   23.4040 C   0  0  0  0  0  0  0  0  0  0  0  0
   -1.5226    4.8972   22.3103 C   0  0  0  0  0  0  0  0  0  0  0  0
   -1.1048    4.0234   21.3157 C   0  0  0  0  0  0  0  0  0  0  0  0
    0.6174    2.4614   20.2889 C   0  0  0  0  0  0  0  0  0  0  0  0
    1.9710    2.8246   19.6287 C   0  0  0  0  0  0  0  0  0  0  0  0
    3.1568    2.0483   20.1897 C   0  0  0  0  0  0  0  0  0  0  0  0
    3.1162    1.3133   21.3784 C   0  0  0  0  0  0  0  0  0  0  0  0
    4.3475    0.7631   21.5434 N   0  0  0  0  0  0  0  0  0  0  0  0
    5.2121    1.0952   20.5196 C   0  0  0  0  0  0  0  0  0  0  0  0
    4.5028    1.9050   19.6395 C   0  0  0  0  0  0  0  0  0  0  0  0
    5.2052    2.3833   18.4690 C   0  0  0  0  0  0  0  0  0  0  0  0
    4.5546    3.1915   17.5407 O   0  0  0  0  0  0  0  0  0  0  0  0
    6.5351    2.0281   18.2870 N   0  0  0  0  0  0  0  0  0  0  0  0
    7.1888    1.2219   19.1732 C   0  0  0  0  0  0  0  0  0  0  0  0
    6.5683    0.7603   20.2703 N   0  0  0  0  0  0  0  0  0  0  0  0
    8.5891    0.8609   18.9293 N   0  0  0  0  0  0  0  0  0  0  0  0
   -1.0859    6.1118   24.4946 C   0  0  0  0  0  0  0  0  0  0  0  0
   -2.0091    5.8125   25.2497 O   0  0  0  0  0  0  0  0  0  0  0  0
   -0.3974    7.3680   24.6290 N   0  0  0  0  0  0  0  0  0  0  0  0
  1  2  2  0  0  0  0
  1  6  1  0  0  0  0
  1  7  1  0  0  0  0
  2  3  1  0  0  0  0
  3  4  2  0  0  0  0
  4  5  1  0  0  0  0
  4 20  1  0  0  0  0
  5  6  2  0  0  0  0
  7  8  1  0  0  0  0
  8  9  1  0  0  0  0
  9 10  2  0  0  0  0
  9 13  1  0  0  0  0
 10 11  1  0  0  0  0
 11 12  1  0  0  0  0
 12 13  2  0  0  0  0
 12 18  1  0  0  0  0
 13 14  1  0  0  0  0
 14 15  1  0  0  0  0
 14 16  2  0  0  0  0
 16 17  1  0  0  0  0
 17 18  2  0  0  0  0
 17 19  1  0  0  0  0
 20 21  2  0  0  0  0
 20 22  1  0  0  0  0
M  END
>  <CHROM.1>
-53.97829414,-112.89339733,97.33165022,-14.20153382,2.60658871,3.09426717
21.09868896,2.54716427,-0.38945721,1.36100171

>  <Name>
ligand

>  <RI>
0

>  <Rbt.Current_Directory>
/home/itssahil/PROJECTS/Mol_Feturizer/New_Systems/rnas/4LVY

>  <Rbt.Executable>
rbdock ($Id: //depot/dev/client3/rdock/2013.1/src/exe/rbdock.cxx#4 $)

>  <Rbt.Library>
libRbt.so (2013.1, Build901 2013/11/27)

>  <Rbt.Parameter_File>
/export/apps/rDock/src/rDock_2013.1_src/data/scripts/dock_solv.prm

>  <Rbt.Receptor>
prm/pocket_docking_3.prm

>  <SCORE>
-17.7201

>  <SCORE.INTER>
-19.6222

>  <SCORE.INTER.CONST>
1

>  <SCORE.INTER.POLAR>
0

>  <SCORE.INTER.ROT>
4

>  <SCORE.INTER.SOLV>
13.0941

>  <SCORE.INTER.VDW>
-23.7128

>  <SCORE.INTER.norm>
-0.891919

>  <SCORE.INTRA>
1.89956

>  <SCORE.INTRA.DIHEDRAL>
4.25794

>  <SCORE.INTRA.DIHEDRAL.0>
6.18831

>  <SCORE.INTRA.POLAR>
0

>  <SCORE.INTRA.POLAR.0>
0

>  <SCORE.INTRA.REPUL>
0

>  <SCORE.INTRA.REPUL.0>
0

>  <SCORE.INTRA.SOLV>
-0.004445

>  <SCORE.INTRA.SOLV.lig_0>
-44.3465

>  <SCORE.INTRA.VDW>
-0.227191

>  <SCORE.INTRA.VDW.0>
-0.778272

>  <SCORE.INTRA.norm>
0.0863436

>  <SCORE.RESTR>
0.00257388

>  <SCORE.RESTR.CAVITY>
0.00257388

>  <SCORE.RESTR.norm>
0.000116994

>  <SCORE.SYSTEM>
0

>  <SCORE.SYSTEM.CONST>
0

>  <SCORE.SYSTEM.DIHEDRAL>
0

>  <SCORE.SYSTEM.SOLV>
0

>  <SCORE.SYSTEM.norm>
0

>  <SCORE.heavy>
22

>  <SCORE.norm>
-0.805458

>  <RMSD>
8.408

$$$$
ligand
 OpenBabel11021811503D
libRbt.so/2013.1/901 2013/11/27
 22 24  0  0  0  0  0  0  0  0999 V2000
   -0.0411    3.5749   21.4861 C   0  0  0  0  0  0  0  0  0  0  0  0
   -1.2729    4.2595   21.4187 C   0  0  0  0  0  0  0  0  0  0  0  0
   -1.6008    5.1764   22.4136 C   0  0  0  0  0  0  0  0  0  0  0  0
   -0.7004    5.4044   23.4688 C   0  0  0  0  0  0  0  0  0  0  0  0
    0.5326    4.7108   23.5428 C   0  0  0  0  0  0  0  0  0  0  0  0
    0.8575    3.7963   22.5502 C   0  0  0  0  0  0  0  0  0  0  0  0
    0.3291    2.5437   20.4026 C   0  0  0  0  0  0  0  0  0  0  0  0
    1.6313    2.8531   19.6227 C   0  0  0  0  0  0  0  0  0  0  0  0
    2.8622    2.1431   20.1744 C   0  0  0  0  0  0  0  0  0  0  0  0
    2.8822    1.4435   21.3848 C   0  0  0  0  0  0  0  0  0  0  0  0
    4.1390    0.9490   21.5331 N   0  0  0  0  0  0  0  0  0  0  0  0
    4.9629    1.2848   20.4774 C   0  0  0  0  0  0  0  0  0  0  0  0
    4.1985    2.0380   19.5930 C   0  0  0  0  0  0  0  0  0  0  0  0
    4.8506    2.5087   18.3907 C   0  0  0  0  0  0  0  0  0  0  0  0
    4.1437    3.2612   17.4568 O   0  0  0  0  0  0  0  0  0  0  0  0
    6.1890    2.2025   18.1840 N   0  0  0  0  0  0  0  0  0  0  0  0
    6.8979    1.4508   19.0757 C   0  0  0  0  0  0  0  0  0  0  0  0
    6.3250    0.9979   20.2020 N   0  0  0  0  0  0  0  0  0  0  0  0
    8.3053    1.1398   18.8053 N   0  0  0  0  0  0  0  0  0  0  0  0
   -1.0827    6.3975   24.5342 C   0  0  0  0  0  0  0  0  0  0  0  0
   -0.4218    7.4228   24.6891 O   0  0  0  0  0  0  0  0  0  0  0  0
   -2.2245    6.1204   25.3646 N   0  0  0  0  0  0  0  0  0  0  0  0
  1  2  2  0  0  0  0
  1  6  1  0  0  0  0
  1  7  1  0  0  0  0
  2  3  1  0  0  0  0
  3  4  2  0  0  0  0
  4  5  1  0  0  0  0
  4 20  1  0  0  0  0
  5  6  2  0  0  0  0
  7  8  1  0  0  0  0
  8  9  1  0  0  0  0
  9 10  2  0  0  0  0
  9 13  1  0  0  0  0
 10 11  1  0  0  0  0
 11 12  1  0  0  0  0
 12 13  2  0  0  0  0
 12 18  1  0  0  0  0
 13 14  1  0  0  0  0
 14 15  1  0  0  0  0
 14 16  2  0  0  0  0
 16 17  1  0  0  0  0
 17 18  2  0  0  0  0
 17 19  1  0  0  0  0
 20 21  2  0  0  0  0
 20 22  1  0  0  0  0
M  END
>  <CHROM.1>
120.77601411,-116.15017307,95.58807077,-9.49541674,2.39630116,3.27429974
21.09803999,2.48187225,-0.32966433,1.25366715

>  <Name>
ligand

>  <RI>
0

>  <Rbt.Current_Directory>
/home/itssahil/PROJECTS/Mol_Feturizer/New_Systems/rnas/4LVY

>  <Rbt.Executable>
rbdock ($Id: //depot/dev/client3/rdock/2013.1/src/exe/rbdock.cxx#4 $)

>  <Rbt.Library>
libRbt.so (2013.1, Build901 2013/11/27)

>  <Rbt.Parameter_File>
/export/apps/rDock/src/rDock_2013.1_src/data/scripts/dock_solv.prm

>  <Rbt.Receptor>
prm/pocket_docking_4.prm

>  <SCORE>
-18.7828

>  <SCORE.INTER>
-20.5384

>  <SCORE.INTER.CONST>
1

>  <SCORE.INTER.POLAR>
0

>  <SCORE.INTER.ROT>
4

>  <SCORE.INTER.SOLV>
14.2276

>  <SCORE.INTER.VDW>
-24.7015

>  <SCORE.INTER.norm>
-0.933564

>  <SCORE.INTRA>
1.75563

>  <SCORE.INTRA.DIHEDRAL>
3.97215

>  <SCORE.INTRA.DIHEDRAL.0>
6.18831

>  <SCORE.INTRA.POLAR>
0

>  <SCORE.INTRA.POLAR.0>
0

>  <SCORE.INTRA.REPUL>
0

>  <SCORE.INTRA.REPUL.0>
0

>  <SCORE.INTRA.SOLV>
-0.00362991

>  <SCORE.INTRA.SOLV.lig_0>
-44.3465

>  <SCORE.INTRA.VDW>
-0.228634

>  <SCORE.INTRA.VDW.0>
-0.778272

>  <SCORE.INTRA.norm>
0.0798013

>  <SCORE.RESTR>
0

>  <SCORE.RESTR.CAVITY>
0

>  <SCORE.RESTR.norm>
0

>  <SCORE.SYSTEM>
0

>  <SCORE.SYSTEM.CONST>
0

>  <SCORE.SYSTEM.DIHEDRAL>
0

>  <SCORE.SYSTEM.SOLV>
0

>  <SCORE.SYSTEM.norm>
0

>  <SCORE.heavy>
22

>  <SCORE.norm>
-0.853763

>  <RMSD>
8.414

$$$$
ligand
 OpenBabel11021811503D
libRbt.so/2013.1/901 2013/11/27
 22 24  0  0  0  0  0  0  0  0999 V2000
    0.5457    3.6275   20.9095 C   0  0  0  0  0  0  0  0  0  0  0  0
    1.2401    3.7709   22.1292 C   0  0  0  0  0  0  0  0  0  0  0  0
    0.6125    4.3947   23.2041 C   0  0  0  0  0  0  0  0  0  0  0  0
   -0.7015    4.8719   23.0564 C   0  0  0  0  0  0  0  0  0  0  0  0
   -1.3965    4.7371   21.8293 C   0  0  0  0  0  0  0  0  0  0  0  0
   -0.7688    4.1155   20.7585 C   0  0  0  0  0  0  0  0  0  0  0  0
    1.2324    2.9556   19.7048 C   0  0  0  0  0  0  0  0  0  0  0  0
    2.7543    3.2203   19.5880 C   0  0  0  0  0  0  0  0  0  0  0  0
    3.6171    2.1490   20.2448 C   0  0  0  0  0  0  0  0  0  0  0  0
    3.2045    1.3734   21.3326 C   0  0  0  0  0  0  0  0  0  0  0  0
    4.2310    0.5346   21.6302 N   0  0  0  0  0  0  0  0  0  0  0  0
    5.3135    0.7119   20.7917 C   0  0  0  0  0  0  0  0  0  0  0  0
    4.9705    1.7209   19.8984 C   0  0  0  0  0  0  0  0  0  0  0  0
    5.9561    2.0878   18.9054 C   0  0  0  0  0  0  0  0  0  0  0  0
    5.6776    3.0841   17.9738 O   0  0  0  0  0  0  0  0  0  0  0  0
    7.1819    1.4357   18.8970 N   0  0  0  0  0  0  0  0  0  0  0  0
    7.4713    0.4431   19.7879 C   0  0  0  0  0  0  0  0  0  0  0  0
    6.5807    0.0773   20.7232 N   0  0  0  0  0  0  0  0  0  0  0  0
    8.7740   -0.2277   19.7289 N   0  0  0  0  0  0  0  0  0  0  0  0
   -1.3544    5.5472   24.2333 C   0  0  0  0  0  0  0  0  0  0  0  0
   -2.3190    5.0246   24.7887 O   0  0  0  0  0  0  0  0  0  0  0  0
   -0.8341    6.8098   24.6863 N   0  0  0  0  0  0  0  0  0  0  0  0
  1  2  2  0  0  0  0
  1  6  1  0  0  0  0
  1  7  1  0  0  0  0
  2  3  1  0  0  0  0
  3  4  2  0  0  0  0
  4  5  1  0  0  0  0
  4 20  1  0  0  0  0
  5  6  2  0  0  0  0
  7  8  1  0  0  0  0
  8  9  1  0  0  0  0
  9 10  2  0  0  0  0
  9 13  1  0  0  0  0
 10 11  1  0  0  0  0
 11 12  1  0  0  0  0
 12 13  2  0  0  0  0
 12 18  1  0  0  0  0
 13 14  1  0  0  0  0
 14 15  1  0  0  0  0
 14 16  2  0  0  0  0
 16 17  1  0  0  0  0
 17 18  2  0  0  0  0
 17 19  1  0  0  0  0
 20 21  2  0  0  0  0
 20 22  1  0  0  0  0
M  END
>  <CHROM.1>
-34.42161628,-113.44327132,93.55707306,-28.29918528,2.85694484,2.83787817
21.11377336,2.85420804,-0.56569294,1.79821978

>  <Name>
ligand

>  <RI>
0

>  <Rbt.Current_Directory>
/home/itssahil/PROJECTS/Mol_Feturizer/New_Systems/rnas/4LVY

>  <Rbt.Executable>
rbdock ($Id: //depot/dev/client3/rdock/2013.1/src/exe/rbdock.cxx#4 $)

>  <Rbt.Library>
libRbt.so (2013.1, Build901 2013/11/27)

>  <Rbt.Parameter_File>
/export/apps/rDock/src/rDock_2013.1_src/data/scripts/dock_solv.prm

>  <Rbt.Receptor>
prm/pocket_docking_2.prm

>  <SCORE>
-15.3976

>  <SCORE.INTER>
-17.1367

>  <SCORE.INTER.CONST>
1

>  <SCORE.INTER.POLAR>
0

>  <SCORE.INTER.ROT>
4

>  <SCORE.INTER.SOLV>
11.9831

>  <SCORE.INTER.VDW>
-21.6855

>  <SCORE.INTER.norm>
-0.77894

>  <SCORE.INTRA>
1.69834

>  <SCORE.INTRA.DIHEDRAL>
3.73964

>  <SCORE.INTRA.DIHEDRAL.0>
6.18831

>  <SCORE.INTRA.POLAR>
0

>  <SCORE.INTRA.POLAR.0>
0

>  <SCORE.INTRA.REPUL>
0

>  <SCORE.INTRA.REPUL.0>
0

>  <SCORE.INTRA.SOLV>
-0.00425315

>  <SCORE.INTRA.SOLV.lig_0>
-44.3465

>  <SCORE.INTRA.VDW>
-0.169355

>  <SCORE.INTRA.VDW.0>
-0.778272

>  <SCORE.INTRA.norm>
0.0771972

>  <SCORE.RESTR>
0.0407777

>  <SCORE.RESTR.CAVITY>
0.0407777

>  <SCORE.RESTR.norm>
0.00185353

>  <SCORE.SYSTEM>
0

>  <SCORE.SYSTEM.CONST>
0

>  <SCORE.SYSTEM.DIHEDRAL>
0

>  <SCORE.SYSTEM.SOLV>
0

>  <SCORE.SYSTEM.norm>
0

>  <SCORE.heavy>
22

>  <SCORE.norm>
-0.699889

>  <RMSD>
8.422

$$$$
ligand
 OpenBabel11021811503D
libRbt.so/2013.1/901 2013/11/27
 22 24  0  0  0  0  0  0  0  0999 V2000
    1.3142    3.5185   22.3623 C   0  0  0  0  0  0  0  0  0  0  0  0
    1.7744    4.4485   23.3182 C   0  0  0  0  0  0  0  0  0  0  0  0
    0.8544    5.2417   23.9985 C   0  0  0  0  0  0  0  0  0  0  0  0
   -0.5169    5.1036   23.7215 C   0  0  0  0  0  0  0  0  0  0  0  0
   -0.9796    4.1769   22.7551 C   0  0  0  0  0  0  0  0  0  0  0  0
   -0.0607    3.3875   22.0773 C   0  0  0  0  0  0  0  0  0  0  0  0
    2.3206    2.6459   21.5878 C   0  0  0  0  0  0  0  0  0  0  0  0
    1.9815    2.4270   20.0922 C   0  0  0  0  0  0  0  0  0  0  0  0
    3.1977    2.4633   19.1740 C   0  0  0  0  0  0  0  0  0  0  0  0
    3.2083    3.0758   17.9171 C   0  0  0  0  0  0  0  0  0  0  0  0
    4.4567    2.9078   17.4077 N   0  0  0  0  0  0  0  0  0  0  0  0
    5.2840    2.2108   18.2656 C   0  0  0  0  0  0  0  0  0  0  0  0
    4.5319    1.9107   19.3960 C   0  0  0  0  0  0  0  0  0  0  0  0
    5.1919    1.1767   20.4534 C   0  0  0  0  0  0  0  0  0  0  0  0
    4.5022    0.8492   21.6175 O   0  0  0  0  0  0  0  0  0  0  0  0
    6.5188    0.8020   20.2893 N   0  0  0  0  0  0  0  0  0  0  0  0
    7.2213    1.1276   19.1654 C   0  0  0  0  0  0  0  0  0  0  0  0
    6.6407    1.8074   18.1642 N   0  0  0  0  0  0  0  0  0  0  0  0
    8.6259    0.7236   19.0453 N   0  0  0  0  0  0  0  0  0  0  0  0
   -1.4895    5.9777   24.4680 C   0  0  0  0  0  0  0  0  0  0  0  0
   -2.6596    5.6248   24.6033 O   0  0  0  0  0  0  0  0  0  0  0  0
   -1.0261    7.2276   25.0095 N   0  0  0  0  0  0  0  0  0  0  0  0
  1  2  2  0  0  0  0
  1  6  1  0  0  0  0
  1  7  1  0  0  0  0
  2  3  1  0  0  0  0
  3  4  2  0  0  0  0
  4  5  1  0  0  0  0
  4 20  1  0  0  0  0
  5  6  2  0  0  0  0
  7  8  1  0  0  0  0
  8  9  1  0  0  0  0
  9 10  2  0  0  0  0
  9 13  1  0  0  0  0
 10 11  1  0  0  0  0
 11 12  1  0  0  0  0
 12 13  2  0  0  0  0
 12 18  1  0  0  0  0
 13 14  1  0  0  0  0
 14 15  1  0  0  0  0
 14 16  2  0  0  0  0
 16 17  1  0  0  0  0
 17 18  2  0  0  0  0
 17 19  1  0  0  0  0
 20 21  2  0  0  0  0
 20 22  1  0  0  0  0
M  END
>  <CHROM.1>
-140.70633309,-156.18236033,140.50107908,-139.71081691,2.78700444,3.10834724
21.14234737,-2.57391099,0.49033041,-1.60409213

>  <Name>
ligand

>  <RI>
0

>  <Rbt.Current_Directory>
/home/itssahil/PROJECTS/Mol_Feturizer/New_Systems/rnas/4LVY

>  <Rbt.Executable>
rbdock ($Id: //depot/dev/client3/rdock/2013.1/src/exe/rbdock.cxx#4 $)

>  <Rbt.Library>
libRbt.so (2013.1, Build901 2013/11/27)

>  <Rbt.Parameter_File>
/export/apps/rDock/src/rDock_2013.1_src/data/scripts/dock_solv.prm

>  <Rbt.Receptor>
prm/pocket_docking_3.prm

>  <SCORE>
-14.8556

>  <SCORE.INTER>
-17.812

>  <SCORE.INTER.CONST>
1

>  <SCORE.INTER.POLAR>
0

>  <SCORE.INTER.ROT>
4

>  <SCORE.INTER.SOLV>
14.1297

>  <SCORE.INTER.VDW>
-22.8513

>  <SCORE.INTER.norm>
-0.809637

>  <SCORE.INTRA>
2.95645

>  <SCORE.INTRA.DIHEDRAL>
4.66063

>  <SCORE.INTRA.DIHEDRAL.0>
6.18831

>  <SCORE.INTRA.POLAR>
0

>  <SCORE.INTRA.POLAR.0>
0

>  <SCORE.INTRA.REPUL>
0

>  <SCORE.INTRA.REPUL.0>
0

>  <SCORE.INTRA.SOLV>
0.393958

>  <SCORE.INTRA.SOLV.lig_0>
-44.3465

>  <SCORE.INTRA.VDW>
0.429157

>  <SCORE.INTRA.VDW.0>
-0.778272

>  <SCORE.INTRA.norm>
0.134384

>  <SCORE.RESTR>
0

>  <SCORE.RESTR.CAVITY>
0

>  <SCORE.RESTR.norm>
0

>  <SCORE.SYSTEM>
0

>  <SCORE.SYSTEM.CONST>
0

>  <SCORE.SYSTEM.DIHEDRAL>
0

>  <SCORE.SYSTEM.SOLV>
0

>  <SCORE.SYSTEM.norm>
0

>  <SCORE.heavy>
22

>  <SCORE.norm>
-0.675253

>  <RMSD>
8.429

$$$$
ligand
 OpenBabel11021811503D
libRbt.so/2013.1/901 2013/11/27
 22 24  0  0  0  0  0  0  0  0999 V2000
    0.0470    3.5262   21.4328 C   0  0  0  0  0  0  0  0  0  0  0  0
   -1.2019    4.1788   21.3619 C   0  0  0  0  0  0  0  0  0  0  0  0
   -1.5651    5.0709   22.3672 C   0  0  0  0  0  0  0  0  0  0  0  0
   -0.6827    5.3060   23.4360 C   0  0  0  0  0  0  0  0  0  0  0  0
    0.5675    4.6442   23.5133 C   0  0  0  0  0  0  0  0  0  0  0  0
    0.9275    3.7545   22.5103 C   0  0  0  0  0  0  0  0  0  0  0  0
    0.4564    2.5225   20.3377 C   0  0  0  0  0  0  0  0  0  0  0  0
    1.7996    2.8357   19.6323 C   0  0  0  0  0  0  0  0  0  0  0  0
    2.9894    2.0789   20.2111 C   0  0  0  0  0  0  0  0  0  0  0  0
    2.9554    1.3797   21.4214 C   0  0  0  0  0  0  0  0  0  0  0  0
    4.1885    0.8372   21.5976 N   0  0  0  0  0  0  0  0  0  0  0  0
    5.0482    1.1405   20.5608 C   0  0  0  0  0  0  0  0  0  0  0  0
    4.3334    1.9221   19.6598 C   0  0  0  0  0  0  0  0  0  0  0  0
    5.0300    2.3668   18.4727 C   0  0  0  0  0  0  0  0  0  0  0  0
    4.3738    3.1456   17.5234 O   0  0  0  0  0  0  0  0  0  0  0  0
    6.3599    2.0091   18.2958 N   0  0  0  0  0  0  0  0  0  0  0  0
    7.0191    1.2311   19.2029 C   0  0  0  0  0  0  0  0  0  0  0  0
    6.4041    0.8011   20.3158 N   0  0  0  0  0  0  0  0  0  0  0  0
    8.4191    0.8660   18.9640 N   0  0  0  0  0  0  0  0  0  0  0  0
   -1.1031    6.2716   24.5122 C   0  0  0  0  0  0  0  0  0  0  0  0
   -0.4752    7.3144   24.6865 O   0  0  0  0  0  0  0  0  0  0  0  0
   -2.2416    5.9477   25.3300 N   0  0  0  0  0  0  0  0  0  0  0  0
  1  2  2  0  0  0  0
  1  6  1  0  0  0  0
  1  7  1  0  0  0  0
  2  3  1  0  0  0  0
  3  4  2  0  0  0  0
  4  5  1  0  0  0  0
  4 20  1  0  0  0  0
  5  6  2  0  0  0  0
  7  8  1  0  0  0  0
  8  9  1  0  0  0  0
  9 10  2  0  0  0  0
  9 13  1  0  0  0  0
 10 11  1  0  0  0  0
 11 12  1  0  0  0  0
 12 13  2  0  0  0  0
 12 18  1  0  0  0  0
 13 14  1  0  0  0  0
 14 15  1  0  0  0  0
 14 16  2  0  0  0  0
 16 17  1  0  0  0  0
 17 18  2  0  0  0  0
 17 19  1  0  0  0  0
 20 21  2  0  0  0  0
 20 22  1  0  0  0  0
M  END
>  <CHROM.1>
124.07408464,-115.80896143,96.26222397,-12.40282640,2.48276767,3.15818915
21.12555219,2.52524030,-0.38504456,1.32255623

>  <Name>
ligand

>  <RI>
0

>  <Rbt.Current_Directory>
/home/itssahil/PROJECTS/Mol_Feturizer/New_Systems/rnas/4LVY

>  <Rbt.Executable>
rbdock ($Id: //depot/dev/client3/rdock/2013.1/src/exe/rbdock.cxx#4 $)

>  <Rbt.Library>
libRbt.so (2013.1, Build901 2013/11/27)

>  <Rbt.Parameter_File>
/export/apps/rDock/src/rDock_2013.1_src/data/scripts/dock_solv.prm

>  <Rbt.Receptor>
prm/pocket_docking_3.prm

>  <SCORE>
-18.8046

>  <SCORE.INTER>
-20.6175

>  <SCORE.INTER.CONST>
1

>  <SCORE.INTER.POLAR>
0

>  <SCORE.INTER.ROT>
4

>  <SCORE.INTER.SOLV>
14.137

>  <SCORE.INTER.VDW>
-24.724

>  <SCORE.INTER.norm>
-0.93716

>  <SCORE.INTRA>
1.81289

>  <SCORE.INTRA.DIHEDRAL>
4.06467

>  <SCORE.INTRA.DIHEDRAL.0>
6.18831

>  <SCORE.INTRA.POLAR>
0

>  <SCORE.INTRA.POLAR.0>
0

>  <SCORE.INTRA.REPUL>
0

>  <SCORE.INTRA.REPUL.0>
0

>  <SCORE.INTRA.SOLV>
-0.00371073

>  <SCORE.INTRA.SOLV.lig_0>
-44.3465

>  <SCORE.INTRA.VDW>
-0.217587

>  <SCORE.INTRA.VDW.0>
-0.778272

>  <SCORE.INTRA.norm>
0.0824042

>  <SCORE.RESTR>
0

>  <SCORE.RESTR.CAVITY>
0

>  <SCORE.RESTR.norm>
0

>  <SCORE.SYSTEM>
0

>  <SCORE.SYSTEM.CONST>
0

>  <SCORE.SYSTEM.DIHEDRAL>
0

>  <SCORE.SYSTEM.SOLV>
0

>  <SCORE.SYSTEM.norm>
0

>  <SCORE.heavy>
22

>  <SCORE.norm>
-0.854755

>  <RMSD>
8.429

$$$$
ligand
 OpenBabel11021811503D
libRbt.so/2013.1/901 2013/11/27
 22 24  0  0  0  0  0  0  0  0999 V2000
    0.0552    3.5223   21.2814 C   0  0  0  0  0  0  0  0  0  0  0  0
   -1.1858    4.1794   21.1449 C   0  0  0  0  0  0  0  0  0  0  0  0
   -1.6301    5.0196   22.1622 C   0  0  0  0  0  0  0  0  0  0  0  0
   -0.8360    5.1988   23.3083 C   0  0  0  0  0  0  0  0  0  0  0  0
    0.4059    4.5323   23.4509 C   0  0  0  0  0  0  0  0  0  0  0  0
    0.8469    3.6943   22.4357 C   0  0  0  0  0  0  0  0  0  0  0  0
    0.5530    2.5751   20.1727 C   0  0  0  0  0  0  0  0  0  0  0  0
    1.9325    2.9411   19.5701 C   0  0  0  0  0  0  0  0  0  0  0  0
    3.0904    2.1386   20.1521 C   0  0  0  0  0  0  0  0  0  0  0  0
    3.0063    1.3893   21.3297 C   0  0  0  0  0  0  0  0  0  0  0  0
    4.2238    0.8171   21.5201 N   0  0  0  0  0  0  0  0  0  0  0  0
    5.1207    1.1481   20.5241 C   0  0  0  0  0  0  0  0  0  0  0  0
    4.4481    1.9803   19.6361 C   0  0  0  0  0  0  0  0  0  0  0  0
    5.1891    2.4620   18.4910 C   0  0  0  0  0  0  0  0  0  0  0  0
    4.5765    3.2923   17.5564 O   0  0  0  0  0  0  0  0  0  0  0  0
    6.5176    2.0875   18.3398 N   0  0  0  0  0  0  0  0  0  0  0  0
    7.1345    1.2597   19.2324 C   0  0  0  0  0  0  0  0  0  0  0  0
    6.4775    0.7943   20.3064 N   0  0  0  0  0  0  0  0  0  0  0  0
    8.5348    0.8791   19.0210 N   0  0  0  0  0  0  0  0  0  0  0  0
   -1.3431    6.1089   24.3954 C   0  0  0  0  0  0  0  0  0  0  0  0
   -2.3842    5.8392   24.9915 O   0  0  0  0  0  0  0  0  0  0  0  0
   -0.5934    7.2947   24.7147 N   0  0  0  0  0  0  0  0  0  0  0  0
  1  2  2  0  0  0  0
  1  6  1  0  0  0  0
  1  7  1  0  0  0  0
  2  3  1  0  0  0  0
  3  4  2  0  0  0  0
  4  5  1  0  0  0  0
  4 20  1  0  0  0  0
  5  6  2  0  0  0  0
  7  8  1  0  0  0  0
  8  9  1  0  0  0  0
  9 10  2  0  0  0  0
  9 13  1  0  0  0  0
 10 11  1  0  0  0  0
 11 12  1  0  0  0  0
 12 13  2  0  0  0  0
 12 18  1  0  0  0  0
 13 14  1  0  0  0  0
 14 15  1  0  0  0  0
 14 16  2  0  0  0  0
 16 17  1  0  0  0  0
 17 18  2  0  0  0  0
 17 19  1  0  0  0  0
 20 21  2  0  0  0  0
 20 22  1  0  0  0  0
M  END
>  <CHROM.1>
122.71910079,62.61000827,98.58995785,-15.15803746,2.49536835,3.15076747,21.05695729
2.59542937,-0.42038218,1.42773237

>  <Name>
ligand

>  <RI>
0

>  <Rbt.Current_Directory>
/home/itssahil/PROJECTS/Mol_Feturizer/New_Systems/rnas/4LVY

>  <Rbt.Executable>
rbdock ($Id: //depot/dev/client3/rdock/2013.1/src/exe/rbdock.cxx#4 $)

>  <Rbt.Library>
libRbt.so (2013.1, Build901 2013/11/27)

>  <Rbt.Parameter_File>
/export/apps/rDock/src/rDock_2013.1_src/data/scripts/dock_solv.prm

>  <Rbt.Receptor>
prm/pocket_docking_3.prm

>  <SCORE>
-17.655

>  <SCORE.INTER>
-19.6376

>  <SCORE.INTER.CONST>
1

>  <SCORE.INTER.POLAR>
0

>  <SCORE.INTER.ROT>
4

>  <SCORE.INTER.SOLV>
13.2035

>  <SCORE.INTER.VDW>
-23.7596

>  <SCORE.INTER.norm>
-0.89262

>  <SCORE.INTRA>
1.98263

>  <SCORE.INTRA.DIHEDRAL>
4.42846

>  <SCORE.INTRA.DIHEDRAL.0>
6.18831

>  <SCORE.INTRA.POLAR>
0

>  <SCORE.INTRA.POLAR.0>
0

>  <SCORE.INTRA.REPUL>
0

>  <SCORE.INTRA.REPUL.0>
0

>  <SCORE.INTRA.SOLV>
-0.00601532

>  <SCORE.INTRA.SOLV.lig_0>
-44.3465

>  <SCORE.INTRA.VDW>
-0.228592

>  <SCORE.INTRA.VDW.0>
-0.778272

>  <SCORE.INTRA.norm>
0.0901196

>  <SCORE.RESTR>
0

>  <SCORE.RESTR.CAVITY>
0

>  <SCORE.RESTR.norm>
0

>  <SCORE.SYSTEM>
0

>  <SCORE.SYSTEM.CONST>
0

>  <SCORE.SYSTEM.DIHEDRAL>
0

>  <SCORE.SYSTEM.SOLV>
0

>  <SCORE.SYSTEM.norm>
0

>  <SCORE.heavy>
22

>  <SCORE.norm>
-0.8025

>  <RMSD>
8.432

$$$$
ligand
 OpenBabel11021811503D
libRbt.so/2013.1/901 2013/11/27
 22 24  0  0  0  0  0  0  0  0999 V2000
    0.1808    3.6925   21.6323 C   0  0  0  0  0  0  0  0  0  0  0  0
    0.9096    4.8804   21.8525 C   0  0  0  0  0  0  0  0  0  0  0  0
    0.4766    5.7779   22.8247 C   0  0  0  0  0  0  0  0  0  0  0  0
   -0.6792    5.4866   23.5701 C   0  0  0  0  0  0  0  0  0  0  0  0
   -1.4172    4.2988   23.3435 C   0  0  0  0  0  0  0  0  0  0  0  0
   -0.9843    3.4055   22.3731 C   0  0  0  0  0  0  0  0  0  0  0  0
    0.6365    2.6974   20.5478 C   0  0  0  0  0  0  0  0  0  0  0  0
    1.9503    1.9403   20.8650 C   0  0  0  0  0  0  0  0  0  0  0  0
    3.0322    2.1154   19.8056 C   0  0  0  0  0  0  0  0  0  0  0  0
    2.8159    2.7150   18.5612 C   0  0  0  0  0  0  0  0  0  0  0  0
    4.0039    2.6943   17.9022 N   0  0  0  0  0  0  0  0  0  0  0  0
    5.0073    2.1082   18.6478 C   0  0  0  0  0  0  0  0  0  0  0  0
    4.4402    1.7286   19.8593 C   0  0  0  0  0  0  0  0  0  0  0  0
    5.3075    1.0873   20.8231 C   0  0  0  0  0  0  0  0  0  0  0  0
    4.8092    0.6882   22.0602 O   0  0  0  0  0  0  0  0  0  0  0  0
    6.6398    0.8734   20.4957 N   0  0  0  0  0  0  0  0  0  0  0  0
    7.1558    1.2723   19.2969 C   0  0  0  0  0  0  0  0  0  0  0  0
    6.3800    1.8698   18.3789 N   0  0  0  0  0  0  0  0  0  0  0  0
    8.5735    1.0389   19.0035 N   0  0  0  0  0  0  0  0  0  0  0  0
   -1.1279    6.4773   24.6115 C   0  0  0  0  0  0  0  0  0  0  0  0
   -0.4867    7.5095   24.7994 O   0  0  0  0  0  0  0  0  0  0  0  0
   -2.3094    6.1896   25.3805 N   0  0  0  0  0  0  0  0  0  0  0  0
  1  2  2  0  0  0  0
  1  6  1  0  0  0  0
  1  7  1  0  0  0  0
  2  3  1  0  0  0  0
  3  4  2  0  0  0  0
  4  5  1  0  0  0  0
  4 20  1  0  0  0  0
  5  6  2  0  0  0  0
  7  8  1  0  0  0  0
  8  9  1  0  0  0  0
  9 10  2  0  0  0  0
  9 13  1  0  0  0  0
 10 11  1  0  0  0  0
 11 12  1  0  0  0  0
 12 13  2  0  0  0  0
 12 18  1  0  0  0  0
 13 14  1  0  0  0  0
 14 15  1  0  0  0  0
 14 16  2  0  0  0  0
 16 17  1  0  0  0  0
 17 18  2  0  0  0  0
 17 19  1  0  0  0  0
 20 21  2  0  0  0  0
 20 22  1  0  0  0  0
M  END
>  <CHROM.1>
69.86635550,-0.29968642,-123.22823355,-9.80105013,2.56199382,3.19558363,21.23130036
2.47042549,-0.29497809,1.16012613

>  <Name>
ligand

>  <RI>
0

>  <Rbt.Current_Directory>
/home/itssahil/PROJECTS/Mol_Feturizer/New_Systems/rnas/4LVY

>  <Rbt.Executable>
rbdock ($Id: //depot/dev/client3/rdock/2013.1/src/exe/rbdock.cxx#4 $)

>  <Rbt.Library>
libRbt.so (2013.1, Build901 2013/11/27)

>  <Rbt.Parameter_File>
/export/apps/rDock/src/rDock_2013.1_src/data/scripts/dock_solv.prm

>  <Rbt.Receptor>
prm/pocket_docking_3.prm

>  <SCORE>
-16.6365

>  <SCORE.INTER>
-20.0231

>  <SCORE.INTER.CONST>
1

>  <SCORE.INTER.POLAR>
0

>  <SCORE.INTER.ROT>
4

>  <SCORE.INTER.SOLV>
13.537

>  <SCORE.INTER.VDW>
-24.1277

>  <SCORE.INTER.norm>
-0.910141

>  <SCORE.INTRA>
3.38663

>  <SCORE.INTRA.DIHEDRAL>
6.14822

>  <SCORE.INTRA.DIHEDRAL.0>
6.18831

>  <SCORE.INTRA.POLAR>
0

>  <SCORE.INTRA.POLAR.0>
0

>  <SCORE.INTRA.REPUL>
0

>  <SCORE.INTRA.REPUL.0>
0

>  <SCORE.INTRA.SOLV>
0.00749955

>  <SCORE.INTRA.SOLV.lig_0>
-44.3465

>  <SCORE.INTRA.VDW>
0.308773

>  <SCORE.INTRA.VDW.0>
-0.778272

>  <SCORE.INTRA.norm>
0.153938

>  <SCORE.RESTR>
0

>  <SCORE.RESTR.CAVITY>
0

>  <SCORE.RESTR.norm>
0

>  <SCORE.SYSTEM>
0

>  <SCORE.SYSTEM.CONST>
0

>  <SCORE.SYSTEM.DIHEDRAL>
0

>  <SCORE.SYSTEM.SOLV>
0

>  <SCORE.SYSTEM.norm>
0

>  <SCORE.heavy>
22

>  <SCORE.norm>
-0.756203

>  <RMSD>
8.434

$$$$
ligand
 OpenBabel11021811503D
libRbt.so/2013.1/901 2013/11/27
 22 24  0  0  0  0  0  0  0  0999 V2000
   -0.0183    4.3259   21.3148 C   0  0  0  0  0  0  0  0  0  0  0  0
   -0.9559    3.7021   22.1648 C   0  0  0  0  0  0  0  0  0  0  0  0
   -1.4080    4.3764   23.2958 C   0  0  0  0  0  0  0  0  0  0  0  0
   -0.9229    5.6664   23.5727 C   0  0  0  0  0  0  0  0  0  0  0  0
    0.0256    6.2901   22.7252 C   0  0  0  0  0  0  0  0  0  0  0  0
    0.4758    5.6158   21.5984 C   0  0  0  0  0  0  0  0  0  0  0  0
    0.5056    3.5860   20.0689 C   0  0  0  0  0  0  0  0  0  0  0  0
    0.9840    2.1346   20.3228 C   0  0  0  0  0  0  0  0  0  0  0  0
    2.4994    1.9917   20.4034 C   0  0  0  0  0  0  0  0  0  0  0  0
    3.1816    1.5451   21.5392 C   0  0  0  0  0  0  0  0  0  0  0  0
    4.5046    1.5460   21.2297 N   0  0  0  0  0  0  0  0  0  0  0  0
    4.7410    1.9725   19.9380 C   0  0  0  0  0  0  0  0  0  0  0  0
    3.5026    2.2634   19.3765 C   0  0  0  0  0  0  0  0  0  0  0  0
    3.4909    2.7319   18.0080 C   0  0  0  0  0  0  0  0  0  0  0  0
    2.2862    3.0341   17.3792 O   0  0  0  0  0  0  0  0  0  0  0  0
    4.6958    2.8783   17.3337 N   0  0  0  0  0  0  0  0  0  0  0  0
    5.8881    2.5708   17.9225 C   0  0  0  0  0  0  0  0  0  0  0  0
    5.9364    2.1340   19.1908 N   0  0  0  0  0  0  0  0  0  0  0  0
    7.1334    2.7264   17.1639 N   0  0  0  0  0  0  0  0  0  0  0  0
   -1.4247    6.3707   24.8054 C   0  0  0  0  0  0  0  0  0  0  0  0
   -0.9652    7.4666   25.1213 O   0  0  0  0  0  0  0  0  0  0  0  0
   -2.4403    5.7362   25.6029 N   0  0  0  0  0  0  0  0  0  0  0  0
  1  2  2  0  0  0  0
  1  6  1  0  0  0  0
  1  7  1  0  0  0  0
  2  3  1  0  0  0  0
  3  4  2  0  0  0  0
  4  5  1  0  0  0  0
  4 20  1  0  0  0  0
  5  6  2  0  0  0  0
  7  8  1  0  0  0  0
  8  9  1  0  0  0  0
  9 10  2  0  0  0  0
  9 13  1  0  0  0  0
 10 11  1  0  0  0  0
 11 12  1  0  0  0  0
 12 13  2  0  0  0  0
 12 18  1  0  0  0  0
 13 14  1  0  0  0  0
 14 15  1  0  0  0  0
 14 16  2  0  0  0  0
 16 17  1  0  0  0  0
 17 18  2  0  0  0  0
 17 19  1  0  0  0  0
 20 21  2  0  0  0  0
 20 22  1  0  0  0  0
M  END
>  <CHROM.1>
-48.55594126,175.77344992,-101.82621706,118.11882946,1.91767744,3.67628554
20.88375945,2.38616969,-0.35485042,1.36968602

>  <Name>
ligand

>  <RI>
0

>  <Rbt.Current_Directory>
/home/itssahil/PROJECTS/Mol_Feturizer/New_Systems/rnas/4LVY

>  <Rbt.Executable>
rbdock ($Id: //depot/dev/client3/rdock/2013.1/src/exe/rbdock.cxx#4 $)

>  <Rbt.Library>
libRbt.so (2013.1, Build901 2013/11/27)

>  <Rbt.Parameter_File>
/export/apps/rDock/src/rDock_2013.1_src/data/scripts/dock_solv.prm

>  <Rbt.Receptor>
prm/pocket_docking_4.prm

>  <SCORE>
-15.4248

>  <SCORE.INTER>
-17.6413

>  <SCORE.INTER.CONST>
1

>  <SCORE.INTER.POLAR>
0

>  <SCORE.INTER.ROT>
4

>  <SCORE.INTER.SOLV>
15.8599

>  <SCORE.INTER.VDW>
-23.3141

>  <SCORE.INTER.norm>
-0.801876

>  <SCORE.INTRA>
2.21652

>  <SCORE.INTRA.DIHEDRAL>
4.89786

>  <SCORE.INTRA.DIHEDRAL.0>
6.18831

>  <SCORE.INTRA.POLAR>
0

>  <SCORE.INTRA.POLAR.0>
0

>  <SCORE.INTRA.REPUL>
0

>  <SCORE.INTRA.REPUL.0>
0

>  <SCORE.INTRA.SOLV>
0.295944

>  <SCORE.INTRA.SOLV.lig_0>
-44.3465

>  <SCORE.INTRA.VDW>
-0.380382

>  <SCORE.INTRA.VDW.0>
-0.778272

>  <SCORE.INTRA.norm>
0.100751

>  <SCORE.RESTR>
0

>  <SCORE.RESTR.CAVITY>
0

>  <SCORE.RESTR.norm>
0

>  <SCORE.SYSTEM>
0

>  <SCORE.SYSTEM.CONST>
0

>  <SCORE.SYSTEM.DIHEDRAL>
0

>  <SCORE.SYSTEM.SOLV>
0

>  <SCORE.SYSTEM.norm>
0

>  <SCORE.heavy>
22

>  <SCORE.norm>
-0.701125

>  <RMSD>
8.434

$$$$
ligand
 OpenBabel11021811503D
libRbt.so/2013.1/901 2013/11/27
 22 24  0  0  0  0  0  0  0  0999 V2000
    2.4250    3.1058   22.5499 C   0  0  0  0  0  0  0  0  0  0  0  0
    1.3735    2.8394   21.6477 C   0  0  0  0  0  0  0  0  0  0  0  0
    0.2140    3.6080   21.7030 C   0  0  0  0  0  0  0  0  0  0  0  0
    0.1095    4.6356   22.6566 C   0  0  0  0  0  0  0  0  0  0  0  0
    1.1607    4.8980   23.5693 C   0  0  0  0  0  0  0  0  0  0  0  0
    2.3158    4.1300   23.5131 C   0  0  0  0  0  0  0  0  0  0  0  0
    3.7077    2.2528   22.5137 C   0  0  0  0  0  0  0  0  0  0  0  0
    3.7526    1.1863   21.3910 C   0  0  0  0  0  0  0  0  0  0  0  0
    4.3020    1.7082   20.0684 C   0  0  0  0  0  0  0  0  0  0  0  0
    3.5681    2.4937   19.1744 C   0  0  0  0  0  0  0  0  0  0  0  0
    4.3870    2.7652   18.1248 N   0  0  0  0  0  0  0  0  0  0  0  0
    5.6368    2.1979   18.2740 C   0  0  0  0  0  0  0  0  0  0  0  0
    5.6302    1.5215   19.4889 C   0  0  0  0  0  0  0  0  0  0  0  0
    6.8471    0.8403   19.8730 C   0  0  0  0  0  0  0  0  0  0  0  0
    6.9147    0.1500   21.0800 O   0  0  0  0  0  0  0  0  0  0  0  0
    7.9426    0.8823   19.0209 N   0  0  0  0  0  0  0  0  0  0  0  0
    7.9067    1.5678   17.8413 C   0  0  0  0  0  0  0  0  0  0  0  0
    6.7942    2.2109   17.4532 N   0  0  0  0  0  0  0  0  0  0  0  0
    9.0949    1.5967   16.9825 N   0  0  0  0  0  0  0  0  0  0  0  0
   -1.1577    5.4478   22.6978 C   0  0  0  0  0  0  0  0  0  0  0  0
   -1.5088    6.0956   21.7134 O   0  0  0  0  0  0  0  0  0  0  0  0
   -1.9393    5.4552   23.9058 N   0  0  0  0  0  0  0  0  0  0  0  0
  1  2  2  0  0  0  0
  1  6  1  0  0  0  0
  1  7  1  0  0  0  0
  2  3  1  0  0  0  0
  3  4  2  0  0  0  0
  4  5  1  0  0  0  0
  4 20  1  0  0  0  0
  5  6  2  0  0  0  0
  7  8  1  0  0  0  0
  8  9  1  0  0  0  0
  9 10  2  0  0  0  0
  9 13  1  0  0  0  0
 10 11  1  0  0  0  0
 11 12  1  0  0  0  0
 12 13  2  0  0  0  0
 12 18  1  0  0  0  0
 13 14  1  0  0  0  0
 14 15  1  0  0  0  0
 14 16  2  0  0  0  0
 16 17  1  0  0  0  0
 17 18  2  0  0  0  0
 17 19  1  0  0  0  0
 20 21  2  0  0  0  0
 20 22  1  0  0  0  0
M  END
>  <CHROM.1>
3.25355136,-60.39955740,87.26765090,-77.54799122,3.64619424,2.78570884,20.67458506
-2.84357727,0.56276589,-1.21569264

>  <Name>
ligand

>  <RI>
0

>  <Rbt.Current_Directory>
/home/itssahil/PROJECTS/Mol_Feturizer/New_Systems/rnas/4LVY

>  <Rbt.Executable>
rbdock ($Id: //depot/dev/client3/rdock/2013.1/src/exe/rbdock.cxx#4 $)

>  <Rbt.Library>
libRbt.so (2013.1, Build901 2013/11/27)

>  <Rbt.Parameter_File>
/export/apps/rDock/src/rDock_2013.1_src/data/scripts/dock_solv.prm

>  <Rbt.Receptor>
prm/pocket_docking_3.prm

>  <SCORE>
-11.3928

>  <SCORE.INTER>
-12.4697

>  <SCORE.INTER.CONST>
1

>  <SCORE.INTER.POLAR>
0

>  <SCORE.INTER.ROT>
4

>  <SCORE.INTER.SOLV>
10.2745

>  <SCORE.INTER.VDW>
-18.0046

>  <SCORE.INTER.norm>
-0.566803

>  <SCORE.INTRA>
1.07686

>  <SCORE.INTRA.DIHEDRAL>
2.61645

>  <SCORE.INTRA.DIHEDRAL.0>
6.18831

>  <SCORE.INTRA.POLAR>
0

>  <SCORE.INTRA.POLAR.0>
0

>  <SCORE.INTRA.REPUL>
0

>  <SCORE.INTRA.REPUL.0>
0

>  <SCORE.INTRA.SOLV>
0.106072

>  <SCORE.INTRA.SOLV.lig_0>
-44.3465

>  <SCORE.INTRA.VDW>
-0.284405

>  <SCORE.INTRA.VDW.0>
-0.778272

>  <SCORE.INTRA.norm>
0.0489481

>  <SCORE.RESTR>
0

>  <SCORE.RESTR.CAVITY>
0

>  <SCORE.RESTR.norm>
0

>  <SCORE.SYSTEM>
0

>  <SCORE.SYSTEM.CONST>
0

>  <SCORE.SYSTEM.DIHEDRAL>
0

>  <SCORE.SYSTEM.SOLV>
0

>  <SCORE.SYSTEM.norm>
0

>  <SCORE.heavy>
22

>  <SCORE.norm>
-0.517855

>  <RMSD>
8.442

$$$$
ligand
 OpenBabel11021811503D
libRbt.so/2013.1/901 2013/11/27
 22 24  0  0  0  0  0  0  0  0999 V2000
    0.1926    4.2691   21.0726 C   0  0  0  0  0  0  0  0  0  0  0  0
    0.4157    5.6298   21.3715 C   0  0  0  0  0  0  0  0  0  0  0  0
   -0.1651    6.1841   22.5089 C   0  0  0  0  0  0  0  0  0  0  0  0
   -0.9645    5.3799   23.3399 C   0  0  0  0  0  0  0  0  0  0  0  0
   -1.1971    4.0160   23.0358 C   0  0  0  0  0  0  0  0  0  0  0  0
   -0.6177    3.4653   21.9008 C   0  0  0  0  0  0  0  0  0  0  0  0
    0.8134    3.6449   19.8080 C   0  0  0  0  0  0  0  0  0  0  0  0
    1.7439    2.4335   20.0657 C   0  0  0  0  0  0  0  0  0  0  0  0
    2.9960    2.4237   19.1964 C   0  0  0  0  0  0  0  0  0  0  0  0
    3.0426    2.9196   17.8899 C   0  0  0  0  0  0  0  0  0  0  0  0
    4.3152    2.7445   17.4475 N   0  0  0  0  0  0  0  0  0  0  0  0
    5.1245    2.1541   18.3975 C   0  0  0  0  0  0  0  0  0  0  0  0
    4.3342    1.9348   19.5204 C   0  0  0  0  0  0  0  0  0  0  0  0
    4.9690    1.3205   20.6658 C   0  0  0  0  0  0  0  0  0  0  0  0
    4.2403    1.0789   21.8272 O   0  0  0  0  0  0  0  0  0  0  0  0
    6.3112    0.9735   20.5890 N   0  0  0  0  0  0  0  0  0  0  0  0
    7.0511    1.2171   19.4683 C   0  0  0  0  0  0  0  0  0  0  0  0
    6.4946    1.7851   18.3869 N   0  0  0  0  0  0  0  0  0  0  0  0
    8.4699    0.8473   19.4410 N   0  0  0  0  0  0  0  0  0  0  0  0
   -1.5847    6.0065   24.5606 C   0  0  0  0  0  0  0  0  0  0  0  0
   -2.5364    5.4631   25.1183 O   0  0  0  0  0  0  0  0  0  0  0  0
   -1.0488    7.2477   25.0527 N   0  0  0  0  0  0  0  0  0  0  0  0
  1  2  2  0  0  0  0
  1  6  1  0  0  0  0
  1  7  1  0  0  0  0
  2  3  1  0  0  0  0
  3  4  2  0  0  0  0
  4  5  1  0  0  0  0
  4 20  1  0  0  0  0
  5  6  2  0  0  0  0
  7  8  1  0  0  0  0
  8  9  1  0  0  0  0
  9 10  2  0  0  0  0
  9 13  1  0  0  0  0
 10 11  1  0  0  0  0
 11 12  1  0  0  0  0
 12 13  2  0  0  0  0
 12 18  1  0  0  0  0
 13 14  1  0  0  0  0
 14 15  1  0  0  0  0
 14 16  2  0  0  0  0
 16 17  1  0  0  0  0
 17 18  2  0  0  0  0
 17 19  1  0  0  0  0
 20 21  2  0  0  0  0
 20 22  1  0  0  0  0
M  END
>  <CHROM.1>
121.71307876,161.68825953,-139.55459873,-32.84731466,2.41173833,3.29789662
20.96944105,2.62805046,-0.49619883,1.53494457

>  <Name>
ligand

>  <RI>
0

>  <Rbt.Current_Directory>
/home/itssahil/PROJECTS/Mol_Feturizer/New_Systems/rnas/4LVY

>  <Rbt.Executable>
rbdock ($Id: //depot/dev/client3/rdock/2013.1/src/exe/rbdock.cxx#4 $)

>  <Rbt.Library>
libRbt.so (2013.1, Build901 2013/11/27)

>  <Rbt.Parameter_File>
/export/apps/rDock/src/rDock_2013.1_src/data/scripts/dock_solv.prm

>  <Rbt.Receptor>
prm/pocket_docking_3.prm

>  <SCORE>
-16.1071

>  <SCORE.INTER>
-18.6422

>  <SCORE.INTER.CONST>
1

>  <SCORE.INTER.POLAR>
0

>  <SCORE.INTER.ROT>
4

>  <SCORE.INTER.SOLV>
14.0487

>  <SCORE.INTER.VDW>
-23.3777

>  <SCORE.INTER.norm>
-0.847372

>  <SCORE.INTRA>
2.52658

>  <SCORE.INTRA.DIHEDRAL>
4.67374

>  <SCORE.INTRA.DIHEDRAL.0>
6.18831

>  <SCORE.INTRA.POLAR>
0

>  <SCORE.INTRA.POLAR.0>
0

>  <SCORE.INTRA.REPUL>
0

>  <SCORE.INTRA.REPUL.0>
0

>  <SCORE.INTRA.SOLV>
0.00869104

>  <SCORE.INTRA.SOLV.lig_0>
-44.3465

>  <SCORE.INTRA.VDW>
0.18536

>  <SCORE.INTRA.VDW.0>
-0.778272

>  <SCORE.INTRA.norm>
0.114844

>  <SCORE.RESTR>
0.00854169

>  <SCORE.RESTR.CAVITY>
0.00854169

>  <SCORE.RESTR.norm>
0.000388259

>  <SCORE.SYSTEM>
0

>  <SCORE.SYSTEM.CONST>
0

>  <SCORE.SYSTEM.DIHEDRAL>
0

>  <SCORE.SYSTEM.SOLV>
0

>  <SCORE.SYSTEM.norm>
0

>  <SCORE.heavy>
22

>  <SCORE.norm>
-0.73214

>  <RMSD>
8.443

$$$$
ligand
 OpenBabel11021811503D
libRbt.so/2013.1/901 2013/11/27
 22 24  0  0  0  0  0  0  0  0999 V2000
    0.2108    3.6730   21.6219 C   0  0  0  0  0  0  0  0  0  0  0  0
   -1.0079    3.4442   22.2951 C   0  0  0  0  0  0  0  0  0  0  0  0
   -1.4235    4.3372   23.2790 C   0  0  0  0  0  0  0  0  0  0  0  0
   -0.6225    5.4508   23.5861 C   0  0  0  0  0  0  0  0  0  0  0  0
    0.6059    5.6766   22.9177 C   0  0  0  0  0  0  0  0  0  0  0  0
    1.0190    4.7847   21.9373 C   0  0  0  0  0  0  0  0  0  0  0  0
    0.6938    2.6847   20.5430 C   0  0  0  0  0  0  0  0  0  0  0  0
    2.0177    1.9511   20.8733 C   0  0  0  0  0  0  0  0  0  0  0  0
    3.0995    2.1276   19.8141 C   0  0  0  0  0  0  0  0  0  0  0  0
    2.8902    2.7544   18.5820 C   0  0  0  0  0  0  0  0  0  0  0  0
    4.0758    2.7256   17.9190 N   0  0  0  0  0  0  0  0  0  0  0  0
    5.0709    2.1083   18.6502 C   0  0  0  0  0  0  0  0  0  0  0  0
    4.5007    1.7155   19.8561 C   0  0  0  0  0  0  0  0  0  0  0  0
    5.3594    1.0411   20.8049 C   0  0  0  0  0  0  0  0  0  0  0  0
    4.8577    0.6273   22.0358 O   0  0  0  0  0  0  0  0  0  0  0  0
    6.6869    0.8104   20.4694 N   0  0  0  0  0  0  0  0  0  0  0  0
    7.2064    1.2231   19.2767 C   0  0  0  0  0  0  0  0  0  0  0  0
    6.4386    1.8513   18.3726 N   0  0  0  0  0  0  0  0  0  0  0  0
    8.6191    0.9709   18.9746 N   0  0  0  0  0  0  0  0  0  0  0  0
   -1.0935    6.3975   24.6582 C   0  0  0  0  0  0  0  0  0  0  0  0
   -0.5395    7.4848   24.8094 O   0  0  0  0  0  0  0  0  0  0  0  0
   -2.1921    6.0033   25.4994 N   0  0  0  0  0  0  0  0  0  0  0  0
  1  2  2  0  0  0  0
  1  6  1  0  0  0  0
  1  7  1  0  0  0  0
  2  3  1  0  0  0  0
  3  4  2  0  0  0  0
  4  5  1  0  0  0  0
  4 20  1  0  0  0  0
  5  6  2  0  0  0  0
  7  8  1  0  0  0  0
  8  9  1  0  0  0  0
  9 10  2  0  0  0  0
  9 13  1  0  0  0  0
 10 11  1  0  0  0  0
 11 12  1  0  0  0  0
 12 13  2  0  0  0  0
 12 18  1  0  0  0  0
 13 14  1  0  0  0  0
 14 15  1  0  0  0  0
 14 16  2  0  0  0  0
 16 17  1  0  0  0  0
 17 18  2  0  0  0  0
 17 19  1  0  0  0  0
 20 21  2  0  0  0  0
 20 22  1  0  0  0  0
M  END
>  <CHROM.1>
-116.33825014,-168.43940603,-124.04962562,-7.17669678,2.61379811,3.16270583
21.23756524,2.48217805,-0.32191310,1.20465507

>  <Name>
ligand

>  <RI>
0

>  <Rbt.Current_Directory>
/home/itssahil/PROJECTS/Mol_Feturizer/New_Systems/rnas/4LVY

>  <Rbt.Executable>
rbdock ($Id: //depot/dev/client3/rdock/2013.1/src/exe/rbdock.cxx#4 $)

>  <Rbt.Library>
libRbt.so (2013.1, Build901 2013/11/27)

>  <Rbt.Parameter_File>
/export/apps/rDock/src/rDock_2013.1_src/data/scripts/dock_solv.prm

>  <Rbt.Receptor>
prm/pocket_docking_4.prm

>  <SCORE>
-16.6078

>  <SCORE.INTER>
-19.9708

>  <SCORE.INTER.CONST>
1

>  <SCORE.INTER.POLAR>
0

>  <SCORE.INTER.ROT>
4

>  <SCORE.INTER.SOLV>
13.5569

>  <SCORE.INTER.VDW>
-24.0995

>  <SCORE.INTER.norm>
-0.907762

>  <SCORE.INTRA>
3.36297

>  <SCORE.INTRA.DIHEDRAL>
6.08891

>  <SCORE.INTRA.DIHEDRAL.0>
6.18831

>  <SCORE.INTRA.POLAR>
0

>  <SCORE.INTRA.POLAR.0>
0

>  <SCORE.INTRA.REPUL>
0

>  <SCORE.INTRA.REPUL.0>
0

>  <SCORE.INTRA.SOLV>
0.00978206

>  <SCORE.INTRA.SOLV.lig_0>
-44.3465

>  <SCORE.INTRA.VDW>
0.313625

>  <SCORE.INTRA.VDW.0>
-0.778272

>  <SCORE.INTRA.norm>
0.152862

>  <SCORE.RESTR>
0

>  <SCORE.RESTR.CAVITY>
0

>  <SCORE.RESTR.norm>
0

>  <SCORE.SYSTEM>
0

>  <SCORE.SYSTEM.CONST>
0

>  <SCORE.SYSTEM.DIHEDRAL>
0

>  <SCORE.SYSTEM.SOLV>
0

>  <SCORE.SYSTEM.norm>
0

>  <SCORE.heavy>
22

>  <SCORE.norm>
-0.7549

>  <RMSD>
8.443

$$$$
ligand
 OpenBabel11021811503D
libRbt.so/2013.1/901 2013/11/27
 22 24  0  0  0  0  0  0  0  0999 V2000
    0.6113    3.1712   21.7260 C   0  0  0  0  0  0  0  0  0  0  0  0
    1.4937    3.9097   22.5425 C   0  0  0  0  0  0  0  0  0  0  0  0
    0.9769    4.8348   23.4456 C   0  0  0  0  0  0  0  0  0  0  0  0
   -0.4144    5.0183   23.5286 C   0  0  0  0  0  0  0  0  0  0  0  0
   -1.3009    4.2842   22.7028 C   0  0  0  0  0  0  0  0  0  0  0  0
   -0.7837    3.3629   21.8024 C   0  0  0  0  0  0  0  0  0  0  0  0
    1.1680    2.1566   20.7087 C   0  0  0  0  0  0  0  0  0  0  0  0
    2.6104    1.6686   20.9938 C   0  0  0  0  0  0  0  0  0  0  0  0
    3.6334    2.1399   19.9668 C   0  0  0  0  0  0  0  0  0  0  0  0
    3.3645    3.0900   18.9770 C   0  0  0  0  0  0  0  0  0  0  0  0
    4.5103    3.2524   18.2651 N   0  0  0  0  0  0  0  0  0  0  0  0
    5.5357    2.4546   18.7323 C   0  0  0  0  0  0  0  0  0  0  0  0
    5.0284    1.7351   19.8087 C   0  0  0  0  0  0  0  0  0  0  0  0
    5.9290    0.8207   20.4759 C   0  0  0  0  0  0  0  0  0  0  0  0
    5.4912    0.0740   21.5663 O   0  0  0  0  0  0  0  0  0  0  0  0
    7.2319    0.6968   20.0122 N   0  0  0  0  0  0  0  0  0  0  0  0
    7.6895    1.4315   18.9571 C   0  0  0  0  0  0  0  0  0  0  0  0
    6.8815    2.2891   18.3141 N   0  0  0  0  0  0  0  0  0  0  0  0
    9.0790    1.2776   18.5141 N   0  0  0  0  0  0  0  0  0  0  0  0
   -0.9457    6.0289   24.5102 C   0  0  0  0  0  0  0  0  0  0  0  0
   -1.8310    5.7139   25.3034 O   0  0  0  0  0  0  0  0  0  0  0  0
   -0.4049    7.3621   24.4960 N   0  0  0  0  0  0  0  0  0  0  0  0
  1  2  2  0  0  0  0
  1  6  1  0  0  0  0
  1  7  1  0  0  0  0
  2  3  1  0  0  0  0
  3  4  2  0  0  0  0
  4  5  1  0  0  0  0
  4 20  1  0  0  0  0
  5  6  2  0  0  0  0
  7  8  1  0  0  0  0
  8  9  1  0  0  0  0
  9 10  2  0  0  0  0
  9 13  1  0  0  0  0
 10 11  1  0  0  0  0
 11 12  1  0  0  0  0
 12 13  2  0  0  0  0
 12 18  1  0  0  0  0
 13 14  1  0  0  0  0
 14 15  1  0  0  0  0
 14 16  2  0  0  0  0
 16 17  1  0  0  0  0
 17 18  2  0  0  0  0
 17 19  1  0  0  0  0
 20 21  2  0  0  0  0
 20 22  1  0  0  0  0
M  END
>  <CHROM.1>
20.39783329,-128.95587860,-112.19163119,9.61911548,3.01879279,3.01330684
21.16868189,2.57319552,0.38583188,0.34202288

>  <Name>
ligand

>  <RI>
0

>  <Rbt.Current_Directory>
/home/itssahil/PROJECTS/Mol_Feturizer/New_Systems/rnas/4LVY

>  <Rbt.Executable>
rbdock ($Id: //depot/dev/client3/rdock/2013.1/src/exe/rbdock.cxx#4 $)

>  <Rbt.Library>
libRbt.so (2013.1, Build901 2013/11/27)

>  <Rbt.Parameter_File>
/export/apps/rDock/src/rDock_2013.1_src/data/scripts/dock_solv.prm

>  <Rbt.Receptor>
prm/pocket_docking_3.prm

>  <SCORE>
-13.6903

>  <SCORE.INTER>
-17.0699

>  <SCORE.INTER.CONST>
1

>  <SCORE.INTER.POLAR>
0

>  <SCORE.INTER.ROT>
4

>  <SCORE.INTER.SOLV>
12.1841

>  <SCORE.INTER.VDW>
-21.708

>  <SCORE.INTER.norm>
-0.775906

>  <SCORE.INTRA>
3.37967

>  <SCORE.INTRA.DIHEDRAL>
5.82582

>  <SCORE.INTRA.DIHEDRAL.0>
6.18831

>  <SCORE.INTRA.POLAR>
0

>  <SCORE.INTRA.POLAR.0>
0

>  <SCORE.INTRA.REPUL>
0

>  <SCORE.INTRA.REPUL.0>
0

>  <SCORE.INTRA.SOLV>
-7.27623e-05

>  <SCORE.INTRA.SOLV.lig_0>
-44.3465

>  <SCORE.INTRA.VDW>
0.466795

>  <SCORE.INTRA.VDW.0>
-0.778272

>  <SCORE.INTRA.norm>
0.153621

>  <SCORE.RESTR>
0

>  <SCORE.RESTR.CAVITY>
0

>  <SCORE.RESTR.norm>
0

>  <SCORE.SYSTEM>
0

>  <SCORE.SYSTEM.CONST>
0

>  <SCORE.SYSTEM.DIHEDRAL>
0

>  <SCORE.SYSTEM.SOLV>
0

>  <SCORE.SYSTEM.norm>
0

>  <SCORE.heavy>
22

>  <SCORE.norm>
-0.622285

>  <RMSD>
8.446

$$$$
ligand
 OpenBabel11021811503D
libRbt.so/2013.1/901 2013/11/27
 22 24  0  0  0  0  0  0  0  0999 V2000
    0.2230    4.2783   21.0551 C   0  0  0  0  0  0  0  0  0  0  0  0
    0.4173    5.6454   21.3445 C   0  0  0  0  0  0  0  0  0  0  0  0
   -0.1721    6.1944   22.4801 C   0  0  0  0  0  0  0  0  0  0  0  0
   -0.9513    5.3784   23.3187 C   0  0  0  0  0  0  0  0  0  0  0  0
   -1.1550    4.0077   23.0242 C   0  0  0  0  0  0  0  0  0  0  0  0
   -0.5670    3.4624   21.8910 C   0  0  0  0  0  0  0  0  0  0  0  0
    0.8536    3.6595   19.7927 C   0  0  0  0  0  0  0  0  0  0  0  0
    1.7703    2.4376   20.0510 C   0  0  0  0  0  0  0  0  0  0  0  0
    3.0334    2.4250   19.1978 C   0  0  0  0  0  0  0  0  0  0  0  0
    3.1064    2.9507   17.9042 C   0  0  0  0  0  0  0  0  0  0  0  0
    4.3813    2.7623   17.4740 N   0  0  0  0  0  0  0  0  0  0  0  0
    5.1669    2.1344   18.4198 C   0  0  0  0  0  0  0  0  0  0  0  0
    4.3579    1.9034   19.5270 C   0  0  0  0  0  0  0  0  0  0  0  0
    4.9660    1.2503   20.6654 C   0  0  0  0  0  0  0  0  0  0  0  0
    4.2177    0.9950   21.8112 O   0  0  0  0  0  0  0  0  0  0  0  0
    6.3025    0.8800   20.5974 N   0  0  0  0  0  0  0  0  0  0  0  0
    7.0614    1.1362   19.4924 C   0  0  0  0  0  0  0  0  0  0  0  0
    6.5300    1.7400   18.4179 N   0  0  0  0  0  0  0  0  0  0  0  0
    8.4734    0.7405   19.4743 N   0  0  0  0  0  0  0  0  0  0  0  0
   -1.5815    5.9992   24.5372 C   0  0  0  0  0  0  0  0  0  0  0  0
   -2.5383    5.4537   25.0840 O   0  0  0  0  0  0  0  0  0  0  0  0
   -1.0489    7.2375   25.0402 N   0  0  0  0  0  0  0  0  0  0  0  0
  1  2  2  0  0  0  0
  1  6  1  0  0  0  0
  1  7  1  0  0  0  0
  2  3  1  0  0  0  0
  3  4  2  0  0  0  0
  4  5  1  0  0  0  0
  4 20  1  0  0  0  0
  5  6  2  0  0  0  0
  7  8  1  0  0  0  0
  8  9  1  0  0  0  0
  9 10  2  0  0  0  0
  9 13  1  0  0  0  0
 10 11  1  0  0  0  0
 11 12  1  0  0  0  0
 12 13  2  0  0  0  0
 12 18  1  0  0  0  0
 13 14  1  0  0  0  0
 14 15  1  0  0  0  0
 14 16  2  0  0  0  0
 16 17  1  0  0  0  0
 17 18  2  0  0  0  0
 17 19  1  0  0  0  0
 20 21  2  0  0  0  0
 20 22  1  0  0  0  0
M  END
>  <CHROM.1>
123.85667080,160.08852626,-139.49762869,-31.83555913,2.43128240,3.27547913
20.96642348,2.65447792,-0.52178882,1.57665375

>  <Name>
ligand

>  <RI>
0

>  <Rbt.Current_Directory>
/home/itssahil/PROJECTS/Mol_Feturizer/New_Systems/rnas/4LVY

>  <Rbt.Executable>
rbdock ($Id: //depot/dev/client3/rdock/2013.1/src/exe/rbdock.cxx#4 $)

>  <Rbt.Library>
libRbt.so (2013.1, Build901 2013/11/27)

>  <Rbt.Parameter_File>
/export/apps/rDock/src/rDock_2013.1_src/data/scripts/dock_solv.prm

>  <Rbt.Receptor>
prm/pocket_docking_3.prm

>  <SCORE>
-16.1096

>  <SCORE.INTER>
-18.6582

>  <SCORE.INTER.CONST>
1

>  <SCORE.INTER.POLAR>
0

>  <SCORE.INTER.ROT>
4

>  <SCORE.INTER.SOLV>
14.1485

>  <SCORE.INTER.VDW>
-23.4216

>  <SCORE.INTER.norm>
-0.8481

>  <SCORE.INTRA>
2.54864

>  <SCORE.INTRA.DIHEDRAL>
4.67193

>  <SCORE.INTRA.DIHEDRAL.0>
6.18831

>  <SCORE.INTRA.POLAR>
0

>  <SCORE.INTRA.POLAR.0>
0

>  <SCORE.INTRA.REPUL>
0

>  <SCORE.INTRA.REPUL.0>
0

>  <SCORE.INTRA.SOLV>
0.00835924

>  <SCORE.INTRA.SOLV.lig_0>
-44.3465

>  <SCORE.INTRA.VDW>
0.208493

>  <SCORE.INTRA.VDW.0>
-0.778272

>  <SCORE.INTRA.norm>
0.115847

>  <SCORE.RESTR>
0

>  <SCORE.RESTR.CAVITY>
0

>  <SCORE.RESTR.norm>
0

>  <SCORE.SYSTEM>
0

>  <SCORE.SYSTEM.CONST>
0

>  <SCORE.SYSTEM.DIHEDRAL>
0

>  <SCORE.SYSTEM.SOLV>
0

>  <SCORE.SYSTEM.norm>
0

>  <SCORE.heavy>
22

>  <SCORE.norm>
-0.732253

>  <RMSD>
8.450

$$$$
ligand
 OpenBabel11021811503D
libRbt.so/2013.1/901 2013/11/27
 22 24  0  0  0  0  0  0  0  0999 V2000
   -0.0647    4.3459   21.2037 C   0  0  0  0  0  0  0  0  0  0  0  0
   -0.7289    3.5990   22.1995 C   0  0  0  0  0  0  0  0  0  0  0  0
   -1.2108    4.2476   23.3333 C   0  0  0  0  0  0  0  0  0  0  0  0
   -1.0271    5.6348   23.4677 C   0  0  0  0  0  0  0  0  0  0  0  0
   -0.3522    6.3845   22.4730 C   0  0  0  0  0  0  0  0  0  0  0  0
    0.1282    5.7358   21.3436 C   0  0  0  0  0  0  0  0  0  0  0  0
    0.4903    3.6404   19.9514 C   0  0  0  0  0  0  0  0  0  0  0  0
    1.4737    2.4780   20.2371 C   0  0  0  0  0  0  0  0  0  0  0  0
    2.7004    2.4735   19.3323 C   0  0  0  0  0  0  0  0  0  0  0  0
    2.7097    2.9774   18.0281 C   0  0  0  0  0  0  0  0  0  0  0  0
    3.9691    2.8050   17.5483 N   0  0  0  0  0  0  0  0  0  0  0  0
    4.8051    2.2086   18.4711 C   0  0  0  0  0  0  0  0  0  0  0  0
    4.0472    1.9825   19.6148 C   0  0  0  0  0  0  0  0  0  0  0  0
    4.7143    1.3611   20.7378 C   0  0  0  0  0  0  0  0  0  0  0  0
    4.0191    1.1124   21.9180 O   0  0  0  0  0  0  0  0  0  0  0  0
    6.0537    1.0144   20.6204 N   0  0  0  0  0  0  0  0  0  0  0  0
    6.7612    1.2649   19.4806 C   0  0  0  0  0  0  0  0  0  0  0  0
    6.1742    1.8396   18.4190 N   0  0  0  0  0  0  0  0  0  0  0  0
    8.1786    0.8952   19.4103 N   0  0  0  0  0  0  0  0  0  0  0  0
   -1.5537    6.3099   24.7064 C   0  0  0  0  0  0  0  0  0  0  0  0
   -1.0485    7.3594   25.1004 O   0  0  0  0  0  0  0  0  0  0  0  0
   -2.6471    5.7023   25.4172 N   0  0  0  0  0  0  0  0  0  0  0  0
  1  2  2  0  0  0  0
  1  6  1  0  0  0  0
  1  7  1  0  0  0  0
  2  3  1  0  0  0  0
  3  4  2  0  0  0  0
  4  5  1  0  0  0  0
  4 20  1  0  0  0  0
  5  6  2  0  0  0  0
  7  8  1  0  0  0  0
  8  9  1  0  0  0  0
  9 10  2  0  0  0  0
  9 13  1  0  0  0  0
 10 11  1  0  0  0  0
 11 12  1  0  0  0  0
 12 13  2  0  0  0  0
 12 18  1  0  0  0  0
 13 14  1  0  0  0  0
 14 15  1  0  0  0  0
 14 16  2  0  0  0  0
 16 17  1  0  0  0  0
 17 18  2  0  0  0  0
 17 19  1  0  0  0  0
 20 21  2  0  0  0  0
 20 22  1  0  0  0  0
M  END
>  <CHROM.1>
-55.87490158,154.70385400,-136.66752497,-29.10395623,2.20382657,3.40943501
21.07472619,2.59489105,-0.51248417,1.49856574

>  <Name>
ligand

>  <RI>
0

>  <Rbt.Current_Directory>
/home/itssahil/PROJECTS/Mol_Feturizer/New_Systems/rnas/4LVY

>  <Rbt.Executable>
rbdock ($Id: //depot/dev/client3/rdock/2013.1/src/exe/rbdock.cxx#4 $)

>  <Rbt.Library>
libRbt.so (2013.1, Build901 2013/11/27)

>  <Rbt.Parameter_File>
/export/apps/rDock/src/rDock_2013.1_src/data/scripts/dock_solv.prm

>  <Rbt.Receptor>
prm/pocket_docking_3.prm

>  <SCORE>
-17.0145

>  <SCORE.INTER>
-19.7241

>  <SCORE.INTER.CONST>
1

>  <SCORE.INTER.POLAR>
0

>  <SCORE.INTER.ROT>
4

>  <SCORE.INTER.SOLV>
15.1027

>  <SCORE.INTER.VDW>
-24.4503

>  <SCORE.INTER.norm>
-0.896549

>  <SCORE.INTRA>
2.70958

>  <SCORE.INTRA.DIHEDRAL>
5.06328

>  <SCORE.INTRA.DIHEDRAL.0>
6.18831

>  <SCORE.INTRA.POLAR>
0

>  <SCORE.INTRA.POLAR.0>
0

>  <SCORE.INTRA.REPUL>
0

>  <SCORE.INTRA.REPUL.0>
0

>  <SCORE.INTRA.SOLV>
0.00706245

>  <SCORE.INTRA.SOLV.lig_0>
-44.3465

>  <SCORE.INTRA.VDW>
0.174406

>  <SCORE.INTRA.VDW.0>
-0.778272

>  <SCORE.INTRA.norm>
0.123163

>  <SCORE.RESTR>
0

>  <SCORE.RESTR.CAVITY>
0

>  <SCORE.RESTR.norm>
0

>  <SCORE.SYSTEM>
0

>  <SCORE.SYSTEM.CONST>
0

>  <SCORE.SYSTEM.DIHEDRAL>
0

>  <SCORE.SYSTEM.SOLV>
0

>  <SCORE.SYSTEM.norm>
0

>  <SCORE.heavy>
22

>  <SCORE.norm>
-0.773386

>  <RMSD>
8.454

$$$$
ligand
 OpenBabel11021811503D
libRbt.so/2013.1/901 2013/11/27
 22 24  0  0  0  0  0  0  0  0999 V2000
    0.1287    3.6437   21.6089 C   0  0  0  0  0  0  0  0  0  0  0  0
    0.9761    4.0088   22.6762 C   0  0  0  0  0  0  0  0  0  0  0  0
    0.5078    4.8840   23.6525 C   0  0  0  0  0  0  0  0  0  0  0  0
   -0.8004    5.3899   23.5585 C   0  0  0  0  0  0  0  0  0  0  0  0
   -1.6492    5.0315   22.4823 C   0  0  0  0  0  0  0  0  0  0  0  0
   -1.1801    4.1593   21.5095 C   0  0  0  0  0  0  0  0  0  0  0  0
    0.6377    2.6902   20.5108 C   0  0  0  0  0  0  0  0  0  0  0  0
    1.9416    1.9291   20.8581 C   0  0  0  0  0  0  0  0  0  0  0  0
    3.0489    2.1028   19.8250 C   0  0  0  0  0  0  0  0  0  0  0  0
    2.8696    2.7261   18.5864 C   0  0  0  0  0  0  0  0  0  0  0  0
    4.0710    2.6956   17.9526 N   0  0  0  0  0  0  0  0  0  0  0  0
    5.0481    2.0804   18.7096 C   0  0  0  0  0  0  0  0  0  0  0  0
    4.4487    1.6910   19.9023 C   0  0  0  0  0  0  0  0  0  0  0  0
    5.2840    1.0194   20.8736 C   0  0  0  0  0  0  0  0  0  0  0  0
    4.7526    0.6090   22.0931 O   0  0  0  0  0  0  0  0  0  0  0  0
    6.6193    0.7880   20.5712 N   0  0  0  0  0  0  0  0  0  0  0  0
    7.1677    1.1974   19.3904 C   0  0  0  0  0  0  0  0  0  0  0  0
    6.4221    1.8229   18.4660 N   0  0  0  0  0  0  0  0  0  0  0  0
    8.5873    0.9445   19.1234 N   0  0  0  0  0  0  0  0  0  0  0  0
   -1.2793    6.3387   24.6251 C   0  0  0  0  0  0  0  0  0  0  0  0
   -0.6782    7.3915   24.8309 O   0  0  0  0  0  0  0  0  0  0  0  0
   -2.4417    5.9872   25.3966 N   0  0  0  0  0  0  0  0  0  0  0  0
  1  2  2  0  0  0  0
  1  6  1  0  0  0  0
  1  7  1  0  0  0  0
  2  3  1  0  0  0  0
  3  4  2  0  0  0  0
  4  5  1  0  0  0  0
  4 20  1  0  0  0  0
  5  6  2  0  0  0  0
  7  8  1  0  0  0  0
  8  9  1  0  0  0  0
  9 10  2  0  0  0  0
  9 13  1  0  0  0  0
 10 11  1  0  0  0  0
 11 12  1  0  0  0  0
 12 13  2  0  0  0  0
 12 18  1  0  0  0  0
 13 14  1  0  0  0  0
 14 15  1  0  0  0  0
 14 16  2  0  0  0  0
 16 17  1  0  0  0  0
 17 18  2  0  0  0  0
 17 19  1  0  0  0  0
 20 21  2  0  0  0  0
 20 22  1  0  0  0  0
M  END
>  <CHROM.1>
14.53371659,58.54150975,-125.54245757,-8.60932265,2.52334101,3.13028904,21.25816424
2.53146860,-0.37883362,1.28425877

>  <Name>
ligand

>  <RI>
0

>  <Rbt.Current_Directory>
/home/itssahil/PROJECTS/Mol_Feturizer/New_Systems/rnas/4LVY

>  <Rbt.Executable>
rbdock ($Id: //depot/dev/client3/rdock/2013.1/src/exe/rbdock.cxx#4 $)

>  <Rbt.Library>
libRbt.so (2013.1, Build901 2013/11/27)

>  <Rbt.Parameter_File>
/export/apps/rDock/src/rDock_2013.1_src/data/scripts/dock_solv.prm

>  <Rbt.Receptor>
prm/pocket_docking_3.prm

>  <SCORE>
-17.8785

>  <SCORE.INTER>
-21.4779

>  <SCORE.INTER.CONST>
1

>  <SCORE.INTER.POLAR>
0

>  <SCORE.INTER.ROT>
4

>  <SCORE.INTER.SOLV>
14.0236

>  <SCORE.INTER.VDW>
-25.2598

>  <SCORE.INTER.norm>
-0.976269

>  <SCORE.INTRA>
3.59947

>  <SCORE.INTRA.DIHEDRAL>
5.97483

>  <SCORE.INTRA.DIHEDRAL.0>
6.18831

>  <SCORE.INTRA.POLAR>
0

>  <SCORE.INTRA.POLAR.0>
0

>  <SCORE.INTRA.REPUL>
0

>  <SCORE.INTRA.REPUL.0>
0

>  <SCORE.INTRA.SOLV>
-0.00514869

>  <SCORE.INTRA.SOLV.lig_0>
-44.3465

>  <SCORE.INTRA.VDW>
0.614629

>  <SCORE.INTRA.VDW.0>
-0.778272

>  <SCORE.INTRA.norm>
0.163612

>  <SCORE.RESTR>
0

>  <SCORE.RESTR.CAVITY>
0

>  <SCORE.RESTR.norm>
0

>  <SCORE.SYSTEM>
0

>  <SCORE.SYSTEM.CONST>
0

>  <SCORE.SYSTEM.DIHEDRAL>
0

>  <SCORE.SYSTEM.SOLV>
0

>  <SCORE.SYSTEM.norm>
0

>  <SCORE.heavy>
22

>  <SCORE.norm>
-0.812657

>  <RMSD>
8.461

$$$$
ligand
 OpenBabel11021811503D
libRbt.so/2013.1/901 2013/11/27
 22 24  0  0  0  0  0  0  0  0999 V2000
    0.1563    4.1993   21.1027 C   0  0  0  0  0  0  0  0  0  0  0  0
    0.4087    5.5594   21.3801 C   0  0  0  0  0  0  0  0  0  0  0  0
   -0.1551    6.1424   22.5118 C   0  0  0  0  0  0  0  0  0  0  0  0
   -0.9666    5.3672   23.3584 C   0  0  0  0  0  0  0  0  0  0  0  0
   -1.2286    4.0040   23.0759 C   0  0  0  0  0  0  0  0  0  0  0  0
   -0.6662    3.4247   21.9466 C   0  0  0  0  0  0  0  0  0  0  0  0
    0.7580    3.5437   19.8448 C   0  0  0  0  0  0  0  0  0  0  0  0
    1.7634    2.3981   20.1214 C   0  0  0  0  0  0  0  0  0  0  0  0
    2.9951    2.4306   19.2239 C   0  0  0  0  0  0  0  0  0  0  0  0
    3.0136    2.9945   17.9446 C   0  0  0  0  0  0  0  0  0  0  0  0
    4.2749    2.8394   17.4640 N   0  0  0  0  0  0  0  0  0  0  0  0
    5.1034    2.1972   18.3625 C   0  0  0  0  0  0  0  0  0  0  0  0
    4.3383    1.9212   19.4904 C   0  0  0  0  0  0  0  0  0  0  0  0
    4.9968    1.2454   20.5868 C   0  0  0  0  0  0  0  0  0  0  0  0
    4.2941    0.9450   21.7504 O   0  0  0  0  0  0  0  0  0  0  0  0
    6.3354    0.8989   20.4605 N   0  0  0  0  0  0  0  0  0  0  0  0
    7.0502    1.1992   19.3374 C   0  0  0  0  0  0  0  0  0  0  0  0
    6.4713    1.8251   18.3006 N   0  0  0  0  0  0  0  0  0  0  0  0
    8.4664    0.8271   19.2575 N   0  0  0  0  0  0  0  0  0  0  0  0
   -1.5678    6.0245   24.5724 C   0  0  0  0  0  0  0  0  0  0  0  0
   -2.5169    5.5004   25.1526 O   0  0  0  0  0  0  0  0  0  0  0  0
   -1.0172    7.2719   25.0315 N   0  0  0  0  0  0  0  0  0  0  0  0
  1  2  2  0  0  0  0
  1  6  1  0  0  0  0
  1  7  1  0  0  0  0
  2  3  1  0  0  0  0
  3  4  2  0  0  0  0
  4  5  1  0  0  0  0
  4 20  1  0  0  0  0
  5  6  2  0  0  0  0
  7  8  1  0  0  0  0
  8  9  1  0  0  0  0
  9 10  2  0  0  0  0
  9 13  1  0  0  0  0
 10 11  1  0  0  0  0
 11 12  1  0  0  0  0
 12 13  2  0  0  0  0
 12 18  1  0  0  0  0
 13 14  1  0  0  0  0
 14 15  1  0  0  0  0
 14 16  2  0  0  0  0
 16 17  1  0  0  0  0
 17 18  2  0  0  0  0
 17 19  1  0  0  0  0
 20 21  2  0  0  0  0
 20 22  1  0  0  0  0
M  END
>  <CHROM.1>
116.50701299,162.61095118,-138.04030196,-26.71342193,2.40854223,3.28010731
20.95041115,2.63254479,-0.50804902,1.55850913

>  <Name>
ligand

>  <RI>
0

>  <Rbt.Current_Directory>
/home/itssahil/PROJECTS/Mol_Feturizer/New_Systems/rnas/4LVY

>  <Rbt.Executable>
rbdock ($Id: //depot/dev/client3/rdock/2013.1/src/exe/rbdock.cxx#4 $)

>  <Rbt.Library>
libRbt.so (2013.1, Build901 2013/11/27)

>  <Rbt.Parameter_File>
/export/apps/rDock/src/rDock_2013.1_src/data/scripts/dock_solv.prm

>  <Rbt.Receptor>
prm/pocket_docking_3.prm

>  <SCORE>
-16.0116

>  <SCORE.INTER>
-18.6636

>  <SCORE.INTER.CONST>
1

>  <SCORE.INTER.POLAR>
0

>  <SCORE.INTER.ROT>
4

>  <SCORE.INTER.SOLV>
14.3523

>  <SCORE.INTER.VDW>
-23.4932

>  <SCORE.INTER.norm>
-0.848345

>  <SCORE.INTRA>
2.65201

>  <SCORE.INTRA.DIHEDRAL>
4.89723

>  <SCORE.INTRA.DIHEDRAL.0>
6.18831

>  <SCORE.INTRA.POLAR>
0

>  <SCORE.INTRA.POLAR.0>
0

>  <SCORE.INTRA.REPUL>
0

>  <SCORE.INTRA.REPUL.0>
0

>  <SCORE.INTRA.SOLV>
0.00886869

>  <SCORE.INTRA.SOLV.lig_0>
-44.3465

>  <SCORE.INTRA.VDW>
0.198961

>  <SCORE.INTRA.VDW.0>
-0.778272

>  <SCORE.INTRA.norm>
0.120546

>  <SCORE.RESTR>
0

>  <SCORE.RESTR.CAVITY>
0

>  <SCORE.RESTR.norm>
0

>  <SCORE.SYSTEM>
0

>  <SCORE.SYSTEM.CONST>
0

>  <SCORE.SYSTEM.DIHEDRAL>
0

>  <SCORE.SYSTEM.SOLV>
0

>  <SCORE.SYSTEM.norm>
0

>  <SCORE.heavy>
22

>  <SCORE.norm>
-0.727799

>  <RMSD>
8.464

$$$$
ligand
 OpenBabel11021811503D
libRbt.so/2013.1/901 2013/11/27
 22 24  0  0  0  0  0  0  0  0999 V2000
    0.1204    3.6670   21.6265 C   0  0  0  0  0  0  0  0  0  0  0  0
    0.9789    4.0593   22.6751 C   0  0  0  0  0  0  0  0  0  0  0  0
    0.5130    4.9413   23.6464 C   0  0  0  0  0  0  0  0  0  0  0  0
   -0.8038    5.4269   23.5661 C   0  0  0  0  0  0  0  0  0  0  0  0
   -1.6638    5.0412   22.5085 C   0  0  0  0  0  0  0  0  0  0  0  0
   -1.1972    4.1622   21.5406 C   0  0  0  0  0  0  0  0  0  0  0  0
    0.6262    2.7057   20.5337 C   0  0  0  0  0  0  0  0  0  0  0  0
    1.9425    1.9631   20.8738 C   0  0  0  0  0  0  0  0  0  0  0  0
    3.0293    2.1222   19.8168 C   0  0  0  0  0  0  0  0  0  0  0  0
    2.8267    2.7325   18.5753 C   0  0  0  0  0  0  0  0  0  0  0  0
    4.0150    2.6916   17.9178 N   0  0  0  0  0  0  0  0  0  0  0  0
    5.0055    2.0818   18.6616 C   0  0  0  0  0  0  0  0  0  0  0  0
    4.4292    1.7071   19.8703 C   0  0  0  0  0  0  0  0  0  0  0  0
    5.2821    1.0436   20.8319 C   0  0  0  0  0  0  0  0  0  0  0  0
    4.7742    0.6481   22.0662 O   0  0  0  0  0  0  0  0  0  0  0  0
    6.6104    0.8049   20.5052 N   0  0  0  0  0  0  0  0  0  0  0  0
    7.1360    1.1998   19.3092 C   0  0  0  0  0  0  0  0  0  0  0  0
    6.3736    1.8175   18.3933 N   0  0  0  0  0  0  0  0  0  0  0  0
    8.5492    0.9398   19.0164 N   0  0  0  0  0  0  0  0  0  0  0  0
   -1.2799    6.3836   24.6269 C   0  0  0  0  0  0  0  0  0  0  0  0
   -0.6605    7.4233   24.8443 O   0  0  0  0  0  0  0  0  0  0  0  0
   -2.4614    6.0549   25.3792 N   0  0  0  0  0  0  0  0  0  0  0  0
  1  2  2  0  0  0  0
  1  6  1  0  0  0  0
  1  7  1  0  0  0  0
  2  3  1  0  0  0  0
  3  4  2  0  0  0  0
  4  5  1  0  0  0  0
  4 20  1  0  0  0  0
  5  6  2  0  0  0  0
  7  8  1  0  0  0  0
  8  9  1  0  0  0  0
  9 10  2  0  0  0  0
  9 13  1  0  0  0  0
 10 11  1  0  0  0  0
 11 12  1  0  0  0  0
 12 13  2  0  0  0  0
 12 18  1  0  0  0  0
 13 14  1  0  0  0  0
 14 15  1  0  0  0  0
 14 16  2  0  0  0  0
 16 17  1  0  0  0  0
 17 18  2  0  0  0  0
 17 19  1  0  0  0  0
 20 21  2  0  0  0  0
 20 22  1  0  0  0  0
M  END
>  <CHROM.1>
14.82692790,55.68407769,-126.24032895,-7.68131982,2.50848925,3.15250977,21.23863827
2.52019701,-0.37456266,1.27398345

>  <Name>
ligand

>  <RI>
0

>  <Rbt.Current_Directory>
/home/itssahil/PROJECTS/Mol_Feturizer/New_Systems/rnas/4LVY

>  <Rbt.Executable>
rbdock ($Id: //depot/dev/client3/rdock/2013.1/src/exe/rbdock.cxx#4 $)

>  <Rbt.Library>
libRbt.so (2013.1, Build901 2013/11/27)

>  <Rbt.Parameter_File>
/export/apps/rDock/src/rDock_2013.1_src/data/scripts/dock_solv.prm

>  <Rbt.Receptor>
prm/pocket_docking_3.prm

>  <SCORE>
-17.8202

>  <SCORE.INTER>
-21.4143

>  <SCORE.INTER.CONST>
1

>  <SCORE.INTER.POLAR>
0

>  <SCORE.INTER.ROT>
4

>  <SCORE.INTER.SOLV>
14.2555

>  <SCORE.INTER.VDW>
-25.2947

>  <SCORE.INTER.norm>
-0.973375

>  <SCORE.INTRA>
3.5941

>  <SCORE.INTRA.DIHEDRAL>
5.9348

>  <SCORE.INTRA.DIHEDRAL.0>
6.18831

>  <SCORE.INTRA.POLAR>
0

>  <SCORE.INTRA.POLAR.0>
0

>  <SCORE.INTRA.REPUL>
0

>  <SCORE.INTRA.REPUL.0>
0

>  <SCORE.INTRA.SOLV>
-0.00442438

>  <SCORE.INTRA.SOLV.lig_0>
-44.3465

>  <SCORE.INTRA.VDW>
0.628914

>  <SCORE.INTRA.VDW.0>
-0.778272

>  <SCORE.INTRA.norm>
0.163368

>  <SCORE.RESTR>
0

>  <SCORE.RESTR.CAVITY>
0

>  <SCORE.RESTR.norm>
0

>  <SCORE.SYSTEM>
0

>  <SCORE.SYSTEM.CONST>
0

>  <SCORE.SYSTEM.DIHEDRAL>
0

>  <SCORE.SYSTEM.SOLV>
0

>  <SCORE.SYSTEM.norm>
0

>  <SCORE.heavy>
22

>  <SCORE.norm>
-0.810007

>  <RMSD>
8.471

$$$$
ligand
 OpenBabel11021811503D
libRbt.so/2013.1/901 2013/11/27
 22 24  0  0  0  0  0  0  0  0999 V2000
    0.0192    3.6857   21.5800 C   0  0  0  0  0  0  0  0  0  0  0  0
    0.8464    4.0119   22.6754 C   0  0  0  0  0  0  0  0  0  0  0  0
    0.3714    4.8773   23.6571 C   0  0  0  0  0  0  0  0  0  0  0  0
   -0.9234    5.4122   23.5406 C   0  0  0  0  0  0  0  0  0  0  0  0
   -1.7516    5.0930   22.4365 C   0  0  0  0  0  0  0  0  0  0  0  0
   -1.2758    4.2305   21.4583 C   0  0  0  0  0  0  0  0  0  0  0  0
    0.5364    2.7436   20.4759 C   0  0  0  0  0  0  0  0  0  0  0  0
    1.8405    1.9828   20.8230 C   0  0  0  0  0  0  0  0  0  0  0  0
    2.9433    2.1464   19.7835 C   0  0  0  0  0  0  0  0  0  0  0  0
    2.7543    2.7418   18.5327 C   0  0  0  0  0  0  0  0  0  0  0  0
    3.9544    2.7107   17.8963 N   0  0  0  0  0  0  0  0  0  0  0  0
    4.9398    2.1217   18.6632 C   0  0  0  0  0  0  0  0  0  0  0  0
    4.3475    1.7511   19.8655 C   0  0  0  0  0  0  0  0  0  0  0  0
    5.1924    1.1087   20.8483 C   0  0  0  0  0  0  0  0  0  0  0  0
    4.6684    0.7183   22.0775 O   0  0  0  0  0  0  0  0  0  0  0  0
    6.5293    0.8850   20.5471 N   0  0  0  0  0  0  0  0  0  0  0  0
    7.0703    1.2753   19.3565 C   0  0  0  0  0  0  0  0  0  0  0  0
    6.3158    1.8736   18.4214 N   0  0  0  0  0  0  0  0  0  0  0  0
    8.4918    1.0318   19.0909 N   0  0  0  0  0  0  0  0  0  0  0  0
   -1.4098    6.3497   24.6138 C   0  0  0  0  0  0  0  0  0  0  0  0
   -0.7592    7.3535   24.8989 O   0  0  0  0  0  0  0  0  0  0  0  0
   -2.6384    6.0451   25.2978 N   0  0  0  0  0  0  0  0  0  0  0  0
  1  2  2  0  0  0  0
  1  6  1  0  0  0  0
  1  7  1  0  0  0  0
  2  3  1  0  0  0  0
  3  4  2  0  0  0  0
  4  5  1  0  0  0  0
  4 20  1  0  0  0  0
  5  6  2  0  0  0  0
  7  8  1  0  0  0  0
  8  9  1  0  0  0  0
  9 10  2  0  0  0  0
  9 13  1  0  0  0  0
 10 11  1  0  0  0  0
 11 12  1  0  0  0  0
 12 13  2  0  0  0  0
 12 18  1  0  0  0  0
 13 14  1  0  0  0  0
 14 15  1  0  0  0  0
 14 16  2  0  0  0  0
 16 17  1  0  0  0  0
 17 18  2  0  0  0  0
 17 19  1  0  0  0  0
 20 21  2  0  0  0  0
 20 22  1  0  0  0  0
M  END
>  <CHROM.1>
12.65939818,55.13706077,-126.68715544,-9.64764629,2.41388537,3.17690986,21.22881280
2.52975130,-0.36867019,1.28080119

>  <Name>
ligand

>  <RI>
0

>  <Rbt.Current_Directory>
/home/itssahil/PROJECTS/Mol_Feturizer/New_Systems/rnas/4LVY

>  <Rbt.Executable>
rbdock ($Id: //depot/dev/client3/rdock/2013.1/src/exe/rbdock.cxx#4 $)

>  <Rbt.Library>
libRbt.so (2013.1, Build901 2013/11/27)

>  <Rbt.Parameter_File>
/export/apps/rDock/src/rDock_2013.1_src/data/scripts/dock_solv.prm

>  <Rbt.Receptor>
prm/pocket_docking_6.prm

>  <SCORE>
-17.8246

>  <SCORE.INTER>
-21.4268

>  <SCORE.INTER.CONST>
1

>  <SCORE.INTER.POLAR>
0

>  <SCORE.INTER.ROT>
4

>  <SCORE.INTER.SOLV>
14.4247

>  <SCORE.INTER.VDW>
-25.3594

>  <SCORE.INTER.norm>
-0.973945

>  <SCORE.INTRA>
3.60218

>  <SCORE.INTRA.DIHEDRAL>
5.91931

>  <SCORE.INTRA.DIHEDRAL.0>
6.18831

>  <SCORE.INTRA.POLAR>
0

>  <SCORE.INTRA.POLAR.0>
0

>  <SCORE.INTRA.REPUL>
0

>  <SCORE.INTRA.REPUL.0>
0

>  <SCORE.INTRA.SOLV>
-0.00427724

>  <SCORE.INTRA.SOLV.lig_0>
-44.3465

>  <SCORE.INTRA.VDW>
0.644663

>  <SCORE.INTRA.VDW.0>
-0.778272

>  <SCORE.INTRA.norm>
0.163735

>  <SCORE.RESTR>
0

>  <SCORE.RESTR.CAVITY>
0

>  <SCORE.RESTR.norm>
0

>  <SCORE.SYSTEM>
0

>  <SCORE.SYSTEM.CONST>
0

>  <SCORE.SYSTEM.DIHEDRAL>
0

>  <SCORE.SYSTEM.SOLV>
0

>  <SCORE.SYSTEM.norm>
0

>  <SCORE.heavy>
22

>  <SCORE.norm>
-0.810209

>  <RMSD>
8.471

$$$$
ligand
 OpenBabel11021811503D
libRbt.so/2013.1/901 2013/11/27
 22 24  0  0  0  0  0  0  0  0999 V2000
    0.1616    3.6825   21.6012 C   0  0  0  0  0  0  0  0  0  0  0  0
    1.0021    4.0592   22.6700 C   0  0  0  0  0  0  0  0  0  0  0  0
    0.5181    4.9229   23.6488 C   0  0  0  0  0  0  0  0  0  0  0  0
   -0.7988    5.4060   23.5559 C   0  0  0  0  0  0  0  0  0  0  0  0
   -1.6407    5.0361   22.4782 C   0  0  0  0  0  0  0  0  0  0  0  0
   -1.1560    4.1753   21.5029 C   0  0  0  0  0  0  0  0  0  0  0  0
    0.6878    2.7417   20.5003 C   0  0  0  0  0  0  0  0  0  0  0  0
    1.9838    1.9733   20.8608 C   0  0  0  0  0  0  0  0  0  0  0  0
    3.0952    2.1233   19.8284 C   0  0  0  0  0  0  0  0  0  0  0  0
    2.9295    2.7489   18.5890 C   0  0  0  0  0  0  0  0  0  0  0  0
    4.1305    2.6934   17.9562 N   0  0  0  0  0  0  0  0  0  0  0  0
    5.0944    2.0594   18.7145 C   0  0  0  0  0  0  0  0  0  0  0  0
    4.4863    1.6834   19.9072 C   0  0  0  0  0  0  0  0  0  0  0  0
    5.3071    0.9961   20.8798 C   0  0  0  0  0  0  0  0  0  0  0  0
    4.7665    0.5977   22.0993 O   0  0  0  0  0  0  0  0  0  0  0  0
    6.6377    0.7373   20.5787 N   0  0  0  0  0  0  0  0  0  0  0  0
    7.1951    1.1342   19.3979 C   0  0  0  0  0  0  0  0  0  0  0  0
    6.4630    1.7738   18.4723 N   0  0  0  0  0  0  0  0  0  0  0  0
    8.6095    0.8524   19.1323 N   0  0  0  0  0  0  0  0  0  0  0  0
   -1.2947    6.3429   24.6252 C   0  0  0  0  0  0  0  0  0  0  0  0
   -0.6988    7.3947   24.8502 O   0  0  0  0  0  0  0  0  0  0  0  0
   -2.4671    5.9811   25.3767 N   0  0  0  0  0  0  0  0  0  0  0  0
  1  2  2  0  0  0  0
  1  6  1  0  0  0  0
  1  7  1  0  0  0  0
  2  3  1  0  0  0  0
  3  4  2  0  0  0  0
  4  5  1  0  0  0  0
  4 20  1  0  0  0  0
  5  6  2  0  0  0  0
  7  8  1  0  0  0  0
  8  9  1  0  0  0  0
  9 10  2  0  0  0  0
  9 13  1  0  0  0  0
 10 11  1  0  0  0  0
 11 12  1  0  0  0  0
 12 13  2  0  0  0  0
 12 18  1  0  0  0  0
 13 14  1  0  0  0  0
 14 15  1  0  0  0  0
 14 16  2  0  0  0  0
 16 17  1  0  0  0  0
 17 18  2  0  0  0  0
 17 19  1  0  0  0  0
 20 21  2  0  0  0  0
 20 22  1  0  0  0  0
M  END
>  <CHROM.1>
16.12613286,57.28635190,-127.28041977,-7.66910055,2.54694696,3.12880442,21.25946825
2.54327816,-0.39913314,1.30873539

>  <Name>
ligand

>  <RI>
0

>  <Rbt.Current_Directory>
/home/itssahil/PROJECTS/Mol_Feturizer/New_Systems/rnas/4LVY

>  <Rbt.Executable>
rbdock ($Id: //depot/dev/client3/rdock/2013.1/src/exe/rbdock.cxx#4 $)

>  <Rbt.Library>
libRbt.so (2013.1, Build901 2013/11/27)

>  <Rbt.Parameter_File>
/export/apps/rDock/src/rDock_2013.1_src/data/scripts/dock_solv.prm

>  <Rbt.Receptor>
prm/pocket_docking_7.prm

>  <SCORE>
-17.9218

>  <SCORE.INTER>
-21.47

>  <SCORE.INTER.CONST>
1

>  <SCORE.INTER.POLAR>
0

>  <SCORE.INTER.ROT>
4

>  <SCORE.INTER.SOLV>
14.0245

>  <SCORE.INTER.VDW>
-25.2548

>  <SCORE.INTER.norm>
-0.975908

>  <SCORE.INTRA>
3.54812

>  <SCORE.INTRA.DIHEDRAL>
5.87561

>  <SCORE.INTRA.DIHEDRAL.0>
6.18831

>  <SCORE.INTRA.POLAR>
0

>  <SCORE.INTRA.POLAR.0>
0

>  <SCORE.INTRA.REPUL>
0

>  <SCORE.INTRA.REPUL.0>
0

>  <SCORE.INTRA.SOLV>
-0.00483498

>  <SCORE.INTRA.SOLV.lig_0>
-44.3465

>  <SCORE.INTRA.VDW>
0.612735

>  <SCORE.INTRA.VDW.0>
-0.778272

>  <SCORE.INTRA.norm>
0.161278

>  <SCORE.RESTR>
0

>  <SCORE.RESTR.CAVITY>
0

>  <SCORE.RESTR.norm>
0

>  <SCORE.SYSTEM>
0

>  <SCORE.SYSTEM.CONST>
0

>  <SCORE.SYSTEM.DIHEDRAL>
0

>  <SCORE.SYSTEM.SOLV>
0

>  <SCORE.SYSTEM.norm>
0

>  <SCORE.heavy>
22

>  <SCORE.norm>
-0.814629

>  <RMSD>
8.480

$$$$
ligand
 OpenBabel11021811503D
libRbt.so/2013.1/901 2013/11/27
 22 24  0  0  0  0  0  0  0  0999 V2000
    0.1900    4.2982   20.9130 C   0  0  0  0  0  0  0  0  0  0  0  0
    0.2899    5.6799   21.1806 C   0  0  0  0  0  0  0  0  0  0  0  0
   -0.2948    6.1970   22.3334 C   0  0  0  0  0  0  0  0  0  0  0  0
   -0.9754    5.3350   23.2109 C   0  0  0  0  0  0  0  0  0  0  0  0
   -1.0846    3.9491   22.9386 C   0  0  0  0  0  0  0  0  0  0  0  0
   -0.5015    3.4354   21.7882 C   0  0  0  0  0  0  0  0  0  0  0  0
    0.8161    3.7130   19.6325 C   0  0  0  0  0  0  0  0  0  0  0  0
    1.8312    2.5662   19.8657 C   0  0  0  0  0  0  0  0  0  0  0  0
    2.9957    2.5661   18.8822 C   0  0  0  0  0  0  0  0  0  0  0  0
    2.8827    2.9386   17.5393 C   0  0  0  0  0  0  0  0  0  0  0  0
    4.1199    2.8161   16.9912 N   0  0  0  0  0  0  0  0  0  0  0  0
    5.0577    2.3785   17.9051 C   0  0  0  0  0  0  0  0  0  0  0  0
    4.3932    2.2089   19.1148 C   0  0  0  0  0  0  0  0  0  0  0  0
    5.1775    1.7533   20.2416 C   0  0  0  0  0  0  0  0  0  0  0  0
    4.5795    1.5696   21.4853 O   0  0  0  0  0  0  0  0  0  0  0  0
    6.5310    1.4995   20.0642 N   0  0  0  0  0  0  0  0  0  0  0  0
    7.1436    1.6898   18.8596 C   0  0  0  0  0  0  0  0  0  0  0  0
    6.4467    2.1111   17.7926 N   0  0  0  0  0  0  0  0  0  0  0  0
    8.5795    1.4236   18.7256 N   0  0  0  0  0  0  0  0  0  0  0  0
   -1.6029    5.9218   24.4475 C   0  0  0  0  0  0  0  0  0  0  0  0
   -2.5876    5.3872   24.9540 O   0  0  0  0  0  0  0  0  0  0  0  0
   -1.0346    7.1153   25.0154 N   0  0  0  0  0  0  0  0  0  0  0  0
  1  2  2  0  0  0  0
  1  6  1  0  0  0  0
  1  7  1  0  0  0  0
  2  3  1  0  0  0  0
  3  4  2  0  0  0  0
  4  5  1  0  0  0  0
  4 20  1  0  0  0  0
  5  6  2  0  0  0  0
  7  8  1  0  0  0  0
  8  9  1  0  0  0  0
  9 10  2  0  0  0  0
  9 13  1  0  0  0  0
 10 11  1  0  0  0  0
 11 12  1  0  0  0  0
 12 13  2  0  0  0  0
 12 18  1  0  0  0  0
 13 14  1  0  0  0  0
 14 15  1  0  0  0  0
 14 16  2  0  0  0  0
 16 17  1  0  0  0  0
 17 18  2  0  0  0  0
 17 19  1  0  0  0  0
 20 21  2  0  0  0  0
 20 22  1  0  0  0  0
M  END
>  <CHROM.1>
123.97633166,152.14732930,-144.62612356,-35.26552956,2.44027502,3.45790105
20.65885033,2.54775842,-0.38956230,1.44580216

>  <Name>
ligand

>  <RI>
0

>  <Rbt.Current_Directory>
/home/itssahil/PROJECTS/Mol_Feturizer/New_Systems/rnas/4LVY

>  <Rbt.Executable>
rbdock ($Id: //depot/dev/client3/rdock/2013.1/src/exe/rbdock.cxx#4 $)

>  <Rbt.Library>
libRbt.so (2013.1, Build901 2013/11/27)

>  <Rbt.Parameter_File>
/export/apps/rDock/src/rDock_2013.1_src/data/scripts/dock_solv.prm

>  <Rbt.Receptor>
prm/pocket_docking_8.prm

>  <SCORE>
-15.8538

>  <SCORE.INTER>
-17.9466

>  <SCORE.INTER.CONST>
1

>  <SCORE.INTER.POLAR>
0

>  <SCORE.INTER.ROT>
4

>  <SCORE.INTER.SOLV>
13.0167

>  <SCORE.INTER.VDW>
-22.57

>  <SCORE.INTER.norm>
-0.815756

>  <SCORE.INTRA>
2.09285

>  <SCORE.INTRA.DIHEDRAL>
3.91729

>  <SCORE.INTRA.DIHEDRAL.0>
6.18831

>  <SCORE.INTRA.POLAR>
0

>  <SCORE.INTRA.POLAR.0>
0

>  <SCORE.INTRA.REPUL>
0

>  <SCORE.INTRA.REPUL.0>
0

>  <SCORE.INTRA.SOLV>
0.00645562

>  <SCORE.INTRA.SOLV.lig_0>
-44.3465

>  <SCORE.INTRA.VDW>
0.130981

>  <SCORE.INTRA.VDW.0>
-0.778272

>  <SCORE.INTRA.norm>
0.0951297

>  <SCORE.RESTR>
0

>  <SCORE.RESTR.CAVITY>
0

>  <SCORE.RESTR.norm>
0

>  <SCORE.SYSTEM>
0

>  <SCORE.SYSTEM.CONST>
0

>  <SCORE.SYSTEM.DIHEDRAL>
0

>  <SCORE.SYSTEM.SOLV>
0

>  <SCORE.SYSTEM.norm>
0

>  <SCORE.heavy>
22

>  <SCORE.norm>
-0.720627

>  <RMSD>
8.480

$$$$
ligand
 OpenBabel11021811503D
libRbt.so/2013.1/901 2013/11/27
 22 24  0  0  0  0  0  0  0  0999 V2000
    0.3213    3.3752   21.3311 C   0  0  0  0  0  0  0  0  0  0  0  0
    1.1094    3.6710   22.4634 C   0  0  0  0  0  0  0  0  0  0  0  0
    0.6133    4.5364   23.4346 C   0  0  0  0  0  0  0  0  0  0  0  0
   -0.6634    5.1016   23.2711 C   0  0  0  0  0  0  0  0  0  0  0  0
   -1.4519    4.8129   22.1301 C   0  0  0  0  0  0  0  0  0  0  0  0
   -0.9552    3.9504   21.1624 C   0  0  0  0  0  0  0  0  0  0  0  0
    0.8630    2.4336   20.2384 C   0  0  0  0  0  0  0  0  0  0  0  0
    2.2201    2.8577   19.6233 C   0  0  0  0  0  0  0  0  0  0  0  0
    3.4053    2.0417   20.1265 C   0  0  0  0  0  0  0  0  0  0  0  0
    3.3831    1.2713   21.2930 C   0  0  0  0  0  0  0  0  0  0  0  0
    4.6071    0.6926   21.4062 N   0  0  0  0  0  0  0  0  0  0  0  0
    5.4494    1.0395   20.3687 C   0  0  0  0  0  0  0  0  0  0  0  0
    4.7322    1.8896   19.5341 C   0  0  0  0  0  0  0  0  0  0  0  0
    5.4113    2.3902   18.3591 C   0  0  0  0  0  0  0  0  0  0  0  0
    4.7514    3.2390   17.4747 O   0  0  0  0  0  0  0  0  0  0  0  0
    6.7282    2.0152   18.1287 N   0  0  0  0  0  0  0  0  0  0  0  0
    7.3900    1.1697   18.9711 C   0  0  0  0  0  0  0  0  0  0  0  0
    6.7911    0.6864   20.0708 N   0  0  0  0  0  0  0  0  0  0  0  0
    8.7754    0.7895   18.6765 N   0  0  0  0  0  0  0  0  0  0  0  0
   -1.1731    6.0382   24.3342 C   0  0  0  0  0  0  0  0  0  0  0  0
   -2.1965    5.7656   24.9590 O   0  0  0  0  0  0  0  0  0  0  0  0
   -0.4471    7.2523   24.5966 N   0  0  0  0  0  0  0  0  0  0  0  0
  1  2  2  0  0  0  0
  1  6  1  0  0  0  0
  1  7  1  0  0  0  0
  2  3  1  0  0  0  0
  3  4  2  0  0  0  0
  4  5  1  0  0  0  0
  4 20  1  0  0  0  0
  5  6  2  0  0  0  0
  7  8  1  0  0  0  0
  8  9  1  0  0  0  0
  9 10  2  0  0  0  0
  9 13  1  0  0  0  0
 10 11  1  0  0  0  0
 11 12  1  0  0  0  0
 12 13  2  0  0  0  0
 12 18  1  0  0  0  0
 13 14  1  0  0  0  0
 14 15  1  0  0  0  0
 14 16  2  0  0  0  0
 16 17  1  0  0  0  0
 17 18  2  0  0  0  0
 17 19  1  0  0  0  0
 20 21  2  0  0  0  0
 20 22  1  0  0  0  0
M  END
>  <CHROM.1>
-55.92600498,-118.99376572,103.66787825,-18.22028774,2.74546649,3.05481274
20.97425193,2.60913355,-0.44729951,1.48587744

>  <Name>
ligand

>  <RI>
0

>  <Rbt.Current_Directory>
/home/itssahil/PROJECTS/Mol_Feturizer/New_Systems/rnas/4LVY

>  <Rbt.Executable>
rbdock ($Id: //depot/dev/client3/rdock/2013.1/src/exe/rbdock.cxx#4 $)

>  <Rbt.Library>
libRbt.so (2013.1, Build901 2013/11/27)

>  <Rbt.Parameter_File>
/export/apps/rDock/src/rDock_2013.1_src/data/scripts/dock_solv.prm

>  <Rbt.Receptor>
prm/pocket_docking_3.prm

>  <SCORE>
-17.524

>  <SCORE.INTER>
-19.8818

>  <SCORE.INTER.CONST>
1

>  <SCORE.INTER.POLAR>
0

>  <SCORE.INTER.ROT>
4

>  <SCORE.INTER.SOLV>
12.6422

>  <SCORE.INTER.VDW>
-23.7353

>  <SCORE.INTER.norm>
-0.90372

>  <SCORE.INTRA>
2.35785

>  <SCORE.INTRA.DIHEDRAL>
5.12406

>  <SCORE.INTRA.DIHEDRAL.0>
6.18831

>  <SCORE.INTRA.POLAR>
0

>  <SCORE.INTRA.POLAR.0>
0

>  <SCORE.INTRA.REPUL>
0

>  <SCORE.INTRA.REPUL.0>
0

>  <SCORE.INTRA.SOLV>
-0.00289895

>  <SCORE.INTRA.SOLV.lig_0>
-44.3465

>  <SCORE.INTRA.VDW>
-0.202732

>  <SCORE.INTRA.VDW.0>
-0.778272

>  <SCORE.INTRA.norm>
0.107175

>  <SCORE.RESTR>
0

>  <SCORE.RESTR.CAVITY>
0

>  <SCORE.RESTR.norm>
0

>  <SCORE.SYSTEM>
0

>  <SCORE.SYSTEM.CONST>
0

>  <SCORE.SYSTEM.DIHEDRAL>
0

>  <SCORE.SYSTEM.SOLV>
0

>  <SCORE.SYSTEM.norm>
0

>  <SCORE.heavy>
22

>  <SCORE.norm>
-0.796545

>  <RMSD>
8.484

$$$$
ligand
 OpenBabel11021811503D
libRbt.so/2013.1/901 2013/11/27
 22 24  0  0  0  0  0  0  0  0999 V2000
    0.1999    3.9350   21.3459 C   0  0  0  0  0  0  0  0  0  0  0  0
    0.9807    4.2166   22.4868 C   0  0  0  0  0  0  0  0  0  0  0  0
    0.4025    4.8839   23.5632 C   0  0  0  0  0  0  0  0  0  0  0  0
   -0.9485    5.2666   23.4956 C   0  0  0  0  0  0  0  0  0  0  0  0
   -1.7310    4.9928   22.3469 C   0  0  0  0  0  0  0  0  0  0  0  0
   -1.1525    4.3280   21.2743 C   0  0  0  0  0  0  0  0  0  0  0  0
    0.8295    3.2131   20.1389 C   0  0  0  0  0  0  0  0  0  0  0  0
    1.9196    2.1717   20.4952 C   0  0  0  0  0  0  0  0  0  0  0  0
    3.1356    2.2155   19.5770 C   0  0  0  0  0  0  0  0  0  0  0  0
    3.1346    2.8038   18.3086 C   0  0  0  0  0  0  0  0  0  0  0  0
    4.3866    2.6519   17.8031 N   0  0  0  0  0  0  0  0  0  0  0  0
    5.2274    1.9887   18.6745 C   0  0  0  0  0  0  0  0  0  0  0  0
    4.4807    1.6948   19.8101 C   0  0  0  0  0  0  0  0  0  0  0  0
    5.1547    0.9950   20.8817 C   0  0  0  0  0  0  0  0  0  0  0  0
    4.4709    0.6757   22.0516 O   0  0  0  0  0  0  0  0  0  0  0  0
    6.4892    0.6446   20.7254 N   0  0  0  0  0  0  0  0  0  0  0  0
    7.1858    0.9630   19.5958 C   0  0  0  0  0  0  0  0  0  0  0  0
    6.5921    1.6114   18.5815 N   0  0  0  0  0  0  0  0  0  0  0  0
    8.5985    0.5858   19.4840 N   0  0  0  0  0  0  0  0  0  0  0  0
   -1.5469    5.9916   24.6718 C   0  0  0  0  0  0  0  0  0  0  0  0
   -2.4820    5.4924   25.2950 O   0  0  0  0  0  0  0  0  0  0  0  0
   -1.0101    7.2736   25.0441 N   0  0  0  0  0  0  0  0  0  0  0  0
  1  2  2  0  0  0  0
  1  6  1  0  0  0  0
  1  7  1  0  0  0  0
  2  3  1  0  0  0  0
  3  4  2  0  0  0  0
  4  5  1  0  0  0  0
  4 20  1  0  0  0  0
  5  6  2  0  0  0  0
  7  8  1  0  0  0  0
  8  9  1  0  0  0  0
  9 10  2  0  0  0  0
  9 13  1  0  0  0  0
 10 11  1  0  0  0  0
 11 12  1  0  0  0  0
 12 13  2  0  0  0  0
 12 18  1  0  0  0  0
 13 14  1  0  0  0  0
 14 15  1  0  0  0  0
 14 16  2  0  0  0  0
 16 17  1  0  0  0  0
 17 18  2  0  0  0  0
 17 19  1  0  0  0  0
 20 21  2  0  0  0  0
 20 22  1  0  0  0  0
M  END
>  <CHROM.1>
33.70522135,-117.99523296,-137.74817082,-19.18759869,2.50109176,3.09136184
21.19466084,2.61715380,-0.46620179,1.45675670

>  <Name>
ligand

>  <RI>
0

>  <Rbt.Current_Directory>
/home/itssahil/PROJECTS/Mol_Feturizer/New_Systems/rnas/4LVY

>  <Rbt.Executable>
rbdock ($Id: //depot/dev/client3/rdock/2013.1/src/exe/rbdock.cxx#4 $)

>  <Rbt.Library>
libRbt.so (2013.1, Build901 2013/11/27)

>  <Rbt.Parameter_File>
/export/apps/rDock/src/rDock_2013.1_src/data/scripts/dock_solv.prm

>  <Rbt.Receptor>
prm/pocket_docking_4.prm

>  <SCORE>
-16.9394

>  <SCORE.INTER>
-19.6759

>  <SCORE.INTER.CONST>
1

>  <SCORE.INTER.POLAR>
0

>  <SCORE.INTER.ROT>
4

>  <SCORE.INTER.SOLV>
14.5956

>  <SCORE.INTER.VDW>
-24.2491

>  <SCORE.INTER.norm>
-0.894359

>  <SCORE.INTRA>
2.73645

>  <SCORE.INTRA.DIHEDRAL>
4.85781

>  <SCORE.INTRA.DIHEDRAL.0>
6.18831

>  <SCORE.INTRA.POLAR>
0

>  <SCORE.INTRA.POLAR.0>
0

>  <SCORE.INTRA.REPUL>
0

>  <SCORE.INTRA.REPUL.0>
0

>  <SCORE.INTRA.SOLV>
-0.00312969

>  <SCORE.INTRA.SOLV.lig_0>
-44.3465

>  <SCORE.INTRA.VDW>
0.309105

>  <SCORE.INTRA.VDW.0>
-0.778272

>  <SCORE.INTRA.norm>
0.124384

>  <SCORE.RESTR>
0

>  <SCORE.RESTR.CAVITY>
0

>  <SCORE.RESTR.norm>
0

>  <SCORE.SYSTEM>
0

>  <SCORE.SYSTEM.CONST>
0

>  <SCORE.SYSTEM.DIHEDRAL>
0

>  <SCORE.SYSTEM.SOLV>
0

>  <SCORE.SYSTEM.norm>
0

>  <SCORE.heavy>
22

>  <SCORE.norm>
-0.769975

>  <RMSD>
8.484

$$$$
ligand
 OpenBabel11021811503D
libRbt.so/2013.1/901 2013/11/27
 22 24  0  0  0  0  0  0  0  0999 V2000
    0.4516    3.4193   21.7506 C   0  0  0  0  0  0  0  0  0  0  0  0
    1.3511    4.3135   22.3686 C   0  0  0  0  0  0  0  0  0  0  0  0
    0.8698    5.2391   23.2906 C   0  0  0  0  0  0  0  0  0  0  0  0
   -0.5034    5.2682   23.5898 C   0  0  0  0  0  0  0  0  0  0  0  0
   -1.4091    4.3773   22.9629 C   0  0  0  0  0  0  0  0  0  0  0  0
   -0.9274    3.4556   22.0433 C   0  0  0  0  0  0  0  0  0  0  0  0
    0.9654    2.4009   20.7147 C   0  0  0  0  0  0  0  0  0  0  0  0
    2.3667    1.8127   21.0149 C   0  0  0  0  0  0  0  0  0  0  0  0
    3.3772    2.0282   19.8943 C   0  0  0  0  0  0  0  0  0  0  0  0
    3.0830    2.6809   18.6933 C   0  0  0  0  0  0  0  0  0  0  0  0
    4.2245    2.6834   17.9565 N   0  0  0  0  0  0  0  0  0  0  0  0
    5.2712    2.0624   18.6084 C   0  0  0  0  0  0  0  0  0  0  0  0
    4.7830    1.6340   19.8380 C   0  0  0  0  0  0  0  0  0  0  0  0
    5.7079    0.9491   20.7142 C   0  0  0  0  0  0  0  0  0  0  0  0
    5.2900    0.5000   21.9639 O   0  0  0  0  0  0  0  0  0  0  0  0
    7.0142    0.7440   20.2904 N   0  0  0  0  0  0  0  0  0  0  0  0
    7.4523    1.1913   19.0777 C   0  0  0  0  0  0  0  0  0  0  0  0
    6.6214    1.8302   18.2391 N   0  0  0  0  0  0  0  0  0  0  0  0
    8.8459    0.9651   18.6812 N   0  0  0  0  0  0  0  0  0  0  0  0
   -0.9975    6.2829   24.5866 C   0  0  0  0  0  0  0  0  0  0  0  0
   -0.4106    7.3552   24.7194 O   0  0  0  0  0  0  0  0  0  0  0  0
   -2.1574    5.9709   25.3787 N   0  0  0  0  0  0  0  0  0  0  0  0
  1  2  2  0  0  0  0
  1  6  1  0  0  0  0
  1  7  1  0  0  0  0
  2  3  1  0  0  0  0
  3  4  2  0  0  0  0
  4  5  1  0  0  0  0
  4 20  1  0  0  0  0
  5  6  2  0  0  0  0
  7  8  1  0  0  0  0
  8  9  1  0  0  0  0
  9 10  2  0  0  0  0
  9 13  1  0  0  0  0
 10 11  1  0  0  0  0
 11 12  1  0  0  0  0
 12 13  2  0  0  0  0
 12 18  1  0  0  0  0
 13 14  1  0  0  0  0
 14 15  1  0  0  0  0
 14 16  2  0  0  0  0
 16 17  1  0  0  0  0
 17 18  2  0  0  0  0
 17 19  1  0  0  0  0
 20 21  2  0  0  0  0
 20 22  1  0  0  0  0
M  END
>  <CHROM.1>
36.28348392,29.17774221,-122.97492830,-0.65853476,2.83368647,3.04255933,21.21597287
2.48041450,-0.28330268,1.17754150

>  <Name>
ligand

>  <RI>
0

>  <Rbt.Current_Directory>
/home/itssahil/PROJECTS/Mol_Feturizer/New_Systems/rnas/4LVY

>  <Rbt.Executable>
rbdock ($Id: //depot/dev/client3/rdock/2013.1/src/exe/rbdock.cxx#4 $)

>  <Rbt.Library>
libRbt.so (2013.1, Build901 2013/11/27)

>  <Rbt.Parameter_File>
/export/apps/rDock/src/rDock_2013.1_src/data/scripts/dock_solv.prm

>  <Rbt.Receptor>
prm/pocket_docking_3.prm

>  <SCORE>
-16.8907

>  <SCORE.INTER>
-20.4023

>  <SCORE.INTER.CONST>
1

>  <SCORE.INTER.POLAR>
0

>  <SCORE.INTER.ROT>
4

>  <SCORE.INTER.SOLV>
13.1143

>  <SCORE.INTER.VDW>
-24.2396

>  <SCORE.INTER.norm>
-0.927376

>  <SCORE.INTRA>
3.51155

>  <SCORE.INTRA.DIHEDRAL>
6.00726

>  <SCORE.INTRA.DIHEDRAL.0>
6.18831

>  <SCORE.INTRA.POLAR>
0

>  <SCORE.INTRA.POLAR.0>
0

>  <SCORE.INTRA.REPUL>
0

>  <SCORE.INTRA.REPUL.0>
0

>  <SCORE.INTRA.SOLV>
0.00301522

>  <SCORE.INTRA.SOLV.lig_0>
-44.3465

>  <SCORE.INTRA.VDW>
0.506415

>  <SCORE.INTRA.VDW.0>
-0.778272

>  <SCORE.INTRA.norm>
0.159616

>  <SCORE.RESTR>
0

>  <SCORE.RESTR.CAVITY>
0

>  <SCORE.RESTR.norm>
0

>  <SCORE.SYSTEM>
0

>  <SCORE.SYSTEM.CONST>
0

>  <SCORE.SYSTEM.DIHEDRAL>
0

>  <SCORE.SYSTEM.SOLV>
0

>  <SCORE.SYSTEM.norm>
0

>  <SCORE.heavy>
22

>  <SCORE.norm>
-0.76776

>  <RMSD>
8.488

$$$$
ligand
 OpenBabel11021811503D
libRbt.so/2013.1/901 2013/11/27
 22 24  0  0  0  0  0  0  0  0999 V2000
    0.0823    4.3491   21.3176 C   0  0  0  0  0  0  0  0  0  0  0  0
   -1.3120    4.5136   21.4571 C   0  0  0  0  0  0  0  0  0  0  0  0
   -1.8144    5.1665   22.5794 C   0  0  0  0  0  0  0  0  0  0  0  0
   -0.9252    5.6500   23.5549 C   0  0  0  0  0  0  0  0  0  0  0  0
    0.4745    5.4772   23.4207 C   0  0  0  0  0  0  0  0  0  0  0  0
    0.9735    4.8253   22.3013 C   0  0  0  0  0  0  0  0  0  0  0  0
    0.6536    3.6131   20.0903 C   0  0  0  0  0  0  0  0  0  0  0  0
    1.0738    2.1440   20.3456 C   0  0  0  0  0  0  0  0  0  0  0  0
    2.5829    1.9298   20.3616 C   0  0  0  0  0  0  0  0  0  0  0  0
    3.2848    1.4053   21.4511 C   0  0  0  0  0  0  0  0  0  0  0  0
    4.5941    1.3599   21.0910 N   0  0  0  0  0  0  0  0  0  0  0  0
    4.8025    1.8299   19.8097 C   0  0  0  0  0  0  0  0  0  0  0  0
    3.5592    2.1997   19.3087 C   0  0  0  0  0  0  0  0  0  0  0  0
    3.5191    2.7259   17.9619 C   0  0  0  0  0  0  0  0  0  0  0  0
    2.3075    3.1084   17.3930 O   0  0  0  0  0  0  0  0  0  0  0  0
    4.7040    2.8466   17.2482 N   0  0  0  0  0  0  0  0  0  0  0  0
    5.9014    2.4611   17.7774 C   0  0  0  0  0  0  0  0  0  0  0  0
    5.9759    1.9691   19.0240 N   0  0  0  0  0  0  0  0  0  0  0  0
    7.1240    2.5927   16.9783 N   0  0  0  0  0  0  0  0  0  0  0  0
   -1.4960    6.3475   24.7611 C   0  0  0  0  0  0  0  0  0  0  0  0
   -1.0325    7.4255   25.1286 O   0  0  0  0  0  0  0  0  0  0  0  0
   -2.5821    5.7277   25.4728 N   0  0  0  0  0  0  0  0  0  0  0  0
  1  2  2  0  0  0  0
  1  6  1  0  0  0  0
  1  7  1  0  0  0  0
  2  3  1  0  0  0  0
  3  4  2  0  0  0  0
  4  5  1  0  0  0  0
  4 20  1  0  0  0  0
  5  6  2  0  0  0  0
  7  8  1  0  0  0  0
  8  9  1  0  0  0  0
  9 10  2  0  0  0  0
  9 13  1  0  0  0  0
 10 11  1  0  0  0  0
 11 12  1  0  0  0  0
 12 13  2  0  0  0  0
 12 18  1  0  0  0  0
 13 14  1  0  0  0  0
 14 15  1  0  0  0  0
 14 16  2  0  0  0  0
 16 17  1  0  0  0  0
 17 18  2  0  0  0  0
 17 19  1  0  0  0  0
 20 21  2  0  0  0  0
 20 22  1  0  0  0  0
M  END
>  <CHROM.1>
-101.08171479,-131.95395720,-107.93009477,121.36317450,1.94946000,3.63150685
20.82725732,2.41078255,-0.40443281,1.41717242

>  <Name>
ligand

>  <RI>
0

>  <Rbt.Current_Directory>
/home/itssahil/PROJECTS/Mol_Feturizer/New_Systems/rnas/4LVY

>  <Rbt.Executable>
rbdock ($Id: //depot/dev/client3/rdock/2013.1/src/exe/rbdock.cxx#4 $)

>  <Rbt.Library>
libRbt.so (2013.1, Build901 2013/11/27)

>  <Rbt.Parameter_File>
/export/apps/rDock/src/rDock_2013.1_src/data/scripts/dock_solv.prm

>  <Rbt.Receptor>
prm/pocket_docking_4.prm

>  <SCORE>
-15.6859

>  <SCORE.INTER>
-17.804

>  <SCORE.INTER.CONST>
1

>  <SCORE.INTER.POLAR>
0

>  <SCORE.INTER.ROT>
4

>  <SCORE.INTER.SOLV>
16.5734

>  <SCORE.INTER.VDW>
-23.6605

>  <SCORE.INTER.norm>
-0.809272

>  <SCORE.INTRA>
2.11809

>  <SCORE.INTRA.DIHEDRAL>
5.50452

>  <SCORE.INTRA.DIHEDRAL.0>
6.18831

>  <SCORE.INTRA.POLAR>
0

>  <SCORE.INTRA.POLAR.0>
0

>  <SCORE.INTRA.REPUL>
0

>  <SCORE.INTRA.REPUL.0>
0

>  <SCORE.INTRA.SOLV>
0.301625

>  <SCORE.INTRA.SOLV.lig_0>
-44.3465

>  <SCORE.INTRA.VDW>
-0.784982

>  <SCORE.INTRA.VDW.0>
-0.778272

>  <SCORE.INTRA.norm>
0.0962768

>  <SCORE.RESTR>
0

>  <SCORE.RESTR.CAVITY>
0

>  <SCORE.RESTR.norm>
0

>  <SCORE.SYSTEM>
0

>  <SCORE.SYSTEM.CONST>
0

>  <SCORE.SYSTEM.DIHEDRAL>
0

>  <SCORE.SYSTEM.SOLV>
0

>  <SCORE.SYSTEM.norm>
0

>  <SCORE.heavy>
22

>  <SCORE.norm>
-0.712995

>  <RMSD>
8.489

$$$$
ligand
 OpenBabel11021811503D
libRbt.so/2013.1/901 2013/11/27
 22 24  0  0  0  0  0  0  0  0999 V2000
    0.0549    3.8626   21.5372 C   0  0  0  0  0  0  0  0  0  0  0  0
    0.8857    4.1788   22.6328 C   0  0  0  0  0  0  0  0  0  0  0  0
    0.3870    4.9722   23.6624 C   0  0  0  0  0  0  0  0  0  0  0  0
   -0.9348    5.4457   23.5933 C   0  0  0  0  0  0  0  0  0  0  0  0
   -1.7671    5.1368   22.4893 C   0  0  0  0  0  0  0  0  0  0  0  0
   -1.2678    4.3461   21.4633 C   0  0  0  0  0  0  0  0  0  0  0  0
    0.5972    3.0005   20.3810 C   0  0  0  0  0  0  0  0  0  0  0  0
    1.8313    2.1334   20.7345 C   0  0  0  0  0  0  0  0  0  0  0  0
    2.9624    2.2296   19.7172 C   0  0  0  0  0  0  0  0  0  0  0  0
    2.8212    2.7904   18.4442 C   0  0  0  0  0  0  0  0  0  0  0  0
    4.0340    2.7019   17.8382 N   0  0  0  0  0  0  0  0  0  0  0  0
    4.9824    2.1075   18.6466 C   0  0  0  0  0  0  0  0  0  0  0  0
    4.3512    1.7939   19.8452 C   0  0  0  0  0  0  0  0  0  0  0  0
    5.1524    1.1573   20.8675 C   0  0  0  0  0  0  0  0  0  0  0  0
    4.5880    0.8227   22.0954 O   0  0  0  0  0  0  0  0  0  0  0  0
    6.4881    0.8829   20.6057 N   0  0  0  0  0  0  0  0  0  0  0  0
    7.0685    1.2182   19.4169 C   0  0  0  0  0  0  0  0  0  0  0  0
    6.3551    1.8093   18.4457 N   0  0  0  0  0  0  0  0  0  0  0  0
    8.4874    0.9225   19.1932 N   0  0  0  0  0  0  0  0  0  0  0  0
   -1.4467    6.3062   24.7179 C   0  0  0  0  0  0  0  0  0  0  0  0
   -0.8818    7.3630   24.9938 O   0  0  0  0  0  0  0  0  0  0  0  0
   -2.5972    5.8660   25.4612 N   0  0  0  0  0  0  0  0  0  0  0  0
  1  2  2  0  0  0  0
  1  6  1  0  0  0  0
  1  7  1  0  0  0  0
  2  3  1  0  0  0  0
  3  4  2  0  0  0  0
  4  5  1  0  0  0  0
  4 20  1  0  0  0  0
  5  6  2  0  0  0  0
  7  8  1  0  0  0  0
  8  9  1  0  0  0  0
  9 10  2  0  0  0  0
  9 13  1  0  0  0  0
 10 11  1  0  0  0  0
 11 12  1  0  0  0  0
 12 13  2  0  0  0  0
 12 18  1  0  0  0  0
 13 14  1  0  0  0  0
 14 15  1  0  0  0  0
 14 16  2  0  0  0  0
 16 17  1  0  0  0  0
 17 18  2  0  0  0  0
 17 19  1  0  0  0  0
 20 21  2  0  0  0  0
 20 22  1  0  0  0  0
M  END
>  <CHROM.1>
21.01694234,58.94194222,-132.11947722,-13.64014796,2.41591732,3.21652389
21.24126679,2.54404817,-0.40321456,1.33456661

>  <Name>
ligand

>  <RI>
0

>  <Rbt.Current_Directory>
/home/itssahil/PROJECTS/Mol_Feturizer/New_Systems/rnas/4LVY

>  <Rbt.Executable>
rbdock ($Id: //depot/dev/client3/rdock/2013.1/src/exe/rbdock.cxx#4 $)

>  <Rbt.Library>
libRbt.so (2013.1, Build901 2013/11/27)

>  <Rbt.Parameter_File>
/export/apps/rDock/src/rDock_2013.1_src/data/scripts/dock_solv.prm

>  <Rbt.Receptor>
prm/pocket_docking_5.prm

>  <SCORE>
-17.9274

>  <SCORE.INTER>
-21.2036

>  <SCORE.INTER.CONST>
1

>  <SCORE.INTER.POLAR>
0

>  <SCORE.INTER.ROT>
4

>  <SCORE.INTER.SOLV>
14.4756

>  <SCORE.INTER.VDW>
-25.2276

>  <SCORE.INTER.norm>
-0.963798

>  <SCORE.INTRA>
3.27611

>  <SCORE.INTRA.DIHEDRAL>
5.49714

>  <SCORE.INTRA.DIHEDRAL.0>
6.18831

>  <SCORE.INTRA.POLAR>
0

>  <SCORE.INTRA.POLAR.0>
0

>  <SCORE.INTRA.REPUL>
0

>  <SCORE.INTRA.REPUL.0>
0

>  <SCORE.INTRA.SOLV>
-0.00521413

>  <SCORE.INTRA.SOLV.lig_0>
-44.3465

>  <SCORE.INTRA.VDW>
0.53015

>  <SCORE.INTRA.VDW.0>
-0.778272

>  <SCORE.INTRA.norm>
0.148914

>  <SCORE.RESTR>
0

>  <SCORE.RESTR.CAVITY>
0

>  <SCORE.RESTR.norm>
0

>  <SCORE.SYSTEM>
0

>  <SCORE.SYSTEM.CONST>
0

>  <SCORE.SYSTEM.DIHEDRAL>
0

>  <SCORE.SYSTEM.SOLV>
0

>  <SCORE.SYSTEM.norm>
0

>  <SCORE.heavy>
22

>  <SCORE.norm>
-0.814884

>  <RMSD>
8.491

$$$$
ligand
 OpenBabel11021811503D
libRbt.so/2013.1/901 2013/11/27
 22 24  0  0  0  0  0  0  0  0999 V2000
    0.0673    3.8935   21.4609 C   0  0  0  0  0  0  0  0  0  0  0  0
   -1.2608    4.3673   21.4157 C   0  0  0  0  0  0  0  0  0  0  0  0
   -1.7505    5.1312   22.4716 C   0  0  0  0  0  0  0  0  0  0  0  0
   -0.9146    5.4171   23.5651 C   0  0  0  0  0  0  0  0  0  0  0  0
    0.4162    4.9340   23.6162 C   0  0  0  0  0  0  0  0  0  0  0  0
    0.9024    4.1718   22.5627 C   0  0  0  0  0  0  0  0  0  0  0  0
    0.6189    3.0317   20.3088 C   0  0  0  0  0  0  0  0  0  0  0  0
    1.8300    2.1402   20.6805 C   0  0  0  0  0  0  0  0  0  0  0  0
    2.9760    2.2101   19.6778 C   0  0  0  0  0  0  0  0  0  0  0  0
    2.8632    2.7713   18.4021 C   0  0  0  0  0  0  0  0  0  0  0  0
    4.0816    2.6556   17.8120 N   0  0  0  0  0  0  0  0  0  0  0  0
    5.0065    2.0426   18.6335 C   0  0  0  0  0  0  0  0  0  0  0  0
    4.3533    1.7449   19.8244 C   0  0  0  0  0  0  0  0  0  0  0  0
    5.1274    1.0933   20.8580 C   0  0  0  0  0  0  0  0  0  0  0  0
    4.5402    0.7733   22.0790 O   0  0  0  0  0  0  0  0  0  0  0  0
    6.4601    0.7898   20.6139 N   0  0  0  0  0  0  0  0  0  0  0  0
    7.0629    1.1102   19.4321 C   0  0  0  0  0  0  0  0  0  0  0  0
    6.3749    1.7147   18.4508 N   0  0  0  0  0  0  0  0  0  0  0  0
    8.4778    0.7837   19.2274 N   0  0  0  0  0  0  0  0  0  0  0  0
   -1.4715    6.2409   24.6958 C   0  0  0  0  0  0  0  0  0  0  0  0
   -0.9333    7.3003   25.0120 O   0  0  0  0  0  0  0  0  0  0  0  0
   -2.6334    5.7629   25.3970 N   0  0  0  0  0  0  0  0  0  0  0  0
  1  2  2  0  0  0  0
  1  6  1  0  0  0  0
  1  7  1  0  0  0  0
  2  3  1  0  0  0  0
  3  4  2  0  0  0  0
  4  5  1  0  0  0  0
  4 20  1  0  0  0  0
  5  6  2  0  0  0  0
  7  8  1  0  0  0  0
  8  9  1  0  0  0  0
  9 10  2  0  0  0  0
  9 13  1  0  0  0  0
 10 11  1  0  0  0  0
 11 12  1  0  0  0  0
 12 13  2  0  0  0  0
 12 18  1  0  0  0  0
 13 14  1  0  0  0  0
 14 15  1  0  0  0  0
 14 16  2  0  0  0  0
 16 17  1  0  0  0  0
 17 18  2  0  0  0  0
 17 19  1  0  0  0  0
 20 21  2  0  0  0  0
 20 22  1  0  0  0  0
M  END
>  <CHROM.1>
-157.61337933,-121.42707558,-132.92935349,-13.57645091,2.41644635,3.17132153
21.21556626,2.55866434,-0.42531547,1.36276512

>  <Name>
ligand

>  <RI>
0

>  <Rbt.Current_Directory>
/home/itssahil/PROJECTS/Mol_Feturizer/New_Systems/rnas/4LVY

>  <Rbt.Executable>
rbdock ($Id: //depot/dev/client3/rdock/2013.1/src/exe/rbdock.cxx#4 $)

>  <Rbt.Library>
libRbt.so (2013.1, Build901 2013/11/27)

>  <Rbt.Parameter_File>
/export/apps/rDock/src/rDock_2013.1_src/data/scripts/dock_solv.prm

>  <Rbt.Receptor>
prm/pocket_docking_4.prm

>  <SCORE>
-17.5966

>  <SCORE.INTER>
-20.9876

>  <SCORE.INTER.CONST>
1

>  <SCORE.INTER.POLAR>
0

>  <SCORE.INTER.ROT>
4

>  <SCORE.INTER.SOLV>
14.7545

>  <SCORE.INTER.VDW>
-25.1765

>  <SCORE.INTER.norm>
-0.95398

>  <SCORE.INTRA>
3.39095

>  <SCORE.INTRA.DIHEDRAL>
5.55656

>  <SCORE.INTRA.DIHEDRAL.0>
6.18831

>  <SCORE.INTRA.POLAR>
0

>  <SCORE.INTRA.POLAR.0>
0

>  <SCORE.INTRA.REPUL>
0

>  <SCORE.INTRA.REPUL.0>
0

>  <SCORE.INTRA.SOLV>
-0.00237829

>  <SCORE.INTRA.SOLV.lig_0>
-44.3465

>  <SCORE.INTRA.VDW>
0.613855

>  <SCORE.INTRA.VDW.0>
-0.778272

>  <SCORE.INTRA.norm>
0.154134

>  <SCORE.RESTR>
0

>  <SCORE.RESTR.CAVITY>
0

>  <SCORE.RESTR.norm>
0

>  <SCORE.SYSTEM>
0

>  <SCORE.SYSTEM.CONST>
0

>  <SCORE.SYSTEM.DIHEDRAL>
0

>  <SCORE.SYSTEM.SOLV>
0

>  <SCORE.SYSTEM.norm>
0

>  <SCORE.heavy>
22

>  <SCORE.norm>
-0.799846

>  <RMSD>
8.498

$$$$
ligand
 OpenBabel11021811503D
libRbt.so/2013.1/901 2013/11/27
 22 24  0  0  0  0  0  0  0  0999 V2000
    0.0596    3.8255   21.5700 C   0  0  0  0  0  0  0  0  0  0  0  0
   -1.2630    4.3141   21.5176 C   0  0  0  0  0  0  0  0  0  0  0  0
   -1.7351    5.1211   22.5492 C   0  0  0  0  0  0  0  0  0  0  0  0
   -0.8873    5.4350   23.6258 C   0  0  0  0  0  0  0  0  0  0  0  0
    0.4377    4.9373   23.6844 C   0  0  0  0  0  0  0  0  0  0  0  0
    0.9064    4.1322   22.6551 C   0  0  0  0  0  0  0  0  0  0  0  0
    0.5916    2.9165   20.4453 C   0  0  0  0  0  0  0  0  0  0  0  0
    1.8522    2.0935   20.8105 C   0  0  0  0  0  0  0  0  0  0  0  0
    2.9790    2.2090   19.7905 C   0  0  0  0  0  0  0  0  0  0  0  0
    2.8465    2.8396   18.5496 C   0  0  0  0  0  0  0  0  0  0  0  0
    4.0521    2.7469   17.9300 N   0  0  0  0  0  0  0  0  0  0  0  0
    4.9874    2.0830   18.6986 C   0  0  0  0  0  0  0  0  0  0  0  0
    4.3548    1.7260   19.8843 C   0  0  0  0  0  0  0  0  0  0  0  0
    5.1431    1.0133   20.8655 C   0  0  0  0  0  0  0  0  0  0  0  0
    4.5770    0.6318   22.0788 O   0  0  0  0  0  0  0  0  0  0  0  0
    6.4682    0.7133   20.5789 N   0  0  0  0  0  0  0  0  0  0  0  0
    7.0507    1.0929   19.4045 C   0  0  0  0  0  0  0  0  0  0  0  0
    6.3491    1.7550   18.4713 N   0  0  0  0  0  0  0  0  0  0  0  0
    8.4585    0.7672   19.1543 N   0  0  0  0  0  0  0  0  0  0  0  0
   -1.4254    6.3053   24.7304 C   0  0  0  0  0  0  0  0  0  0  0  0
   -0.8949    7.3863   24.9795 O   0  0  0  0  0  0  0  0  0  0  0  0
   -2.5601    5.8460   25.4865 N   0  0  0  0  0  0  0  0  0  0  0  0
  1  2  2  0  0  0  0
  1  6  1  0  0  0  0
  1  7  1  0  0  0  0
  2  3  1  0  0  0  0
  3  4  2  0  0  0  0
  4  5  1  0  0  0  0
  4 20  1  0  0  0  0
  5  6  2  0  0  0  0
  7  8  1  0  0  0  0
  8  9  1  0  0  0  0
  9 10  2  0  0  0  0
  9 13  1  0  0  0  0
 10 11  1  0  0  0  0
 11 12  1  0  0  0  0
 12 13  2  0  0  0  0
 12 18  1  0  0  0  0
 13 14  1  0  0  0  0
 14 15  1  0  0  0  0
 14 16  2  0  0  0  0
 16 17  1  0  0  0  0
 17 18  2  0  0  0  0
 17 19  1  0  0  0  0
 20 21  2  0  0  0  0
 20 22  1  0  0  0  0
M  END
>  <CHROM.1>
-161.50041006,-119.33891803,-129.59011593,-8.41713274,2.42394923,3.16229956
21.27083236,2.55755165,-0.43563782,1.36809358

>  <Name>
ligand

>  <RI>
0

>  <Rbt.Current_Directory>
/home/itssahil/PROJECTS/Mol_Feturizer/New_Systems/rnas/4LVY

>  <Rbt.Executable>
rbdock ($Id: //depot/dev/client3/rdock/2013.1/src/exe/rbdock.cxx#4 $)

>  <Rbt.Library>
libRbt.so (2013.1, Build901 2013/11/27)

>  <Rbt.Parameter_File>
/export/apps/rDock/src/rDock_2013.1_src/data/scripts/dock_solv.prm

>  <Rbt.Receptor>
prm/pocket_docking_7.prm

>  <SCORE>
-17.4965

>  <SCORE.INTER>
-21.096

>  <SCORE.INTER.CONST>
1

>  <SCORE.INTER.POLAR>
0

>  <SCORE.INTER.ROT>
4

>  <SCORE.INTER.SOLV>
14.9337

>  <SCORE.INTER.VDW>
-25.3086

>  <SCORE.INTER.norm>
-0.95891

>  <SCORE.INTRA>
3.59954

>  <SCORE.INTRA.DIHEDRAL>
5.83702

>  <SCORE.INTRA.DIHEDRAL.0>
6.18831

>  <SCORE.INTRA.POLAR>
0

>  <SCORE.INTRA.POLAR.0>
0

>  <SCORE.INTRA.REPUL>
0

>  <SCORE.INTRA.REPUL.0>
0

>  <SCORE.INTRA.SOLV>
-0.00301397

>  <SCORE.INTRA.SOLV.lig_0>
-44.3465

>  <SCORE.INTRA.VDW>
0.682537

>  <SCORE.INTRA.VDW.0>
-0.778272

>  <SCORE.INTRA.norm>
0.163615

>  <SCORE.RESTR>
0

>  <SCORE.RESTR.CAVITY>
0

>  <SCORE.RESTR.norm>
0

>  <SCORE.SYSTEM>
0

>  <SCORE.SYSTEM.CONST>
0

>  <SCORE.SYSTEM.DIHEDRAL>
0

>  <SCORE.SYSTEM.SOLV>
0

>  <SCORE.SYSTEM.norm>
0

>  <SCORE.heavy>
22

>  <SCORE.norm>
-0.795295

>  <RMSD>
8.501

$$$$
ligand
 OpenBabel11021811503D
libRbt.so/2013.1/901 2013/11/27
 22 24  0  0  0  0  0  0  0  0999 V2000
    0.1781    3.6836   21.6084 C   0  0  0  0  0  0  0  0  0  0  0  0
    1.0114    4.0760   22.6771 C   0  0  0  0  0  0  0  0  0  0  0  0
    0.5074    4.9206   23.6625 C   0  0  0  0  0  0  0  0  0  0  0  0
   -0.8222    5.3690   23.5762 C   0  0  0  0  0  0  0  0  0  0  0  0
   -1.6570    4.9833   22.4986 C   0  0  0  0  0  0  0  0  0  0  0  0
   -1.1524    4.1417   21.5167 C   0  0  0  0  0  0  0  0  0  0  0  0
    0.7260    2.7638   20.5002 C   0  0  0  0  0  0  0  0  0  0  0  0
    2.0170    1.9915   20.8699 C   0  0  0  0  0  0  0  0  0  0  0  0
    3.1292    2.1218   19.8356 C   0  0  0  0  0  0  0  0  0  0  0  0
    2.9715    2.7471   18.5951 C   0  0  0  0  0  0  0  0  0  0  0  0
    4.1706    2.6714   17.9606 N   0  0  0  0  0  0  0  0  0  0  0  0
    5.1255    2.0240   18.7190 C   0  0  0  0  0  0  0  0  0  0  0  0
    4.5133    1.6603   19.9134 C   0  0  0  0  0  0  0  0  0  0  0  0
    5.3247    0.9622   20.8864 C   0  0  0  0  0  0  0  0  0  0  0  0
    4.7796    0.5752   22.1076 O   0  0  0  0  0  0  0  0  0  0  0  0
    6.6505    0.6819   20.5840 N   0  0  0  0  0  0  0  0  0  0  0  0
    7.2124    1.0674   19.4015 C   0  0  0  0  0  0  0  0  0  0  0  0
    6.4891    1.7164   18.4756 N   0  0  0  0  0  0  0  0  0  0  0  0
    8.6219    0.7628   19.1345 N   0  0  0  0  0  0  0  0  0  0  0  0
   -1.3397    6.2858   24.6526 C   0  0  0  0  0  0  0  0  0  0  0  0
   -0.7801    7.3584   24.8725 O   0  0  0  0  0  0  0  0  0  0  0  0
   -2.4895    5.8806   25.4167 N   0  0  0  0  0  0  0  0  0  0  0  0
  1  2  2  0  0  0  0
  1  6  1  0  0  0  0
  1  7  1  0  0  0  0
  2  3  1  0  0  0  0
  3  4  2  0  0  0  0
  4  5  1  0  0  0  0
  4 20  1  0  0  0  0
  5  6  2  0  0  0  0
  7  8  1  0  0  0  0
  8  9  1  0  0  0  0
  9 10  2  0  0  0  0
  9 13  1  0  0  0  0
 10 11  1  0  0  0  0
 11 12  1  0  0  0  0
 12 13  2  0  0  0  0
 12 18  1  0  0  0  0
 13 14  1  0  0  0  0
 14 15  1  0  0  0  0
 14 16  2  0  0  0  0
 16 17  1  0  0  0  0
 17 18  2  0  0  0  0
 17 19  1  0  0  0  0
 20 21  2  0  0  0  0
 20 22  1  0  0  0  0
M  END
>  <CHROM.1>
18.08853995,58.08201340,-129.35620693,-6.88544715,2.55431868,3.09784949,21.27037515
2.55639711,-0.41601666,1.34007602

>  <Name>
ligand

>  <RI>
0

>  <Rbt.Current_Directory>
/home/itssahil/PROJECTS/Mol_Feturizer/New_Systems/rnas/4LVY

>  <Rbt.Executable>
rbdock ($Id: //depot/dev/client3/rdock/2013.1/src/exe/rbdock.cxx#4 $)

>  <Rbt.Library>
libRbt.so (2013.1, Build901 2013/11/27)

>  <Rbt.Parameter_File>
/export/apps/rDock/src/rDock_2013.1_src/data/scripts/dock_solv.prm

>  <Rbt.Receptor>
prm/pocket_docking_3.prm

>  <SCORE>
-17.8738

>  <SCORE.INTER>
-21.3344

>  <SCORE.INTER.CONST>
1

>  <SCORE.INTER.POLAR>
0

>  <SCORE.INTER.ROT>
4

>  <SCORE.INTER.SOLV>
14.136

>  <SCORE.INTER.VDW>
-25.2016

>  <SCORE.INTER.norm>
-0.969745

>  <SCORE.INTRA>
3.46056

>  <SCORE.INTRA.DIHEDRAL>
5.73044

>  <SCORE.INTRA.DIHEDRAL.0>
6.18831

>  <SCORE.INTRA.POLAR>
0

>  <SCORE.INTRA.POLAR.0>
0

>  <SCORE.INTRA.REPUL>
0

>  <SCORE.INTRA.REPUL.0>
0

>  <SCORE.INTRA.SOLV>
-0.00503425

>  <SCORE.INTRA.SOLV.lig_0>
-44.3465

>  <SCORE.INTRA.VDW>
0.597862

>  <SCORE.INTRA.VDW.0>
-0.778272

>  <SCORE.INTRA.norm>
0.157298

>  <SCORE.RESTR>
0

>  <SCORE.RESTR.CAVITY>
0

>  <SCORE.RESTR.norm>
0

>  <SCORE.SYSTEM>
0

>  <SCORE.SYSTEM.CONST>
0

>  <SCORE.SYSTEM.DIHEDRAL>
0

>  <SCORE.SYSTEM.SOLV>
0

>  <SCORE.SYSTEM.norm>
0

>  <SCORE.heavy>
22

>  <SCORE.norm>
-0.812446

>  <RMSD>
8.502

$$$$
ligand
 OpenBabel11021811503D
libRbt.so/2013.1/901 2013/11/27
 22 24  0  0  0  0  0  0  0  0999 V2000
    0.2302    3.9079   21.3266 C   0  0  0  0  0  0  0  0  0  0  0  0
    0.9989    4.1927   22.4749 C   0  0  0  0  0  0  0  0  0  0  0  0
    0.4059    4.8511   23.5487 C   0  0  0  0  0  0  0  0  0  0  0  0
   -0.9479    5.2220   23.4710 C   0  0  0  0  0  0  0  0  0  0  0  0
   -1.7184    4.9451   22.3150 C   0  0  0  0  0  0  0  0  0  0  0  0
   -1.1250    4.2891   21.2450 C   0  0  0  0  0  0  0  0  0  0  0  0
    0.8762    3.1958   20.1226 C   0  0  0  0  0  0  0  0  0  0  0  0
    1.9973    2.1890   20.4823 C   0  0  0  0  0  0  0  0  0  0  0  0
    3.1960    2.2415   19.5422 C   0  0  0  0  0  0  0  0  0  0  0  0
    3.1723    2.8439   18.2806 C   0  0  0  0  0  0  0  0  0  0  0  0
    4.4144    2.6960   17.7502 N   0  0  0  0  0  0  0  0  0  0  0  0
    5.2703    2.0219   18.5983 C   0  0  0  0  0  0  0  0  0  0  0  0
    4.5445    1.7164   19.7443 C   0  0  0  0  0  0  0  0  0  0  0  0
    5.2373    1.0038   20.7953 C   0  0  0  0  0  0  0  0  0  0  0  0
    4.5749    0.6723   21.9740 O   0  0  0  0  0  0  0  0  0  0  0  0
    6.5681    0.6534   20.6102 N   0  0  0  0  0  0  0  0  0  0  0  0
    7.2439    0.9834   19.4714 C   0  0  0  0  0  0  0  0  0  0  0  0
    6.6325    1.6439   18.4757 N   0  0  0  0  0  0  0  0  0  0  0  0
    8.6537    0.6056   19.3291 N   0  0  0  0  0  0  0  0  0  0  0  0
   -1.5625    5.9377   24.6446 C   0  0  0  0  0  0  0  0  0  0  0  0
   -2.4933    5.4246   25.2629 O   0  0  0  0  0  0  0  0  0  0  0  0
   -1.0461    7.2271   25.0201 N   0  0  0  0  0  0  0  0  0  0  0  0
  1  2  2  0  0  0  0
  1  6  1  0  0  0  0
  1  7  1  0  0  0  0
  2  3  1  0  0  0  0
  3  4  2  0  0  0  0
  4  5  1  0  0  0  0
  4 20  1  0  0  0  0
  5  6  2  0  0  0  0
  7  8  1  0  0  0  0
  8  9  1  0  0  0  0
  9 10  2  0  0  0  0
  9 13  1  0  0  0  0
 10 11  1  0  0  0  0
 11 12  1  0  0  0  0
 12 13  2  0  0  0  0
 12 18  1  0  0  0  0
 13 14  1  0  0  0  0
 14 15  1  0  0  0  0
 14 16  2  0  0  0  0
 16 17  1  0  0  0  0
 17 18  2  0  0  0  0
 17 19  1  0  0  0  0
 20 21  2  0  0  0  0
 20 22  1  0  0  0  0
M  END
>  <CHROM.1>
32.23748134,-117.58687016,-138.93920809,-16.78246081,2.53824140,3.08527253
21.14084224,2.62203585,-0.46517352,1.47729296

>  <Name>
ligand

>  <RI>
0

>  <Rbt.Current_Directory>
/home/itssahil/PROJECTS/Mol_Feturizer/New_Systems/rnas/4LVY

>  <Rbt.Executable>
rbdock ($Id: //depot/dev/client3/rdock/2013.1/src/exe/rbdock.cxx#4 $)

>  <Rbt.Library>
libRbt.so (2013.1, Build901 2013/11/27)

>  <Rbt.Parameter_File>
/export/apps/rDock/src/rDock_2013.1_src/data/scripts/dock_solv.prm

>  <Rbt.Receptor>
prm/pocket_docking_3.prm

>  <SCORE>
-16.9401

>  <SCORE.INTER>
-19.6589

>  <SCORE.INTER.CONST>
1

>  <SCORE.INTER.POLAR>
0

>  <SCORE.INTER.ROT>
4

>  <SCORE.INTER.SOLV>
14.4748

>  <SCORE.INTER.VDW>
-24.1975

>  <SCORE.INTER.norm>
-0.893585

>  <SCORE.INTRA>
2.71881

>  <SCORE.INTRA.DIHEDRAL>
4.6983

>  <SCORE.INTRA.DIHEDRAL.0>
6.18831

>  <SCORE.INTRA.POLAR>
0

>  <SCORE.INTRA.POLAR.0>
0

>  <SCORE.INTRA.REPUL>
0

>  <SCORE.INTRA.REPUL.0>
0

>  <SCORE.INTRA.SOLV>
-0.00325683

>  <SCORE.INTRA.SOLV.lig_0>
-44.3465

>  <SCORE.INTRA.VDW>
0.371286

>  <SCORE.INTRA.VDW.0>
-0.778272

>  <SCORE.INTRA.norm>
0.123582

>  <SCORE.RESTR>
0

>  <SCORE.RESTR.CAVITY>
0

>  <SCORE.RESTR.norm>
0

>  <SCORE.SYSTEM>
0

>  <SCORE.SYSTEM.CONST>
0

>  <SCORE.SYSTEM.DIHEDRAL>
0

>  <SCORE.SYSTEM.SOLV>
0

>  <SCORE.SYSTEM.norm>
0

>  <SCORE.heavy>
22

>  <SCORE.norm>
-0.770003

>  <RMSD>
8.506

$$$$
ligand
 OpenBabel11021811503D
libRbt.so/2013.1/901 2013/11/27
 22 24  0  0  0  0  0  0  0  0999 V2000
    0.8253    3.0172   21.4637 C   0  0  0  0  0  0  0  0  0  0  0  0
    1.5814    3.9741   22.1730 C   0  0  0  0  0  0  0  0  0  0  0  0
    0.9403    4.8234   23.0707 C   0  0  0  0  0  0  0  0  0  0  0  0
   -0.4491    4.7143   23.2551 C   0  0  0  0  0  0  0  0  0  0  0  0
   -1.2110    3.7602   22.5366 C   0  0  0  0  0  0  0  0  0  0  0  0
   -0.5699    2.9148   21.6414 C   0  0  0  0  0  0  0  0  0  0  0  0
    1.5169    2.0819   20.4532 C   0  0  0  0  0  0  0  0  0  0  0  0
    2.9579    1.6590   20.8334 C   0  0  0  0  0  0  0  0  0  0  0  0
    4.0191    2.1372   19.8492 C   0  0  0  0  0  0  0  0  0  0  0  0
    3.7904    3.1012   18.8627 C   0  0  0  0  0  0  0  0  0  0  0  0
    4.9615    3.2658   18.1939 N   0  0  0  0  0  0  0  0  0  0  0  0
    5.9655    2.4564   18.6868 C   0  0  0  0  0  0  0  0  0  0  0  0
    5.4167    1.7265   19.7354 C   0  0  0  0  0  0  0  0  0  0  0  0
    6.2882    0.7987   20.4224 C   0  0  0  0  0  0  0  0  0  0  0  0
    5.8082    0.0409   21.4871 O   0  0  0  0  0  0  0  0  0  0  0  0
    7.6060    0.6731   20.0034 N   0  0  0  0  0  0  0  0  0  0  0  0
    8.1046    1.4183   18.9746 C   0  0  0  0  0  0  0  0  0  0  0  0
    7.3244    2.2885   18.3144 N   0  0  0  0  0  0  0  0  0  0  0  0
    9.5081    1.2620   18.5790 N   0  0  0  0  0  0  0  0  0  0  0  0
   -1.1176    5.6488   24.2282 C   0  0  0  0  0  0  0  0  0  0  0  0
   -2.2831    5.4557   24.5693 O   0  0  0  0  0  0  0  0  0  0  0  0
   -0.3721    6.7674   24.7412 N   0  0  0  0  0  0  0  0  0  0  0  0
  1  2  2  0  0  0  0
  1  6  1  0  0  0  0
  1  7  1  0  0  0  0
  2  3  1  0  0  0  0
  3  4  2  0  0  0  0
  4  5  1  0  0  0  0
  4 20  1  0  0  0  0
  5  6  2  0  0  0  0
  7  8  1  0  0  0  0
  8  9  1  0  0  0  0
  9 10  2  0  0  0  0
  9 13  1  0  0  0  0
 10 11  1  0  0  0  0
 11 12  1  0  0  0  0
 12 13  2  0  0  0  0
 12 18  1  0  0  0  0
 13 14  1  0  0  0  0
 14 15  1  0  0  0  0
 14 16  2  0  0  0  0
 16 17  1  0  0  0  0
 17 18  2  0  0  0  0
 17 19  1  0  0  0  0
 20 21  2  0  0  0  0
 20 22  1  0  0  0  0
M  END
>  <CHROM.1>
34.28615732,-168.91940457,-116.88360604,13.36875459,3.24609769,2.88734876
21.01860371,2.73049561,0.46416720,0.09227346

>  <Name>
ligand

>  <RI>
0

>  <Rbt.Current_Directory>
/home/itssahil/PROJECTS/Mol_Feturizer/New_Systems/rnas/4LVY

>  <Rbt.Executable>
rbdock ($Id: //depot/dev/client3/rdock/2013.1/src/exe/rbdock.cxx#4 $)

>  <Rbt.Library>
libRbt.so (2013.1, Build901 2013/11/27)

>  <Rbt.Parameter_File>
/export/apps/rDock/src/rDock_2013.1_src/data/scripts/dock_solv.prm

>  <Rbt.Receptor>
prm/pocket_docking_2.prm

>  <SCORE>
-11.1932

>  <SCORE.INTER>
-14.8962

>  <SCORE.INTER.CONST>
1

>  <SCORE.INTER.POLAR>
0

>  <SCORE.INTER.ROT>
4

>  <SCORE.INTER.SOLV>
11.16

>  <SCORE.INTER.VDW>
-19.9174

>  <SCORE.INTER.norm>
-0.677098

>  <SCORE.INTRA>
3.53565

>  <SCORE.INTRA.DIHEDRAL>
6.02747

>  <SCORE.INTRA.DIHEDRAL.0>
6.18831

>  <SCORE.INTRA.POLAR>
0

>  <SCORE.INTRA.POLAR.0>
0

>  <SCORE.INTRA.REPUL>
0

>  <SCORE.INTRA.REPUL.0>
0

>  <SCORE.INTRA.SOLV>
0.00991754

>  <SCORE.INTRA.SOLV.lig_0>
-44.3465

>  <SCORE.INTRA.VDW>
0.516957

>  <SCORE.INTRA.VDW.0>
-0.778272

>  <SCORE.INTRA.norm>
0.160711

>  <SCORE.RESTR>
0.167358

>  <SCORE.RESTR.CAVITY>
0.167358

>  <SCORE.RESTR.norm>
0.00760716

>  <SCORE.SYSTEM>
0

>  <SCORE.SYSTEM.CONST>
0

>  <SCORE.SYSTEM.DIHEDRAL>
0

>  <SCORE.SYSTEM.SOLV>
0

>  <SCORE.SYSTEM.norm>
0

>  <SCORE.heavy>
22

>  <SCORE.norm>
-0.50878

>  <RMSD>
8.529

$$$$
ligand
 OpenBabel11021811503D
libRbt.so/2013.1/901 2013/11/27
 22 24  0  0  0  0  0  0  0  0999 V2000
    0.9246    3.0235   21.3340 C   0  0  0  0  0  0  0  0  0  0  0  0
    1.6735    3.9319   22.1116 C   0  0  0  0  0  0  0  0  0  0  0  0
    1.0134    4.7826   22.9941 C   0  0  0  0  0  0  0  0  0  0  0  0
   -0.3875    4.7234   23.0953 C   0  0  0  0  0  0  0  0  0  0  0  0
   -1.1415    3.8184   22.3083 C   0  0  0  0  0  0  0  0  0  0  0  0
   -0.4815    2.9714   21.4284 C   0  0  0  0  0  0  0  0  0  0  0  0
    1.6383    2.0877   20.3396 C   0  0  0  0  0  0  0  0  0  0  0  0
    3.0927    1.7145   20.7210 C   0  0  0  0  0  0  0  0  0  0  0  0
    4.1383    2.2355   19.7418 C   0  0  0  0  0  0  0  0  0  0  0  0
    3.8861    3.2205   18.7821 C   0  0  0  0  0  0  0  0  0  0  0  0
    5.0492    3.4217   18.1093 N   0  0  0  0  0  0  0  0  0  0  0  0
    6.0702    2.6168   18.5739 C   0  0  0  0  0  0  0  0  0  0  0  0
    5.5415    1.8512   19.6073 C   0  0  0  0  0  0  0  0  0  0  0  0
    6.4335    0.9207   20.2638 C   0  0  0  0  0  0  0  0  0  0  0  0
    5.9743    0.1280   21.3121 O   0  0  0  0  0  0  0  0  0  0  0  0
    7.7499    0.8279   19.8322 N   0  0  0  0  0  0  0  0  0  0  0  0
    8.2283    1.6075   18.8193 C   0  0  0  0  0  0  0  0  0  0  0  0
    7.4288    2.4812   18.1874 N   0  0  0  0  0  0  0  0  0  0  0  0
    9.6310    1.4848   18.4097 N   0  0  0  0  0  0  0  0  0  0  0  0
   -1.0761    5.6586   24.0537 C   0  0  0  0  0  0  0  0  0  0  0  0
   -2.2988    5.6238   24.1801 O   0  0  0  0  0  0  0  0  0  0  0  0
   -0.2804    6.5906   24.8075 N   0  0  0  0  0  0  0  0  0  0  0  0
  1  2  2  0  0  0  0
  1  6  1  0  0  0  0
  1  7  1  0  0  0  0
  2  3  1  0  0  0  0
  3  4  2  0  0  0  0
  4  5  1  0  0  0  0
  4 20  1  0  0  0  0
  5  6  2  0  0  0  0
  7  8  1  0  0  0  0
  8  9  1  0  0  0  0
  9 10  2  0  0  0  0
  9 13  1  0  0  0  0
 10 11  1  0  0  0  0
 11 12  1  0  0  0  0
 12 13  2  0  0  0  0
 12 18  1  0  0  0  0
 13 14  1  0  0  0  0
 14 15  1  0  0  0  0
 14 16  2  0  0  0  0
 16 17  1  0  0  0  0
 17 18  2  0  0  0  0
 17 19  1  0  0  0  0
 20 21  2  0  0  0  0
 20 22  1  0  0  0  0
M  END
>  <CHROM.1>
28.35391042,-179.13755466,-115.29208859,15.07235376,3.34600020,2.96806404
20.87726376,2.54969624,-0.06841533,1.00876443

>  <Name>
ligand

>  <RI>
0

>  <Rbt.Current_Directory>
/home/itssahil/PROJECTS/Mol_Feturizer/New_Systems/rnas/4LVY

>  <Rbt.Executable>
rbdock ($Id: //depot/dev/client3/rdock/2013.1/src/exe/rbdock.cxx#4 $)

>  <Rbt.Library>
libRbt.so (2013.1, Build901 2013/11/27)

>  <Rbt.Parameter_File>
/export/apps/rDock/src/rDock_2013.1_src/data/scripts/dock_solv.prm

>  <Rbt.Receptor>
prm/pocket_docking_2.prm

>  <SCORE>
-10.2557

>  <SCORE.INTER>
-13.8401

>  <SCORE.INTER.CONST>
1

>  <SCORE.INTER.POLAR>
0

>  <SCORE.INTER.ROT>
4

>  <SCORE.INTER.SOLV>
10.5986

>  <SCORE.INTER.VDW>
-19.0263

>  <SCORE.INTER.norm>
-0.629097

>  <SCORE.INTRA>
3.58448

>  <SCORE.INTRA.DIHEDRAL>
5.95929

>  <SCORE.INTRA.DIHEDRAL.0>
6.18831

>  <SCORE.INTRA.POLAR>
0

>  <SCORE.INTRA.POLAR.0>
0

>  <SCORE.INTRA.REPUL>
0

>  <SCORE.INTRA.REPUL.0>
0

>  <SCORE.INTRA.SOLV>
0.0104988

>  <SCORE.INTRA.SOLV.lig_0>
-44.3465

>  <SCORE.INTRA.VDW>
0.599586

>  <SCORE.INTRA.VDW.0>
-0.778272

>  <SCORE.INTRA.norm>
0.162931

>  <SCORE.RESTR>
0

>  <SCORE.RESTR.CAVITY>
0

>  <SCORE.RESTR.norm>
0

>  <SCORE.SYSTEM>
0

>  <SCORE.SYSTEM.CONST>
0

>  <SCORE.SYSTEM.DIHEDRAL>
0

>  <SCORE.SYSTEM.SOLV>
0

>  <SCORE.SYSTEM.norm>
0

>  <SCORE.heavy>
22

>  <SCORE.norm>
-0.466166

>  <RMSD>
8.533

$$$$
ligand
 OpenBabel11021811503D
libRbt.so/2013.1/901 2013/11/27
 22 24  0  0  0  0  0  0  0  0999 V2000
    0.4681    3.3799   21.5531 C   0  0  0  0  0  0  0  0  0  0  0  0
    1.3408    4.3637   22.0643 C   0  0  0  0  0  0  0  0  0  0  0  0
    0.8730    5.2634   23.0182 C   0  0  0  0  0  0  0  0  0  0  0  0
   -0.4603    5.1777   23.4555 C   0  0  0  0  0  0  0  0  0  0  0  0
   -1.3402    4.1964   22.9361 C   0  0  0  0  0  0  0  0  0  0  0  0
   -0.8721    3.3006   21.9845 C   0  0  0  0  0  0  0  0  0  0  0  0
    0.9651    2.3880   20.4839 C   0  0  0  0  0  0  0  0  0  0  0  0
    2.2632    2.8111   19.7519 C   0  0  0  0  0  0  0  0  0  0  0  0
    3.4932    2.0143   20.1707 C   0  0  0  0  0  0  0  0  0  0  0  0
    3.5591    1.2315   21.3274 C   0  0  0  0  0  0  0  0  0  0  0  0
    4.7989    0.6766   21.3574 N   0  0  0  0  0  0  0  0  0  0  0  0
    5.5678    1.0513   20.2735 C   0  0  0  0  0  0  0  0  0  0  0  0
    4.7833    1.8952   19.4951 C   0  0  0  0  0  0  0  0  0  0  0  0
    5.3776    2.4216   18.2860 C   0  0  0  0  0  0  0  0  0  0  0  0
    4.6473    3.2660   17.4543 O   0  0  0  0  0  0  0  0  0  0  0  0
    6.6846    2.0758   17.9697 N   0  0  0  0  0  0  0  0  0  0  0  0
    7.4142    1.2351   18.7593 C   0  0  0  0  0  0  0  0  0  0  0  0
    6.8948    0.7285   19.8886 N   0  0  0  0  0  0  0  0  0  0  0  0
    8.7857    0.8862   18.3747 N   0  0  0  0  0  0  0  0  0  0  0  0
   -0.9414    6.1667   24.4839 C   0  0  0  0  0  0  0  0  0  0  0  0
   -0.4131    7.2737   24.5712 O   0  0  0  0  0  0  0  0  0  0  0  0
   -2.0189    5.7898   25.3596 N   0  0  0  0  0  0  0  0  0  0  0  0
  1  2  2  0  0  0  0
  1  6  1  0  0  0  0
  1  7  1  0  0  0  0
  2  3  1  0  0  0  0
  3  4  2  0  0  0  0
  4  5  1  0  0  0  0
  4 20  1  0  0  0  0
  5  6  2  0  0  0  0
  7  8  1  0  0  0  0
  8  9  1  0  0  0  0
  9 10  2  0  0  0  0
  9 13  1  0  0  0  0
 10 11  1  0  0  0  0
 11 12  1  0  0  0  0
 12 13  2  0  0  0  0
 12 18  1  0  0  0  0
 13 14  1  0  0  0  0
 14 15  1  0  0  0  0
 14 16  2  0  0  0  0
 16 17  1  0  0  0  0
 17 18  2  0  0  0  0
 17 19  1  0  0  0  0
 20 21  2  0  0  0  0
 20 22  1  0  0  0  0
M  END
>  <CHROM.1>
-17.31887266,26.75727534,106.51139237,-16.09412696,2.85333660,3.09070285
21.01638051,2.56797458,-0.45305158,1.48375461

>  <Name>
ligand

>  <RI>
0

>  <Rbt.Current_Directory>
/home/itssahil/PROJECTS/Mol_Feturizer/New_Systems/rnas/4LVY

>  <Rbt.Executable>
rbdock ($Id: //depot/dev/client3/rdock/2013.1/src/exe/rbdock.cxx#4 $)

>  <Rbt.Library>
libRbt.so (2013.1, Build901 2013/11/27)

>  <Rbt.Parameter_File>
/export/apps/rDock/src/rDock_2013.1_src/data/scripts/dock_solv.prm

>  <Rbt.Receptor>
prm/pocket_docking_3.prm

>  <SCORE>
-16.2484

>  <SCORE.INTER>
-19.5457

>  <SCORE.INTER.CONST>
1

>  <SCORE.INTER.POLAR>
0

>  <SCORE.INTER.ROT>
4

>  <SCORE.INTER.SOLV>
12.8205

>  <SCORE.INTER.VDW>
-23.5707

>  <SCORE.INTER.norm>
-0.888442

>  <SCORE.INTRA>
3.29736

>  <SCORE.INTRA.DIHEDRAL>
5.46532

>  <SCORE.INTRA.DIHEDRAL.0>
6.18831

>  <SCORE.INTRA.POLAR>
0

>  <SCORE.INTRA.POLAR.0>
0

>  <SCORE.INTRA.REPUL>
0

>  <SCORE.INTRA.REPUL.0>
0

>  <SCORE.INTRA.SOLV>
0.00361009

>  <SCORE.INTRA.SOLV.lig_0>
-44.3465

>  <SCORE.INTRA.VDW>
0.562893

>  <SCORE.INTRA.VDW.0>
-0.778272

>  <SCORE.INTRA.norm>
0.14988

>  <SCORE.RESTR>
0

>  <SCORE.RESTR.CAVITY>
0

>  <SCORE.RESTR.norm>
0

>  <SCORE.SYSTEM>
0

>  <SCORE.SYSTEM.CONST>
0

>  <SCORE.SYSTEM.DIHEDRAL>
0

>  <SCORE.SYSTEM.SOLV>
0

>  <SCORE.SYSTEM.norm>
0

>  <SCORE.heavy>
22

>  <SCORE.norm>
-0.738562

>  <RMSD>
8.539

$$$$
ligand
 OpenBabel11021811503D
libRbt.so/2013.1/901 2013/11/27
 22 24  0  0  0  0  0  0  0  0999 V2000
    0.5570    3.7382   21.5449 C   0  0  0  0  0  0  0  0  0  0  0  0
   -0.7525    3.3933   21.9408 C   0  0  0  0  0  0  0  0  0  0  0  0
   -1.3807    4.1303   22.9411 C   0  0  0  0  0  0  0  0  0  0  0  0
   -0.7003    5.2045   23.5404 C   0  0  0  0  0  0  0  0  0  0  0  0
    0.6181    5.5459   23.1505 C   0  0  0  0  0  0  0  0  0  0  0  0
    1.2431    4.8095   22.1534 C   0  0  0  0  0  0  0  0  0  0  0  0
    1.2731    2.9215   20.4520 C   0  0  0  0  0  0  0  0  0  0  0  0
    2.4096    2.0007   20.9622 C   0  0  0  0  0  0  0  0  0  0  0  0
    3.6215    1.9502   20.0391 C   0  0  0  0  0  0  0  0  0  0  0  0
    3.6579    2.5290   18.7669 C   0  0  0  0  0  0  0  0  0  0  0  0
    4.8933    2.2832   18.2576 N   0  0  0  0  0  0  0  0  0  0  0  0
    5.6874    1.5661   19.1301 C   0  0  0  0  0  0  0  0  0  0  0  0
    4.9262    1.3345   20.2705 C   0  0  0  0  0  0  0  0  0  0  0  0
    5.5522    0.5943   21.3441 C   0  0  0  0  0  0  0  0  0  0  0  0
    4.8521    0.3330   22.5187 O   0  0  0  0  0  0  0  0  0  0  0  0
    6.8570    0.1469   21.1850 N   0  0  0  0  0  0  0  0  0  0  0  0
    7.5700    0.4066   20.0506 C   0  0  0  0  0  0  0  0  0  0  0  0
    7.0207    1.0900   19.0344 N   0  0  0  0  0  0  0  0  0  0  0  0
    8.9510   -0.0730   19.9359 N   0  0  0  0  0  0  0  0  0  0  0  0
   -1.4014    5.9812   24.6233 C   0  0  0  0  0  0  0  0  0  0  0  0
   -2.3832    5.5039   25.1893 O   0  0  0  0  0  0  0  0  0  0  0  0
   -0.9062    7.2857   24.9743 N   0  0  0  0  0  0  0  0  0  0  0  0
  1  2  2  0  0  0  0
  1  6  1  0  0  0  0
  1  7  1  0  0  0  0
  2  3  1  0  0  0  0
  3  4  2  0  0  0  0
  4  5  1  0  0  0  0
  4 20  1  0  0  0  0
  5  6  2  0  0  0  0
  7  8  1  0  0  0  0
  8  9  1  0  0  0  0
  9 10  2  0  0  0  0
  9 13  1  0  0  0  0
 10 11  1  0  0  0  0
 11 12  1  0  0  0  0
 12 13  2  0  0  0  0
 12 18  1  0  0  0  0
 13 14  1  0  0  0  0
 14 15  1  0  0  0  0
 14 16  2  0  0  0  0
 16 17  1  0  0  0  0
 17 18  2  0  0  0  0
 17 19  1  0  0  0  0
 20 21  2  0  0  0  0
 20 22  1  0  0  0  0
M  END
>  <CHROM.1>
-107.17793438,17.40968520,-141.18103694,-8.01939208,2.85596769,2.82088385
21.48401905,2.70876835,-0.53367032,1.52983872

>  <Name>
ligand

>  <RI>
0

>  <Rbt.Current_Directory>
/home/itssahil/PROJECTS/Mol_Feturizer/New_Systems/rnas/4LVY

>  <Rbt.Executable>
rbdock ($Id: //depot/dev/client3/rdock/2013.1/src/exe/rbdock.cxx#4 $)

>  <Rbt.Library>
libRbt.so (2013.1, Build901 2013/11/27)

>  <Rbt.Parameter_File>
/export/apps/rDock/src/rDock_2013.1_src/data/scripts/dock_solv.prm

>  <Rbt.Receptor>
prm/pocket_docking_3.prm

>  <SCORE>
-15.6502

>  <SCORE.INTER>
-18.1887

>  <SCORE.INTER.CONST>
1

>  <SCORE.INTER.POLAR>
0

>  <SCORE.INTER.ROT>
4

>  <SCORE.INTER.SOLV>
12.9967

>  <SCORE.INTER.VDW>
-22.7247

>  <SCORE.INTER.norm>
-0.826758

>  <SCORE.INTRA>
2.53844

>  <SCORE.INTRA.DIHEDRAL>
4.39012

>  <SCORE.INTRA.DIHEDRAL.0>
6.18831

>  <SCORE.INTRA.POLAR>
0

>  <SCORE.INTRA.POLAR.0>
0

>  <SCORE.INTRA.REPUL>
0

>  <SCORE.INTRA.REPUL.0>
0

>  <SCORE.INTRA.SOLV>
0.00560005

>  <SCORE.INTRA.SOLV.lig_0>
-44.3465

>  <SCORE.INTRA.VDW>
0.340577

>  <SCORE.INTRA.VDW.0>
-0.778272

>  <SCORE.INTRA.norm>
0.115384

>  <SCORE.RESTR>
0

>  <SCORE.RESTR.CAVITY>
0

>  <SCORE.RESTR.norm>
0

>  <SCORE.SYSTEM>
0

>  <SCORE.SYSTEM.CONST>
0

>  <SCORE.SYSTEM.DIHEDRAL>
0

>  <SCORE.SYSTEM.SOLV>
0

>  <SCORE.SYSTEM.norm>
0

>  <SCORE.heavy>
22

>  <SCORE.norm>
-0.711374

>  <RMSD>
8.547

$$$$
ligand
 OpenBabel11021811503D
libRbt.so/2013.1/901 2013/11/27
 22 24  0  0  0  0  0  0  0  0999 V2000
    0.5638    3.1878   21.7547 C   0  0  0  0  0  0  0  0  0  0  0  0
    1.4241    3.8621   22.6468 C   0  0  0  0  0  0  0  0  0  0  0  0
    0.8950    4.7996   23.5297 C   0  0  0  0  0  0  0  0  0  0  0  0
   -0.4865    5.0594   23.5174 C   0  0  0  0  0  0  0  0  0  0  0  0
   -1.3500    4.3900   22.6158 C   0  0  0  0  0  0  0  0  0  0  0  0
   -0.8205    3.4561   21.7357 C   0  0  0  0  0  0  0  0  0  0  0  0
    1.1359    2.1605   20.7590 C   0  0  0  0  0  0  0  0  0  0  0  0
    2.3139    2.6739   19.8938 C   0  0  0  0  0  0  0  0  0  0  0  0
    3.6276    1.9437   20.1477 C   0  0  0  0  0  0  0  0  0  0  0  0
    3.8540    1.1029   21.2417 C   0  0  0  0  0  0  0  0  0  0  0  0
    5.1247    0.6365   21.1236 N   0  0  0  0  0  0  0  0  0  0  0  0
    5.7610    1.1259   20.0003 C   0  0  0  0  0  0  0  0  0  0  0  0
    4.8526    1.9551   19.3514 C   0  0  0  0  0  0  0  0  0  0  0  0
    5.2937    2.5904   18.1291 C   0  0  0  0  0  0  0  0  0  0  0  0
    4.4341    3.4268   17.4224 O   0  0  0  0  0  0  0  0  0  0  0  0
    6.5845    2.3567   17.6740 N   0  0  0  0  0  0  0  0  0  0  0  0
    7.4392    1.5263   18.3392 C   0  0  0  0  0  0  0  0  0  0  0  0
    7.0637    0.9206   19.4766 N   0  0  0  0  0  0  0  0  0  0  0  0
    8.7877    1.2980   17.8101 N   0  0  0  0  0  0  0  0  0  0  0  0
   -1.0311    6.0819   24.4792 C   0  0  0  0  0  0  0  0  0  0  0  0
   -2.0219    5.8238   25.1601 O   0  0  0  0  0  0  0  0  0  0  0  0
   -0.3769    7.3595   24.5791 N   0  0  0  0  0  0  0  0  0  0  0  0
  1  2  2  0  0  0  0
  1  6  1  0  0  0  0
  1  7  1  0  0  0  0
  2  3  1  0  0  0  0
  3  4  2  0  0  0  0
  4  5  1  0  0  0  0
  4 20  1  0  0  0  0
  5  6  2  0  0  0  0
  7  8  1  0  0  0  0
  8  9  1  0  0  0  0
  9 10  2  0  0  0  0
  9 13  1  0  0  0  0
 10 11  1  0  0  0  0
 11 12  1  0  0  0  0
 12 13  2  0  0  0  0
 12 18  1  0  0  0  0
 13 14  1  0  0  0  0
 14 15  1  0  0  0  0
 14 16  2  0  0  0  0
 16 17  1  0  0  0  0
 17 18  2  0  0  0  0
 17 19  1  0  0  0  0
 20 21  2  0  0  0  0
 20 22  1  0  0  0  0
M  END
>  <CHROM.1>
-52.23959295,-132.03989791,115.82712794,-13.50224075,2.89399837,3.09305369
20.94267357,-2.93352234,0.69088295,-0.94128099

>  <Name>
ligand

>  <RI>
0

>  <Rbt.Current_Directory>
/home/itssahil/PROJECTS/Mol_Feturizer/New_Systems/rnas/4LVY

>  <Rbt.Executable>
rbdock ($Id: //depot/dev/client3/rdock/2013.1/src/exe/rbdock.cxx#4 $)

>  <Rbt.Library>
libRbt.so (2013.1, Build901 2013/11/27)

>  <Rbt.Parameter_File>
/export/apps/rDock/src/rDock_2013.1_src/data/scripts/dock_solv.prm

>  <Rbt.Receptor>
prm/pocket_docking_4.prm

>  <SCORE>
-15.9693

>  <SCORE.INTER>
-19.1226

>  <SCORE.INTER.CONST>
1

>  <SCORE.INTER.POLAR>
0

>  <SCORE.INTER.ROT>
4

>  <SCORE.INTER.SOLV>
12.5257

>  <SCORE.INTER.VDW>
-23.1903

>  <SCORE.INTER.norm>
-0.869207

>  <SCORE.INTRA>
3.15323

>  <SCORE.INTRA.DIHEDRAL>
6.13138

>  <SCORE.INTRA.DIHEDRAL.0>
6.18831

>  <SCORE.INTRA.POLAR>
0

>  <SCORE.INTRA.POLAR.0>
0

>  <SCORE.INTRA.REPUL>
0

>  <SCORE.INTRA.REPUL.0>
0

>  <SCORE.INTRA.SOLV>
0.000877595

>  <SCORE.INTRA.SOLV.lig_0>
-44.3465

>  <SCORE.INTRA.VDW>
0.0870956

>  <SCORE.INTRA.VDW.0>
-0.778272

>  <SCORE.INTRA.norm>
0.143328

>  <SCORE.RESTR>
0

>  <SCORE.RESTR.CAVITY>
0

>  <SCORE.RESTR.norm>
0

>  <SCORE.SYSTEM>
0

>  <SCORE.SYSTEM.CONST>
0

>  <SCORE.SYSTEM.DIHEDRAL>
0

>  <SCORE.SYSTEM.SOLV>
0

>  <SCORE.SYSTEM.norm>
0

>  <SCORE.heavy>
22

>  <SCORE.norm>
-0.725879

>  <RMSD>
8.562

$$$$
ligand
 OpenBabel11021811503D
libRbt.so/2013.1/901 2013/11/27
 22 24  0  0  0  0  0  0  0  0999 V2000
    0.4608    3.5910   21.7676 C   0  0  0  0  0  0  0  0  0  0  0  0
    1.2740    4.2005   22.7463 C   0  0  0  0  0  0  0  0  0  0  0  0
    0.6937    5.0480   23.6862 C   0  0  0  0  0  0  0  0  0  0  0  0
   -0.6916    5.2831   23.6443 C   0  0  0  0  0  0  0  0  0  0  0  0
   -1.5078    4.6793   22.6563 C   0  0  0  0  0  0  0  0  0  0  0  0
   -0.9272    3.8352   21.7195 C   0  0  0  0  0  0  0  0  0  0  0  0
    1.0901    2.6647   20.7092 C   0  0  0  0  0  0  0  0  0  0  0  0
    2.3414    1.8843   21.1837 C   0  0  0  0  0  0  0  0  0  0  0  0
    3.5045    1.9297   20.1995 C   0  0  0  0  0  0  0  0  0  0  0  0
    3.4601    2.5929   18.9694 C   0  0  0  0  0  0  0  0  0  0  0  0
    4.6730    2.4166   18.3830 N   0  0  0  0  0  0  0  0  0  0  0  0
    5.5290    1.6655   19.1636 C   0  0  0  0  0  0  0  0  0  0  0  0
    4.8342    1.3370   20.3225 C   0  0  0  0  0  0  0  0  0  0  0  0
    5.5335    0.5447   21.3103 C   0  0  0  0  0  0  0  0  0  0  0  0
    4.9022    0.1859   22.4980 O   0  0  0  0  0  0  0  0  0  0  0  0
    6.8388    0.1458   21.0556 N   0  0  0  0  0  0  0  0  0  0  0  0
    7.4851    0.5006   19.9071 C   0  0  0  0  0  0  0  0  0  0  0  0
    6.8668    1.2346   18.9686 N   0  0  0  0  0  0  0  0  0  0  0  0
    8.8697    0.0688   19.6906 N   0  0  0  0  0  0  0  0  0  0  0  0
   -1.2921    6.2081   24.6695 C   0  0  0  0  0  0  0  0  0  0  0  0
   -0.7948    7.3147   24.8699 O   0  0  0  0  0  0  0  0  0  0  0  0
   -2.4465    5.7707   25.4084 N   0  0  0  0  0  0  0  0  0  0  0  0
  1  2  2  0  0  0  0
  1  6  1  0  0  0  0
  1  7  1  0  0  0  0
  2  3  1  0  0  0  0
  3  4  2  0  0  0  0
  4  5  1  0  0  0  0
  4 20  1  0  0  0  0
  5  6  2  0  0  0  0
  7  8  1  0  0  0  0
  8  9  1  0  0  0  0
  9 10  2  0  0  0  0
  9 13  1  0  0  0  0
 10 11  1  0  0  0  0
 11 12  1  0  0  0  0
 12 13  2  0  0  0  0
 12 18  1  0  0  0  0
 13 14  1  0  0  0  0
 14 15  1  0  0  0  0
 14 16  2  0  0  0  0
 16 17  1  0  0  0  0
 17 18  2  0  0  0  0
 17 19  1  0  0  0  0
 20 21  2  0  0  0  0
 20 22  1  0  0  0  0
M  END
>  <CHROM.1>
31.08377950,49.71693160,-133.11129127,-0.83575744,2.80135172,2.85167755,21.54742776
2.65275319,-0.50891166,1.44084740

>  <Name>
ligand

>  <RI>
0

>  <Rbt.Current_Directory>
/home/itssahil/PROJECTS/Mol_Feturizer/New_Systems/rnas/4LVY

>  <Rbt.Executable>
rbdock ($Id: //depot/dev/client3/rdock/2013.1/src/exe/rbdock.cxx#4 $)

>  <Rbt.Library>
libRbt.so (2013.1, Build901 2013/11/27)

>  <Rbt.Parameter_File>
/export/apps/rDock/src/rDock_2013.1_src/data/scripts/dock_solv.prm

>  <Rbt.Receptor>
prm/pocket_docking_3.prm

>  <SCORE>
-17.3185

>  <SCORE.INTER>
-20.5154

>  <SCORE.INTER.CONST>
1

>  <SCORE.INTER.POLAR>
0

>  <SCORE.INTER.ROT>
4

>  <SCORE.INTER.SOLV>
13.5137

>  <SCORE.INTER.VDW>
-24.4482

>  <SCORE.INTER.norm>
-0.932519

>  <SCORE.INTRA>
3.19695

>  <SCORE.INTRA.DIHEDRAL>
5.36195

>  <SCORE.INTRA.DIHEDRAL.0>
6.18831

>  <SCORE.INTRA.POLAR>
0

>  <SCORE.INTRA.POLAR.0>
0

>  <SCORE.INTRA.REPUL>
0

>  <SCORE.INTRA.REPUL.0>
0

>  <SCORE.INTRA.SOLV>
-0.00277896

>  <SCORE.INTRA.SOLV.lig_0>
-44.3465

>  <SCORE.INTRA.VDW>
0.517368

>  <SCORE.INTRA.VDW.0>
-0.778272

>  <SCORE.INTRA.norm>
0.145316

>  <SCORE.RESTR>
0

>  <SCORE.RESTR.CAVITY>
0

>  <SCORE.RESTR.norm>
0

>  <SCORE.SYSTEM>
0

>  <SCORE.SYSTEM.CONST>
0

>  <SCORE.SYSTEM.DIHEDRAL>
0

>  <SCORE.SYSTEM.SOLV>
0

>  <SCORE.SYSTEM.norm>
0

>  <SCORE.heavy>
22

>  <SCORE.norm>
-0.787203

>  <RMSD>
8.565

$$$$
ligand
 OpenBabel11021811503D
libRbt.so/2013.1/901 2013/11/27
 22 24  0  0  0  0  0  0  0  0999 V2000
    0.5934    3.4564   21.6857 C   0  0  0  0  0  0  0  0  0  0  0  0
    1.3721    4.1504   22.6358 C   0  0  0  0  0  0  0  0  0  0  0  0
    0.7415    4.9591   23.5773 C   0  0  0  0  0  0  0  0  0  0  0  0
   -0.6597    5.0717   23.5656 C   0  0  0  0  0  0  0  0  0  0  0  0
   -1.4422    4.3829   22.6063 C   0  0  0  0  0  0  0  0  0  0  0  0
   -0.8115    3.5776   21.6679 C   0  0  0  0  0  0  0  0  0  0  0  0
    1.2770    2.5715   20.6257 C   0  0  0  0  0  0  0  0  0  0  0  0
    2.5722    1.8658   21.0992 C   0  0  0  0  0  0  0  0  0  0  0  0
    3.7094    1.9225   20.0857 C   0  0  0  0  0  0  0  0  0  0  0  0
    3.6281    2.5875   18.8584 C   0  0  0  0  0  0  0  0  0  0  0  0
    4.8270    2.4222   18.2409 N   0  0  0  0  0  0  0  0  0  0  0  0
    5.7088    1.6769   18.9979 C   0  0  0  0  0  0  0  0  0  0  0  0
    5.0467    1.3406   20.1735 C   0  0  0  0  0  0  0  0  0  0  0  0
    5.7774    0.5524   21.1416 C   0  0  0  0  0  0  0  0  0  0  0  0
    5.1797    0.1864   22.3444 O   0  0  0  0  0  0  0  0  0  0  0  0
    7.0791    0.1648   20.8528 N   0  0  0  0  0  0  0  0  0  0  0  0
    7.6929    0.5270   19.6889 C   0  0  0  0  0  0  0  0  0  0  0  0
    7.0448    1.2575   18.7680 N   0  0  0  0  0  0  0  0  0  0  0  0
    9.0750    0.1070   19.4363 N   0  0  0  0  0  0  0  0  0  0  0  0
   -1.3153    5.9573   24.5918 C   0  0  0  0  0  0  0  0  0  0  0  0
   -2.3003    5.5605   25.2118 O   0  0  0  0  0  0  0  0  0  0  0  0
   -0.7733    7.2695   24.8250 N   0  0  0  0  0  0  0  0  0  0  0  0
  1  2  2  0  0  0  0
  1  6  1  0  0  0  0
  1  7  1  0  0  0  0
  2  3  1  0  0  0  0
  3  4  2  0  0  0  0
  4  5  1  0  0  0  0
  4 20  1  0  0  0  0
  5  6  2  0  0  0  0
  7  8  1  0  0  0  0
  8  9  1  0  0  0  0
  9 10  2  0  0  0  0
  9 13  1  0  0  0  0
 10 11  1  0  0  0  0
 11 12  1  0  0  0  0
 12 13  2  0  0  0  0
 12 18  1  0  0  0  0
 13 14  1  0  0  0  0
 14 15  1  0  0  0  0
 14 16  2  0  0  0  0
 16 17  1  0  0  0  0
 17 18  2  0  0  0  0
 17 19  1  0  0  0  0
 20 21  2  0  0  0  0
 20 22  1  0  0  0  0
M  END
>  <CHROM.1>
33.43201199,-134.11764002,-136.00315749,2.28805637,2.94383179,2.77310521
21.41969314,2.66469068,-0.49100286,1.47712106

>  <Name>
ligand

>  <RI>
0

>  <Rbt.Current_Directory>
/home/itssahil/PROJECTS/Mol_Feturizer/New_Systems/rnas/4LVY

>  <Rbt.Executable>
rbdock ($Id: //depot/dev/client3/rdock/2013.1/src/exe/rbdock.cxx#4 $)

>  <Rbt.Library>
libRbt.so (2013.1, Build901 2013/11/27)

>  <Rbt.Parameter_File>
/export/apps/rDock/src/rDock_2013.1_src/data/scripts/dock_solv.prm

>  <Rbt.Receptor>
prm/pocket_docking_4.prm

>  <SCORE>
-16.4455

>  <SCORE.INTER>
-19.479

>  <SCORE.INTER.CONST>
1

>  <SCORE.INTER.POLAR>
0

>  <SCORE.INTER.ROT>
4

>  <SCORE.INTER.SOLV>
12.9112

>  <SCORE.INTER.VDW>
-23.5564

>  <SCORE.INTER.norm>
-0.885411

>  <SCORE.INTRA>
3.0335

>  <SCORE.INTRA.DIHEDRAL>
5.07081

>  <SCORE.INTRA.DIHEDRAL.0>
6.18831

>  <SCORE.INTRA.POLAR>
0

>  <SCORE.INTRA.POLAR.0>
0

>  <SCORE.INTRA.REPUL>
0

>  <SCORE.INTRA.REPUL.0>
0

>  <SCORE.INTRA.SOLV>
0.00151438

>  <SCORE.INTRA.SOLV.lig_0>
-44.3465

>  <SCORE.INTRA.VDW>
0.497335

>  <SCORE.INTRA.VDW.0>
-0.778272

>  <SCORE.INTRA.norm>
0.137886

>  <SCORE.RESTR>
0

>  <SCORE.RESTR.CAVITY>
0

>  <SCORE.RESTR.norm>
0

>  <SCORE.SYSTEM>
0

>  <SCORE.SYSTEM.CONST>
0

>  <SCORE.SYSTEM.DIHEDRAL>
0

>  <SCORE.SYSTEM.SOLV>
0

>  <SCORE.SYSTEM.norm>
0

>  <SCORE.heavy>
22

>  <SCORE.norm>
-0.747524

>  <RMSD>
8.572

$$$$
ligand
 OpenBabel11021811503D
libRbt.so/2013.1/901 2013/11/27
 22 24  0  0  0  0  0  0  0  0999 V2000
    0.5622    3.5087   21.4563 C   0  0  0  0  0  0  0  0  0  0  0  0
    1.3304    4.0661   22.5002 C   0  0  0  0  0  0  0  0  0  0  0  0
    0.7016    4.8330   23.4774 C   0  0  0  0  0  0  0  0  0  0  0  0
   -0.6871    5.0400   23.4077 C   0  0  0  0  0  0  0  0  0  0  0  0
   -1.4581    4.4887   22.3548 C   0  0  0  0  0  0  0  0  0  0  0  0
   -0.8293    3.7249   21.3810 C   0  0  0  0  0  0  0  0  0  0  0  0
    1.2454    2.6725   20.3572 C   0  0  0  0  0  0  0  0  0  0  0  0
    2.6194    2.0739   20.7494 C   0  0  0  0  0  0  0  0  0  0  0  0
    3.6648    2.1569   19.6432 C   0  0  0  0  0  0  0  0  0  0  0  0
    3.4088    2.6598   18.3640 C   0  0  0  0  0  0  0  0  0  0  0  0
    4.5731    2.5777   17.6683 N   0  0  0  0  0  0  0  0  0  0  0  0
    5.5984    2.0429   18.4226 C   0  0  0  0  0  0  0  0  0  0  0  0
    5.0715    1.7635   19.6787 C   0  0  0  0  0  0  0  0  0  0  0  0
    5.9680    1.1917   20.6593 C   0  0  0  0  0  0  0  0  0  0  0  0
    5.5108    0.8943   21.9402 O   0  0  0  0  0  0  0  0  0  0  0  0
    7.2869    0.9416   20.3043 N   0  0  0  0  0  0  0  0  0  0  0  0
    7.7632    1.2417   19.0611 C   0  0  0  0  0  0  0  0  0  0  0  0
    6.9595    1.7726   18.1263 N   0  0  0  0  0  0  0  0  0  0  0  0
    9.1685    0.9742   18.7384 N   0  0  0  0  0  0  0  0  0  0  0  0
   -1.3404    5.8778   24.4746 C   0  0  0  0  0  0  0  0  0  0  0  0
   -0.9041    6.9976   24.7346 O   0  0  0  0  0  0  0  0  0  0  0  0
   -2.4727    5.3420   25.1825 N   0  0  0  0  0  0  0  0  0  0  0  0
  1  2  2  0  0  0  0
  1  6  1  0  0  0  0
  1  7  1  0  0  0  0
  2  3  1  0  0  0  0
  3  4  2  0  0  0  0
  4  5  1  0  0  0  0
  4 20  1  0  0  0  0
  5  6  2  0  0  0  0
  7  8  1  0  0  0  0
  8  9  1  0  0  0  0
  9 10  2  0  0  0  0
  9 13  1  0  0  0  0
 10 11  1  0  0  0  0
 11 12  1  0  0  0  0
 12 13  2  0  0  0  0
 12 18  1  0  0  0  0
 13 14  1  0  0  0  0
 14 15  1  0  0  0  0
 14 16  2  0  0  0  0
 16 17  1  0  0  0  0
 17 18  2  0  0  0  0
 17 19  1  0  0  0  0
 20 21  2  0  0  0  0
 20 22  1  0  0  0  0
M  END
>  <CHROM.1>
21.68004149,52.23005010,-138.56969030,-3.13181105,2.94406109,3.02922772,21.05275092
2.57557925,-0.34991416,1.36527880

>  <Name>
ligand

>  <RI>
0

>  <Rbt.Current_Directory>
/home/itssahil/PROJECTS/Mol_Feturizer/New_Systems/rnas/4LVY

>  <Rbt.Executable>
rbdock ($Id: //depot/dev/client3/rdock/2013.1/src/exe/rbdock.cxx#4 $)

>  <Rbt.Library>
libRbt.so (2013.1, Build901 2013/11/27)

>  <Rbt.Parameter_File>
/export/apps/rDock/src/rDock_2013.1_src/data/scripts/dock_solv.prm

>  <Rbt.Receptor>
prm/pocket_docking_2.prm

>  <SCORE>
-15.4581

>  <SCORE.INTER>
-18.4716

>  <SCORE.INTER.CONST>
1

>  <SCORE.INTER.POLAR>
0

>  <SCORE.INTER.ROT>
4

>  <SCORE.INTER.SOLV>
12.3587

>  <SCORE.INTER.VDW>
-22.7006

>  <SCORE.INTER.norm>
-0.839616

>  <SCORE.INTRA>
3.01292

>  <SCORE.INTRA.DIHEDRAL>
4.73367

>  <SCORE.INTRA.DIHEDRAL.0>
6.18831

>  <SCORE.INTRA.POLAR>
0

>  <SCORE.INTRA.POLAR.0>
0

>  <SCORE.INTRA.REPUL>
0

>  <SCORE.INTRA.REPUL.0>
0

>  <SCORE.INTRA.SOLV>
-0.00349569

>  <SCORE.INTRA.SOLV.lig_0>
-44.3465

>  <SCORE.INTRA.VDW>
0.647831

>  <SCORE.INTRA.VDW.0>
-0.778272

>  <SCORE.INTRA.norm>
0.136951

>  <SCORE.RESTR>
0.000518797

>  <SCORE.RESTR.CAVITY>
0.000518797

>  <SCORE.RESTR.norm>
2.35817e-05

>  <SCORE.SYSTEM>
0

>  <SCORE.SYSTEM.CONST>
0

>  <SCORE.SYSTEM.DIHEDRAL>
0

>  <SCORE.SYSTEM.SOLV>
0

>  <SCORE.SYSTEM.norm>
0

>  <SCORE.heavy>
22

>  <SCORE.norm>
-0.702642

>  <RMSD>
8.578

$$$$
ligand
 OpenBabel11021811503D
libRbt.so/2013.1/901 2013/11/27
 22 24  0  0  0  0  0  0  0  0999 V2000
    0.5672    3.6980   21.4058 C   0  0  0  0  0  0  0  0  0  0  0  0
   -0.6858    3.2387   21.8637 C   0  0  0  0  0  0  0  0  0  0  0  0
   -1.3378    3.9310   22.8805 C   0  0  0  0  0  0  0  0  0  0  0  0
   -0.7371    5.0749   23.4346 C   0  0  0  0  0  0  0  0  0  0  0  0
    0.5253    5.5316   22.9824 C   0  0  0  0  0  0  0  0  0  0  0  0
    1.1742    4.8396   21.9689 C   0  0  0  0  0  0  0  0  0  0  0  0
    1.3102    2.9329   20.2937 C   0  0  0  0  0  0  0  0  0  0  0  0
    2.6495    2.2861   20.7269 C   0  0  0  0  0  0  0  0  0  0  0  0
    3.7007    2.2508   19.6237 C   0  0  0  0  0  0  0  0  0  0  0  0
    3.4828    2.7157   18.3232 C   0  0  0  0  0  0  0  0  0  0  0  0
    4.6403    2.5250   17.6377 N   0  0  0  0  0  0  0  0  0  0  0  0
    5.6248    1.9536   18.4189 C   0  0  0  0  0  0  0  0  0  0  0  0
    5.0771    1.7639   19.6829 C   0  0  0  0  0  0  0  0  0  0  0  0
    5.9300    1.1740   20.6913 C   0  0  0  0  0  0  0  0  0  0  0  0
    5.4505    0.9627   21.9810 O   0  0  0  0  0  0  0  0  0  0  0  0
    7.2295    0.8196   20.3539 N   0  0  0  0  0  0  0  0  0  0  0  0
    7.7282    1.0339   19.1017 C   0  0  0  0  0  0  0  0  0  0  0  0
    6.9649    1.5787   18.1413 N   0  0  0  0  0  0  0  0  0  0  0  0
    9.1126    0.6576   18.7978 N   0  0  0  0  0  0  0  0  0  0  0  0
   -1.4618    5.8013   24.5366 C   0  0  0  0  0  0  0  0  0  0  0  0
   -2.4404    5.2880   25.0759 O   0  0  0  0  0  0  0  0  0  0  0  0
   -0.9928    7.1011   24.9375 N   0  0  0  0  0  0  0  0  0  0  0  0
  1  2  2  0  0  0  0
  1  6  1  0  0  0  0
  1  7  1  0  0  0  0
  2  3  1  0  0  0  0
  3  4  2  0  0  0  0
  4  5  1  0  0  0  0
  4 20  1  0  0  0  0
  5  6  2  0  0  0  0
  7  8  1  0  0  0  0
  8  9  1  0  0  0  0
  9 10  2  0  0  0  0
  9 13  1  0  0  0  0
 10 11  1  0  0  0  0
 11 12  1  0  0  0  0
 12 13  2  0  0  0  0
 12 18  1  0  0  0  0
 13 14  1  0  0  0  0
 14 15  1  0  0  0  0
 14 16  2  0  0  0  0
 16 17  1  0  0  0  0
 17 18  2  0  0  0  0
 17 19  1  0  0  0  0
 20 21  2  0  0  0  0
 20 22  1  0  0  0  0
M  END
>  <CHROM.1>
-114.84493011,11.31495633,-147.05721019,-1.89821430,2.92291923,3.03045272
21.06386678,2.59671057,-0.39762791,1.42998386

>  <Name>
ligand

>  <RI>
0

>  <Rbt.Current_Directory>
/home/itssahil/PROJECTS/Mol_Feturizer/New_Systems/rnas/4LVY

>  <Rbt.Executable>
rbdock ($Id: //depot/dev/client3/rdock/2013.1/src/exe/rbdock.cxx#4 $)

>  <Rbt.Library>
libRbt.so (2013.1, Build901 2013/11/27)

>  <Rbt.Parameter_File>
/export/apps/rDock/src/rDock_2013.1_src/data/scripts/dock_solv.prm

>  <Rbt.Receptor>
prm/pocket_docking_2.prm

>  <SCORE>
-14.6204

>  <SCORE.INTER>
-16.8467

>  <SCORE.INTER.CONST>
1

>  <SCORE.INTER.POLAR>
0

>  <SCORE.INTER.ROT>
4

>  <SCORE.INTER.SOLV>
12.2625

>  <SCORE.INTER.VDW>
-21.5853

>  <SCORE.INTER.norm>
-0.76576

>  <SCORE.INTRA>
2.20412

>  <SCORE.INTRA.DIHEDRAL>
3.52244

>  <SCORE.INTRA.DIHEDRAL.0>
6.18831

>  <SCORE.INTRA.POLAR>
0

>  <SCORE.INTRA.POLAR.0>
0

>  <SCORE.INTRA.REPUL>
0

>  <SCORE.INTRA.REPUL.0>
0

>  <SCORE.INTRA.SOLV>
0.00652257

>  <SCORE.INTRA.SOLV.lig_0>
-44.3465

>  <SCORE.INTRA.VDW>
0.439636

>  <SCORE.INTRA.VDW.0>
-0.778272

>  <SCORE.INTRA.norm>
0.100187

>  <SCORE.RESTR>
0.0221488

>  <SCORE.RESTR.CAVITY>
0.0221488

>  <SCORE.RESTR.norm>
0.00100676

>  <SCORE.SYSTEM>
0

>  <SCORE.SYSTEM.CONST>
0

>  <SCORE.SYSTEM.DIHEDRAL>
0

>  <SCORE.SYSTEM.SOLV>
0

>  <SCORE.SYSTEM.norm>
0

>  <SCORE.heavy>
22

>  <SCORE.norm>
-0.664566

>  <RMSD>
8.592

$$$$
ligand
 OpenBabel11021811503D
libRbt.so/2013.1/901 2013/11/27
 22 24  0  0  0  0  0  0  0  0999 V2000
    0.5603    3.6297   21.5667 C   0  0  0  0  0  0  0  0  0  0  0  0
   -0.8474    3.6276   21.6606 C   0  0  0  0  0  0  0  0  0  0  0  0
   -1.4676    4.3819   22.6529 C   0  0  0  0  0  0  0  0  0  0  0  0
   -0.6816    5.1321   23.5450 C   0  0  0  0  0  0  0  0  0  0  0  0
    0.7323    5.1277   23.4578 C   0  0  0  0  0  0  0  0  0  0  0  0
    1.3489    4.3743   22.4681 C   0  0  0  0  0  0  0  0  0  0  0  0
    1.2629    2.7861   20.4855 C   0  0  0  0  0  0  0  0  0  0  0  0
    2.6570    2.2408   20.8845 C   0  0  0  0  0  0  0  0  0  0  0  0
    3.6669    2.2399   19.7428 C   0  0  0  0  0  0  0  0  0  0  0  0
    3.3981    2.7349   18.4631 C   0  0  0  0  0  0  0  0  0  0  0  0
    4.5306    2.5692   17.7309 N   0  0  0  0  0  0  0  0  0  0  0  0
    5.5468    1.9858   18.4610 C   0  0  0  0  0  0  0  0  0  0  0  0
    5.0474    1.7615   19.7392 C   0  0  0  0  0  0  0  0  0  0  0  0
    5.9407    1.1531   20.7006 C   0  0  0  0  0  0  0  0  0  0  0  0
    5.5105    0.9070   22.0015 O   0  0  0  0  0  0  0  0  0  0  0  0
    7.2289    0.8162   20.3069 N   0  0  0  0  0  0  0  0  0  0  0  0
    7.6796    1.0645   19.0429 C   0  0  0  0  0  0  0  0  0  0  0  0
    6.8780    1.6272   18.1250 N   0  0  0  0  0  0  0  0  0  0  0  0
    9.0541    0.7055   18.6790 N   0  0  0  0  0  0  0  0  0  0  0  0
   -1.3781    5.9346   24.6118 C   0  0  0  0  0  0  0  0  0  0  0  0
   -0.9487    7.0415   24.9317 O   0  0  0  0  0  0  0  0  0  0  0  0
   -2.5434    5.3805   25.2484 N   0  0  0  0  0  0  0  0  0  0  0  0
  1  2  2  0  0  0  0
  1  6  1  0  0  0  0
  1  7  1  0  0  0  0
  2  3  1  0  0  0  0
  3  4  2  0  0  0  0
  4  5  1  0  0  0  0
  4 20  1  0  0  0  0
  5  6  2  0  0  0  0
  7  8  1  0  0  0  0
  8  9  1  0  0  0  0
  9 10  2  0  0  0  0
  9 13  1  0  0  0  0
 10 11  1  0  0  0  0
 11 12  1  0  0  0  0
 12 13  2  0  0  0  0
 12 18  1  0  0  0  0
 13 14  1  0  0  0  0
 14 15  1  0  0  0  0
 14 16  2  0  0  0  0
 16 17  1  0  0  0  0
 17 18  2  0  0  0  0
 17 19  1  0  0  0  0
 20 21  2  0  0  0  0
 20 22  1  0  0  0  0
M  END
>  <CHROM.1>
-148.46344628,-142.30336883,-142.45613741,2.67192784,2.91757708,3.04436160
21.13522994,2.56900956,-0.37858593,1.38281527

>  <Name>
ligand

>  <RI>
0

>  <Rbt.Current_Directory>
/home/itssahil/PROJECTS/Mol_Feturizer/New_Systems/rnas/4LVY

>  <Rbt.Executable>
rbdock ($Id: //depot/dev/client3/rdock/2013.1/src/exe/rbdock.cxx#4 $)

>  <Rbt.Library>
libRbt.so (2013.1, Build901 2013/11/27)

>  <Rbt.Parameter_File>
/export/apps/rDock/src/rDock_2013.1_src/data/scripts/dock_solv.prm

>  <Rbt.Receptor>
prm/pocket_docking_2.prm

>  <SCORE>
-14.9018

>  <SCORE.INTER>
-17.775

>  <SCORE.INTER.CONST>
1

>  <SCORE.INTER.POLAR>
0

>  <SCORE.INTER.ROT>
4

>  <SCORE.INTER.SOLV>
12.4766

>  <SCORE.INTER.VDW>
-22.2755

>  <SCORE.INTER.norm>
-0.807954

>  <SCORE.INTRA>
2.86838

>  <SCORE.INTRA.DIHEDRAL>
4.35928

>  <SCORE.INTRA.DIHEDRAL.0>
6.18831

>  <SCORE.INTRA.POLAR>
0

>  <SCORE.INTRA.POLAR.0>
0

>  <SCORE.INTRA.REPUL>
0

>  <SCORE.INTRA.REPUL.0>
0

>  <SCORE.INTRA.SOLV>
0.00391675

>  <SCORE.INTRA.SOLV.lig_0>
-44.3465

>  <SCORE.INTRA.VDW>
0.686779

>  <SCORE.INTRA.VDW.0>
-0.778272

>  <SCORE.INTRA.norm>
0.130381

>  <SCORE.RESTR>
0.00479144

>  <SCORE.RESTR.CAVITY>
0.00479144

>  <SCORE.RESTR.norm>
0.000217793

>  <SCORE.SYSTEM>
0

>  <SCORE.SYSTEM.CONST>
0

>  <SCORE.SYSTEM.DIHEDRAL>
0

>  <SCORE.SYSTEM.SOLV>
0

>  <SCORE.SYSTEM.norm>
0

>  <SCORE.heavy>
22

>  <SCORE.norm>
-0.677356

>  <RMSD>
8.619

$$$$
ligand
 OpenBabel11021811503D
libRbt.so/2013.1/901 2013/11/27
 22 24  0  0  0  0  0  0  0  0999 V2000
    2.1216    2.3164   21.4135 C   0  0  0  0  0  0  0  0  0  0  0  0
    2.2808    3.1313   22.5542 C   0  0  0  0  0  0  0  0  0  0  0  0
    1.2227    3.9322   22.9753 C   0  0  0  0  0  0  0  0  0  0  0  0
    0.0143    3.9166   22.2572 C   0  0  0  0  0  0  0  0  0  0  0  0
   -0.1437    3.1060   21.1062 C   0  0  0  0  0  0  0  0  0  0  0  0
    0.9127    2.3086   20.6875 C   0  0  0  0  0  0  0  0  0  0  0  0
    3.2887    1.4376   20.9239 C   0  0  0  0  0  0  0  0  0  0  0  0
    4.6399    1.6863   21.6398 C   0  0  0  0  0  0  0  0  0  0  0  0
    5.8119    0.9341   21.0200 C   0  0  0  0  0  0  0  0  0  0  0  0
    6.4692   -0.1332   21.6395 C   0  0  0  0  0  0  0  0  0  0  0  0
    7.4443   -0.5434   20.7869 N   0  0  0  0  0  0  0  0  0  0  0  0
    7.4710    0.1998   19.6237 C   0  0  0  0  0  0  0  0  0  0  0  0
    6.4557    1.1444   19.7254 C   0  0  0  0  0  0  0  0  0  0  0  0
    6.2812    2.0500   18.6110 C   0  0  0  0  0  0  0  0  0  0  0  0
    5.2790    3.0157   18.6408 O   0  0  0  0  0  0  0  0  0  0  0  0
    7.1278    1.9441   17.5155 N   0  0  0  0  0  0  0  0  0  0  0  0
    8.1055    0.9937   17.4550 C   0  0  0  0  0  0  0  0  0  0  0  0
    8.2960    0.1374   18.4709 N   0  0  0  0  0  0  0  0  0  0  0  0
    8.9644    0.9108   16.2693 N   0  0  0  0  0  0  0  0  0  0  0  0
   -1.1117    4.7966   22.7316 C   0  0  0  0  0  0  0  0  0  0  0  0
   -1.6374    4.5923   23.8243 O   0  0  0  0  0  0  0  0  0  0  0  0
   -1.5604    5.8686   21.8833 N   0  0  0  0  0  0  0  0  0  0  0  0
  1  2  2  0  0  0  0
  1  6  1  0  0  0  0
  1  7  1  0  0  0  0
  2  3  1  0  0  0  0
  3  4  2  0  0  0  0
  4  5  1  0  0  0  0
  4 20  1  0  0  0  0
  5  6  2  0  0  0  0
  7  8  1  0  0  0  0
  8  9  1  0  0  0  0
  9 10  2  0  0  0  0
  9 13  1  0  0  0  0
 10 11  1  0  0  0  0
 11 12  1  0  0  0  0
 12 13  2  0  0  0  0
 12 18  1  0  0  0  0
 13 14  1  0  0  0  0
 14 15  1  0  0  0  0
 14 16  2  0  0  0  0
 16 17  1  0  0  0  0
 17 18  2  0  0  0  0
 17 19  1  0  0  0  0
 20 21  2  0  0  0  0
 20 22  1  0  0  0  0
M  END
>  <CHROM.1>
-8.36826225,-64.82776783,-172.68543888,-110.59658142,3.99920488,2.18956705
20.51029727,-2.96102298,0.54818397,-1.06044916

>  <Name>
ligand

>  <RI>
0

>  <Rbt.Current_Directory>
/home/itssahil/PROJECTS/Mol_Feturizer/New_Systems/rnas/4LVY

>  <Rbt.Executable>
rbdock ($Id: //depot/dev/client3/rdock/2013.1/src/exe/rbdock.cxx#4 $)

>  <Rbt.Library>
libRbt.so (2013.1, Build901 2013/11/27)

>  <Rbt.Parameter_File>
/export/apps/rDock/src/rDock_2013.1_src/data/scripts/dock_solv.prm

>  <Rbt.Receptor>
prm/pocket_docking_4.prm

>  <SCORE>
-12.9336

>  <SCORE.INTER>
-13.149

>  <SCORE.INTER.CONST>
1

>  <SCORE.INTER.POLAR>
0

>  <SCORE.INTER.ROT>
4

>  <SCORE.INTER.SOLV>
10.8419

>  <SCORE.INTER.VDW>
-18.6466

>  <SCORE.INTER.norm>
-0.597683

>  <SCORE.INTRA>
0.215396

>  <SCORE.INTRA.DIHEDRAL>
0.261824

>  <SCORE.INTRA.DIHEDRAL.0>
6.18831

>  <SCORE.INTRA.POLAR>
0

>  <SCORE.INTRA.POLAR.0>
0

>  <SCORE.INTRA.REPUL>
0

>  <SCORE.INTRA.REPUL.0>
0

>  <SCORE.INTRA.SOLV>
0.249392

>  <SCORE.INTRA.SOLV.lig_0>
-44.3465

>  <SCORE.INTRA.VDW>
-0.040212

>  <SCORE.INTRA.VDW.0>
-0.778272

>  <SCORE.INTRA.norm>
0.00979072

>  <SCORE.RESTR>
0

>  <SCORE.RESTR.CAVITY>
0

>  <SCORE.RESTR.norm>
0

>  <SCORE.SYSTEM>
0

>  <SCORE.SYSTEM.CONST>
0

>  <SCORE.SYSTEM.DIHEDRAL>
0

>  <SCORE.SYSTEM.SOLV>
0

>  <SCORE.SYSTEM.norm>
0

>  <SCORE.heavy>
22

>  <SCORE.norm>
-0.587892

>  <RMSD>
8.768

$$$$
ligand
 OpenBabel11021811503D
libRbt.so/2013.1/901 2013/11/27
 22 24  0  0  0  0  0  0  0  0999 V2000
    1.9016    2.4211   21.3160 C   0  0  0  0  0  0  0  0  0  0  0  0
    0.6785    2.3713   20.6145 C   0  0  0  0  0  0  0  0  0  0  0  0
   -0.4022    3.1212   21.0705 C   0  0  0  0  0  0  0  0  0  0  0  0
   -0.2576    3.9145   22.2220 C   0  0  0  0  0  0  0  0  0  0  0  0
    0.9671    3.9581   22.9327 C   0  0  0  0  0  0  0  0  0  0  0  0
    2.0433    3.2091   22.4769 C   0  0  0  0  0  0  0  0  0  0  0  0
    3.1019    1.5833   20.8348 C   0  0  0  0  0  0  0  0  0  0  0  0
    4.3662    1.6802   21.7247 C   0  0  0  0  0  0  0  0  0  0  0  0
    5.5581    0.8965   21.1874 C   0  0  0  0  0  0  0  0  0  0  0  0
    6.1436   -0.1856   21.8515 C   0  0  0  0  0  0  0  0  0  0  0  0
    7.1640   -0.6231   21.0682 N   0  0  0  0  0  0  0  0  0  0  0  0
    7.2895    0.1161   19.9089 C   0  0  0  0  0  0  0  0  0  0  0  0
    6.2944    1.0868   19.9398 C   0  0  0  0  0  0  0  0  0  0  0  0
    6.2201    1.9935   18.8152 C   0  0  0  0  0  0  0  0  0  0  0  0
    5.2434    2.9847   18.7754 O   0  0  0  0  0  0  0  0  0  0  0  0
    7.1368    1.8629   17.7805 N   0  0  0  0  0  0  0  0  0  0  0  0
    8.0914    0.8876   17.7881 C   0  0  0  0  0  0  0  0  0  0  0  0
    8.1897    0.0294   18.8154 N   0  0  0  0  0  0  0  0  0  0  0  0
    9.0271    0.7795   16.6641 N   0  0  0  0  0  0  0  0  0  0  0  0
   -1.4441    4.7113   22.6961 C   0  0  0  0  0  0  0  0  0  0  0  0
   -2.2373    5.1818   21.8828 O   0  0  0  0  0  0  0  0  0  0  0  0
   -1.6248    4.9144   24.1089 N   0  0  0  0  0  0  0  0  0  0  0  0
  1  2  2  0  0  0  0
  1  6  1  0  0  0  0
  1  7  1  0  0  0  0
  2  3  1  0  0  0  0
  3  4  2  0  0  0  0
  4  5  1  0  0  0  0
  4 20  1  0  0  0  0
  5  6  2  0  0  0  0
  7  8  1  0  0  0  0
  8  9  1  0  0  0  0
  9 10  2  0  0  0  0
  9 13  1  0  0  0  0
 10 11  1  0  0  0  0
 11 12  1  0  0  0  0
 12 13  2  0  0  0  0
 12 18  1  0  0  0  0
 13 14  1  0  0  0  0
 14 15  1  0  0  0  0
 14 16  2  0  0  0  0
 16 17  1  0  0  0  0
 17 18  2  0  0  0  0
 17 19  1  0  0  0  0
 20 21  2  0  0  0  0
 20 22  1  0  0  0  0
M  END
>  <CHROM.1>
-177.53301444,-33.92363789,-177.13670081,-116.69017036,3.80474171,2.15316235
20.62368693,-2.97304595,0.52025610,-1.10094858

>  <Name>
ligand

>  <RI>
0

>  <Rbt.Current_Directory>
/home/itssahil/PROJECTS/Mol_Feturizer/New_Systems/rnas/4LVY

>  <Rbt.Executable>
rbdock ($Id: //depot/dev/client3/rdock/2013.1/src/exe/rbdock.cxx#4 $)

>  <Rbt.Library>
libRbt.so (2013.1, Build901 2013/11/27)

>  <Rbt.Parameter_File>
/export/apps/rDock/src/rDock_2013.1_src/data/scripts/dock_solv.prm

>  <Rbt.Receptor>
prm/pocket_docking_4.prm

>  <SCORE>
-13.8746

>  <SCORE.INTER>
-14.3579

>  <SCORE.INTER.CONST>
1

>  <SCORE.INTER.POLAR>
0

>  <SCORE.INTER.ROT>
4

>  <SCORE.INTER.SOLV>
12.2738

>  <SCORE.INTER.VDW>
-19.9299

>  <SCORE.INTER.norm>
-0.652631

>  <SCORE.INTRA>
0.483321

>  <SCORE.INTRA.DIHEDRAL>
0.088293

>  <SCORE.INTRA.DIHEDRAL.0>
6.18831

>  <SCORE.INTRA.POLAR>
0

>  <SCORE.INTRA.POLAR.0>
0

>  <SCORE.INTRA.REPUL>
0

>  <SCORE.INTRA.REPUL.0>
0

>  <SCORE.INTRA.SOLV>
0.285525

>  <SCORE.INTRA.SOLV.lig_0>
-44.3465

>  <SCORE.INTRA.VDW>
0.296412

>  <SCORE.INTRA.VDW.0>
-0.778272

>  <SCORE.INTRA.norm>
0.0219691

>  <SCORE.RESTR>
0

>  <SCORE.RESTR.CAVITY>
0

>  <SCORE.RESTR.norm>
0

>  <SCORE.SYSTEM>
0

>  <SCORE.SYSTEM.CONST>
0

>  <SCORE.SYSTEM.DIHEDRAL>
0

>  <SCORE.SYSTEM.SOLV>
0

>  <SCORE.SYSTEM.norm>
0

>  <SCORE.heavy>
22

>  <SCORE.norm>
-0.630662

>  <RMSD>
8.775

$$$$
ligand
 OpenBabel11021811503D
libRbt.so/2013.1/901 2013/11/27
 22 24  0  0  0  0  0  0  0  0999 V2000
    1.9626    2.3699   21.4240 C   0  0  0  0  0  0  0  0  0  0  0  0
    2.0596    3.2112   22.5525 C   0  0  0  0  0  0  0  0  0  0  0  0
    0.9491    3.9498   22.9520 C   0  0  0  0  0  0  0  0  0  0  0  0
   -0.2494    3.8460   22.2247 C   0  0  0  0  0  0  0  0  0  0  0  0
   -0.3454    3.0090   21.0858 C   0  0  0  0  0  0  0  0  0  0  0  0
    0.7632    2.2739   20.6885 C   0  0  0  0  0  0  0  0  0  0  0  0
    3.1875    1.5596   20.9580 C   0  0  0  0  0  0  0  0  0  0  0  0
    4.4232    1.6487   21.8881 C   0  0  0  0  0  0  0  0  0  0  0  0
    5.5927    0.7785   21.4423 C   0  0  0  0  0  0  0  0  0  0  0  0
    6.1137   -0.2755   22.1989 C   0  0  0  0  0  0  0  0  0  0  0  0
    7.1329   -0.8116   21.4779 N   0  0  0  0  0  0  0  0  0  0  0  0
    7.3194   -0.1654   20.2722 C   0  0  0  0  0  0  0  0  0  0  0  0
    6.3672    0.8457   20.2052 C   0  0  0  0  0  0  0  0  0  0  0  0
    6.3605    1.6698   19.0164 C   0  0  0  0  0  0  0  0  0  0  0  0
    5.4294    2.6955   18.8778 O   0  0  0  0  0  0  0  0  0  0  0  0
    7.2959    1.4255   18.0198 N   0  0  0  0  0  0  0  0  0  0  0  0
    8.2065    0.4143   18.1244 C   0  0  0  0  0  0  0  0  0  0  0  0
    8.2417   -0.3696   19.2134 N   0  0  0  0  0  0  0  0  0  0  0  0
    9.1641    0.1849   17.0377 N   0  0  0  0  0  0  0  0  0  0  0  0
   -1.4332    4.6600   22.6757 C   0  0  0  0  0  0  0  0  0  0  0  0
   -2.2194    5.1181   21.8486 O   0  0  0  0  0  0  0  0  0  0  0  0
   -1.6197    4.8941   24.0830 N   0  0  0  0  0  0  0  0  0  0  0  0
  1  2  2  0  0  0  0
  1  6  1  0  0  0  0
  1  7  1  0  0  0  0
  2  3  1  0  0  0  0
  3  4  2  0  0  0  0
  4  5  1  0  0  0  0
  4 20  1  0  0  0  0
  5  6  2  0  0  0  0
  7  8  1  0  0  0  0
  8  9  1  0  0  0  0
  9 10  2  0  0  0  0
  9 13  1  0  0  0  0
 10 11  1  0  0  0  0
 11 12  1  0  0  0  0
 12 13  2  0  0  0  0
 12 18  1  0  0  0  0
 13 14  1  0  0  0  0
 14 15  1  0  0  0  0
 14 16  2  0  0  0  0
 16 17  1  0  0  0  0
 17 18  2  0  0  0  0
 17 19  1  0  0  0  0
 20 21  2  0  0  0  0
 20 22  1  0  0  0  0
M  END
>  <CHROM.1>
5.61609419,145.48237957,176.87456909,-117.75318540,3.86335043,1.97015735
20.79551547,-2.98543400,0.52158092,-1.16430938

>  <Name>
ligand

>  <RI>
0

>  <Rbt.Current_Directory>
/home/itssahil/PROJECTS/Mol_Feturizer/New_Systems/rnas/4LVY

>  <Rbt.Executable>
rbdock ($Id: //depot/dev/client3/rdock/2013.1/src/exe/rbdock.cxx#4 $)

>  <Rbt.Library>
libRbt.so (2013.1, Build901 2013/11/27)

>  <Rbt.Parameter_File>
/export/apps/rDock/src/rDock_2013.1_src/data/scripts/dock_solv.prm

>  <Rbt.Receptor>
prm/pocket_docking_3.prm

>  <SCORE>
-13.8133

>  <SCORE.INTER>
-14.1295

>  <SCORE.INTER.CONST>
1

>  <SCORE.INTER.POLAR>
0

>  <SCORE.INTER.ROT>
4

>  <SCORE.INTER.SOLV>
12.331

>  <SCORE.INTER.VDW>
-19.7967

>  <SCORE.INTER.norm>
-0.642249

>  <SCORE.INTRA>
0.316157

>  <SCORE.INTRA.DIHEDRAL>
0.0152649

>  <SCORE.INTRA.DIHEDRAL.0>
6.18831

>  <SCORE.INTRA.POLAR>
0

>  <SCORE.INTRA.POLAR.0>
0

>  <SCORE.INTRA.REPUL>
0

>  <SCORE.INTRA.REPUL.0>
0

>  <SCORE.INTRA.SOLV>
0.292195

>  <SCORE.INTRA.SOLV.lig_0>
-44.3465

>  <SCORE.INTRA.VDW>
0.162427

>  <SCORE.INTRA.VDW.0>
-0.778272

>  <SCORE.INTRA.norm>
0.0143708

>  <SCORE.RESTR>
0

>  <SCORE.RESTR.CAVITY>
0

>  <SCORE.RESTR.norm>
0

>  <SCORE.SYSTEM>
0

>  <SCORE.SYSTEM.CONST>
0

>  <SCORE.SYSTEM.DIHEDRAL>
0

>  <SCORE.SYSTEM.SOLV>
0

>  <SCORE.SYSTEM.norm>
0

>  <SCORE.heavy>
22

>  <SCORE.norm>
-0.627878

>  <RMSD>
8.818

$$$$
ligand
 OpenBabel11021811503D
libRbt.so/2013.1/901 2013/11/27
 22 24  0  0  0  0  0  0  0  0999 V2000
    1.8867    2.9970   20.3729 C   0  0  0  0  0  0  0  0  0  0  0  0
    2.0235    4.2854   20.9314 C   0  0  0  0  0  0  0  0  0  0  0  0
    0.9633    4.8372   21.6453 C   0  0  0  0  0  0  0  0  0  0  0  0
   -0.2256    4.1027   21.7973 C   0  0  0  0  0  0  0  0  0  0  0  0
   -0.3678    2.8128   21.2290 C   0  0  0  0  0  0  0  0  0  0  0  0
    0.6903    2.2646   20.5169 C   0  0  0  0  0  0  0  0  0  0  0  0
    3.0441    2.3793   19.5648 C   0  0  0  0  0  0  0  0  0  0  0  0
    4.3425    2.1257   20.3708 C   0  0  0  0  0  0  0  0  0  0  0  0
    5.5366    1.7366   19.5069 C   0  0  0  0  0  0  0  0  0  0  0  0
    5.8187    2.3084   18.2626 C   0  0  0  0  0  0  0  0  0  0  0  0
    6.9525    1.7160   17.8049 N   0  0  0  0  0  0  0  0  0  0  0  0
    7.4441    0.7731   18.6855 C   0  0  0  0  0  0  0  0  0  0  0  0
    6.5826    0.7528   19.7768 C   0  0  0  0  0  0  0  0  0  0  0  0
    6.8953   -0.1666   20.8488 C   0  0  0  0  0  0  0  0  0  0  0  0
    6.0811   -0.2344   21.9760 O   0  0  0  0  0  0  0  0  0  0  0  0
    8.0145   -0.9806   20.7359 N   0  0  0  0  0  0  0  0  0  0  0  0
    8.8381   -0.9192   19.6493 C   0  0  0  0  0  0  0  0  0  0  0  0
    8.5782   -0.0782   18.6360 N   0  0  0  0  0  0  0  0  0  0  0  0
   10.0178   -1.7878   19.5831 N   0  0  0  0  0  0  0  0  0  0  0  0
   -1.3582    4.7257   22.5696 C   0  0  0  0  0  0  0  0  0  0  0  0
   -2.3719    5.1021   21.9842 O   0  0  0  0  0  0  0  0  0  0  0  0
   -1.2274    4.8760   23.9945 N   0  0  0  0  0  0  0  0  0  0  0  0
  1  2  2  0  0  0  0
  1  6  1  0  0  0  0
  1  7  1  0  0  0  0
  2  3  1  0  0  0  0
  3  4  2  0  0  0  0
  4  5  1  0  0  0  0
  4 20  1  0  0  0  0
  5  6  2  0  0  0  0
  7  8  1  0  0  0  0
  8  9  1  0  0  0  0
  9 10  2  0  0  0  0
  9 13  1  0  0  0  0
 10 11  1  0  0  0  0
 11 12  1  0  0  0  0
 12 13  2  0  0  0  0
 12 18  1  0  0  0  0
 13 14  1  0  0  0  0
 14 15  1  0  0  0  0
 14 16  2  0  0  0  0
 16 17  1  0  0  0  0
 17 18  2  0  0  0  0
 17 19  1  0  0  0  0
 20 21  2  0  0  0  0
 20 22  1  0  0  0  0
M  END
>  <CHROM.1>
63.56904817,108.93943522,-170.32555092,39.47808075,4.02857806,1.95645248
20.49819054,-3.13951411,-0.53848723,2.07059863

>  <Name>
ligand

>  <RI>
0

>  <Rbt.Current_Directory>
/home/itssahil/PROJECTS/Mol_Feturizer/New_Systems/rnas/4LVY

>  <Rbt.Executable>
rbdock ($Id: //depot/dev/client3/rdock/2013.1/src/exe/rbdock.cxx#4 $)

>  <Rbt.Library>
libRbt.so (2013.1, Build901 2013/11/27)

>  <Rbt.Parameter_File>
/export/apps/rDock/src/rDock_2013.1_src/data/scripts/dock_solv.prm

>  <Rbt.Receptor>
prm/pocket_docking_5.prm

>  <SCORE>
-10.8845

>  <SCORE.INTER>
-10.9069

>  <SCORE.INTER.CONST>
1

>  <SCORE.INTER.POLAR>
0

>  <SCORE.INTER.ROT>
4

>  <SCORE.INTER.SOLV>
10.9682

>  <SCORE.INTER.VDW>
-17.194

>  <SCORE.INTER.norm>
-0.495767

>  <SCORE.INTRA>
0.0223417

>  <SCORE.INTRA.DIHEDRAL>
0.411659

>  <SCORE.INTRA.DIHEDRAL.0>
6.18831

>  <SCORE.INTRA.POLAR>
0

>  <SCORE.INTRA.POLAR.0>
0

>  <SCORE.INTRA.REPUL>
0

>  <SCORE.INTRA.REPUL.0>
0

>  <SCORE.INTRA.SOLV>
-0.00630191

>  <SCORE.INTRA.SOLV.lig_0>
-44.3465

>  <SCORE.INTRA.VDW>
-0.180337

>  <SCORE.INTRA.VDW.0>
-0.778272

>  <SCORE.INTRA.norm>
0.00101553

>  <SCORE.RESTR>
0

>  <SCORE.RESTR.CAVITY>
0

>  <SCORE.RESTR.norm>
0

>  <SCORE.SYSTEM>
0

>  <SCORE.SYSTEM.CONST>
0

>  <SCORE.SYSTEM.DIHEDRAL>
0

>  <SCORE.SYSTEM.SOLV>
0

>  <SCORE.SYSTEM.norm>
0

>  <SCORE.heavy>
22

>  <SCORE.norm>
-0.494751

>  <RMSD>
8.916

$$$$
ligand
 OpenBabel11021811503D
libRbt.so/2013.1/901 2013/11/27
 22 24  0  0  0  0  0  0  0  0999 V2000
    2.2418    2.2956   21.4516 C   0  0  0  0  0  0  0  0  0  0  0  0
    2.3233    3.1218   22.5923 C   0  0  0  0  0  0  0  0  0  0  0  0
    1.2115    3.8654   22.9788 C   0  0  0  0  0  0  0  0  0  0  0  0
    0.0271    3.7816   22.2263 C   0  0  0  0  0  0  0  0  0  0  0  0
   -0.0532    2.9597   21.0752 C   0  0  0  0  0  0  0  0  0  0  0  0
    1.0567    2.2196   20.6911 C   0  0  0  0  0  0  0  0  0  0  0  0
    3.4687    1.4800   21.0002 C   0  0  0  0  0  0  0  0  0  0  0  0
    4.6005    2.3098   20.3441 C   0  0  0  0  0  0  0  0  0  0  0  0
    5.8059    1.4787   19.9200 C   0  0  0  0  0  0  0  0  0  0  0  0
    6.3393    0.4336   20.6804 C   0  0  0  0  0  0  0  0  0  0  0  0
    7.3915   -0.0655   19.9804 N   0  0  0  0  0  0  0  0  0  0  0  0
    7.5881    0.5971   18.7852 C   0  0  0  0  0  0  0  0  0  0  0  0
    6.6082    1.5802   18.7032 C   0  0  0  0  0  0  0  0  0  0  0  0
    6.6062    2.4147   17.5216 C   0  0  0  0  0  0  0  0  0  0  0  0
    5.6486    3.4136   17.3688 O   0  0  0  0  0  0  0  0  0  0  0  0
    7.5726    2.2073   16.5465 N   0  0  0  0  0  0  0  0  0  0  0  0
    8.5100    1.2225   16.6650 C   0  0  0  0  0  0  0  0  0  0  0  0
    8.5418    0.4300   17.7479 N   0  0  0  0  0  0  0  0  0  0  0  0
    9.5005    1.0316   15.6005 N   0  0  0  0  0  0  0  0  0  0  0  0
   -1.1583    4.6006   22.6637 C   0  0  0  0  0  0  0  0  0  0  0  0
   -1.5904    4.4990   23.8104 O   0  0  0  0  0  0  0  0  0  0  0  0
   -1.7739    5.4924   21.7172 N   0  0  0  0  0  0  0  0  0  0  0  0
  1  2  2  0  0  0  0
  1  6  1  0  0  0  0
  1  7  1  0  0  0  0
  2  3  1  0  0  0  0
  3  4  2  0  0  0  0
  4  5  1  0  0  0  0
  4 20  1  0  0  0  0
  5  6  2  0  0  0  0
  7  8  1  0  0  0  0
  8  9  1  0  0  0  0
  9 10  2  0  0  0  0
  9 13  1  0  0  0  0
 10 11  1  0  0  0  0
 11 12  1  0  0  0  0
 12 13  2  0  0  0  0
 12 18  1  0  0  0  0
 13 14  1  0  0  0  0
 14 15  1  0  0  0  0
 14 16  2  0  0  0  0
 16 17  1  0  0  0  0
 17 18  2  0  0  0  0
 17 19  1  0  0  0  0
 20 21  2  0  0  0  0
 20 22  1  0  0  0  0
M  END
>  <CHROM.1>
-73.33804570,-54.91793949,179.44794001,-40.53123815,4.12739006,2.35597824
19.97022027,-2.87189758,0.54103945,-1.01712533

>  <Name>
ligand

>  <RI>
0

>  <Rbt.Current_Directory>
/home/itssahil/PROJECTS/Mol_Feturizer/New_Systems/rnas/4LVY

>  <Rbt.Executable>
rbdock ($Id: //depot/dev/client3/rdock/2013.1/src/exe/rbdock.cxx#4 $)

>  <Rbt.Library>
libRbt.so (2013.1, Build901 2013/11/27)

>  <Rbt.Parameter_File>
/export/apps/rDock/src/rDock_2013.1_src/data/scripts/dock_solv.prm

>  <Rbt.Receptor>
prm/pocket_docking_8.prm

>  <SCORE>
-13.689

>  <SCORE.INTER>
-13.5208

>  <SCORE.INTER.CONST>
1

>  <SCORE.INTER.POLAR>
0

>  <SCORE.INTER.ROT>
4

>  <SCORE.INTER.SOLV>
10.6735

>  <SCORE.INTER.VDW>
-18.8384

>  <SCORE.INTER.norm>
-0.614581

>  <SCORE.INTRA>
-0.168183

>  <SCORE.INTRA.DIHEDRAL>
0.00338051

>  <SCORE.INTRA.DIHEDRAL.0>
6.18831

>  <SCORE.INTRA.POLAR>
0

>  <SCORE.INTRA.POLAR.0>
0

>  <SCORE.INTRA.REPUL>
0

>  <SCORE.INTRA.REPUL.0>
0

>  <SCORE.INTRA.SOLV>
-0.00252472

>  <SCORE.INTRA.SOLV.lig_0>
-44.3465

>  <SCORE.INTRA.VDW>
-0.168611

>  <SCORE.INTRA.VDW.0>
-0.778272

>  <SCORE.INTRA.norm>
-0.00764468

>  <SCORE.RESTR>
0

>  <SCORE.RESTR.CAVITY>
0

>  <SCORE.RESTR.norm>
0

>  <SCORE.SYSTEM>
0

>  <SCORE.SYSTEM.CONST>
0

>  <SCORE.SYSTEM.DIHEDRAL>
0

>  <SCORE.SYSTEM.SOLV>
0

>  <SCORE.SYSTEM.norm>
0

>  <SCORE.heavy>
22

>  <SCORE.norm>
-0.622226

>  <RMSD>
9.000

$$$$
ligand
 OpenBabel11021811503D
libRbt.so/2013.1/901 2013/11/27
 22 24  0  0  0  0  0  0  0  0999 V2000
    2.1603    2.2762   21.4314 C   0  0  0  0  0  0  0  0  0  0  0  0
    2.2619    3.1275   22.5519 C   0  0  0  0  0  0  0  0  0  0  0  0
    1.1506    3.8633   22.9545 C   0  0  0  0  0  0  0  0  0  0  0  0
   -0.0533    3.7467   22.2381 C   0  0  0  0  0  0  0  0  0  0  0  0
   -0.1539    2.8996   21.1071 C   0  0  0  0  0  0  0  0  0  0  0  0
    0.9554    2.1673   20.7068 C   0  0  0  0  0  0  0  0  0  0  0  0
    3.3859    1.4688   20.9620 C   0  0  0  0  0  0  0  0  0  0  0  0
    4.5118    2.3089   20.3090 C   0  0  0  0  0  0  0  0  0  0  0  0
    5.7453    1.4968   19.9317 C   0  0  0  0  0  0  0  0  0  0  0  0
    6.2953    0.4942   20.7363 C   0  0  0  0  0  0  0  0  0  0  0  0
    7.3709   -0.0002   20.0693 N   0  0  0  0  0  0  0  0  0  0  0  0
    7.5674    0.6248   18.8540 C   0  0  0  0  0  0  0  0  0  0  0  0
    6.5626    1.5772   18.7233 C   0  0  0  0  0  0  0  0  0  0  0  0
    6.5557    2.3689   17.5128 C   0  0  0  0  0  0  0  0  0  0  0  0
    5.5740    3.3352   17.3110 O   0  0  0  0  0  0  0  0  0  0  0  0
    7.5418    2.1538   16.5592 N   0  0  0  0  0  0  0  0  0  0  0  0
    8.5035    1.2000   16.7259 C   0  0  0  0  0  0  0  0  0  0  0  0
    8.5405    0.4474   17.8367 N   0  0  0  0  0  0  0  0  0  0  0  0
    9.5144    0.9988   15.6827 N   0  0  0  0  0  0  0  0  0  0  0  0
   -1.2378    4.5579   22.6921 C   0  0  0  0  0  0  0  0  0  0  0  0
   -1.6143    4.5008   23.8614 O   0  0  0  0  0  0  0  0  0  0  0  0
   -1.9185    5.3892   21.7352 N   0  0  0  0  0  0  0  0  0  0  0  0
  1  2  2  0  0  0  0
  1  6  1  0  0  0  0
  1  7  1  0  0  0  0
  2  3  1  0  0  0  0
  3  4  2  0  0  0  0
  4  5  1  0  0  0  0
  4 20  1  0  0  0  0
  5  6  2  0  0  0  0
  7  8  1  0  0  0  0
  8  9  1  0  0  0  0
  9 10  2  0  0  0  0
  9 13  1  0  0  0  0
 10 11  1  0  0  0  0
 11 12  1  0  0  0  0
 12 13  2  0  0  0  0
 12 18  1  0  0  0  0
 13 14  1  0  0  0  0
 14 15  1  0  0  0  0
 14 16  2  0  0  0  0
 16 17  1  0  0  0  0
 17 18  2  0  0  0  0
 17 19  1  0  0  0  0
 20 21  2  0  0  0  0
 20 22  1  0  0  0  0
M  END
>  <CHROM.1>
-70.94022602,-53.02383205,176.49369044,-41.27248091,4.07119663,2.33871527
19.98935012,-2.85699444,0.52586438,-1.04994240

>  <Name>
ligand

>  <RI>
0

>  <Rbt.Current_Directory>
/home/itssahil/PROJECTS/Mol_Feturizer/New_Systems/rnas/4LVY

>  <Rbt.Executable>
rbdock ($Id: //depot/dev/client3/rdock/2013.1/src/exe/rbdock.cxx#4 $)

>  <Rbt.Library>
libRbt.so (2013.1, Build901 2013/11/27)

>  <Rbt.Parameter_File>
/export/apps/rDock/src/rDock_2013.1_src/data/scripts/dock_solv.prm

>  <Rbt.Receptor>
prm/pocket_docking_6.prm

>  <SCORE>
-13.7008

>  <SCORE.INTER>
-13.5709

>  <SCORE.INTER.CONST>
1

>  <SCORE.INTER.POLAR>
0

>  <SCORE.INTER.ROT>
4

>  <SCORE.INTER.SOLV>
11.219

>  <SCORE.INTER.VDW>
-19.0536

>  <SCORE.INTER.norm>
-0.616858

>  <SCORE.INTRA>
-0.129948

>  <SCORE.INTRA.DIHEDRAL>
0.0630717

>  <SCORE.INTRA.DIHEDRAL.0>
6.18831

>  <SCORE.INTRA.POLAR>
0

>  <SCORE.INTRA.POLAR.0>
0

>  <SCORE.INTRA.REPUL>
0

>  <SCORE.INTRA.REPUL.0>
0

>  <SCORE.INTRA.SOLV>
-0.00203802

>  <SCORE.INTRA.SOLV.lig_0>
-44.3465

>  <SCORE.INTRA.VDW>
-0.160465

>  <SCORE.INTRA.VDW.0>
-0.778272

>  <SCORE.INTRA.norm>
-0.00590672

>  <SCORE.RESTR>
0

>  <SCORE.RESTR.CAVITY>
0

>  <SCORE.RESTR.norm>
0

>  <SCORE.SYSTEM>
0

>  <SCORE.SYSTEM.CONST>
0

>  <SCORE.SYSTEM.DIHEDRAL>
0

>  <SCORE.SYSTEM.SOLV>
0

>  <SCORE.SYSTEM.norm>
0

>  <SCORE.heavy>
22

>  <SCORE.norm>
-0.622765

>  <RMSD>
9.006

$$$$
ligand
 OpenBabel11021811503D
libRbt.so/2013.1/901 2013/11/27
 22 24  0  0  0  0  0  0  0  0999 V2000
    2.1713    2.2630   21.4269 C   0  0  0  0  0  0  0  0  0  0  0  0
    0.9568    2.1760   20.7142 C   0  0  0  0  0  0  0  0  0  0  0  0
   -0.1318    2.9418   21.1225 C   0  0  0  0  0  0  0  0  0  0  0  0
   -0.0035    3.7880   22.2377 C   0  0  0  0  0  0  0  0  0  0  0  0
    1.2125    3.8692   22.9599 C   0  0  0  0  0  0  0  0  0  0  0  0
    2.2966    3.1042   22.5517 C   0  0  0  0  0  0  0  0  0  0  0  0
    3.3801    1.4086   20.9990 C   0  0  0  0  0  0  0  0  0  0  0  0
    4.5403    2.1986   20.3433 C   0  0  0  0  0  0  0  0  0  0  0  0
    5.7784    1.3545   20.0637 C   0  0  0  0  0  0  0  0  0  0  0  0
    6.2553    0.3604   20.9235 C   0  0  0  0  0  0  0  0  0  0  0  0
    7.3607   -0.1697   20.3378 N   0  0  0  0  0  0  0  0  0  0  0  0
    7.6470    0.4233   19.1243 C   0  0  0  0  0  0  0  0  0  0  0  0
    6.6724    1.3914   18.9087 C   0  0  0  0  0  0  0  0  0  0  0  0
    6.7589    2.1551   17.6833 C   0  0  0  0  0  0  0  0  0  0  0  0
    5.8122    3.1350   17.3980 O   0  0  0  0  0  0  0  0  0  0  0  0
    7.7991    1.8992   16.7998 N   0  0  0  0  0  0  0  0  0  0  0  0
    8.7285    0.9312   17.0486 C   0  0  0  0  0  0  0  0  0  0  0  0
    8.6792    0.2039   18.1756 N   0  0  0  0  0  0  0  0  0  0  0  0
    9.7994    0.6868   16.0771 N   0  0  0  0  0  0  0  0  0  0  0  0
   -1.1983    4.6010   22.6606 C   0  0  0  0  0  0  0  0  0  0  0  0
   -1.6095    4.5394   23.8178 O   0  0  0  0  0  0  0  0  0  0  0  0
   -1.8474    5.4395   21.6882 N   0  0  0  0  0  0  0  0  0  0  0  0
  1  2  2  0  0  0  0
  1  6  1  0  0  0  0
  1  7  1  0  0  0  0
  2  3  1  0  0  0  0
  3  4  2  0  0  0  0
  4  5  1  0  0  0  0
  4 20  1  0  0  0  0
  5  6  2  0  0  0  0
  7  8  1  0  0  0  0
  8  9  1  0  0  0  0
  9 10  2  0  0  0  0
  9 13  1  0  0  0  0
 10 11  1  0  0  0  0
 11 12  1  0  0  0  0
 12 13  2  0  0  0  0
 12 18  1  0  0  0  0
 13 14  1  0  0  0  0
 14 15  1  0  0  0  0
 14 16  2  0  0  0  0
 16 17  1  0  0  0  0
 17 18  2  0  0  0  0
 17 19  1  0  0  0  0
 20 21  2  0  0  0  0
 20 22  1  0  0  0  0
M  END
>  <CHROM.1>
108.64518694,125.99482001,173.94850201,-38.70692368,4.15706674,2.23215020
20.10664147,-2.90672467,0.52954411,-1.03186971

>  <Name>
ligand

>  <RI>
0

>  <Rbt.Current_Directory>
/home/itssahil/PROJECTS/Mol_Feturizer/New_Systems/rnas/4LVY

>  <Rbt.Executable>
rbdock ($Id: //depot/dev/client3/rdock/2013.1/src/exe/rbdock.cxx#4 $)

>  <Rbt.Library>
libRbt.so (2013.1, Build901 2013/11/27)

>  <Rbt.Parameter_File>
/export/apps/rDock/src/rDock_2013.1_src/data/scripts/dock_solv.prm

>  <Rbt.Receptor>
prm/pocket_docking_4.prm

>  <SCORE>
-13.4926

>  <SCORE.INTER>
-13.4507

>  <SCORE.INTER.CONST>
1

>  <SCORE.INTER.POLAR>
0

>  <SCORE.INTER.ROT>
4

>  <SCORE.INTER.SOLV>
10.8342

>  <SCORE.INTER.VDW>
-18.8452

>  <SCORE.INTER.norm>
-0.611396

>  <SCORE.INTRA>
-0.0418621

>  <SCORE.INTRA.DIHEDRAL>
0.23464

>  <SCORE.INTRA.DIHEDRAL.0>
6.18831

>  <SCORE.INTRA.POLAR>
0

>  <SCORE.INTRA.POLAR.0>
0

>  <SCORE.INTRA.REPUL>
0

>  <SCORE.INTRA.REPUL.0>
0

>  <SCORE.INTRA.SOLV>
-0.00167141

>  <SCORE.INTRA.SOLV.lig_0>
-44.3465

>  <SCORE.INTRA.VDW>
-0.158346

>  <SCORE.INTRA.VDW.0>
-0.778272

>  <SCORE.INTRA.norm>
-0.00190282

>  <SCORE.RESTR>
0

>  <SCORE.RESTR.CAVITY>
0

>  <SCORE.RESTR.norm>
0

>  <SCORE.SYSTEM>
0

>  <SCORE.SYSTEM.CONST>
0

>  <SCORE.SYSTEM.DIHEDRAL>
0

>  <SCORE.SYSTEM.SOLV>
0

>  <SCORE.SYSTEM.norm>
0

>  <SCORE.heavy>
22

>  <SCORE.norm>
-0.613299

>  <RMSD>
9.033

$$$$
ligand
 OpenBabel11021811503D
libRbt.so/2013.1/901 2013/11/27
 22 24  0  0  0  0  0  0  0  0999 V2000
    1.0246   -4.3306   16.1631 C   0  0  0  0  0  0  0  0  0  0  0  0
    0.1684   -5.3846   15.7802 C   0  0  0  0  0  0  0  0  0  0  0  0
   -0.5257   -5.2986   14.5764 C   0  0  0  0  0  0  0  0  0  0  0  0
   -0.3629   -4.1636   13.7630 C   0  0  0  0  0  0  0  0  0  0  0  0
    0.4892   -3.1004   14.1507 C   0  0  0  0  0  0  0  0  0  0  0  0
    1.1798   -3.1876   15.3518 C   0  0  0  0  0  0  0  0  0  0  0  0
    1.7861   -4.4020   17.5007 C   0  0  0  0  0  0  0  0  0  0  0  0
    0.9173   -4.7706   18.7292 C   0  0  0  0  0  0  0  0  0  0  0  0
   -0.4987   -4.2095   18.6718 C   0  0  0  0  0  0  0  0  0  0  0  0
   -0.8089   -2.8560   18.8358 C   0  0  0  0  0  0  0  0  0  0  0  0
   -2.1574   -2.7435   18.7145 N   0  0  0  0  0  0  0  0  0  0  0  0
   -2.7661   -3.9596   18.4765 C   0  0  0  0  0  0  0  0  0  0  0  0
   -1.7568   -4.9153   18.4393 C   0  0  0  0  0  0  0  0  0  0  0  0
   -2.1522   -6.2853   18.1965 C   0  0  0  0  0  0  0  0  0  0  0  0
   -1.1936   -7.2933   18.1379 O   0  0  0  0  0  0  0  0  0  0  0  0
   -3.4983   -6.5799   18.0264 N   0  0  0  0  0  0  0  0  0  0  0  0
   -4.4545   -5.6067   18.0610 C   0  0  0  0  0  0  0  0  0  0  0  0
   -4.1237   -4.3252   18.2845 N   0  0  0  0  0  0  0  0  0  0  0  0
   -5.8622   -5.9650   17.8595 N   0  0  0  0  0  0  0  0  0  0  0  0
   -1.1296   -4.0944   12.4690 C   0  0  0  0  0  0  0  0  0  0  0  0
   -2.2716   -4.5456   12.4024 O   0  0  0  0  0  0  0  0  0  0  0  0
   -0.5005   -3.5001   11.3197 N   0  0  0  0  0  0  0  0  0  0  0  0
  1  2  2  0  0  0  0
  1  6  1  0  0  0  0
  1  7  1  0  0  0  0
  2  3  1  0  0  0  0
  3  4  2  0  0  0  0
  4  5  1  0  0  0  0
  4 20  1  0  0  0  0
  5  6  2  0  0  0  0
  7  8  1  0  0  0  0
  8  9  1  0  0  0  0
  9 10  2  0  0  0  0
  9 13  1  0  0  0  0
 10 11  1  0  0  0  0
 11 12  1  0  0  0  0
 12 13  2  0  0  0  0
 12 18  1  0  0  0  0
 13 14  1  0  0  0  0
 14 15  1  0  0  0  0
 14 16  2  0  0  0  0
 16 17  1  0  0  0  0
 17 18  2  0  0  0  0
 17 19  1  0  0  0  0
 20 21  2  0  0  0  0
 20 22  1  0  0  0  0
M  END
>  <CHROM.1>
-49.03445369,36.50608857,-35.00589891,-71.72922381,-1.33762552,-4.65070022
16.53854060,-1.07201904,0.27725434,1.66364591

>  <Name>
ligand

>  <RI>
0

>  <Rbt.Current_Directory>
/home/itssahil/PROJECTS/Mol_Feturizer/New_Systems/rnas/4LVY

>  <Rbt.Executable>
rbdock ($Id: //depot/dev/client3/rdock/2013.1/src/exe/rbdock.cxx#4 $)

>  <Rbt.Library>
libRbt.so (2013.1, Build901 2013/11/27)

>  <Rbt.Parameter_File>
/export/apps/rDock/src/rDock_2013.1_src/data/scripts/dock_solv.prm

>  <Rbt.Receptor>
prm/blind_docking_20.prm

>  <SCORE>
-1.6044

>  <SCORE.INTER>
-3.77537

>  <SCORE.INTER.CONST>
1

>  <SCORE.INTER.POLAR>
0

>  <SCORE.INTER.ROT>
4

>  <SCORE.INTER.SOLV>
12.1828

>  <SCORE.INTER.VDW>
-12.8445

>  <SCORE.INTER.norm>
-0.171608

>  <SCORE.INTRA>
-0.1647

>  <SCORE.INTRA.DIHEDRAL>
2.28927

>  <SCORE.INTRA.DIHEDRAL.0>
6.18831

>  <SCORE.INTRA.POLAR>
0

>  <SCORE.INTRA.POLAR.0>
0

>  <SCORE.INTRA.REPUL>
0

>  <SCORE.INTRA.REPUL.0>
0

>  <SCORE.INTRA.SOLV>
0.192055

>  <SCORE.INTRA.SOLV.lig_0>
-44.3465

>  <SCORE.INTRA.VDW>
-1.40536

>  <SCORE.INTRA.VDW.0>
-0.778272

>  <SCORE.INTRA.norm>
-0.00748635

>  <SCORE.RESTR>
2.33566

>  <SCORE.RESTR.CAVITY>
2.33566

>  <SCORE.RESTR.norm>
0.106167

>  <SCORE.SYSTEM>
0

>  <SCORE.SYSTEM.CONST>
0

>  <SCORE.SYSTEM.DIHEDRAL>
0

>  <SCORE.SYSTEM.SOLV>
0

>  <SCORE.SYSTEM.norm>
0

>  <SCORE.heavy>
22

>  <SCORE.norm>
-0.0729274

>  <RMSD>
11.148

$$$$
ligand
 OpenBabel11021811503D
libRbt.so/2013.1/901 2013/11/27
 22 24  0  0  0  0  0  0  0  0999 V2000
    1.0946   -3.8206   15.4727 C   0  0  0  0  0  0  0  0  0  0  0  0
   -0.1371   -3.1913   15.7511 C   0  0  0  0  0  0  0  0  0  0  0  0
   -1.0953   -3.0896   14.7463 C   0  0  0  0  0  0  0  0  0  0  0  0
   -0.8200   -3.6142   13.4715 C   0  0  0  0  0  0  0  0  0  0  0  0
    0.4199   -4.2379   13.1880 C   0  0  0  0  0  0  0  0  0  0  0  0
    1.3745   -4.3378   14.1910 C   0  0  0  0  0  0  0  0  0  0  0  0
    2.1727   -3.9255   16.5686 C   0  0  0  0  0  0  0  0  0  0  0  0
    1.8018   -4.8354   17.7663 C   0  0  0  0  0  0  0  0  0  0  0  0
    0.4033   -4.5854   18.3186 C   0  0  0  0  0  0  0  0  0  0  0  0
    0.1472   -3.9275   19.5255 C   0  0  0  0  0  0  0  0  0  0  0  0
   -1.2027   -3.8915   19.6757 N   0  0  0  0  0  0  0  0  0  0  0  0
   -1.8638   -4.4951   18.6246 C   0  0  0  0  0  0  0  0  0  0  0  0
   -0.8894   -4.9470   17.7415 C   0  0  0  0  0  0  0  0  0  0  0  0
   -1.3432   -5.6196   16.5440 C   0  0  0  0  0  0  0  0  0  0  0  0
   -0.4231   -6.0908   15.6115 O   0  0  0  0  0  0  0  0  0  0  0  0
   -2.7060   -5.7905   16.3404 N   0  0  0  0  0  0  0  0  0  0  0  0
   -3.6277   -5.3210   17.2308 C   0  0  0  0  0  0  0  0  0  0  0  0
   -3.2424   -4.6927   18.3526 N   0  0  0  0  0  0  0  0  0  0  0  0
   -5.0570   -5.5115   16.9638 N   0  0  0  0  0  0  0  0  0  0  0  0
   -1.8721   -3.4857   12.4020 C   0  0  0  0  0  0  0  0  0  0  0  0
   -3.0570   -3.3740   12.7111 O   0  0  0  0  0  0  0  0  0  0  0  0
   -1.4656   -3.5030   11.0220 N   0  0  0  0  0  0  0  0  0  0  0  0
  1  2  2  0  0  0  0
  1  6  1  0  0  0  0
  1  7  1  0  0  0  0
  2  3  1  0  0  0  0
  3  4  2  0  0  0  0
  4  5  1  0  0  0  0
  4 20  1  0  0  0  0
  5  6  2  0  0  0  0
  7  8  1  0  0  0  0
  8  9  1  0  0  0  0
  9 10  2  0  0  0  0
  9 13  1  0  0  0  0
 10 11  1  0  0  0  0
 11 12  1  0  0  0  0
 12 13  2  0  0  0  0
 12 18  1  0  0  0  0
 13 14  1  0  0  0  0
 14 15  1  0  0  0  0
 14 16  2  0  0  0  0
 16 17  1  0  0  0  0
 17 18  2  0  0  0  0
 17 19  1  0  0  0  0
 20 21  2  0  0  0  0
 20 22  1  0  0  0  0
M  END
>  <CHROM.1>
66.63790918,-24.98006533,-46.98438119,-106.02471153,-1.01336610,-4.39717234
15.99082975,-1.57921619,0.14360776,1.73725624

>  <Name>
ligand

>  <RI>
0

>  <Rbt.Current_Directory>
/home/itssahil/PROJECTS/Mol_Feturizer/New_Systems/rnas/4LVY

>  <Rbt.Executable>
rbdock ($Id: //depot/dev/client3/rdock/2013.1/src/exe/rbdock.cxx#4 $)

>  <Rbt.Library>
libRbt.so (2013.1, Build901 2013/11/27)

>  <Rbt.Parameter_File>
/export/apps/rDock/src/rDock_2013.1_src/data/scripts/dock_solv.prm

>  <Rbt.Receptor>
prm/blind_docking_20.prm

>  <SCORE>
-3.97184

>  <SCORE.INTER>
-5.01607

>  <SCORE.INTER.CONST>
1

>  <SCORE.INTER.POLAR>
0

>  <SCORE.INTER.ROT>
4

>  <SCORE.INTER.SOLV>
9.63631

>  <SCORE.INTER.VDW>
-12.8228

>  <SCORE.INTER.norm>
-0.228003

>  <SCORE.INTRA>
-0.295226

>  <SCORE.INTRA.DIHEDRAL>
0.740403

>  <SCORE.INTRA.DIHEDRAL.0>
6.18831

>  <SCORE.INTRA.POLAR>
0

>  <SCORE.INTRA.POLAR.0>
0

>  <SCORE.INTRA.REPUL>
0

>  <SCORE.INTRA.REPUL.0>
0

>  <SCORE.INTRA.SOLV>
1.07821

>  <SCORE.INTRA.SOLV.lig_0>
-44.3465

>  <SCORE.INTRA.VDW>
-1.20453

>  <SCORE.INTRA.VDW.0>
-0.778272

>  <SCORE.INTRA.norm>
-0.0134193

>  <SCORE.RESTR>
1.33946

>  <SCORE.RESTR.CAVITY>
1.33946

>  <SCORE.RESTR.norm>
0.0608844

>  <SCORE.SYSTEM>
0

>  <SCORE.SYSTEM.CONST>
0

>  <SCORE.SYSTEM.DIHEDRAL>
0

>  <SCORE.SYSTEM.SOLV>
0

>  <SCORE.SYSTEM.norm>
0

>  <SCORE.heavy>
22

>  <SCORE.norm>
-0.180538

>  <RMSD>
11.345

$$$$
ligand
 OpenBabel11021811503D
libRbt.so/2013.1/901 2013/11/27
 22 24  0  0  0  0  0  0  0  0999 V2000
   -0.5829   -3.8729   17.3159 C   0  0  0  0  0  0  0  0  0  0  0  0
    0.3132   -3.3720   16.3481 C   0  0  0  0  0  0  0  0  0  0  0  0
    0.0184   -3.5301   14.9966 C   0  0  0  0  0  0  0  0  0  0  0  0
   -1.1660   -4.1864   14.6187 C   0  0  0  0  0  0  0  0  0  0  0  0
   -2.0619   -4.6982   15.5894 C   0  0  0  0  0  0  0  0  0  0  0  0
   -1.7658   -4.5402   16.9364 C   0  0  0  0  0  0  0  0  0  0  0  0
   -0.2626   -3.7220   18.8155 C   0  0  0  0  0  0  0  0  0  0  0  0
   -0.9126   -4.7870   19.7337 C   0  0  0  0  0  0  0  0  0  0  0  0
   -2.4338   -4.7063   19.7883 C   0  0  0  0  0  0  0  0  0  0  0  0
   -3.1790   -3.6533   19.2491 C   0  0  0  0  0  0  0  0  0  0  0  0
   -4.4869   -3.9351   19.4853 N   0  0  0  0  0  0  0  0  0  0  0  0
   -4.6532   -5.1291   20.1582 C   0  0  0  0  0  0  0  0  0  0  0  0
   -3.3827   -5.6531   20.3695 C   0  0  0  0  0  0  0  0  0  0  0  0
   -3.2969   -6.9198   21.0627 C   0  0  0  0  0  0  0  0  0  0  0  0
   -2.0577   -7.5075   21.3014 O   0  0  0  0  0  0  0  0  0  0  0  0
   -4.4654   -7.5376   21.4880 N   0  0  0  0  0  0  0  0  0  0  0  0
   -5.6927   -6.9905   21.2495 C   0  0  0  0  0  0  0  0  0  0  0  0
   -5.8097   -5.8163   20.6096 N   0  0  0  0  0  0  0  0  0  0  0  0
   -6.8993   -7.6890   21.7040 N   0  0  0  0  0  0  0  0  0  0  0  0
   -1.4574   -4.3482   13.1503 C   0  0  0  0  0  0  0  0  0  0  0  0
   -2.0982   -5.3186   12.7507 O   0  0  0  0  0  0  0  0  0  0  0  0
   -0.9683   -3.3550   12.2314 N   0  0  0  0  0  0  0  0  0  0  0  0
  1  2  2  0  0  0  0
  1  6  1  0  0  0  0
  1  7  1  0  0  0  0
  2  3  1  0  0  0  0
  3  4  2  0  0  0  0
  4  5  1  0  0  0  0
  4 20  1  0  0  0  0
  5  6  2  0  0  0  0
  7  8  1  0  0  0  0
  8  9  1  0  0  0  0
  9 10  2  0  0  0  0
  9 13  1  0  0  0  0
 10 11  1  0  0  0  0
 11 12  1  0  0  0  0
 12 13  2  0  0  0  0
 12 18  1  0  0  0  0
 13 14  1  0  0  0  0
 14 15  1  0  0  0  0
 14 16  2  0  0  0  0
 16 17  1  0  0  0  0
 17 18  2  0  0  0  0
 17 19  1  0  0  0  0
 20 21  2  0  0  0  0
 20 22  1  0  0  0  0
M  END
>  <CHROM.1>
-154.08023426,149.59121695,-65.96166580,-9.94552987,-2.62849887,-5.10535331
18.15317102,-1.05874792,0.42271490,1.69797941

>  <Name>
ligand

>  <RI>
0

>  <Rbt.Current_Directory>
/home/itssahil/PROJECTS/Mol_Feturizer/New_Systems/rnas/4LVY

>  <Rbt.Executable>
rbdock ($Id: //depot/dev/client3/rdock/2013.1/src/exe/rbdock.cxx#4 $)

>  <Rbt.Library>
libRbt.so (2013.1, Build901 2013/11/27)

>  <Rbt.Parameter_File>
/export/apps/rDock/src/rDock_2013.1_src/data/scripts/dock_solv.prm

>  <Rbt.Receptor>
prm/blind_docking_40.prm

>  <SCORE>
-12.1655

>  <SCORE.INTER>
-12.993

>  <SCORE.INTER.CONST>
1

>  <SCORE.INTER.POLAR>
0

>  <SCORE.INTER.ROT>
4

>  <SCORE.INTER.SOLV>
5.86858

>  <SCORE.INTER.VDW>
-16.8848

>  <SCORE.INTER.norm>
-0.590589

>  <SCORE.INTRA>
0.827443

>  <SCORE.INTRA.DIHEDRAL>
0.230906

>  <SCORE.INTRA.DIHEDRAL.0>
6.18831

>  <SCORE.INTRA.POLAR>
0

>  <SCORE.INTRA.POLAR.0>
0

>  <SCORE.INTRA.REPUL>
0

>  <SCORE.INTRA.REPUL.0>
0

>  <SCORE.INTRA.SOLV>
0.00550732

>  <SCORE.INTRA.SOLV.lig_0>
-44.3465

>  <SCORE.INTRA.VDW>
0.709237

>  <SCORE.INTRA.VDW.0>
-0.778272

>  <SCORE.INTRA.norm>
0.0376111

>  <SCORE.RESTR>
0

>  <SCORE.RESTR.CAVITY>
0

>  <SCORE.RESTR.norm>
0

>  <SCORE.SYSTEM>
0

>  <SCORE.SYSTEM.CONST>
0

>  <SCORE.SYSTEM.DIHEDRAL>
0

>  <SCORE.SYSTEM.SOLV>
0

>  <SCORE.SYSTEM.norm>
0

>  <SCORE.heavy>
22

>  <SCORE.norm>
-0.552978

>  <RMSD>
11.434

$$$$
ligand
 OpenBabel11021811503D
libRbt.so/2013.1/901 2013/11/27
 22 24  0  0  0  0  0  0  0  0999 V2000
    0.9580   -3.6420   15.0497 C   0  0  0  0  0  0  0  0  0  0  0  0
   -0.3437   -3.1951   15.3602 C   0  0  0  0  0  0  0  0  0  0  0  0
   -1.3314   -3.2325   14.3798 C   0  0  0  0  0  0  0  0  0  0  0  0
   -1.0158   -3.7138   13.0973 C   0  0  0  0  0  0  0  0  0  0  0  0
    0.2931   -4.1540   12.7814 C   0  0  0  0  0  0  0  0  0  0  0  0
    1.2769   -4.1153   13.7601 C   0  0  0  0  0  0  0  0  0  0  0  0
    2.0670   -3.5904   16.1182 C   0  0  0  0  0  0  0  0  0  0  0  0
    1.8438   -4.5187   17.3382 C   0  0  0  0  0  0  0  0  0  0  0  0
    0.4972   -4.3198   18.0242 C   0  0  0  0  0  0  0  0  0  0  0  0
    0.3284   -3.6217   19.2238 C   0  0  0  0  0  0  0  0  0  0  0  0
   -0.9987   -3.6521   19.5137 N   0  0  0  0  0  0  0  0  0  0  0  0
   -1.7278   -4.3385   18.5632 C   0  0  0  0  0  0  0  0  0  0  0  0
   -0.8245   -4.7771   17.6013 C   0  0  0  0  0  0  0  0  0  0  0  0
   -1.3587   -5.5277   16.4862 C   0  0  0  0  0  0  0  0  0  0  0  0
   -0.5133   -5.9909   15.4818 O   0  0  0  0  0  0  0  0  0  0  0  0
   -2.7228   -5.7815   16.4343 N   0  0  0  0  0  0  0  0  0  0  0  0
   -3.5741   -5.3222   17.3970 C   0  0  0  0  0  0  0  0  0  0  0  0
   -3.1130   -4.6228   18.4459 N   0  0  0  0  0  0  0  0  0  0  0  0
   -5.0096   -5.6019   17.2898 N   0  0  0  0  0  0  0  0  0  0  0  0
   -2.1018   -3.7383   12.0546 C   0  0  0  0  0  0  0  0  0  0  0  0
   -1.9487   -4.3813   11.0177 O   0  0  0  0  0  0  0  0  0  0  0  0
   -3.3099   -2.9939   12.2922 N   0  0  0  0  0  0  0  0  0  0  0  0
  1  2  2  0  0  0  0
  1  6  1  0  0  0  0
  1  7  1  0  0  0  0
  2  3  1  0  0  0  0
  3  4  2  0  0  0  0
  4  5  1  0  0  0  0
  4 20  1  0  0  0  0
  5  6  2  0  0  0  0
  7  8  1  0  0  0  0
  8  9  1  0  0  0  0
  9 10  2  0  0  0  0
  9 13  1  0  0  0  0
 10 11  1  0  0  0  0
 11 12  1  0  0  0  0
 12 13  2  0  0  0  0
 12 18  1  0  0  0  0
 13 14  1  0  0  0  0
 14 15  1  0  0  0  0
 14 16  2  0  0  0  0
 16 17  1  0  0  0  0
 17 18  2  0  0  0  0
 17 19  1  0  0  0  0
 20 21  2  0  0  0  0
 20 22  1  0  0  0  0
M  END
>  <CHROM.1>
65.29026426,-165.80886068,-53.80179763,-102.84506911,-1.06202958,-4.33898734
15.78133624,-1.59475532,0.19551695,1.68320296

>  <Name>
ligand

>  <RI>
0

>  <Rbt.Current_Directory>
/home/itssahil/PROJECTS/Mol_Feturizer/New_Systems/rnas/4LVY

>  <Rbt.Executable>
rbdock ($Id: //depot/dev/client3/rdock/2013.1/src/exe/rbdock.cxx#4 $)

>  <Rbt.Library>
libRbt.so (2013.1, Build901 2013/11/27)

>  <Rbt.Parameter_File>
/export/apps/rDock/src/rDock_2013.1_src/data/scripts/dock_solv.prm

>  <Rbt.Receptor>
prm/blind_docking_20.prm

>  <SCORE>
-3.87748

>  <SCORE.INTER>
-4.72973

>  <SCORE.INTER.CONST>
1

>  <SCORE.INTER.POLAR>
0

>  <SCORE.INTER.ROT>
4

>  <SCORE.INTER.SOLV>
9.54675

>  <SCORE.INTER.VDW>
-12.6021

>  <SCORE.INTER.norm>
-0.214988

>  <SCORE.INTRA>
-0.408244

>  <SCORE.INTRA.DIHEDRAL>
0.201058

>  <SCORE.INTRA.DIHEDRAL.0>
6.18831

>  <SCORE.INTRA.POLAR>
0

>  <SCORE.INTRA.POLAR.0>
0

>  <SCORE.INTRA.REPUL>
0

>  <SCORE.INTRA.REPUL.0>
0

>  <SCORE.INTRA.SOLV>
1.02169

>  <SCORE.INTRA.SOLV.lig_0>
-44.3465

>  <SCORE.INTRA.VDW>
-1.01962

>  <SCORE.INTRA.VDW.0>
-0.778272

>  <SCORE.INTRA.norm>
-0.0185565

>  <SCORE.RESTR>
1.26049

>  <SCORE.RESTR.CAVITY>
1.26049

>  <SCORE.RESTR.norm>
0.0572952

>  <SCORE.SYSTEM>
0

>  <SCORE.SYSTEM.CONST>
0

>  <SCORE.SYSTEM.DIHEDRAL>
0

>  <SCORE.SYSTEM.SOLV>
0

>  <SCORE.SYSTEM.norm>
0

>  <SCORE.heavy>
22

>  <SCORE.norm>
-0.176249

>  <RMSD>
11.439

$$$$
ligand
 OpenBabel11021811503D
libRbt.so/2013.1/901 2013/11/27
 22 24  0  0  0  0  0  0  0  0999 V2000
   -0.0421   -5.0577   18.4459 C   0  0  0  0  0  0  0  0  0  0  0  0
   -0.8179   -4.1267   19.1684 C   0  0  0  0  0  0  0  0  0  0  0  0
   -2.1820   -4.0258   18.9087 C   0  0  0  0  0  0  0  0  0  0  0  0
   -2.7635   -4.8520   17.9312 C   0  0  0  0  0  0  0  0  0  0  0  0
   -1.9840   -5.7805   17.1984 C   0  0  0  0  0  0  0  0  0  0  0  0
   -0.6239   -5.8791   17.4582 C   0  0  0  0  0  0  0  0  0  0  0  0
    1.4721   -5.1692   18.7085 C   0  0  0  0  0  0  0  0  0  0  0  0
    2.3711   -4.4620   17.6637 C   0  0  0  0  0  0  0  0  0  0  0  0
    1.9972   -4.7734   16.2192 C   0  0  0  0  0  0  0  0  0  0  0  0
    2.7566   -5.5896   15.3754 C   0  0  0  0  0  0  0  0  0  0  0  0
    2.1082   -5.6339   14.1822 N   0  0  0  0  0  0  0  0  0  0  0  0
    0.9485   -4.8848   14.1871 C   0  0  0  0  0  0  0  0  0  0  0  0
    0.8362   -4.3239   15.4545 C   0  0  0  0  0  0  0  0  0  0  0  0
   -0.3169   -3.4881   15.7077 C   0  0  0  0  0  0  0  0  0  0  0  0
   -0.4981   -2.9007   16.9568 O   0  0  0  0  0  0  0  0  0  0  0  0
   -1.2362   -3.2784   14.6885 N   0  0  0  0  0  0  0  0  0  0  0  0
   -1.0902   -3.8582   13.4617 C   0  0  0  0  0  0  0  0  0  0  0  0
   -0.0323   -4.6391   13.1916 N   0  0  0  0  0  0  0  0  0  0  0  0
   -2.0966   -3.6199   12.4220 N   0  0  0  0  0  0  0  0  0  0  0  0
   -4.2399   -4.7182   17.6670 C   0  0  0  0  0  0  0  0  0  0  0  0
   -5.0531   -5.0076   18.5428 O   0  0  0  0  0  0  0  0  0  0  0  0
   -4.6755   -4.2548   16.3765 N   0  0  0  0  0  0  0  0  0  0  0  0
  1  2  2  0  0  0  0
  1  6  1  0  0  0  0
  1  7  1  0  0  0  0
  2  3  1  0  0  0  0
  3  4  2  0  0  0  0
  4  5  1  0  0  0  0
  4 20  1  0  0  0  0
  5  6  2  0  0  0  0
  7  8  1  0  0  0  0
  8  9  1  0  0  0  0
  9 10  2  0  0  0  0
  9 13  1  0  0  0  0
 10 11  1  0  0  0  0
 11 12  1  0  0  0  0
 12 13  2  0  0  0  0
 12 18  1  0  0  0  0
 13 14  1  0  0  0  0
 14 15  1  0  0  0  0
 14 16  2  0  0  0  0
 16 17  1  0  0  0  0
 17 18  2  0  0  0  0
 17 19  1  0  0  0  0
 20 21  2  0  0  0  0
 20 22  1  0  0  0  0
M  END
>  <CHROM.1>
-101.14746591,-64.92856969,-47.69946174,-107.67355059,-0.72791116,-4.53729431
16.34801430,-2.60793774,0.10680170,-1.43904269

>  <Name>
ligand

>  <RI>
0

>  <Rbt.Current_Directory>
/home/itssahil/PROJECTS/Mol_Feturizer/New_Systems/rnas/4LVY

>  <Rbt.Executable>
rbdock ($Id: //depot/dev/client3/rdock/2013.1/src/exe/rbdock.cxx#4 $)

>  <Rbt.Library>
libRbt.so (2013.1, Build901 2013/11/27)

>  <Rbt.Parameter_File>
/export/apps/rDock/src/rDock_2013.1_src/data/scripts/dock_solv.prm

>  <Rbt.Receptor>
prm/blind_docking_20.prm

>  <SCORE>
-2.66598

>  <SCORE.INTER>
-3.3741

>  <SCORE.INTER.CONST>
1

>  <SCORE.INTER.POLAR>
0

>  <SCORE.INTER.ROT>
4

>  <SCORE.INTER.SOLV>
11.6274

>  <SCORE.INTER.VDW>
-12.3919

>  <SCORE.INTER.norm>
-0.153368

>  <SCORE.INTRA>
-0.285953

>  <SCORE.INTRA.DIHEDRAL>
0.552824

>  <SCORE.INTRA.DIHEDRAL.0>
6.18831

>  <SCORE.INTRA.POLAR>
0

>  <SCORE.INTRA.POLAR.0>
0

>  <SCORE.INTRA.REPUL>
0

>  <SCORE.INTRA.REPUL.0>
0

>  <SCORE.INTRA.SOLV>
1.23168

>  <SCORE.INTRA.SOLV.lig_0>
-44.3465

>  <SCORE.INTRA.VDW>
-1.17821

>  <SCORE.INTRA.VDW.0>
-0.778272

>  <SCORE.INTRA.norm>
-0.0129979

>  <SCORE.RESTR>
0.994072

>  <SCORE.RESTR.CAVITY>
0.994072

>  <SCORE.RESTR.norm>
0.0451851

>  <SCORE.SYSTEM>
0

>  <SCORE.SYSTEM.CONST>
0

>  <SCORE.SYSTEM.DIHEDRAL>
0

>  <SCORE.SYSTEM.SOLV>
0

>  <SCORE.SYSTEM.norm>
0

>  <SCORE.heavy>
22

>  <SCORE.norm>
-0.121181

>  <RMSD>
12.090

$$$$
ligand
 OpenBabel11021811503D
libRbt.so/2013.1/901 2013/11/27
 22 24  0  0  0  0  0  0  0  0999 V2000
   -5.3027   -4.2699   26.9802 C   0  0  0  0  0  0  0  0  0  0  0  0
   -4.4084   -5.2576   26.5162 C   0  0  0  0  0  0  0  0  0  0  0  0
   -4.6970   -5.9423   25.3388 C   0  0  0  0  0  0  0  0  0  0  0  0
   -5.8740   -5.6392   24.6325 C   0  0  0  0  0  0  0  0  0  0  0  0
   -6.7775   -4.6544   25.1023 C   0  0  0  0  0  0  0  0  0  0  0  0
   -6.4884   -3.9732   26.2769 C   0  0  0  0  0  0  0  0  0  0  0  0
   -5.0070   -3.5156   28.2909 C   0  0  0  0  0  0  0  0  0  0  0  0
   -4.0153   -2.3331   28.1558 C   0  0  0  0  0  0  0  0  0  0  0  0
   -4.6109   -1.1054   27.4765 C   0  0  0  0  0  0  0  0  0  0  0  0
   -4.7359   -0.9640   26.0911 C   0  0  0  0  0  0  0  0  0  0  0  0
   -5.3106    0.2470   25.8691 N   0  0  0  0  0  0  0  0  0  0  0  0
   -5.5770    0.9243   27.0423 C   0  0  0  0  0  0  0  0  0  0  0  0
   -5.1534    0.1073   28.0847 C   0  0  0  0  0  0  0  0  0  0  0  0
   -5.3336    0.6058   29.4305 C   0  0  0  0  0  0  0  0  0  0  0  0
   -4.9401   -0.1625   30.5228 O   0  0  0  0  0  0  0  0  0  0  0  0
   -5.9003    1.8597   29.6163 N   0  0  0  0  0  0  0  0  0  0  0  0
   -6.3109    2.6234   28.5624 C   0  0  0  0  0  0  0  0  0  0  0  0
   -6.1587    2.1926   27.3003 N   0  0  0  0  0  0  0  0  0  0  0  0
   -6.9191    3.9346   28.8099 N   0  0  0  0  0  0  0  0  0  0  0  0
   -6.1640   -6.3987   23.3651 C   0  0  0  0  0  0  0  0  0  0  0  0
   -5.4329   -6.2677   22.3852 O   0  0  0  0  0  0  0  0  0  0  0  0
   -7.3091   -7.2688   23.3231 N   0  0  0  0  0  0  0  0  0  0  0  0
  1  2  2  0  0  0  0
  1  6  1  0  0  0  0
  1  7  1  0  0  0  0
  2  3  1  0  0  0  0
  3  4  2  0  0  0  0
  4  5  1  0  0  0  0
  4 20  1  0  0  0  0
  5  6  2  0  0  0  0
  7  8  1  0  0  0  0
  8  9  1  0  0  0  0
  9 10  2  0  0  0  0
  9 13  1  0  0  0  0
 10 11  1  0  0  0  0
 11 12  1  0  0  0  0
 12 13  2  0  0  0  0
 12 18  1  0  0  0  0
 13 14  1  0  0  0  0
 14 15  1  0  0  0  0
 14 16  2  0  0  0  0
 16 17  1  0  0  0  0
 17 18  2  0  0  0  0
 17 19  1  0  0  0  0
 20 21  2  0  0  0  0
 20 22  1  0  0  0  0
M  END
>  <CHROM.1>
81.82665769,-65.66904637,73.88497385,-81.00128547,-5.56577268,-2.02321035
26.79888623,-1.59756407,-1.14665801,0.49822790

>  <Name>
ligand

>  <RI>
0

>  <Rbt.Current_Directory>
/home/itssahil/PROJECTS/Mol_Feturizer/New_Systems/rnas/4LVY

>  <Rbt.Executable>
rbdock ($Id: //depot/dev/client3/rdock/2013.1/src/exe/rbdock.cxx#4 $)

>  <Rbt.Library>
libRbt.so (2013.1, Build901 2013/11/27)

>  <Rbt.Parameter_File>
/export/apps/rDock/src/rDock_2013.1_src/data/scripts/dock_solv.prm

>  <Rbt.Receptor>
prm/blind_docking_40.prm

>  <SCORE>
-13.7715

>  <SCORE.INTER>
-13.1104

>  <SCORE.INTER.CONST>
1

>  <SCORE.INTER.POLAR>
0

>  <SCORE.INTER.ROT>
4

>  <SCORE.INTER.SOLV>
5.76433

>  <SCORE.INTER.VDW>
-16.9284

>  <SCORE.INTER.norm>
-0.595926

>  <SCORE.INTRA>
-0.661116

>  <SCORE.INTRA.DIHEDRAL>
0.835214

>  <SCORE.INTRA.DIHEDRAL.0>
6.18831

>  <SCORE.INTRA.POLAR>
0

>  <SCORE.INTRA.POLAR.0>
0

>  <SCORE.INTRA.REPUL>
0

>  <SCORE.INTRA.REPUL.0>
0

>  <SCORE.INTRA.SOLV>
0.118918

>  <SCORE.INTRA.SOLV.lig_0>
-44.3465

>  <SCORE.INTRA.VDW>
-1.13818

>  <SCORE.INTRA.VDW.0>
-0.778272

>  <SCORE.INTRA.norm>
-0.0300507

>  <SCORE.RESTR>
0

>  <SCORE.RESTR.CAVITY>
0

>  <SCORE.RESTR.norm>
0

>  <SCORE.SYSTEM>
0

>  <SCORE.SYSTEM.CONST>
0

>  <SCORE.SYSTEM.DIHEDRAL>
0

>  <SCORE.SYSTEM.SOLV>
0

>  <SCORE.SYSTEM.norm>
0

>  <SCORE.heavy>
22

>  <SCORE.norm>
-0.625976

>  <RMSD>
12.284

$$$$
ligand
 OpenBabel11021811503D
libRbt.so/2013.1/901 2013/11/27
 22 24  0  0  0  0  0  0  0  0999 V2000
   -3.2125   -4.3764   18.9624 C   0  0  0  0  0  0  0  0  0  0  0  0
   -2.2836   -3.4351   19.4541 C   0  0  0  0  0  0  0  0  0  0  0  0
   -1.0561   -3.2874   18.8139 C   0  0  0  0  0  0  0  0  0  0  0  0
   -0.7621   -4.0785   17.6896 C   0  0  0  0  0  0  0  0  0  0  0  0
   -1.6901   -5.0306   17.2007 C   0  0  0  0  0  0  0  0  0  0  0  0
   -2.9132   -5.1769   17.8407 C   0  0  0  0  0  0  0  0  0  0  0  0
   -4.5682   -4.5648   19.6701 C   0  0  0  0  0  0  0  0  0  0  0  0
   -4.6465   -5.7866   20.6193 C   0  0  0  0  0  0  0  0  0  0  0  0
   -5.8157   -5.7329   21.5958 C   0  0  0  0  0  0  0  0  0  0  0  0
   -5.7107   -5.2798   22.9144 C   0  0  0  0  0  0  0  0  0  0  0  0
   -6.9499   -5.3747   23.4633 N   0  0  0  0  0  0  0  0  0  0  0  0
   -7.8814   -5.8708   22.5732 C   0  0  0  0  0  0  0  0  0  0  0  0
   -7.2106   -6.1098   21.3789 C   0  0  0  0  0  0  0  0  0  0  0  0
   -7.9875   -6.6359   20.2780 C   0  0  0  0  0  0  0  0  0  0  0  0
   -7.3829   -6.8912   19.0503 O   0  0  0  0  0  0  0  0  0  0  0  0
   -9.3408   -6.8847   20.4643 N   0  0  0  0  0  0  0  0  0  0  0  0
   -9.9598   -6.6251   21.6526 C   0  0  0  0  0  0  0  0  0  0  0  0
   -9.2698   -6.1372   22.6954 N   0  0  0  0  0  0  0  0  0  0  0  0
  -11.3952   -6.8892   21.7958 N   0  0  0  0  0  0  0  0  0  0  0  0
    0.5749   -3.9019   17.0199 C   0  0  0  0  0  0  0  0  0  0  0  0
    1.6121   -4.1186   17.6439 O   0  0  0  0  0  0  0  0  0  0  0  0
    0.6130   -3.4712   15.6477 N   0  0  0  0  0  0  0  0  0  0  0  0
  1  2  2  0  0  0  0
  1  6  1  0  0  0  0
  1  7  1  0  0  0  0
  2  3  1  0  0  0  0
  3  4  2  0  0  0  0
  4  5  1  0  0  0  0
  4 20  1  0  0  0  0
  5  6  2  0  0  0  0
  7  8  1  0  0  0  0
  8  9  1  0  0  0  0
  9 10  2  0  0  0  0
  9 13  1  0  0  0  0
 10 11  1  0  0  0  0
 11 12  1  0  0  0  0
 12 13  2  0  0  0  0
 12 18  1  0  0  0  0
 13 14  1  0  0  0  0
 14 15  1  0  0  0  0
 14 16  2  0  0  0  0
 16 17  1  0  0  0  0
 17 18  2  0  0  0  0
 17 19  1  0  0  0  0
 20 21  2  0  0  0  0
 20 22  1  0  0  0  0
M  END
>  <CHROM.1>
-99.86789028,60.96081009,163.29498262,-97.05267321,-4.89866372,-5.28021464
19.91820414,-0.38038559,0.36127401,1.35736273

>  <Name>
ligand

>  <RI>
0

>  <Rbt.Current_Directory>
/home/itssahil/PROJECTS/Mol_Feturizer/New_Systems/rnas/4LVY

>  <Rbt.Executable>
rbdock ($Id: //depot/dev/client3/rdock/2013.1/src/exe/rbdock.cxx#4 $)

>  <Rbt.Library>
libRbt.so (2013.1, Build901 2013/11/27)

>  <Rbt.Parameter_File>
/export/apps/rDock/src/rDock_2013.1_src/data/scripts/dock_solv.prm

>  <Rbt.Receptor>
prm/blind_docking_40.prm

>  <SCORE>
-13.4252

>  <SCORE.INTER>
-13.4312

>  <SCORE.INTER.CONST>
1

>  <SCORE.INTER.POLAR>
0

>  <SCORE.INTER.ROT>
4

>  <SCORE.INTER.SOLV>
14.0848

>  <SCORE.INTER.VDW>
-19.9157

>  <SCORE.INTER.norm>
-0.610509

>  <SCORE.INTRA>
0.00602785

>  <SCORE.INTRA.DIHEDRAL>
1.03463

>  <SCORE.INTRA.DIHEDRAL.0>
6.18831

>  <SCORE.INTRA.POLAR>
0

>  <SCORE.INTRA.POLAR.0>
0

>  <SCORE.INTRA.REPUL>
0

>  <SCORE.INTRA.REPUL.0>
0

>  <SCORE.INTRA.SOLV>
0.1866

>  <SCORE.INTRA.SOLV.lig_0>
-44.3465

>  <SCORE.INTRA.VDW>
-0.604586

>  <SCORE.INTRA.VDW.0>
-0.778272

>  <SCORE.INTRA.norm>
0.000273993

>  <SCORE.RESTR>
0

>  <SCORE.RESTR.CAVITY>
0

>  <SCORE.RESTR.norm>
0

>  <SCORE.SYSTEM>
0

>  <SCORE.SYSTEM.CONST>
0

>  <SCORE.SYSTEM.DIHEDRAL>
0

>  <SCORE.SYSTEM.SOLV>
0

>  <SCORE.SYSTEM.norm>
0

>  <SCORE.heavy>
22

>  <SCORE.norm>
-0.610235

>  <RMSD>
12.302

$$$$
ligand
 OpenBabel11021811503D
libRbt.so/2013.1/901 2013/11/27
 22 24  0  0  0  0  0  0  0  0999 V2000
   -2.7757   -6.8688   19.6924 C   0  0  0  0  0  0  0  0  0  0  0  0
   -1.7103   -7.6293   19.1659 C   0  0  0  0  0  0  0  0  0  0  0  0
   -0.9497   -8.4234   20.0198 C   0  0  0  0  0  0  0  0  0  0  0  0
   -1.2549   -8.4539   21.3918 C   0  0  0  0  0  0  0  0  0  0  0  0
   -2.3183   -7.6835   21.9232 C   0  0  0  0  0  0  0  0  0  0  0  0
   -3.0751   -6.8917   21.0702 C   0  0  0  0  0  0  0  0  0  0  0  0
   -3.6157   -5.9709   18.7637 C   0  0  0  0  0  0  0  0  0  0  0  0
   -2.8842   -4.7126   18.2331 C   0  0  0  0  0  0  0  0  0  0  0  0
   -1.9194   -4.9990   17.0883 C   0  0  0  0  0  0  0  0  0  0  0  0
   -2.2816   -5.6564   15.9086 C   0  0  0  0  0  0  0  0  0  0  0  0
   -1.1667   -5.7196   15.1347 N   0  0  0  0  0  0  0  0  0  0  0  0
   -0.0731   -5.1345   15.7412 C   0  0  0  0  0  0  0  0  0  0  0  0
   -0.5017   -4.6634   16.9773 C   0  0  0  0  0  0  0  0  0  0  0  0
    0.4786   -3.9984   17.8075 C   0  0  0  0  0  0  0  0  0  0  0  0
    0.1177   -3.4942   19.0539 O   0  0  0  0  0  0  0  0  0  0  0  0
    1.7820   -3.8736   17.3454 N   0  0  0  0  0  0  0  0  0  0  0  0
    2.1555   -4.3431   16.1196 C   0  0  0  0  0  0  0  0  0  0  0  0
    1.2723   -4.9656   15.3232 N   0  0  0  0  0  0  0  0  0  0  0  0
    3.5405   -4.1730   15.6686 N   0  0  0  0  0  0  0  0  0  0  0  0
   -0.4128   -9.3172   22.2933 C   0  0  0  0  0  0  0  0  0  0  0  0
    0.5224   -8.8258   22.9225 O   0  0  0  0  0  0  0  0  0  0  0  0
   -0.7190  -10.7192   22.3971 N   0  0  0  0  0  0  0  0  0  0  0  0
  1  2  2  0  0  0  0
  1  6  1  0  0  0  0
  1  7  1  0  0  0  0
  2  3  1  0  0  0  0
  3  4  2  0  0  0  0
  4  5  1  0  0  0  0
  4 20  1  0  0  0  0
  5  6  2  0  0  0  0
  7  8  1  0  0  0  0
  8  9  1  0  0  0  0
  9 10  2  0  0  0  0
  9 13  1  0  0  0  0
 10 11  1  0  0  0  0
 11 12  1  0  0  0  0
 12 13  2  0  0  0  0
 12 18  1  0  0  0  0
 13 14  1  0  0  0  0
 14 15  1  0  0  0  0
 14 16  2  0  0  0  0
 16 17  1  0  0  0  0
 17 18  2  0  0  0  0
 17 19  1  0  0  0  0
 20 21  2  0  0  0  0
 20 22  1  0  0  0  0
M  END
>  <CHROM.1>
-70.79854127,96.54116490,78.01029876,54.54951149,-0.66657045,-6.18090109
18.65071645,1.85007690,0.02213207,2.21639047

>  <Name>
ligand

>  <RI>
0

>  <Rbt.Current_Directory>
/home/itssahil/PROJECTS/Mol_Feturizer/New_Systems/rnas/4LVY

>  <Rbt.Executable>
rbdock ($Id: //depot/dev/client3/rdock/2013.1/src/exe/rbdock.cxx#4 $)

>  <Rbt.Library>
libRbt.so (2013.1, Build901 2013/11/27)

>  <Rbt.Parameter_File>
/export/apps/rDock/src/rDock_2013.1_src/data/scripts/dock_solv.prm

>  <Rbt.Receptor>
prm/blind_docking_40.prm

>  <SCORE>
-10.4767

>  <SCORE.INTER>
-10.1319

>  <SCORE.INTER.CONST>
1

>  <SCORE.INTER.POLAR>
0

>  <SCORE.INTER.ROT>
4

>  <SCORE.INTER.SOLV>
9.01136

>  <SCORE.INTER.VDW>
-16.025

>  <SCORE.INTER.norm>
-0.460539

>  <SCORE.INTRA>
-0.345447

>  <SCORE.INTRA.DIHEDRAL>
1.26174

>  <SCORE.INTRA.DIHEDRAL.0>
6.18831

>  <SCORE.INTRA.POLAR>
0

>  <SCORE.INTRA.POLAR.0>
0

>  <SCORE.INTRA.REPUL>
0

>  <SCORE.INTRA.REPUL.0>
0

>  <SCORE.INTRA.SOLV>
0.0187206

>  <SCORE.INTRA.SOLV.lig_0>
-44.3465

>  <SCORE.INTRA.VDW>
-0.985676

>  <SCORE.INTRA.VDW.0>
-0.778272

>  <SCORE.INTRA.norm>
-0.0157021

>  <SCORE.RESTR>
0.000560521

>  <SCORE.RESTR.CAVITY>
0.000560521

>  <SCORE.RESTR.norm>
2.54782e-05

>  <SCORE.SYSTEM>
0

>  <SCORE.SYSTEM.CONST>
0

>  <SCORE.SYSTEM.DIHEDRAL>
0

>  <SCORE.SYSTEM.SOLV>
0

>  <SCORE.SYSTEM.norm>
0

>  <SCORE.heavy>
22

>  <SCORE.norm>
-0.476216

>  <RMSD>
12.316

$$$$
ligand
 OpenBabel11021811503D
libRbt.so/2013.1/901 2013/11/27
 22 24  0  0  0  0  0  0  0  0999 V2000
   -3.3187   -4.5551   19.1215 C   0  0  0  0  0  0  0  0  0  0  0  0
   -2.4056   -3.5773   19.5698 C   0  0  0  0  0  0  0  0  0  0  0  0
   -1.1930   -3.4182   18.9046 C   0  0  0  0  0  0  0  0  0  0  0  0
   -0.8979   -4.2343   17.7986 C   0  0  0  0  0  0  0  0  0  0  0  0
   -1.8097   -5.2228   17.3533 C   0  0  0  0  0  0  0  0  0  0  0  0
   -3.0180   -5.3804   18.0183 C   0  0  0  0  0  0  0  0  0  0  0  0
   -4.6573   -4.7560   19.8576 C   0  0  0  0  0  0  0  0  0  0  0  0
   -4.6984   -5.9681   20.8215 C   0  0  0  0  0  0  0  0  0  0  0  0
   -5.8093   -5.8890   21.8623 C   0  0  0  0  0  0  0  0  0  0  0  0
   -5.5995   -5.5537   23.2033 C   0  0  0  0  0  0  0  0  0  0  0  0
   -6.8144   -5.5819   23.8110 N   0  0  0  0  0  0  0  0  0  0  0  0
   -7.8296   -5.9206   22.9388 C   0  0  0  0  0  0  0  0  0  0  0  0
   -7.2419   -6.1220   21.6947 C   0  0  0  0  0  0  0  0  0  0  0  0
   -8.1163   -6.4875   20.6019 C   0  0  0  0  0  0  0  0  0  0  0  0
   -7.5976   -6.6966   19.3271 O   0  0  0  0  0  0  0  0  0  0  0  0
   -9.4763   -6.6293   20.8433 N   0  0  0  0  0  0  0  0  0  0  0  0
  -10.0108   -6.4115   22.0800 C   0  0  0  0  0  0  0  0  0  0  0  0
   -9.2292   -6.0716   23.1169 N   0  0  0  0  0  0  0  0  0  0  0  0
  -11.4559   -6.5577   22.2818 N   0  0  0  0  0  0  0  0  0  0  0  0
    0.4230   -4.0444   17.1011 C   0  0  0  0  0  0  0  0  0  0  0  0
    0.5040   -3.3054   16.1217 O   0  0  0  0  0  0  0  0  0  0  0  0
    1.5774   -4.7456   17.5967 N   0  0  0  0  0  0  0  0  0  0  0  0
  1  2  2  0  0  0  0
  1  6  1  0  0  0  0
  1  7  1  0  0  0  0
  2  3  1  0  0  0  0
  3  4  2  0  0  0  0
  4  5  1  0  0  0  0
  4 20  1  0  0  0  0
  5  6  2  0  0  0  0
  7  8  1  0  0  0  0
  8  9  1  0  0  0  0
  9 10  2  0  0  0  0
  9 13  1  0  0  0  0
 10 11  1  0  0  0  0
 11 12  1  0  0  0  0
 12 13  2  0  0  0  0
 12 18  1  0  0  0  0
 13 14  1  0  0  0  0
 14 15  1  0  0  0  0
 14 16  2  0  0  0  0
 16 17  1  0  0  0  0
 17 18  2  0  0  0  0
 17 19  1  0  0  0  0
 20 21  2  0  0  0  0
 20 22  1  0  0  0  0
M  END
>  <CHROM.1>
-101.03771129,-93.97044506,160.57196766,-103.71436846,-4.97186185,-5.33625735
20.16362957,0.45178008,-0.29582756,-1.67563224

>  <Name>
ligand

>  <RI>
0

>  <Rbt.Current_Directory>
/home/itssahil/PROJECTS/Mol_Feturizer/New_Systems/rnas/4LVY

>  <Rbt.Executable>
rbdock ($Id: //depot/dev/client3/rdock/2013.1/src/exe/rbdock.cxx#4 $)

>  <Rbt.Library>
libRbt.so (2013.1, Build901 2013/11/27)

>  <Rbt.Parameter_File>
/export/apps/rDock/src/rDock_2013.1_src/data/scripts/dock_solv.prm

>  <Rbt.Receptor>
prm/blind_docking_100.prm

>  <SCORE>
-13.3472

>  <SCORE.INTER>
-13.4563

>  <SCORE.INTER.CONST>
1

>  <SCORE.INTER.POLAR>
0

>  <SCORE.INTER.ROT>
4

>  <SCORE.INTER.SOLV>
11.0579

>  <SCORE.INTER.VDW>
-18.9235

>  <SCORE.INTER.norm>
-0.611651

>  <SCORE.INTRA>
0.109117

>  <SCORE.INTRA.DIHEDRAL>
1.3664

>  <SCORE.INTRA.DIHEDRAL.0>
6.18831

>  <SCORE.INTRA.POLAR>
0

>  <SCORE.INTRA.POLAR.0>
0

>  <SCORE.INTRA.REPUL>
0

>  <SCORE.INTRA.REPUL.0>
0

>  <SCORE.INTRA.SOLV>
0.215214

>  <SCORE.INTRA.SOLV.lig_0>
-44.3465

>  <SCORE.INTRA.VDW>
-0.681693

>  <SCORE.INTRA.VDW.0>
-0.778272

>  <SCORE.INTRA.norm>
0.00495987

>  <SCORE.RESTR>
0

>  <SCORE.RESTR.CAVITY>
0

>  <SCORE.RESTR.norm>
0

>  <SCORE.SYSTEM>
0

>  <SCORE.SYSTEM.CONST>
0

>  <SCORE.SYSTEM.DIHEDRAL>
0

>  <SCORE.SYSTEM.SOLV>
0

>  <SCORE.SYSTEM.norm>
0

>  <SCORE.heavy>
22

>  <SCORE.norm>
-0.606691

>  <RMSD>
12.343

$$$$
ligand
 OpenBabel11021811503D
libRbt.so/2013.1/901 2013/11/27
 22 24  0  0  0  0  0  0  0  0999 V2000
   -4.4728   -4.3346   26.8168 C   0  0  0  0  0  0  0  0  0  0  0  0
   -3.8857   -5.3997   26.1015 C   0  0  0  0  0  0  0  0  0  0  0  0
   -4.6572   -6.1218   25.1951 C   0  0  0  0  0  0  0  0  0  0  0  0
   -6.0076   -5.7789   25.0080 C   0  0  0  0  0  0  0  0  0  0  0  0
   -6.6008   -4.7158   25.7324 C   0  0  0  0  0  0  0  0  0  0  0  0
   -5.8301   -3.9974   26.6363 C   0  0  0  0  0  0  0  0  0  0  0  0
   -3.6376   -3.5369   27.8368 C   0  0  0  0  0  0  0  0  0  0  0  0
   -3.0948   -2.1810   27.3203 C   0  0  0  0  0  0  0  0  0  0  0  0
   -4.1790   -1.1386   27.0725 C   0  0  0  0  0  0  0  0  0  0  0  0
   -4.6463   -0.7856   25.8029 C   0  0  0  0  0  0  0  0  0  0  0  0
   -5.6044    0.1604   25.9849 N   0  0  0  0  0  0  0  0  0  0  0  0
   -5.8013    0.4580   27.3186 C   0  0  0  0  0  0  0  0  0  0  0  0
   -4.9235   -0.3403   28.0437 C   0  0  0  0  0  0  0  0  0  0  0  0
   -4.9466   -0.2090   29.4840 C   0  0  0  0  0  0  0  0  0  0  0  0
   -4.1008   -0.9830   30.2736 O   0  0  0  0  0  0  0  0  0  0  0  0
   -5.8202    0.7002   30.0656 N   0  0  0  0  0  0  0  0  0  0  0  0
   -6.6719    1.4566   29.3139 C   0  0  0  0  0  0  0  0  0  0  0  0
   -6.6772    1.3610   27.9750 N   0  0  0  0  0  0  0  0  0  0  0  0
   -7.5880    2.3915   29.9752 N   0  0  0  0  0  0  0  0  0  0  0  0
   -6.8200   -6.5800   24.0255 C   0  0  0  0  0  0  0  0  0  0  0  0
   -7.0534   -7.7680   24.2400 O   0  0  0  0  0  0  0  0  0  0  0  0
   -7.3079   -5.9329   22.8366 N   0  0  0  0  0  0  0  0  0  0  0  0
  1  2  2  0  0  0  0
  1  6  1  0  0  0  0
  1  7  1  0  0  0  0
  2  3  1  0  0  0  0
  3  4  2  0  0  0  0
  4  5  1  0  0  0  0
  4 20  1  0  0  0  0
  5  6  2  0  0  0  0
  7  8  1  0  0  0  0
  8  9  1  0  0  0  0
  9 10  2  0  0  0  0
  9 13  1  0  0  0  0
 10 11  1  0  0  0  0
 11 12  1  0  0  0  0
 12 13  2  0  0  0  0
 12 18  1  0  0  0  0
 13 14  1  0  0  0  0
 14 15  1  0  0  0  0
 14 16  2  0  0  0  0
 16 17  1  0  0  0  0
 17 18  2  0  0  0  0
 17 19  1  0  0  0  0
 20 21  2  0  0  0  0
 20 22  1  0  0  0  0
M  END
>  <CHROM.1>
99.86480152,65.49177575,68.08591736,-103.82898967,-5.48218812,-2.40701092
26.98864421,-1.61425256,-0.56692477,0.53530116

>  <Name>
ligand

>  <RI>
0

>  <Rbt.Current_Directory>
/home/itssahil/PROJECTS/Mol_Feturizer/New_Systems/rnas/4LVY

>  <Rbt.Executable>
rbdock ($Id: //depot/dev/client3/rdock/2013.1/src/exe/rbdock.cxx#4 $)

>  <Rbt.Library>
libRbt.so (2013.1, Build901 2013/11/27)

>  <Rbt.Parameter_File>
/export/apps/rDock/src/rDock_2013.1_src/data/scripts/dock_solv.prm

>  <Rbt.Receptor>
prm/blind_docking_40.prm

>  <SCORE>
-14.588

>  <SCORE.INTER>
-13.5711

>  <SCORE.INTER.CONST>
1

>  <SCORE.INTER.POLAR>
0

>  <SCORE.INTER.ROT>
4

>  <SCORE.INTER.SOLV>
6.14633

>  <SCORE.INTER.VDW>
-17.3628

>  <SCORE.INTER.norm>
-0.616867

>  <SCORE.INTRA>
-1.01694

>  <SCORE.INTRA.DIHEDRAL>
0.350795

>  <SCORE.INTRA.DIHEDRAL.0>
6.18831

>  <SCORE.INTRA.POLAR>
0

>  <SCORE.INTRA.POLAR.0>
0

>  <SCORE.INTRA.REPUL>
0

>  <SCORE.INTRA.REPUL.0>
0

>  <SCORE.INTRA.SOLV>
0.216424

>  <SCORE.INTRA.SOLV.lig_0>
-44.3465

>  <SCORE.INTRA.VDW>
-1.30055

>  <SCORE.INTRA.VDW.0>
-0.778272

>  <SCORE.INTRA.norm>
-0.0462247

>  <SCORE.RESTR>
0

>  <SCORE.RESTR.CAVITY>
0

>  <SCORE.RESTR.norm>
0

>  <SCORE.SYSTEM>
0

>  <SCORE.SYSTEM.CONST>
0

>  <SCORE.SYSTEM.DIHEDRAL>
0

>  <SCORE.SYSTEM.SOLV>
0

>  <SCORE.SYSTEM.norm>
0

>  <SCORE.heavy>
22

>  <SCORE.norm>
-0.663092

>  <RMSD>
12.441

$$$$
ligand
 OpenBabel11021811503D
libRbt.so/2013.1/901 2013/11/27
 22 24  0  0  0  0  0  0  0  0999 V2000
   -4.9229   -4.3971   26.7888 C   0  0  0  0  0  0  0  0  0  0  0  0
   -6.1788   -3.9165   26.3617 C   0  0  0  0  0  0  0  0  0  0  0  0
   -6.8459   -4.5701   25.3292 C   0  0  0  0  0  0  0  0  0  0  0  0
   -6.2575   -5.6968   24.7289 C   0  0  0  0  0  0  0  0  0  0  0  0
   -4.9922   -6.1748   25.1503 C   0  0  0  0  0  0  0  0  0  0  0  0
   -4.3283   -5.5213   26.1795 C   0  0  0  0  0  0  0  0  0  0  0  0
   -4.1634   -3.6745   27.9180 C   0  0  0  0  0  0  0  0  0  0  0  0
   -3.3908   -2.4055   27.4790 C   0  0  0  0  0  0  0  0  0  0  0  0
   -4.2914   -1.2227   27.1425 C   0  0  0  0  0  0  0  0  0  0  0  0
   -4.6471   -0.8586   25.8403 C   0  0  0  0  0  0  0  0  0  0  0  0
   -5.4554    0.2287   25.9422 N   0  0  0  0  0  0  0  0  0  0  0  0
   -5.6584    0.6105   27.2534 C   0  0  0  0  0  0  0  0  0  0  0  0
   -4.9435   -0.2792   28.0477 C   0  0  0  0  0  0  0  0  0  0  0  0
   -5.0047   -0.0832   29.4796 C   0  0  0  0  0  0  0  0  0  0  0  0
   -4.3203   -0.9413   30.3359 O   0  0  0  0  0  0  0  0  0  0  0  0
   -5.7514    0.9723   29.9857 N   0  0  0  0  0  0  0  0  0  0  0  0
   -6.4459    1.8155   29.1676 C   0  0  0  0  0  0  0  0  0  0  0  0
   -6.4114    1.6636   27.8344 N   0  0  0  0  0  0  0  0  0  0  0  0
   -7.2338    2.9064   29.7504 N   0  0  0  0  0  0  0  0  0  0  0  0
   -6.9984   -6.3812   23.6110 C   0  0  0  0  0  0  0  0  0  0  0  0
   -7.5084   -7.4853   23.7925 O   0  0  0  0  0  0  0  0  0  0  0  0
   -7.0905   -5.7244   22.3342 N   0  0  0  0  0  0  0  0  0  0  0  0
  1  2  2  0  0  0  0
  1  6  1  0  0  0  0
  1  7  1  0  0  0  0
  2  3  1  0  0  0  0
  3  4  2  0  0  0  0
  4  5  1  0  0  0  0
  4 20  1  0  0  0  0
  5  6  2  0  0  0  0
  7  8  1  0  0  0  0
  8  9  1  0  0  0  0
  9 10  2  0  0  0  0
  9 13  1  0  0  0  0
 10 11  1  0  0  0  0
 11 12  1  0  0  0  0
 12 13  2  0  0  0  0
 12 18  1  0  0  0  0
 13 14  1  0  0  0  0
 14 15  1  0  0  0  0
 14 16  2  0  0  0  0
 16 17  1  0  0  0  0
 17 18  2  0  0  0  0
 17 19  1  0  0  0  0
 20 21  2  0  0  0  0
 20 22  1  0  0  0  0
M  END
>  <CHROM.1>
-80.28823862,-108.71408423,71.76529397,-99.48837756,-5.59548821,-2.30570323
26.86868533,-1.68353216,-0.79865342,0.49677775

>  <Name>
ligand

>  <RI>
0

>  <Rbt.Current_Directory>
/home/itssahil/PROJECTS/Mol_Feturizer/New_Systems/rnas/4LVY

>  <Rbt.Executable>
rbdock ($Id: //depot/dev/client3/rdock/2013.1/src/exe/rbdock.cxx#4 $)

>  <Rbt.Library>
libRbt.so (2013.1, Build901 2013/11/27)

>  <Rbt.Parameter_File>
/export/apps/rDock/src/rDock_2013.1_src/data/scripts/dock_solv.prm

>  <Rbt.Receptor>
prm/blind_docking_40.prm

>  <SCORE>
-14.8623

>  <SCORE.INTER>
-13.9336

>  <SCORE.INTER.CONST>
1

>  <SCORE.INTER.POLAR>
0

>  <SCORE.INTER.ROT>
4

>  <SCORE.INTER.SOLV>
5.46878

>  <SCORE.INTER.VDW>
-17.3787

>  <SCORE.INTER.norm>
-0.633347

>  <SCORE.INTRA>
-0.928614

>  <SCORE.INTRA.DIHEDRAL>
0.48021

>  <SCORE.INTRA.DIHEDRAL.0>
6.18831

>  <SCORE.INTRA.POLAR>
0

>  <SCORE.INTRA.POLAR.0>
0

>  <SCORE.INTRA.REPUL>
0

>  <SCORE.INTRA.REPUL.0>
0

>  <SCORE.INTRA.SOLV>
0.197914

>  <SCORE.INTRA.SOLV.lig_0>
-44.3465

>  <SCORE.INTRA.VDW>
-1.26768

>  <SCORE.INTRA.VDW.0>
-0.778272

>  <SCORE.INTRA.norm>
-0.0422097

>  <SCORE.RESTR>
0

>  <SCORE.RESTR.CAVITY>
0

>  <SCORE.RESTR.norm>
0

>  <SCORE.SYSTEM>
0

>  <SCORE.SYSTEM.CONST>
0

>  <SCORE.SYSTEM.DIHEDRAL>
0

>  <SCORE.SYSTEM.SOLV>
0

>  <SCORE.SYSTEM.norm>
0

>  <SCORE.heavy>
22

>  <SCORE.norm>
-0.675557

>  <RMSD>
12.467

$$$$
ligand
 OpenBabel11021811503D
libRbt.so/2013.1/901 2013/11/27
 22 24  0  0  0  0  0  0  0  0999 V2000
   -5.0311   -4.3661   26.9196 C   0  0  0  0  0  0  0  0  0  0  0  0
   -6.2262   -3.8652   26.3615 C   0  0  0  0  0  0  0  0  0  0  0  0
   -6.8109   -4.5311   25.2877 C   0  0  0  0  0  0  0  0  0  0  0  0
   -6.2011   -5.6902   24.7770 C   0  0  0  0  0  0  0  0  0  0  0  0
   -4.9962   -6.1889   25.3303 C   0  0  0  0  0  0  0  0  0  0  0  0
   -4.4142   -5.5231   26.4005 C   0  0  0  0  0  0  0  0  0  0  0  0
   -4.3616   -3.6309   28.0967 C   0  0  0  0  0  0  0  0  0  0  0  0
   -3.5398   -2.3781   27.7031 C   0  0  0  0  0  0  0  0  0  0  0  0
   -4.3947   -1.1923   27.2712 C   0  0  0  0  0  0  0  0  0  0  0  0
   -4.6869   -0.8853   25.9388 C   0  0  0  0  0  0  0  0  0  0  0  0
   -5.4702    0.2247   25.9531 N   0  0  0  0  0  0  0  0  0  0  0  0
   -5.7170    0.6763   27.2342 C   0  0  0  0  0  0  0  0  0  0  0  0
   -5.0588   -0.1894   28.1007 C   0  0  0  0  0  0  0  0  0  0  0  0
   -5.1738    0.0792   29.5174 C   0  0  0  0  0  0  0  0  0  0  0  0
   -4.5478   -0.7512   30.4429 O   0  0  0  0  0  0  0  0  0  0  0  0
   -5.9131    1.1763   29.9391 N   0  0  0  0  0  0  0  0  0  0  0  0
   -6.5511    1.9939   29.0520 C   0  0  0  0  0  0  0  0  0  0  0  0
   -6.4657    1.7748   27.7305 N   0  0  0  0  0  0  0  0  0  0  0  0
   -7.3338    3.1311   29.5468 N   0  0  0  0  0  0  0  0  0  0  0  0
   -6.8521   -6.3874   23.6119 C   0  0  0  0  0  0  0  0  0  0  0  0
   -8.0520   -6.6547   23.6435 O   0  0  0  0  0  0  0  0  0  0  0  0
   -6.0457   -6.7376   22.4730 N   0  0  0  0  0  0  0  0  0  0  0  0
  1  2  2  0  0  0  0
  1  6  1  0  0  0  0
  1  7  1  0  0  0  0
  2  3  1  0  0  0  0
  3  4  2  0  0  0  0
  4  5  1  0  0  0  0
  4 20  1  0  0  0  0
  5  6  2  0  0  0  0
  7  8  1  0  0  0  0
  8  9  1  0  0  0  0
  9 10  2  0  0  0  0
  9 13  1  0  0  0  0
 10 11  1  0  0  0  0
 11 12  1  0  0  0  0
 12 13  2  0  0  0  0
 12 18  1  0  0  0  0
 13 14  1  0  0  0  0
 14 15  1  0  0  0  0
 14 16  2  0  0  0  0
 16 17  1  0  0  0  0
 17 18  2  0  0  0  0
 17 19  1  0  0  0  0
 20 21  2  0  0  0  0
 20 22  1  0  0  0  0
M  END
>  <CHROM.1>
-78.99854017,-49.66147979,71.77816557,-96.32384019,-5.64579350,-2.24309596
26.90637728,-1.64310188,-0.80913486,0.51215768

>  <Name>
ligand

>  <RI>
0

>  <Rbt.Current_Directory>
/home/itssahil/PROJECTS/Mol_Feturizer/New_Systems/rnas/4LVY

>  <Rbt.Executable>
rbdock ($Id: //depot/dev/client3/rdock/2013.1/src/exe/rbdock.cxx#4 $)

>  <Rbt.Library>
libRbt.so (2013.1, Build901 2013/11/27)

>  <Rbt.Parameter_File>
/export/apps/rDock/src/rDock_2013.1_src/data/scripts/dock_solv.prm

>  <Rbt.Receptor>
prm/blind_docking_40.prm

>  <SCORE>
-14.2391

>  <SCORE.INTER>
-13.4413

>  <SCORE.INTER.CONST>
1

>  <SCORE.INTER.POLAR>
0

>  <SCORE.INTER.ROT>
4

>  <SCORE.INTER.SOLV>
4.36627

>  <SCORE.INTER.VDW>
-16.683

>  <SCORE.INTER.norm>
-0.610968

>  <SCORE.INTRA>
-0.797808

>  <SCORE.INTRA.DIHEDRAL>
0.512638

>  <SCORE.INTRA.DIHEDRAL.0>
6.18831

>  <SCORE.INTRA.POLAR>
0

>  <SCORE.INTRA.POLAR.0>
0

>  <SCORE.INTRA.REPUL>
0

>  <SCORE.INTRA.REPUL.0>
0

>  <SCORE.INTRA.SOLV>
0.187776

>  <SCORE.INTRA.SOLV.lig_0>
-44.3465

>  <SCORE.INTRA.VDW>
-1.14802

>  <SCORE.INTRA.VDW.0>
-0.778272

>  <SCORE.INTRA.norm>
-0.036264

>  <SCORE.RESTR>
0

>  <SCORE.RESTR.CAVITY>
0

>  <SCORE.RESTR.norm>
0

>  <SCORE.SYSTEM>
0

>  <SCORE.SYSTEM.CONST>
0

>  <SCORE.SYSTEM.DIHEDRAL>
0

>  <SCORE.SYSTEM.SOLV>
0

>  <SCORE.SYSTEM.norm>
0

>  <SCORE.heavy>
22

>  <SCORE.norm>
-0.647232

>  <RMSD>
12.475

$$$$
ligand
 OpenBabel11021811503D
libRbt.so/2013.1/901 2013/11/27
 22 24  0  0  0  0  0  0  0  0999 V2000
   -4.9928   -4.3696   26.8899 C   0  0  0  0  0  0  0  0  0  0  0  0
   -4.3538   -5.4698   26.2801 C   0  0  0  0  0  0  0  0  0  0  0  0
   -4.9790   -6.1230   25.2215 C   0  0  0  0  0  0  0  0  0  0  0  0
   -6.2362   -5.6765   24.7782 C   0  0  0  0  0  0  0  0  0  0  0  0
   -6.8832   -4.5779   25.3957 C   0  0  0  0  0  0  0  0  0  0  0  0
   -6.2585   -3.9284   26.4516 C   0  0  0  0  0  0  0  0  0  0  0  0
   -4.3225   -3.6470   28.0742 C   0  0  0  0  0  0  0  0  0  0  0  0
   -3.5106   -2.3833   27.6949 C   0  0  0  0  0  0  0  0  0  0  0  0
   -4.3746   -1.2023   27.2682 C   0  0  0  0  0  0  0  0  0  0  0  0
   -4.6717   -0.8935   25.9373 C   0  0  0  0  0  0  0  0  0  0  0  0
   -5.4626    0.2110   25.9564 N   0  0  0  0  0  0  0  0  0  0  0  0
   -5.7099    0.6573   27.2393 C   0  0  0  0  0  0  0  0  0  0  0  0
   -5.0439   -0.2064   28.1020 C   0  0  0  0  0  0  0  0  0  0  0  0
   -5.1578    0.0574   29.5196 C   0  0  0  0  0  0  0  0  0  0  0  0
   -4.5241   -0.7712   30.4415 O   0  0  0  0  0  0  0  0  0  0  0  0
   -5.9037    1.1481   29.9460 N   0  0  0  0  0  0  0  0  0  0  0  0
   -6.5493    1.9639   29.0626 C   0  0  0  0  0  0  0  0  0  0  0  0
   -6.4651    1.7491   27.7403 N   0  0  0  0  0  0  0  0  0  0  0  0
   -7.3387    3.0942   29.5623 N   0  0  0  0  0  0  0  0  0  0  0  0
   -6.8921   -6.4046   23.6349 C   0  0  0  0  0  0  0  0  0  0  0  0
   -7.2803   -7.5621   23.7809 O   0  0  0  0  0  0  0  0  0  0  0  0
   -7.0475   -5.7250   22.3764 N   0  0  0  0  0  0  0  0  0  0  0  0
  1  2  2  0  0  0  0
  1  6  1  0  0  0  0
  1  7  1  0  0  0  0
  2  3  1  0  0  0  0
  3  4  2  0  0  0  0
  4  5  1  0  0  0  0
  4 20  1  0  0  0  0
  5  6  2  0  0  0  0
  7  8  1  0  0  0  0
  8  9  1  0  0  0  0
  9 10  2  0  0  0  0
  9 13  1  0  0  0  0
 10 11  1  0  0  0  0
 11 12  1  0  0  0  0
 12 13  2  0  0  0  0
 12 18  1  0  0  0  0
 13 14  1  0  0  0  0
 14 15  1  0  0  0  0
 14 16  2  0  0  0  0
 16 17  1  0  0  0  0
 17 18  2  0  0  0  0
 17 19  1  0  0  0  0
 20 21  2  0  0  0  0
 20 22  1  0  0  0  0
M  END
>  <CHROM.1>
95.95785975,67.34929684,71.08674017,-95.79653221,-5.64592229,-2.25589683
26.90857284,-1.65844548,-0.85467266,0.49547469

>  <Name>
ligand

>  <RI>
0

>  <Rbt.Current_Directory>
/home/itssahil/PROJECTS/Mol_Feturizer/New_Systems/rnas/4LVY

>  <Rbt.Executable>
rbdock ($Id: //depot/dev/client3/rdock/2013.1/src/exe/rbdock.cxx#4 $)

>  <Rbt.Library>
libRbt.so (2013.1, Build901 2013/11/27)

>  <Rbt.Parameter_File>
/export/apps/rDock/src/rDock_2013.1_src/data/scripts/dock_solv.prm

>  <Rbt.Receptor>
prm/blind_docking_40.prm

>  <SCORE>
-14.7302

>  <SCORE.INTER>
-13.8987

>  <SCORE.INTER.CONST>
1

>  <SCORE.INTER.POLAR>
0

>  <SCORE.INTER.ROT>
4

>  <SCORE.INTER.SOLV>
4.97264

>  <SCORE.INTER.VDW>
-17.19

>  <SCORE.INTER.norm>
-0.631761

>  <SCORE.INTRA>
-0.831444

>  <SCORE.INTRA.DIHEDRAL>
0.584836

>  <SCORE.INTRA.DIHEDRAL.0>
6.18831

>  <SCORE.INTRA.POLAR>
0

>  <SCORE.INTRA.POLAR.0>
0

>  <SCORE.INTRA.REPUL>
0

>  <SCORE.INTRA.REPUL.0>
0

>  <SCORE.INTRA.SOLV>
0.179747

>  <SCORE.INTRA.SOLV.lig_0>
-44.3465

>  <SCORE.INTRA.VDW>
-1.21373

>  <SCORE.INTRA.VDW.0>
-0.778272

>  <SCORE.INTRA.norm>
-0.0377929

>  <SCORE.RESTR>
0

>  <SCORE.RESTR.CAVITY>
0

>  <SCORE.RESTR.norm>
0

>  <SCORE.SYSTEM>
0

>  <SCORE.SYSTEM.CONST>
0

>  <SCORE.SYSTEM.DIHEDRAL>
0

>  <SCORE.SYSTEM.SOLV>
0

>  <SCORE.SYSTEM.norm>
0

>  <SCORE.heavy>
22

>  <SCORE.norm>
-0.669553

>  <RMSD>
12.485

$$$$
ligand
 OpenBabel11021811503D
libRbt.so/2013.1/901 2013/11/27
 22 24  0  0  0  0  0  0  0  0999 V2000
   -4.9360   -4.3668   26.8432 C   0  0  0  0  0  0  0  0  0  0  0  0
   -6.1997   -3.9014   26.4225 C   0  0  0  0  0  0  0  0  0  0  0  0
   -6.8638   -4.5625   25.3928 C   0  0  0  0  0  0  0  0  0  0  0  0
   -6.2645   -5.6816   24.7889 C   0  0  0  0  0  0  0  0  0  0  0  0
   -4.9915   -6.1443   25.2039 C   0  0  0  0  0  0  0  0  0  0  0  0
   -4.3306   -5.4833   26.2303 C   0  0  0  0  0  0  0  0  0  0  0  0
   -4.1800   -3.6357   27.9692 C   0  0  0  0  0  0  0  0  0  0  0  0
   -3.4326   -2.3521   27.5291 C   0  0  0  0  0  0  0  0  0  0  0  0
   -4.3569   -1.1929   27.1751 C   0  0  0  0  0  0  0  0  0  0  0  0
   -4.7277   -0.8618   25.8683 C   0  0  0  0  0  0  0  0  0  0  0  0
   -5.5552    0.2125   25.9540 N   0  0  0  0  0  0  0  0  0  0  0  0
   -5.7565    0.6171   27.2586 C   0  0  0  0  0  0  0  0  0  0  0  0
   -5.0202   -0.2432   28.0657 C   0  0  0  0  0  0  0  0  0  0  0  0
   -5.0755   -0.0194   29.4936 C   0  0  0  0  0  0  0  0  0  0  0  0
   -4.3699   -0.8474   30.3623 O   0  0  0  0  0  0  0  0  0  0  0  0
   -5.8381    1.0324   29.9836 N   0  0  0  0  0  0  0  0  0  0  0  0
   -6.5533    1.8461   29.1535 C   0  0  0  0  0  0  0  0  0  0  0  0
   -6.5248    1.6678   27.8234 N   0  0  0  0  0  0  0  0  0  0  0  0
   -7.3572    2.9341   29.7196 N   0  0  0  0  0  0  0  0  0  0  0  0
   -7.0024   -6.3743   23.6741 C   0  0  0  0  0  0  0  0  0  0  0  0
   -7.5187   -7.4740   23.8645 O   0  0  0  0  0  0  0  0  0  0  0  0
   -7.0841   -5.7307   22.3899 N   0  0  0  0  0  0  0  0  0  0  0  0
  1  2  2  0  0  0  0
  1  6  1  0  0  0  0
  1  7  1  0  0  0  0
  2  3  1  0  0  0  0
  3  4  2  0  0  0  0
  4  5  1  0  0  0  0
  4 20  1  0  0  0  0
  5  6  2  0  0  0  0
  7  8  1  0  0  0  0
  8  9  1  0  0  0  0
  9 10  2  0  0  0  0
  9 13  1  0  0  0  0
 10 11  1  0  0  0  0
 11 12  1  0  0  0  0
 12 13  2  0  0  0  0
 12 18  1  0  0  0  0
 13 14  1  0  0  0  0
 14 15  1  0  0  0  0
 14 16  2  0  0  0  0
 16 17  1  0  0  0  0
 17 18  2  0  0  0  0
 17 19  1  0  0  0  0
 20 21  2  0  0  0  0
 20 22  1  0  0  0  0
M  END
>  <CHROM.1>
-79.91336198,-107.39854923,70.50440165,-98.22009162,-5.64573623,-2.27901029
26.90087345,-1.66711801,-0.78471369,0.50266134

>  <Name>
ligand

>  <RI>
0

>  <Rbt.Current_Directory>
/home/itssahil/PROJECTS/Mol_Feturizer/New_Systems/rnas/4LVY

>  <Rbt.Executable>
rbdock ($Id: //depot/dev/client3/rdock/2013.1/src/exe/rbdock.cxx#4 $)

>  <Rbt.Library>
libRbt.so (2013.1, Build901 2013/11/27)

>  <Rbt.Parameter_File>
/export/apps/rDock/src/rDock_2013.1_src/data/scripts/dock_solv.prm

>  <Rbt.Receptor>
prm/blind_docking_40.prm

>  <SCORE>
-14.8284

>  <SCORE.INTER>
-13.8317

>  <SCORE.INTER.CONST>
1

>  <SCORE.INTER.POLAR>
0

>  <SCORE.INTER.ROT>
4

>  <SCORE.INTER.SOLV>
5.32189

>  <SCORE.INTER.VDW>
-17.2618

>  <SCORE.INTER.norm>
-0.628715

>  <SCORE.INTRA>
-0.996638

>  <SCORE.INTRA.DIHEDRAL>
0.367411

>  <SCORE.INTRA.DIHEDRAL.0>
6.18831

>  <SCORE.INTRA.POLAR>
0

>  <SCORE.INTRA.POLAR.0>
0

>  <SCORE.INTRA.REPUL>
0

>  <SCORE.INTRA.REPUL.0>
0

>  <SCORE.INTRA.SOLV>
0.191947

>  <SCORE.INTRA.SOLV.lig_0>
-44.3465

>  <SCORE.INTRA.VDW>
-1.27632

>  <SCORE.INTRA.VDW.0>
-0.778272

>  <SCORE.INTRA.norm>
-0.0453017

>  <SCORE.RESTR>
0

>  <SCORE.RESTR.CAVITY>
0

>  <SCORE.RESTR.norm>
0

>  <SCORE.SYSTEM>
0

>  <SCORE.SYSTEM.CONST>
0

>  <SCORE.SYSTEM.DIHEDRAL>
0

>  <SCORE.SYSTEM.SOLV>
0

>  <SCORE.SYSTEM.norm>
0

>  <SCORE.heavy>
22

>  <SCORE.norm>
-0.674016

>  <RMSD>
12.493

$$$$
ligand
 OpenBabel11021811503D
libRbt.so/2013.1/901 2013/11/27
 22 24  0  0  0  0  0  0  0  0999 V2000
   -4.9288   -4.3759   26.8349 C   0  0  0  0  0  0  0  0  0  0  0  0
   -4.3490   -5.5126   26.2329 C   0  0  0  0  0  0  0  0  0  0  0  0
   -5.0346   -6.1726   25.2166 C   0  0  0  0  0  0  0  0  0  0  0  0
   -6.2925   -5.6967   24.8078 C   0  0  0  0  0  0  0  0  0  0  0  0
   -6.8800   -4.5611   25.4178 C   0  0  0  0  0  0  0  0  0  0  0  0
   -6.1953   -3.9047   26.4315 C   0  0  0  0  0  0  0  0  0  0  0  0
   -4.1913   -3.6447   27.9731 C   0  0  0  0  0  0  0  0  0  0  0  0
   -3.4260   -2.3683   27.5429 C   0  0  0  0  0  0  0  0  0  0  0  0
   -4.3346   -1.2002   27.1773 C   0  0  0  0  0  0  0  0  0  0  0  0
   -4.6716   -0.8549   25.8650 C   0  0  0  0  0  0  0  0  0  0  0  0
   -5.4945    0.2235   25.9405 N   0  0  0  0  0  0  0  0  0  0  0  0
   -5.7250    0.6174   27.2436 C   0  0  0  0  0  0  0  0  0  0  0  0
   -5.0137   -0.2547   28.0603 C   0  0  0  0  0  0  0  0  0  0  0  0
   -5.1024   -0.0436   29.4885 C   0  0  0  0  0  0  0  0  0  0  0  0
   -4.4231   -0.8838   30.3663 O   0  0  0  0  0  0  0  0  0  0  0  0
   -5.8705    1.0084   29.9695 N   0  0  0  0  0  0  0  0  0  0  0  0
   -6.5604    1.8340   29.1299 C   0  0  0  0  0  0  0  0  0  0  0  0
   -6.5006    1.6677   27.7993 N   0  0  0  0  0  0  0  0  0  0  0  0
   -7.3715    2.9216   29.6864 N   0  0  0  0  0  0  0  0  0  0  0  0
   -7.0142   -6.4327   23.7102 C   0  0  0  0  0  0  0  0  0  0  0  0
   -7.2765   -5.8628   22.6527 O   0  0  0  0  0  0  0  0  0  0  0  0
   -7.3933   -7.8038   23.9259 N   0  0  0  0  0  0  0  0  0  0  0  0
  1  2  2  0  0  0  0
  1  6  1  0  0  0  0
  1  7  1  0  0  0  0
  2  3  1  0  0  0  0
  3  4  2  0  0  0  0
  4  5  1  0  0  0  0
  4 20  1  0  0  0  0
  5  6  2  0  0  0  0
  7  8  1  0  0  0  0
  8  9  1  0  0  0  0
  9 10  2  0  0  0  0
  9 13  1  0  0  0  0
 10 11  1  0  0  0  0
 11 12  1  0  0  0  0
 12 13  2  0  0  0  0
 12 18  1  0  0  0  0
 13 14  1  0  0  0  0
 14 15  1  0  0  0  0
 14 16  2  0  0  0  0
 16 17  1  0  0  0  0
 17 18  2  0  0  0  0
 17 19  1  0  0  0  0
 20 21  2  0  0  0  0
 20 22  1  0  0  0  0
M  END
>  <CHROM.1>
99.59965578,-118.16470512,71.05771345,-99.08332954,-5.64965922,-2.30289588
26.90715819,-1.66837720,-0.78170998,0.49136278

>  <Name>
ligand

>  <RI>
0

>  <Rbt.Current_Directory>
/home/itssahil/PROJECTS/Mol_Feturizer/New_Systems/rnas/4LVY

>  <Rbt.Executable>
rbdock ($Id: //depot/dev/client3/rdock/2013.1/src/exe/rbdock.cxx#4 $)

>  <Rbt.Library>
libRbt.so (2013.1, Build901 2013/11/27)

>  <Rbt.Parameter_File>
/export/apps/rDock/src/rDock_2013.1_src/data/scripts/dock_solv.prm

>  <Rbt.Receptor>
prm/blind_docking_40.prm

>  <SCORE>
-14.5129

>  <SCORE.INTER>
-13.6452

>  <SCORE.INTER.CONST>
1

>  <SCORE.INTER.POLAR>
0

>  <SCORE.INTER.ROT>
4

>  <SCORE.INTER.SOLV>
6.09819

>  <SCORE.INTER.VDW>
-17.3962

>  <SCORE.INTER.norm>
-0.620238

>  <SCORE.INTRA>
-0.867643

>  <SCORE.INTRA.DIHEDRAL>
0.564682

>  <SCORE.INTRA.DIHEDRAL.0>
6.18831

>  <SCORE.INTRA.POLAR>
0

>  <SCORE.INTRA.POLAR.0>
0

>  <SCORE.INTRA.REPUL>
0

>  <SCORE.INTRA.REPUL.0>
0

>  <SCORE.INTRA.SOLV>
0.198357

>  <SCORE.INTRA.SOLV.lig_0>
-44.3465

>  <SCORE.INTRA.VDW>
-1.24916

>  <SCORE.INTRA.VDW.0>
-0.778272

>  <SCORE.INTRA.norm>
-0.0394383

>  <SCORE.RESTR>
0

>  <SCORE.RESTR.CAVITY>
0

>  <SCORE.RESTR.norm>
0

>  <SCORE.SYSTEM>
0

>  <SCORE.SYSTEM.CONST>
0

>  <SCORE.SYSTEM.DIHEDRAL>
0

>  <SCORE.SYSTEM.SOLV>
0

>  <SCORE.SYSTEM.norm>
0

>  <SCORE.heavy>
22

>  <SCORE.norm>
-0.659677

>  <RMSD>
12.543

$$$$
ligand
 OpenBabel11021811503D
libRbt.so/2013.1/901 2013/11/27
 22 24  0  0  0  0  0  0  0  0999 V2000
   -5.9054   -4.6743   26.4211 C   0  0  0  0  0  0  0  0  0  0  0  0
   -6.8032   -4.4438   25.3574 C   0  0  0  0  0  0  0  0  0  0  0  0
   -6.8339   -5.3303   24.2843 C   0  0  0  0  0  0  0  0  0  0  0  0
   -5.9701   -6.4394   24.2778 C   0  0  0  0  0  0  0  0  0  0  0  0
   -5.0616   -6.6669   25.3407 C   0  0  0  0  0  0  0  0  0  0  0  0
   -5.0320   -5.7814   26.4094 C   0  0  0  0  0  0  0  0  0  0  0  0
   -5.8463   -3.6929   27.6075 C   0  0  0  0  0  0  0  0  0  0  0  0
   -4.6940   -2.6594   27.5448 C   0  0  0  0  0  0  0  0  0  0  0  0
   -4.8562   -1.4976   28.5182 C   0  0  0  0  0  0  0  0  0  0  0  0
   -4.6029   -1.5882   29.8902 C   0  0  0  0  0  0  0  0  0  0  0  0
   -4.8510   -0.3611   30.4183 N   0  0  0  0  0  0  0  0  0  0  0  0
   -5.2590    0.5484   29.4631 C   0  0  0  0  0  0  0  0  0  0  0  0
   -5.2753   -0.1245   28.2464 C   0  0  0  0  0  0  0  0  0  0  0  0
   -5.6722    0.6308   27.0784 C   0  0  0  0  0  0  0  0  0  0  0  0
   -5.7033    0.0233   25.8262 O   0  0  0  0  0  0  0  0  0  0  0  0
   -6.0237    1.9661   27.2247 N   0  0  0  0  0  0  0  0  0  0  0  0
   -5.9832    2.5886   28.4386 C   0  0  0  0  0  0  0  0  0  0  0  0
   -5.6202    1.9183   29.5435 N   0  0  0  0  0  0  0  0  0  0  0  0
   -6.3480    4.0053   28.5400 N   0  0  0  0  0  0  0  0  0  0  0  0
   -6.0206   -7.3791   23.1024 C   0  0  0  0  0  0  0  0  0  0  0  0
   -6.7678   -8.3555   23.1235 O   0  0  0  0  0  0  0  0  0  0  0  0
   -5.1781   -7.1164   21.9661 N   0  0  0  0  0  0  0  0  0  0  0  0
  1  2  2  0  0  0  0
  1  6  1  0  0  0  0
  1  7  1  0  0  0  0
  2  3  1  0  0  0  0
  3  4  2  0  0  0  0
  4  5  1  0  0  0  0
  4 20  1  0  0  0  0
  5  6  2  0  0  0  0
  7  8  1  0  0  0  0
  8  9  1  0  0  0  0
  9 10  2  0  0  0  0
  9 13  1  0  0  0  0
 10 11  1  0  0  0  0
 11 12  1  0  0  0  0
 12 13  2  0  0  0  0
 12 18  1  0  0  0  0
 13 14  1  0  0  0  0
 14 15  1  0  0  0  0
 14 16  2  0  0  0  0
 16 17  1  0  0  0  0
 17 18  2  0  0  0  0
 17 19  1  0  0  0  0
 20 21  2  0  0  0  0
 20 22  1  0  0  0  0
M  END
>  <CHROM.1>
-98.96464370,-91.05991394,165.40976137,76.80706934,-5.65971199,-2.44200686
26.73087707,-1.69180130,-1.25135329,0.40760042

>  <Name>
ligand

>  <RI>
0

>  <Rbt.Current_Directory>
/home/itssahil/PROJECTS/Mol_Feturizer/New_Systems/rnas/4LVY

>  <Rbt.Executable>
rbdock ($Id: //depot/dev/client3/rdock/2013.1/src/exe/rbdock.cxx#4 $)

>  <Rbt.Library>
libRbt.so (2013.1, Build901 2013/11/27)

>  <Rbt.Parameter_File>
/export/apps/rDock/src/rDock_2013.1_src/data/scripts/dock_solv.prm

>  <Rbt.Receptor>
prm/blind_docking_100.prm

>  <SCORE>
-11.9642

>  <SCORE.INTER>
-11.804

>  <SCORE.INTER.CONST>
1

>  <SCORE.INTER.POLAR>
0

>  <SCORE.INTER.ROT>
4

>  <SCORE.INTER.SOLV>
7.62087

>  <SCORE.INTER.VDW>
-16.6763

>  <SCORE.INTER.norm>
-0.536546

>  <SCORE.INTRA>
-0.160239

>  <SCORE.INTRA.DIHEDRAL>
0.799131

>  <SCORE.INTRA.DIHEDRAL.0>
6.18831

>  <SCORE.INTRA.POLAR>
0

>  <SCORE.INTRA.POLAR.0>
0

>  <SCORE.INTRA.REPUL>
0

>  <SCORE.INTRA.REPUL.0>
0

>  <SCORE.INTRA.SOLV>
0.0964801

>  <SCORE.INTRA.SOLV.lig_0>
-44.3465

>  <SCORE.INTRA.VDW>
-0.608045

>  <SCORE.INTRA.VDW.0>
-0.778272

>  <SCORE.INTRA.norm>
-0.00728359

>  <SCORE.RESTR>
0

>  <SCORE.RESTR.CAVITY>
0

>  <SCORE.RESTR.norm>
0

>  <SCORE.SYSTEM>
0

>  <SCORE.SYSTEM.CONST>
0

>  <SCORE.SYSTEM.DIHEDRAL>
0

>  <SCORE.SYSTEM.SOLV>
0

>  <SCORE.SYSTEM.norm>
0

>  <SCORE.heavy>
22

>  <SCORE.norm>
-0.543829

>  <RMSD>
12.645

$$$$
ligand
 OpenBabel11021811503D
libRbt.so/2013.1/901 2013/11/27
 22 24  0  0  0  0  0  0  0  0999 V2000
   -5.8101   -4.7265   26.5789 C   0  0  0  0  0  0  0  0  0  0  0  0
   -6.7279   -4.3512   25.5752 C   0  0  0  0  0  0  0  0  0  0  0  0
   -6.8178   -5.1113   24.4122 C   0  0  0  0  0  0  0  0  0  0  0  0
   -5.9927   -6.2387   24.2567 C   0  0  0  0  0  0  0  0  0  0  0  0
   -5.0640   -6.6112   25.2596 C   0  0  0  0  0  0  0  0  0  0  0  0
   -4.9754   -5.8517   26.4182 C   0  0  0  0  0  0  0  0  0  0  0  0
   -5.6857   -3.8858   27.8642 C   0  0  0  0  0  0  0  0  0  0  0  0
   -6.7208   -2.7412   28.0001 C   0  0  0  0  0  0  0  0  0  0  0  0
   -6.2818   -1.4344   27.3496 C   0  0  0  0  0  0  0  0  0  0  0  0
   -5.6933   -1.3521   26.0840 C   0  0  0  0  0  0  0  0  0  0  0  0
   -5.4497   -0.0365   25.8478 N   0  0  0  0  0  0  0  0  0  0  0  0
   -5.8481    0.7675   26.8971 C   0  0  0  0  0  0  0  0  0  0  0  0
   -6.3818   -0.0722   27.8684 C   0  0  0  0  0  0  0  0  0  0  0  0
   -6.8772    0.5472   29.0781 C   0  0  0  0  0  0  0  0  0  0  0  0
   -7.4325   -0.2318   30.0895 O   0  0  0  0  0  0  0  0  0  0  0  0
   -6.7881    1.9259   29.2164 N   0  0  0  0  0  0  0  0  0  0  0  0
   -6.2650    2.7123   28.2313 C   0  0  0  0  0  0  0  0  0  0  0  0
   -5.7955    2.1715   27.0960 N   0  0  0  0  0  0  0  0  0  0  0  0
   -6.2072    4.1658   28.4171 N   0  0  0  0  0  0  0  0  0  0  0  0
   -6.1068   -7.0396   22.9867 C   0  0  0  0  0  0  0  0  0  0  0  0
   -7.0951   -7.7435   22.7867 O   0  0  0  0  0  0  0  0  0  0  0  0
   -5.0408   -6.9696   22.0230 N   0  0  0  0  0  0  0  0  0  0  0  0
  1  2  2  0  0  0  0
  1  6  1  0  0  0  0
  1  7  1  0  0  0  0
  2  3  1  0  0  0  0
  3  4  2  0  0  0  0
  4  5  1  0  0  0  0
  4 20  1  0  0  0  0
  5  6  2  0  0  0  0
  7  8  1  0  0  0  0
  8  9  1  0  0  0  0
  9 10  2  0  0  0  0
  9 13  1  0  0  0  0
 10 11  1  0  0  0  0
 11 12  1  0  0  0  0
 12 13  2  0  0  0  0
 12 18  1  0  0  0  0
 13 14  1  0  0  0  0
 14 15  1  0  0  0  0
 14 16  2  0  0  0  0
 16 17  1  0  0  0  0
 17 18  2  0  0  0  0
 17 19  1  0  0  0  0
 20 21  2  0  0  0  0
 20 22  1  0  0  0  0
M  END
>  <CHROM.1>
6.01382356,-72.12085716,-87.55800218,44.42194142,-6.16136002,-2.33559226
26.49131273,1.33773370,-1.37508041,-2.87778489

>  <Name>
ligand

>  <RI>
0

>  <Rbt.Current_Directory>
/home/itssahil/PROJECTS/Mol_Feturizer/New_Systems/rnas/4LVY

>  <Rbt.Executable>
rbdock ($Id: //depot/dev/client3/rdock/2013.1/src/exe/rbdock.cxx#4 $)

>  <Rbt.Library>
libRbt.so (2013.1, Build901 2013/11/27)

>  <Rbt.Parameter_File>
/export/apps/rDock/src/rDock_2013.1_src/data/scripts/dock_solv.prm

>  <Rbt.Receptor>
prm/blind_docking_40.prm

>  <SCORE>
-11.7254

>  <SCORE.INTER>
-12.9655

>  <SCORE.INTER.CONST>
1

>  <SCORE.INTER.POLAR>
0

>  <SCORE.INTER.ROT>
4

>  <SCORE.INTER.SOLV>
5.35519

>  <SCORE.INTER.VDW>
-16.6954

>  <SCORE.INTER.norm>
-0.589342

>  <SCORE.INTRA>
1.24009

>  <SCORE.INTRA.DIHEDRAL>
2.63757

>  <SCORE.INTRA.DIHEDRAL.0>
6.18831

>  <SCORE.INTRA.POLAR>
0

>  <SCORE.INTRA.POLAR.0>
0

>  <SCORE.INTRA.REPUL>
0

>  <SCORE.INTRA.REPUL.0>
0

>  <SCORE.INTRA.SOLV>
-0.00611461

>  <SCORE.INTRA.SOLV.lig_0>
-44.3465

>  <SCORE.INTRA.VDW>
-0.0756417

>  <SCORE.INTRA.VDW.0>
-0.778272

>  <SCORE.INTRA.norm>
0.0563677

>  <SCORE.RESTR>
0

>  <SCORE.RESTR.CAVITY>
0

>  <SCORE.RESTR.norm>
0

>  <SCORE.SYSTEM>
0

>  <SCORE.SYSTEM.CONST>
0

>  <SCORE.SYSTEM.DIHEDRAL>
0

>  <SCORE.SYSTEM.SOLV>
0

>  <SCORE.SYSTEM.norm>
0

>  <SCORE.heavy>
22

>  <SCORE.norm>
-0.532975

>  <RMSD>
12.665

$$$$
ligand
 OpenBabel11021811503D
libRbt.so/2013.1/901 2013/11/27
 22 24  0  0  0  0  0  0  0  0999 V2000
   -5.7332   -4.7255   26.6021 C   0  0  0  0  0  0  0  0  0  0  0  0
   -6.6613   -4.3242   25.6182 C   0  0  0  0  0  0  0  0  0  0  0  0
   -6.8297   -5.1053   24.4781 C   0  0  0  0  0  0  0  0  0  0  0  0
   -6.0723   -6.2798   24.3256 C   0  0  0  0  0  0  0  0  0  0  0  0
   -5.1333   -6.6789   25.3084 C   0  0  0  0  0  0  0  0  0  0  0  0
   -4.9662   -5.8983   26.4441 C   0  0  0  0  0  0  0  0  0  0  0  0
   -5.5219   -3.8629   27.8612 C   0  0  0  0  0  0  0  0  0  0  0  0
   -6.5756   -2.7474   28.0744 C   0  0  0  0  0  0  0  0  0  0  0  0
   -6.2163   -1.4259   27.4048 C   0  0  0  0  0  0  0  0  0  0  0  0
   -5.6657   -1.3248   26.1236 C   0  0  0  0  0  0  0  0  0  0  0  0
   -5.4911   -0.0008   25.8734 N   0  0  0  0  0  0  0  0  0  0  0  0
   -5.8997    0.7908   26.9281 C   0  0  0  0  0  0  0  0  0  0  0  0
   -6.3673   -0.0663   27.9182 C   0  0  0  0  0  0  0  0  0  0  0  0
   -6.8598    0.5375   29.1368 C   0  0  0  0  0  0  0  0  0  0  0  0
   -7.3509   -0.2596   30.1671 O   0  0  0  0  0  0  0  0  0  0  0  0
   -6.8328    1.9198   29.2647 N   0  0  0  0  0  0  0  0  0  0  0  0
   -6.3735    2.7231   28.2615 C   0  0  0  0  0  0  0  0  0  0  0  0
   -5.9087    2.1971   27.1174 N   0  0  0  0  0  0  0  0  0  0  0  0
   -6.3801    4.1790   28.4372 N   0  0  0  0  0  0  0  0  0  0  0  0
   -6.2706   -7.1028   23.0804 C   0  0  0  0  0  0  0  0  0  0  0  0
   -7.1824   -7.9258   23.0224 O   0  0  0  0  0  0  0  0  0  0  0  0
   -5.3739   -6.9123   21.9715 N   0  0  0  0  0  0  0  0  0  0  0  0
  1  2  2  0  0  0  0
  1  6  1  0  0  0  0
  1  7  1  0  0  0  0
  2  3  1  0  0  0  0
  3  4  2  0  0  0  0
  4  5  1  0  0  0  0
  4 20  1  0  0  0  0
  5  6  2  0  0  0  0
  7  8  1  0  0  0  0
  8  9  1  0  0  0  0
  9 10  2  0  0  0  0
  9 13  1  0  0  0  0
 10 11  1  0  0  0  0
 11 12  1  0  0  0  0
 12 13  2  0  0  0  0
 12 18  1  0  0  0  0
 13 14  1  0  0  0  0
 14 15  1  0  0  0  0
 14 16  2  0  0  0  0
 16 17  1  0  0  0  0
 17 18  2  0  0  0  0
 17 19  1  0  0  0  0
 20 21  2  0  0  0  0
 20 22  1  0  0  0  0
M  END
>  <CHROM.1>
11.87777564,-84.40475249,-89.19439032,41.68907071,-6.18974917,-2.34535030
26.54205393,1.25278475,-1.44525945,-2.97239898

>  <Name>
ligand

>  <RI>
0

>  <Rbt.Current_Directory>
/home/itssahil/PROJECTS/Mol_Feturizer/New_Systems/rnas/4LVY

>  <Rbt.Executable>
rbdock ($Id: //depot/dev/client3/rdock/2013.1/src/exe/rbdock.cxx#4 $)

>  <Rbt.Library>
libRbt.so (2013.1, Build901 2013/11/27)

>  <Rbt.Parameter_File>
/export/apps/rDock/src/rDock_2013.1_src/data/scripts/dock_solv.prm

>  <Rbt.Receptor>
prm/blind_docking_80.prm

>  <SCORE>
-11.6506

>  <SCORE.INTER>
-12.9905

>  <SCORE.INTER.CONST>
1

>  <SCORE.INTER.POLAR>
0

>  <SCORE.INTER.ROT>
4

>  <SCORE.INTER.SOLV>
4.61156

>  <SCORE.INTER.VDW>
-16.4642

>  <SCORE.INTER.norm>
-0.590477

>  <SCORE.INTRA>
1.33993

>  <SCORE.INTRA.DIHEDRAL>
2.86497

>  <SCORE.INTRA.DIHEDRAL.0>
6.18831

>  <SCORE.INTRA.POLAR>
0

>  <SCORE.INTRA.POLAR.0>
0

>  <SCORE.INTRA.REPUL>
0

>  <SCORE.INTRA.REPUL.0>
0

>  <SCORE.INTRA.SOLV>
-0.00727524

>  <SCORE.INTRA.SOLV.lig_0>
-44.3465

>  <SCORE.INTRA.VDW>
-0.0889212

>  <SCORE.INTRA.VDW.0>
-0.778272

>  <SCORE.INTRA.norm>
0.0609058

>  <SCORE.RESTR>
0

>  <SCORE.RESTR.CAVITY>
0

>  <SCORE.RESTR.norm>
0

>  <SCORE.SYSTEM>
0

>  <SCORE.SYSTEM.CONST>
0

>  <SCORE.SYSTEM.DIHEDRAL>
0

>  <SCORE.SYSTEM.SOLV>
0

>  <SCORE.SYSTEM.norm>
0

>  <SCORE.heavy>
22

>  <SCORE.norm>
-0.529572

>  <RMSD>
12.717

$$$$
ligand
 OpenBabel11021811503D
libRbt.so/2013.1/901 2013/11/27
 22 24  0  0  0  0  0  0  0  0999 V2000
   -4.8253   -4.4986   26.7266 C   0  0  0  0  0  0  0  0  0  0  0  0
   -6.1314   -4.1352   26.3360 C   0  0  0  0  0  0  0  0  0  0  0  0
   -6.7577   -4.8358   25.3088 C   0  0  0  0  0  0  0  0  0  0  0  0
   -6.0788   -5.8925   24.6774 C   0  0  0  0  0  0  0  0  0  0  0  0
   -4.7638   -6.2524   25.0622 C   0  0  0  0  0  0  0  0  0  0  0  0
   -4.1406   -5.5521   26.0861 C   0  0  0  0  0  0  0  0  0  0  0  0
   -4.1113   -3.7218   27.8495 C   0  0  0  0  0  0  0  0  0  0  0  0
   -3.5460   -2.3410   27.4325 C   0  0  0  0  0  0  0  0  0  0  0  0
   -4.6193   -1.3194   27.0750 C   0  0  0  0  0  0  0  0  0  0  0  0
   -4.8099   -0.8057   25.7887 C   0  0  0  0  0  0  0  0  0  0  0  0
   -5.8515    0.0635   25.8621 N   0  0  0  0  0  0  0  0  0  0  0  0
   -6.3685    0.1563   27.1389 C   0  0  0  0  0  0  0  0  0  0  0  0
   -5.6224   -0.7017   27.9393 C   0  0  0  0  0  0  0  0  0  0  0  0
   -5.9827   -0.7816   29.3379 C   0  0  0  0  0  0  0  0  0  0  0  0
   -5.2840   -1.6263   30.1962 O   0  0  0  0  0  0  0  0  0  0  0  0
   -7.0305   -0.0032   29.8112 N   0  0  0  0  0  0  0  0  0  0  0  0
   -7.7422    0.8183   28.9858 C   0  0  0  0  0  0  0  0  0  0  0  0
   -7.4353    0.9176   27.6828 N   0  0  0  0  0  0  0  0  0  0  0  0
   -8.8514    1.6088   29.5292 N   0  0  0  0  0  0  0  0  0  0  0  0
   -6.7777   -6.6297   23.5660 C   0  0  0  0  0  0  0  0  0  0  0  0
   -6.7124   -6.2127   22.4111 O   0  0  0  0  0  0  0  0  0  0  0  0
   -7.5230   -7.8191   23.8824 N   0  0  0  0  0  0  0  0  0  0  0  0
  1  2  2  0  0  0  0
  1  6  1  0  0  0  0
  1  7  1  0  0  0  0
  2  3  1  0  0  0  0
  3  4  2  0  0  0  0
  4  5  1  0  0  0  0
  4 20  1  0  0  0  0
  5  6  2  0  0  0  0
  7  8  1  0  0  0  0
  8  9  1  0  0  0  0
  9 10  2  0  0  0  0
  9 13  1  0  0  0  0
 10 11  1  0  0  0  0
 11 12  1  0  0  0  0
 12 13  2  0  0  0  0
 12 18  1  0  0  0  0
 13 14  1  0  0  0  0
 14 15  1  0  0  0  0
 14 16  2  0  0  0  0
 16 17  1  0  0  0  0
 17 18  2  0  0  0  0
 17 19  1  0  0  0  0
 20 21  2  0  0  0  0
 20 22  1  0  0  0  0
M  END
>  <CHROM.1>
-76.90281868,86.50434147,66.57684795,-113.28807581,-5.97262378,-2.68789569
26.77893393,-1.48208993,-0.55996405,0.64649230

>  <Name>
ligand

>  <RI>
0

>  <Rbt.Current_Directory>
/home/itssahil/PROJECTS/Mol_Feturizer/New_Systems/rnas/4LVY

>  <Rbt.Executable>
rbdock ($Id: //depot/dev/client3/rdock/2013.1/src/exe/rbdock.cxx#4 $)

>  <Rbt.Library>
libRbt.so (2013.1, Build901 2013/11/27)

>  <Rbt.Parameter_File>
/export/apps/rDock/src/rDock_2013.1_src/data/scripts/dock_solv.prm

>  <Rbt.Receptor>
prm/blind_docking_40.prm

>  <SCORE>
-13.363

>  <SCORE.INTER>
-12.1609

>  <SCORE.INTER.CONST>
1

>  <SCORE.INTER.POLAR>
0

>  <SCORE.INTER.ROT>
4

>  <SCORE.INTER.SOLV>
5.2775

>  <SCORE.INTER.VDW>
-16.1331

>  <SCORE.INTER.norm>
-0.552766

>  <SCORE.INTRA>
-1.20219

>  <SCORE.INTRA.DIHEDRAL>
0.161413

>  <SCORE.INTRA.DIHEDRAL.0>
6.18831

>  <SCORE.INTRA.POLAR>
0

>  <SCORE.INTRA.POLAR.0>
0

>  <SCORE.INTRA.REPUL>
0

>  <SCORE.INTRA.REPUL.0>
0

>  <SCORE.INTRA.SOLV>
0.257964

>  <SCORE.INTRA.SOLV.lig_0>
-44.3465

>  <SCORE.INTRA.VDW>
-1.41188

>  <SCORE.INTRA.VDW.0>
-0.778272

>  <SCORE.INTRA.norm>
-0.0546449

>  <SCORE.RESTR>
0

>  <SCORE.RESTR.CAVITY>
0

>  <SCORE.RESTR.norm>
0

>  <SCORE.SYSTEM>
0

>  <SCORE.SYSTEM.CONST>
0

>  <SCORE.SYSTEM.DIHEDRAL>
0

>  <SCORE.SYSTEM.SOLV>
0

>  <SCORE.SYSTEM.norm>
0

>  <SCORE.heavy>
22

>  <SCORE.norm>
-0.607411

>  <RMSD>
12.753

$$$$
ligand
 OpenBabel11021811503D
libRbt.so/2013.1/901 2013/11/27
 22 24  0  0  0  0  0  0  0  0999 V2000
   -5.9264   -4.8668   26.2004 C   0  0  0  0  0  0  0  0  0  0  0  0
   -5.1524   -6.0462   26.1802 C   0  0  0  0  0  0  0  0  0  0  0  0
   -5.2378   -6.9013   25.0848 C   0  0  0  0  0  0  0  0  0  0  0  0
   -6.0939   -6.5765   24.0182 C   0  0  0  0  0  0  0  0  0  0  0  0
   -6.8787   -5.3974   24.0414 C   0  0  0  0  0  0  0  0  0  0  0  0
   -6.7927   -4.5463   25.1348 C   0  0  0  0  0  0  0  0  0  0  0  0
   -5.8569   -3.9188   27.4131 C   0  0  0  0  0  0  0  0  0  0  0  0
   -4.6230   -2.9825   27.4418 C   0  0  0  0  0  0  0  0  0  0  0  0
   -4.7345   -1.8489   28.4547 C   0  0  0  0  0  0  0  0  0  0  0  0
   -4.3863   -1.9707   29.8033 C   0  0  0  0  0  0  0  0  0  0  0  0
   -4.6149   -0.7618   30.3798 N   0  0  0  0  0  0  0  0  0  0  0  0
   -5.1004    0.1654   29.4794 C   0  0  0  0  0  0  0  0  0  0  0  0
   -5.1907   -0.4762   28.2490 C   0  0  0  0  0  0  0  0  0  0  0  0
   -5.6775    0.3025   27.1315 C   0  0  0  0  0  0  0  0  0  0  0  0
   -5.7859   -0.2729   25.8685 O   0  0  0  0  0  0  0  0  0  0  0  0
   -6.0370    1.6278   27.3372 N   0  0  0  0  0  0  0  0  0  0  0  0
   -5.9221    2.2194   28.5617 C   0  0  0  0  0  0  0  0  0  0  0  0
   -5.4746    1.5268   29.6209 N   0  0  0  0  0  0  0  0  0  0  0  0
   -6.2991    3.6271   28.7257 N   0  0  0  0  0  0  0  0  0  0  0  0
   -6.1708   -7.5218   22.8487 C   0  0  0  0  0  0  0  0  0  0  0  0
   -5.3363   -7.4594   21.9477 O   0  0  0  0  0  0  0  0  0  0  0  0
   -7.2366   -8.4873   22.8047 N   0  0  0  0  0  0  0  0  0  0  0  0
  1  2  2  0  0  0  0
  1  6  1  0  0  0  0
  1  7  1  0  0  0  0
  2  3  1  0  0  0  0
  3  4  2  0  0  0  0
  4  5  1  0  0  0  0
  4 20  1  0  0  0  0
  5  6  2  0  0  0  0
  7  8  1  0  0  0  0
  8  9  1  0  0  0  0
  9 10  2  0  0  0  0
  9 13  1  0  0  0  0
 10 11  1  0  0  0  0
 11 12  1  0  0  0  0
 12 13  2  0  0  0  0
 12 18  1  0  0  0  0
 13 14  1  0  0  0  0
 14 15  1  0  0  0  0
 14 16  2  0  0  0  0
 16 17  1  0  0  0  0
 17 18  2  0  0  0  0
 17 19  1  0  0  0  0
 20 21  2  0  0  0  0
 20 22  1  0  0  0  0
M  END
>  <CHROM.1>
79.49400757,-83.62228932,166.61356316,85.34744593,-5.66118063,-2.71505475
26.64163309,-1.73332820,-1.17120908,0.41398441

>  <Name>
ligand

>  <RI>
0

>  <Rbt.Current_Directory>
/home/itssahil/PROJECTS/Mol_Feturizer/New_Systems/rnas/4LVY

>  <Rbt.Executable>
rbdock ($Id: //depot/dev/client3/rdock/2013.1/src/exe/rbdock.cxx#4 $)

>  <Rbt.Library>
libRbt.so (2013.1, Build901 2013/11/27)

>  <Rbt.Parameter_File>
/export/apps/rDock/src/rDock_2013.1_src/data/scripts/dock_solv.prm

>  <Rbt.Receptor>
prm/blind_docking_60.prm

>  <SCORE>
-11.3994

>  <SCORE.INTER>
-11.2157

>  <SCORE.INTER.CONST>
1

>  <SCORE.INTER.POLAR>
0

>  <SCORE.INTER.ROT>
4

>  <SCORE.INTER.SOLV>
6.67739

>  <SCORE.INTER.VDW>
-15.9696

>  <SCORE.INTER.norm>
-0.509804

>  <SCORE.INTRA>
-0.187761

>  <SCORE.INTRA.DIHEDRAL>
0.807579

>  <SCORE.INTRA.DIHEDRAL.0>
6.18831

>  <SCORE.INTRA.POLAR>
0

>  <SCORE.INTRA.POLAR.0>
0

>  <SCORE.INTRA.REPUL>
0

>  <SCORE.INTRA.REPUL.0>
0

>  <SCORE.INTRA.SOLV>
0.130968

>  <SCORE.INTRA.SOLV.lig_0>
-44.3465

>  <SCORE.INTRA.VDW>
-0.657035

>  <SCORE.INTRA.VDW.0>
-0.778272

>  <SCORE.INTRA.norm>
-0.00853461

>  <SCORE.RESTR>
0.0040156

>  <SCORE.RESTR.CAVITY>
0.0040156

>  <SCORE.RESTR.norm>
0.000182527

>  <SCORE.SYSTEM>
0

>  <SCORE.SYSTEM.CONST>
0

>  <SCORE.SYSTEM.DIHEDRAL>
0

>  <SCORE.SYSTEM.SOLV>
0

>  <SCORE.SYSTEM.norm>
0

>  <SCORE.heavy>
22

>  <SCORE.norm>
-0.518156

>  <RMSD>
12.783

$$$$
ligand
 OpenBabel11021811503D
libRbt.so/2013.1/901 2013/11/27
 22 24  0  0  0  0  0  0  0  0999 V2000
   -3.0955   -5.9040   20.3554 C   0  0  0  0  0  0  0  0  0  0  0  0
   -4.1418   -4.9833   20.1359 C   0  0  0  0  0  0  0  0  0  0  0  0
   -5.3491   -5.1470   20.8098 C   0  0  0  0  0  0  0  0  0  0  0  0
   -5.5061   -6.2265   21.6965 C   0  0  0  0  0  0  0  0  0  0  0  0
   -4.4596   -7.1571   21.9106 C   0  0  0  0  0  0  0  0  0  0  0  0
   -3.2568   -6.9926   21.2372 C   0  0  0  0  0  0  0  0  0  0  0  0
   -1.7595   -5.7473   19.6040 C   0  0  0  0  0  0  0  0  0  0  0  0
   -1.5465   -4.3696   18.9283 C   0  0  0  0  0  0  0  0  0  0  0  0
   -0.0984   -4.0907   18.5429 C   0  0  0  0  0  0  0  0  0  0  0  0
    0.9783   -4.1925   19.4291 C   0  0  0  0  0  0  0  0  0  0  0  0
    2.0976   -3.8766   18.7268 N   0  0  0  0  0  0  0  0  0  0  0  0
    1.8211   -3.5678   17.4099 C   0  0  0  0  0  0  0  0  0  0  0  0
    0.4457   -3.6915   17.2470 C   0  0  0  0  0  0  0  0  0  0  0  0
   -0.0914   -3.4186   15.9319 C   0  0  0  0  0  0  0  0  0  0  0  0
   -1.4585   -3.5309   15.6944 O   0  0  0  0  0  0  0  0  0  0  0  0
    0.7739   -3.0410   14.9138 N   0  0  0  0  0  0  0  0  0  0  0  0
    2.1197   -2.9421   15.1174 C   0  0  0  0  0  0  0  0  0  0  0  0
    2.6525   -3.1876   16.3247 N   0  0  0  0  0  0  0  0  0  0  0  0
    2.9952   -2.5555   14.0063 N   0  0  0  0  0  0  0  0  0  0  0  0
   -6.8239   -6.3827   22.4079 C   0  0  0  0  0  0  0  0  0  0  0  0
   -7.2221   -5.5046   23.1710 O   0  0  0  0  0  0  0  0  0  0  0  0
   -7.5979   -7.5745   22.1829 N   0  0  0  0  0  0  0  0  0  0  0  0
  1  2  2  0  0  0  0
  1  6  1  0  0  0  0
  1  7  1  0  0  0  0
  2  3  1  0  0  0  0
  3  4  2  0  0  0  0
  4  5  1  0  0  0  0
  4 20  1  0  0  0  0
  5  6  2  0  0  0  0
  7  8  1  0  0  0  0
  8  9  1  0  0  0  0
  9 10  2  0  0  0  0
  9 13  1  0  0  0  0
 10 11  1  0  0  0  0
 11 12  1  0  0  0  0
 12 13  2  0  0  0  0
 12 18  1  0  0  0  0
 13 14  1  0  0  0  0
 14 15  1  0  0  0  0
 14 16  2  0  0  0  0
 16 17  1  0  0  0  0
 17 18  2  0  0  0  0
 17 19  1  0  0  0  0
 20 21  2  0  0  0  0
 20 22  1  0  0  0  0
M  END
>  <CHROM.1>
15.02989949,-61.77473776,163.51437403,-52.66509430,-1.75435386,-4.70590019
18.86112203,-2.41804694,-0.08282789,-1.18188641

>  <Name>
ligand

>  <RI>
0

>  <Rbt.Current_Directory>
/home/itssahil/PROJECTS/Mol_Feturizer/New_Systems/rnas/4LVY

>  <Rbt.Executable>
rbdock ($Id: //depot/dev/client3/rdock/2013.1/src/exe/rbdock.cxx#4 $)

>  <Rbt.Library>
libRbt.so (2013.1, Build901 2013/11/27)

>  <Rbt.Parameter_File>
/export/apps/rDock/src/rDock_2013.1_src/data/scripts/dock_solv.prm

>  <Rbt.Receptor>
prm/blind_docking_40.prm

>  <SCORE>
-12.3238

>  <SCORE.INTER>
-13.1336

>  <SCORE.INTER.CONST>
1

>  <SCORE.INTER.POLAR>
0

>  <SCORE.INTER.ROT>
4

>  <SCORE.INTER.SOLV>
7.30014

>  <SCORE.INTER.VDW>
-17.4558

>  <SCORE.INTER.norm>
-0.596982

>  <SCORE.INTRA>
0.80981

>  <SCORE.INTRA.DIHEDRAL>
1.04972

>  <SCORE.INTRA.DIHEDRAL.0>
6.18831

>  <SCORE.INTRA.POLAR>
0

>  <SCORE.INTRA.POLAR.0>
0

>  <SCORE.INTRA.REPUL>
0

>  <SCORE.INTRA.REPUL.0>
0

>  <SCORE.INTRA.SOLV>
0.0198422

>  <SCORE.INTRA.SOLV.lig_0>
-44.3465

>  <SCORE.INTRA.VDW>
0.275031

>  <SCORE.INTRA.VDW.0>
-0.778272

>  <SCORE.INTRA.norm>
0.0368096

>  <SCORE.RESTR>
0

>  <SCORE.RESTR.CAVITY>
0

>  <SCORE.RESTR.norm>
0

>  <SCORE.SYSTEM>
0

>  <SCORE.SYSTEM.CONST>
0

>  <SCORE.SYSTEM.DIHEDRAL>
0

>  <SCORE.SYSTEM.SOLV>
0

>  <SCORE.SYSTEM.norm>
0

>  <SCORE.heavy>
22

>  <SCORE.norm>
-0.560173

>  <RMSD>
12.796

$$$$
ligand
 OpenBabel11021811503D
libRbt.so/2013.1/901 2013/11/27
 22 24  0  0  0  0  0  0  0  0999 V2000
   -3.5399   -4.7059   18.5388 C   0  0  0  0  0  0  0  0  0  0  0  0
   -2.1514   -4.8025   18.7701 C   0  0  0  0  0  0  0  0  0  0  0  0
   -1.2845   -4.9205   17.6872 C   0  0  0  0  0  0  0  0  0  0  0  0
   -1.8063   -4.9423   16.3820 C   0  0  0  0  0  0  0  0  0  0  0  0
   -3.2009   -4.8548   16.1488 C   0  0  0  0  0  0  0  0  0  0  0  0
   -4.0637   -4.7380   17.2299 C   0  0  0  0  0  0  0  0  0  0  0  0
   -4.5142   -4.5929   19.7272 C   0  0  0  0  0  0  0  0  0  0  0  0
   -5.1163   -5.9362   20.2096 C   0  0  0  0  0  0  0  0  0  0  0  0
   -6.0930   -5.7908   21.3708 C   0  0  0  0  0  0  0  0  0  0  0  0
   -5.7200   -5.3966   22.6593 C   0  0  0  0  0  0  0  0  0  0  0  0
   -6.8532   -5.3768   23.4086 N   0  0  0  0  0  0  0  0  0  0  0  0
   -7.9694   -5.7396   22.6816 C   0  0  0  0  0  0  0  0  0  0  0  0
   -7.5377   -6.0084   21.3874 C   0  0  0  0  0  0  0  0  0  0  0  0
   -8.5409   -6.4105   20.4260 C   0  0  0  0  0  0  0  0  0  0  0  0
   -8.1816   -6.6872   19.1098 O   0  0  0  0  0  0  0  0  0  0  0  0
   -9.8634   -6.5190   20.8350 N   0  0  0  0  0  0  0  0  0  0  0  0
  -10.2430   -6.2351   22.1148 C   0  0  0  0  0  0  0  0  0  0  0  0
   -9.3389   -5.8597   23.0331 N   0  0  0  0  0  0  0  0  0  0  0  0
  -11.6548   -6.3486   22.4950 N   0  0  0  0  0  0  0  0  0  0  0  0
   -0.8465   -5.0760   15.2295 C   0  0  0  0  0  0  0  0  0  0  0  0
   -0.6046   -6.1831   14.7520 O   0  0  0  0  0  0  0  0  0  0  0  0
   -0.2184   -3.8916   14.7074 N   0  0  0  0  0  0  0  0  0  0  0  0
  1  2  2  0  0  0  0
  1  6  1  0  0  0  0
  1  7  1  0  0  0  0
  2  3  1  0  0  0  0
  3  4  2  0  0  0  0
  4  5  1  0  0  0  0
  4 20  1  0  0  0  0
  5  6  2  0  0  0  0
  7  8  1  0  0  0  0
  8  9  1  0  0  0  0
  9 10  2  0  0  0  0
  9 13  1  0  0  0  0
 10 11  1  0  0  0  0
 11 12  1  0  0  0  0
 12 13  2  0  0  0  0
 12 18  1  0  0  0  0
 13 14  1  0  0  0  0
 14 15  1  0  0  0  0
 14 16  2  0  0  0  0
 16 17  1  0  0  0  0
 17 18  2  0  0  0  0
 17 19  1  0  0  0  0
 20 21  2  0  0  0  0
 20 22  1  0  0  0  0
M  END
>  <CHROM.1>
-94.42541175,94.71415716,-179.06128521,-67.84279540,-5.46266985,-5.52687591
19.47962569,-0.62964087,0.25722491,1.42339915

>  <Name>
ligand

>  <RI>
0

>  <Rbt.Current_Directory>
/home/itssahil/PROJECTS/Mol_Feturizer/New_Systems/rnas/4LVY

>  <Rbt.Executable>
rbdock ($Id: //depot/dev/client3/rdock/2013.1/src/exe/rbdock.cxx#4 $)

>  <Rbt.Library>
libRbt.so (2013.1, Build901 2013/11/27)

>  <Rbt.Parameter_File>
/export/apps/rDock/src/rDock_2013.1_src/data/scripts/dock_solv.prm

>  <Rbt.Receptor>
prm/blind_docking_60.prm

>  <SCORE>
-13.013

>  <SCORE.INTER>
-12.5114

>  <SCORE.INTER.CONST>
1

>  <SCORE.INTER.POLAR>
0

>  <SCORE.INTER.ROT>
4

>  <SCORE.INTER.SOLV>
11.4743

>  <SCORE.INTER.VDW>
-18.4324

>  <SCORE.INTER.norm>
-0.568699

>  <SCORE.INTRA>
-0.5017

>  <SCORE.INTRA.DIHEDRAL>
-0.0300741

>  <SCORE.INTRA.DIHEDRAL.0>
6.18831

>  <SCORE.INTRA.POLAR>
0

>  <SCORE.INTRA.POLAR.0>
0

>  <SCORE.INTRA.REPUL>
0

>  <SCORE.INTRA.REPUL.0>
0

>  <SCORE.INTRA.SOLV>
0.0647592

>  <SCORE.INTRA.SOLV.lig_0>
-44.3465

>  <SCORE.INTRA.VDW>
-0.519042

>  <SCORE.INTRA.VDW.0>
-0.778272

>  <SCORE.INTRA.norm>
-0.0228045

>  <SCORE.RESTR>
0.00012714

>  <SCORE.RESTR.CAVITY>
0.00012714

>  <SCORE.RESTR.norm>
5.7791e-06

>  <SCORE.SYSTEM>
0

>  <SCORE.SYSTEM.CONST>
0

>  <SCORE.SYSTEM.DIHEDRAL>
0

>  <SCORE.SYSTEM.SOLV>
0

>  <SCORE.SYSTEM.norm>
0

>  <SCORE.heavy>
22

>  <SCORE.norm>
-0.591498

>  <RMSD>
12.827

$$$$
ligand
 OpenBabel11021811503D
libRbt.so/2013.1/901 2013/11/27
 22 24  0  0  0  0  0  0  0  0999 V2000
   -4.8865   -5.3049   26.4138 C   0  0  0  0  0  0  0  0  0  0  0  0
   -6.0627   -4.5437   26.2468 C   0  0  0  0  0  0  0  0  0  0  0  0
   -6.8467   -4.7368   25.1126 C   0  0  0  0  0  0  0  0  0  0  0  0
   -6.4535   -5.6856   24.1527 C   0  0  0  0  0  0  0  0  0  0  0  0
   -5.2679   -6.4438   24.3146 C   0  0  0  0  0  0  0  0  0  0  0  0
   -4.4871   -6.2493   25.4458 C   0  0  0  0  0  0  0  0  0  0  0  0
   -3.9984   -5.0906   27.6546 C   0  0  0  0  0  0  0  0  0  0  0  0
   -4.3951   -3.8849   28.5428 C   0  0  0  0  0  0  0  0  0  0  0  0
   -4.3652   -2.5471   27.8128 C   0  0  0  0  0  0  0  0  0  0  0  0
   -3.2523   -2.0611   27.1199 C   0  0  0  0  0  0  0  0  0  0  0  0
   -3.6061   -0.8555   26.6027 N   0  0  0  0  0  0  0  0  0  0  0  0
   -4.9055   -0.5106   26.9169 C   0  0  0  0  0  0  0  0  0  0  0  0
   -5.4256   -1.5508   27.6793 C   0  0  0  0  0  0  0  0  0  0  0  0
   -6.7935   -1.4196   28.1308 C   0  0  0  0  0  0  0  0  0  0  0  0
   -7.3819   -2.4265   28.8911 O   0  0  0  0  0  0  0  0  0  0  0  0
   -7.5080   -0.2765   27.7982 N   0  0  0  0  0  0  0  0  0  0  0  0
   -6.9592    0.7156   27.0385 C   0  0  0  0  0  0  0  0  0  0  0  0
   -5.6927    0.6274   26.6028 N   0  0  0  0  0  0  0  0  0  0  0  0
   -7.7594    1.8968   26.6995 N   0  0  0  0  0  0  0  0  0  0  0  0
   -7.3172   -5.8703   22.9332 C   0  0  0  0  0  0  0  0  0  0  0  0
   -8.5103   -6.1412   23.0561 O   0  0  0  0  0  0  0  0  0  0  0  0
   -6.7203   -5.7307   21.6315 N   0  0  0  0  0  0  0  0  0  0  0  0
  1  2  2  0  0  0  0
  1  6  1  0  0  0  0
  1  7  1  0  0  0  0
  2  3  1  0  0  0  0
  3  4  2  0  0  0  0
  4  5  1  0  0  0  0
  4 20  1  0  0  0  0
  5  6  2  0  0  0  0
  7  8  1  0  0  0  0
  8  9  1  0  0  0  0
  9 10  2  0  0  0  0
  9 13  1  0  0  0  0
 10 11  1  0  0  0  0
 11 12  1  0  0  0  0
 12 13  2  0  0  0  0
 12 18  1  0  0  0  0
 13 14  1  0  0  0  0
 14 15  1  0  0  0  0
 14 16  2  0  0  0  0
 16 17  1  0  0  0  0
 17 18  2  0  0  0  0
 17 19  1  0  0  0  0
 20 21  2  0  0  0  0
 20 22  1  0  0  0  0
M  END
>  <CHROM.1>
-7.99619265,-55.58811395,-59.36040483,-54.34673406,-5.89493030,-3.07007411
26.22547573,-1.65148633,-0.71792131,0.51419578

>  <Name>
ligand

>  <RI>
0

>  <Rbt.Current_Directory>
/home/itssahil/PROJECTS/Mol_Feturizer/New_Systems/rnas/4LVY

>  <Rbt.Executable>
rbdock ($Id: //depot/dev/client3/rdock/2013.1/src/exe/rbdock.cxx#4 $)

>  <Rbt.Library>
libRbt.so (2013.1, Build901 2013/11/27)

>  <Rbt.Parameter_File>
/export/apps/rDock/src/rDock_2013.1_src/data/scripts/dock_solv.prm

>  <Rbt.Receptor>
prm/blind_docking_40.prm

>  <SCORE>
-12.6887

>  <SCORE.INTER>
-12.1987

>  <SCORE.INTER.CONST>
1

>  <SCORE.INTER.POLAR>
0

>  <SCORE.INTER.ROT>
4

>  <SCORE.INTER.SOLV>
9.33638

>  <SCORE.INTER.VDW>
-17.5113

>  <SCORE.INTER.norm>
-0.554487

>  <SCORE.INTRA>
-0.489986

>  <SCORE.INTRA.DIHEDRAL>
0.0727453

>  <SCORE.INTRA.DIHEDRAL.0>
6.18831

>  <SCORE.INTRA.POLAR>
0

>  <SCORE.INTRA.POLAR.0>
0

>  <SCORE.INTRA.REPUL>
0

>  <SCORE.INTRA.REPUL.0>
0

>  <SCORE.INTRA.SOLV>
0.0767783

>  <SCORE.INTRA.SOLV.lig_0>
-44.3465

>  <SCORE.INTRA.VDW>
-0.564748

>  <SCORE.INTRA.VDW.0>
-0.778272

>  <SCORE.INTRA.norm>
-0.0222721

>  <SCORE.RESTR>
0

>  <SCORE.RESTR.CAVITY>
0

>  <SCORE.RESTR.norm>
0

>  <SCORE.SYSTEM>
0

>  <SCORE.SYSTEM.CONST>
0

>  <SCORE.SYSTEM.DIHEDRAL>
0

>  <SCORE.SYSTEM.SOLV>
0

>  <SCORE.SYSTEM.norm>
0

>  <SCORE.heavy>
22

>  <SCORE.norm>
-0.576759

>  <RMSD>
12.853

$$$$
ligand
 OpenBabel11021811503D
libRbt.so/2013.1/901 2013/11/27
 22 24  0  0  0  0  0  0  0  0999 V2000
   -6.6769   -5.4188   24.5350 C   0  0  0  0  0  0  0  0  0  0  0  0
   -6.4925   -6.8150   24.6195 C   0  0  0  0  0  0  0  0  0  0  0  0
   -6.0268   -7.5116   23.5076 C   0  0  0  0  0  0  0  0  0  0  0  0
   -5.7489   -6.8132   22.3197 C   0  0  0  0  0  0  0  0  0  0  0  0
   -5.9426   -5.4127   22.2306 C   0  0  0  0  0  0  0  0  0  0  0  0
   -6.4078   -4.7200   23.3401 C   0  0  0  0  0  0  0  0  0  0  0  0
   -7.2087   -4.6357   25.7508 C   0  0  0  0  0  0  0  0  0  0  0  0
   -6.1517   -3.7768   26.4890 C   0  0  0  0  0  0  0  0  0  0  0  0
   -6.7498   -2.7688   27.4635 C   0  0  0  0  0  0  0  0  0  0  0  0
   -7.4786   -3.1230   28.6029 C   0  0  0  0  0  0  0  0  0  0  0  0
   -7.8380   -1.9651   29.2163 N   0  0  0  0  0  0  0  0  0  0  0  0
   -7.3835   -0.8503   28.5404 C   0  0  0  0  0  0  0  0  0  0  0  0
   -6.6886   -1.3094   27.4268 C   0  0  0  0  0  0  0  0  0  0  0  0
   -6.1073   -0.3136   26.5535 C   0  0  0  0  0  0  0  0  0  0  0  0
   -5.3908   -0.7015   25.4247 O   0  0  0  0  0  0  0  0  0  0  0  0
   -6.2766    1.0311   26.8552 N   0  0  0  0  0  0  0  0  0  0  0  0
   -6.9587    1.4356   27.9659 C   0  0  0  0  0  0  0  0  0  0  0  0
   -7.5116    0.5392   28.7980 N   0  0  0  0  0  0  0  0  0  0  0  0
   -7.0969    2.8675   28.2511 N   0  0  0  0  0  0  0  0  0  0  0  0
   -5.2515   -7.5922   21.1310 C   0  0  0  0  0  0  0  0  0  0  0  0
   -6.0367   -8.2497   20.4505 O   0  0  0  0  0  0  0  0  0  0  0  0
   -3.8483   -7.5565   20.8148 N   0  0  0  0  0  0  0  0  0  0  0  0
  1  2  2  0  0  0  0
  1  6  1  0  0  0  0
  1  7  1  0  0  0  0
  2  3  1  0  0  0  0
  3  4  2  0  0  0  0
  4  5  1  0  0  0  0
  4 20  1  0  0  0  0
  5  6  2  0  0  0  0
  7  8  1  0  0  0  0
  8  9  1  0  0  0  0
  9 10  2  0  0  0  0
  9 13  1  0  0  0  0
 10 11  1  0  0  0  0
 11 12  1  0  0  0  0
 12 13  2  0  0  0  0
 12 18  1  0  0  0  0
 13 14  1  0  0  0  0
 14 15  1  0  0  0  0
 14 16  2  0  0  0  0
 16 17  1  0  0  0  0
 17 18  2  0  0  0  0
 17 19  1  0  0  0  0
 20 21  2  0  0  0  0
 20 22  1  0  0  0  0
M  END
>  <CHROM.1>
106.24146190,77.61331331,166.22893455,63.99477198,-6.40864864,-3.31042961
25.45225784,1.22655996,-1.13782313,-2.77255909

>  <Name>
ligand

>  <RI>
0

>  <Rbt.Current_Directory>
/home/itssahil/PROJECTS/Mol_Feturizer/New_Systems/rnas/4LVY

>  <Rbt.Executable>
rbdock ($Id: //depot/dev/client3/rdock/2013.1/src/exe/rbdock.cxx#4 $)

>  <Rbt.Library>
libRbt.so (2013.1, Build901 2013/11/27)

>  <Rbt.Parameter_File>
/export/apps/rDock/src/rDock_2013.1_src/data/scripts/dock_solv.prm

>  <Rbt.Receptor>
prm/blind_docking_60.prm

>  <SCORE>
-10.3042

>  <SCORE.INTER>
-10.2755

>  <SCORE.INTER.CONST>
1

>  <SCORE.INTER.POLAR>
0

>  <SCORE.INTER.ROT>
4

>  <SCORE.INTER.SOLV>
8.08672

>  <SCORE.INTER.VDW>
-15.8126

>  <SCORE.INTER.norm>
-0.467069

>  <SCORE.INTRA>
-0.0286663

>  <SCORE.INTRA.DIHEDRAL>
0.864829

>  <SCORE.INTRA.DIHEDRAL.0>
6.18831

>  <SCORE.INTRA.POLAR>
0

>  <SCORE.INTRA.POLAR.0>
0

>  <SCORE.INTRA.REPUL>
0

>  <SCORE.INTRA.REPUL.0>
0

>  <SCORE.INTRA.SOLV>
0.0486786

>  <SCORE.INTRA.SOLV.lig_0>
-44.3465

>  <SCORE.INTRA.VDW>
-0.48542

>  <SCORE.INTRA.VDW.0>
-0.778272

>  <SCORE.INTRA.norm>
-0.00130302

>  <SCORE.RESTR>
0

>  <SCORE.RESTR.CAVITY>
0

>  <SCORE.RESTR.norm>
0

>  <SCORE.SYSTEM>
0

>  <SCORE.SYSTEM.CONST>
0

>  <SCORE.SYSTEM.DIHEDRAL>
0

>  <SCORE.SYSTEM.SOLV>
0

>  <SCORE.SYSTEM.norm>
0

>  <SCORE.heavy>
22

>  <SCORE.norm>
-0.468372

>  <RMSD>
12.868

$$$$
ligand
 OpenBabel11021811503D
libRbt.so/2013.1/901 2013/11/27
 22 24  0  0  0  0  0  0  0  0999 V2000
   -1.1771   -4.3391   11.7627 C   0  0  0  0  0  0  0  0  0  0  0  0
   -2.2201   -5.1202   12.3036 C   0  0  0  0  0  0  0  0  0  0  0  0
   -2.9566   -5.9524   11.4650 C   0  0  0  0  0  0  0  0  0  0  0  0
   -2.6500   -6.0001   10.0939 C   0  0  0  0  0  0  0  0  0  0  0  0
   -1.6093   -5.2092    9.5478 C   0  0  0  0  0  0  0  0  0  0  0  0
   -0.8765   -4.3795   10.3855 C   0  0  0  0  0  0  0  0  0  0  0  0
   -0.3642   -3.3995   12.6740 C   0  0  0  0  0  0  0  0  0  0  0  0
    0.3944   -4.1020   13.8277 C   0  0  0  0  0  0  0  0  0  0  0  0
   -0.4458   -4.3035   15.0835 C   0  0  0  0  0  0  0  0  0  0  0  0
   -1.7764   -4.7331   15.0713 C   0  0  0  0  0  0  0  0  0  0  0  0
   -2.1810   -4.7983   16.3667 N   0  0  0  0  0  0  0  0  0  0  0  0
   -1.1826   -4.4322   17.2473 C   0  0  0  0  0  0  0  0  0  0  0  0
   -0.0666   -4.1131   16.4816 C   0  0  0  0  0  0  0  0  0  0  0  0
    1.1243   -3.6980   17.1898 C   0  0  0  0  0  0  0  0  0  0  0  0
    2.2813   -3.3715   16.4877 O   0  0  0  0  0  0  0  0  0  0  0  0
    1.0957   -3.6272   18.5762 N   0  0  0  0  0  0  0  0  0  0  0  0
   -0.0205   -3.9601   19.2875 C   0  0  0  0  0  0  0  0  0  0  0  0
   -1.1433   -4.3489   18.6633 N   0  0  0  0  0  0  0  0  0  0  0  0
    0.0032   -3.8850   20.7519 N   0  0  0  0  0  0  0  0  0  0  0  0
   -3.4660   -6.9047    9.2089 C   0  0  0  0  0  0  0  0  0  0  0  0
   -3.5020   -8.1143    9.4271 O   0  0  0  0  0  0  0  0  0  0  0  0
   -4.1914   -6.3294    8.1076 N   0  0  0  0  0  0  0  0  0  0  0  0
  1  2  2  0  0  0  0
  1  6  1  0  0  0  0
  1  7  1  0  0  0  0
  2  3  1  0  0  0  0
  3  4  2  0  0  0  0
  4  5  1  0  0  0  0
  4 20  1  0  0  0  0
  5  6  2  0  0  0  0
  7  8  1  0  0  0  0
  8  9  1  0  0  0  0
  9 10  2  0  0  0  0
  9 13  1  0  0  0  0
 10 11  1  0  0  0  0
 11 12  1  0  0  0  0
 12 13  2  0  0  0  0
 12 18  1  0  0  0  0
 13 14  1  0  0  0  0
 14 15  1  0  0  0  0
 14 16  2  0  0  0  0
 16 17  1  0  0  0  0
 17 18  2  0  0  0  0
 17 19  1  0  0  0  0
 20 21  2  0  0  0  0
 20 22  1  0  0  0  0
M  END
>  <CHROM.1>
60.51758957,-59.59124470,-86.22865601,42.66732502,-1.10769997,-4.78435918
14.13168678,-1.97143721,0.57671910,1.53824728

>  <Name>
ligand

>  <RI>
0

>  <Rbt.Current_Directory>
/home/itssahil/PROJECTS/Mol_Feturizer/New_Systems/rnas/4LVY

>  <Rbt.Executable>
rbdock ($Id: //depot/dev/client3/rdock/2013.1/src/exe/rbdock.cxx#4 $)

>  <Rbt.Library>
libRbt.so (2013.1, Build901 2013/11/27)

>  <Rbt.Parameter_File>
/export/apps/rDock/src/rDock_2013.1_src/data/scripts/dock_solv.prm

>  <Rbt.Receptor>
prm/blind_docking_20.prm

>  <SCORE>
-8.26058

>  <SCORE.INTER>
-11.0172

>  <SCORE.INTER.CONST>
1

>  <SCORE.INTER.POLAR>
0

>  <SCORE.INTER.ROT>
4

>  <SCORE.INTER.SOLV>
7.67105

>  <SCORE.INTER.VDW>
-16.1685

>  <SCORE.INTER.norm>
-0.500781

>  <SCORE.INTRA>
0.969095

>  <SCORE.INTRA.DIHEDRAL>
2.46368

>  <SCORE.INTRA.DIHEDRAL.0>
6.18831

>  <SCORE.INTRA.POLAR>
0

>  <SCORE.INTRA.POLAR.0>
0

>  <SCORE.INTRA.REPUL>
0

>  <SCORE.INTRA.REPUL.0>
0

>  <SCORE.INTRA.SOLV>
-0.00357368

>  <SCORE.INTRA.SOLV.lig_0>
-44.3465

>  <SCORE.INTRA.VDW>
-0.260957

>  <SCORE.INTRA.VDW.0>
-0.778272

>  <SCORE.INTRA.norm>
0.0440498

>  <SCORE.RESTR>
1.78751

>  <SCORE.RESTR.CAVITY>
1.78751

>  <SCORE.RESTR.norm>
0.0812504

>  <SCORE.SYSTEM>
0

>  <SCORE.SYSTEM.CONST>
0

>  <SCORE.SYSTEM.DIHEDRAL>
0

>  <SCORE.SYSTEM.SOLV>
0

>  <SCORE.SYSTEM.norm>
0

>  <SCORE.heavy>
22

>  <SCORE.norm>
-0.375481

>  <RMSD>
12.878

$$$$
ligand
 OpenBabel11021811503D
libRbt.so/2013.1/901 2013/11/27
 22 24  0  0  0  0  0  0  0  0999 V2000
   -4.0743   -5.9872   20.1764 C   0  0  0  0  0  0  0  0  0  0  0  0
   -3.7815   -7.0352   21.0745 C   0  0  0  0  0  0  0  0  0  0  0  0
   -4.4942   -7.1332   22.2665 C   0  0  0  0  0  0  0  0  0  0  0  0
   -5.4925   -6.1866   22.5560 C   0  0  0  0  0  0  0  0  0  0  0  0
   -5.7809   -5.1284   21.6594 C   0  0  0  0  0  0  0  0  0  0  0  0
   -5.0687   -5.0319   20.4717 C   0  0  0  0  0  0  0  0  0  0  0  0
   -3.2825   -5.8542   18.8613 C   0  0  0  0  0  0  0  0  0  0  0  0
   -2.2894   -4.6662   18.8128 C   0  0  0  0  0  0  0  0  0  0  0  0
   -1.6887   -4.4225   17.4332 C   0  0  0  0  0  0  0  0  0  0  0  0
   -2.4056   -4.5391   16.2385 C   0  0  0  0  0  0  0  0  0  0  0  0
   -1.5432   -4.2427   15.2313 N   0  0  0  0  0  0  0  0  0  0  0  0
   -0.2806   -3.9326   15.6958 C   0  0  0  0  0  0  0  0  0  0  0  0
   -0.3255   -4.0312   17.0821 C   0  0  0  0  0  0  0  0  0  0  0  0
    0.8942   -3.7447   17.8050 C   0  0  0  0  0  0  0  0  0  0  0  0
    0.9199   -3.8156   19.1951 O   0  0  0  0  0  0  0  0  0  0  0  0
    2.0364   -3.4020   17.0939 N   0  0  0  0  0  0  0  0  0  0  0  0
    2.0312   -3.3078   15.7324 C   0  0  0  0  0  0  0  0  0  0  0  0
    0.9176   -3.5670   15.0293 N   0  0  0  0  0  0  0  0  0  0  0  0
    3.2588   -2.9263   15.0267 N   0  0  0  0  0  0  0  0  0  0  0  0
   -6.2441   -6.3133   23.8545 C   0  0  0  0  0  0  0  0  0  0  0  0
   -7.1643   -7.1221   23.9596 O   0  0  0  0  0  0  0  0  0  0  0  0
   -5.8702   -5.4700   24.9587 N   0  0  0  0  0  0  0  0  0  0  0  0
  1  2  2  0  0  0  0
  1  6  1  0  0  0  0
  1  7  1  0  0  0  0
  2  3  1  0  0  0  0
  3  4  2  0  0  0  0
  4  5  1  0  0  0  0
  4 20  1  0  0  0  0
  5  6  2  0  0  0  0
  7  8  1  0  0  0  0
  8  9  1  0  0  0  0
  9 10  2  0  0  0  0
  9 13  1  0  0  0  0
 10 11  1  0  0  0  0
 11 12  1  0  0  0  0
 12 13  2  0  0  0  0
 12 18  1  0  0  0  0
 13 14  1  0  0  0  0
 14 15  1  0  0  0  0
 14 16  2  0  0  0  0
 16 17  1  0  0  0  0
 17 18  2  0  0  0  0
 17 19  1  0  0  0  0
 20 21  2  0  0  0  0
 20 22  1  0  0  0  0
M  END
>  <CHROM.1>
-108.19951836,-79.94304507,-170.66115478,38.88486875,-2.22135828,-4.88932011
19.10906352,2.36615618,0.31484037,1.63619642

>  <Name>
ligand

>  <RI>
0

>  <Rbt.Current_Directory>
/home/itssahil/PROJECTS/Mol_Feturizer/New_Systems/rnas/4LVY

>  <Rbt.Executable>
rbdock ($Id: //depot/dev/client3/rdock/2013.1/src/exe/rbdock.cxx#4 $)

>  <Rbt.Library>
libRbt.so (2013.1, Build901 2013/11/27)

>  <Rbt.Parameter_File>
/export/apps/rDock/src/rDock_2013.1_src/data/scripts/dock_solv.prm

>  <Rbt.Receptor>
prm/blind_docking_80.prm

>  <SCORE>
-11.736

>  <SCORE.INTER>
-11.6664

>  <SCORE.INTER.CONST>
1

>  <SCORE.INTER.POLAR>
0

>  <SCORE.INTER.ROT>
4

>  <SCORE.INTER.SOLV>
11.785

>  <SCORE.INTER.VDW>
-17.9726

>  <SCORE.INTER.norm>
-0.530292

>  <SCORE.INTRA>
-0.06956

>  <SCORE.INTRA.DIHEDRAL>
0.293648

>  <SCORE.INTRA.DIHEDRAL.0>
6.18831

>  <SCORE.INTRA.POLAR>
0

>  <SCORE.INTRA.POLAR.0>
0

>  <SCORE.INTRA.REPUL>
0

>  <SCORE.INTRA.REPUL.0>
0

>  <SCORE.INTRA.SOLV>
-0.00701715

>  <SCORE.INTRA.SOLV.lig_0>
-44.3465

>  <SCORE.INTRA.VDW>
-0.212876

>  <SCORE.INTRA.VDW.0>
-0.778272

>  <SCORE.INTRA.norm>
-0.00316182

>  <SCORE.RESTR>
0

>  <SCORE.RESTR.CAVITY>
0

>  <SCORE.RESTR.norm>
0

>  <SCORE.SYSTEM>
0

>  <SCORE.SYSTEM.CONST>
0

>  <SCORE.SYSTEM.DIHEDRAL>
0

>  <SCORE.SYSTEM.SOLV>
0

>  <SCORE.SYSTEM.norm>
0

>  <SCORE.heavy>
22

>  <SCORE.norm>
-0.533454

>  <RMSD>
12.879

$$$$
ligand
 OpenBabel11021811503D
libRbt.so/2013.1/901 2013/11/27
 22 24  0  0  0  0  0  0  0  0999 V2000
   -1.0637   -4.3031   11.8161 C   0  0  0  0  0  0  0  0  0  0  0  0
   -2.1332   -5.0972   12.2812 C   0  0  0  0  0  0  0  0  0  0  0  0
   -2.8431   -5.8843   11.3785 C   0  0  0  0  0  0  0  0  0  0  0  0
   -2.4836   -5.8745   10.0195 C   0  0  0  0  0  0  0  0  0  0  0  0
   -1.4161   -5.0704    9.5497 C   0  0  0  0  0  0  0  0  0  0  0  0
   -0.7099   -4.2856   10.4512 C   0  0  0  0  0  0  0  0  0  0  0  0
   -0.2794   -3.4126   12.7991 C   0  0  0  0  0  0  0  0  0  0  0  0
    0.5737   -4.1804   13.8395 C   0  0  0  0  0  0  0  0  0  0  0  0
   -0.2040   -4.6049   15.0799 C   0  0  0  0  0  0  0  0  0  0  0  0
   -1.3631   -5.3861   15.0445 C   0  0  0  0  0  0  0  0  0  0  0  0
   -1.7609   -5.5590   16.3321 N   0  0  0  0  0  0  0  0  0  0  0  0
   -0.9215   -4.9295   17.2296 C   0  0  0  0  0  0  0  0  0  0  0  0
    0.0783   -4.3149   16.4838 C   0  0  0  0  0  0  0  0  0  0  0  0
    1.0927   -3.5853   17.2124 C   0  0  0  0  0  0  0  0  0  0  0  0
    2.1285   -2.9522   16.5309 O   0  0  0  0  0  0  0  0  0  0  0  0
    1.0165   -3.5232   18.5974 N   0  0  0  0  0  0  0  0  0  0  0  0
    0.0215   -4.1511   19.2890 C   0  0  0  0  0  0  0  0  0  0  0  0
   -0.9365   -4.8366   18.6454 N   0  0  0  0  0  0  0  0  0  0  0  0
   -0.0073   -4.0704   20.7529 N   0  0  0  0  0  0  0  0  0  0  0  0
   -3.2717   -6.7312    9.0644 C   0  0  0  0  0  0  0  0  0  0  0  0
   -2.7708   -7.7489    8.5897 O   0  0  0  0  0  0  0  0  0  0  0  0
   -4.6099   -6.3334    8.7166 N   0  0  0  0  0  0  0  0  0  0  0  0
  1  2  2  0  0  0  0
  1  6  1  0  0  0  0
  1  7  1  0  0  0  0
  2  3  1  0  0  0  0
  3  4  2  0  0  0  0
  4  5  1  0  0  0  0
  4 20  1  0  0  0  0
  5  6  2  0  0  0  0
  7  8  1  0  0  0  0
  8  9  1  0  0  0  0
  9 10  2  0  0  0  0
  9 13  1  0  0  0  0
 10 11  1  0  0  0  0
 11 12  1  0  0  0  0
 12 13  2  0  0  0  0
 12 18  1  0  0  0  0
 13 14  1  0  0  0  0
 14 15  1  0  0  0  0
 14 16  2  0  0  0  0
 16 17  1  0  0  0  0
 17 18  2  0  0  0  0
 17 19  1  0  0  0  0
 20 21  2  0  0  0  0
 20 22  1  0  0  0  0
M  END
>  <CHROM.1>
67.96352563,-107.81148611,-85.02309544,56.25749631,-0.96824721,-4.85527099
14.11273608,-1.97823107,0.64574663,1.59488264

>  <Name>
ligand

>  <RI>
0

>  <Rbt.Current_Directory>
/home/itssahil/PROJECTS/Mol_Feturizer/New_Systems/rnas/4LVY

>  <Rbt.Executable>
rbdock ($Id: //depot/dev/client3/rdock/2013.1/src/exe/rbdock.cxx#4 $)

>  <Rbt.Library>
libRbt.so (2013.1, Build901 2013/11/27)

>  <Rbt.Parameter_File>
/export/apps/rDock/src/rDock_2013.1_src/data/scripts/dock_solv.prm

>  <Rbt.Receptor>
prm/blind_docking_20.prm

>  <SCORE>
-8.40603

>  <SCORE.INTER>
-10.7733

>  <SCORE.INTER.CONST>
1

>  <SCORE.INTER.POLAR>
0

>  <SCORE.INTER.ROT>
4

>  <SCORE.INTER.SOLV>
8.5976

>  <SCORE.INTER.VDW>
-16.3148

>  <SCORE.INTER.norm>
-0.489697

>  <SCORE.INTRA>
0.555647

>  <SCORE.INTRA.DIHEDRAL>
2.30171

>  <SCORE.INTRA.DIHEDRAL.0>
6.18831

>  <SCORE.INTRA.POLAR>
0

>  <SCORE.INTRA.POLAR.0>
0

>  <SCORE.INTRA.REPUL>
0

>  <SCORE.INTRA.REPUL.0>
0

>  <SCORE.INTRA.SOLV>
0.0268961

>  <SCORE.INTRA.SOLV.lig_0>
-44.3465

>  <SCORE.INTRA.VDW>
-0.608655

>  <SCORE.INTRA.VDW.0>
-0.778272

>  <SCORE.INTRA.norm>
0.0252567

>  <SCORE.RESTR>
1.81166

>  <SCORE.RESTR.CAVITY>
1.81166

>  <SCORE.RESTR.norm>
0.082348

>  <SCORE.SYSTEM>
0

>  <SCORE.SYSTEM.CONST>
0

>  <SCORE.SYSTEM.DIHEDRAL>
0

>  <SCORE.SYSTEM.SOLV>
0

>  <SCORE.SYSTEM.norm>
0

>  <SCORE.heavy>
22

>  <SCORE.norm>
-0.382092

>  <RMSD>
12.898

$$$$
ligand
 OpenBabel11021811503D
libRbt.so/2013.1/901 2013/11/27
 22 24  0  0  0  0  0  0  0  0999 V2000
   -4.0089   -5.9541   20.1604 C   0  0  0  0  0  0  0  0  0  0  0  0
   -5.0255   -5.0175   20.4430 C   0  0  0  0  0  0  0  0  0  0  0  0
   -5.7639   -5.1432   21.6166 C   0  0  0  0  0  0  0  0  0  0  0  0
   -5.4853   -6.2009   22.4998 C   0  0  0  0  0  0  0  0  0  0  0  0
   -4.4712   -7.1474   22.2127 C   0  0  0  0  0  0  0  0  0  0  0  0
   -3.7365   -7.0208   21.0417 C   0  0  0  0  0  0  0  0  0  0  0  0
   -3.1946   -5.8396   18.8573 C   0  0  0  0  0  0  0  0  0  0  0  0
   -2.2026   -4.6507   18.8081 C   0  0  0  0  0  0  0  0  0  0  0  0
   -1.6086   -4.4021   17.4265 C   0  0  0  0  0  0  0  0  0  0  0  0
   -2.3316   -4.5133   16.2349 C   0  0  0  0  0  0  0  0  0  0  0  0
   -1.4740   -4.2137   15.2245 N   0  0  0  0  0  0  0  0  0  0  0  0
   -0.2089   -3.9063   15.6839 C   0  0  0  0  0  0  0  0  0  0  0  0
   -0.2469   -4.0104   17.0700 C   0  0  0  0  0  0  0  0  0  0  0  0
    0.9766   -3.7278   17.7880 C   0  0  0  0  0  0  0  0  0  0  0  0
    1.0093   -3.8042   19.1777 O   0  0  0  0  0  0  0  0  0  0  0  0
    2.1156   -3.3832   17.0725 N   0  0  0  0  0  0  0  0  0  0  0  0
    2.1036   -3.2835   15.7114 C   0  0  0  0  0  0  0  0  0  0  0  0
    0.9862   -3.5391   15.0129 N   0  0  0  0  0  0  0  0  0  0  0  0
    3.3280   -2.9001   15.0011 N   0  0  0  0  0  0  0  0  0  0  0  0
   -6.3027   -6.3161   23.7591 C   0  0  0  0  0  0  0  0  0  0  0  0
   -6.1957   -5.4700   24.6449 O   0  0  0  0  0  0  0  0  0  0  0  0
   -7.1994   -7.4316   23.9056 N   0  0  0  0  0  0  0  0  0  0  0  0
  1  2  2  0  0  0  0
  1  6  1  0  0  0  0
  1  7  1  0  0  0  0
  2  3  1  0  0  0  0
  3  4  2  0  0  0  0
  4  5  1  0  0  0  0
  4 20  1  0  0  0  0
  5  6  2  0  0  0  0
  7  8  1  0  0  0  0
  8  9  1  0  0  0  0
  9 10  2  0  0  0  0
  9 13  1  0  0  0  0
 10 11  1  0  0  0  0
 11 12  1  0  0  0  0
 12 13  2  0  0  0  0
 12 18  1  0  0  0  0
 13 14  1  0  0  0  0
 14 15  1  0  0  0  0
 14 16  2  0  0  0  0
 16 17  1  0  0  0  0
 17 18  2  0  0  0  0
 17 19  1  0  0  0  0
 20 21  2  0  0  0  0
 20 22  1  0  0  0  0
M  END
>  <CHROM.1>
71.17502084,-67.84982923,-169.01297446,38.97843298,-2.17945267,-4.87956721
19.07429613,2.37784336,0.31148956,1.64134635

>  <Name>
ligand

>  <RI>
0

>  <Rbt.Current_Directory>
/home/itssahil/PROJECTS/Mol_Feturizer/New_Systems/rnas/4LVY

>  <Rbt.Executable>
rbdock ($Id: //depot/dev/client3/rdock/2013.1/src/exe/rbdock.cxx#4 $)

>  <Rbt.Library>
libRbt.so (2013.1, Build901 2013/11/27)

>  <Rbt.Parameter_File>
/export/apps/rDock/src/rDock_2013.1_src/data/scripts/dock_solv.prm

>  <Rbt.Receptor>
prm/blind_docking_40.prm

>  <SCORE>
-11.6887

>  <SCORE.INTER>
-11.7423

>  <SCORE.INTER.CONST>
1

>  <SCORE.INTER.POLAR>
0

>  <SCORE.INTER.ROT>
4

>  <SCORE.INTER.SOLV>
12.1542

>  <SCORE.INTER.VDW>
-18.1463

>  <SCORE.INTER.norm>
-0.533741

>  <SCORE.INTRA>
0.053645

>  <SCORE.INTRA.DIHEDRAL>
0.522754

>  <SCORE.INTRA.DIHEDRAL.0>
6.18831

>  <SCORE.INTRA.POLAR>
0

>  <SCORE.INTRA.POLAR.0>
0

>  <SCORE.INTRA.REPUL>
0

>  <SCORE.INTRA.REPUL.0>
0

>  <SCORE.INTRA.SOLV>
-0.00530174

>  <SCORE.INTRA.SOLV.lig_0>
-44.3465

>  <SCORE.INTRA.VDW>
-0.205081

>  <SCORE.INTRA.VDW.0>
-0.778272

>  <SCORE.INTRA.norm>
0.00243841

>  <SCORE.RESTR>
0

>  <SCORE.RESTR.CAVITY>
0

>  <SCORE.RESTR.norm>
0

>  <SCORE.SYSTEM>
0

>  <SCORE.SYSTEM.CONST>
0

>  <SCORE.SYSTEM.DIHEDRAL>
0

>  <SCORE.SYSTEM.SOLV>
0

>  <SCORE.SYSTEM.norm>
0

>  <SCORE.heavy>
22

>  <SCORE.norm>
-0.531302

>  <RMSD>
12.902

$$$$
ligand
 OpenBabel11021811503D
libRbt.so/2013.1/901 2013/11/27
 22 24  0  0  0  0  0  0  0  0999 V2000
   -4.0467   -6.0399   20.1317 C   0  0  0  0  0  0  0  0  0  0  0  0
   -3.7989   -7.1036   21.0249 C   0  0  0  0  0  0  0  0  0  0  0  0
   -4.5404   -7.1969   22.1995 C   0  0  0  0  0  0  0  0  0  0  0  0
   -5.5225   -6.2301   22.4767 C   0  0  0  0  0  0  0  0  0  0  0  0
   -5.7659   -5.1562   21.5854 C   0  0  0  0  0  0  0  0  0  0  0  0
   -5.0250   -5.0645   20.4150 C   0  0  0  0  0  0  0  0  0  0  0  0
   -3.2225   -5.9122   18.8361 C   0  0  0  0  0  0  0  0  0  0  0  0
   -2.4463   -4.5803   18.6831 C   0  0  0  0  0  0  0  0  0  0  0  0
   -1.7890   -4.4046   17.3191 C   0  0  0  0  0  0  0  0  0  0  0  0
   -2.4533   -4.5918   16.1031 C   0  0  0  0  0  0  0  0  0  0  0  0
   -1.5509   -4.3410   15.1187 N   0  0  0  0  0  0  0  0  0  0  0  0
   -0.3118   -3.9940   15.6189 C   0  0  0  0  0  0  0  0  0  0  0  0
   -0.4151   -4.0190   17.0053 C   0  0  0  0  0  0  0  0  0  0  0  0
    0.7703   -3.6823   17.7628 C   0  0  0  0  0  0  0  0  0  0  0  0
    0.7372   -3.6788   19.1545 O   0  0  0  0  0  0  0  0  0  0  0  0
    1.9393   -3.3667   17.0832 N   0  0  0  0  0  0  0  0  0  0  0  0
    1.9915   -3.3453   15.7196 C   0  0  0  0  0  0  0  0  0  0  0  0
    0.9110   -3.6527   14.9850 N   0  0  0  0  0  0  0  0  0  0  0  0
    3.2452   -2.9897   15.0470 N   0  0  0  0  0  0  0  0  0  0  0  0
   -6.3060   -6.3522   23.7567 C   0  0  0  0  0  0  0  0  0  0  0  0
   -7.1432   -7.2434   23.8862 O   0  0  0  0  0  0  0  0  0  0  0  0
   -6.0610   -5.4076   24.8140 N   0  0  0  0  0  0  0  0  0  0  0  0
  1  2  2  0  0  0  0
  1  6  1  0  0  0  0
  1  7  1  0  0  0  0
  2  3  1  0  0  0  0
  3  4  2  0  0  0  0
  4  5  1  0  0  0  0
  4 20  1  0  0  0  0
  5  6  2  0  0  0  0
  7  8  1  0  0  0  0
  8  9  1  0  0  0  0
  9 10  2  0  0  0  0
  9 13  1  0  0  0  0
 10 11  1  0  0  0  0
 11 12  1  0  0  0  0
 12 13  2  0  0  0  0
 12 18  1  0  0  0  0
 13 14  1  0  0  0  0
 14 15  1  0  0  0  0
 14 16  2  0  0  0  0
 16 17  1  0  0  0  0
 17 18  2  0  0  0  0
 17 19  1  0  0  0  0
 20 21  2  0  0  0  0
 20 22  1  0  0  0  0
M  END
>  <CHROM.1>
-121.60694562,-71.53277659,-172.47194836,49.56588129,-2.27163594,-4.91064155
19.04188378,2.37812307,0.35091701,1.60125048

>  <Name>
ligand

>  <RI>
0

>  <Rbt.Current_Directory>
/home/itssahil/PROJECTS/Mol_Feturizer/New_Systems/rnas/4LVY

>  <Rbt.Executable>
rbdock ($Id: //depot/dev/client3/rdock/2013.1/src/exe/rbdock.cxx#4 $)

>  <Rbt.Library>
libRbt.so (2013.1, Build901 2013/11/27)

>  <Rbt.Parameter_File>
/export/apps/rDock/src/rDock_2013.1_src/data/scripts/dock_solv.prm

>  <Rbt.Receptor>
prm/blind_docking_40.prm

>  <SCORE>
-11.7154

>  <SCORE.INTER>
-11.6195

>  <SCORE.INTER.CONST>
1

>  <SCORE.INTER.POLAR>
0

>  <SCORE.INTER.ROT>
4

>  <SCORE.INTER.SOLV>
11.3969

>  <SCORE.INTER.VDW>
-17.812

>  <SCORE.INTER.norm>
-0.528159

>  <SCORE.INTRA>
-0.0959419

>  <SCORE.INTRA.DIHEDRAL>
0.238541

>  <SCORE.INTRA.DIHEDRAL.0>
6.18831

>  <SCORE.INTRA.POLAR>
0

>  <SCORE.INTRA.POLAR.0>
0

>  <SCORE.INTRA.REPUL>
0

>  <SCORE.INTRA.REPUL.0>
0

>  <SCORE.INTRA.SOLV>
0.00696395

>  <SCORE.INTRA.SOLV.lig_0>
-44.3465

>  <SCORE.INTRA.VDW>
-0.218694

>  <SCORE.INTRA.VDW.0>
-0.778272

>  <SCORE.INTRA.norm>
-0.004361

>  <SCORE.RESTR>
0

>  <SCORE.RESTR.CAVITY>
0

>  <SCORE.RESTR.norm>
0

>  <SCORE.SYSTEM>
0

>  <SCORE.SYSTEM.CONST>
0

>  <SCORE.SYSTEM.DIHEDRAL>
0

>  <SCORE.SYSTEM.SOLV>
0

>  <SCORE.SYSTEM.norm>
0

>  <SCORE.heavy>
22

>  <SCORE.norm>
-0.53252

>  <RMSD>
12.914

$$$$
ligand
 OpenBabel11021811503D
libRbt.so/2013.1/901 2013/11/27
 22 24  0  0  0  0  0  0  0  0999 V2000
   -6.2983   -6.0060   23.1624 C   0  0  0  0  0  0  0  0  0  0  0  0
   -6.1097   -5.0070   22.1842 C   0  0  0  0  0  0  0  0  0  0  0  0
   -5.3338   -5.2863   21.0625 C   0  0  0  0  0  0  0  0  0  0  0  0
   -4.7507   -6.5579   20.9233 C   0  0  0  0  0  0  0  0  0  0  0  0
   -4.9314   -7.5588   21.9094 C   0  0  0  0  0  0  0  0  0  0  0  0
   -5.7048   -7.2781   23.0275 C   0  0  0  0  0  0  0  0  0  0  0  0
   -7.1394   -5.7072   24.4184 C   0  0  0  0  0  0  0  0  0  0  0  0
   -6.5115   -4.6846   25.3982 C   0  0  0  0  0  0  0  0  0  0  0  0
   -7.5179   -4.0435   26.3467 C   0  0  0  0  0  0  0  0  0  0  0  0
   -8.7460   -4.6191   26.6863 C   0  0  0  0  0  0  0  0  0  0  0  0
   -9.3560   -3.7651   27.5492 N   0  0  0  0  0  0  0  0  0  0  0  0
   -8.5931   -2.6430   27.8040 C   0  0  0  0  0  0  0  0  0  0  0  0
   -7.4215   -2.7761   27.0671 C   0  0  0  0  0  0  0  0  0  0  0  0
   -6.4484   -1.7112   27.1744 C   0  0  0  0  0  0  0  0  0  0  0  0
   -5.2491   -1.7820   26.4709 O   0  0  0  0  0  0  0  0  0  0  0  0
   -6.7288   -0.6190   27.9846 N   0  0  0  0  0  0  0  0  0  0  0  0
   -7.8891   -0.5356   28.6983 C   0  0  0  0  0  0  0  0  0  0  0  0
   -8.8144   -1.5050   28.6223 N   0  0  0  0  0  0  0  0  0  0  0  0
   -8.1328    0.6306   29.5533 N   0  0  0  0  0  0  0  0  0  0  0  0
   -3.9120   -6.8312   19.7030 C   0  0  0  0  0  0  0  0  0  0  0  0
   -2.8200   -7.3853   19.8150 O   0  0  0  0  0  0  0  0  0  0  0  0
   -4.4084   -6.4275   18.4143 N   0  0  0  0  0  0  0  0  0  0  0  0
  1  2  2  0  0  0  0
  1  6  1  0  0  0  0
  1  7  1  0  0  0  0
  2  3  1  0  0  0  0
  3  4  2  0  0  0  0
  4  5  1  0  0  0  0
  4 20  1  0  0  0  0
  5  6  2  0  0  0  0
  7  8  1  0  0  0  0
  8  9  1  0  0  0  0
  9 10  2  0  0  0  0
  9 13  1  0  0  0  0
 10 11  1  0  0  0  0
 11 12  1  0  0  0  0
 12 13  2  0  0  0  0
 12 18  1  0  0  0  0
 13 14  1  0  0  0  0
 14 15  1  0  0  0  0
 14 16  2  0  0  0  0
 16 17  1  0  0  0  0
 17 18  2  0  0  0  0
 17 19  1  0  0  0  0
 20 21  2  0  0  0  0
 20 22  1  0  0  0  0
M  END
>  <CHROM.1>
-67.94720873,133.96438124,159.87960565,22.93255457,-6.46264498,-4.14713924
24.74380798,1.09795753,-0.71409354,-2.49446163

>  <Name>
ligand

>  <RI>
0

>  <Rbt.Current_Directory>
/home/itssahil/PROJECTS/Mol_Feturizer/New_Systems/rnas/4LVY

>  <Rbt.Executable>
rbdock ($Id: //depot/dev/client3/rdock/2013.1/src/exe/rbdock.cxx#4 $)

>  <Rbt.Library>
libRbt.so (2013.1, Build901 2013/11/27)

>  <Rbt.Parameter_File>
/export/apps/rDock/src/rDock_2013.1_src/data/scripts/dock_solv.prm

>  <Rbt.Receptor>
prm/blind_docking_40.prm

>  <SCORE>
-10.501

>  <SCORE.INTER>
-11.3338

>  <SCORE.INTER.CONST>
1

>  <SCORE.INTER.POLAR>
0

>  <SCORE.INTER.ROT>
4

>  <SCORE.INTER.SOLV>
6.14581

>  <SCORE.INTER.VDW>
-15.8711

>  <SCORE.INTER.norm>
-0.515171

>  <SCORE.INTRA>
0.832776

>  <SCORE.INTRA.DIHEDRAL>
1.49474

>  <SCORE.INTRA.DIHEDRAL.0>
6.18831

>  <SCORE.INTRA.POLAR>
0

>  <SCORE.INTRA.POLAR.0>
0

>  <SCORE.INTRA.REPUL>
0

>  <SCORE.INTRA.REPUL.0>
0

>  <SCORE.INTRA.SOLV>
0.000809182

>  <SCORE.INTRA.SOLV.lig_0>
-44.3465

>  <SCORE.INTRA.VDW>
0.0850024

>  <SCORE.INTRA.VDW.0>
-0.778272

>  <SCORE.INTRA.norm>
0.0378535

>  <SCORE.RESTR>
0

>  <SCORE.RESTR.CAVITY>
0

>  <SCORE.RESTR.norm>
0

>  <SCORE.SYSTEM>
0

>  <SCORE.SYSTEM.CONST>
0

>  <SCORE.SYSTEM.DIHEDRAL>
0

>  <SCORE.SYSTEM.SOLV>
0

>  <SCORE.SYSTEM.norm>
0

>  <SCORE.heavy>
22

>  <SCORE.norm>
-0.477318

>  <RMSD>
12.919

$$$$
ligand
 OpenBabel11021811503D
libRbt.so/2013.1/901 2013/11/27
 22 24  0  0  0  0  0  0  0  0999 V2000
   -0.9950   -4.1828   11.9422 C   0  0  0  0  0  0  0  0  0  0  0  0
   -0.5681   -4.1790   10.5974 C   0  0  0  0  0  0  0  0  0  0  0  0
   -1.2854   -4.9050    9.6504 C   0  0  0  0  0  0  0  0  0  0  0  0
   -2.4219   -5.6299   10.0493 C   0  0  0  0  0  0  0  0  0  0  0  0
   -2.8461   -5.6421   11.4009 C   0  0  0  0  0  0  0  0  0  0  0  0
   -2.1291   -4.9183   12.3438 C   0  0  0  0  0  0  0  0  0  0  0  0
   -0.2019   -3.3991   13.0058 C   0  0  0  0  0  0  0  0  0  0  0  0
    0.4994   -4.2737   14.0750 C   0  0  0  0  0  0  0  0  0  0  0  0
    0.1670   -3.8768   15.5087 C   0  0  0  0  0  0  0  0  0  0  0  0
    1.0075   -3.1089   16.3205 C   0  0  0  0  0  0  0  0  0  0  0  0
    0.3744   -2.9599   17.5133 N   0  0  0  0  0  0  0  0  0  0  0  0
   -0.8525   -3.5925   17.5388 C   0  0  0  0  0  0  0  0  0  0  0  0
   -1.0271   -4.1842   16.2926 C   0  0  0  0  0  0  0  0  0  0  0  0
   -2.2574   -4.9124   16.0731 C   0  0  0  0  0  0  0  0  0  0  0  0
   -2.5029   -5.5231   14.8463 O   0  0  0  0  0  0  0  0  0  0  0  0
   -3.1859   -4.9959   17.1021 N   0  0  0  0  0  0  0  0  0  0  0  0
   -2.9762   -4.3901   18.3069 C   0  0  0  0  0  0  0  0  0  0  0  0
   -1.8459   -3.7066   18.5456 N   0  0  0  0  0  0  0  0  0  0  0  0
   -3.9940   -4.4928   19.3576 N   0  0  0  0  0  0  0  0  0  0  0  0
   -3.1758   -6.4104    9.0055 C   0  0  0  0  0  0  0  0  0  0  0  0
   -4.2282   -5.9710    8.5456 O   0  0  0  0  0  0  0  0  0  0  0  0
   -2.6466   -7.6741    8.5661 N   0  0  0  0  0  0  0  0  0  0  0  0
  1  2  2  0  0  0  0
  1  6  1  0  0  0  0
  1  7  1  0  0  0  0
  2  3  1  0  0  0  0
  3  4  2  0  0  0  0
  4  5  1  0  0  0  0
  4 20  1  0  0  0  0
  5  6  2  0  0  0  0
  7  8  1  0  0  0  0
  8  9  1  0  0  0  0
  9 10  2  0  0  0  0
  9 13  1  0  0  0  0
 10 11  1  0  0  0  0
 11 12  1  0  0  0  0
 12 13  2  0  0  0  0
 12 18  1  0  0  0  0
 13 14  1  0  0  0  0
 14 15  1  0  0  0  0
 14 16  2  0  0  0  0
 16 17  1  0  0  0  0
 17 18  2  0  0  0  0
 17 19  1  0  0  0  0
 20 21  2  0  0  0  0
 20 22  1  0  0  0  0
M  END
>  <CHROM.1>
-113.34419237,-102.33958877,-126.98918901,-100.44522986,-1.72696208,-4.69954390
13.94734536,-1.69816592,0.46183566,1.39709186

>  <Name>
ligand

>  <RI>
0

>  <Rbt.Current_Directory>
/home/itssahil/PROJECTS/Mol_Feturizer/New_Systems/rnas/4LVY

>  <Rbt.Executable>
rbdock ($Id: //depot/dev/client3/rdock/2013.1/src/exe/rbdock.cxx#4 $)

>  <Rbt.Library>
libRbt.so (2013.1, Build901 2013/11/27)

>  <Rbt.Parameter_File>
/export/apps/rDock/src/rDock_2013.1_src/data/scripts/dock_solv.prm

>  <Rbt.Receptor>
prm/blind_docking_20.prm

>  <SCORE>
-5.94567

>  <SCORE.INTER>
-9.83307

>  <SCORE.INTER.CONST>
1

>  <SCORE.INTER.POLAR>
0

>  <SCORE.INTER.ROT>
4

>  <SCORE.INTER.SOLV>
15.3473

>  <SCORE.INTER.VDW>
-17.9378

>  <SCORE.INTER.norm>
-0.446958

>  <SCORE.INTRA>
2.76657

>  <SCORE.INTRA.DIHEDRAL>
5.87341

>  <SCORE.INTRA.DIHEDRAL.0>
6.18831

>  <SCORE.INTRA.POLAR>
0

>  <SCORE.INTRA.POLAR.0>
0

>  <SCORE.INTRA.REPUL>
0

>  <SCORE.INTRA.REPUL.0>
0

>  <SCORE.INTRA.SOLV>
0.552859

>  <SCORE.INTRA.SOLV.lig_0>
-44.3465

>  <SCORE.INTRA.VDW>
-0.446564

>  <SCORE.INTRA.VDW.0>
-0.778272

>  <SCORE.INTRA.norm>
0.125753

>  <SCORE.RESTR>
1.12084

>  <SCORE.RESTR.CAVITY>
1.12084

>  <SCORE.RESTR.norm>
0.0509471

>  <SCORE.SYSTEM>
0

>  <SCORE.SYSTEM.CONST>
0

>  <SCORE.SYSTEM.DIHEDRAL>
0

>  <SCORE.SYSTEM.SOLV>
0

>  <SCORE.SYSTEM.norm>
0

>  <SCORE.heavy>
22

>  <SCORE.norm>
-0.270258

>  <RMSD>
12.978

$$$$
ligand
 OpenBabel11021811503D
libRbt.so/2013.1/901 2013/11/27
 22 24  0  0  0  0  0  0  0  0999 V2000
   -1.0525   -4.1476   11.5220 C   0  0  0  0  0  0  0  0  0  0  0  0
   -2.2306   -4.6885   12.0788 C   0  0  0  0  0  0  0  0  0  0  0  0
   -3.0121   -5.5534   11.3175 C   0  0  0  0  0  0  0  0  0  0  0  0
   -2.6153   -5.8727   10.0072 C   0  0  0  0  0  0  0  0  0  0  0  0
   -1.4376   -5.3229    9.4436 C   0  0  0  0  0  0  0  0  0  0  0  0
   -0.6601   -4.4602   10.2041 C   0  0  0  0  0  0  0  0  0  0  0  0
   -0.1860   -3.1748   12.3449 C   0  0  0  0  0  0  0  0  0  0  0  0
    0.8037   -3.8505   13.3266 C   0  0  0  0  0  0  0  0  0  0  0  0
    0.1263   -4.5435   14.5033 C   0  0  0  0  0  0  0  0  0  0  0  0
   -0.7981   -5.5838   14.3691 C   0  0  0  0  0  0  0  0  0  0  0  0
   -1.1723   -5.9426   15.6250 N   0  0  0  0  0  0  0  0  0  0  0  0
   -0.5410   -5.1905   16.5955 C   0  0  0  0  0  0  0  0  0  0  0  0
    0.2910   -4.2944   15.9335 C   0  0  0  0  0  0  0  0  0  0  0  0
    1.0709   -3.3898   16.7495 C   0  0  0  0  0  0  0  0  0  0  0  0
    1.9314   -2.4714   16.1543 O   0  0  0  0  0  0  0  0  0  0  0  0
    0.9465   -3.4487   18.1312 N   0  0  0  0  0  0  0  0  0  0  0  0
    0.1238   -4.3525   18.7385 C   0  0  0  0  0  0  0  0  0  0  0  0
   -0.6147   -5.2065   18.0125 N   0  0  0  0  0  0  0  0  0  0  0  0
    0.0386   -4.3873   20.2020 N   0  0  0  0  0  0  0  0  0  0  0  0
   -3.4818   -6.8064    9.2044 C   0  0  0  0  0  0  0  0  0  0  0  0
   -4.1060   -6.3872    8.2314 O   0  0  0  0  0  0  0  0  0  0  0  0
   -3.5687   -8.1868    9.6006 N   0  0  0  0  0  0  0  0  0  0  0  0
  1  2  2  0  0  0  0
  1  6  1  0  0  0  0
  1  7  1  0  0  0  0
  2  3  1  0  0  0  0
  3  4  2  0  0  0  0
  4  5  1  0  0  0  0
  4 20  1  0  0  0  0
  5  6  2  0  0  0  0
  7  8  1  0  0  0  0
  8  9  1  0  0  0  0
  9 10  2  0  0  0  0
  9 13  1  0  0  0  0
 10 11  1  0  0  0  0
 11 12  1  0  0  0  0
 12 13  2  0  0  0  0
 12 18  1  0  0  0  0
 13 14  1  0  0  0  0
 14 15  1  0  0  0  0
 14 16  2  0  0  0  0
 16 17  1  0  0  0  0
 17 18  2  0  0  0  0
 17 19  1  0  0  0  0
 20 21  2  0  0  0  0
 20 22  1  0  0  0  0
M  END
>  <CHROM.1>
83.02386211,111.42881521,-69.16192694,59.63371755,-0.90174959,-4.86339647
13.77455749,-2.11817676,0.79467499,1.73718874

>  <Name>
ligand

>  <RI>
0

>  <Rbt.Current_Directory>
/home/itssahil/PROJECTS/Mol_Feturizer/New_Systems/rnas/4LVY

>  <Rbt.Executable>
rbdock ($Id: //depot/dev/client3/rdock/2013.1/src/exe/rbdock.cxx#4 $)

>  <Rbt.Library>
libRbt.so (2013.1, Build901 2013/11/27)

>  <Rbt.Parameter_File>
/export/apps/rDock/src/rDock_2013.1_src/data/scripts/dock_solv.prm

>  <Rbt.Receptor>
prm/blind_docking_20.prm

>  <SCORE>
-6.26236

>  <SCORE.INTER>
-7.35854

>  <SCORE.INTER.CONST>
1

>  <SCORE.INTER.POLAR>
0

>  <SCORE.INTER.ROT>
4

>  <SCORE.INTER.SOLV>
14.1675

>  <SCORE.INTER.VDW>
-15.8949

>  <SCORE.INTER.norm>
-0.334479

>  <SCORE.INTRA>
-0.474974

>  <SCORE.INTRA.DIHEDRAL>
0.4501

>  <SCORE.INTRA.DIHEDRAL.0>
6.18831

>  <SCORE.INTRA.POLAR>
0

>  <SCORE.INTRA.POLAR.0>
0

>  <SCORE.INTRA.REPUL>
0

>  <SCORE.INTRA.REPUL.0>
0

>  <SCORE.INTRA.SOLV>
0.0369533

>  <SCORE.INTRA.SOLV.lig_0>
-44.3465

>  <SCORE.INTRA.VDW>
-0.718501

>  <SCORE.INTRA.VDW.0>
-0.778272

>  <SCORE.INTRA.norm>
-0.0215897

>  <SCORE.RESTR>
1.57115

>  <SCORE.RESTR.CAVITY>
1.57115

>  <SCORE.RESTR.norm>
0.0714158

>  <SCORE.SYSTEM>
0

>  <SCORE.SYSTEM.CONST>
0

>  <SCORE.SYSTEM.DIHEDRAL>
0

>  <SCORE.SYSTEM.SOLV>
0

>  <SCORE.SYSTEM.norm>
0

>  <SCORE.heavy>
22

>  <SCORE.norm>
-0.284653

>  <RMSD>
13.122

$$$$
ligand
 OpenBabel11021811503D
libRbt.so/2013.1/901 2013/11/27
 22 24  0  0  0  0  0  0  0  0999 V2000
   -1.1130   -4.3481   11.5253 C   0  0  0  0  0  0  0  0  0  0  0  0
   -0.9123   -4.5080   10.1379 C   0  0  0  0  0  0  0  0  0  0  0  0
   -1.7241   -5.3873    9.4266 C   0  0  0  0  0  0  0  0  0  0  0  0
   -2.7291   -6.1016   10.1018 C   0  0  0  0  0  0  0  0  0  0  0  0
   -2.9256   -5.9491   11.4964 C   0  0  0  0  0  0  0  0  0  0  0  0
   -2.1146   -5.0724   12.2041 C   0  0  0  0  0  0  0  0  0  0  0  0
   -0.2115   -3.3924   12.3304 C   0  0  0  0  0  0  0  0  0  0  0  0
   -0.9282   -2.6157   13.4630 C   0  0  0  0  0  0  0  0  0  0  0  0
   -1.1689   -3.4438   14.7199 C   0  0  0  0  0  0  0  0  0  0  0  0
   -2.3516   -4.1433   14.9787 C   0  0  0  0  0  0  0  0  0  0  0  0
   -2.1903   -4.7590   16.1791 N   0  0  0  0  0  0  0  0  0  0  0  0
   -0.9534   -4.5046   16.7373 C   0  0  0  0  0  0  0  0  0  0  0  0
   -0.2724   -3.6791   15.8494 C   0  0  0  0  0  0  0  0  0  0  0  0
    1.0662   -3.2734   16.2180 C   0  0  0  0  0  0  0  0  0  0  0  0
    1.8096   -2.4541   15.3729 O   0  0  0  0  0  0  0  0  0  0  0  0
    1.5960   -3.7094   17.4251 N   0  0  0  0  0  0  0  0  0  0  0  0
    0.8938   -4.5280   18.2615 C   0  0  0  0  0  0  0  0  0  0  0  0
   -0.3508   -4.9237   17.9516 N   0  0  0  0  0  0  0  0  0  0  0  0
    1.5025   -4.9755   19.5184 N   0  0  0  0  0  0  0  0  0  0  0  0
   -3.5891   -7.0498    9.3089 C   0  0  0  0  0  0  0  0  0  0  0  0
   -3.5691   -8.2545    9.5543 O   0  0  0  0  0  0  0  0  0  0  0  0
   -4.4229   -6.5215    8.2621 N   0  0  0  0  0  0  0  0  0  0  0  0
  1  2  2  0  0  0  0
  1  6  1  0  0  0  0
  1  7  1  0  0  0  0
  2  3  1  0  0  0  0
  3  4  2  0  0  0  0
  4  5  1  0  0  0  0
  4 20  1  0  0  0  0
  5  6  2  0  0  0  0
  7  8  1  0  0  0  0
  8  9  1  0  0  0  0
  9 10  2  0  0  0  0
  9 13  1  0  0  0  0
 10 11  1  0  0  0  0
 11 12  1  0  0  0  0
 12 13  2  0  0  0  0
 12 18  1  0  0  0  0
 13 14  1  0  0  0  0
 14 15  1  0  0  0  0
 14 16  2  0  0  0  0
 16 17  1  0  0  0  0
 17 18  2  0  0  0  0
 17 19  1  0  0  0  0
 20 21  2  0  0  0  0
 20 22  1  0  0  0  0
M  END
>  <CHROM.1>
143.42380638,116.81757401,78.24562477,-93.82481497,-1.09425376,-4.71217722
13.71396547,-2.23784256,0.84187417,1.81046157

>  <Name>
ligand

>  <RI>
0

>  <Rbt.Current_Directory>
/home/itssahil/PROJECTS/Mol_Feturizer/New_Systems/rnas/4LVY

>  <Rbt.Executable>
rbdock ($Id: //depot/dev/client3/rdock/2013.1/src/exe/rbdock.cxx#4 $)

>  <Rbt.Library>
libRbt.so (2013.1, Build901 2013/11/27)

>  <Rbt.Parameter_File>
/export/apps/rDock/src/rDock_2013.1_src/data/scripts/dock_solv.prm

>  <Rbt.Receptor>
prm/blind_docking_20.prm

>  <SCORE>
-7.20121

>  <SCORE.INTER>
-8.19958

>  <SCORE.INTER.CONST>
1

>  <SCORE.INTER.POLAR>
0

>  <SCORE.INTER.ROT>
4

>  <SCORE.INTER.SOLV>
10.6162

>  <SCORE.INTER.VDW>
-15.2718

>  <SCORE.INTER.norm>
-0.372708

>  <SCORE.INTRA>
0.150338

>  <SCORE.INTRA.DIHEDRAL>
1.22522

>  <SCORE.INTRA.DIHEDRAL.0>
6.18831

>  <SCORE.INTRA.POLAR>
0

>  <SCORE.INTRA.POLAR.0>
0

>  <SCORE.INTRA.REPUL>
0

>  <SCORE.INTRA.REPUL.0>
0

>  <SCORE.INTRA.SOLV>
0.173398

>  <SCORE.INTRA.SOLV.lig_0>
-44.3465

>  <SCORE.INTRA.VDW>
-0.548969

>  <SCORE.INTRA.VDW.0>
-0.778272

>  <SCORE.INTRA.norm>
0.00683355

>  <SCORE.RESTR>
0.84804

>  <SCORE.RESTR.CAVITY>
0.84804

>  <SCORE.RESTR.norm>
0.0385473

>  <SCORE.SYSTEM>
0

>  <SCORE.SYSTEM.CONST>
0

>  <SCORE.SYSTEM.DIHEDRAL>
0

>  <SCORE.SYSTEM.SOLV>
0

>  <SCORE.SYSTEM.norm>
0

>  <SCORE.heavy>
22

>  <SCORE.norm>
-0.327328

>  <RMSD>
13.126

$$$$
ligand
 OpenBabel11021811503D
libRbt.so/2013.1/901 2013/11/27
 22 24  0  0  0  0  0  0  0  0999 V2000
   -3.2967   -5.8282   19.8523 C   0  0  0  0  0  0  0  0  0  0  0  0
   -3.0579   -6.9121   20.7234 C   0  0  0  0  0  0  0  0  0  0  0  0
   -3.9591   -7.1741   21.7517 C   0  0  0  0  0  0  0  0  0  0  0  0
   -5.0909   -6.3546   21.9058 C   0  0  0  0  0  0  0  0  0  0  0  0
   -5.3269   -5.2603   21.0376 C   0  0  0  0  0  0  0  0  0  0  0  0
   -4.4268   -5.0002   20.0133 C   0  0  0  0  0  0  0  0  0  0  0  0
   -2.2998   -5.5139   18.7202 C   0  0  0  0  0  0  0  0  0  0  0  0
   -1.6893   -4.0907   18.7625 C   0  0  0  0  0  0  0  0  0  0  0  0
   -0.7655   -3.7825   17.5898 C   0  0  0  0  0  0  0  0  0  0  0  0
    0.5674   -3.3843   17.7304 C   0  0  0  0  0  0  0  0  0  0  0  0
    1.0607   -3.2101   16.4765 N   0  0  0  0  0  0  0  0  0  0  0  0
    0.1196   -3.4735   15.5012 C   0  0  0  0  0  0  0  0  0  0  0  0
   -1.0497   -3.8409   16.1578 C   0  0  0  0  0  0  0  0  0  0  0  0
   -2.1930   -4.1726   15.3362 C   0  0  0  0  0  0  0  0  0  0  0  0
   -3.3941   -4.5571   15.9260 O   0  0  0  0  0  0  0  0  0  0  0  0
   -2.0762   -4.0990   13.9546 N   0  0  0  0  0  0  0  0  0  0  0  0
   -0.9043   -3.7427   13.3528 C   0  0  0  0  0  0  0  0  0  0  0  0
    0.1764   -3.4280   14.0841 N   0  0  0  0  0  0  0  0  0  0  0  0
   -0.8253   -3.6952   11.8892 N   0  0  0  0  0  0  0  0  0  0  0  0
   -6.0463   -6.6574   23.0295 C   0  0  0  0  0  0  0  0  0  0  0  0
   -6.0827   -5.9323   24.0220 O   0  0  0  0  0  0  0  0  0  0  0  0
   -6.9040   -7.8075   22.9213 N   0  0  0  0  0  0  0  0  0  0  0  0
  1  2  2  0  0  0  0
  1  6  1  0  0  0  0
  1  7  1  0  0  0  0
  2  3  1  0  0  0  0
  3  4  2  0  0  0  0
  4  5  1  0  0  0  0
  4 20  1  0  0  0  0
  5  6  2  0  0  0  0
  7  8  1  0  0  0  0
  8  9  1  0  0  0  0
  9 10  2  0  0  0  0
  9 13  1  0  0  0  0
 10 11  1  0  0  0  0
 11 12  1  0  0  0  0
 12 13  2  0  0  0  0
 12 18  1  0  0  0  0
 13 14  1  0  0  0  0
 14 15  1  0  0  0  0
 14 16  2  0  0  0  0
 16 17  1  0  0  0  0
 17 18  2  0  0  0  0
 17 19  1  0  0  0  0
 20 21  2  0  0  0  0
 20 22  1  0  0  0  0
M  END
>  <CHROM.1>
-121.56514489,106.58398514,-176.88194517,-123.12186999,-2.63126268,-4.89737150
18.18985363,-2.13605837,-0.36936856,-1.44655456

>  <Name>
ligand

>  <RI>
0

>  <Rbt.Current_Directory>
/home/itssahil/PROJECTS/Mol_Feturizer/New_Systems/rnas/4LVY

>  <Rbt.Executable>
rbdock ($Id: //depot/dev/client3/rdock/2013.1/src/exe/rbdock.cxx#4 $)

>  <Rbt.Library>
libRbt.so (2013.1, Build901 2013/11/27)

>  <Rbt.Parameter_File>
/export/apps/rDock/src/rDock_2013.1_src/data/scripts/dock_solv.prm

>  <Rbt.Receptor>
prm/blind_docking_40.prm

>  <SCORE>
-12.2843

>  <SCORE.INTER>
-11.9003

>  <SCORE.INTER.CONST>
1

>  <SCORE.INTER.POLAR>
0

>  <SCORE.INTER.ROT>
4

>  <SCORE.INTER.SOLV>
9.3178

>  <SCORE.INTER.VDW>
-17.3062

>  <SCORE.INTER.norm>
-0.540924

>  <SCORE.INTRA>
-0.383969

>  <SCORE.INTRA.DIHEDRAL>
0.0950275

>  <SCORE.INTRA.DIHEDRAL.0>
6.18831

>  <SCORE.INTRA.POLAR>
0

>  <SCORE.INTRA.POLAR.0>
0

>  <SCORE.INTRA.REPUL>
0

>  <SCORE.INTRA.REPUL.0>
0

>  <SCORE.INTRA.SOLV>
0.305792

>  <SCORE.INTRA.SOLV.lig_0>
-44.3465

>  <SCORE.INTRA.VDW>
-0.584379

>  <SCORE.INTRA.VDW.0>
-0.778272

>  <SCORE.INTRA.norm>
-0.0174532

>  <SCORE.RESTR>
0

>  <SCORE.RESTR.CAVITY>
0

>  <SCORE.RESTR.norm>
0

>  <SCORE.SYSTEM>
0

>  <SCORE.SYSTEM.CONST>
0

>  <SCORE.SYSTEM.DIHEDRAL>
0

>  <SCORE.SYSTEM.SOLV>
0

>  <SCORE.SYSTEM.norm>
0

>  <SCORE.heavy>
22

>  <SCORE.norm>
-0.558378

>  <RMSD>
13.141

$$$$
ligand
 OpenBabel11021811503D
libRbt.so/2013.1/901 2013/11/27
 22 24  0  0  0  0  0  0  0  0999 V2000
   -4.9091   -6.1943   20.1351 C   0  0  0  0  0  0  0  0  0  0  0  0
   -4.7694   -7.4441   20.7746 C   0  0  0  0  0  0  0  0  0  0  0  0
   -5.1352   -7.5725   22.1118 C   0  0  0  0  0  0  0  0  0  0  0  0
   -5.6364   -6.4555   22.8026 C   0  0  0  0  0  0  0  0  0  0  0  0
   -5.7683   -5.1977   22.1644 C   0  0  0  0  0  0  0  0  0  0  0  0
   -5.4024   -5.0715   20.8312 C   0  0  0  0  0  0  0  0  0  0  0  0
   -4.4920   -6.0310   18.6607 C   0  0  0  0  0  0  0  0  0  0  0  0
   -4.2287   -4.5715   18.2131 C   0  0  0  0  0  0  0  0  0  0  0  0
   -2.7939   -4.1086   18.4379 C   0  0  0  0  0  0  0  0  0  0  0  0
   -2.3329   -3.5489   19.6334 C   0  0  0  0  0  0  0  0  0  0  0  0
   -1.0150   -3.2708   19.4556 N   0  0  0  0  0  0  0  0  0  0  0  0
   -0.5707   -3.6185   18.1955 C   0  0  0  0  0  0  0  0  0  0  0  0
   -1.6602   -4.1539   17.5174 C   0  0  0  0  0  0  0  0  0  0  0  0
   -1.4392   -4.6004   16.1594 C   0  0  0  0  0  0  0  0  0  0  0  0
   -2.4830   -5.1545   15.4235 O   0  0  0  0  0  0  0  0  0  0  0  0
   -0.1750   -4.4656   15.6011 N   0  0  0  0  0  0  0  0  0  0  0  0
    0.8684   -3.9428   16.3087 C   0  0  0  0  0  0  0  0  0  0  0  0
    0.6994   -3.5180   17.5707 N   0  0  0  0  0  0  0  0  0  0  0  0
    2.1894   -3.8358   15.6811 N   0  0  0  0  0  0  0  0  0  0  0  0
   -6.0193   -6.6212   24.2494 C   0  0  0  0  0  0  0  0  0  0  0  0
   -6.4859   -7.6871   24.6470 O   0  0  0  0  0  0  0  0  0  0  0  0
   -5.8354   -5.5128   25.1481 N   0  0  0  0  0  0  0  0  0  0  0  0
  1  2  2  0  0  0  0
  1  6  1  0  0  0  0
  1  7  1  0  0  0  0
  2  3  1  0  0  0  0
  3  4  2  0  0  0  0
  4  5  1  0  0  0  0
  4 20  1  0  0  0  0
  5  6  2  0  0  0  0
  7  8  1  0  0  0  0
  8  9  1  0  0  0  0
  9 10  2  0  0  0  0
  9 13  1  0  0  0  0
 10 11  1  0  0  0  0
 11 12  1  0  0  0  0
 12 13  2  0  0  0  0
 12 18  1  0  0  0  0
 13 14  1  0  0  0  0
 14 15  1  0  0  0  0
 14 16  2  0  0  0  0
 16 17  1  0  0  0  0
 17 18  2  0  0  0  0
 17 19  1  0  0  0  0
 20 21  2  0  0  0  0
 20 22  1  0  0  0  0
M  END
>  <CHROM.1>
-159.99310516,-33.59907116,88.30109993,-87.05276778,-3.04330954,-5.12132114
19.50205941,2.37852753,0.54001842,1.43285097

>  <Name>
ligand

>  <RI>
0

>  <Rbt.Current_Directory>
/home/itssahil/PROJECTS/Mol_Feturizer/New_Systems/rnas/4LVY

>  <Rbt.Executable>
rbdock ($Id: //depot/dev/client3/rdock/2013.1/src/exe/rbdock.cxx#4 $)

>  <Rbt.Library>
libRbt.so (2013.1, Build901 2013/11/27)

>  <Rbt.Parameter_File>
/export/apps/rDock/src/rDock_2013.1_src/data/scripts/dock_solv.prm

>  <Rbt.Receptor>
prm/blind_docking_40.prm

>  <SCORE>
-12.9233

>  <SCORE.INTER>
-14.3199

>  <SCORE.INTER.CONST>
1

>  <SCORE.INTER.POLAR>
0

>  <SCORE.INTER.ROT>
4

>  <SCORE.INTER.SOLV>
10.2626

>  <SCORE.INTER.VDW>
-19.2341

>  <SCORE.INTER.norm>
-0.650903

>  <SCORE.INTRA>
1.39656

>  <SCORE.INTRA.DIHEDRAL>
2.87851

>  <SCORE.INTRA.DIHEDRAL.0>
6.18831

>  <SCORE.INTRA.POLAR>
0

>  <SCORE.INTRA.POLAR.0>
0

>  <SCORE.INTRA.REPUL>
0

>  <SCORE.INTRA.REPUL.0>
0

>  <SCORE.INTRA.SOLV>
0.151671

>  <SCORE.INTRA.SOLV.lig_0>
-44.3465

>  <SCORE.INTRA.VDW>
-0.118527

>  <SCORE.INTRA.VDW.0>
-0.778272

>  <SCORE.INTRA.norm>
0.0634801

>  <SCORE.RESTR>
0

>  <SCORE.RESTR.CAVITY>
0

>  <SCORE.RESTR.norm>
0

>  <SCORE.SYSTEM>
0

>  <SCORE.SYSTEM.CONST>
0

>  <SCORE.SYSTEM.DIHEDRAL>
0

>  <SCORE.SYSTEM.SOLV>
0

>  <SCORE.SYSTEM.norm>
0

>  <SCORE.heavy>
22

>  <SCORE.norm>
-0.587423

>  <RMSD>
13.144

$$$$
ligand
 OpenBabel11021811503D
libRbt.so/2013.1/901 2013/11/27
 22 24  0  0  0  0  0  0  0  0999 V2000
   -1.5649   -4.0948   11.7527 C   0  0  0  0  0  0  0  0  0  0  0  0
   -2.7815   -4.6991   12.1339 C   0  0  0  0  0  0  0  0  0  0  0  0
   -3.4010   -5.5952   11.2669 C   0  0  0  0  0  0  0  0  0  0  0  0
   -2.8052   -5.8823   10.0264 C   0  0  0  0  0  0  0  0  0  0  0  0
   -1.5885   -5.2691    9.6384 C   0  0  0  0  0  0  0  0  0  0  0  0
   -0.9727   -4.3754   10.5039 C   0  0  0  0  0  0  0  0  0  0  0  0
   -0.8757   -3.0874   12.6930 C   0  0  0  0  0  0  0  0  0  0  0  0
    0.5983   -3.4169   13.0377 C   0  0  0  0  0  0  0  0  0  0  0  0
    0.9441   -3.2219   14.5094 C   0  0  0  0  0  0  0  0  0  0  0  0
    2.0232   -2.4570   14.9625 C   0  0  0  0  0  0  0  0  0  0  0  0
    2.0044   -2.5147   16.3199 N   0  0  0  0  0  0  0  0  0  0  0  0
    0.9618   -3.2832   16.7980 C   0  0  0  0  0  0  0  0  0  0  0  0
    0.2633   -3.7495   15.6897 C   0  0  0  0  0  0  0  0  0  0  0  0
   -0.8903   -4.5857   15.9391 C   0  0  0  0  0  0  0  0  0  0  0  0
   -1.6417   -5.0811   14.8770 O   0  0  0  0  0  0  0  0  0  0  0  0
   -1.2344   -4.8887   17.2497 N   0  0  0  0  0  0  0  0  0  0  0  0
   -0.5245   -4.3999   18.3079 C   0  0  0  0  0  0  0  0  0  0  0  0
    0.5516   -3.6215   18.1136 N   0  0  0  0  0  0  0  0  0  0  0  0
   -0.9368   -4.7346   19.6749 N   0  0  0  0  0  0  0  0  0  0  0  0
   -3.4993   -6.8510    9.1061 C   0  0  0  0  0  0  0  0  0  0  0  0
   -3.9734   -6.4599    8.0410 O   0  0  0  0  0  0  0  0  0  0  0  0
   -3.6012   -8.2313    9.4990 N   0  0  0  0  0  0  0  0  0  0  0  0
  1  2  2  0  0  0  0
  1  6  1  0  0  0  0
  1  7  1  0  0  0  0
  2  3  1  0  0  0  0
  3  4  2  0  0  0  0
  4  5  1  0  0  0  0
  4 20  1  0  0  0  0
  5  6  2  0  0  0  0
  7  8  1  0  0  0  0
  8  9  1  0  0  0  0
  9 10  2  0  0  0  0
  9 13  1  0  0  0  0
 10 11  1  0  0  0  0
 11 12  1  0  0  0  0
 12 13  2  0  0  0  0
 12 18  1  0  0  0  0
 13 14  1  0  0  0  0
 14 15  1  0  0  0  0
 14 16  2  0  0  0  0
 16 17  1  0  0  0  0
 17 18  2  0  0  0  0
 17 19  1  0  0  0  0
 20 21  2  0  0  0  0
 20 22  1  0  0  0  0
M  END
>  <CHROM.1>
125.68567469,112.98354634,-136.73007303,-127.75736579,-1.06543606,-4.59118767
13.65911212,-2.10714847,0.71775855,1.63544075

>  <Name>
ligand

>  <RI>
0

>  <Rbt.Current_Directory>
/home/itssahil/PROJECTS/Mol_Feturizer/New_Systems/rnas/4LVY

>  <Rbt.Executable>
rbdock ($Id: //depot/dev/client3/rdock/2013.1/src/exe/rbdock.cxx#4 $)

>  <Rbt.Library>
libRbt.so (2013.1, Build901 2013/11/27)

>  <Rbt.Parameter_File>
/export/apps/rDock/src/rDock_2013.1_src/data/scripts/dock_solv.prm

>  <Rbt.Receptor>
prm/blind_docking_20.prm

>  <SCORE>
-6.6078

>  <SCORE.INTER>
-10.2472

>  <SCORE.INTER.CONST>
1

>  <SCORE.INTER.POLAR>
0

>  <SCORE.INTER.ROT>
4

>  <SCORE.INTER.SOLV>
9.50179

>  <SCORE.INTER.VDW>
-16.2654

>  <SCORE.INTER.norm>
-0.465783

>  <SCORE.INTRA>
2.01266

>  <SCORE.INTRA.DIHEDRAL>
5.04268

>  <SCORE.INTRA.DIHEDRAL.0>
6.18831

>  <SCORE.INTRA.POLAR>
0

>  <SCORE.INTRA.POLAR.0>
0

>  <SCORE.INTRA.REPUL>
0

>  <SCORE.INTRA.REPUL.0>
0

>  <SCORE.INTRA.SOLV>
0.581069

>  <SCORE.INTRA.SOLV.lig_0>
-44.3465

>  <SCORE.INTRA.VDW>
-0.799216

>  <SCORE.INTRA.VDW.0>
-0.778272

>  <SCORE.INTRA.norm>
0.0914845

>  <SCORE.RESTR>
1.62676

>  <SCORE.RESTR.CAVITY>
1.62676

>  <SCORE.RESTR.norm>
0.0739437

>  <SCORE.SYSTEM>
0

>  <SCORE.SYSTEM.CONST>
0

>  <SCORE.SYSTEM.DIHEDRAL>
0

>  <SCORE.SYSTEM.SOLV>
0

>  <SCORE.SYSTEM.norm>
0

>  <SCORE.heavy>
22

>  <SCORE.norm>
-0.300355

>  <RMSD>
13.149

$$$$
ligand
 OpenBabel11021811503D
libRbt.so/2013.1/901 2013/11/27
 22 24  0  0  0  0  0  0  0  0999 V2000
   -3.1424   -5.5383   19.6437 C   0  0  0  0  0  0  0  0  0  0  0  0
   -2.7314   -4.2040   19.8471 C   0  0  0  0  0  0  0  0  0  0  0  0
   -1.8891   -3.5989   18.9183 C   0  0  0  0  0  0  0  0  0  0  0  0
   -1.4615   -4.3269   17.7942 C   0  0  0  0  0  0  0  0  0  0  0  0
   -1.8658   -5.6698   17.5937 C   0  0  0  0  0  0  0  0  0  0  0  0
   -2.7050   -6.2716   18.5213 C   0  0  0  0  0  0  0  0  0  0  0  0
   -4.0599   -6.2284   20.6714 C   0  0  0  0  0  0  0  0  0  0  0  0
   -5.3428   -5.4403   21.0361 C   0  0  0  0  0  0  0  0  0  0  0  0
   -6.1650   -6.0836   22.1468 C   0  0  0  0  0  0  0  0  0  0  0  0
   -5.9804   -5.8191   23.5073 C   0  0  0  0  0  0  0  0  0  0  0  0
   -6.8930   -6.5668   24.1812 N   0  0  0  0  0  0  0  0  0  0  0  0
   -7.6814   -7.3207   23.3349 C   0  0  0  0  0  0  0  0  0  0  0  0
   -7.2588   -7.0463   22.0389 C   0  0  0  0  0  0  0  0  0  0  0  0
   -7.9465   -7.7240   20.9618 C   0  0  0  0  0  0  0  0  0  0  0  0
   -7.5817   -7.4908   19.6387 O   0  0  0  0  0  0  0  0  0  0  0  0
   -8.9710   -8.6104   21.2664 N   0  0  0  0  0  0  0  0  0  0  0  0
   -9.3590   -8.8414   22.5543 C   0  0  0  0  0  0  0  0  0  0  0  0
   -8.7428   -8.2304   23.5784 N   0  0  0  0  0  0  0  0  0  0  0  0
  -10.4575   -9.7744   22.8249 N   0  0  0  0  0  0  0  0  0  0  0  0
   -0.5467   -3.6498   16.8085 C   0  0  0  0  0  0  0  0  0  0  0  0
   -0.9559   -3.3557   15.6868 O   0  0  0  0  0  0  0  0  0  0  0  0
    0.8073   -3.3625   17.2012 N   0  0  0  0  0  0  0  0  0  0  0  0
  1  2  2  0  0  0  0
  1  6  1  0  0  0  0
  1  7  1  0  0  0  0
  2  3  1  0  0  0  0
  3  4  2  0  0  0  0
  4  5  1  0  0  0  0
  4 20  1  0  0  0  0
  5  6  2  0  0  0  0
  7  8  1  0  0  0  0
  8  9  1  0  0  0  0
  9 10  2  0  0  0  0
  9 13  1  0  0  0  0
 10 11  1  0  0  0  0
 11 12  1  0  0  0  0
 12 13  2  0  0  0  0
 12 18  1  0  0  0  0
 13 14  1  0  0  0  0
 14 15  1  0  0  0  0
 14 16  2  0  0  0  0
 16 17  1  0  0  0  0
 17 18  2  0  0  0  0
 17 19  1  0  0  0  0
 20 21  2  0  0  0  0
 20 22  1  0  0  0  0
M  END
>  <CHROM.1>
51.78866938,-110.41989466,-174.66123206,89.30456349,-5.07900222,-6.15959630
20.41937934,-0.41272483,0.60601903,1.32017520

>  <Name>
ligand

>  <RI>
0

>  <Rbt.Current_Directory>
/home/itssahil/PROJECTS/Mol_Feturizer/New_Systems/rnas/4LVY

>  <Rbt.Executable>
rbdock ($Id: //depot/dev/client3/rdock/2013.1/src/exe/rbdock.cxx#4 $)

>  <Rbt.Library>
libRbt.so (2013.1, Build901 2013/11/27)

>  <Rbt.Parameter_File>
/export/apps/rDock/src/rDock_2013.1_src/data/scripts/dock_solv.prm

>  <Rbt.Receptor>
prm/blind_docking_60.prm

>  <SCORE>
-10.9109

>  <SCORE.INTER>
-10.6029

>  <SCORE.INTER.CONST>
1

>  <SCORE.INTER.POLAR>
0

>  <SCORE.INTER.ROT>
4

>  <SCORE.INTER.SOLV>
11.1428

>  <SCORE.INTER.VDW>
-17.0495

>  <SCORE.INTER.norm>
-0.481951

>  <SCORE.INTRA>
-0.307959

>  <SCORE.INTRA.DIHEDRAL>
0.120179

>  <SCORE.INTRA.DIHEDRAL.0>
6.18831

>  <SCORE.INTRA.POLAR>
0

>  <SCORE.INTRA.POLAR.0>
0

>  <SCORE.INTRA.REPUL>
0

>  <SCORE.INTRA.REPUL.0>
0

>  <SCORE.INTRA.SOLV>
0.149896

>  <SCORE.INTRA.SOLV.lig_0>
-44.3465

>  <SCORE.INTRA.VDW>
-0.442997

>  <SCORE.INTRA.VDW.0>
-0.778272

>  <SCORE.INTRA.norm>
-0.0139981

>  <SCORE.RESTR>
0

>  <SCORE.RESTR.CAVITY>
0

>  <SCORE.RESTR.norm>
0

>  <SCORE.SYSTEM>
0

>  <SCORE.SYSTEM.CONST>
0

>  <SCORE.SYSTEM.DIHEDRAL>
0

>  <SCORE.SYSTEM.SOLV>
0

>  <SCORE.SYSTEM.norm>
0

>  <SCORE.heavy>
22

>  <SCORE.norm>
-0.495949

>  <RMSD>
13.165

$$$$
ligand
 OpenBabel11021811503D
libRbt.so/2013.1/901 2013/11/27
 22 24  0  0  0  0  0  0  0  0999 V2000
   -1.3960   -4.2533   11.7352 C   0  0  0  0  0  0  0  0  0  0  0  0
   -0.9436   -4.2540   10.3988 C   0  0  0  0  0  0  0  0  0  0  0  0
   -1.5207   -5.1286    9.4821 C   0  0  0  0  0  0  0  0  0  0  0  0
   -2.5434   -5.9966    9.9028 C   0  0  0  0  0  0  0  0  0  0  0  0
   -2.9921   -6.0035   11.2465 C   0  0  0  0  0  0  0  0  0  0  0  0
   -2.4149   -5.1313   12.1592 C   0  0  0  0  0  0  0  0  0  0  0  0
   -0.7554   -3.3043   12.7663 C   0  0  0  0  0  0  0  0  0  0  0  0
    0.7218   -3.6161   13.1132 C   0  0  0  0  0  0  0  0  0  0  0  0
    1.0761   -3.3674   14.5748 C   0  0  0  0  0  0  0  0  0  0  0  0
    2.0660   -2.4746   14.9966 C   0  0  0  0  0  0  0  0  0  0  0  0
    2.0859   -2.5214   16.3543 N   0  0  0  0  0  0  0  0  0  0  0  0
    1.1545   -3.4048   16.8626 C   0  0  0  0  0  0  0  0  0  0  0  0
    0.4913   -3.9616   15.7747 C   0  0  0  0  0  0  0  0  0  0  0  0
   -0.5476   -4.9276   16.0575 C   0  0  0  0  0  0  0  0  0  0  0  0
   -1.2587   -5.5193   15.0171 O   0  0  0  0  0  0  0  0  0  0  0  0
   -0.8221   -5.2574   17.3780 N   0  0  0  0  0  0  0  0  0  0  0  0
   -0.1515   -4.6772   18.4154 C   0  0  0  0  0  0  0  0  0  0  0  0
    0.8187   -3.7774   18.1899 N   0  0  0  0  0  0  0  0  0  0  0  0
   -0.4885   -5.0462   19.7941 N   0  0  0  0  0  0  0  0  0  0  0  0
   -3.1462   -6.9356    8.8918 C   0  0  0  0  0  0  0  0  0  0  0  0
   -2.4398   -7.7629    8.3186 O   0  0  0  0  0  0  0  0  0  0  0  0
   -4.5535   -6.8407    8.6081 N   0  0  0  0  0  0  0  0  0  0  0  0
  1  2  2  0  0  0  0
  1  6  1  0  0  0  0
  1  7  1  0  0  0  0
  2  3  1  0  0  0  0
  3  4  2  0  0  0  0
  4  5  1  0  0  0  0
  4 20  1  0  0  0  0
  5  6  2  0  0  0  0
  7  8  1  0  0  0  0
  8  9  1  0  0  0  0
  9 10  2  0  0  0  0
  9 13  1  0  0  0  0
 10 11  1  0  0  0  0
 11 12  1  0  0  0  0
 12 13  2  0  0  0  0
 12 18  1  0  0  0  0
 13 14  1  0  0  0  0
 14 15  1  0  0  0  0
 14 16  2  0  0  0  0
 16 17  1  0  0  0  0
 17 18  2  0  0  0  0
 17 19  1  0  0  0  0
 20 21  2  0  0  0  0
 20 22  1  0  0  0  0
M  END
>  <CHROM.1>
-67.10241090,59.94351309,-143.68749534,-120.81797231,-0.80927408,-4.76820664
13.65794786,-2.10528271,0.75716235,1.67436040

>  <Name>
ligand

>  <RI>
0

>  <Rbt.Current_Directory>
/home/itssahil/PROJECTS/Mol_Feturizer/New_Systems/rnas/4LVY

>  <Rbt.Executable>
rbdock ($Id: //depot/dev/client3/rdock/2013.1/src/exe/rbdock.cxx#4 $)

>  <Rbt.Library>
libRbt.so (2013.1, Build901 2013/11/27)

>  <Rbt.Parameter_File>
/export/apps/rDock/src/rDock_2013.1_src/data/scripts/dock_solv.prm

>  <Rbt.Receptor>
prm/blind_docking_20.prm

>  <SCORE>
-7.71734

>  <SCORE.INTER>
-10.3991

>  <SCORE.INTER.CONST>
1

>  <SCORE.INTER.POLAR>
0

>  <SCORE.INTER.ROT>
4

>  <SCORE.INTER.SOLV>
10.3662

>  <SCORE.INTER.VDW>
-16.6548

>  <SCORE.INTER.norm>
-0.472685

>  <SCORE.INTRA>
1.32335

>  <SCORE.INTRA.DIHEDRAL>
4.04852

>  <SCORE.INTRA.DIHEDRAL.0>
6.18831

>  <SCORE.INTRA.POLAR>
0

>  <SCORE.INTRA.POLAR.0>
0

>  <SCORE.INTRA.REPUL>
0

>  <SCORE.INTRA.REPUL.0>
0

>  <SCORE.INTRA.SOLV>
0.495044

>  <SCORE.INTRA.SOLV.lig_0>
-44.3465

>  <SCORE.INTRA.VDW>
-0.948433

>  <SCORE.INTRA.VDW.0>
-0.778272

>  <SCORE.INTRA.norm>
0.0601523

>  <SCORE.RESTR>
1.35837

>  <SCORE.RESTR.CAVITY>
1.35837

>  <SCORE.RESTR.norm>
0.0617442

>  <SCORE.SYSTEM>
0

>  <SCORE.SYSTEM.CONST>
0

>  <SCORE.SYSTEM.DIHEDRAL>
0

>  <SCORE.SYSTEM.SOLV>
0

>  <SCORE.SYSTEM.norm>
0

>  <SCORE.heavy>
22

>  <SCORE.norm>
-0.350788

>  <RMSD>
13.181

$$$$
ligand
 OpenBabel11021811503D
libRbt.so/2013.1/901 2013/11/27
 22 24  0  0  0  0  0  0  0  0999 V2000
   -1.3941   -4.2716   11.7584 C   0  0  0  0  0  0  0  0  0  0  0  0
   -2.4224   -5.1462   12.1686 C   0  0  0  0  0  0  0  0  0  0  0  0
   -2.9943   -6.0121   11.2405 C   0  0  0  0  0  0  0  0  0  0  0  0
   -2.5388   -6.0003    9.9106 C   0  0  0  0  0  0  0  0  0  0  0  0
   -1.5130   -5.1160    9.4951 C   0  0  0  0  0  0  0  0  0  0  0  0
   -0.9445   -4.2529   10.4219 C   0  0  0  0  0  0  0  0  0  0  0  0
   -0.7632   -3.2945   12.7690 C   0  0  0  0  0  0  0  0  0  0  0  0
    0.7222   -3.5737   13.1090 C   0  0  0  0  0  0  0  0  0  0  0  0
    1.0715   -3.3432   14.5747 C   0  0  0  0  0  0  0  0  0  0  0  0
    2.0573   -2.4529   15.0111 C   0  0  0  0  0  0  0  0  0  0  0  0
    2.0736   -2.5175   16.3681 N   0  0  0  0  0  0  0  0  0  0  0  0
    1.1436   -3.4104   16.8621 C   0  0  0  0  0  0  0  0  0  0  0  0
    0.4852   -3.9550   15.7650 C   0  0  0  0  0  0  0  0  0  0  0  0
   -0.5513   -4.9279   16.0321 C   0  0  0  0  0  0  0  0  0  0  0  0
   -1.2576   -5.5081   14.9820 O   0  0  0  0  0  0  0  0  0  0  0  0
   -0.8285   -5.2759   17.3474 N   0  0  0  0  0  0  0  0  0  0  0  0
   -0.1627   -4.7073   18.3943 C   0  0  0  0  0  0  0  0  0  0  0  0
    0.8052   -3.8016   18.1834 N   0  0  0  0  0  0  0  0  0  0  0  0
   -0.5025   -5.0955   19.7670 N   0  0  0  0  0  0  0  0  0  0  0  0
   -3.1785   -6.9435    8.9265 C   0  0  0  0  0  0  0  0  0  0  0  0
   -2.4904   -7.7585    8.3147 O   0  0  0  0  0  0  0  0  0  0  0  0
   -4.5995   -6.8671    8.7139 N   0  0  0  0  0  0  0  0  0  0  0  0
  1  2  2  0  0  0  0
  1  6  1  0  0  0  0
  1  7  1  0  0  0  0
  2  3  1  0  0  0  0
  3  4  2  0  0  0  0
  4  5  1  0  0  0  0
  4 20  1  0  0  0  0
  5  6  2  0  0  0  0
  7  8  1  0  0  0  0
  8  9  1  0  0  0  0
  9 10  2  0  0  0  0
  9 13  1  0  0  0  0
 10 11  1  0  0  0  0
 11 12  1  0  0  0  0
 12 13  2  0  0  0  0
 12 18  1  0  0  0  0
 13 14  1  0  0  0  0
 14 15  1  0  0  0  0
 14 16  2  0  0  0  0
 16 17  1  0  0  0  0
 17 18  2  0  0  0  0
 17 19  1  0  0  0  0
 20 21  2  0  0  0  0
 20 22  1  0  0  0  0
M  END
>  <CHROM.1>
113.41167014,-122.39643778,-141.60567087,-122.19988106,-0.82000993,-4.77135165
13.66103336,-2.11336109,0.76071683,1.67987764

>  <Name>
ligand

>  <RI>
0

>  <Rbt.Current_Directory>
/home/itssahil/PROJECTS/Mol_Feturizer/New_Systems/rnas/4LVY

>  <Rbt.Executable>
rbdock ($Id: //depot/dev/client3/rdock/2013.1/src/exe/rbdock.cxx#4 $)

>  <Rbt.Library>
libRbt.so (2013.1, Build901 2013/11/27)

>  <Rbt.Parameter_File>
/export/apps/rDock/src/rDock_2013.1_src/data/scripts/dock_solv.prm

>  <Rbt.Receptor>
prm/blind_docking_20.prm

>  <SCORE>
-7.77859

>  <SCORE.INTER>
-10.674

>  <SCORE.INTER.CONST>
1

>  <SCORE.INTER.POLAR>
0

>  <SCORE.INTER.ROT>
4

>  <SCORE.INTER.SOLV>
10.1356

>  <SCORE.INTER.VDW>
-16.7612

>  <SCORE.INTER.norm>
-0.485181

>  <SCORE.INTRA>
1.53778

>  <SCORE.INTRA.DIHEDRAL>
4.42009

>  <SCORE.INTRA.DIHEDRAL.0>
6.18831

>  <SCORE.INTRA.POLAR>
0

>  <SCORE.INTRA.POLAR.0>
0

>  <SCORE.INTRA.REPUL>
0

>  <SCORE.INTRA.REPUL.0>
0

>  <SCORE.INTRA.SOLV>
0.521431

>  <SCORE.INTRA.SOLV.lig_0>
-44.3465

>  <SCORE.INTRA.VDW>
-0.932982

>  <SCORE.INTRA.VDW.0>
-0.778272

>  <SCORE.INTRA.norm>
0.069899

>  <SCORE.RESTR>
1.35761

>  <SCORE.RESTR.CAVITY>
1.35761

>  <SCORE.RESTR.norm>
0.0617095

>  <SCORE.SYSTEM>
0

>  <SCORE.SYSTEM.CONST>
0

>  <SCORE.SYSTEM.DIHEDRAL>
0

>  <SCORE.SYSTEM.SOLV>
0

>  <SCORE.SYSTEM.norm>
0

>  <SCORE.heavy>
22

>  <SCORE.norm>
-0.353572

>  <RMSD>
13.186

$$$$
ligand
 OpenBabel11021811503D
libRbt.so/2013.1/901 2013/11/27
 22 24  0  0  0  0  0  0  0  0999 V2000
   -1.3362   -4.2376   11.4583 C   0  0  0  0  0  0  0  0  0  0  0  0
   -1.4765   -3.7731   10.1335 C   0  0  0  0  0  0  0  0  0  0  0  0
   -2.3918   -4.3909    9.2857 C   0  0  0  0  0  0  0  0  0  0  0  0
   -3.1601   -5.4672    9.7627 C   0  0  0  0  0  0  0  0  0  0  0  0
   -3.0135   -5.9407   11.0898 C   0  0  0  0  0  0  0  0  0  0  0  0
   -2.0998   -5.3239   11.9335 C   0  0  0  0  0  0  0  0  0  0  0  0
   -0.3150   -3.5765   12.4039 C   0  0  0  0  0  0  0  0  0  0  0  0
   -0.8358   -3.2947   13.8354 C   0  0  0  0  0  0  0  0  0  0  0  0
    0.2683   -3.1797   14.8801 C   0  0  0  0  0  0  0  0  0  0  0  0
    1.4318   -2.4243   14.7056 C   0  0  0  0  0  0  0  0  0  0  0  0
    2.1641   -2.5610   15.8419 N   0  0  0  0  0  0  0  0  0  0  0  0
    1.5449   -3.3735   16.7706 C   0  0  0  0  0  0  0  0  0  0  0  0
    0.3426   -3.7863   16.2072 C   0  0  0  0  0  0  0  0  0  0  0  0
   -0.4966   -4.6550   17.0032 C   0  0  0  0  0  0  0  0  0  0  0  0
   -1.7182   -5.1004   16.5057 O   0  0  0  0  0  0  0  0  0  0  0  0
   -0.0656   -5.0393   18.2659 N   0  0  0  0  0  0  0  0  0  0  0  0
    1.1190   -4.6009   18.7826 C   0  0  0  0  0  0  0  0  0  0  0  0
    1.9229   -3.7944   18.0719 N   0  0  0  0  0  0  0  0  0  0  0  0
    1.5236   -5.0213   20.1280 N   0  0  0  0  0  0  0  0  0  0  0  0
   -4.1385   -6.1203    8.8229 C   0  0  0  0  0  0  0  0  0  0  0  0
   -4.5901   -5.4926    7.8667 O   0  0  0  0  0  0  0  0  0  0  0  0
   -4.5359   -7.4810    9.0690 N   0  0  0  0  0  0  0  0  0  0  0  0
  1  2  2  0  0  0  0
  1  6  1  0  0  0  0
  1  7  1  0  0  0  0
  2  3  1  0  0  0  0
  3  4  2  0  0  0  0
  4  5  1  0  0  0  0
  4 20  1  0  0  0  0
  5  6  2  0  0  0  0
  7  8  1  0  0  0  0
  8  9  1  0  0  0  0
  9 10  2  0  0  0  0
  9 13  1  0  0  0  0
 10 11  1  0  0  0  0
 11 12  1  0  0  0  0
 12 13  2  0  0  0  0
 12 18  1  0  0  0  0
 13 14  1  0  0  0  0
 14 15  1  0  0  0  0
 14 16  2  0  0  0  0
 16 17  1  0  0  0  0
 17 18  2  0  0  0  0
 17 19  1  0  0  0  0
 20 21  2  0  0  0  0
 20 22  1  0  0  0  0
M  END
>  <CHROM.1>
135.84234703,-24.35959647,156.84787307,46.57506167,-0.92220627,-4.50162014
13.79919500,-2.26876198,0.76208357,1.91862457

>  <Name>
ligand

>  <RI>
0

>  <Rbt.Current_Directory>
/home/itssahil/PROJECTS/Mol_Feturizer/New_Systems/rnas/4LVY

>  <Rbt.Executable>
rbdock ($Id: //depot/dev/client3/rdock/2013.1/src/exe/rbdock.cxx#4 $)

>  <Rbt.Library>
libRbt.so (2013.1, Build901 2013/11/27)

>  <Rbt.Parameter_File>
/export/apps/rDock/src/rDock_2013.1_src/data/scripts/dock_solv.prm

>  <Rbt.Receptor>
prm/blind_docking_20.prm

>  <SCORE>
-4.81461

>  <SCORE.INTER>
-7.57892

>  <SCORE.INTER.CONST>
1

>  <SCORE.INTER.POLAR>
0

>  <SCORE.INTER.ROT>
4

>  <SCORE.INTER.SOLV>
7.34184

>  <SCORE.INTER.VDW>
-13.7666

>  <SCORE.INTER.norm>
-0.344496

>  <SCORE.INTRA>
1.14578

>  <SCORE.INTRA.DIHEDRAL>
1.96486

>  <SCORE.INTRA.DIHEDRAL.0>
6.18831

>  <SCORE.INTRA.POLAR>
0

>  <SCORE.INTRA.POLAR.0>
0

>  <SCORE.INTRA.REPUL>
0

>  <SCORE.INTRA.REPUL.0>
0

>  <SCORE.INTRA.SOLV>
0.0103589

>  <SCORE.INTRA.SOLV.lig_0>
-44.3465

>  <SCORE.INTRA.VDW>
0.158171

>  <SCORE.INTRA.VDW.0>
-0.778272

>  <SCORE.INTRA.norm>
0.0520809

>  <SCORE.RESTR>
1.61853

>  <SCORE.RESTR.CAVITY>
1.61853

>  <SCORE.RESTR.norm>
0.0735696

>  <SCORE.SYSTEM>
0

>  <SCORE.SYSTEM.CONST>
0

>  <SCORE.SYSTEM.DIHEDRAL>
0

>  <SCORE.SYSTEM.SOLV>
0

>  <SCORE.SYSTEM.norm>
0

>  <SCORE.heavy>
22

>  <SCORE.norm>
-0.218846

>  <RMSD>
13.214

$$$$
ligand
 OpenBabel11021811503D
libRbt.so/2013.1/901 2013/11/27
 22 24  0  0  0  0  0  0  0  0999 V2000
   -1.7272   -3.9721   11.4632 C   0  0  0  0  0  0  0  0  0  0  0  0
   -1.9878   -3.6078   10.1253 C   0  0  0  0  0  0  0  0  0  0  0  0
   -2.6336   -4.5101    9.2844 C   0  0  0  0  0  0  0  0  0  0  0  0
   -3.0144   -5.7687    9.7815 C   0  0  0  0  0  0  0  0  0  0  0  0
   -2.7449   -6.1394   11.1219 C   0  0  0  0  0  0  0  0  0  0  0  0
   -2.1002   -5.2386   11.9586 C   0  0  0  0  0  0  0  0  0  0  0  0
   -0.9974   -2.9919   12.4018 C   0  0  0  0  0  0  0  0  0  0  0  0
    0.1109   -3.6276   13.2779 C   0  0  0  0  0  0  0  0  0  0  0  0
   -0.4119   -4.2841   14.5504 C   0  0  0  0  0  0  0  0  0  0  0  0
   -1.4355   -5.2363   14.5731 C   0  0  0  0  0  0  0  0  0  0  0  0
   -1.6170   -5.5883   15.8728 N   0  0  0  0  0  0  0  0  0  0  0  0
   -0.7619   -4.9160   16.7229 C   0  0  0  0  0  0  0  0  0  0  0  0
    0.0201   -4.0818   15.9314 C   0  0  0  0  0  0  0  0  0  0  0  0
    1.0079   -3.2672   16.6044 C   0  0  0  0  0  0  0  0  0  0  0  0
    1.8313   -2.4149   15.8739 O   0  0  0  0  0  0  0  0  0  0  0  0
    1.1201   -3.3452   17.9862 N   0  0  0  0  0  0  0  0  0  0  0  0
    0.3371   -4.1866   18.7220 C   0  0  0  0  0  0  0  0  0  0  0  0
   -0.5900   -4.9565   18.1309 N   0  0  0  0  0  0  0  0  0  0  0  0
    0.5042   -4.2459   20.1778 N   0  0  0  0  0  0  0  0  0  0  0  0
   -3.7065   -6.7271    8.8489 C   0  0  0  0  0  0  0  0  0  0  0  0
   -4.3604   -6.3011    7.8986 O   0  0  0  0  0  0  0  0  0  0  0  0
   -3.5932   -8.1401    9.0950 N   0  0  0  0  0  0  0  0  0  0  0  0
  1  2  2  0  0  0  0
  1  6  1  0  0  0  0
  1  7  1  0  0  0  0
  2  3  1  0  0  0  0
  3  4  2  0  0  0  0
  4  5  1  0  0  0  0
  4 20  1  0  0  0  0
  5  6  2  0  0  0  0
  7  8  1  0  0  0  0
  8  9  1  0  0  0  0
  9 10  2  0  0  0  0
  9 13  1  0  0  0  0
 10 11  1  0  0  0  0
 11 12  1  0  0  0  0
 12 13  2  0  0  0  0
 12 18  1  0  0  0  0
 13 14  1  0  0  0  0
 14 15  1  0  0  0  0
 14 16  2  0  0  0  0
 16 17  1  0  0  0  0
 17 18  2  0  0  0  0
 17 19  1  0  0  0  0
 20 21  2  0  0  0  0
 20 22  1  0  0  0  0
M  END
>  <CHROM.1>
-135.84327283,-26.90238449,-83.18775402,52.68558991,-1.19311485,-4.69642987
13.68449373,-2.27060188,0.91676548,1.92464134

>  <Name>
ligand

>  <RI>
0

>  <Rbt.Current_Directory>
/home/itssahil/PROJECTS/Mol_Feturizer/New_Systems/rnas/4LVY

>  <Rbt.Executable>
rbdock ($Id: //depot/dev/client3/rdock/2013.1/src/exe/rbdock.cxx#4 $)

>  <Rbt.Library>
libRbt.so (2013.1, Build901 2013/11/27)

>  <Rbt.Parameter_File>
/export/apps/rDock/src/rDock_2013.1_src/data/scripts/dock_solv.prm

>  <Rbt.Receptor>
prm/blind_docking_20.prm

>  <SCORE>
-3.14564

>  <SCORE.INTER>
-6.02033

>  <SCORE.INTER.CONST>
1

>  <SCORE.INTER.POLAR>
0

>  <SCORE.INTER.ROT>
4

>  <SCORE.INTER.SOLV>
13.6071

>  <SCORE.INTER.VDW>
-14.8159

>  <SCORE.INTER.norm>
-0.273651

>  <SCORE.INTRA>
1.59661

>  <SCORE.INTRA.DIHEDRAL>
2.0905

>  <SCORE.INTRA.DIHEDRAL.0>
6.18831

>  <SCORE.INTRA.POLAR>
0

>  <SCORE.INTRA.POLAR.0>
0

>  <SCORE.INTRA.REPUL>
0

>  <SCORE.INTRA.REPUL.0>
0

>  <SCORE.INTRA.SOLV>
0.0262948

>  <SCORE.INTRA.SOLV.lig_0>
-44.3465

>  <SCORE.INTRA.VDW>
0.538214

>  <SCORE.INTRA.VDW.0>
-0.778272

>  <SCORE.INTRA.norm>
0.0725732

>  <SCORE.RESTR>
1.27808

>  <SCORE.RESTR.CAVITY>
1.27808

>  <SCORE.RESTR.norm>
0.0580946

>  <SCORE.SYSTEM>
0

>  <SCORE.SYSTEM.CONST>
0

>  <SCORE.SYSTEM.DIHEDRAL>
0

>  <SCORE.SYSTEM.SOLV>
0

>  <SCORE.SYSTEM.norm>
0

>  <SCORE.heavy>
22

>  <SCORE.norm>
-0.142984

>  <RMSD>
13.216

$$$$
ligand
 OpenBabel11021811503D
libRbt.so/2013.1/901 2013/11/27
 22 24  0  0  0  0  0  0  0  0999 V2000
   -0.9245   -4.0599   11.5833 C   0  0  0  0  0  0  0  0  0  0  0  0
   -2.1088   -4.6444   12.0799 C   0  0  0  0  0  0  0  0  0  0  0  0
   -2.8565   -5.4805   11.2552 C   0  0  0  0  0  0  0  0  0  0  0  0
   -2.4202   -5.7279    9.9420 C   0  0  0  0  0  0  0  0  0  0  0  0
   -1.2364   -5.1342    9.4390 C   0  0  0  0  0  0  0  0  0  0  0  0
   -0.4926   -4.3002   10.2626 C   0  0  0  0  0  0  0  0  0  0  0  0
   -0.0951   -3.1180   12.4772 C   0  0  0  0  0  0  0  0  0  0  0  0
    0.9673   -3.8204   13.3592 C   0  0  0  0  0  0  0  0  0  0  0  0
    0.7635   -3.6073   14.8547 C   0  0  0  0  0  0  0  0  0  0  0  0
    1.4995   -2.6982   15.6207 C   0  0  0  0  0  0  0  0  0  0  0  0
    1.0330   -2.7873   16.8937 N   0  0  0  0  0  0  0  0  0  0  0  0
    0.0175   -3.7146   17.0166 C   0  0  0  0  0  0  0  0  0  0  0  0
   -0.1885   -4.2569   15.7529 C   0  0  0  0  0  0  0  0  0  0  0  0
   -1.2200   -5.2629   15.6253 C   0  0  0  0  0  0  0  0  0  0  0  0
   -1.4863   -5.8430   14.3881 O   0  0  0  0  0  0  0  0  0  0  0  0
   -1.9364   -5.6426   16.7524 N   0  0  0  0  0  0  0  0  0  0  0  0
   -1.7064   -5.0752   17.9722 C   0  0  0  0  0  0  0  0  0  0  0  0
   -0.7568   -4.1393   18.1273 N   0  0  0  0  0  0  0  0  0  0  0  0
   -2.5004   -5.4978   19.1304 N   0  0  0  0  0  0  0  0  0  0  0  0
   -3.2508   -6.6318    9.0701 C   0  0  0  0  0  0  0  0  0  0  0  0
   -2.9760   -7.8269    8.9799 O   0  0  0  0  0  0  0  0  0  0  0  0
   -4.3599   -6.0708    8.3453 N   0  0  0  0  0  0  0  0  0  0  0  0
  1  2  2  0  0  0  0
  1  6  1  0  0  0  0
  1  7  1  0  0  0  0
  2  3  1  0  0  0  0
  3  4  2  0  0  0  0
  4  5  1  0  0  0  0
  4 20  1  0  0  0  0
  5  6  2  0  0  0  0
  7  8  1  0  0  0  0
  8  9  1  0  0  0  0
  9 10  2  0  0  0  0
  9 13  1  0  0  0  0
 10 11  1  0  0  0  0
 11 12  1  0  0  0  0
 12 13  2  0  0  0  0
 12 18  1  0  0  0  0
 13 14  1  0  0  0  0
 14 15  1  0  0  0  0
 14 16  2  0  0  0  0
 16 17  1  0  0  0  0
 17 18  2  0  0  0  0
 17 19  1  0  0  0  0
 20 21  2  0  0  0  0
 20 22  1  0  0  0  0
M  END
>  <CHROM.1>
88.23914532,-95.27903218,-119.80664363,-101.62391330,-1.21634027,-4.82802796
13.60401504,-1.91454036,0.69209005,1.57157175

>  <Name>
ligand

>  <RI>
0

>  <Rbt.Current_Directory>
/home/itssahil/PROJECTS/Mol_Feturizer/New_Systems/rnas/4LVY

>  <Rbt.Executable>
rbdock ($Id: //depot/dev/client3/rdock/2013.1/src/exe/rbdock.cxx#4 $)

>  <Rbt.Library>
libRbt.so (2013.1, Build901 2013/11/27)

>  <Rbt.Parameter_File>
/export/apps/rDock/src/rDock_2013.1_src/data/scripts/dock_solv.prm

>  <Rbt.Receptor>
prm/blind_docking_20.prm

>  <SCORE>
-6.25416

>  <SCORE.INTER>
-9.69382

>  <SCORE.INTER.CONST>
1

>  <SCORE.INTER.POLAR>
0

>  <SCORE.INTER.ROT>
4

>  <SCORE.INTER.SOLV>
7.94207

>  <SCORE.INTER.VDW>
-15.3766

>  <SCORE.INTER.norm>
-0.440628

>  <SCORE.INTRA>
2.48058

>  <SCORE.INTRA.DIHEDRAL>
6.17173

>  <SCORE.INTRA.DIHEDRAL.0>
6.18831

>  <SCORE.INTRA.POLAR>
0

>  <SCORE.INTRA.POLAR.0>
0

>  <SCORE.INTRA.REPUL>
0

>  <SCORE.INTRA.REPUL.0>
0

>  <SCORE.INTRA.SOLV>
0.576437

>  <SCORE.INTRA.SOLV.lig_0>
-44.3465

>  <SCORE.INTRA.VDW>
-0.893505

>  <SCORE.INTRA.VDW.0>
-0.778272

>  <SCORE.INTRA.norm>
0.112754

>  <SCORE.RESTR>
0.959085

>  <SCORE.RESTR.CAVITY>
0.959085

>  <SCORE.RESTR.norm>
0.0435948

>  <SCORE.SYSTEM>
0

>  <SCORE.SYSTEM.CONST>
0

>  <SCORE.SYSTEM.DIHEDRAL>
0

>  <SCORE.SYSTEM.SOLV>
0

>  <SCORE.SYSTEM.norm>
0

>  <SCORE.heavy>
22

>  <SCORE.norm>
-0.28428

>  <RMSD>
13.220

$$$$
ligand
 OpenBabel11021811503D
libRbt.so/2013.1/901 2013/11/27
 22 24  0  0  0  0  0  0  0  0999 V2000
   -3.8450   -5.5191   20.1409 C   0  0  0  0  0  0  0  0  0  0  0  0
   -5.0315   -4.8755   20.5514 C   0  0  0  0  0  0  0  0  0  0  0  0
   -5.7714   -5.4109   21.6022 C   0  0  0  0  0  0  0  0  0  0  0  0
   -5.3251   -6.5836   22.2360 C   0  0  0  0  0  0  0  0  0  0  0  0
   -4.1389   -7.2362   21.8186 C   0  0  0  0  0  0  0  0  0  0  0  0
   -3.4029   -6.7011   20.7702 C   0  0  0  0  0  0  0  0  0  0  0  0
   -3.0242   -4.9494   18.9679 C   0  0  0  0  0  0  0  0  0  0  0  0
   -1.4887   -5.0964   19.1116 C   0  0  0  0  0  0  0  0  0  0  0  0
   -0.6966   -4.3442   18.0484 C   0  0  0  0  0  0  0  0  0  0  0  0
    0.4680   -3.6169   18.3121 C   0  0  0  0  0  0  0  0  0  0  0  0
    0.8853   -3.0985   17.1275 N   0  0  0  0  0  0  0  0  0  0  0  0
    0.0539   -3.4451   16.0812 C   0  0  0  0  0  0  0  0  0  0  0  0
   -0.9591   -4.2339   16.6153 C   0  0  0  0  0  0  0  0  0  0  0  0
   -1.9641   -4.7284   15.7001 C   0  0  0  0  0  0  0  0  0  0  0  0
   -3.0028   -5.5309   16.1640 O   0  0  0  0  0  0  0  0  0  0  0  0
   -1.8796   -4.3892   14.3563 N   0  0  0  0  0  0  0  0  0  0  0  0
   -0.8607   -3.6196   13.8746 C   0  0  0  0  0  0  0  0  0  0  0  0
    0.0888   -3.1433   14.6952 N   0  0  0  0  0  0  0  0  0  0  0  0
   -0.8054   -3.3016   12.4440 N   0  0  0  0  0  0  0  0  0  0  0  0
   -6.1474   -7.1439   23.3661 C   0  0  0  0  0  0  0  0  0  0  0  0
   -5.8538   -6.8847   24.5317 O   0  0  0  0  0  0  0  0  0  0  0  0
   -7.2708   -7.9877   23.0560 N   0  0  0  0  0  0  0  0  0  0  0  0
  1  2  2  0  0  0  0
  1  6  1  0  0  0  0
  1  7  1  0  0  0  0
  2  3  1  0  0  0  0
  3  4  2  0  0  0  0
  4  5  1  0  0  0  0
  4 20  1  0  0  0  0
  5  6  2  0  0  0  0
  7  8  1  0  0  0  0
  8  9  1  0  0  0  0
  9 10  2  0  0  0  0
  9 13  1  0  0  0  0
 10 11  1  0  0  0  0
 11 12  1  0  0  0  0
 12 13  2  0  0  0  0
 12 18  1  0  0  0  0
 13 14  1  0  0  0  0
 14 15  1  0  0  0  0
 14 16  2  0  0  0  0
 16 17  1  0  0  0  0
 17 18  2  0  0  0  0
 17 19  1  0  0  0  0
 20 21  2  0  0  0  0
 20 22  1  0  0  0  0
M  END
>  <CHROM.1>
144.44928657,-96.67386007,-171.29333961,138.48630426,-2.73442161,-5.08972673
18.59154477,2.17810837,0.41198505,1.68318876

>  <Name>
ligand

>  <RI>
0

>  <Rbt.Current_Directory>
/home/itssahil/PROJECTS/Mol_Feturizer/New_Systems/rnas/4LVY

>  <Rbt.Executable>
rbdock ($Id: //depot/dev/client3/rdock/2013.1/src/exe/rbdock.cxx#4 $)

>  <Rbt.Library>
libRbt.so (2013.1, Build901 2013/11/27)

>  <Rbt.Parameter_File>
/export/apps/rDock/src/rDock_2013.1_src/data/scripts/dock_solv.prm

>  <Rbt.Receptor>
prm/blind_docking_80.prm

>  <SCORE>
-11.5917

>  <SCORE.INTER>
-11.9891

>  <SCORE.INTER.CONST>
1

>  <SCORE.INTER.POLAR>
0

>  <SCORE.INTER.ROT>
4

>  <SCORE.INTER.SOLV>
9.03553

>  <SCORE.INTER.VDW>
-17.2713

>  <SCORE.INTER.norm>
-0.54496

>  <SCORE.INTRA>
0.397463

>  <SCORE.INTRA.DIHEDRAL>
0.216898

>  <SCORE.INTRA.DIHEDRAL.0>
6.18831

>  <SCORE.INTRA.POLAR>
0

>  <SCORE.INTRA.POLAR.0>
0

>  <SCORE.INTRA.REPUL>
0

>  <SCORE.INTRA.REPUL.0>
0

>  <SCORE.INTRA.SOLV>
0.370605

>  <SCORE.INTRA.SOLV.lig_0>
-44.3465

>  <SCORE.INTRA.VDW>
0.103711

>  <SCORE.INTRA.VDW.0>
-0.778272

>  <SCORE.INTRA.norm>
0.0180665

>  <SCORE.RESTR>
0

>  <SCORE.RESTR.CAVITY>
0

>  <SCORE.RESTR.norm>
0

>  <SCORE.SYSTEM>
0

>  <SCORE.SYSTEM.CONST>
0

>  <SCORE.SYSTEM.DIHEDRAL>
0

>  <SCORE.SYSTEM.SOLV>
0

>  <SCORE.SYSTEM.norm>
0

>  <SCORE.heavy>
22

>  <SCORE.norm>
-0.526893

>  <RMSD>
13.232

$$$$
ligand
 OpenBabel11021811503D
libRbt.so/2013.1/901 2013/11/27
 22 24  0  0  0  0  0  0  0  0999 V2000
   -0.9763   -4.0958   11.5613 C   0  0  0  0  0  0  0  0  0  0  0  0
   -0.5347   -4.3339   10.2427 C   0  0  0  0  0  0  0  0  0  0  0  0
   -1.2458   -5.2146    9.4321 C   0  0  0  0  0  0  0  0  0  0  0  0
   -2.3907   -5.8524    9.9406 C   0  0  0  0  0  0  0  0  0  0  0  0
   -2.8297   -5.6215   11.2675 C   0  0  0  0  0  0  0  0  0  0  0  0
   -2.1190   -4.7436   12.0744 C   0  0  0  0  0  0  0  0  0  0  0  0
   -0.1904   -3.1377   12.4772 C   0  0  0  0  0  0  0  0  0  0  0  0
    0.9033   -3.8108   13.3435 C   0  0  0  0  0  0  0  0  0  0  0  0
    0.7157   -3.6028   14.8419 C   0  0  0  0  0  0  0  0  0  0  0  0
    1.4605   -2.6967   15.6030 C   0  0  0  0  0  0  0  0  0  0  0  0
    1.0077   -2.7900   16.8806 N   0  0  0  0  0  0  0  0  0  0  0  0
   -0.0070   -3.7172   17.0112 C   0  0  0  0  0  0  0  0  0  0  0  0
   -0.2268   -4.2551   15.7479 C   0  0  0  0  0  0  0  0  0  0  0  0
   -1.2602   -5.2600   15.6280 C   0  0  0  0  0  0  0  0  0  0  0  0
   -1.5402   -5.8357   14.3918 O   0  0  0  0  0  0  0  0  0  0  0  0
   -1.9647   -5.6433   16.7615 N   0  0  0  0  0  0  0  0  0  0  0  0
   -1.7212   -5.0802   17.9806 C   0  0  0  0  0  0  0  0  0  0  0  0
   -0.7695   -4.1453   18.1287 N   0  0  0  0  0  0  0  0  0  0  0  0
   -2.5030   -5.5063   19.1459 N   0  0  0  0  0  0  0  0  0  0  0  0
   -3.1376   -6.8040    9.0440 C   0  0  0  0  0  0  0  0  0  0  0  0
   -2.5368   -7.7056    8.4625 O   0  0  0  0  0  0  0  0  0  0  0  0
   -4.5566   -6.6335    8.8784 N   0  0  0  0  0  0  0  0  0  0  0  0
  1  2  2  0  0  0  0
  1  6  1  0  0  0  0
  1  7  1  0  0  0  0
  2  3  1  0  0  0  0
  3  4  2  0  0  0  0
  4  5  1  0  0  0  0
  4 20  1  0  0  0  0
  5  6  2  0  0  0  0
  7  8  1  0  0  0  0
  8  9  1  0  0  0  0
  9 10  2  0  0  0  0
  9 13  1  0  0  0  0
 10 11  1  0  0  0  0
 11 12  1  0  0  0  0
 12 13  2  0  0  0  0
 12 18  1  0  0  0  0
 13 14  1  0  0  0  0
 14 15  1  0  0  0  0
 14 16  2  0  0  0  0
 16 17  1  0  0  0  0
 17 18  2  0  0  0  0
 17 19  1  0  0  0  0
 20 21  2  0  0  0  0
 20 22  1  0  0  0  0
M  END
>  <CHROM.1>
-91.23379573,51.32421641,-121.70982666,-103.22942460,-1.22183957,-4.87844209
13.59708358,-1.89421820,0.69515667,1.53905977

>  <Name>
ligand

>  <RI>
0

>  <Rbt.Current_Directory>
/home/itssahil/PROJECTS/Mol_Feturizer/New_Systems/rnas/4LVY

>  <Rbt.Executable>
rbdock ($Id: //depot/dev/client3/rdock/2013.1/src/exe/rbdock.cxx#4 $)

>  <Rbt.Library>
libRbt.so (2013.1, Build901 2013/11/27)

>  <Rbt.Parameter_File>
/export/apps/rDock/src/rDock_2013.1_src/data/scripts/dock_solv.prm

>  <Rbt.Receptor>
prm/blind_docking_20.prm

>  <SCORE>
-6.55148

>  <SCORE.INTER>
-10.1544

>  <SCORE.INTER.CONST>
1

>  <SCORE.INTER.POLAR>
0

>  <SCORE.INTER.ROT>
4

>  <SCORE.INTER.SOLV>
8.70154

>  <SCORE.INTER.VDW>
-15.9368

>  <SCORE.INTER.norm>
-0.461563

>  <SCORE.INTRA>
2.66882

>  <SCORE.INTRA.DIHEDRAL>
6.02441

>  <SCORE.INTRA.DIHEDRAL.0>
6.18831

>  <SCORE.INTRA.POLAR>
0

>  <SCORE.INTRA.POLAR.0>
0

>  <SCORE.INTRA.REPUL>
0

>  <SCORE.INTRA.REPUL.0>
0

>  <SCORE.INTRA.SOLV>
0.602324

>  <SCORE.INTRA.SOLV.lig_0>
-44.3465

>  <SCORE.INTRA.VDW>
-0.644549

>  <SCORE.INTRA.VDW.0>
-0.778272

>  <SCORE.INTRA.norm>
0.12131

>  <SCORE.RESTR>
0.934095

>  <SCORE.RESTR.CAVITY>
0.934095

>  <SCORE.RESTR.norm>
0.0424589

>  <SCORE.SYSTEM>
0

>  <SCORE.SYSTEM.CONST>
0

>  <SCORE.SYSTEM.DIHEDRAL>
0

>  <SCORE.SYSTEM.SOLV>
0

>  <SCORE.SYSTEM.norm>
0

>  <SCORE.heavy>
22

>  <SCORE.norm>
-0.297795

>  <RMSD>
13.242

$$$$
ligand
 OpenBabel11021811503D
libRbt.so/2013.1/901 2013/11/27
 22 24  0  0  0  0  0  0  0  0999 V2000
   -1.0076   -4.1133   11.5649 C   0  0  0  0  0  0  0  0  0  0  0  0
   -2.1803   -4.7492   12.0242 C   0  0  0  0  0  0  0  0  0  0  0  0
   -2.8606   -5.6218   11.1792 C   0  0  0  0  0  0  0  0  0  0  0  0
   -2.3689   -5.8543    9.8829 C   0  0  0  0  0  0  0  0  0  0  0  0
   -1.1968   -5.2091    9.4172 C   0  0  0  0  0  0  0  0  0  0  0  0
   -0.5202   -4.3388   10.2610 C   0  0  0  0  0  0  0  0  0  0  0  0
   -0.2529   -3.1310   12.4813 C   0  0  0  0  0  0  0  0  0  0  0  0
    0.8807   -3.7641   13.3263 C   0  0  0  0  0  0  0  0  0  0  0  0
    0.7070   -3.5747   14.8288 C   0  0  0  0  0  0  0  0  0  0  0  0
    1.4683   -2.6882   15.5966 C   0  0  0  0  0  0  0  0  0  0  0  0
    1.0241   -2.7940   16.8763 N   0  0  0  0  0  0  0  0  0  0  0  0
   -0.0005   -3.7108   17.0020 C   0  0  0  0  0  0  0  0  0  0  0  0
   -0.2363   -4.2284   15.7331 C   0  0  0  0  0  0  0  0  0  0  0  0
   -1.2825   -5.2193   15.6073 C   0  0  0  0  0  0  0  0  0  0  0  0
   -1.5787   -5.7744   14.3654 O   0  0  0  0  0  0  0  0  0  0  0  0
   -1.9828   -5.6100   16.7408 N   0  0  0  0  0  0  0  0  0  0  0  0
   -1.7234   -5.0669   17.9657 C   0  0  0  0  0  0  0  0  0  0  0  0
   -0.7596   -4.1454   18.1193 N   0  0  0  0  0  0  0  0  0  0  0  0
   -2.5013   -5.5000   19.1309 N   0  0  0  0  0  0  0  0  0  0  0  0
   -3.1272   -6.7986    8.9882 C   0  0  0  0  0  0  0  0  0  0  0  0
   -2.5488   -7.7439    8.4555 O   0  0  0  0  0  0  0  0  0  0  0  0
   -4.5302   -6.5693    8.7663 N   0  0  0  0  0  0  0  0  0  0  0  0
  1  2  2  0  0  0  0
  1  6  1  0  0  0  0
  1  7  1  0  0  0  0
  2  3  1  0  0  0  0
  3  4  2  0  0  0  0
  4  5  1  0  0  0  0
  4 20  1  0  0  0  0
  5  6  2  0  0  0  0
  7  8  1  0  0  0  0
  8  9  1  0  0  0  0
  9 10  2  0  0  0  0
  9 13  1  0  0  0  0
 10 11  1  0  0  0  0
 11 12  1  0  0  0  0
 12 13  2  0  0  0  0
 12 18  1  0  0  0  0
 13 14  1  0  0  0  0
 14 15  1  0  0  0  0
 14 16  2  0  0  0  0
 16 17  1  0  0  0  0
 17 18  2  0  0  0  0
 17 19  1  0  0  0  0
 20 21  2  0  0  0  0
 20 22  1  0  0  0  0
M  END
>  <CHROM.1>
92.55546194,-126.48031364,-121.97488983,-106.34695488,-1.22942270,-4.86527444
13.57306948,-1.89379103,0.69429060,1.53758752

>  <Name>
ligand

>  <RI>
0

>  <Rbt.Current_Directory>
/home/itssahil/PROJECTS/Mol_Feturizer/New_Systems/rnas/4LVY

>  <Rbt.Executable>
rbdock ($Id: //depot/dev/client3/rdock/2013.1/src/exe/rbdock.cxx#4 $)

>  <Rbt.Library>
libRbt.so (2013.1, Build901 2013/11/27)

>  <Rbt.Parameter_File>
/export/apps/rDock/src/rDock_2013.1_src/data/scripts/dock_solv.prm

>  <Rbt.Receptor>
prm/blind_docking_20.prm

>  <SCORE>
-6.48347

>  <SCORE.INTER>
-10.1409

>  <SCORE.INTER.CONST>
1

>  <SCORE.INTER.POLAR>
0

>  <SCORE.INTER.ROT>
4

>  <SCORE.INTER.SOLV>
8.64132

>  <SCORE.INTER.VDW>
-15.9077

>  <SCORE.INTER.norm>
-0.460951

>  <SCORE.INTRA>
2.75098

>  <SCORE.INTRA.DIHEDRAL>
6.19539

>  <SCORE.INTRA.DIHEDRAL.0>
6.18831

>  <SCORE.INTRA.POLAR>
0

>  <SCORE.INTRA.POLAR.0>
0

>  <SCORE.INTRA.REPUL>
0

>  <SCORE.INTRA.REPUL.0>
0

>  <SCORE.INTRA.SOLV>
0.620057

>  <SCORE.INTRA.SOLV.lig_0>
-44.3465

>  <SCORE.INTRA.VDW>
-0.656738

>  <SCORE.INTRA.VDW.0>
-0.778272

>  <SCORE.INTRA.norm>
0.125045

>  <SCORE.RESTR>
0.906467

>  <SCORE.RESTR.CAVITY>
0.906467

>  <SCORE.RESTR.norm>
0.041203

>  <SCORE.SYSTEM>
0

>  <SCORE.SYSTEM.CONST>
0

>  <SCORE.SYSTEM.DIHEDRAL>
0

>  <SCORE.SYSTEM.SOLV>
0

>  <SCORE.SYSTEM.norm>
0

>  <SCORE.heavy>
22

>  <SCORE.norm>
-0.294703

>  <RMSD>
13.251

$$$$
ligand
 OpenBabel11021811503D
libRbt.so/2013.1/901 2013/11/27
 22 24  0  0  0  0  0  0  0  0999 V2000
   -0.9850   -4.1291   11.6021 C   0  0  0  0  0  0  0  0  0  0  0  0
   -2.1510   -4.7386   12.1117 C   0  0  0  0  0  0  0  0  0  0  0  0
   -2.8998   -5.5762   11.2896 C   0  0  0  0  0  0  0  0  0  0  0  0
   -2.4828   -5.8003    9.9659 C   0  0  0  0  0  0  0  0  0  0  0  0
   -1.3175   -5.1815    9.4500 C   0  0  0  0  0  0  0  0  0  0  0  0
   -0.5726   -4.3461   10.2712 C   0  0  0  0  0  0  0  0  0  0  0  0
   -0.1550   -3.1853   12.4934 C   0  0  0  0  0  0  0  0  0  0  0  0
    0.9005   -3.8868   13.3843 C   0  0  0  0  0  0  0  0  0  0  0  0
    0.6987   -3.6530   14.8770 C   0  0  0  0  0  0  0  0  0  0  0  0
    1.4251   -2.7224   15.6262 C   0  0  0  0  0  0  0  0  0  0  0  0
    0.9639   -2.7977   16.9020 N   0  0  0  0  0  0  0  0  0  0  0  0
   -0.0387   -3.7363   17.0428 C   0  0  0  0  0  0  0  0  0  0  0  0
   -0.2415   -4.3011   15.7885 C   0  0  0  0  0  0  0  0  0  0  0  0
   -1.2600   -5.3225   15.6802 C   0  0  0  0  0  0  0  0  0  0  0  0
   -1.5226   -5.9253   14.4531 O   0  0  0  0  0  0  0  0  0  0  0  0
   -1.9677   -5.6940   16.8156 N   0  0  0  0  0  0  0  0  0  0  0  0
   -1.7413   -5.1045   18.0255 C   0  0  0  0  0  0  0  0  0  0  0  0
   -0.8038   -4.1538   18.1627 N   0  0  0  0  0  0  0  0  0  0  0  0
   -2.5259   -5.5194   19.1929 N   0  0  0  0  0  0  0  0  0  0  0  0
   -3.3142   -6.7064    9.0971 C   0  0  0  0  0  0  0  0  0  0  0  0
   -3.2359   -7.9270    9.2242 O   0  0  0  0  0  0  0  0  0  0  0  0
   -4.1902   -6.1189    8.1186 N   0  0  0  0  0  0  0  0  0  0  0  0
  1  2  2  0  0  0  0
  1  6  1  0  0  0  0
  1  7  1  0  0  0  0
  2  3  1  0  0  0  0
  3  4  2  0  0  0  0
  4  5  1  0  0  0  0
  4 20  1  0  0  0  0
  5  6  2  0  0  0  0
  7  8  1  0  0  0  0
  8  9  1  0  0  0  0
  9 10  2  0  0  0  0
  9 13  1  0  0  0  0
 10 11  1  0  0  0  0
 11 12  1  0  0  0  0
 12 13  2  0  0  0  0
 12 18  1  0  0  0  0
 13 14  1  0  0  0  0
 14 15  1  0  0  0  0
 14 16  2  0  0  0  0
 16 17  1  0  0  0  0
 17 18  2  0  0  0  0
 17 19  1  0  0  0  0
 20 21  2  0  0  0  0
 20 22  1  0  0  0  0
M  END
>  <CHROM.1>
86.21681566,-77.92568521,-120.31805616,-100.28218979,-1.27098930,-4.88229387
13.63534971,-1.91876665,0.70886126,1.57684394

>  <Name>
ligand

>  <RI>
0

>  <Rbt.Current_Directory>
/home/itssahil/PROJECTS/Mol_Feturizer/New_Systems/rnas/4LVY

>  <Rbt.Executable>
rbdock ($Id: //depot/dev/client3/rdock/2013.1/src/exe/rbdock.cxx#4 $)

>  <Rbt.Library>
libRbt.so (2013.1, Build901 2013/11/27)

>  <Rbt.Parameter_File>
/export/apps/rDock/src/rDock_2013.1_src/data/scripts/dock_solv.prm

>  <Rbt.Receptor>
prm/blind_docking_20.prm

>  <SCORE>
-5.99706

>  <SCORE.INTER>
-9.39212

>  <SCORE.INTER.CONST>
1

>  <SCORE.INTER.POLAR>
0

>  <SCORE.INTER.ROT>
4

>  <SCORE.INTER.SOLV>
8.23846

>  <SCORE.INTER.VDW>
-15.2742

>  <SCORE.INTER.norm>
-0.426915

>  <SCORE.INTRA>
2.4259

>  <SCORE.INTRA.DIHEDRAL>
6.17377

>  <SCORE.INTRA.DIHEDRAL.0>
6.18831

>  <SCORE.INTRA.POLAR>
0

>  <SCORE.INTRA.POLAR.0>
0

>  <SCORE.INTRA.REPUL>
0

>  <SCORE.INTRA.REPUL.0>
0

>  <SCORE.INTRA.SOLV>
0.556239

>  <SCORE.INTRA.SOLV.lig_0>
-44.3465

>  <SCORE.INTRA.VDW>
-0.939105

>  <SCORE.INTRA.VDW.0>
-0.778272

>  <SCORE.INTRA.norm>
0.110268

>  <SCORE.RESTR>
0.969164

>  <SCORE.RESTR.CAVITY>
0.969164

>  <SCORE.RESTR.norm>
0.0440529

>  <SCORE.SYSTEM>
0

>  <SCORE.SYSTEM.CONST>
0

>  <SCORE.SYSTEM.DIHEDRAL>
0

>  <SCORE.SYSTEM.SOLV>
0

>  <SCORE.SYSTEM.norm>
0

>  <SCORE.heavy>
22

>  <SCORE.norm>
-0.272593

>  <RMSD>
13.252

$$$$
ligand
 OpenBabel11021811503D
libRbt.so/2013.1/901 2013/11/27
 22 24  0  0  0  0  0  0  0  0999 V2000
   -3.5946   -5.5797   19.3289 C   0  0  0  0  0  0  0  0  0  0  0  0
   -2.9713   -4.3839   19.7440 C   0  0  0  0  0  0  0  0  0  0  0  0
   -2.0307   -3.7795   18.9143 C   0  0  0  0  0  0  0  0  0  0  0  0
   -1.7169   -4.3705   17.6780 C   0  0  0  0  0  0  0  0  0  0  0  0
   -2.3350   -5.5761   17.2642 C   0  0  0  0  0  0  0  0  0  0  0  0
   -3.2721   -6.1777   18.0932 C   0  0  0  0  0  0  0  0  0  0  0  0
   -4.6244   -6.2707   20.2432 C   0  0  0  0  0  0  0  0  0  0  0  0
   -5.4310   -5.3162   21.1587 C   0  0  0  0  0  0  0  0  0  0  0  0
   -6.2269   -6.0315   22.2443 C   0  0  0  0  0  0  0  0  0  0  0  0
   -6.0428   -5.8200   23.6141 C   0  0  0  0  0  0  0  0  0  0  0  0
   -6.9283   -6.6237   24.2591 N   0  0  0  0  0  0  0  0  0  0  0  0
   -7.6980   -7.3646   23.3846 C   0  0  0  0  0  0  0  0  0  0  0  0
   -7.2913   -7.0219   22.0998 C   0  0  0  0  0  0  0  0  0  0  0  0
   -7.9640   -7.6737   20.9975 C   0  0  0  0  0  0  0  0  0  0  0  0
   -7.6140   -7.3728   19.6841 O   0  0  0  0  0  0  0  0  0  0  0  0
   -8.9591   -8.6035   21.2681 N   0  0  0  0  0  0  0  0  0  0  0  0
   -9.3327   -8.9013   22.5465 C   0  0  0  0  0  0  0  0  0  0  0  0
   -8.7297   -8.3161   23.5932 N   0  0  0  0  0  0  0  0  0  0  0  0
  -10.4006   -9.8785   22.7813 N   0  0  0  0  0  0  0  0  0  0  0  0
   -0.6923   -3.6985   16.8029 C   0  0  0  0  0  0  0  0  0  0  0  0
   -0.9832   -3.3637   15.6560 O   0  0  0  0  0  0  0  0  0  0  0  0
    0.6256   -3.4643   17.3305 N   0  0  0  0  0  0  0  0  0  0  0  0
  1  2  2  0  0  0  0
  1  6  1  0  0  0  0
  1  7  1  0  0  0  0
  2  3  1  0  0  0  0
  3  4  2  0  0  0  0
  4  5  1  0  0  0  0
  4 20  1  0  0  0  0
  5  6  2  0  0  0  0
  7  8  1  0  0  0  0
  8  9  1  0  0  0  0
  9 10  2  0  0  0  0
  9 13  1  0  0  0  0
 10 11  1  0  0  0  0
 11 12  1  0  0  0  0
 12 13  2  0  0  0  0
 12 18  1  0  0  0  0
 13 14  1  0  0  0  0
 14 15  1  0  0  0  0
 14 16  2  0  0  0  0
 16 17  1  0  0  0  0
 17 18  2  0  0  0  0
 17 19  1  0  0  0  0
 20 21  2  0  0  0  0
 20 22  1  0  0  0  0
M  END
>  <CHROM.1>
30.27312815,-122.98677792,-168.12260811,119.89584965,-5.22313357,-6.17807975
20.37381897,0.43203753,-0.62398744,-1.82552740

>  <Name>
ligand

>  <RI>
0

>  <Rbt.Current_Directory>
/home/itssahil/PROJECTS/Mol_Feturizer/New_Systems/rnas/4LVY

>  <Rbt.Executable>
rbdock ($Id: //depot/dev/client3/rdock/2013.1/src/exe/rbdock.cxx#4 $)

>  <Rbt.Library>
libRbt.so (2013.1, Build901 2013/11/27)

>  <Rbt.Parameter_File>
/export/apps/rDock/src/rDock_2013.1_src/data/scripts/dock_solv.prm

>  <Rbt.Receptor>
prm/blind_docking_100.prm

>  <SCORE>
-10.7687

>  <SCORE.INTER>
-10.9403

>  <SCORE.INTER.CONST>
1

>  <SCORE.INTER.POLAR>
0

>  <SCORE.INTER.ROT>
4

>  <SCORE.INTER.SOLV>
10.6531

>  <SCORE.INTER.VDW>
-17.1112

>  <SCORE.INTER.norm>
-0.497284

>  <SCORE.INTRA>
0.171509

>  <SCORE.INTRA.DIHEDRAL>
0.524538

>  <SCORE.INTRA.DIHEDRAL.0>
6.18831

>  <SCORE.INTRA.POLAR>
0

>  <SCORE.INTRA.POLAR.0>
0

>  <SCORE.INTRA.REPUL>
0

>  <SCORE.INTRA.REPUL.0>
0

>  <SCORE.INTRA.SOLV>
0.292117

>  <SCORE.INTRA.SOLV.lig_0>
-44.3465

>  <SCORE.INTRA.VDW>
-0.236818

>  <SCORE.INTRA.VDW.0>
-0.778272

>  <SCORE.INTRA.norm>
0.00779586

>  <SCORE.RESTR>
0

>  <SCORE.RESTR.CAVITY>
0

>  <SCORE.RESTR.norm>
0

>  <SCORE.SYSTEM>
0

>  <SCORE.SYSTEM.CONST>
0

>  <SCORE.SYSTEM.DIHEDRAL>
0

>  <SCORE.SYSTEM.SOLV>
0

>  <SCORE.SYSTEM.norm>
0

>  <SCORE.heavy>
22

>  <SCORE.norm>
-0.489489

>  <RMSD>
13.272

$$$$
ligand
 OpenBabel11021811503D
libRbt.so/2013.1/901 2013/11/27
 22 24  0  0  0  0  0  0  0  0999 V2000
   -1.3897   -4.3248   11.4069 C   0  0  0  0  0  0  0  0  0  0  0  0
   -1.5581   -3.8098   10.1041 C   0  0  0  0  0  0  0  0  0  0  0  0
   -2.4943   -4.3926    9.2543 C   0  0  0  0  0  0  0  0  0  0  0  0
   -3.2554   -5.4842    9.7073 C   0  0  0  0  0  0  0  0  0  0  0  0
   -3.0807   -6.0083   11.0118 C   0  0  0  0  0  0  0  0  0  0  0  0
   -2.1462   -5.4263   11.8575 C   0  0  0  0  0  0  0  0  0  0  0  0
   -0.3453   -3.7027   12.3536 C   0  0  0  0  0  0  0  0  0  0  0  0
   -0.8719   -3.3490   13.7669 C   0  0  0  0  0  0  0  0  0  0  0  0
    0.2260   -3.2077   14.8148 C   0  0  0  0  0  0  0  0  0  0  0  0
    1.3734   -2.4274   14.6424 C   0  0  0  0  0  0  0  0  0  0  0  0
    2.1048   -2.5456   15.7813 N   0  0  0  0  0  0  0  0  0  0  0  0
    1.5005   -3.3694   16.7099 C   0  0  0  0  0  0  0  0  0  0  0  0
    0.3092   -3.8096   16.1436 C   0  0  0  0  0  0  0  0  0  0  0  0
   -0.5134   -4.6946   16.9387 C   0  0  0  0  0  0  0  0  0  0  0  0
   -1.7233   -5.1677   16.4383 O   0  0  0  0  0  0  0  0  0  0  0  0
   -0.0783   -5.0667   18.2037 N   0  0  0  0  0  0  0  0  0  0  0  0
    1.0948   -4.6014   18.7233 C   0  0  0  0  0  0  0  0  0  0  0  0
    1.8833   -3.7792   18.0133 N   0  0  0  0  0  0  0  0  0  0  0  0
    1.5042   -5.0100   20.0708 N   0  0  0  0  0  0  0  0  0  0  0  0
   -4.2569   -6.0986    8.7656 C   0  0  0  0  0  0  0  0  0  0  0  0
   -3.8805   -6.6210    7.7181 O   0  0  0  0  0  0  0  0  0  0  0  0
   -5.6528   -6.0558    9.1115 N   0  0  0  0  0  0  0  0  0  0  0  0
  1  2  2  0  0  0  0
  1  6  1  0  0  0  0
  1  7  1  0  0  0  0
  2  3  1  0  0  0  0
  3  4  2  0  0  0  0
  4  5  1  0  0  0  0
  4 20  1  0  0  0  0
  5  6  2  0  0  0  0
  7  8  1  0  0  0  0
  8  9  1  0  0  0  0
  9 10  2  0  0  0  0
  9 13  1  0  0  0  0
 10 11  1  0  0  0  0
 11 12  1  0  0  0  0
 12 13  2  0  0  0  0
 12 18  1  0  0  0  0
 13 14  1  0  0  0  0
 14 15  1  0  0  0  0
 14 16  2  0  0  0  0
 16 17  1  0  0  0  0
 17 18  2  0  0  0  0
 17 19  1  0  0  0  0
 20 21  2  0  0  0  0
 20 22  1  0  0  0  0
M  END
>  <CHROM.1>
130.25001961,62.66586475,159.65760455,49.88982287,-0.98005838,-4.52285567
13.73998538,-2.23717255,0.70432841,1.86221664

>  <Name>
ligand

>  <RI>
0

>  <Rbt.Current_Directory>
/home/itssahil/PROJECTS/Mol_Feturizer/New_Systems/rnas/4LVY

>  <Rbt.Executable>
rbdock ($Id: //depot/dev/client3/rdock/2013.1/src/exe/rbdock.cxx#4 $)

>  <Rbt.Library>
libRbt.so (2013.1, Build901 2013/11/27)

>  <Rbt.Parameter_File>
/export/apps/rDock/src/rDock_2013.1_src/data/scripts/dock_solv.prm

>  <Rbt.Receptor>
prm/blind_docking_20.prm

>  <SCORE>
-4.47134

>  <SCORE.INTER>
-6.63333

>  <SCORE.INTER.CONST>
1

>  <SCORE.INTER.POLAR>
0

>  <SCORE.INTER.ROT>
4

>  <SCORE.INTER.SOLV>
7.01798

>  <SCORE.INTER.VDW>
-13.0282

>  <SCORE.INTER.norm>
-0.301515

>  <SCORE.INTRA>
0.619723

>  <SCORE.INTRA.DIHEDRAL>
1.55586

>  <SCORE.INTRA.DIHEDRAL.0>
6.18831

>  <SCORE.INTRA.POLAR>
0

>  <SCORE.INTRA.POLAR.0>
0

>  <SCORE.INTRA.REPUL>
0

>  <SCORE.INTRA.REPUL.0>
0

>  <SCORE.INTRA.SOLV>
0.00796052

>  <SCORE.INTRA.SOLV.lig_0>
-44.3465

>  <SCORE.INTRA.VDW>
-0.162189

>  <SCORE.INTRA.VDW.0>
-0.778272

>  <SCORE.INTRA.norm>
0.0281692

>  <SCORE.RESTR>
1.54227

>  <SCORE.RESTR.CAVITY>
1.54227

>  <SCORE.RESTR.norm>
0.0701032

>  <SCORE.SYSTEM>
0

>  <SCORE.SYSTEM.CONST>
0

>  <SCORE.SYSTEM.DIHEDRAL>
0

>  <SCORE.SYSTEM.SOLV>
0

>  <SCORE.SYSTEM.norm>
0

>  <SCORE.heavy>
22

>  <SCORE.norm>
-0.203243

>  <RMSD>
13.283

$$$$
ligand
 OpenBabel11021811503D
libRbt.so/2013.1/901 2013/11/27
 22 24  0  0  0  0  0  0  0  0999 V2000
   -3.2870   -5.1643   19.6444 C   0  0  0  0  0  0  0  0  0  0  0  0
   -2.5008   -6.1108   18.9540 C   0  0  0  0  0  0  0  0  0  0  0  0
   -1.4258   -5.6752   18.1839 C   0  0  0  0  0  0  0  0  0  0  0  0
   -1.1420   -4.3006   18.1062 C   0  0  0  0  0  0  0  0  0  0  0  0
   -1.9363   -3.3485   18.7912 C   0  0  0  0  0  0  0  0  0  0  0  0
   -3.0082   -3.7846   19.5580 C   0  0  0  0  0  0  0  0  0  0  0  0
   -4.4911   -5.6284   20.4864 C   0  0  0  0  0  0  0  0  0  0  0  0
   -4.2081   -6.8251   21.4285 C   0  0  0  0  0  0  0  0  0  0  0  0
   -5.3369   -7.1147   22.4112 C   0  0  0  0  0  0  0  0  0  0  0  0
   -5.5533   -6.3891   23.5866 C   0  0  0  0  0  0  0  0  0  0  0  0
   -6.6428   -6.9323   24.1898 N   0  0  0  0  0  0  0  0  0  0  0  0
   -7.1673   -7.9891   23.4727 C   0  0  0  0  0  0  0  0  0  0  0  0
   -6.3755   -8.1398   22.3395 C   0  0  0  0  0  0  0  0  0  0  0  0
   -6.7340   -9.1958   21.4183 C   0  0  0  0  0  0  0  0  0  0  0  0
   -5.9906   -9.3990   20.2589 O   0  0  0  0  0  0  0  0  0  0  0  0
   -7.8255  -10.0036   21.7082 N   0  0  0  0  0  0  0  0  0  0  0  0
   -8.5807   -9.8122   22.8287 C   0  0  0  0  0  0  0  0  0  0  0  0
   -8.2768   -8.8424   23.7056 N   0  0  0  0  0  0  0  0  0  0  0  0
   -9.7343  -10.6810   23.0834 N   0  0  0  0  0  0  0  0  0  0  0  0
    0.0232   -3.8569   17.2619 C   0  0  0  0  0  0  0  0  0  0  0  0
   -0.1316   -3.6360   16.0622 O   0  0  0  0  0  0  0  0  0  0  0  0
    1.3124   -3.7047   17.8822 N   0  0  0  0  0  0  0  0  0  0  0  0
  1  2  2  0  0  0  0
  1  6  1  0  0  0  0
  1  7  1  0  0  0  0
  2  3  1  0  0  0  0
  3  4  2  0  0  0  0
  4  5  1  0  0  0  0
  4 20  1  0  0  0  0
  5  6  2  0  0  0  0
  7  8  1  0  0  0  0
  8  9  1  0  0  0  0
  9 10  2  0  0  0  0
  9 13  1  0  0  0  0
 10 11  1  0  0  0  0
 11 12  1  0  0  0  0
 12 13  2  0  0  0  0
 12 18  1  0  0  0  0
 13 14  1  0  0  0  0
 14 15  1  0  0  0  0
 14 16  2  0  0  0  0
 16 17  1  0  0  0  0
 17 18  2  0  0  0  0
 17 19  1  0  0  0  0
 20 21  2  0  0  0  0
 20 22  1  0  0  0  0
M  END
>  <CHROM.1>
47.11292680,87.38655950,170.39430281,-79.13677969,-4.51875319,-6.69837428
20.68053804,-0.07541864,0.78464643,0.88872857

>  <Name>
ligand

>  <RI>
0

>  <Rbt.Current_Directory>
/home/itssahil/PROJECTS/Mol_Feturizer/New_Systems/rnas/4LVY

>  <Rbt.Executable>
rbdock ($Id: //depot/dev/client3/rdock/2013.1/src/exe/rbdock.cxx#4 $)

>  <Rbt.Library>
libRbt.so (2013.1, Build901 2013/11/27)

>  <Rbt.Parameter_File>
/export/apps/rDock/src/rDock_2013.1_src/data/scripts/dock_solv.prm

>  <Rbt.Receptor>
prm/blind_docking_60.prm

>  <SCORE>
-12.1572

>  <SCORE.INTER>
-12.0223

>  <SCORE.INTER.CONST>
1

>  <SCORE.INTER.POLAR>
0

>  <SCORE.INTER.ROT>
4

>  <SCORE.INTER.SOLV>
10.3917

>  <SCORE.INTER.VDW>
-17.7454

>  <SCORE.INTER.norm>
-0.546468

>  <SCORE.INTRA>
-0.134958

>  <SCORE.INTRA.DIHEDRAL>
0.358722

>  <SCORE.INTRA.DIHEDRAL.0>
6.18831

>  <SCORE.INTRA.POLAR>
0

>  <SCORE.INTRA.POLAR.0>
0

>  <SCORE.INTRA.REPUL>
0

>  <SCORE.INTRA.REPUL.0>
0

>  <SCORE.INTRA.SOLV>
0.107488

>  <SCORE.INTRA.SOLV.lig_0>
-44.3465

>  <SCORE.INTRA.VDW>
-0.368063

>  <SCORE.INTRA.VDW.0>
-0.778272

>  <SCORE.INTRA.norm>
-0.00613446

>  <SCORE.RESTR>
0

>  <SCORE.RESTR.CAVITY>
0

>  <SCORE.RESTR.norm>
0

>  <SCORE.SYSTEM>
0

>  <SCORE.SYSTEM.CONST>
0

>  <SCORE.SYSTEM.DIHEDRAL>
0

>  <SCORE.SYSTEM.SOLV>
0

>  <SCORE.SYSTEM.norm>
0

>  <SCORE.heavy>
22

>  <SCORE.norm>
-0.552602

>  <RMSD>
13.308

$$$$
ligand
 OpenBabel11021811503D
libRbt.so/2013.1/901 2013/11/27
 22 24  0  0  0  0  0  0  0  0999 V2000
   -1.4237   -4.1886   11.3379 C   0  0  0  0  0  0  0  0  0  0  0  0
   -1.6624   -3.7614   10.0146 C   0  0  0  0  0  0  0  0  0  0  0  0
   -2.5816   -4.4512    9.2287 C   0  0  0  0  0  0  0  0  0  0  0  0
   -3.2557   -5.5617    9.7658 C   0  0  0  0  0  0  0  0  0  0  0  0
   -3.0101   -5.9975   11.0911 C   0  0  0  0  0  0  0  0  0  0  0  0
   -2.0927   -5.3088   11.8729 C   0  0  0  0  0  0  0  0  0  0  0  0
   -0.3965   -3.4470   12.2148 C   0  0  0  0  0  0  0  0  0  0  0  0
   -1.0038   -2.6129   13.3704 C   0  0  0  0  0  0  0  0  0  0  0  0
   -1.4466   -3.4487   14.5657 C   0  0  0  0  0  0  0  0  0  0  0  0
   -2.6862   -4.0894   14.6533 C   0  0  0  0  0  0  0  0  0  0  0  0
   -2.7130   -4.7334   15.8494 N   0  0  0  0  0  0  0  0  0  0  0  0
   -1.5479   -4.5540   16.5681 C   0  0  0  0  0  0  0  0  0  0  0  0
   -0.7171   -3.7502   15.7953 C   0  0  0  0  0  0  0  0  0  0  0  0
    0.5809   -3.4219   16.3426 C   0  0  0  0  0  0  0  0  0  0  0  0
    1.4677   -2.6283   15.6201 O   0  0  0  0  0  0  0  0  0  0  0  0
    0.9271   -3.9059   17.5972 N   0  0  0  0  0  0  0  0  0  0  0  0
    0.0825   -4.7007   18.3164 C   0  0  0  0  0  0  0  0  0  0  0  0
   -1.1296   -5.0250   17.8396 N   0  0  0  0  0  0  0  0  0  0  0  0
    0.4997   -5.2012   19.6302 N   0  0  0  0  0  0  0  0  0  0  0  0
   -4.2405   -6.2925    8.8921 C   0  0  0  0  0  0  0  0  0  0  0  0
   -4.4841   -7.4805    9.0953 O   0  0  0  0  0  0  0  0  0  0  0  0
   -4.8802   -5.5789    7.8189 N   0  0  0  0  0  0  0  0  0  0  0  0
  1  2  2  0  0  0  0
  1  6  1  0  0  0  0
  1  7  1  0  0  0  0
  2  3  1  0  0  0  0
  3  4  2  0  0  0  0
  4  5  1  0  0  0  0
  4 20  1  0  0  0  0
  5  6  2  0  0  0  0
  7  8  1  0  0  0  0
  8  9  1  0  0  0  0
  9 10  2  0  0  0  0
  9 13  1  0  0  0  0
 10 11  1  0  0  0  0
 11 12  1  0  0  0  0
 12 13  2  0  0  0  0
 12 18  1  0  0  0  0
 13 14  1  0  0  0  0
 14 15  1  0  0  0  0
 14 16  2  0  0  0  0
 16 17  1  0  0  0  0
 17 18  2  0  0  0  0
 17 19  1  0  0  0  0
 20 21  2  0  0  0  0
 20 22  1  0  0  0  0
M  END
>  <CHROM.1>
109.25694006,153.80221234,77.34433181,-84.13400471,-1.60141700,-4.55612433
13.55670132,-2.16120210,0.77279855,1.82461337

>  <Name>
ligand

>  <RI>
0

>  <Rbt.Current_Directory>
/home/itssahil/PROJECTS/Mol_Feturizer/New_Systems/rnas/4LVY

>  <Rbt.Executable>
rbdock ($Id: //depot/dev/client3/rdock/2013.1/src/exe/rbdock.cxx#4 $)

>  <Rbt.Library>
libRbt.so (2013.1, Build901 2013/11/27)

>  <Rbt.Parameter_File>
/export/apps/rDock/src/rDock_2013.1_src/data/scripts/dock_solv.prm

>  <Rbt.Receptor>
prm/blind_docking_20.prm

>  <SCORE>
-5.20701

>  <SCORE.INTER>
-6.05756

>  <SCORE.INTER.CONST>
1

>  <SCORE.INTER.POLAR>
0

>  <SCORE.INTER.ROT>
4

>  <SCORE.INTER.SOLV>
8.07586

>  <SCORE.INTER.VDW>
-12.997

>  <SCORE.INTER.norm>
-0.275344

>  <SCORE.INTRA>
-0.178087

>  <SCORE.INTRA.DIHEDRAL>
1.19259

>  <SCORE.INTRA.DIHEDRAL.0>
6.18831

>  <SCORE.INTRA.POLAR>
0

>  <SCORE.INTRA.POLAR.0>
0

>  <SCORE.INTRA.REPUL>
0

>  <SCORE.INTRA.REPUL.0>
0

>  <SCORE.INTRA.SOLV>
0.143496

>  <SCORE.INTRA.SOLV.lig_0>
-44.3465

>  <SCORE.INTRA.VDW>
-0.846129

>  <SCORE.INTRA.VDW.0>
-0.778272

>  <SCORE.INTRA.norm>
-0.00809486

>  <SCORE.RESTR>
1.02864

>  <SCORE.RESTR.CAVITY>
1.02864

>  <SCORE.RESTR.norm>
0.0467563

>  <SCORE.SYSTEM>
0

>  <SCORE.SYSTEM.CONST>
0

>  <SCORE.SYSTEM.DIHEDRAL>
0

>  <SCORE.SYSTEM.SOLV>
0

>  <SCORE.SYSTEM.norm>
0

>  <SCORE.heavy>
22

>  <SCORE.norm>
-0.236682

>  <RMSD>
13.309

$$$$
ligand
 OpenBabel11021811503D
libRbt.so/2013.1/901 2013/11/27
 22 24  0  0  0  0  0  0  0  0999 V2000
   -1.5468   -4.3765   11.5428 C   0  0  0  0  0  0  0  0  0  0  0  0
   -2.8899   -4.4172   11.9730 C   0  0  0  0  0  0  0  0  0  0  0  0
   -3.8526   -5.0011   11.1542 C   0  0  0  0  0  0  0  0  0  0  0  0
   -3.4713   -5.5395    9.9128 C   0  0  0  0  0  0  0  0  0  0  0  0
   -2.1247   -5.4909    9.4755 C   0  0  0  0  0  0  0  0  0  0  0  0
   -1.1663   -4.9075   10.2930 C   0  0  0  0  0  0  0  0  0  0  0  0
   -0.4722   -3.7178   12.4291 C   0  0  0  0  0  0  0  0  0  0  0  0
   -0.9439   -3.3359   13.8545 C   0  0  0  0  0  0  0  0  0  0  0  0
    0.1915   -3.2009   14.8625 C   0  0  0  0  0  0  0  0  0  0  0  0
    1.3284   -2.4135   14.6562 C   0  0  0  0  0  0  0  0  0  0  0  0
    2.1021   -2.5406   15.7659 N   0  0  0  0  0  0  0  0  0  0  0  0
    1.5361   -3.3771   16.7071 C   0  0  0  0  0  0  0  0  0  0  0  0
    0.3266   -3.8168   16.1806 C   0  0  0  0  0  0  0  0  0  0  0  0
   -0.4623   -4.7141   16.9959 C   0  0  0  0  0  0  0  0  0  0  0  0
   -1.6879   -5.1874   16.5355 O   0  0  0  0  0  0  0  0  0  0  0  0
    0.0211   -5.0979   18.2397 N   0  0  0  0  0  0  0  0  0  0  0  0
    1.2107   -4.6327   18.7205 C   0  0  0  0  0  0  0  0  0  0  0  0
    1.9687   -3.7992   17.9909 N   0  0  0  0  0  0  0  0  0  0  0  0
    1.6715   -5.0540   20.0475 N   0  0  0  0  0  0  0  0  0  0  0  0
   -4.5338   -6.1603    9.0450 C   0  0  0  0  0  0  0  0  0  0  0  0
   -4.3086   -6.3840    7.8571 O   0  0  0  0  0  0  0  0  0  0  0  0
   -5.8099   -6.4774    9.6289 N   0  0  0  0  0  0  0  0  0  0  0  0
  1  2  2  0  0  0  0
  1  6  1  0  0  0  0
  1  7  1  0  0  0  0
  2  3  1  0  0  0  0
  3  4  2  0  0  0  0
  4  5  1  0  0  0  0
  4 20  1  0  0  0  0
  5  6  2  0  0  0  0
  7  8  1  0  0  0  0
  8  9  1  0  0  0  0
  9 10  2  0  0  0  0
  9 13  1  0  0  0  0
 10 11  1  0  0  0  0
 11 12  1  0  0  0  0
 12 13  2  0  0  0  0
 12 18  1  0  0  0  0
 13 14  1  0  0  0  0
 14 15  1  0  0  0  0
 14 16  2  0  0  0  0
 16 17  1  0  0  0  0
 17 18  2  0  0  0  0
 17 19  1  0  0  0  0
 20 21  2  0  0  0  0
 20 22  1  0  0  0  0
M  END
>  <CHROM.1>
9.07983150,164.67028752,157.69814658,51.79373983,-1.05537655,-4.55235076
13.84565648,-2.24624328,0.62788433,1.81552325

>  <Name>
ligand

>  <RI>
0

>  <Rbt.Current_Directory>
/home/itssahil/PROJECTS/Mol_Feturizer/New_Systems/rnas/4LVY

>  <Rbt.Executable>
rbdock ($Id: //depot/dev/client3/rdock/2013.1/src/exe/rbdock.cxx#4 $)

>  <Rbt.Library>
libRbt.so (2013.1, Build901 2013/11/27)

>  <Rbt.Parameter_File>
/export/apps/rDock/src/rDock_2013.1_src/data/scripts/dock_solv.prm

>  <Rbt.Receptor>
prm/blind_docking_20.prm

>  <SCORE>
-3.96259

>  <SCORE.INTER>
-8.02577

>  <SCORE.INTER.CONST>
1

>  <SCORE.INTER.POLAR>
0

>  <SCORE.INTER.ROT>
4

>  <SCORE.INTER.SOLV>
6.64437

>  <SCORE.INTER.VDW>
-13.832

>  <SCORE.INTER.norm>
-0.364808

>  <SCORE.INTRA>
1.46739

>  <SCORE.INTRA.DIHEDRAL>
1.82041

>  <SCORE.INTRA.DIHEDRAL.0>
6.18831

>  <SCORE.INTRA.POLAR>
0

>  <SCORE.INTRA.POLAR.0>
0

>  <SCORE.INTRA.REPUL>
0

>  <SCORE.INTRA.REPUL.0>
0

>  <SCORE.INTRA.SOLV>
0.0283501

>  <SCORE.INTRA.SOLV.lig_0>
-44.3465

>  <SCORE.INTRA.VDW>
0.543009

>  <SCORE.INTRA.VDW.0>
-0.778272

>  <SCORE.INTRA.norm>
0.0666995

>  <SCORE.RESTR>
2.59579

>  <SCORE.RESTR.CAVITY>
2.59579

>  <SCORE.RESTR.norm>
0.11799

>  <SCORE.SYSTEM>
0

>  <SCORE.SYSTEM.CONST>
0

>  <SCORE.SYSTEM.DIHEDRAL>
0

>  <SCORE.SYSTEM.SOLV>
0

>  <SCORE.SYSTEM.norm>
0

>  <SCORE.heavy>
22

>  <SCORE.norm>
-0.180118

>  <RMSD>
13.318

$$$$
ligand
 OpenBabel11021811503D
libRbt.so/2013.1/901 2013/11/27
 22 24  0  0  0  0  0  0  0  0999 V2000
   -1.5324   -4.2130   11.3340 C   0  0  0  0  0  0  0  0  0  0  0  0
   -2.0278   -5.3736   11.9650 C   0  0  0  0  0  0  0  0  0  0  0  0
   -2.8126   -6.2648   11.2382 C   0  0  0  0  0  0  0  0  0  0  0  0
   -3.0992   -5.9935    9.8890 C   0  0  0  0  0  0  0  0  0  0  0  0
   -2.6103   -4.8238    9.2568 C   0  0  0  0  0  0  0  0  0  0  0  0
   -1.8285   -3.9360    9.9834 C   0  0  0  0  0  0  0  0  0  0  0  0
   -0.6774   -3.2076   12.1291 C   0  0  0  0  0  0  0  0  0  0  0  0
   -1.4109   -2.5071   13.3001 C   0  0  0  0  0  0  0  0  0  0  0  0
   -1.5490   -3.3742   14.5461 C   0  0  0  0  0  0  0  0  0  0  0  0
   -2.7070   -4.0839   14.8783 C   0  0  0  0  0  0  0  0  0  0  0  0
   -2.4490   -4.7361   16.0419 N   0  0  0  0  0  0  0  0  0  0  0  0
   -1.1707   -4.4965   16.5054 C   0  0  0  0  0  0  0  0  0  0  0  0
   -0.5638   -3.6424   15.5912 C   0  0  0  0  0  0  0  0  0  0  0  0
    0.8005   -3.2454   15.8622 C   0  0  0  0  0  0  0  0  0  0  0  0
    1.4731   -2.3988   14.9854 O   0  0  0  0  0  0  0  0  0  0  0  0
    1.4264   -3.7175   17.0082 N   0  0  0  0  0  0  0  0  0  0  0  0
    0.7943   -4.5630   17.8731 C   0  0  0  0  0  0  0  0  0  0  0  0
   -0.4716   -4.9516   17.6533 N   0  0  0  0  0  0  0  0  0  0  0  0
    1.5029   -5.0479   19.0619 N   0  0  0  0  0  0  0  0  0  0  0  0
   -3.9547   -6.9716    9.1282 C   0  0  0  0  0  0  0  0  0  0  0  0
   -3.6343   -8.1573    9.0692 O   0  0  0  0  0  0  0  0  0  0  0  0
   -5.1417   -6.4921    8.4715 N   0  0  0  0  0  0  0  0  0  0  0  0
  1  2  2  0  0  0  0
  1  6  1  0  0  0  0
  1  7  1  0  0  0  0
  2  3  1  0  0  0  0
  3  4  2  0  0  0  0
  4  5  1  0  0  0  0
  4 20  1  0  0  0  0
  5  6  2  0  0  0  0
  7  8  1  0  0  0  0
  8  9  1  0  0  0  0
  9 10  2  0  0  0  0
  9 13  1  0  0  0  0
 10 11  1  0  0  0  0
 11 12  1  0  0  0  0
 12 13  2  0  0  0  0
 12 18  1  0  0  0  0
 13 14  1  0  0  0  0
 14 15  1  0  0  0  0
 14 16  2  0  0  0  0
 16 17  1  0  0  0  0
 17 18  2  0  0  0  0
 17 19  1  0  0  0  0
 20 21  2  0  0  0  0
 20 22  1  0  0  0  0
M  END
>  <CHROM.1>
-64.01023413,-55.38648976,78.16908914,-98.87030617,-1.40846395,-4.64978415
13.47121131,-2.38908145,0.92002469,1.99334535

>  <Name>
ligand

>  <RI>
0

>  <Rbt.Current_Directory>
/home/itssahil/PROJECTS/Mol_Feturizer/New_Systems/rnas/4LVY

>  <Rbt.Executable>
rbdock ($Id: //depot/dev/client3/rdock/2013.1/src/exe/rbdock.cxx#4 $)

>  <Rbt.Library>
libRbt.so (2013.1, Build901 2013/11/27)

>  <Rbt.Parameter_File>
/export/apps/rDock/src/rDock_2013.1_src/data/scripts/dock_solv.prm

>  <Rbt.Receptor>
prm/blind_docking_20.prm

>  <SCORE>
-3.73704

>  <SCORE.INTER>
-4.01981

>  <SCORE.INTER.CONST>
1

>  <SCORE.INTER.POLAR>
0

>  <SCORE.INTER.ROT>
4

>  <SCORE.INTER.SOLV>
9.91637

>  <SCORE.INTER.VDW>
-12.252

>  <SCORE.INTER.norm>
-0.182718

>  <SCORE.INTRA>
-0.327633

>  <SCORE.INTRA.DIHEDRAL>
1.27306

>  <SCORE.INTRA.DIHEDRAL.0>
6.18831

>  <SCORE.INTRA.POLAR>
0

>  <SCORE.INTRA.POLAR.0>
0

>  <SCORE.INTRA.REPUL>
0

>  <SCORE.INTRA.REPUL.0>
0

>  <SCORE.INTRA.SOLV>
0.197686

>  <SCORE.INTRA.SOLV.lig_0>
-44.3465

>  <SCORE.INTRA.VDW>
-1.063

>  <SCORE.INTRA.VDW.0>
-0.778272

>  <SCORE.INTRA.norm>
-0.0148924

>  <SCORE.RESTR>
0.610403

>  <SCORE.RESTR.CAVITY>
0.610403

>  <SCORE.RESTR.norm>
0.0277456

>  <SCORE.SYSTEM>
0

>  <SCORE.SYSTEM.CONST>
0

>  <SCORE.SYSTEM.DIHEDRAL>
0

>  <SCORE.SYSTEM.SOLV>
0

>  <SCORE.SYSTEM.norm>
0

>  <SCORE.heavy>
22

>  <SCORE.norm>
-0.169865

>  <RMSD>
13.368

$$$$
ligand
 OpenBabel11021811503D
libRbt.so/2013.1/901 2013/11/27
 22 24  0  0  0  0  0  0  0  0999 V2000
   -4.2661   -6.6047   20.0597 C   0  0  0  0  0  0  0  0  0  0  0  0
   -4.7812   -5.3566   20.4688 C   0  0  0  0  0  0  0  0  0  0  0  0
   -5.5717   -5.2850   21.6126 C   0  0  0  0  0  0  0  0  0  0  0  0
   -5.8443   -6.4566   22.3401 C   0  0  0  0  0  0  0  0  0  0  0  0
   -5.3355   -7.7119   21.9252 C   0  0  0  0  0  0  0  0  0  0  0  0
   -4.5481   -7.7814   20.7840 C   0  0  0  0  0  0  0  0  0  0  0  0
   -3.4044   -6.7040   18.7862 C   0  0  0  0  0  0  0  0  0  0  0  0
   -1.9623   -7.2234   19.0108 C   0  0  0  0  0  0  0  0  0  0  0  0
   -1.1786   -6.4320   20.0514 C   0  0  0  0  0  0  0  0  0  0  0  0
   -0.4955   -5.2435   19.7759 C   0  0  0  0  0  0  0  0  0  0  0  0
    0.0705   -4.8353   20.9416 N   0  0  0  0  0  0  0  0  0  0  0  0
   -0.2019   -5.6954   21.9867 C   0  0  0  0  0  0  0  0  0  0  0  0
   -0.9901   -6.7186   21.4717 C   0  0  0  0  0  0  0  0  0  0  0  0
   -1.4123   -7.7538   22.3896 C   0  0  0  0  0  0  0  0  0  0  0  0
   -2.2099   -8.8045   21.9448 O   0  0  0  0  0  0  0  0  0  0  0  0
   -1.0086   -7.6859   23.7164 N   0  0  0  0  0  0  0  0  0  0  0  0
   -0.2423   -6.6562   24.1801 C   0  0  0  0  0  0  0  0  0  0  0  0
    0.1679   -5.6789   23.3565 N   0  0  0  0  0  0  0  0  0  0  0  0
    0.1452   -6.6197   25.5940 N   0  0  0  0  0  0  0  0  0  0  0  0
   -6.7064   -6.3511   23.5702 C   0  0  0  0  0  0  0  0  0  0  0  0
   -7.4341   -7.2869   23.8969 O   0  0  0  0  0  0  0  0  0  0  0  0
   -6.6659   -5.1395   24.3450 N   0  0  0  0  0  0  0  0  0  0  0  0
  1  2  2  0  0  0  0
  1  6  1  0  0  0  0
  1  7  1  0  0  0  0
  2  3  1  0  0  0  0
  3  4  2  0  0  0  0
  4  5  1  0  0  0  0
  4 20  1  0  0  0  0
  5  6  2  0  0  0  0
  7  8  1  0  0  0  0
  8  9  1  0  0  0  0
  9 10  2  0  0  0  0
  9 13  1  0  0  0  0
 10 11  1  0  0  0  0
 11 12  1  0  0  0  0
 12 13  2  0  0  0  0
 12 18  1  0  0  0  0
 13 14  1  0  0  0  0
 14 15  1  0  0  0  0
 14 16  2  0  0  0  0
 16 17  1  0  0  0  0
 17 18  2  0  0  0  0
 17 19  1  0  0  0  0
 20 21  2  0  0  0  0
 20 22  1  0  0  0  0
M  END
>  <CHROM.1>
119.21439001,148.36659298,-54.59054681,-83.65428991,-2.90341934,-6.57489122
21.96225587,3.04764222,0.02386562,1.60985687

>  <Name>
ligand

>  <RI>
0

>  <Rbt.Current_Directory>
/home/itssahil/PROJECTS/Mol_Feturizer/New_Systems/rnas/4LVY

>  <Rbt.Executable>
rbdock ($Id: //depot/dev/client3/rdock/2013.1/src/exe/rbdock.cxx#4 $)

>  <Rbt.Library>
libRbt.so (2013.1, Build901 2013/11/27)

>  <Rbt.Parameter_File>
/export/apps/rDock/src/rDock_2013.1_src/data/scripts/dock_solv.prm

>  <Rbt.Receptor>
prm/blind_docking_40.prm

>  <SCORE>
-10.8119

>  <SCORE.INTER>
-9.58202

>  <SCORE.INTER.CONST>
1

>  <SCORE.INTER.POLAR>
0

>  <SCORE.INTER.ROT>
4

>  <SCORE.INTER.SOLV>
12.0195

>  <SCORE.INTER.VDW>
-16.6612

>  <SCORE.INTER.norm>
-0.435546

>  <SCORE.INTRA>
-1.22986

>  <SCORE.INTRA.DIHEDRAL>
0.0995174

>  <SCORE.INTRA.DIHEDRAL.0>
6.18831

>  <SCORE.INTRA.POLAR>
0

>  <SCORE.INTRA.POLAR.0>
0

>  <SCORE.INTRA.REPUL>
0

>  <SCORE.INTRA.REPUL.0>
0

>  <SCORE.INTRA.SOLV>
0.48851

>  <SCORE.INTRA.SOLV.lig_0>
-44.3465

>  <SCORE.INTRA.VDW>
-1.52388

>  <SCORE.INTRA.VDW.0>
-0.778272

>  <SCORE.INTRA.norm>
-0.0559029

>  <SCORE.RESTR>
0

>  <SCORE.RESTR.CAVITY>
0

>  <SCORE.RESTR.norm>
0

>  <SCORE.SYSTEM>
0

>  <SCORE.SYSTEM.CONST>
0

>  <SCORE.SYSTEM.DIHEDRAL>
0

>  <SCORE.SYSTEM.SOLV>
0

>  <SCORE.SYSTEM.norm>
0

>  <SCORE.heavy>
22

>  <SCORE.norm>
-0.491449

>  <RMSD>
13.397

$$$$
ligand
 OpenBabel11021811503D
libRbt.so/2013.1/901 2013/11/27
 22 24  0  0  0  0  0  0  0  0999 V2000
   -0.9438   -4.0288   11.5902 C   0  0  0  0  0  0  0  0  0  0  0  0
   -0.5143   -4.3573   10.2871 C   0  0  0  0  0  0  0  0  0  0  0  0
   -1.3142   -5.1697    9.4881 C   0  0  0  0  0  0  0  0  0  0  0  0
   -2.5353   -5.6498    9.9926 C   0  0  0  0  0  0  0  0  0  0  0  0
   -2.9633   -5.3285   11.3043 C   0  0  0  0  0  0  0  0  0  0  0  0
   -2.1640   -4.5188   12.0997 C   0  0  0  0  0  0  0  0  0  0  0  0
   -0.0619   -3.1455   12.4937 C   0  0  0  0  0  0  0  0  0  0  0  0
    0.8722   -3.9210   13.4560 C   0  0  0  0  0  0  0  0  0  0  0  0
    0.4765   -3.8054   14.9235 C   0  0  0  0  0  0  0  0  0  0  0  0
    1.0683   -2.9136   15.8231 C   0  0  0  0  0  0  0  0  0  0  0  0
    0.4541   -3.0970   17.0211 N   0  0  0  0  0  0  0  0  0  0  0  0
   -0.5229   -4.0710   16.9661 C   0  0  0  0  0  0  0  0  0  0  0  0
   -0.5459   -4.5457   15.6593 C   0  0  0  0  0  0  0  0  0  0  0  0
   -1.5043   -5.5840   15.3499 C   0  0  0  0  0  0  0  0  0  0  0  0
   -1.5886   -6.1004   14.0598 O   0  0  0  0  0  0  0  0  0  0  0  0
   -2.3343   -6.0590   16.3566 N   0  0  0  0  0  0  0  0  0  0  0  0
   -2.2832   -5.5557   17.6241 C   0  0  0  0  0  0  0  0  0  0  0  0
   -1.4061   -4.5922   17.9468 N   0  0  0  0  0  0  0  0  0  0  0  0
   -3.1920   -6.0785   18.6495 N   0  0  0  0  0  0  0  0  0  0  0  0
   -3.3781   -6.5308    9.1090 C   0  0  0  0  0  0  0  0  0  0  0  0
   -3.1384   -7.7341    9.0270 O   0  0  0  0  0  0  0  0  0  0  0  0
   -4.4569   -5.9386    8.3636 N   0  0  0  0  0  0  0  0  0  0  0  0
  1  2  2  0  0  0  0
  1  6  1  0  0  0  0
  1  7  1  0  0  0  0
  2  3  1  0  0  0  0
  3  4  2  0  0  0  0
  4  5  1  0  0  0  0
  4 20  1  0  0  0  0
  5  6  2  0  0  0  0
  7  8  1  0  0  0  0
  8  9  1  0  0  0  0
  9 10  2  0  0  0  0
  9 13  1  0  0  0  0
 10 11  1  0  0  0  0
 11 12  1  0  0  0  0
 12 13  2  0  0  0  0
 12 18  1  0  0  0  0
 13 14  1  0  0  0  0
 14 15  1  0  0  0  0
 14 16  2  0  0  0  0
 16 17  1  0  0  0  0
 17 18  2  0  0  0  0
 17 19  1  0  0  0  0
 20 21  2  0  0  0  0
 20 22  1  0  0  0  0
M  END
>  <CHROM.1>
-94.54451327,82.59459675,-110.39251197,-98.36342776,-1.47823398,-4.98462681
13.53844753,-1.86601243,0.68905495,1.58568988

>  <Name>
ligand

>  <RI>
0

>  <Rbt.Current_Directory>
/home/itssahil/PROJECTS/Mol_Feturizer/New_Systems/rnas/4LVY

>  <Rbt.Executable>
rbdock ($Id: //depot/dev/client3/rdock/2013.1/src/exe/rbdock.cxx#4 $)

>  <Rbt.Library>
libRbt.so (2013.1, Build901 2013/11/27)

>  <Rbt.Parameter_File>
/export/apps/rDock/src/rDock_2013.1_src/data/scripts/dock_solv.prm

>  <Rbt.Receptor>
prm/blind_docking_20.prm

>  <SCORE>
-5.56893

>  <SCORE.INTER>
-9.06608

>  <SCORE.INTER.CONST>
1

>  <SCORE.INTER.POLAR>
0

>  <SCORE.INTER.ROT>
4

>  <SCORE.INTER.SOLV>
6.73811

>  <SCORE.INTER.VDW>
-14.5568

>  <SCORE.INTER.norm>
-0.412094

>  <SCORE.INTRA>
2.48232

>  <SCORE.INTRA.DIHEDRAL>
5.69383

>  <SCORE.INTRA.DIHEDRAL.0>
6.18831

>  <SCORE.INTRA.POLAR>
0

>  <SCORE.INTRA.POLAR.0>
0

>  <SCORE.INTRA.REPUL>
0

>  <SCORE.INTRA.REPUL.0>
0

>  <SCORE.INTRA.SOLV>
0.628341

>  <SCORE.INTRA.SOLV.lig_0>
-44.3465

>  <SCORE.INTRA.VDW>
-0.67877

>  <SCORE.INTRA.VDW.0>
-0.778272

>  <SCORE.INTRA.norm>
0.112833

>  <SCORE.RESTR>
1.01483

>  <SCORE.RESTR.CAVITY>
1.01483

>  <SCORE.RESTR.norm>
0.0461285

>  <SCORE.SYSTEM>
0

>  <SCORE.SYSTEM.CONST>
0

>  <SCORE.SYSTEM.DIHEDRAL>
0

>  <SCORE.SYSTEM.SOLV>
0

>  <SCORE.SYSTEM.norm>
0

>  <SCORE.heavy>
22

>  <SCORE.norm>
-0.253133

>  <RMSD>
13.406

$$$$
ligand
 OpenBabel11021811503D
libRbt.so/2013.1/901 2013/11/27
 22 24  0  0  0  0  0  0  0  0999 V2000
   -4.3235   -6.3054   19.2233 C   0  0  0  0  0  0  0  0  0  0  0  0
   -5.4286   -7.1812   19.1734 C   0  0  0  0  0  0  0  0  0  0  0  0
   -6.4470   -7.0512   20.1138 C   0  0  0  0  0  0  0  0  0  0  0  0
   -6.3572   -6.0509   21.0975 C   0  0  0  0  0  0  0  0  0  0  0  0
   -5.2437   -5.1770   21.1545 C   0  0  0  0  0  0  0  0  0  0  0  0
   -4.2289   -5.3087   20.2164 C   0  0  0  0  0  0  0  0  0  0  0  0
   -3.1795   -6.4475   18.2009 C   0  0  0  0  0  0  0  0  0  0  0  0
   -1.9125   -7.1633   18.7322 C   0  0  0  0  0  0  0  0  0  0  0  0
   -1.1708   -6.3814   19.8102 C   0  0  0  0  0  0  0  0  0  0  0  0
   -0.3456   -5.2833   19.5492 C   0  0  0  0  0  0  0  0  0  0  0  0
    0.1286   -4.8533   20.7476 N   0  0  0  0  0  0  0  0  0  0  0  0
   -0.3410   -5.6127   21.8007 C   0  0  0  0  0  0  0  0  0  0  0  0
   -1.1676   -6.5895   21.2564 C   0  0  0  0  0  0  0  0  0  0  0  0
   -1.7890   -7.5171   22.1760 C   0  0  0  0  0  0  0  0  0  0  0  0
   -2.6354   -8.5156   21.7018 O   0  0  0  0  0  0  0  0  0  0  0  0
   -1.5272   -7.3993   23.5345 N   0  0  0  0  0  0  0  0  0  0  0  0
   -0.7160   -6.4175   24.0251 C   0  0  0  0  0  0  0  0  0  0  0  0
   -0.1225   -5.5400   23.2009 N   0  0  0  0  0  0  0  0  0  0  0  0
   -0.4827   -6.3236   25.4698 N   0  0  0  0  0  0  0  0  0  0  0  0
   -7.4701   -5.9361   22.1053 C   0  0  0  0  0  0  0  0  0  0  0  0
   -7.2107   -5.7978   23.2993 O   0  0  0  0  0  0  0  0  0  0  0  0
   -8.8322   -5.9979   21.6461 N   0  0  0  0  0  0  0  0  0  0  0  0
  1  2  2  0  0  0  0
  1  6  1  0  0  0  0
  1  7  1  0  0  0  0
  2  3  1  0  0  0  0
  3  4  2  0  0  0  0
  4  5  1  0  0  0  0
  4 20  1  0  0  0  0
  5  6  2  0  0  0  0
  7  8  1  0  0  0  0
  8  9  1  0  0  0  0
  9 10  2  0  0  0  0
  9 13  1  0  0  0  0
 10 11  1  0  0  0  0
 11 12  1  0  0  0  0
 12 13  2  0  0  0  0
 12 18  1  0  0  0  0
 13 14  1  0  0  0  0
 14 15  1  0  0  0  0
 14 16  2  0  0  0  0
 16 17  1  0  0  0  0
 17 18  2  0  0  0  0
 17 19  1  0  0  0  0
 20 21  2  0  0  0  0
 20 22  1  0  0  0  0
M  END
>  <CHROM.1>
-101.35545787,134.59567599,-66.87793607,-77.11508425,-3.21973030,-6.33184133
21.33469646,-2.97954181,-0.00478370,1.56484619

>  <Name>
ligand

>  <RI>
0

>  <Rbt.Current_Directory>
/home/itssahil/PROJECTS/Mol_Feturizer/New_Systems/rnas/4LVY

>  <Rbt.Executable>
rbdock ($Id: //depot/dev/client3/rdock/2013.1/src/exe/rbdock.cxx#4 $)

>  <Rbt.Library>
libRbt.so (2013.1, Build901 2013/11/27)

>  <Rbt.Parameter_File>
/export/apps/rDock/src/rDock_2013.1_src/data/scripts/dock_solv.prm

>  <Rbt.Receptor>
prm/blind_docking_40.prm

>  <SCORE>
-9.89482

>  <SCORE.INTER>
-8.42047

>  <SCORE.INTER.CONST>
1

>  <SCORE.INTER.POLAR>
0

>  <SCORE.INTER.ROT>
4

>  <SCORE.INTER.SOLV>
10.6742

>  <SCORE.INTER.VDW>
-15.4384

>  <SCORE.INTER.norm>
-0.382749

>  <SCORE.INTRA>
-1.47435

>  <SCORE.INTRA.DIHEDRAL>
0.118652

>  <SCORE.INTRA.DIHEDRAL.0>
6.18831

>  <SCORE.INTRA.POLAR>
0

>  <SCORE.INTRA.POLAR.0>
0

>  <SCORE.INTRA.REPUL>
0

>  <SCORE.INTRA.REPUL.0>
0

>  <SCORE.INTRA.SOLV>
0.150905

>  <SCORE.INTRA.SOLV.lig_0>
-44.3465

>  <SCORE.INTRA.VDW>
-1.60913

>  <SCORE.INTRA.VDW.0>
-0.778272

>  <SCORE.INTRA.norm>
-0.067016

>  <SCORE.RESTR>
0

>  <SCORE.RESTR.CAVITY>
0

>  <SCORE.RESTR.norm>
0

>  <SCORE.SYSTEM>
0

>  <SCORE.SYSTEM.CONST>
0

>  <SCORE.SYSTEM.DIHEDRAL>
0

>  <SCORE.SYSTEM.SOLV>
0

>  <SCORE.SYSTEM.norm>
0

>  <SCORE.heavy>
22

>  <SCORE.norm>
-0.449765

>  <RMSD>
13.407

$$$$
ligand
 OpenBabel11021811503D
libRbt.so/2013.1/901 2013/11/27
 22 24  0  0  0  0  0  0  0  0999 V2000
   -4.2365   -1.1621   27.1883 C   0  0  0  0  0  0  0  0  0  0  0  0
   -4.0571   -0.1781   28.1834 C   0  0  0  0  0  0  0  0  0  0  0  0
   -4.8329    0.9775   28.1499 C   0  0  0  0  0  0  0  0  0  0  0  0
   -5.7810    1.1452   27.1256 C   0  0  0  0  0  0  0  0  0  0  0  0
   -5.9556    0.1623   26.1205 C   0  0  0  0  0  0  0  0  0  0  0  0
   -5.1806   -0.9889   26.1552 C   0  0  0  0  0  0  0  0  0  0  0  0
   -3.3735   -2.4385   27.2008 C   0  0  0  0  0  0  0  0  0  0  0  0
   -4.0937   -3.7102   27.7147 C   0  0  0  0  0  0  0  0  0  0  0  0
   -5.3928   -4.0206   26.9803 C   0  0  0  0  0  0  0  0  0  0  0  0
   -6.6063   -3.3742   27.2345 C   0  0  0  0  0  0  0  0  0  0  0  0
   -7.5234   -3.9113   26.3881 N   0  0  0  0  0  0  0  0  0  0  0  0
   -6.9806   -4.8884   25.5777 C   0  0  0  0  0  0  0  0  0  0  0  0
   -5.6355   -4.9907   25.9150 C   0  0  0  0  0  0  0  0  0  0  0  0
   -4.8437   -5.9594   25.1891 C   0  0  0  0  0  0  0  0  0  0  0  0
   -3.4882   -6.1098   25.4686 O   0  0  0  0  0  0  0  0  0  0  0  0
   -5.4545   -6.7370   24.2143 N   0  0  0  0  0  0  0  0  0  0  0  0
   -6.7772   -6.5949   23.9096 C   0  0  0  0  0  0  0  0  0  0  0  0
   -7.5420   -5.7064   24.5632 N   0  0  0  0  0  0  0  0  0  0  0  0
   -7.3736   -7.4281   22.8604 N   0  0  0  0  0  0  0  0  0  0  0  0
   -6.6027    2.4069   27.1105 C   0  0  0  0  0  0  0  0  0  0  0  0
   -7.7481    2.3930   26.6634 O   0  0  0  0  0  0  0  0  0  0  0  0
   -6.0218    3.6205   27.6199 N   0  0  0  0  0  0  0  0  0  0  0  0
  1  2  2  0  0  0  0
  1  6  1  0  0  0  0
  1  7  1  0  0  0  0
  2  3  1  0  0  0  0
  3  4  2  0  0  0  0
  4  5  1  0  0  0  0
  4 20  1  0  0  0  0
  5  6  2  0  0  0  0
  7  8  1  0  0  0  0
  8  9  1  0  0  0  0
  9 10  2  0  0  0  0
  9 13  1  0  0  0  0
 10 11  1  0  0  0  0
 11 12  1  0  0  0  0
 12 13  2  0  0  0  0
 12 18  1  0  0  0  0
 13 14  1  0  0  0  0
 14 15  1  0  0  0  0
 14 16  2  0  0  0  0
 16 17  1  0  0  0  0
 17 18  2  0  0  0  0
 17 19  1  0  0  0  0
 20 21  2  0  0  0  0
 20 22  1  0  0  0  0
M  END
>  <CHROM.1>
103.72848028,-149.14041914,54.38294464,-79.30558950,-5.71202819,-2.64827240
26.22419508,-1.55091173,0.47636305,-2.82781555

>  <Name>
ligand

>  <RI>
0

>  <Rbt.Current_Directory>
/home/itssahil/PROJECTS/Mol_Feturizer/New_Systems/rnas/4LVY

>  <Rbt.Executable>
rbdock ($Id: //depot/dev/client3/rdock/2013.1/src/exe/rbdock.cxx#4 $)

>  <Rbt.Library>
libRbt.so (2013.1, Build901 2013/11/27)

>  <Rbt.Parameter_File>
/export/apps/rDock/src/rDock_2013.1_src/data/scripts/dock_solv.prm

>  <Rbt.Receptor>
prm/blind_docking_40.prm

>  <SCORE>
-17.5807

>  <SCORE.INTER>
-16.7718

>  <SCORE.INTER.CONST>
1

>  <SCORE.INTER.POLAR>
0

>  <SCORE.INTER.ROT>
4

>  <SCORE.INTER.SOLV>
9.20168

>  <SCORE.INTER.VDW>
-20.5151

>  <SCORE.INTER.norm>
-0.762353

>  <SCORE.INTRA>
-0.808969

>  <SCORE.INTRA.DIHEDRAL>
0.219865

>  <SCORE.INTRA.DIHEDRAL.0>
6.18831

>  <SCORE.INTRA.POLAR>
0

>  <SCORE.INTRA.POLAR.0>
0

>  <SCORE.INTRA.REPUL>
0

>  <SCORE.INTRA.REPUL.0>
0

>  <SCORE.INTRA.SOLV>
0.123156

>  <SCORE.INTRA.SOLV.lig_0>
-44.3465

>  <SCORE.INTRA.VDW>
-0.980479

>  <SCORE.INTRA.VDW.0>
-0.778272

>  <SCORE.INTRA.norm>
-0.0367713

>  <SCORE.RESTR>
0

>  <SCORE.RESTR.CAVITY>
0

>  <SCORE.RESTR.norm>
0

>  <SCORE.SYSTEM>
0

>  <SCORE.SYSTEM.CONST>
0

>  <SCORE.SYSTEM.DIHEDRAL>
0

>  <SCORE.SYSTEM.SOLV>
0

>  <SCORE.SYSTEM.norm>
0

>  <SCORE.heavy>
22

>  <SCORE.norm>
-0.799124

>  <RMSD>
13.532

$$$$
ligand
 OpenBabel11021811503D
libRbt.so/2013.1/901 2013/11/27
 22 24  0  0  0  0  0  0  0  0999 V2000
   -5.6392   -6.5113   24.9629 C   0  0  0  0  0  0  0  0  0  0  0  0
   -6.3916   -7.6305   24.5483 C   0  0  0  0  0  0  0  0  0  0  0  0
   -7.3283   -7.4849   23.5286 C   0  0  0  0  0  0  0  0  0  0  0  0
   -7.5094   -6.2260   22.9297 C   0  0  0  0  0  0  0  0  0  0  0  0
   -6.7613   -5.0994   23.3515 C   0  0  0  0  0  0  0  0  0  0  0  0
   -5.8284   -5.2464   24.3689 C   0  0  0  0  0  0  0  0  0  0  0  0
   -4.6114   -6.6516   26.1023 C   0  0  0  0  0  0  0  0  0  0  0  0
   -4.8771   -5.7547   27.3371 C   0  0  0  0  0  0  0  0  0  0  0  0
   -4.3576   -4.3296   27.1855 C   0  0  0  0  0  0  0  0  0  0  0  0
   -3.0162   -4.0084   26.9566 C   0  0  0  0  0  0  0  0  0  0  0  0
   -2.9442   -2.6542   26.8734 N   0  0  0  0  0  0  0  0  0  0  0  0
   -4.1761   -2.0523   27.0359 C   0  0  0  0  0  0  0  0  0  0  0  0
   -5.1002   -3.0722   27.2340 C   0  0  0  0  0  0  0  0  0  0  0  0
   -6.4806   -2.6853   27.4271 C   0  0  0  0  0  0  0  0  0  0  0  0
   -7.4609   -3.6542   27.6227 O   0  0  0  0  0  0  0  0  0  0  0  0
   -6.8119   -1.3370   27.4178 N   0  0  0  0  0  0  0  0  0  0  0  0
   -5.8718   -0.3698   27.2096 C   0  0  0  0  0  0  0  0  0  0  0  0
   -4.5817   -0.6926   27.0273 N   0  0  0  0  0  0  0  0  0  0  0  0
   -6.2732    1.0405   27.1921 N   0  0  0  0  0  0  0  0  0  0  0  0
   -8.5328   -6.0957   21.8329 C   0  0  0  0  0  0  0  0  0  0  0  0
   -8.3114   -6.5727   20.7214 O   0  0  0  0  0  0  0  0  0  0  0  0
   -9.7622   -5.4011   22.1087 N   0  0  0  0  0  0  0  0  0  0  0  0
  1  2  2  0  0  0  0
  1  6  1  0  0  0  0
  1  7  1  0  0  0  0
  2  3  1  0  0  0  0
  3  4  2  0  0  0  0
  4  5  1  0  0  0  0
  4 20  1  0  0  0  0
  5  6  2  0  0  0  0
  7  8  1  0  0  0  0
  8  9  1  0  0  0  0
  9 10  2  0  0  0  0
  9 13  1  0  0  0  0
 10 11  1  0  0  0  0
 11 12  1  0  0  0  0
 12 13  2  0  0  0  0
 12 18  1  0  0  0  0
 13 14  1  0  0  0  0
 14 15  1  0  0  0  0
 14 16  2  0  0  0  0
 16 17  1  0  0  0  0
 17 18  2  0  0  0  0
 17 19  1  0  0  0  0
 20 21  2  0  0  0  0
 20 22  1  0  0  0  0
M  END
>  <CHROM.1>
-119.85203116,-72.84041721,-82.94893205,-59.34205536,-6.06381568,-4.17407054
25.50085312,-2.07412536,-0.69848261,0.42900889

>  <Name>
ligand

>  <RI>
0

>  <Rbt.Current_Directory>
/home/itssahil/PROJECTS/Mol_Feturizer/New_Systems/rnas/4LVY

>  <Rbt.Executable>
rbdock ($Id: //depot/dev/client3/rdock/2013.1/src/exe/rbdock.cxx#4 $)

>  <Rbt.Library>
libRbt.so (2013.1, Build901 2013/11/27)

>  <Rbt.Parameter_File>
/export/apps/rDock/src/rDock_2013.1_src/data/scripts/dock_solv.prm

>  <Rbt.Receptor>
prm/blind_docking_40.prm

>  <SCORE>
-13.8095

>  <SCORE.INTER>
-13.7996

>  <SCORE.INTER.CONST>
1

>  <SCORE.INTER.POLAR>
0

>  <SCORE.INTER.ROT>
4

>  <SCORE.INTER.SOLV>
9.79318

>  <SCORE.INTER.VDW>
-18.7308

>  <SCORE.INTER.norm>
-0.627254

>  <SCORE.INTRA>
-0.0131882

>  <SCORE.INTRA.DIHEDRAL>
1.96524

>  <SCORE.INTRA.DIHEDRAL.0>
6.18831

>  <SCORE.INTRA.POLAR>
0

>  <SCORE.INTRA.POLAR.0>
0

>  <SCORE.INTRA.REPUL>
0

>  <SCORE.INTRA.REPUL.0>
0

>  <SCORE.INTRA.SOLV>
0.0381646

>  <SCORE.INTRA.SOLV.lig_0>
-44.3465

>  <SCORE.INTRA.VDW>
-1.01489

>  <SCORE.INTRA.VDW.0>
-0.778272

>  <SCORE.INTRA.norm>
-0.000599463

>  <SCORE.RESTR>
0.00328877

>  <SCORE.RESTR.CAVITY>
0.00328877

>  <SCORE.RESTR.norm>
0.00014949

>  <SCORE.SYSTEM>
0

>  <SCORE.SYSTEM.CONST>
0

>  <SCORE.SYSTEM.DIHEDRAL>
0

>  <SCORE.SYSTEM.SOLV>
0

>  <SCORE.SYSTEM.norm>
0

>  <SCORE.heavy>
22

>  <SCORE.norm>
-0.627704

>  <RMSD>
13.552

$$$$
ligand
 OpenBabel11021811503D
libRbt.so/2013.1/901 2013/11/27
 22 24  0  0  0  0  0  0  0  0999 V2000
   -1.1554   -4.1452   11.3649 C   0  0  0  0  0  0  0  0  0  0  0  0
   -1.3243   -3.8156   10.0035 C   0  0  0  0  0  0  0  0  0  0  0  0
   -2.3241   -4.4447    9.2667 C   0  0  0  0  0  0  0  0  0  0  0  0
   -3.1478   -5.3980    9.8904 C   0  0  0  0  0  0  0  0  0  0  0  0
   -2.9732   -5.7368   11.2548 C   0  0  0  0  0  0  0  0  0  0  0  0
   -1.9753   -5.1089   11.9877 C   0  0  0  0  0  0  0  0  0  0  0  0
   -0.0421   -3.4711   12.1898 C   0  0  0  0  0  0  0  0  0  0  0  0
   -0.5378   -2.6207   13.3860 C   0  0  0  0  0  0  0  0  0  0  0  0
   -0.2894   -3.2662   14.7444 C   0  0  0  0  0  0  0  0  0  0  0  0
    0.9083   -3.1492   15.4564 C   0  0  0  0  0  0  0  0  0  0  0  0
    0.7500   -3.8481   16.6107 N   0  0  0  0  0  0  0  0  0  0  0  0
   -0.4992   -4.4283   16.7057 C   0  0  0  0  0  0  0  0  0  0  0  0
   -1.1917   -4.0861   15.5495 C   0  0  0  0  0  0  0  0  0  0  0  0
   -2.5445   -4.5812   15.4182 C   0  0  0  0  0  0  0  0  0  0  0  0
   -3.2998   -4.2708   14.2906 O   0  0  0  0  0  0  0  0  0  0  0  0
   -3.0759   -5.3710   16.4289 N   0  0  0  0  0  0  0  0  0  0  0  0
   -2.3619   -5.6735   17.5520 C   0  0  0  0  0  0  0  0  0  0  0  0
   -1.1040   -5.2315   17.7070 N   0  0  0  0  0  0  0  0  0  0  0  0
   -2.9724   -6.4980   18.5998 N   0  0  0  0  0  0  0  0  0  0  0  0
   -4.2176   -6.0669    9.0686 C   0  0  0  0  0  0  0  0  0  0  0  0
   -4.9872   -5.3911    8.3881 O   0  0  0  0  0  0  0  0  0  0  0  0
   -4.3237   -7.5014    9.1015 N   0  0  0  0  0  0  0  0  0  0  0  0
  1  2  2  0  0  0  0
  1  6  1  0  0  0  0
  1  7  1  0  0  0  0
  2  3  1  0  0  0  0
  3  4  2  0  0  0  0
  4  5  1  0  0  0  0
  4 20  1  0  0  0  0
  5  6  2  0  0  0  0
  7  8  1  0  0  0  0
  8  9  1  0  0  0  0
  9 10  2  0  0  0  0
  9 13  1  0  0  0  0
 10 11  1  0  0  0  0
 11 12  1  0  0  0  0
 12 13  2  0  0  0  0
 12 18  1  0  0  0  0
 13 14  1  0  0  0  0
 14 15  1  0  0  0  0
 14 16  2  0  0  0  0
 16 17  1  0  0  0  0
 17 18  2  0  0  0  0
 17 19  1  0  0  0  0
 20 21  2  0  0  0  0
 20 22  1  0  0  0  0
M  END
>  <CHROM.1>
117.89509475,-49.85234887,106.75796298,85.46069216,-1.98571450,-4.74442248
13.42071408,-1.94153081,0.65163885,1.69644106

>  <Name>
ligand

>  <RI>
0

>  <Rbt.Current_Directory>
/home/itssahil/PROJECTS/Mol_Feturizer/New_Systems/rnas/4LVY

>  <Rbt.Executable>
rbdock ($Id: //depot/dev/client3/rdock/2013.1/src/exe/rbdock.cxx#4 $)

>  <Rbt.Library>
libRbt.so (2013.1, Build901 2013/11/27)

>  <Rbt.Parameter_File>
/export/apps/rDock/src/rDock_2013.1_src/data/scripts/dock_solv.prm

>  <Rbt.Receptor>
prm/blind_docking_20.prm

>  <SCORE>
-0.705525

>  <SCORE.INTER>
-3.50598

>  <SCORE.INTER.CONST>
1

>  <SCORE.INTER.POLAR>
0

>  <SCORE.INTER.ROT>
4

>  <SCORE.INTER.SOLV>
5.99577

>  <SCORE.INTER.VDW>
-10.6026

>  <SCORE.INTER.norm>
-0.159363

>  <SCORE.INTRA>
1.90785

>  <SCORE.INTRA.DIHEDRAL>
5.48729

>  <SCORE.INTRA.DIHEDRAL.0>
6.18831

>  <SCORE.INTRA.POLAR>
0

>  <SCORE.INTRA.POLAR.0>
0

>  <SCORE.INTRA.REPUL>
0

>  <SCORE.INTRA.REPUL.0>
0

>  <SCORE.INTRA.SOLV>
0.463836

>  <SCORE.INTRA.SOLV.lig_0>
-44.3465

>  <SCORE.INTRA.VDW>
-1.06772

>  <SCORE.INTRA.VDW.0>
-0.778272

>  <SCORE.INTRA.norm>
0.0867203

>  <SCORE.RESTR>
0.892609

>  <SCORE.RESTR.CAVITY>
0.892609

>  <SCORE.RESTR.norm>
0.0405732

>  <SCORE.SYSTEM>
0

>  <SCORE.SYSTEM.CONST>
0

>  <SCORE.SYSTEM.DIHEDRAL>
0

>  <SCORE.SYSTEM.SOLV>
0

>  <SCORE.SYSTEM.norm>
0

>  <SCORE.heavy>
22

>  <SCORE.norm>
-0.0320693

>  <RMSD>
13.579

$$$$
ligand
 OpenBabel11021811503D
libRbt.so/2013.1/901 2013/11/27
 22 24  0  0  0  0  0  0  0  0999 V2000
   -4.2795   -5.5271   20.2847 C   0  0  0  0  0  0  0  0  0  0  0  0
   -3.0854   -6.1970   20.6253 C   0  0  0  0  0  0  0  0  0  0  0  0
   -1.8614   -5.6315   20.2784 C   0  0  0  0  0  0  0  0  0  0  0  0
   -1.8352   -4.4037   19.5942 C   0  0  0  0  0  0  0  0  0  0  0  0
   -3.0336   -3.7347   19.2433 C   0  0  0  0  0  0  0  0  0  0  0  0
   -4.2531   -4.3005   19.5894 C   0  0  0  0  0  0  0  0  0  0  0  0
   -5.6426   -6.1482   20.6455 C   0  0  0  0  0  0  0  0  0  0  0  0
   -6.3800   -5.4675   21.8257 C   0  0  0  0  0  0  0  0  0  0  0  0
   -7.8429   -5.8756   21.9545 C   0  0  0  0  0  0  0  0  0  0  0  0
   -8.9151   -5.0720   21.5550 C   0  0  0  0  0  0  0  0  0  0  0  0
  -10.0504   -5.7702   21.8193 N   0  0  0  0  0  0  0  0  0  0  0  0
   -9.7887   -7.0055   22.3776 C   0  0  0  0  0  0  0  0  0  0  0  0
   -8.4064   -7.1169   22.4803 C   0  0  0  0  0  0  0  0  0  0  0  0
   -7.8818   -8.3430   23.0405 C   0  0  0  0  0  0  0  0  0  0  0  0
   -6.5075   -8.5266   23.1655 O   0  0  0  0  0  0  0  0  0  0  0  0
   -8.7668   -9.3300   23.4535 N   0  0  0  0  0  0  0  0  0  0  0  0
  -10.1172   -9.1809   23.3241 C   0  0  0  0  0  0  0  0  0  0  0  0
  -10.6388   -8.0565   22.8091 N   0  0  0  0  0  0  0  0  0  0  0  0
  -11.0112  -10.2586   23.7598 N   0  0  0  0  0  0  0  0  0  0  0  0
   -0.4979   -3.8175   19.2266 C   0  0  0  0  0  0  0  0  0  0  0  0
    0.3975   -3.7461   20.0664 O   0  0  0  0  0  0  0  0  0  0  0  0
   -0.2937   -3.3403   17.8847 N   0  0  0  0  0  0  0  0  0  0  0  0
  1  2  2  0  0  0  0
  1  6  1  0  0  0  0
  1  7  1  0  0  0  0
  2  3  1  0  0  0  0
  3  4  2  0  0  0  0
  4  5  1  0  0  0  0
  4 20  1  0  0  0  0
  5  6  2  0  0  0  0
  7  8  1  0  0  0  0
  8  9  1  0  0  0  0
  9 10  2  0  0  0  0
  9 13  1  0  0  0  0
 10 11  1  0  0  0  0
 11 12  1  0  0  0  0
 12 13  2  0  0  0  0
 12 18  1  0  0  0  0
 13 14  1  0  0  0  0
 14 15  1  0  0  0  0
 14 16  2  0  0  0  0
 16 17  1  0  0  0  0
 17 18  2  0  0  0  0
 17 19  1  0  0  0  0
 20 21  2  0  0  0  0
 20 22  1  0  0  0  0
M  END
>  <CHROM.1>
105.98662675,-48.19151425,166.48544522,-103.30763665,-5.93820707,-6.25171662
21.34732646,0.56353018,0.12721024,-0.51758305

>  <Name>
ligand

>  <RI>
0

>  <Rbt.Current_Directory>
/home/itssahil/PROJECTS/Mol_Feturizer/New_Systems/rnas/4LVY

>  <Rbt.Executable>
rbdock ($Id: //depot/dev/client3/rdock/2013.1/src/exe/rbdock.cxx#4 $)

>  <Rbt.Library>
libRbt.so (2013.1, Build901 2013/11/27)

>  <Rbt.Parameter_File>
/export/apps/rDock/src/rDock_2013.1_src/data/scripts/dock_solv.prm

>  <Rbt.Receptor>
prm/blind_docking_100.prm

>  <SCORE>
-14.3065

>  <SCORE.INTER>
-14.2484

>  <SCORE.INTER.CONST>
1

>  <SCORE.INTER.POLAR>
0

>  <SCORE.INTER.ROT>
4

>  <SCORE.INTER.SOLV>
10.863

>  <SCORE.INTER.VDW>
-19.3866

>  <SCORE.INTER.norm>
-0.647653

>  <SCORE.INTRA>
-0.0581529

>  <SCORE.INTRA.DIHEDRAL>
0.808314

>  <SCORE.INTRA.DIHEDRAL.0>
6.18831

>  <SCORE.INTRA.POLAR>
0

>  <SCORE.INTRA.POLAR.0>
0

>  <SCORE.INTRA.REPUL>
0

>  <SCORE.INTRA.REPUL.0>
0

>  <SCORE.INTRA.SOLV>
0.219824

>  <SCORE.INTRA.SOLV.lig_0>
-44.3465

>  <SCORE.INTRA.VDW>
-0.572222

>  <SCORE.INTRA.VDW.0>
-0.778272

>  <SCORE.INTRA.norm>
-0.00264331

>  <SCORE.RESTR>
0

>  <SCORE.RESTR.CAVITY>
0

>  <SCORE.RESTR.norm>
0

>  <SCORE.SYSTEM>
0

>  <SCORE.SYSTEM.CONST>
0

>  <SCORE.SYSTEM.DIHEDRAL>
0

>  <SCORE.SYSTEM.SOLV>
0

>  <SCORE.SYSTEM.norm>
0

>  <SCORE.heavy>
22

>  <SCORE.norm>
-0.650297

>  <RMSD>
13.628

$$$$
ligand
 OpenBabel11021811503D
libRbt.so/2013.1/901 2013/11/27
 22 24  0  0  0  0  0  0  0  0999 V2000
   -4.4157   -5.4558   20.3255 C   0  0  0  0  0  0  0  0  0  0  0  0
   -3.1802   -6.1011   20.5438 C   0  0  0  0  0  0  0  0  0  0  0  0
   -2.0167   -5.5460   20.0181 C   0  0  0  0  0  0  0  0  0  0  0  0
   -2.0919   -4.3531   19.2782 C   0  0  0  0  0  0  0  0  0  0  0  0
   -3.3329   -3.7092   19.0502 C   0  0  0  0  0  0  0  0  0  0  0  0
   -4.4921   -4.2646   19.5746 C   0  0  0  0  0  0  0  0  0  0  0  0
   -5.7149   -6.0666   20.8853 C   0  0  0  0  0  0  0  0  0  0  0  0
   -6.5111   -6.9408   19.8844 C   0  0  0  0  0  0  0  0  0  0  0  0
   -7.6586   -7.7156   20.5219 C   0  0  0  0  0  0  0  0  0  0  0  0
   -7.8083   -9.1028   20.4320 C   0  0  0  0  0  0  0  0  0  0  0  0
   -8.9333   -9.4231   21.1232 N   0  0  0  0  0  0  0  0  0  0  0  0
   -9.5451   -8.3141   21.6728 C   0  0  0  0  0  0  0  0  0  0  0  0
   -8.7737   -7.2121   21.3205 C   0  0  0  0  0  0  0  0  0  0  0  0
   -9.2169   -5.9177   21.7901 C   0  0  0  0  0  0  0  0  0  0  0  0
   -8.4888   -4.7717   21.4823 O   0  0  0  0  0  0  0  0  0  0  0  0
  -10.3776   -5.8349   22.5475 N   0  0  0  0  0  0  0  0  0  0  0  0
  -11.0982   -6.9459   22.8778 C   0  0  0  0  0  0  0  0  0  0  0  0
  -10.7166   -8.1628   22.4589 N   0  0  0  0  0  0  0  0  0  0  0  0
  -12.3089   -6.8094   23.6939 N   0  0  0  0  0  0  0  0  0  0  0  0
   -0.8188   -3.7776   18.7167 C   0  0  0  0  0  0  0  0  0  0  0  0
   -0.8022   -3.3047   17.5818 O   0  0  0  0  0  0  0  0  0  0  0  0
    0.3699   -3.7987   19.5271 N   0  0  0  0  0  0  0  0  0  0  0  0
  1  2  2  0  0  0  0
  1  6  1  0  0  0  0
  1  7  1  0  0  0  0
  2  3  1  0  0  0  0
  3  4  2  0  0  0  0
  4  5  1  0  0  0  0
  4 20  1  0  0  0  0
  5  6  2  0  0  0  0
  7  8  1  0  0  0  0
  8  9  1  0  0  0  0
  9 10  2  0  0  0  0
  9 13  1  0  0  0  0
 10 11  1  0  0  0  0
 11 12  1  0  0  0  0
 12 13  2  0  0  0  0
 12 18  1  0  0  0  0
 13 14  1  0  0  0  0
 14 15  1  0  0  0  0
 14 16  2  0  0  0  0
 16 17  1  0  0  0  0
 17 18  2  0  0  0  0
 17 19  1  0  0  0  0
 20 21  2  0  0  0  0
 20 22  1  0  0  0  0
M  END
>  <CHROM.1>
-95.88314372,138.82724621,170.39452755,-124.61182888,-6.29623003,-6.04464156
20.69988362,-0.28012815,-0.39126648,-2.99495474

>  <Name>
ligand

>  <RI>
0

>  <Rbt.Current_Directory>
/home/itssahil/PROJECTS/Mol_Feturizer/New_Systems/rnas/4LVY

>  <Rbt.Executable>
rbdock ($Id: //depot/dev/client3/rdock/2013.1/src/exe/rbdock.cxx#4 $)

>  <Rbt.Library>
libRbt.so (2013.1, Build901 2013/11/27)

>  <Rbt.Parameter_File>
/export/apps/rDock/src/rDock_2013.1_src/data/scripts/dock_solv.prm

>  <Rbt.Receptor>
prm/blind_docking_60.prm

>  <SCORE>
-10.7029

>  <SCORE.INTER>
-10.4706

>  <SCORE.INTER.CONST>
1

>  <SCORE.INTER.POLAR>
0

>  <SCORE.INTER.ROT>
4

>  <SCORE.INTER.SOLV>
10.7302

>  <SCORE.INTER.VDW>
-16.8238

>  <SCORE.INTER.norm>
-0.475934

>  <SCORE.INTRA>
-0.232331

>  <SCORE.INTRA.DIHEDRAL>
0.313842

>  <SCORE.INTRA.DIHEDRAL.0>
6.18831

>  <SCORE.INTRA.POLAR>
0

>  <SCORE.INTRA.POLAR.0>
0

>  <SCORE.INTRA.REPUL>
0

>  <SCORE.INTRA.REPUL.0>
0

>  <SCORE.INTRA.SOLV>
0.322011

>  <SCORE.INTRA.SOLV.lig_0>
-44.3465

>  <SCORE.INTRA.VDW>
-0.550258

>  <SCORE.INTRA.VDW.0>
-0.778272

>  <SCORE.INTRA.norm>
-0.0105605

>  <SCORE.RESTR>
0

>  <SCORE.RESTR.CAVITY>
0

>  <SCORE.RESTR.norm>
0

>  <SCORE.SYSTEM>
0

>  <SCORE.SYSTEM.CONST>
0

>  <SCORE.SYSTEM.DIHEDRAL>
0

>  <SCORE.SYSTEM.SOLV>
0

>  <SCORE.SYSTEM.norm>
0

>  <SCORE.heavy>
22

>  <SCORE.norm>
-0.486495

>  <RMSD>
13.657

$$$$
ligand
 OpenBabel11021811503D
libRbt.so/2013.1/901 2013/11/27
 22 24  0  0  0  0  0  0  0  0999 V2000
   -3.8081   -5.2462   20.2003 C   0  0  0  0  0  0  0  0  0  0  0  0
   -2.6006   -5.9633   20.3358 C   0  0  0  0  0  0  0  0  0  0  0  0
   -1.4448   -5.4762   19.7316 C   0  0  0  0  0  0  0  0  0  0  0  0
   -1.4997   -4.2793   18.9964 C   0  0  0  0  0  0  0  0  0  0  0  0
   -2.7134   -3.5632   18.8517 C   0  0  0  0  0  0  0  0  0  0  0  0
   -3.8651   -4.0509   19.4542 C   0  0  0  0  0  0  0  0  0  0  0  0
   -5.1001   -5.7811   20.8477 C   0  0  0  0  0  0  0  0  0  0  0  0
   -4.8835   -6.7802   22.0116 C   0  0  0  0  0  0  0  0  0  0  0  0
   -6.1683   -7.1744   22.7309 C   0  0  0  0  0  0  0  0  0  0  0  0
   -6.8741   -6.3254   23.5888 C   0  0  0  0  0  0  0  0  0  0  0  0
   -7.9554   -7.0204   24.0288 N   0  0  0  0  0  0  0  0  0  0  0  0
   -8.0074   -8.2968   23.5052 C   0  0  0  0  0  0  0  0  0  0  0  0
   -6.8990   -8.4385   22.6775 C   0  0  0  0  0  0  0  0  0  0  0  0
   -6.7354   -9.7077   22.0032 C   0  0  0  0  0  0  0  0  0  0  0  0
   -5.6532   -9.9171   21.1529 O   0  0  0  0  0  0  0  0  0  0  0  0
   -7.6693  -10.7124   22.2185 N   0  0  0  0  0  0  0  0  0  0  0  0
   -8.7484  -10.5248   23.0328 C   0  0  0  0  0  0  0  0  0  0  0  0
   -8.9314   -9.3603   23.6747 N   0  0  0  0  0  0  0  0  0  0  0  0
   -9.7167  -11.6108   23.2159 N   0  0  0  0  0  0  0  0  0  0  0  0
   -0.2359   -3.7782   18.3492 C   0  0  0  0  0  0  0  0  0  0  0  0
   -0.2736   -3.2744   17.2281 O   0  0  0  0  0  0  0  0  0  0  0  0
    1.0075   -3.9063   19.0616 N   0  0  0  0  0  0  0  0  0  0  0  0
  1  2  2  0  0  0  0
  1  6  1  0  0  0  0
  1  7  1  0  0  0  0
  2  3  1  0  0  0  0
  3  4  2  0  0  0  0
  4  5  1  0  0  0  0
  4 20  1  0  0  0  0
  5  6  2  0  0  0  0
  7  8  1  0  0  0  0
  8  9  1  0  0  0  0
  9 10  2  0  0  0  0
  9 13  1  0  0  0  0
 10 11  1  0  0  0  0
 11 12  1  0  0  0  0
 12 13  2  0  0  0  0
 12 18  1  0  0  0  0
 13 14  1  0  0  0  0
 14 15  1  0  0  0  0
 14 16  2  0  0  0  0
 16 17  1  0  0  0  0
 17 18  2  0  0  0  0
 17 19  1  0  0  0  0
 20 21  2  0  0  0  0
 20 22  1  0  0  0  0
M  END
>  <CHROM.1>
21.27993703,140.61892475,173.67068602,-72.65333467,-4.94939577,-6.91367814
21.21132390,0.46277258,0.65410104,0.22509092

>  <Name>
ligand

>  <RI>
0

>  <Rbt.Current_Directory>
/home/itssahil/PROJECTS/Mol_Feturizer/New_Systems/rnas/4LVY

>  <Rbt.Executable>
rbdock ($Id: //depot/dev/client3/rdock/2013.1/src/exe/rbdock.cxx#4 $)

>  <Rbt.Library>
libRbt.so (2013.1, Build901 2013/11/27)

>  <Rbt.Parameter_File>
/export/apps/rDock/src/rDock_2013.1_src/data/scripts/dock_solv.prm

>  <Rbt.Receptor>
prm/blind_docking_60.prm

>  <SCORE>
-12.353

>  <SCORE.INTER>
-12.5974

>  <SCORE.INTER.CONST>
1

>  <SCORE.INTER.POLAR>
0

>  <SCORE.INTER.ROT>
4

>  <SCORE.INTER.SOLV>
11.4862

>  <SCORE.INTER.VDW>
-18.4937

>  <SCORE.INTER.norm>
-0.57261

>  <SCORE.INTRA>
0.244395

>  <SCORE.INTRA.DIHEDRAL>
0.0823719

>  <SCORE.INTRA.DIHEDRAL.0>
6.18831

>  <SCORE.INTRA.POLAR>
0

>  <SCORE.INTRA.POLAR.0>
0

>  <SCORE.INTRA.REPUL>
0

>  <SCORE.INTRA.REPUL.0>
0

>  <SCORE.INTRA.SOLV>
0.0940034

>  <SCORE.INTRA.SOLV.lig_0>
-44.3465

>  <SCORE.INTRA.VDW>
0.156207

>  <SCORE.INTRA.VDW.0>
-0.778272

>  <SCORE.INTRA.norm>
0.0111089

>  <SCORE.RESTR>
0

>  <SCORE.RESTR.CAVITY>
0

>  <SCORE.RESTR.norm>
0

>  <SCORE.SYSTEM>
0

>  <SCORE.SYSTEM.CONST>
0

>  <SCORE.SYSTEM.DIHEDRAL>
0

>  <SCORE.SYSTEM.SOLV>
0

>  <SCORE.SYSTEM.norm>
0

>  <SCORE.heavy>
22

>  <SCORE.norm>
-0.561501

>  <RMSD>
13.735

$$$$
ligand
 OpenBabel11021811503D
libRbt.so/2013.1/901 2013/11/27
 22 24  0  0  0  0  0  0  0  0999 V2000
   -6.1593   -6.3569   23.8730 C   0  0  0  0  0  0  0  0  0  0  0  0
   -6.8428   -5.1259   23.9637 C   0  0  0  0  0  0  0  0  0  0  0  0
   -6.6823   -4.3369   25.0995 C   0  0  0  0  0  0  0  0  0  0  0  0
   -5.8432   -4.7796   26.1370 C   0  0  0  0  0  0  0  0  0  0  0  0
   -5.1638   -6.0197   26.0513 C   0  0  0  0  0  0  0  0  0  0  0  0
   -5.3257   -6.8054   24.9183 C   0  0  0  0  0  0  0  0  0  0  0  0
   -6.3402   -7.2503   22.6307 C   0  0  0  0  0  0  0  0  0  0  0  0
   -5.0478   -7.5074   21.8161 C   0  0  0  0  0  0  0  0  0  0  0  0
   -4.5829   -6.3042   21.0040 C   0  0  0  0  0  0  0  0  0  0  0  0
   -5.3731   -5.1775   20.7566 C   0  0  0  0  0  0  0  0  0  0  0  0
   -4.6216   -4.3252   20.0118 N   0  0  0  0  0  0  0  0  0  0  0  0
   -3.3633   -4.8286   19.7483 C   0  0  0  0  0  0  0  0  0  0  0  0
   -3.2926   -6.0767   20.3573 C   0  0  0  0  0  0  0  0  0  0  0  0
   -2.0523   -6.8087   20.2228 C   0  0  0  0  0  0  0  0  0  0  0  0
   -1.9080   -8.0609   20.8137 O   0  0  0  0  0  0  0  0  0  0  0  0
   -1.0118   -6.2469   19.4950 N   0  0  0  0  0  0  0  0  0  0  0  0
   -1.1228   -5.0131   18.9223 C   0  0  0  0  0  0  0  0  0  0  0  0
   -2.2590   -4.3061   19.0265 N   0  0  0  0  0  0  0  0  0  0  0  0
    0.0099   -4.4546   18.1769 N   0  0  0  0  0  0  0  0  0  0  0  0
   -5.6920   -3.9089   27.3561 C   0  0  0  0  0  0  0  0  0  0  0  0
   -5.7630   -4.4019   28.4803 O   0  0  0  0  0  0  0  0  0  0  0  0
   -5.4711   -2.4982   27.1793 N   0  0  0  0  0  0  0  0  0  0  0  0
  1  2  2  0  0  0  0
  1  6  1  0  0  0  0
  1  7  1  0  0  0  0
  2  3  1  0  0  0  0
  3  4  2  0  0  0  0
  4  5  1  0  0  0  0
  4 20  1  0  0  0  0
  5  6  2  0  0  0  0
  7  8  1  0  0  0  0
  8  9  1  0  0  0  0
  9 10  2  0  0  0  0
  9 13  1  0  0  0  0
 10 11  1  0  0  0  0
 11 12  1  0  0  0  0
 12 13  2  0  0  0  0
 12 18  1  0  0  0  0
 13 14  1  0  0  0  0
 14 15  1  0  0  0  0
 14 16  2  0  0  0  0
 16 17  1  0  0  0  0
 17 18  2  0  0  0  0
 17 19  1  0  0  0  0
 20 21  2  0  0  0  0
 20 22  1  0  0  0  0
M  END
>  <CHROM.1>
118.24074880,133.91880875,-73.58694588,-13.80396282,-4.22087535,-5.49027191
22.53955901,2.36284553,0.81907973,0.79618248

>  <Name>
ligand

>  <RI>
0

>  <Rbt.Current_Directory>
/home/itssahil/PROJECTS/Mol_Feturizer/New_Systems/rnas/4LVY

>  <Rbt.Executable>
rbdock ($Id: //depot/dev/client3/rdock/2013.1/src/exe/rbdock.cxx#4 $)

>  <Rbt.Library>
libRbt.so (2013.1, Build901 2013/11/27)

>  <Rbt.Parameter_File>
/export/apps/rDock/src/rDock_2013.1_src/data/scripts/dock_solv.prm

>  <Rbt.Receptor>
prm/blind_docking_100.prm

>  <SCORE>
-12.8286

>  <SCORE.INTER>
-12.943

>  <SCORE.INTER.CONST>
1

>  <SCORE.INTER.POLAR>
0

>  <SCORE.INTER.ROT>
4

>  <SCORE.INTER.SOLV>
6.95025

>  <SCORE.INTER.VDW>
-17.2121

>  <SCORE.INTER.norm>
-0.58832

>  <SCORE.INTRA>
0.11443

>  <SCORE.INTRA.DIHEDRAL>
0.773832

>  <SCORE.INTRA.DIHEDRAL.0>
6.18831

>  <SCORE.INTRA.POLAR>
0

>  <SCORE.INTRA.POLAR.0>
0

>  <SCORE.INTRA.REPUL>
0

>  <SCORE.INTRA.REPUL.0>
0

>  <SCORE.INTRA.SOLV>
0.000757426

>  <SCORE.INTRA.SOLV.lig_0>
-44.3465

>  <SCORE.INTRA.VDW>
-0.272865

>  <SCORE.INTRA.VDW.0>
-0.778272

>  <SCORE.INTRA.norm>
0.00520135

>  <SCORE.RESTR>
0

>  <SCORE.RESTR.CAVITY>
0

>  <SCORE.RESTR.norm>
0

>  <SCORE.SYSTEM>
0

>  <SCORE.SYSTEM.CONST>
0

>  <SCORE.SYSTEM.DIHEDRAL>
0

>  <SCORE.SYSTEM.SOLV>
0

>  <SCORE.SYSTEM.norm>
0

>  <SCORE.heavy>
22

>  <SCORE.norm>
-0.583119

>  <RMSD>
13.737

$$$$
ligand
 OpenBabel11021811503D
libRbt.so/2013.1/901 2013/11/27
 22 24  0  0  0  0  0  0  0  0999 V2000
   -6.0710   -5.8910   24.0040 C   0  0  0  0  0  0  0  0  0  0  0  0
   -6.6936   -4.7061   24.4501 C   0  0  0  0  0  0  0  0  0  0  0  0
   -6.4966   -4.2822   25.7615 C   0  0  0  0  0  0  0  0  0  0  0  0
   -5.6819   -5.0415   26.6194 C   0  0  0  0  0  0  0  0  0  0  0  0
   -5.0638   -6.2364   26.1756 C   0  0  0  0  0  0  0  0  0  0  0  0
   -5.2621   -6.6578   24.8678 C   0  0  0  0  0  0  0  0  0  0  0  0
   -6.2933   -6.3835   22.5610 C   0  0  0  0  0  0  0  0  0  0  0  0
   -5.6733   -5.4863   21.4607 C   0  0  0  0  0  0  0  0  0  0  0  0
   -4.3477   -6.0068   20.9173 C   0  0  0  0  0  0  0  0  0  0  0  0
   -3.7590   -7.2102   21.3176 C   0  0  0  0  0  0  0  0  0  0  0  0
   -2.6015   -7.3345   20.6171 N   0  0  0  0  0  0  0  0  0  0  0  0
   -2.3869   -6.2696   19.7650 C   0  0  0  0  0  0  0  0  0  0  0  0
   -3.4658   -5.4061   19.9192 C   0  0  0  0  0  0  0  0  0  0  0  0
   -3.4692   -4.2025   19.1168 C   0  0  0  0  0  0  0  0  0  0  0  0
   -4.5220   -3.2968   19.2135 O   0  0  0  0  0  0  0  0  0  0  0  0
   -2.4084   -3.9631   18.2535 N   0  0  0  0  0  0  0  0  0  0  0  0
   -1.3744   -4.8449   18.1276 C   0  0  0  0  0  0  0  0  0  0  0  0
   -1.3383   -5.9713   18.8567 N   0  0  0  0  0  0  0  0  0  0  0  0
   -0.2844   -4.5558   17.1901 N   0  0  0  0  0  0  0  0  0  0  0  0
   -5.4903   -4.5627   28.0341 C   0  0  0  0  0  0  0  0  0  0  0  0
   -4.6843   -3.6671   28.2796 O   0  0  0  0  0  0  0  0  0  0  0  0
   -6.2591   -5.1750   29.0848 N   0  0  0  0  0  0  0  0  0  0  0  0
  1  2  2  0  0  0  0
  1  6  1  0  0  0  0
  1  7  1  0  0  0  0
  2  3  1  0  0  0  0
  3  4  2  0  0  0  0
  4  5  1  0  0  0  0
  4 20  1  0  0  0  0
  5  6  2  0  0  0  0
  7  8  1  0  0  0  0
  8  9  1  0  0  0  0
  9 10  2  0  0  0  0
  9 13  1  0  0  0  0
 10 11  1  0  0  0  0
 11 12  1  0  0  0  0
 12 13  2  0  0  0  0
 12 18  1  0  0  0  0
 13 14  1  0  0  0  0
 14 15  1  0  0  0  0
 14 16  2  0  0  0  0
 16 17  1  0  0  0  0
 17 18  2  0  0  0  0
 17 19  1  0  0  0  0
 20 21  2  0  0  0  0
 20 22  1  0  0  0  0
M  END
>  <CHROM.1>
67.77935411,-80.11369277,100.21797444,2.74978116,-4.23130133,-5.28488356
22.45151518,2.65261793,1.11394616,0.52251889

>  <Name>
ligand

>  <RI>
0

>  <Rbt.Current_Directory>
/home/itssahil/PROJECTS/Mol_Feturizer/New_Systems/rnas/4LVY

>  <Rbt.Executable>
rbdock ($Id: //depot/dev/client3/rdock/2013.1/src/exe/rbdock.cxx#4 $)

>  <Rbt.Library>
libRbt.so (2013.1, Build901 2013/11/27)

>  <Rbt.Parameter_File>
/export/apps/rDock/src/rDock_2013.1_src/data/scripts/dock_solv.prm

>  <Rbt.Receptor>
prm/blind_docking_40.prm

>  <SCORE>
-11.2547

>  <SCORE.INTER>
-13.4692

>  <SCORE.INTER.CONST>
1

>  <SCORE.INTER.POLAR>
0

>  <SCORE.INTER.ROT>
4

>  <SCORE.INTER.SOLV>
9.30183

>  <SCORE.INTER.VDW>
-18.3467

>  <SCORE.INTER.norm>
-0.612235

>  <SCORE.INTRA>
2.21443

>  <SCORE.INTRA.DIHEDRAL>
4.6446

>  <SCORE.INTRA.DIHEDRAL.0>
6.18831

>  <SCORE.INTRA.POLAR>
0

>  <SCORE.INTRA.POLAR.0>
0

>  <SCORE.INTRA.REPUL>
0

>  <SCORE.INTRA.REPUL.0>
0

>  <SCORE.INTRA.SOLV>
-0.0070935

>  <SCORE.INTRA.SOLV.lig_0>
-44.3465

>  <SCORE.INTRA.VDW>
-0.104329

>  <SCORE.INTRA.VDW.0>
-0.778272

>  <SCORE.INTRA.norm>
0.100656

>  <SCORE.RESTR>
0

>  <SCORE.RESTR.CAVITY>
0

>  <SCORE.RESTR.norm>
0

>  <SCORE.SYSTEM>
0

>  <SCORE.SYSTEM.CONST>
0

>  <SCORE.SYSTEM.DIHEDRAL>
0

>  <SCORE.SYSTEM.SOLV>
0

>  <SCORE.SYSTEM.norm>
0

>  <SCORE.heavy>
22

>  <SCORE.norm>
-0.511579

>  <RMSD>
13.753

$$$$
ligand
 OpenBabel11021811503D
libRbt.so/2013.1/901 2013/11/27
 22 24  0  0  0  0  0  0  0  0999 V2000
   -1.6598   -4.4203   10.8633 C   0  0  0  0  0  0  0  0  0  0  0  0
   -2.1443   -5.7132   11.1539 C   0  0  0  0  0  0  0  0  0  0  0  0
   -3.0998   -6.2886   10.3207 C   0  0  0  0  0  0  0  0  0  0  0  0
   -3.5665   -5.5723    9.2047 C   0  0  0  0  0  0  0  0  0  0  0  0
   -3.0879   -4.2704    8.9171 C   0  0  0  0  0  0  0  0  0  0  0  0
   -2.1357   -3.6980    9.7495 C   0  0  0  0  0  0  0  0  0  0  0  0
   -0.6155   -3.7622   11.7855 C   0  0  0  0  0  0  0  0  0  0  0  0
   -1.2041   -2.9698   12.9795 C   0  0  0  0  0  0  0  0  0  0  0  0
   -1.3570   -3.7967   14.2509 C   0  0  0  0  0  0  0  0  0  0  0  0
   -2.4658   -4.6016   14.5294 C   0  0  0  0  0  0  0  0  0  0  0  0
   -2.2393   -5.1796   15.7379 N   0  0  0  0  0  0  0  0  0  0  0  0
   -1.0291   -4.7993   16.2828 C   0  0  0  0  0  0  0  0  0  0  0  0
   -0.4354   -3.9270   15.3771 C   0  0  0  0  0  0  0  0  0  0  0  0
    0.8605   -3.3896   15.7293 C   0  0  0  0  0  0  0  0  0  0  0  0
    1.5172   -2.5168   14.8661 O   0  0  0  0  0  0  0  0  0  0  0  0
    1.4368   -3.7534   16.9390 N   0  0  0  0  0  0  0  0  0  0  0  0
    0.8211   -4.6217   17.7933 C   0  0  0  0  0  0  0  0  0  0  0  0
   -0.3819   -5.1393   17.4990 N   0  0  0  0  0  0  0  0  0  0  0  0
    1.4772   -4.9886   19.0524 N   0  0  0  0  0  0  0  0  0  0  0  0
   -4.6038   -6.2163    8.3235 C   0  0  0  0  0  0  0  0  0  0  0  0
   -5.4500   -6.9641    8.8101 O   0  0  0  0  0  0  0  0  0  0  0  0
   -4.5800   -5.9457    6.9106 N   0  0  0  0  0  0  0  0  0  0  0  0
  1  2  2  0  0  0  0
  1  6  1  0  0  0  0
  1  7  1  0  0  0  0
  2  3  1  0  0  0  0
  3  4  2  0  0  0  0
  4  5  1  0  0  0  0
  4 20  1  0  0  0  0
  5  6  2  0  0  0  0
  7  8  1  0  0  0  0
  8  9  1  0  0  0  0
  9 10  2  0  0  0  0
  9 13  1  0  0  0  0
 10 11  1  0  0  0  0
 11 12  1  0  0  0  0
 12 13  2  0  0  0  0
 12 18  1  0  0  0  0
 13 14  1  0  0  0  0
 14 15  1  0  0  0  0
 14 16  2  0  0  0  0
 16 17  1  0  0  0  0
 17 18  2  0  0  0  0
 17 19  1  0  0  0  0
 20 21  2  0  0  0  0
 20 22  1  0  0  0  0
M  END
>  <CHROM.1>
-87.65856075,33.47783772,92.00870392,-85.10448320,-1.52186561,-4.65652233
13.08172483,-2.26360856,0.74094517,1.90053792

>  <Name>
ligand

>  <RI>
0

>  <Rbt.Current_Directory>
/home/itssahil/PROJECTS/Mol_Feturizer/New_Systems/rnas/4LVY

>  <Rbt.Executable>
rbdock ($Id: //depot/dev/client3/rdock/2013.1/src/exe/rbdock.cxx#4 $)

>  <Rbt.Library>
libRbt.so (2013.1, Build901 2013/11/27)

>  <Rbt.Parameter_File>
/export/apps/rDock/src/rDock_2013.1_src/data/scripts/dock_solv.prm

>  <Rbt.Receptor>
prm/blind_docking_20.prm

>  <SCORE>
-4.20714

>  <SCORE.INTER>
-6.187

>  <SCORE.INTER.CONST>
1

>  <SCORE.INTER.POLAR>
0

>  <SCORE.INTER.ROT>
4

>  <SCORE.INTER.SOLV>
9.42524

>  <SCORE.INTER.VDW>
-13.5331

>  <SCORE.INTER.norm>
-0.281227

>  <SCORE.INTRA>
0.894232

>  <SCORE.INTRA.DIHEDRAL>
3.27713

>  <SCORE.INTRA.DIHEDRAL.0>
6.18831

>  <SCORE.INTRA.POLAR>
0

>  <SCORE.INTRA.POLAR.0>
0

>  <SCORE.INTRA.REPUL>
0

>  <SCORE.INTRA.REPUL.0>
0

>  <SCORE.INTRA.SOLV>
0.142576

>  <SCORE.INTRA.SOLV.lig_0>
-44.3465

>  <SCORE.INTRA.VDW>
-0.81562

>  <SCORE.INTRA.VDW.0>
-0.778272

>  <SCORE.INTRA.norm>
0.0406469

>  <SCORE.RESTR>
1.08563

>  <SCORE.RESTR.CAVITY>
1.08563

>  <SCORE.RESTR.norm>
0.0493467

>  <SCORE.SYSTEM>
0

>  <SCORE.SYSTEM.CONST>
0

>  <SCORE.SYSTEM.DIHEDRAL>
0

>  <SCORE.SYSTEM.SOLV>
0

>  <SCORE.SYSTEM.norm>
0

>  <SCORE.heavy>
22

>  <SCORE.norm>
-0.191234

>  <RMSD>
13.774

$$$$
ligand
 OpenBabel11021811503D
libRbt.so/2013.1/901 2013/11/27
 22 24  0  0  0  0  0  0  0  0999 V2000
   -1.6936   -4.4389   10.8084 C   0  0  0  0  0  0  0  0  0  0  0  0
   -2.1361   -5.7586   11.0391 C   0  0  0  0  0  0  0  0  0  0  0  0
   -3.0890   -6.3181   10.1922 C   0  0  0  0  0  0  0  0  0  0  0  0
   -3.5949   -5.5594    9.1223 C   0  0  0  0  0  0  0  0  0  0  0  0
   -3.1584   -4.2310    8.8951 C   0  0  0  0  0  0  0  0  0  0  0  0
   -2.2088   -3.6746    9.7411 C   0  0  0  0  0  0  0  0  0  0  0  0
   -0.6528   -3.7988   11.7471 C   0  0  0  0  0  0  0  0  0  0  0  0
   -1.2449   -2.9322   12.8865 C   0  0  0  0  0  0  0  0  0  0  0  0
   -1.4274   -3.6840   14.1998 C   0  0  0  0  0  0  0  0  0  0  0  0
   -2.5968   -4.3639   14.5537 C   0  0  0  0  0  0  0  0  0  0  0  0
   -2.3803   -4.9081   15.7796 N   0  0  0  0  0  0  0  0  0  0  0  0
   -1.1190   -4.6245   16.2643 C   0  0  0  0  0  0  0  0  0  0  0  0
   -0.4797   -3.8546   15.2988 C   0  0  0  0  0  0  0  0  0  0  0  0
    0.8744   -3.4315   15.5807 C   0  0  0  0  0  0  0  0  0  0  0  0
    1.5781   -2.6655   14.6554 O   0  0  0  0  0  0  0  0  0  0  0  0
    1.4594   -3.7969   16.7858 N   0  0  0  0  0  0  0  0  0  0  0  0
    0.7966   -4.5629   17.7005 C   0  0  0  0  0  0  0  0  0  0  0  0
   -0.4609   -4.9728   17.4723 N   0  0  0  0  0  0  0  0  0  0  0  0
    1.4626   -4.9370   18.9523 N   0  0  0  0  0  0  0  0  0  0  0  0
   -4.6284   -6.1873    8.2252 C   0  0  0  0  0  0  0  0  0  0  0  0
   -4.5595   -6.0411    7.0062 O   0  0  0  0  0  0  0  0  0  0  0  0
   -5.6933   -6.9503    8.8200 N   0  0  0  0  0  0  0  0  0  0  0  0
  1  2  2  0  0  0  0
  1  6  1  0  0  0  0
  1  7  1  0  0  0  0
  2  3  1  0  0  0  0
  3  4  2  0  0  0  0
  4  5  1  0  0  0  0
  4 20  1  0  0  0  0
  5  6  2  0  0  0  0
  7  8  1  0  0  0  0
  8  9  1  0  0  0  0
  9 10  2  0  0  0  0
  9 13  1  0  0  0  0
 10 11  1  0  0  0  0
 11 12  1  0  0  0  0
 12 13  2  0  0  0  0
 12 18  1  0  0  0  0
 13 14  1  0  0  0  0
 14 15  1  0  0  0  0
 14 16  2  0  0  0  0
 16 17  1  0  0  0  0
 17 18  2  0  0  0  0
 17 19  1  0  0  0  0
 20 21  2  0  0  0  0
 20 22  1  0  0  0  0
M  END
>  <CHROM.1>
-95.23309071,-137.36719247,94.75280871,-90.65352944,-1.56075352,-4.61426097
13.00777150,-2.22513672,0.68430783,1.83596287

>  <Name>
ligand

>  <RI>
0

>  <Rbt.Current_Directory>
/home/itssahil/PROJECTS/Mol_Feturizer/New_Systems/rnas/4LVY

>  <Rbt.Executable>
rbdock ($Id: //depot/dev/client3/rdock/2013.1/src/exe/rbdock.cxx#4 $)

>  <Rbt.Library>
libRbt.so (2013.1, Build901 2013/11/27)

>  <Rbt.Parameter_File>
/export/apps/rDock/src/rDock_2013.1_src/data/scripts/dock_solv.prm

>  <Rbt.Receptor>
prm/blind_docking_20.prm

>  <SCORE>
-4.13452

>  <SCORE.INTER>
-6.33933

>  <SCORE.INTER.CONST>
1

>  <SCORE.INTER.POLAR>
0

>  <SCORE.INTER.ROT>
4

>  <SCORE.INTER.SOLV>
9.34675

>  <SCORE.INTER.VDW>
-13.6085

>  <SCORE.INTER.norm>
-0.288151

>  <SCORE.INTRA>
1.09975

>  <SCORE.INTRA.DIHEDRAL>
3.76056

>  <SCORE.INTRA.DIHEDRAL.0>
6.18831

>  <SCORE.INTRA.POLAR>
0

>  <SCORE.INTRA.POLAR.0>
0

>  <SCORE.INTRA.REPUL>
0

>  <SCORE.INTRA.REPUL.0>
0

>  <SCORE.INTRA.SOLV>
0.166712

>  <SCORE.INTRA.SOLV.lig_0>
-44.3465

>  <SCORE.INTRA.VDW>
-0.863887

>  <SCORE.INTRA.VDW.0>
-0.778272

>  <SCORE.INTRA.norm>
0.0499886

>  <SCORE.RESTR>
1.10506

>  <SCORE.RESTR.CAVITY>
1.10506

>  <SCORE.RESTR.norm>
0.05023

>  <SCORE.SYSTEM>
0

>  <SCORE.SYSTEM.CONST>
0

>  <SCORE.SYSTEM.DIHEDRAL>
0

>  <SCORE.SYSTEM.SOLV>
0

>  <SCORE.SYSTEM.norm>
0

>  <SCORE.heavy>
22

>  <SCORE.norm>
-0.187933

>  <RMSD>
13.817

$$$$
ligand
 OpenBabel11021811503D
libRbt.so/2013.1/901 2013/11/27
 22 24  0  0  0  0  0  0  0  0999 V2000
   -5.8224   -5.0432   26.7308 C   0  0  0  0  0  0  0  0  0  0  0  0
   -6.6703   -4.4081   25.7990 C   0  0  0  0  0  0  0  0  0  0  0  0
   -6.6302   -4.7965   24.4626 C   0  0  0  0  0  0  0  0  0  0  0  0
   -5.7456   -5.8136   24.0636 C   0  0  0  0  0  0  0  0  0  0  0  0
   -4.8869   -6.4455   24.9964 C   0  0  0  0  0  0  0  0  0  0  0  0
   -4.9279   -6.0564   26.3284 C   0  0  0  0  0  0  0  0  0  0  0  0
   -5.8417   -4.6128   28.2101 C   0  0  0  0  0  0  0  0  0  0  0  0
   -7.2241   -4.7120   28.9024 C   0  0  0  0  0  0  0  0  0  0  0  0
   -8.2613   -3.7431   28.3465 C   0  0  0  0  0  0  0  0  0  0  0  0
   -9.3243   -4.1262   27.5229 C   0  0  0  0  0  0  0  0  0  0  0  0
  -10.0286   -2.9995   27.2394 N   0  0  0  0  0  0  0  0  0  0  0  0
   -9.4867   -1.8781   27.8352 C   0  0  0  0  0  0  0  0  0  0  0  0
   -8.3691   -2.2999   28.5470 C   0  0  0  0  0  0  0  0  0  0  0  0
   -7.6256   -1.2908   29.2691 C   0  0  0  0  0  0  0  0  0  0  0  0
   -6.5007   -1.6428   30.0098 O   0  0  0  0  0  0  0  0  0  0  0  0
   -8.0475    0.0307   29.2100 N   0  0  0  0  0  0  0  0  0  0  0  0
   -9.1576    0.3974   28.5060 C   0  0  0  0  0  0  0  0  0  0  0  0
   -9.8711   -0.5122   27.8239 N   0  0  0  0  0  0  0  0  0  0  0  0
   -9.5731    1.8037   28.4870 N   0  0  0  0  0  0  0  0  0  0  0  0
   -5.7191   -6.2102   22.6113 C   0  0  0  0  0  0  0  0  0  0  0  0
   -4.7941   -6.8921   22.1737 O   0  0  0  0  0  0  0  0  0  0  0  0
   -6.7866   -5.7722   21.7519 N   0  0  0  0  0  0  0  0  0  0  0  0
  1  2  2  0  0  0  0
  1  6  1  0  0  0  0
  1  7  1  0  0  0  0
  2  3  1  0  0  0  0
  3  4  2  0  0  0  0
  4  5  1  0  0  0  0
  4 20  1  0  0  0  0
  5  6  2  0  0  0  0
  7  8  1  0  0  0  0
  8  9  1  0  0  0  0
  9 10  2  0  0  0  0
  9 13  1  0  0  0  0
 10 11  1  0  0  0  0
 11 12  1  0  0  0  0
 12 13  2  0  0  0  0
 12 18  1  0  0  0  0
 13 14  1  0  0  0  0
 14 15  1  0  0  0  0
 14 16  2  0  0  0  0
 16 17  1  0  0  0  0
 17 18  2  0  0  0  0
 17 19  1  0  0  0  0
 20 21  2  0  0  0  0
 20 22  1  0  0  0  0
M  END
>  <CHROM.1>
57.29986245,165.59012717,-66.21845511,105.86587740,-7.32671756,-3.46865450
26.77613134,-0.95688733,-0.82854313,1.23141555

>  <Name>
ligand

>  <RI>
0

>  <Rbt.Current_Directory>
/home/itssahil/PROJECTS/Mol_Feturizer/New_Systems/rnas/4LVY

>  <Rbt.Executable>
rbdock ($Id: //depot/dev/client3/rdock/2013.1/src/exe/rbdock.cxx#4 $)

>  <Rbt.Library>
libRbt.so (2013.1, Build901 2013/11/27)

>  <Rbt.Parameter_File>
/export/apps/rDock/src/rDock_2013.1_src/data/scripts/dock_solv.prm

>  <Rbt.Receptor>
prm/blind_docking_40.prm

>  <SCORE>
-11.3703

>  <SCORE.INTER>
-10.6494

>  <SCORE.INTER.CONST>
1

>  <SCORE.INTER.POLAR>
0

>  <SCORE.INTER.ROT>
4

>  <SCORE.INTER.SOLV>
9.69544

>  <SCORE.INTER.VDW>
-16.5981

>  <SCORE.INTER.norm>
-0.484065

>  <SCORE.INTRA>
-0.720867

>  <SCORE.INTRA.DIHEDRAL>
0.170135

>  <SCORE.INTRA.DIHEDRAL.0>
6.18831

>  <SCORE.INTRA.POLAR>
0

>  <SCORE.INTRA.POLAR.0>
0

>  <SCORE.INTRA.REPUL>
0

>  <SCORE.INTRA.REPUL.0>
0

>  <SCORE.INTRA.SOLV>
0.237848

>  <SCORE.INTRA.SOLV.lig_0>
-44.3465

>  <SCORE.INTRA.VDW>
-0.924858

>  <SCORE.INTRA.VDW.0>
-0.778272

>  <SCORE.INTRA.norm>
-0.0327667

>  <SCORE.RESTR>
0

>  <SCORE.RESTR.CAVITY>
0

>  <SCORE.RESTR.norm>
0

>  <SCORE.SYSTEM>
0

>  <SCORE.SYSTEM.CONST>
0

>  <SCORE.SYSTEM.DIHEDRAL>
0

>  <SCORE.SYSTEM.SOLV>
0

>  <SCORE.SYSTEM.norm>
0

>  <SCORE.heavy>
22

>  <SCORE.norm>
-0.516832

>  <RMSD>
13.820

$$$$
ligand
 OpenBabel11021811503D
libRbt.so/2013.1/901 2013/11/27
 22 24  0  0  0  0  0  0  0  0999 V2000
   -6.7084   -5.3490   24.5626 C   0  0  0  0  0  0  0  0  0  0  0  0
   -6.3675   -4.6888   23.3632 C   0  0  0  0  0  0  0  0  0  0  0  0
   -5.8373   -5.4227   22.3056 C   0  0  0  0  0  0  0  0  0  0  0  0
   -5.6497   -6.8084   22.4501 C   0  0  0  0  0  0  0  0  0  0  0  0
   -5.9827   -7.4711   23.6571 C   0  0  0  0  0  0  0  0  0  0  0  0
   -6.5105   -6.7374   24.7108 C   0  0  0  0  0  0  0  0  0  0  0  0
   -7.2794   -4.5484   25.7488 C   0  0  0  0  0  0  0  0  0  0  0  0
   -6.3993   -4.5506   27.0237 C   0  0  0  0  0  0  0  0  0  0  0  0
   -7.1481   -4.1475   28.2887 C   0  0  0  0  0  0  0  0  0  0  0  0
   -7.6709   -5.0601   29.2101 C   0  0  0  0  0  0  0  0  0  0  0  0
   -8.2558   -4.3320   30.1969 N   0  0  0  0  0  0  0  0  0  0  0  0
   -8.1492   -2.9728   29.9797 C   0  0  0  0  0  0  0  0  0  0  0  0
   -7.4549   -2.8084   28.7862 C   0  0  0  0  0  0  0  0  0  0  0  0
   -7.2123   -1.4528   28.3438 C   0  0  0  0  0  0  0  0  0  0  0  0
   -6.5161   -1.2134   27.1622 O   0  0  0  0  0  0  0  0  0  0  0  0
   -7.6856   -0.3968   29.1112 N   0  0  0  0  0  0  0  0  0  0  0  0
   -8.3544   -0.6058   30.2823 C   0  0  0  0  0  0  0  0  0  0  0  0
   -8.5975   -1.8502   30.7229 N   0  0  0  0  0  0  0  0  0  0  0  0
   -8.8206    0.5423   31.0665 N   0  0  0  0  0  0  0  0  0  0  0  0
   -5.0697   -7.5768   21.2923 C   0  0  0  0  0  0  0  0  0  0  0  0
   -3.8510   -7.6927   21.1760 O   0  0  0  0  0  0  0  0  0  0  0  0
   -5.9640   -8.1620   20.3291 N   0  0  0  0  0  0  0  0  0  0  0  0
  1  2  2  0  0  0  0
  1  6  1  0  0  0  0
  1  7  1  0  0  0  0
  2  3  1  0  0  0  0
  3  4  2  0  0  0  0
  4  5  1  0  0  0  0
  4 20  1  0  0  0  0
  5  6  2  0  0  0  0
  7  8  1  0  0  0  0
  8  9  1  0  0  0  0
  9 10  2  0  0  0  0
  9 13  1  0  0  0  0
 10 11  1  0  0  0  0
 11 12  1  0  0  0  0
 12 13  2  0  0  0  0
 12 18  1  0  0  0  0
 13 14  1  0  0  0  0
 14 15  1  0  0  0  0
 14 16  2  0  0  0  0
 16 17  1  0  0  0  0
 17 18  2  0  0  0  0
 17 19  1  0  0  0  0
 20 21  2  0  0  0  0
 20 22  1  0  0  0  0
M  END
>  <CHROM.1>
-116.61331252,88.23407481,-161.81425440,97.99665670,-6.87171335,-4.20254210
26.36012617,-0.65965832,1.23310843,0.07430740

>  <Name>
ligand

>  <RI>
0

>  <Rbt.Current_Directory>
/home/itssahil/PROJECTS/Mol_Feturizer/New_Systems/rnas/4LVY

>  <Rbt.Executable>
rbdock ($Id: //depot/dev/client3/rdock/2013.1/src/exe/rbdock.cxx#4 $)

>  <Rbt.Library>
libRbt.so (2013.1, Build901 2013/11/27)

>  <Rbt.Parameter_File>
/export/apps/rDock/src/rDock_2013.1_src/data/scripts/dock_solv.prm

>  <Rbt.Receptor>
prm/blind_docking_40.prm

>  <SCORE>
-8.82066

>  <SCORE.INTER>
-8.99924

>  <SCORE.INTER.CONST>
1

>  <SCORE.INTER.POLAR>
0

>  <SCORE.INTER.ROT>
4

>  <SCORE.INTER.SOLV>
5.16016

>  <SCORE.INTER.VDW>
-13.9862

>  <SCORE.INTER.norm>
-0.409056

>  <SCORE.INTRA>
0.178578

>  <SCORE.INTRA.DIHEDRAL>
1.34928

>  <SCORE.INTRA.DIHEDRAL.0>
6.18831

>  <SCORE.INTRA.POLAR>
0

>  <SCORE.INTRA.POLAR.0>
0

>  <SCORE.INTRA.REPUL>
0

>  <SCORE.INTRA.REPUL.0>
0

>  <SCORE.INTRA.SOLV>
0.183775

>  <SCORE.INTRA.SOLV.lig_0>
-44.3465

>  <SCORE.INTRA.VDW>
-0.587948

>  <SCORE.INTRA.VDW.0>
-0.778272

>  <SCORE.INTRA.norm>
0.00811718

>  <SCORE.RESTR>
0

>  <SCORE.RESTR.CAVITY>
0

>  <SCORE.RESTR.norm>
0

>  <SCORE.SYSTEM>
0

>  <SCORE.SYSTEM.CONST>
0

>  <SCORE.SYSTEM.DIHEDRAL>
0

>  <SCORE.SYSTEM.SOLV>
0

>  <SCORE.SYSTEM.norm>
0

>  <SCORE.heavy>
22

>  <SCORE.norm>
-0.400939

>  <RMSD>
13.850

$$$$
ligand
 OpenBabel11021811503D
libRbt.so/2013.1/901 2013/11/27
 22 24  0  0  0  0  0  0  0  0999 V2000
   -1.7470   -4.5505   10.5721 C   0  0  0  0  0  0  0  0  0  0  0  0
   -2.5236   -3.7601    9.6986 C   0  0  0  0  0  0  0  0  0  0  0  0
   -3.5526   -4.3534    8.9723 C   0  0  0  0  0  0  0  0  0  0  0  0
   -3.8004   -5.7292    9.1203 C   0  0  0  0  0  0  0  0  0  0  0  0
   -3.0153   -6.5258    9.9898 C   0  0  0  0  0  0  0  0  0  0  0  0
   -1.9893   -5.9326   10.7126 C   0  0  0  0  0  0  0  0  0  0  0  0
   -0.5930   -3.9129   11.3695 C   0  0  0  0  0  0  0  0  0  0  0  0
   -1.0325   -2.9342   12.4871 C   0  0  0  0  0  0  0  0  0  0  0  0
   -1.6152   -3.6242   13.7150 C   0  0  0  0  0  0  0  0  0  0  0  0
   -2.8803   -4.2186   13.7491 C   0  0  0  0  0  0  0  0  0  0  0  0
   -3.0422   -4.7289   14.9979 N   0  0  0  0  0  0  0  0  0  0  0  0
   -1.9433   -4.5041   15.8030 C   0  0  0  0  0  0  0  0  0  0  0  0
   -1.0151   -3.8107   15.0340 C   0  0  0  0  0  0  0  0  0  0  0  0
    0.2374   -3.4599   15.6668 C   0  0  0  0  0  0  0  0  0  0  0  0
    1.2162   -2.7728   14.9542 O   0  0  0  0  0  0  0  0  0  0  0  0
    0.4471   -3.8149   16.9927 N   0  0  0  0  0  0  0  0  0  0  0  0
   -0.4895   -4.5048   17.7063 C   0  0  0  0  0  0  0  0  0  0  0  0
   -1.6630   -4.8463   17.1512 N   0  0  0  0  0  0  0  0  0  0  0  0
   -0.2152   -4.8717   19.0994 N   0  0  0  0  0  0  0  0  0  0  0  0
   -4.9159   -6.3459    8.3187 C   0  0  0  0  0  0  0  0  0  0  0  0
   -5.6776   -7.1571    8.8420 O   0  0  0  0  0  0  0  0  0  0  0  0
   -5.0665   -5.9740    6.9370 N   0  0  0  0  0  0  0  0  0  0  0  0
  1  2  2  0  0  0  0
  1  6  1  0  0  0  0
  1  7  1  0  0  0  0
  2  3  1  0  0  0  0
  3  4  2  0  0  0  0
  4  5  1  0  0  0  0
  4 20  1  0  0  0  0
  5  6  2  0  0  0  0
  7  8  1  0  0  0  0
  8  9  1  0  0  0  0
  9 10  2  0  0  0  0
  9 13  1  0  0  0  0
 10 11  1  0  0  0  0
 11 12  1  0  0  0  0
 12 13  2  0  0  0  0
 12 18  1  0  0  0  0
 13 14  1  0  0  0  0
 14 15  1  0  0  0  0
 14 16  2  0  0  0  0
 16 17  1  0  0  0  0
 17 18  2  0  0  0  0
 17 19  1  0  0  0  0
 20 21  2  0  0  0  0
 20 22  1  0  0  0  0
M  END
>  <CHROM.1>
69.48223189,-137.49140429,74.10723454,-73.20201536,-2.02329196,-4.64974274
12.85268049,-2.12365011,0.66266283,1.71835727

>  <Name>
ligand

>  <RI>
0

>  <Rbt.Current_Directory>
/home/itssahil/PROJECTS/Mol_Feturizer/New_Systems/rnas/4LVY

>  <Rbt.Executable>
rbdock ($Id: //depot/dev/client3/rdock/2013.1/src/exe/rbdock.cxx#4 $)

>  <Rbt.Library>
libRbt.so (2013.1, Build901 2013/11/27)

>  <Rbt.Parameter_File>
/export/apps/rDock/src/rDock_2013.1_src/data/scripts/dock_solv.prm

>  <Rbt.Receptor>
prm/blind_docking_20.prm

>  <SCORE>
-6.03215

>  <SCORE.INTER>
-6.86699

>  <SCORE.INTER.CONST>
1

>  <SCORE.INTER.POLAR>
0

>  <SCORE.INTER.ROT>
4

>  <SCORE.INTER.SOLV>
8.99824

>  <SCORE.INTER.VDW>
-13.8441

>  <SCORE.INTER.norm>
-0.312136

>  <SCORE.INTRA>
-0.466873

>  <SCORE.INTRA.DIHEDRAL>
0.860312

>  <SCORE.INTRA.DIHEDRAL.0>
6.18831

>  <SCORE.INTRA.POLAR>
0

>  <SCORE.INTRA.POLAR.0>
0

>  <SCORE.INTRA.REPUL>
0

>  <SCORE.INTRA.REPUL.0>
0

>  <SCORE.INTRA.SOLV>
0.0958661

>  <SCORE.INTRA.SOLV.lig_0>
-44.3465

>  <SCORE.INTRA.VDW>
-0.944962

>  <SCORE.INTRA.VDW.0>
-0.778272

>  <SCORE.INTRA.norm>
-0.0212215

>  <SCORE.RESTR>
1.30171

>  <SCORE.RESTR.CAVITY>
1.30171

>  <SCORE.RESTR.norm>
0.0591687

>  <SCORE.SYSTEM>
0

>  <SCORE.SYSTEM.CONST>
0

>  <SCORE.SYSTEM.DIHEDRAL>
0

>  <SCORE.SYSTEM.SOLV>
0

>  <SCORE.SYSTEM.norm>
0

>  <SCORE.heavy>
22

>  <SCORE.norm>
-0.274189

>  <RMSD>
13.955

$$$$
ligand
 OpenBabel11021811503D
libRbt.so/2013.1/901 2013/11/27
 22 24  0  0  0  0  0  0  0  0999 V2000
   -1.7085   -4.5202   10.5469 C   0  0  0  0  0  0  0  0  0  0  0  0
   -2.5641   -3.6782    9.8055 C   0  0  0  0  0  0  0  0  0  0  0  0
   -3.5759   -4.2414    9.0325 C   0  0  0  0  0  0  0  0  0  0  0  0
   -3.7278   -5.6386    9.0027 C   0  0  0  0  0  0  0  0  0  0  0  0
   -2.8635   -6.4856    9.7392 C   0  0  0  0  0  0  0  0  0  0  0  0
   -1.8548   -5.9222   10.5087 C   0  0  0  0  0  0  0  0  0  0  0  0
   -0.5726   -3.9138   11.3932 C   0  0  0  0  0  0  0  0  0  0  0  0
   -1.0334   -2.9314   12.4989 C   0  0  0  0  0  0  0  0  0  0  0  0
   -1.6317   -3.6179   13.7213 C   0  0  0  0  0  0  0  0  0  0  0  0
   -2.9061   -4.1925   13.7476 C   0  0  0  0  0  0  0  0  0  0  0  0
   -3.0808   -4.7060   14.9934 N   0  0  0  0  0  0  0  0  0  0  0  0
   -1.9819   -4.5021   15.8038 C   0  0  0  0  0  0  0  0  0  0  0  0
   -1.0399   -3.8198   15.0418 C   0  0  0  0  0  0  0  0  0  0  0  0
    0.2154   -3.4915   15.6812 C   0  0  0  0  0  0  0  0  0  0  0  0
    1.2076   -2.8164   14.9756 O   0  0  0  0  0  0  0  0  0  0  0  0
    0.4142   -3.8557   17.0062 N   0  0  0  0  0  0  0  0  0  0  0  0
   -0.5360   -4.5342   17.7129 C   0  0  0  0  0  0  0  0  0  0  0  0
   -1.7124   -4.8548   17.1516 N   0  0  0  0  0  0  0  0  0  0  0  0
   -0.2730   -4.9116   19.1053 N   0  0  0  0  0  0  0  0  0  0  0  0
   -4.8269   -6.2212    8.1542 C   0  0  0  0  0  0  0  0  0  0  0  0
   -4.8649   -5.9890    6.9473 O   0  0  0  0  0  0  0  0  0  0  0  0
   -5.8273   -7.0431    8.7816 N   0  0  0  0  0  0  0  0  0  0  0  0
  1  2  2  0  0  0  0
  1  6  1  0  0  0  0
  1  7  1  0  0  0  0
  2  3  1  0  0  0  0
  3  4  2  0  0  0  0
  4  5  1  0  0  0  0
  4 20  1  0  0  0  0
  5  6  2  0  0  0  0
  7  8  1  0  0  0  0
  8  9  1  0  0  0  0
  9 10  2  0  0  0  0
  9 13  1  0  0  0  0
 10 11  1  0  0  0  0
 11 12  1  0  0  0  0
 12 13  2  0  0  0  0
 12 18  1  0  0  0  0
 13 14  1  0  0  0  0
 14 15  1  0  0  0  0
 14 16  2  0  0  0  0
 16 17  1  0  0  0  0
 17 18  2  0  0  0  0
 17 19  1  0  0  0  0
 20 21  2  0  0  0  0
 20 22  1  0  0  0  0
M  END
>  <CHROM.1>
59.75277786,58.05282561,76.28879090,-74.63012785,-2.01292990,-4.62328654
12.81721580,-2.08925640,0.63454804,1.69773846

>  <Name>
ligand

>  <RI>
0

>  <Rbt.Current_Directory>
/home/itssahil/PROJECTS/Mol_Feturizer/New_Systems/rnas/4LVY

>  <Rbt.Executable>
rbdock ($Id: //depot/dev/client3/rdock/2013.1/src/exe/rbdock.cxx#4 $)

>  <Rbt.Library>
libRbt.so (2013.1, Build901 2013/11/27)

>  <Rbt.Parameter_File>
/export/apps/rDock/src/rDock_2013.1_src/data/scripts/dock_solv.prm

>  <Rbt.Receptor>
prm/blind_docking_20.prm

>  <SCORE>
-6.28689

>  <SCORE.INTER>
-7.27315

>  <SCORE.INTER.CONST>
1

>  <SCORE.INTER.POLAR>
0

>  <SCORE.INTER.ROT>
4

>  <SCORE.INTER.SOLV>
8.88947

>  <SCORE.INTER.VDW>
-14.0786

>  <SCORE.INTER.norm>
-0.330598

>  <SCORE.INTRA>
-0.346318

>  <SCORE.INTRA.DIHEDRAL>
1.04702

>  <SCORE.INTRA.DIHEDRAL.0>
6.18831

>  <SCORE.INTRA.POLAR>
0

>  <SCORE.INTRA.POLAR.0>
0

>  <SCORE.INTRA.REPUL>
0

>  <SCORE.INTRA.REPUL.0>
0

>  <SCORE.INTRA.SOLV>
0.0937587

>  <SCORE.INTRA.SOLV.lig_0>
-44.3465

>  <SCORE.INTRA.VDW>
-0.916709

>  <SCORE.INTRA.VDW.0>
-0.778272

>  <SCORE.INTRA.norm>
-0.0157417

>  <SCORE.RESTR>
1.33258

>  <SCORE.RESTR.CAVITY>
1.33258

>  <SCORE.RESTR.norm>
0.0605719

>  <SCORE.SYSTEM>
0

>  <SCORE.SYSTEM.CONST>
0

>  <SCORE.SYSTEM.DIHEDRAL>
0

>  <SCORE.SYSTEM.SOLV>
0

>  <SCORE.SYSTEM.norm>
0

>  <SCORE.heavy>
22

>  <SCORE.norm>
-0.285768

>  <RMSD>
13.962

$$$$
ligand
 OpenBabel11021811503D
libRbt.so/2013.1/901 2013/11/27
 22 24  0  0  0  0  0  0  0  0999 V2000
   -5.5675   -5.9706   20.3461 C   0  0  0  0  0  0  0  0  0  0  0  0
   -6.5408   -6.8254   19.7869 C   0  0  0  0  0  0  0  0  0  0  0  0
   -7.7860   -6.9368   20.3996 C   0  0  0  0  0  0  0  0  0  0  0  0
   -8.0528   -6.1971   21.5648 C   0  0  0  0  0  0  0  0  0  0  0  0
   -7.0733   -5.3456   22.1326 C   0  0  0  0  0  0  0  0  0  0  0  0
   -5.8320   -5.2364   21.5207 C   0  0  0  0  0  0  0  0  0  0  0  0
   -4.1784   -5.8497   19.6905 C   0  0  0  0  0  0  0  0  0  0  0  0
   -4.0659   -4.7637   18.5915 C   0  0  0  0  0  0  0  0  0  0  0  0
   -2.6916   -4.1090   18.5120 C   0  0  0  0  0  0  0  0  0  0  0  0
   -2.1394   -3.3280   19.5317 C   0  0  0  0  0  0  0  0  0  0  0  0
   -0.9140   -2.9284   19.1019 N   0  0  0  0  0  0  0  0  0  0  0  0
   -0.6190   -3.4057   17.8405 C   0  0  0  0  0  0  0  0  0  0  0  0
   -1.7128   -4.1589   17.4284 C   0  0  0  0  0  0  0  0  0  0  0  0
   -1.6374   -4.7737   16.1212 C   0  0  0  0  0  0  0  0  0  0  0  0
   -2.6925   -5.5486   15.6474 O   0  0  0  0  0  0  0  0  0  0  0  0
   -0.5016   -4.5776   15.3469 N   0  0  0  0  0  0  0  0  0  0  0  0
    0.5532   -3.8378   15.7971 C   0  0  0  0  0  0  0  0  0  0  0  0
    0.5173   -3.2525   17.0045 N   0  0  0  0  0  0  0  0  0  0  0  0
    1.7382   -3.6728   14.9490 N   0  0  0  0  0  0  0  0  0  0  0  0
   -9.4059   -6.3406   22.2097 C   0  0  0  0  0  0  0  0  0  0  0  0
   -9.5585   -6.0548   23.3959 O   0  0  0  0  0  0  0  0  0  0  0  0
  -10.5059   -6.8216   21.4168 N   0  0  0  0  0  0  0  0  0  0  0  0
  1  2  2  0  0  0  0
  1  6  1  0  0  0  0
  1  7  1  0  0  0  0
  2  3  1  0  0  0  0
  3  4  2  0  0  0  0
  4  5  1  0  0  0  0
  4 20  1  0  0  0  0
  5  6  2  0  0  0  0
  7  8  1  0  0  0  0
  8  9  1  0  0  0  0
  9 10  2  0  0  0  0
  9 13  1  0  0  0  0
 10 11  1  0  0  0  0
 11 12  1  0  0  0  0
 12 13  2  0  0  0  0
 12 18  1  0  0  0  0
 13 14  1  0  0  0  0
 14 15  1  0  0  0  0
 14 16  2  0  0  0  0
 16 17  1  0  0  0  0
 17 18  2  0  0  0  0
 17 19  1  0  0  0  0
 20 21  2  0  0  0  0
 20 22  1  0  0  0  0
M  END
>  <CHROM.1>
88.69857595,158.26763491,147.34715293,-64.88179383,-4.01686939,-4.99783092
18.98054588,2.75424708,0.49131983,1.12874933

>  <Name>
ligand

>  <RI>
0

>  <Rbt.Current_Directory>
/home/itssahil/PROJECTS/Mol_Feturizer/New_Systems/rnas/4LVY

>  <Rbt.Executable>
rbdock ($Id: //depot/dev/client3/rdock/2013.1/src/exe/rbdock.cxx#4 $)

>  <Rbt.Library>
libRbt.so (2013.1, Build901 2013/11/27)

>  <Rbt.Parameter_File>
/export/apps/rDock/src/rDock_2013.1_src/data/scripts/dock_solv.prm

>  <Rbt.Receptor>
prm/blind_docking_60.prm

>  <SCORE>
-12.8943

>  <SCORE.INTER>
-14.4174

>  <SCORE.INTER.CONST>
1

>  <SCORE.INTER.POLAR>
0

>  <SCORE.INTER.ROT>
4

>  <SCORE.INTER.SOLV>
8.18258

>  <SCORE.INTER.VDW>
-18.6058

>  <SCORE.INTER.norm>
-0.655334

>  <SCORE.INTRA>
1.52301

>  <SCORE.INTRA.DIHEDRAL>
3.5517

>  <SCORE.INTRA.DIHEDRAL.0>
6.18831

>  <SCORE.INTRA.POLAR>
0

>  <SCORE.INTRA.POLAR.0>
0

>  <SCORE.INTRA.REPUL>
0

>  <SCORE.INTRA.REPUL.0>
0

>  <SCORE.INTRA.SOLV>
0.0709283

>  <SCORE.INTRA.SOLV.lig_0>
-44.3465

>  <SCORE.INTRA.VDW>
-0.288301

>  <SCORE.INTRA.VDW.0>
-0.778272

>  <SCORE.INTRA.norm>
0.0692278

>  <SCORE.RESTR>
0

>  <SCORE.RESTR.CAVITY>
0

>  <SCORE.RESTR.norm>
0

>  <SCORE.SYSTEM>
0

>  <SCORE.SYSTEM.CONST>
0

>  <SCORE.SYSTEM.DIHEDRAL>
0

>  <SCORE.SYSTEM.SOLV>
0

>  <SCORE.SYSTEM.norm>
0

>  <SCORE.heavy>
22

>  <SCORE.norm>
-0.586106

>  <RMSD>
14.035

$$$$
ligand
 OpenBabel11021811503D
libRbt.so/2013.1/901 2013/11/27
 22 24  0  0  0  0  0  0  0  0999 V2000
   -5.5080   -5.9370   20.4033 C   0  0  0  0  0  0  0  0  0  0  0  0
   -6.3669   -6.7707   19.6564 C   0  0  0  0  0  0  0  0  0  0  0  0
   -7.6943   -6.9138   20.0510 C   0  0  0  0  0  0  0  0  0  0  0  0
   -8.1567   -6.2266   21.1869 C   0  0  0  0  0  0  0  0  0  0  0  0
   -7.2930   -5.3967   21.9432 C   0  0  0  0  0  0  0  0  0  0  0  0
   -5.9696   -5.2558   21.5486 C   0  0  0  0  0  0  0  0  0  0  0  0
   -4.0317   -5.7819   19.9904 C   0  0  0  0  0  0  0  0  0  0  0  0
   -3.8025   -5.0544   18.6420 C   0  0  0  0  0  0  0  0  0  0  0  0
   -2.5079   -4.2514   18.5886 C   0  0  0  0  0  0  0  0  0  0  0  0
   -2.1616   -3.2669   19.5192 C   0  0  0  0  0  0  0  0  0  0  0  0
   -0.9471   -2.7839   19.1479 N   0  0  0  0  0  0  0  0  0  0  0  0
   -0.4629   -3.3995   18.0109 C   0  0  0  0  0  0  0  0  0  0  0  0
   -1.4149   -4.3358   17.6227 C   0  0  0  0  0  0  0  0  0  0  0  0
   -1.1275   -5.1204   16.4420 C   0  0  0  0  0  0  0  0  0  0  0  0
   -2.0319   -6.0821   16.0003 O   0  0  0  0  0  0  0  0  0  0  0  0
    0.0591   -4.8986   15.7559 N   0  0  0  0  0  0  0  0  0  0  0  0
    0.9698   -3.9748   16.1799 C   0  0  0  0  0  0  0  0  0  0  0  0
    0.7357   -3.2287   17.2709 N   0  0  0  0  0  0  0  0  0  0  0  0
    2.2166   -3.7881   15.4308 N   0  0  0  0  0  0  0  0  0  0  0  0
   -9.5954   -6.4037   21.5942 C   0  0  0  0  0  0  0  0  0  0  0  0
  -10.4347   -5.5617   21.2803 O   0  0  0  0  0  0  0  0  0  0  0  0
   -9.9631   -7.5662   22.3581 N   0  0  0  0  0  0  0  0  0  0  0  0
  1  2  2  0  0  0  0
  1  6  1  0  0  0  0
  1  7  1  0  0  0  0
  2  3  1  0  0  0  0
  3  4  2  0  0  0  0
  4  5  1  0  0  0  0
  4 20  1  0  0  0  0
  5  6  2  0  0  0  0
  7  8  1  0  0  0  0
  8  9  1  0  0  0  0
  9 10  2  0  0  0  0
  9 13  1  0  0  0  0
 10 11  1  0  0  0  0
 11 12  1  0  0  0  0
 12 13  2  0  0  0  0
 12 18  1  0  0  0  0
 13 14  1  0  0  0  0
 14 15  1  0  0  0  0
 14 16  2  0  0  0  0
 16 17  1  0  0  0  0
 17 18  2  0  0  0  0
 17 19  1  0  0  0  0
 20 21  2  0  0  0  0
 20 22  1  0  0  0  0
M  END
>  <CHROM.1>
67.14496093,-98.62507997,148.30980740,-54.85176342,-3.87131160,-5.09359700
18.98546723,-2.92403251,-0.48799351,-2.24435434

>  <Name>
ligand

>  <RI>
0

>  <Rbt.Current_Directory>
/home/itssahil/PROJECTS/Mol_Feturizer/New_Systems/rnas/4LVY

>  <Rbt.Executable>
rbdock ($Id: //depot/dev/client3/rdock/2013.1/src/exe/rbdock.cxx#4 $)

>  <Rbt.Library>
libRbt.so (2013.1, Build901 2013/11/27)

>  <Rbt.Parameter_File>
/export/apps/rDock/src/rDock_2013.1_src/data/scripts/dock_solv.prm

>  <Rbt.Receptor>
prm/blind_docking_60.prm

>  <SCORE>
-13.4084

>  <SCORE.INTER>
-14.7128

>  <SCORE.INTER.CONST>
1

>  <SCORE.INTER.POLAR>
0

>  <SCORE.INTER.ROT>
4

>  <SCORE.INTER.SOLV>
8.08485

>  <SCORE.INTER.VDW>
-18.7701

>  <SCORE.INTER.norm>
-0.668762

>  <SCORE.INTRA>
1.29316

>  <SCORE.INTRA.DIHEDRAL>
3.36111

>  <SCORE.INTRA.DIHEDRAL.0>
6.18831

>  <SCORE.INTRA.POLAR>
0

>  <SCORE.INTRA.POLAR.0>
0

>  <SCORE.INTRA.REPUL>
0

>  <SCORE.INTRA.REPUL.0>
0

>  <SCORE.INTRA.SOLV>
0.0237925

>  <SCORE.INTRA.SOLV.lig_0>
-44.3465

>  <SCORE.INTRA.VDW>
-0.399289

>  <SCORE.INTRA.VDW.0>
-0.778272

>  <SCORE.INTRA.norm>
0.0587801

>  <SCORE.RESTR>
0.0111722

>  <SCORE.RESTR.CAVITY>
0.0111722

>  <SCORE.RESTR.norm>
0.000507828

>  <SCORE.SYSTEM>
0

>  <SCORE.SYSTEM.CONST>
0

>  <SCORE.SYSTEM.DIHEDRAL>
0

>  <SCORE.SYSTEM.SOLV>
0

>  <SCORE.SYSTEM.norm>
0

>  <SCORE.heavy>
22

>  <SCORE.norm>
-0.609474

>  <RMSD>
14.039

$$$$
ligand
 OpenBabel11021811503D
libRbt.so/2013.1/901 2013/11/27
 22 24  0  0  0  0  0  0  0  0999 V2000
   -5.6499   -6.0407   20.2376 C   0  0  0  0  0  0  0  0  0  0  0  0
   -5.9352   -5.3561   21.4378 C   0  0  0  0  0  0  0  0  0  0  0  0
   -7.2035   -5.4642   22.0017 C   0  0  0  0  0  0  0  0  0  0  0  0
   -8.1787   -6.2523   21.3662 C   0  0  0  0  0  0  0  0  0  0  0  0
   -7.8966   -6.9326   20.1560 C   0  0  0  0  0  0  0  0  0  0  0  0
   -6.6316   -6.8230   19.5949 C   0  0  0  0  0  0  0  0  0  0  0  0
   -4.2568   -5.9171   19.5911 C   0  0  0  0  0  0  0  0  0  0  0  0
   -4.0893   -4.7204   18.6217 C   0  0  0  0  0  0  0  0  0  0  0  0
   -2.6806   -4.1383   18.6007 C   0  0  0  0  0  0  0  0  0  0  0  0
   -2.1002   -3.4612   19.6775 C   0  0  0  0  0  0  0  0  0  0  0  0
   -0.8495   -3.1007   19.2879 N   0  0  0  0  0  0  0  0  0  0  0  0
   -0.5643   -3.5053   17.9991 C   0  0  0  0  0  0  0  0  0  0  0  0
   -1.6918   -4.1669   17.5254 C   0  0  0  0  0  0  0  0  0  0  0  0
   -1.6328   -4.6932   16.1793 C   0  0  0  0  0  0  0  0  0  0  0  0
   -2.7220   -5.3744   15.6430 O   0  0  0  0  0  0  0  0  0  0  0  0
   -0.4780   -4.5068   15.4311 N   0  0  0  0  0  0  0  0  0  0  0  0
    0.6093   -3.8589   15.9415 C   0  0  0  0  0  0  0  0  0  0  0  0
    0.5894   -3.3573   17.1864 N   0  0  0  0  0  0  0  0  0  0  0  0
    1.8124   -3.7011   15.1180 N   0  0  0  0  0  0  0  0  0  0  0  0
   -9.5436   -6.3474   21.9950 C   0  0  0  0  0  0  0  0  0  0  0  0
   -9.8509   -7.3362   22.6582 O   0  0  0  0  0  0  0  0  0  0  0  0
  -10.4752   -5.2686   21.7996 N   0  0  0  0  0  0  0  0  0  0  0  0
  1  2  2  0  0  0  0
  1  6  1  0  0  0  0
  1  7  1  0  0  0  0
  2  3  1  0  0  0  0
  3  4  2  0  0  0  0
  4  5  1  0  0  0  0
  4 20  1  0  0  0  0
  5  6  2  0  0  0  0
  7  8  1  0  0  0  0
  8  9  1  0  0  0  0
  9 10  2  0  0  0  0
  9 13  1  0  0  0  0
 10 11  1  0  0  0  0
 11 12  1  0  0  0  0
 12 13  2  0  0  0  0
 12 18  1  0  0  0  0
 13 14  1  0  0  0  0
 14 15  1  0  0  0  0
 14 16  2  0  0  0  0
 16 17  1  0  0  0  0
 17 18  2  0  0  0  0
 17 19  1  0  0  0  0
 20 21  2  0  0  0  0
 20 22  1  0  0  0  0
M  END
>  <CHROM.1>
-87.65121811,-100.72332267,147.76382571,-67.70625011,-4.05181337,-5.02048797
18.96470578,2.77331595,0.46153970,1.15464463

>  <Name>
ligand

>  <RI>
0

>  <Rbt.Current_Directory>
/home/itssahil/PROJECTS/Mol_Feturizer/New_Systems/rnas/4LVY

>  <Rbt.Executable>
rbdock ($Id: //depot/dev/client3/rdock/2013.1/src/exe/rbdock.cxx#4 $)

>  <Rbt.Library>
libRbt.so (2013.1, Build901 2013/11/27)

>  <Rbt.Parameter_File>
/export/apps/rDock/src/rDock_2013.1_src/data/scripts/dock_solv.prm

>  <Rbt.Receptor>
prm/blind_docking_40.prm

>  <SCORE>
-13.8039

>  <SCORE.INTER>
-14.945

>  <SCORE.INTER.CONST>
1

>  <SCORE.INTER.POLAR>
0

>  <SCORE.INTER.ROT>
4

>  <SCORE.INTER.SOLV>
7.11787

>  <SCORE.INTER.VDW>
-18.6026

>  <SCORE.INTER.norm>
-0.679316

>  <SCORE.INTRA>
1.14108

>  <SCORE.INTRA.DIHEDRAL>
3.33125

>  <SCORE.INTRA.DIHEDRAL.0>
6.18831

>  <SCORE.INTRA.POLAR>
0

>  <SCORE.INTRA.POLAR.0>
0

>  <SCORE.INTRA.REPUL>
0

>  <SCORE.INTRA.REPUL.0>
0

>  <SCORE.INTRA.SOLV>
0.066306

>  <SCORE.INTRA.SOLV.lig_0>
-44.3465

>  <SCORE.INTRA.VDW>
-0.5577

>  <SCORE.INTRA.VDW.0>
-0.778272

>  <SCORE.INTRA.norm>
0.0518672

>  <SCORE.RESTR>
0

>  <SCORE.RESTR.CAVITY>
0

>  <SCORE.RESTR.norm>
0

>  <SCORE.SYSTEM>
0

>  <SCORE.SYSTEM.CONST>
0

>  <SCORE.SYSTEM.DIHEDRAL>
0

>  <SCORE.SYSTEM.SOLV>
0

>  <SCORE.SYSTEM.norm>
0

>  <SCORE.heavy>
22

>  <SCORE.norm>
-0.627449

>  <RMSD>
14.053

$$$$
ligand
 OpenBabel11021811503D
libRbt.so/2013.1/901 2013/11/27
 22 24  0  0  0  0  0  0  0  0999 V2000
   -2.5071   -5.1435   11.0885 C   0  0  0  0  0  0  0  0  0  0  0  0
   -2.7458   -6.4651   10.6561 C   0  0  0  0  0  0  0  0  0  0  0  0
   -3.4677   -6.6816    9.4855 C   0  0  0  0  0  0  0  0  0  0  0  0
   -3.9472   -5.5808    8.7544 C   0  0  0  0  0  0  0  0  0  0  0  0
   -3.7163   -4.2535    9.1924 C   0  0  0  0  0  0  0  0  0  0  0  0
   -2.9969   -4.0397   10.3603 C   0  0  0  0  0  0  0  0  0  0  0  0
   -1.7254   -4.8871   12.3913 C   0  0  0  0  0  0  0  0  0  0  0  0
   -0.6791   -3.7474   12.3130 C   0  0  0  0  0  0  0  0  0  0  0  0
    0.2138   -3.6464   13.5443 C   0  0  0  0  0  0  0  0  0  0  0  0
    1.5916   -3.4141   13.4920 C   0  0  0  0  0  0  0  0  0  0  0  0
    2.0349   -3.3843   14.7759 N   0  0  0  0  0  0  0  0  0  0  0  0
    1.0175   -3.5858   15.6872 C   0  0  0  0  0  0  0  0  0  0  0  0
   -0.1524   -3.7542   14.9547 C   0  0  0  0  0  0  0  0  0  0  0  0
   -1.3719   -3.9795   15.6992 C   0  0  0  0  0  0  0  0  0  0  0  0
   -2.5817   -4.1482   15.0313 O   0  0  0  0  0  0  0  0  0  0  0  0
   -1.3177   -4.0281   17.0858 N   0  0  0  0  0  0  0  0  0  0  0  0
   -0.1471   -3.8472   17.7636 C   0  0  0  0  0  0  0  0  0  0  0  0
    1.0035   -3.6364   17.1052 N   0  0  0  0  0  0  0  0  0  0  0  0
   -0.1432   -3.8910   19.2294 N   0  0  0  0  0  0  0  0  0  0  0  0
   -4.7294   -5.8438    7.4949 C   0  0  0  0  0  0  0  0  0  0  0  0
   -4.1500   -6.2006    6.4707 O   0  0  0  0  0  0  0  0  0  0  0  0
   -6.1568   -5.6639    7.5132 N   0  0  0  0  0  0  0  0  0  0  0  0
  1  2  2  0  0  0  0
  1  6  1  0  0  0  0
  1  7  1  0  0  0  0
  2  3  1  0  0  0  0
  3  4  2  0  0  0  0
  4  5  1  0  0  0  0
  4 20  1  0  0  0  0
  5  6  2  0  0  0  0
  7  8  1  0  0  0  0
  8  9  1  0  0  0  0
  9 10  2  0  0  0  0
  9 13  1  0  0  0  0
 10 11  1  0  0  0  0
 11 12  1  0  0  0  0
 12 13  2  0  0  0  0
 12 18  1  0  0  0  0
 13 14  1  0  0  0  0
 14 15  1  0  0  0  0
 14 16  2  0  0  0  0
 16 17  1  0  0  0  0
 17 18  2  0  0  0  0
 17 19  1  0  0  0  0
 20 21  2  0  0  0  0
 20 22  1  0  0  0  0
M  END
>  <CHROM.1>
137.28716971,-75.24611207,-171.74577197,138.02570566,-1.68162338,-4.53750129
12.75481875,-2.06992674,0.28773542,1.49298391

>  <Name>
ligand

>  <RI>
0

>  <Rbt.Current_Directory>
/home/itssahil/PROJECTS/Mol_Feturizer/New_Systems/rnas/4LVY

>  <Rbt.Executable>
rbdock ($Id: //depot/dev/client3/rdock/2013.1/src/exe/rbdock.cxx#4 $)

>  <Rbt.Library>
libRbt.so (2013.1, Build901 2013/11/27)

>  <Rbt.Parameter_File>
/export/apps/rDock/src/rDock_2013.1_src/data/scripts/dock_solv.prm

>  <Rbt.Receptor>
prm/blind_docking_20.prm

>  <SCORE>
-2.36432

>  <SCORE.INTER>
-4.05222

>  <SCORE.INTER.CONST>
1

>  <SCORE.INTER.POLAR>
0

>  <SCORE.INTER.ROT>
4

>  <SCORE.INTER.SOLV>
12.3592

>  <SCORE.INTER.VDW>
-13.0879

>  <SCORE.INTER.norm>
-0.184192

>  <SCORE.INTRA>
0.270622

>  <SCORE.INTRA.DIHEDRAL>
0.206754

>  <SCORE.INTRA.DIHEDRAL.0>
6.18831

>  <SCORE.INTRA.POLAR>
0

>  <SCORE.INTRA.POLAR.0>
0

>  <SCORE.INTRA.REPUL>
0

>  <SCORE.INTRA.REPUL.0>
0

>  <SCORE.INTRA.SOLV>
0.369088

>  <SCORE.INTRA.SOLV.lig_0>
-44.3465

>  <SCORE.INTRA.VDW>
-0.0172987

>  <SCORE.INTRA.VDW.0>
-0.778272

>  <SCORE.INTRA.norm>
0.012301

>  <SCORE.RESTR>
1.41727

>  <SCORE.RESTR.CAVITY>
1.41727

>  <SCORE.RESTR.norm>
0.0644216

>  <SCORE.SYSTEM>
0

>  <SCORE.SYSTEM.CONST>
0

>  <SCORE.SYSTEM.DIHEDRAL>
0

>  <SCORE.SYSTEM.SOLV>
0

>  <SCORE.SYSTEM.norm>
0

>  <SCORE.heavy>
22

>  <SCORE.norm>
-0.107469

>  <RMSD>
14.058

$$$$
ligand
 OpenBabel11021811503D
libRbt.so/2013.1/901 2013/11/27
 22 24  0  0  0  0  0  0  0  0999 V2000
   -2.2119   -4.9020   10.7018 C   0  0  0  0  0  0  0  0  0  0  0  0
   -3.3629   -4.1440   10.3998 C   0  0  0  0  0  0  0  0  0  0  0  0
   -4.3325   -4.6799    9.5566 C   0  0  0  0  0  0  0  0  0  0  0  0
   -4.1487   -5.9660    9.0196 C   0  0  0  0  0  0  0  0  0  0  0  0
   -2.9890   -6.7244    9.3146 C   0  0  0  0  0  0  0  0  0  0  0  0
   -2.0230   -6.1880   10.1550 C   0  0  0  0  0  0  0  0  0  0  0  0
   -1.1210   -4.3163   11.6190 C   0  0  0  0  0  0  0  0  0  0  0  0
   -1.6178   -3.8464   13.0090 C   0  0  0  0  0  0  0  0  0  0  0  0
   -0.4940   -3.5160   13.9844 C   0  0  0  0  0  0  0  0  0  0  0  0
    0.6207   -2.7385   13.6559 C   0  0  0  0  0  0  0  0  0  0  0  0
    1.3899   -2.6611   14.7733 N   0  0  0  0  0  0  0  0  0  0  0  0
    0.8420   -3.3509   15.8363 C   0  0  0  0  0  0  0  0  0  0  0  0
   -0.3504   -3.9061   15.3851 C   0  0  0  0  0  0  0  0  0  0  0  0
   -1.1183   -4.6830   16.3333 C   0  0  0  0  0  0  0  0  0  0  0  0
   -2.3263   -5.2612   15.9528 O   0  0  0  0  0  0  0  0  0  0  0  0
   -0.6328   -4.8457   17.6239 N   0  0  0  0  0  0  0  0  0  0  0  0
    0.5392   -4.2734   18.0257 C   0  0  0  0  0  0  0  0  0  0  0  0
    1.2777   -3.5465   17.1725 N   0  0  0  0  0  0  0  0  0  0  0  0
    1.0027   -4.4603   19.4044 N   0  0  0  0  0  0  0  0  0  0  0  0
   -5.2106   -6.5190    8.1065 C   0  0  0  0  0  0  0  0  0  0  0  0
   -6.0005   -7.3662    8.5190 O   0  0  0  0  0  0  0  0  0  0  0  0
   -5.2766   -6.0438    6.7500 N   0  0  0  0  0  0  0  0  0  0  0  0
  1  2  2  0  0  0  0
  1  6  1  0  0  0  0
  1  7  1  0  0  0  0
  2  3  1  0  0  0  0
  3  4  2  0  0  0  0
  4  5  1  0  0  0  0
  4 20  1  0  0  0  0
  5  6  2  0  0  0  0
  7  8  1  0  0  0  0
  8  9  1  0  0  0  0
  9 10  2  0  0  0  0
  9 13  1  0  0  0  0
 10 11  1  0  0  0  0
 11 12  1  0  0  0  0
 12 13  2  0  0  0  0
 12 18  1  0  0  0  0
 13 14  1  0  0  0  0
 14 15  1  0  0  0  0
 14 16  2  0  0  0  0
 16 17  1  0  0  0  0
 17 18  2  0  0  0  0
 17 19  1  0  0  0  0
 20 21  2  0  0  0  0
 20 22  1  0  0  0  0
M  END
>  <CHROM.1>
55.53680271,-103.63799788,169.25346099,46.46690356,-1.72638696,-4.74532488
13.01438852,-2.25670375,0.67996372,1.79495297

>  <Name>
ligand

>  <RI>
0

>  <Rbt.Current_Directory>
/home/itssahil/PROJECTS/Mol_Feturizer/New_Systems/rnas/4LVY

>  <Rbt.Executable>
rbdock ($Id: //depot/dev/client3/rdock/2013.1/src/exe/rbdock.cxx#4 $)

>  <Rbt.Library>
libRbt.so (2013.1, Build901 2013/11/27)

>  <Rbt.Parameter_File>
/export/apps/rDock/src/rDock_2013.1_src/data/scripts/dock_solv.prm

>  <Rbt.Receptor>
prm/blind_docking_20.prm

>  <SCORE>
-5.61949

>  <SCORE.INTER>
-7.60608

>  <SCORE.INTER.CONST>
1

>  <SCORE.INTER.POLAR>
0

>  <SCORE.INTER.ROT>
4

>  <SCORE.INTER.SOLV>
11.1207

>  <SCORE.INTER.VDW>
-15.0443

>  <SCORE.INTER.norm>
-0.345731

>  <SCORE.INTRA>
0.0357965

>  <SCORE.INTRA.DIHEDRAL>
0.43729

>  <SCORE.INTRA.DIHEDRAL.0>
6.18831

>  <SCORE.INTRA.POLAR>
0

>  <SCORE.INTRA.POLAR.0>
0

>  <SCORE.INTRA.REPUL>
0

>  <SCORE.INTRA.REPUL.0>
0

>  <SCORE.INTRA.SOLV>
-0.00115359

>  <SCORE.INTRA.SOLV.lig_0>
-44.3465

>  <SCORE.INTRA.VDW>
-0.182271

>  <SCORE.INTRA.VDW.0>
-0.778272

>  <SCORE.INTRA.norm>
0.00162711

>  <SCORE.RESTR>
1.9508

>  <SCORE.RESTR.CAVITY>
1.9508

>  <SCORE.RESTR.norm>
0.0886726

>  <SCORE.SYSTEM>
0

>  <SCORE.SYSTEM.CONST>
0

>  <SCORE.SYSTEM.DIHEDRAL>
0

>  <SCORE.SYSTEM.SOLV>
0

>  <SCORE.SYSTEM.norm>
0

>  <SCORE.heavy>
22

>  <SCORE.norm>
-0.255431

>  <RMSD>
14.107

$$$$
ligand
 OpenBabel11021811503D
libRbt.so/2013.1/901 2013/11/27
 22 24  0  0  0  0  0  0  0  0999 V2000
   -5.6281   -5.8671   20.5109 C   0  0  0  0  0  0  0  0  0  0  0  0
   -6.1207   -5.1744   21.6370 C   0  0  0  0  0  0  0  0  0  0  0  0
   -7.4351   -5.3822   22.0464 C   0  0  0  0  0  0  0  0  0  0  0  0
   -8.2495   -6.2774   21.3312 C   0  0  0  0  0  0  0  0  0  0  0  0
   -7.7591   -6.9664   20.1947 C   0  0  0  0  0  0  0  0  0  0  0  0
   -6.4485   -6.7573   19.7876 C   0  0  0  0  0  0  0  0  0  0  0  0
   -4.1814   -5.6349   20.0340 C   0  0  0  0  0  0  0  0  0  0  0  0
   -4.0434   -4.7518   18.7688 C   0  0  0  0  0  0  0  0  0  0  0  0
   -2.6625   -4.1285   18.6013 C   0  0  0  0  0  0  0  0  0  0  0  0
   -2.0278   -3.3627   19.5840 C   0  0  0  0  0  0  0  0  0  0  0  0
   -0.8238   -2.9902   19.0764 N   0  0  0  0  0  0  0  0  0  0  0  0
   -0.6218   -3.4712   17.7981 C   0  0  0  0  0  0  0  0  0  0  0  0
   -1.7569   -4.1981   17.4568 C   0  0  0  0  0  0  0  0  0  0  0  0
   -1.7801   -4.8115   16.1470 C   0  0  0  0  0  0  0  0  0  0  0  0
   -2.8811   -5.5609   15.7416 O   0  0  0  0  0  0  0  0  0  0  0  0
   -0.6925   -4.6395   15.3011 N   0  0  0  0  0  0  0  0  0  0  0  0
    0.4059   -3.9250   15.6829 C   0  0  0  0  0  0  0  0  0  0  0  0
    0.4614   -3.3420   16.8906 N   0  0  0  0  0  0  0  0  0  0  0  0
    1.5372   -3.7852   14.7603 N   0  0  0  0  0  0  0  0  0  0  0  0
   -9.6685   -6.4792   21.7927 C   0  0  0  0  0  0  0  0  0  0  0  0
  -10.5743   -5.7918   21.3246 O   0  0  0  0  0  0  0  0  0  0  0  0
   -9.9391   -7.4805   22.7898 N   0  0  0  0  0  0  0  0  0  0  0  0
  1  2  2  0  0  0  0
  1  6  1  0  0  0  0
  1  7  1  0  0  0  0
  2  3  1  0  0  0  0
  3  4  2  0  0  0  0
  4  5  1  0  0  0  0
  4 20  1  0  0  0  0
  5  6  2  0  0  0  0
  7  8  1  0  0  0  0
  8  9  1  0  0  0  0
  9 10  2  0  0  0  0
  9 13  1  0  0  0  0
 10 11  1  0  0  0  0
 11 12  1  0  0  0  0
 12 13  2  0  0  0  0
 12 18  1  0  0  0  0
 13 14  1  0  0  0  0
 14 15  1  0  0  0  0
 14 16  2  0  0  0  0
 16 17  1  0  0  0  0
 17 18  2  0  0  0  0
 17 19  1  0  0  0  0
 20 21  2  0  0  0  0
 20 22  1  0  0  0  0
M  END
>  <CHROM.1>
-104.13560668,91.92240498,159.29339082,-53.97832956,-4.12534511,-5.03494304
18.91838074,-2.75344728,-0.46186074,-1.96064084

>  <Name>
ligand

>  <RI>
0

>  <Rbt.Current_Directory>
/home/itssahil/PROJECTS/Mol_Feturizer/New_Systems/rnas/4LVY

>  <Rbt.Executable>
rbdock ($Id: //depot/dev/client3/rdock/2013.1/src/exe/rbdock.cxx#4 $)

>  <Rbt.Library>
libRbt.so (2013.1, Build901 2013/11/27)

>  <Rbt.Parameter_File>
/export/apps/rDock/src/rDock_2013.1_src/data/scripts/dock_solv.prm

>  <Rbt.Receptor>
prm/blind_docking_40.prm

>  <SCORE>
-14.2393

>  <SCORE.INTER>
-14.6623

>  <SCORE.INTER.CONST>
1

>  <SCORE.INTER.POLAR>
0

>  <SCORE.INTER.ROT>
4

>  <SCORE.INTER.SOLV>
8.04396

>  <SCORE.INTER.VDW>
-18.7229

>  <SCORE.INTER.norm>
-0.666469

>  <SCORE.INTRA>
0.423017

>  <SCORE.INTRA.DIHEDRAL>
1.63324

>  <SCORE.INTRA.DIHEDRAL.0>
6.18831

>  <SCORE.INTRA.POLAR>
0

>  <SCORE.INTRA.POLAR.0>
0

>  <SCORE.INTRA.REPUL>
0

>  <SCORE.INTRA.REPUL.0>
0

>  <SCORE.INTRA.SOLV>
0.0191261

>  <SCORE.INTRA.SOLV.lig_0>
-44.3465

>  <SCORE.INTRA.VDW>
-0.403164

>  <SCORE.INTRA.VDW.0>
-0.778272

>  <SCORE.INTRA.norm>
0.019228

>  <SCORE.RESTR>
0

>  <SCORE.RESTR.CAVITY>
0

>  <SCORE.RESTR.norm>
0

>  <SCORE.SYSTEM>
0

>  <SCORE.SYSTEM.CONST>
0

>  <SCORE.SYSTEM.DIHEDRAL>
0

>  <SCORE.SYSTEM.SOLV>
0

>  <SCORE.SYSTEM.norm>
0

>  <SCORE.heavy>
22

>  <SCORE.norm>
-0.647241

>  <RMSD>
14.134

$$$$
ligand
 OpenBabel11021811503D
libRbt.so/2013.1/901 2013/11/27
 22 24  0  0  0  0  0  0  0  0999 V2000
   -4.5135   -5.1638   20.3846 C   0  0  0  0  0  0  0  0  0  0  0  0
   -4.4527   -4.0432   19.5295 C   0  0  0  0  0  0  0  0  0  0  0  0
   -3.2907   -3.8003   18.8022 C   0  0  0  0  0  0  0  0  0  0  0  0
   -2.1973   -4.6744   18.9322 C   0  0  0  0  0  0  0  0  0  0  0  0
   -2.2536   -5.7946   19.7976 C   0  0  0  0  0  0  0  0  0  0  0  0
   -3.4129   -6.0346   20.5225 C   0  0  0  0  0  0  0  0  0  0  0  0
   -5.7856   -5.4366   21.2100 C   0  0  0  0  0  0  0  0  0  0  0  0
   -5.5785   -6.3384   22.4525 C   0  0  0  0  0  0  0  0  0  0  0  0
   -5.7292   -7.8275   22.1637 C   0  0  0  0  0  0  0  0  0  0  0  0
   -4.7635   -8.5964   21.5071 C   0  0  0  0  0  0  0  0  0  0  0  0
   -5.2477   -9.8642   21.4412 N   0  0  0  0  0  0  0  0  0  0  0  0
   -6.4940   -9.9809   22.0238 C   0  0  0  0  0  0  0  0  0  0  0  0
   -6.8380   -8.7190   22.4960 C   0  0  0  0  0  0  0  0  0  0  0  0
   -8.1169   -8.5873   23.1588 C   0  0  0  0  0  0  0  0  0  0  0  0
   -8.5227   -7.3551   23.6639 O   0  0  0  0  0  0  0  0  0  0  0  0
   -8.9330   -9.7040   23.2805 N   0  0  0  0  0  0  0  0  0  0  0  0
   -8.5492  -10.9263   22.8100 C   0  0  0  0  0  0  0  0  0  0  0  0
   -7.3697  -11.0850   22.1895 N   0  0  0  0  0  0  0  0  0  0  0  0
   -9.4390  -12.0800   22.9768 N   0  0  0  0  0  0  0  0  0  0  0  0
   -0.9512   -4.3850   18.1381 C   0  0  0  0  0  0  0  0  0  0  0  0
    0.0907   -4.0764   18.7136 O   0  0  0  0  0  0  0  0  0  0  0  0
   -1.0066   -4.4700   16.7029 N   0  0  0  0  0  0  0  0  0  0  0  0
  1  2  2  0  0  0  0
  1  6  1  0  0  0  0
  1  7  1  0  0  0  0
  2  3  1  0  0  0  0
  3  4  2  0  0  0  0
  4  5  1  0  0  0  0
  4 20  1  0  0  0  0
  5  6  2  0  0  0  0
  7  8  1  0  0  0  0
  8  9  1  0  0  0  0
  9 10  2  0  0  0  0
  9 13  1  0  0  0  0
 10 11  1  0  0  0  0
 11 12  1  0  0  0  0
 12 13  2  0  0  0  0
 12 18  1  0  0  0  0
 13 14  1  0  0  0  0
 14 15  1  0  0  0  0
 14 16  2  0  0  0  0
 16 17  1  0  0  0  0
 17 18  2  0  0  0  0
 17 19  1  0  0  0  0
 20 21  2  0  0  0  0
 20 22  1  0  0  0  0
M  END
>  <CHROM.1>
-158.73753953,113.83067526,-88.80341078,75.55906246,-5.17732050,-7.24105426
21.06569558,0.62421750,0.59876951,0.01611981

>  <Name>
ligand

>  <RI>
0

>  <Rbt.Current_Directory>
/home/itssahil/PROJECTS/Mol_Feturizer/New_Systems/rnas/4LVY

>  <Rbt.Executable>
rbdock ($Id: //depot/dev/client3/rdock/2013.1/src/exe/rbdock.cxx#4 $)

>  <Rbt.Library>
libRbt.so (2013.1, Build901 2013/11/27)

>  <Rbt.Parameter_File>
/export/apps/rDock/src/rDock_2013.1_src/data/scripts/dock_solv.prm

>  <Rbt.Receptor>
prm/blind_docking_100.prm

>  <SCORE>
-9.79962

>  <SCORE.INTER>
-11.0683

>  <SCORE.INTER.CONST>
1

>  <SCORE.INTER.POLAR>
0

>  <SCORE.INTER.ROT>
4

>  <SCORE.INTER.SOLV>
9.63735

>  <SCORE.INTER.VDW>
-16.858

>  <SCORE.INTER.norm>
-0.503103

>  <SCORE.INTRA>
1.26864

>  <SCORE.INTRA.DIHEDRAL>
2.98602

>  <SCORE.INTRA.DIHEDRAL.0>
6.18831

>  <SCORE.INTRA.POLAR>
0

>  <SCORE.INTRA.POLAR.0>
0

>  <SCORE.INTRA.REPUL>
0

>  <SCORE.INTRA.REPUL.0>
0

>  <SCORE.INTRA.SOLV>
0.0935507

>  <SCORE.INTRA.SOLV.lig_0>
-44.3465

>  <SCORE.INTRA.VDW>
-0.271145

>  <SCORE.INTRA.VDW.0>
-0.778272

>  <SCORE.INTRA.norm>
0.0576655

>  <SCORE.RESTR>
0

>  <SCORE.RESTR.CAVITY>
0

>  <SCORE.RESTR.norm>
0

>  <SCORE.SYSTEM>
0

>  <SCORE.SYSTEM.CONST>
0

>  <SCORE.SYSTEM.DIHEDRAL>
0

>  <SCORE.SYSTEM.SOLV>
0

>  <SCORE.SYSTEM.norm>
0

>  <SCORE.heavy>
22

>  <SCORE.norm>
-0.445437

>  <RMSD>
14.147

$$$$
ligand
 OpenBabel11021811503D
libRbt.so/2013.1/901 2013/11/27
 22 24  0  0  0  0  0  0  0  0999 V2000
   -1.8167   -4.7252   10.6000 C   0  0  0  0  0  0  0  0  0  0  0  0
   -3.0556   -4.0614   10.4760 C   0  0  0  0  0  0  0  0  0  0  0  0
   -4.0805   -4.6575    9.7463 C   0  0  0  0  0  0  0  0  0  0  0  0
   -3.8644   -5.9095    9.1447 C   0  0  0  0  0  0  0  0  0  0  0  0
   -2.6180   -6.5727    9.2605 C   0  0  0  0  0  0  0  0  0  0  0  0
   -1.5969   -5.9765    9.9879 C   0  0  0  0  0  0  0  0  0  0  0  0
   -0.6663   -4.0710   11.3891 C   0  0  0  0  0  0  0  0  0  0  0  0
   -1.1105   -3.0654   12.4805 C   0  0  0  0  0  0  0  0  0  0  0  0
   -1.4413   -3.7163   13.8186 C   0  0  0  0  0  0  0  0  0  0  0  0
   -2.7262   -4.1211   14.1928 C   0  0  0  0  0  0  0  0  0  0  0  0
   -2.6236   -4.6564   15.4374 N   0  0  0  0  0  0  0  0  0  0  0  0
   -1.3285   -4.6293   15.9151 C   0  0  0  0  0  0  0  0  0  0  0  0
   -0.5457   -4.0455   14.9252 C   0  0  0  0  0  0  0  0  0  0  0  0
    0.8686   -3.9086   15.1957 C   0  0  0  0  0  0  0  0  0  0  0  0
    1.7137   -3.3407   14.2463 O   0  0  0  0  0  0  0  0  0  0  0  0
    1.3690   -4.3478   16.4142 N   0  0  0  0  0  0  0  0  0  0  0  0
    0.5638   -4.9246   17.3531 C   0  0  0  0  0  0  0  0  0  0  0  0
   -0.7531   -5.0672   17.1360 N   0  0  0  0  0  0  0  0  0  0  0  0
    1.1418   -5.3879   18.6188 N   0  0  0  0  0  0  0  0  0  0  0  0
   -4.9883   -6.5287    8.3570 C   0  0  0  0  0  0  0  0  0  0  0  0
   -5.7171   -7.3712    8.8777 O   0  0  0  0  0  0  0  0  0  0  0  0
   -5.1858   -6.1220    6.9911 N   0  0  0  0  0  0  0  0  0  0  0  0
  1  2  2  0  0  0  0
  1  6  1  0  0  0  0
  1  7  1  0  0  0  0
  2  3  1  0  0  0  0
  3  4  2  0  0  0  0
  4  5  1  0  0  0  0
  4 20  1  0  0  0  0
  5  6  2  0  0  0  0
  7  8  1  0  0  0  0
  8  9  1  0  0  0  0
  9 10  2  0  0  0  0
  9 13  1  0  0  0  0
 10 11  1  0  0  0  0
 11 12  1  0  0  0  0
 12 13  2  0  0  0  0
 12 18  1  0  0  0  0
 13 14  1  0  0  0  0
 14 15  1  0  0  0  0
 14 16  2  0  0  0  0
 16 17  1  0  0  0  0
 17 18  2  0  0  0  0
 17 19  1  0  0  0  0
 20 21  2  0  0  0  0
 20 22  1  0  0  0  0
M  END
>  <CHROM.1>
25.73163913,-97.47293988,85.56225366,-92.94136558,-1.72445064,-4.87658530
12.78372705,-2.19379292,0.52592136,1.71343258

>  <Name>
ligand

>  <RI>
0

>  <Rbt.Current_Directory>
/home/itssahil/PROJECTS/Mol_Feturizer/New_Systems/rnas/4LVY

>  <Rbt.Executable>
rbdock ($Id: //depot/dev/client3/rdock/2013.1/src/exe/rbdock.cxx#4 $)

>  <Rbt.Library>
libRbt.so (2013.1, Build901 2013/11/27)

>  <Rbt.Parameter_File>
/export/apps/rDock/src/rDock_2013.1_src/data/scripts/dock_solv.prm

>  <Rbt.Receptor>
prm/blind_docking_20.prm

>  <SCORE>
-4.10319

>  <SCORE.INTER>
-6.10511

>  <SCORE.INTER.CONST>
1

>  <SCORE.INTER.POLAR>
0

>  <SCORE.INTER.ROT>
4

>  <SCORE.INTER.SOLV>
9.45994

>  <SCORE.INTER.VDW>
-13.4901

>  <SCORE.INTER.norm>
-0.277505

>  <SCORE.INTRA>
0.718336

>  <SCORE.INTRA.DIHEDRAL>
2.25436

>  <SCORE.INTRA.DIHEDRAL.0>
6.18831

>  <SCORE.INTRA.POLAR>
0

>  <SCORE.INTRA.POLAR.0>
0

>  <SCORE.INTRA.REPUL>
0

>  <SCORE.INTRA.REPUL.0>
0

>  <SCORE.INTRA.SOLV>
0.167119

>  <SCORE.INTRA.SOLV.lig_0>
-44.3465

>  <SCORE.INTRA.VDW>
-0.492404

>  <SCORE.INTRA.VDW.0>
-0.778272

>  <SCORE.INTRA.norm>
0.0326517

>  <SCORE.RESTR>
1.28358

>  <SCORE.RESTR.CAVITY>
1.28358

>  <SCORE.RESTR.norm>
0.0583445

>  <SCORE.SYSTEM>
0

>  <SCORE.SYSTEM.CONST>
0

>  <SCORE.SYSTEM.DIHEDRAL>
0

>  <SCORE.SYSTEM.SOLV>
0

>  <SCORE.SYSTEM.norm>
0

>  <SCORE.heavy>
22

>  <SCORE.norm>
-0.186509

>  <RMSD>
14.169

$$$$
ligand
 OpenBabel11021811503D
libRbt.so/2013.1/901 2013/11/27
 22 24  0  0  0  0  0  0  0  0999 V2000
   -2.1588   -4.8750   10.7127 C   0  0  0  0  0  0  0  0  0  0  0  0
   -3.2884   -4.1031   10.3682 C   0  0  0  0  0  0  0  0  0  0  0  0
   -4.2757   -4.6593    9.5593 C   0  0  0  0  0  0  0  0  0  0  0  0
   -4.1306   -5.9795    9.0986 C   0  0  0  0  0  0  0  0  0  0  0  0
   -2.9923   -6.7524    9.4359 C   0  0  0  0  0  0  0  0  0  0  0  0
   -2.0087   -6.1958   10.2421 C   0  0  0  0  0  0  0  0  0  0  0  0
   -1.0487   -4.2683   11.5924 C   0  0  0  0  0  0  0  0  0  0  0  0
   -1.5159   -3.7655   12.9812 C   0  0  0  0  0  0  0  0  0  0  0  0
   -0.3725   -3.4681   13.9443 C   0  0  0  0  0  0  0  0  0  0  0  0
    0.6506   -2.5520   13.6814 C   0  0  0  0  0  0  0  0  0  0  0  0
    1.4712   -2.5567   14.7643 N   0  0  0  0  0  0  0  0  0  0  0  0
    1.0452   -3.4339   15.7417 C   0  0  0  0  0  0  0  0  0  0  0  0
   -0.1178   -4.0312   15.2682 C   0  0  0  0  0  0  0  0  0  0  0  0
   -0.7615   -4.9991   16.1291 C   0  0  0  0  0  0  0  0  0  0  0  0
   -1.9341   -5.6303   15.7230 O   0  0  0  0  0  0  0  0  0  0  0  0
   -0.1926   -5.2910   17.3616 N   0  0  0  0  0  0  0  0  0  0  0  0
    0.9459   -4.6719   17.7896 C   0  0  0  0  0  0  0  0  0  0  0  0
    1.5700   -3.7691   17.0167 N   0  0  0  0  0  0  0  0  0  0  0  0
    1.4999   -5.0017   19.1067 N   0  0  0  0  0  0  0  0  0  0  0  0
   -5.2107   -6.5541    8.2208 C   0  0  0  0  0  0  0  0  0  0  0  0
   -5.9213   -7.4686    8.6339 O   0  0  0  0  0  0  0  0  0  0  0  0
   -5.3878   -6.0194    6.8969 N   0  0  0  0  0  0  0  0  0  0  0  0
  1  2  2  0  0  0  0
  1  6  1  0  0  0  0
  1  7  1  0  0  0  0
  2  3  1  0  0  0  0
  3  4  2  0  0  0  0
  4  5  1  0  0  0  0
  4 20  1  0  0  0  0
  5  6  2  0  0  0  0
  7  8  1  0  0  0  0
  8  9  1  0  0  0  0
  9 10  2  0  0  0  0
  9 13  1  0  0  0  0
 10 11  1  0  0  0  0
 11 12  1  0  0  0  0
 12 13  2  0  0  0  0
 12 18  1  0  0  0  0
 13 14  1  0  0  0  0
 14 15  1  0  0  0  0
 14 16  2  0  0  0  0
 16 17  1  0  0  0  0
 17 18  2  0  0  0  0
 17 19  1  0  0  0  0
 20 21  2  0  0  0  0
 20 22  1  0  0  0  0
M  END
>  <CHROM.1>
58.35510928,-112.39592634,166.83350293,58.05530632,-1.56715746,-4.84694917
12.96516177,-2.42802446,0.78791826,2.02447363

>  <Name>
ligand

>  <RI>
0

>  <Rbt.Current_Directory>
/home/itssahil/PROJECTS/Mol_Feturizer/New_Systems/rnas/4LVY

>  <Rbt.Executable>
rbdock ($Id: //depot/dev/client3/rdock/2013.1/src/exe/rbdock.cxx#4 $)

>  <Rbt.Library>
libRbt.so (2013.1, Build901 2013/11/27)

>  <Rbt.Parameter_File>
/export/apps/rDock/src/rDock_2013.1_src/data/scripts/dock_solv.prm

>  <Rbt.Receptor>
prm/blind_docking_20.prm

>  <SCORE>
-4.97058

>  <SCORE.INTER>
-6.63396

>  <SCORE.INTER.CONST>
1

>  <SCORE.INTER.POLAR>
0

>  <SCORE.INTER.ROT>
4

>  <SCORE.INTER.SOLV>
10.0196

>  <SCORE.INTER.VDW>
-14.0292

>  <SCORE.INTER.norm>
-0.301544

>  <SCORE.INTRA>
0.0481351

>  <SCORE.INTRA.DIHEDRAL>
0.699338

>  <SCORE.INTRA.DIHEDRAL.0>
6.18831

>  <SCORE.INTRA.POLAR>
0

>  <SCORE.INTRA.POLAR.0>
0

>  <SCORE.INTRA.REPUL>
0

>  <SCORE.INTRA.REPUL.0>
0

>  <SCORE.INTRA.SOLV>
0.0333526

>  <SCORE.INTRA.SOLV.lig_0>
-44.3465

>  <SCORE.INTRA.VDW>
-0.31821

>  <SCORE.INTRA.VDW.0>
-0.778272

>  <SCORE.INTRA.norm>
0.00218796

>  <SCORE.RESTR>
1.61524

>  <SCORE.RESTR.CAVITY>
1.61524

>  <SCORE.RESTR.norm>
0.0734201

>  <SCORE.SYSTEM>
0

>  <SCORE.SYSTEM.CONST>
0

>  <SCORE.SYSTEM.DIHEDRAL>
0

>  <SCORE.SYSTEM.SOLV>
0

>  <SCORE.SYSTEM.norm>
0

>  <SCORE.heavy>
22

>  <SCORE.norm>
-0.225936

>  <RMSD>
14.191

$$$$
ligand
 OpenBabel11021811503D
libRbt.so/2013.1/901 2013/11/27
 22 24  0  0  0  0  0  0  0  0999 V2000
   -2.1487   -4.8858   10.5662 C   0  0  0  0  0  0  0  0  0  0  0  0
   -2.8697   -4.0548    9.6829 C   0  0  0  0  0  0  0  0  0  0  0  0
   -3.8655   -4.6086    8.8827 C   0  0  0  0  0  0  0  0  0  0  0  0
   -4.1354   -5.9856    8.9673 C   0  0  0  0  0  0  0  0  0  0  0  0
   -3.4057   -6.8227    9.8469 C   0  0  0  0  0  0  0  0  0  0  0  0
   -2.4128   -6.2688   10.6434 C   0  0  0  0  0  0  0  0  0  0  0  0
   -1.0314   -4.2918   11.4455 C   0  0  0  0  0  0  0  0  0  0  0  0
   -1.5210   -3.3783   12.5969 C   0  0  0  0  0  0  0  0  0  0  0  0
   -0.5724   -3.3296   13.7891 C   0  0  0  0  0  0  0  0  0  0  0  0
    0.6919   -2.7334   13.7563 C   0  0  0  0  0  0  0  0  0  0  0  0
    1.2301   -2.8830   14.9949 N   0  0  0  0  0  0  0  0  0  0  0  0
    0.3845   -3.5521   15.8570 C   0  0  0  0  0  0  0  0  0  0  0  0
   -0.7680   -3.8526   15.1393 C   0  0  0  0  0  0  0  0  0  0  0  0
   -1.8177   -4.5594   15.8399 C   0  0  0  0  0  0  0  0  0  0  0  0
   -3.0026   -4.8856   15.1859 O   0  0  0  0  0  0  0  0  0  0  0  0
   -1.6253   -4.9097   17.1696 N   0  0  0  0  0  0  0  0  0  0  0  0
   -0.4803   -4.5848   17.8375 C   0  0  0  0  0  0  0  0  0  0  0  0
    0.5146   -3.9297   17.2187 N   0  0  0  0  0  0  0  0  0  0  0  0
   -0.3302   -4.9622   19.2466 N   0  0  0  0  0  0  0  0  0  0  0  0
   -5.2138   -6.5590    8.0867 C   0  0  0  0  0  0  0  0  0  0  0  0
   -5.2880   -6.2274    6.9049 O   0  0  0  0  0  0  0  0  0  0  0  0
   -6.1521   -7.4904    8.6544 N   0  0  0  0  0  0  0  0  0  0  0  0
  1  2  2  0  0  0  0
  1  6  1  0  0  0  0
  1  7  1  0  0  0  0
  2  3  1  0  0  0  0
  3  4  2  0  0  0  0
  4  5  1  0  0  0  0
  4 20  1  0  0  0  0
  5  6  2  0  0  0  0
  7  8  1  0  0  0  0
  8  9  1  0  0  0  0
  9 10  2  0  0  0  0
  9 13  1  0  0  0  0
 10 11  1  0  0  0  0
 11 12  1  0  0  0  0
 12 13  2  0  0  0  0
 12 18  1  0  0  0  0
 13 14  1  0  0  0  0
 14 15  1  0  0  0  0
 14 16  2  0  0  0  0
 16 17  1  0  0  0  0
 17 18  2  0  0  0  0
 17 19  1  0  0  0  0
 20 21  2  0  0  0  0
 20 22  1  0  0  0  0
M  END
>  <CHROM.1>
71.03620767,43.76773244,153.07384732,68.61172907,-2.01666356,-4.77327292
12.86265609,-2.18463697,0.68050718,1.74400088

>  <Name>
ligand

>  <RI>
0

>  <Rbt.Current_Directory>
/home/itssahil/PROJECTS/Mol_Feturizer/New_Systems/rnas/4LVY

>  <Rbt.Executable>
rbdock ($Id: //depot/dev/client3/rdock/2013.1/src/exe/rbdock.cxx#4 $)

>  <Rbt.Library>
libRbt.so (2013.1, Build901 2013/11/27)

>  <Rbt.Parameter_File>
/export/apps/rDock/src/rDock_2013.1_src/data/scripts/dock_solv.prm

>  <Rbt.Receptor>
prm/blind_docking_20.prm

>  <SCORE>
-3.6585

>  <SCORE.INTER>
-5.92064

>  <SCORE.INTER.CONST>
1

>  <SCORE.INTER.POLAR>
0

>  <SCORE.INTER.ROT>
4

>  <SCORE.INTER.SOLV>
9.46051

>  <SCORE.INTER.VDW>
-13.3673

>  <SCORE.INTER.norm>
-0.26912

>  <SCORE.INTRA>
0.925445

>  <SCORE.INTRA.DIHEDRAL>
2.62333

>  <SCORE.INTRA.DIHEDRAL.0>
6.18831

>  <SCORE.INTRA.POLAR>
0

>  <SCORE.INTRA.POLAR.0>
0

>  <SCORE.INTRA.REPUL>
0

>  <SCORE.INTRA.REPUL.0>
0

>  <SCORE.INTRA.SOLV>
0.0722345

>  <SCORE.INTRA.SOLV.lig_0>
-44.3465

>  <SCORE.INTRA.VDW>
-0.422338

>  <SCORE.INTRA.VDW.0>
-0.778272

>  <SCORE.INTRA.norm>
0.0420657

>  <SCORE.RESTR>
1.33669

>  <SCORE.RESTR.CAVITY>
1.33669

>  <SCORE.RESTR.norm>
0.0607588

>  <SCORE.SYSTEM>
0

>  <SCORE.SYSTEM.CONST>
0

>  <SCORE.SYSTEM.DIHEDRAL>
0

>  <SCORE.SYSTEM.SOLV>
0

>  <SCORE.SYSTEM.norm>
0

>  <SCORE.heavy>
22

>  <SCORE.norm>
-0.166295

>  <RMSD>
14.212

$$$$
ligand
 OpenBabel11021811503D
libRbt.so/2013.1/901 2013/11/27
 22 24  0  0  0  0  0  0  0  0999 V2000
   -2.2085   -4.9110   10.6979 C   0  0  0  0  0  0  0  0  0  0  0  0
   -2.1503   -6.2708   10.3263 C   0  0  0  0  0  0  0  0  0  0  0  0
   -3.1561   -6.8043    9.5249 C   0  0  0  0  0  0  0  0  0  0  0  0
   -4.2129   -5.9802    9.1002 C   0  0  0  0  0  0  0  0  0  0  0  0
   -4.2776   -4.6171    9.4804 C   0  0  0  0  0  0  0  0  0  0  0  0
   -3.2741   -4.0872   10.2800 C   0  0  0  0  0  0  0  0  0  0  0  0
   -1.1129   -4.3097   11.5990 C   0  0  0  0  0  0  0  0  0  0  0  0
   -1.5799   -3.9156   13.0226 C   0  0  0  0  0  0  0  0  0  0  0  0
   -0.4372   -3.5795   13.9738 C   0  0  0  0  0  0  0  0  0  0  0  0
    0.5638   -2.6452   13.6913 C   0  0  0  0  0  0  0  0  0  0  0  0
    1.3911   -2.6165   14.7687 N   0  0  0  0  0  0  0  0  0  0  0  0
    0.9907   -3.4888   15.7611 C   0  0  0  0  0  0  0  0  0  0  0  0
   -0.1619   -4.1181   15.3038 C   0  0  0  0  0  0  0  0  0  0  0  0
   -0.7788   -5.0875   16.1825 C   0  0  0  0  0  0  0  0  0  0  0  0
   -1.9397   -5.7499   15.7931 O   0  0  0  0  0  0  0  0  0  0  0  0
   -0.1958   -5.3492   17.4152 N   0  0  0  0  0  0  0  0  0  0  0  0
    0.9315   -4.6993   17.8268 C   0  0  0  0  0  0  0  0  0  0  0  0
    1.5306   -3.7942   17.0373 N   0  0  0  0  0  0  0  0  0  0  0  0
    1.5009   -4.9981   19.1448 N   0  0  0  0  0  0  0  0  0  0  0  0
   -5.2900   -6.5844    8.2387 C   0  0  0  0  0  0  0  0  0  0  0  0
   -6.0089   -7.4773    8.6836 O   0  0  0  0  0  0  0  0  0  0  0  0
   -5.4544   -6.1034    6.8927 N   0  0  0  0  0  0  0  0  0  0  0  0
  1  2  2  0  0  0  0
  1  6  1  0  0  0  0
  1  7  1  0  0  0  0
  2  3  1  0  0  0  0
  3  4  2  0  0  0  0
  4  5  1  0  0  0  0
  4 20  1  0  0  0  0
  5  6  2  0  0  0  0
  7  8  1  0  0  0  0
  8  9  1  0  0  0  0
  9 10  2  0  0  0  0
  9 13  1  0  0  0  0
 10 11  1  0  0  0  0
 11 12  1  0  0  0  0
 12 13  2  0  0  0  0
 12 18  1  0  0  0  0
 13 14  1  0  0  0  0
 14 15  1  0  0  0  0
 14 16  2  0  0  0  0
 16 17  1  0  0  0  0
 17 18  2  0  0  0  0
 17 19  1  0  0  0  0
 20 21  2  0  0  0  0
 20 22  1  0  0  0  0
M  END
>  <CHROM.1>
-111.54348500,63.91954892,168.83159274,53.02487177,-1.62085344,-4.89953043
12.98791543,-2.43337012,0.78938640,2.03595575

>  <Name>
ligand

>  <RI>
0

>  <Rbt.Current_Directory>
/home/itssahil/PROJECTS/Mol_Feturizer/New_Systems/rnas/4LVY

>  <Rbt.Executable>
rbdock ($Id: //depot/dev/client3/rdock/2013.1/src/exe/rbdock.cxx#4 $)

>  <Rbt.Library>
libRbt.so (2013.1, Build901 2013/11/27)

>  <Rbt.Parameter_File>
/export/apps/rDock/src/rDock_2013.1_src/data/scripts/dock_solv.prm

>  <Rbt.Receptor>
prm/blind_docking_20.prm

>  <SCORE>
-4.58629

>  <SCORE.INTER>
-6.10065

>  <SCORE.INTER.CONST>
1

>  <SCORE.INTER.POLAR>
0

>  <SCORE.INTER.ROT>
4

>  <SCORE.INTER.SOLV>
10.2514

>  <SCORE.INTER.VDW>
-13.7509

>  <SCORE.INTER.norm>
-0.277302

>  <SCORE.INTRA>
-0.0316356

>  <SCORE.INTRA.DIHEDRAL>
0.498539

>  <SCORE.INTRA.DIHEDRAL.0>
6.18831

>  <SCORE.INTRA.POLAR>
0

>  <SCORE.INTRA.POLAR.0>
0

>  <SCORE.INTRA.REPUL>
0

>  <SCORE.INTRA.REPUL.0>
0

>  <SCORE.INTRA.SOLV>
0.0164111

>  <SCORE.INTRA.SOLV.lig_0>
-44.3465

>  <SCORE.INTRA.VDW>
-0.28911

>  <SCORE.INTRA.VDW.0>
-0.778272

>  <SCORE.INTRA.norm>
-0.00143798

>  <SCORE.RESTR>
1.546

>  <SCORE.RESTR.CAVITY>
1.546

>  <SCORE.RESTR.norm>
0.0702726

>  <SCORE.SYSTEM>
0

>  <SCORE.SYSTEM.CONST>
0

>  <SCORE.SYSTEM.DIHEDRAL>
0

>  <SCORE.SYSTEM.SOLV>
0

>  <SCORE.SYSTEM.norm>
0

>  <SCORE.heavy>
22

>  <SCORE.norm>
-0.208468

>  <RMSD>
14.232

$$$$
ligand
 OpenBabel11021811503D
libRbt.so/2013.1/901 2013/11/27
 22 24  0  0  0  0  0  0  0  0999 V2000
   -6.5123   -5.6735   24.2651 C   0  0  0  0  0  0  0  0  0  0  0  0
   -6.9031   -7.0169   24.0827 C   0  0  0  0  0  0  0  0  0  0  0  0
   -7.1068   -7.5006   22.7932 C   0  0  0  0  0  0  0  0  0  0  0  0
   -6.9208   -6.6431   21.6948 C   0  0  0  0  0  0  0  0  0  0  0  0
   -6.5377   -5.2915   21.8770 C   0  0  0  0  0  0  0  0  0  0  0  0
   -6.3357   -4.8108   23.1636 C   0  0  0  0  0  0  0  0  0  0  0  0
   -6.3003   -5.1177   25.6864 C   0  0  0  0  0  0  0  0  0  0  0  0
   -7.5119   -4.3552   26.2783 C   0  0  0  0  0  0  0  0  0  0  0  0
   -7.5054   -4.2767   27.8006 C   0  0  0  0  0  0  0  0  0  0  0  0
   -8.5351   -4.7639   28.6113 C   0  0  0  0  0  0  0  0  0  0  0  0
   -8.1718   -4.5211   29.8978 N   0  0  0  0  0  0  0  0  0  0  0  0
   -6.9454   -3.8934   29.9871 C   0  0  0  0  0  0  0  0  0  0  0  0
   -6.4854   -3.7202   28.6864 C   0  0  0  0  0  0  0  0  0  0  0  0
   -5.1998   -3.0786   28.5197 C   0  0  0  0  0  0  0  0  0  0  0  0
   -4.6735   -2.8801   27.2463 O   0  0  0  0  0  0  0  0  0  0  0  0
   -4.5017   -2.6619   29.6454 N   0  0  0  0  0  0  0  0  0  0  0  0
   -4.9883   -2.8620   30.9047 C   0  0  0  0  0  0  0  0  0  0  0  0
   -6.1778   -3.4536   31.0965 N   0  0  0  0  0  0  0  0  0  0  0  0
   -4.2064   -2.4188   32.0635 N   0  0  0  0  0  0  0  0  0  0  0  0
   -7.1530   -7.1909   20.3116 C   0  0  0  0  0  0  0  0  0  0  0  0
   -8.2330   -7.0151   19.7506 O   0  0  0  0  0  0  0  0  0  0  0  0
   -6.0956   -7.9243   19.6682 N   0  0  0  0  0  0  0  0  0  0  0  0
  1  2  2  0  0  0  0
  1  6  1  0  0  0  0
  1  7  1  0  0  0  0
  2  3  1  0  0  0  0
  3  4  2  0  0  0  0
  4  5  1  0  0  0  0
  4 20  1  0  0  0  0
  5  6  2  0  0  0  0
  7  8  1  0  0  0  0
  8  9  1  0  0  0  0
  9 10  2  0  0  0  0
  9 13  1  0  0  0  0
 10 11  1  0  0  0  0
 11 12  1  0  0  0  0
 12 13  2  0  0  0  0
 12 18  1  0  0  0  0
 13 14  1  0  0  0  0
 14 15  1  0  0  0  0
 14 16  2  0  0  0  0
 16 17  1  0  0  0  0
 17 18  2  0  0  0  0
 17 19  1  0  0  0  0
 20 21  2  0  0  0  0
 20 22  1  0  0  0  0
M  END
>  <CHROM.1>
-96.58216365,96.68920700,158.18402624,-121.86464691,-6.48111798,-4.84382312
26.10151067,-1.71359669,0.46244969,1.25265218

>  <Name>
ligand

>  <RI>
0

>  <Rbt.Current_Directory>
/home/itssahil/PROJECTS/Mol_Feturizer/New_Systems/rnas/4LVY

>  <Rbt.Executable>
rbdock ($Id: //depot/dev/client3/rdock/2013.1/src/exe/rbdock.cxx#4 $)

>  <Rbt.Library>
libRbt.so (2013.1, Build901 2013/11/27)

>  <Rbt.Parameter_File>
/export/apps/rDock/src/rDock_2013.1_src/data/scripts/dock_solv.prm

>  <Rbt.Receptor>
prm/blind_docking_40.prm

>  <SCORE>
-8.59341

>  <SCORE.INTER>
-8.93512

>  <SCORE.INTER.CONST>
1

>  <SCORE.INTER.POLAR>
0

>  <SCORE.INTER.ROT>
4

>  <SCORE.INTER.SOLV>
10.8782

>  <SCORE.INTER.VDW>
-15.8495

>  <SCORE.INTER.norm>
-0.406142

>  <SCORE.INTRA>
0.341705

>  <SCORE.INTRA.DIHEDRAL>
1.76981

>  <SCORE.INTRA.DIHEDRAL.0>
6.18831

>  <SCORE.INTRA.POLAR>
0

>  <SCORE.INTRA.POLAR.0>
0

>  <SCORE.INTRA.REPUL>
0

>  <SCORE.INTRA.REPUL.0>
0

>  <SCORE.INTRA.SOLV>
0.298509

>  <SCORE.INTRA.SOLV.lig_0>
-44.3465

>  <SCORE.INTRA.VDW>
-0.692456

>  <SCORE.INTRA.VDW.0>
-0.778272

>  <SCORE.INTRA.norm>
0.015532

>  <SCORE.RESTR>
0

>  <SCORE.RESTR.CAVITY>
0

>  <SCORE.RESTR.norm>
0

>  <SCORE.SYSTEM>
0

>  <SCORE.SYSTEM.CONST>
0

>  <SCORE.SYSTEM.DIHEDRAL>
0

>  <SCORE.SYSTEM.SOLV>
0

>  <SCORE.SYSTEM.norm>
0

>  <SCORE.heavy>
22

>  <SCORE.norm>
-0.39061

>  <RMSD>
14.252

$$$$
ligand
 OpenBabel11021811503D
libRbt.so/2013.1/901 2013/11/27
 22 24  0  0  0  0  0  0  0  0999 V2000
   -5.9847   -4.9060   25.9090 C   0  0  0  0  0  0  0  0  0  0  0  0
   -6.6230   -4.3022   24.8050 C   0  0  0  0  0  0  0  0  0  0  0  0
   -6.6096   -4.9467   23.5710 C   0  0  0  0  0  0  0  0  0  0  0  0
   -5.9602   -6.1871   23.4449 C   0  0  0  0  0  0  0  0  0  0  0  0
   -5.3108   -6.7899   24.5502 C   0  0  0  0  0  0  0  0  0  0  0  0
   -5.3246   -6.1454   25.7797 C   0  0  0  0  0  0  0  0  0  0  0  0
   -5.9749   -4.1974   27.2771 C   0  0  0  0  0  0  0  0  0  0  0  0
   -6.8951   -2.9551   27.3771 C   0  0  0  0  0  0  0  0  0  0  0  0
   -8.3781   -3.2745   27.2285 C   0  0  0  0  0  0  0  0  0  0  0  0
   -8.8702   -4.5036   26.7790 C   0  0  0  0  0  0  0  0  0  0  0  0
  -10.2257   -4.4116   26.7863 N   0  0  0  0  0  0  0  0  0  0  0  0
  -10.6654   -3.1769   27.2204 C   0  0  0  0  0  0  0  0  0  0  0  0
   -9.5326   -2.4255   27.5130 C   0  0  0  0  0  0  0  0  0  0  0  0
   -9.7399   -1.0779   27.9962 C   0  0  0  0  0  0  0  0  0  0  0  0
   -8.6514   -0.2714   28.3168 O   0  0  0  0  0  0  0  0  0  0  0  0
  -11.0368   -0.6010   28.1323 N   0  0  0  0  0  0  0  0  0  0  0  0
  -12.1201   -1.3787   27.8422 C   0  0  0  0  0  0  0  0  0  0  0  0
  -11.9650   -2.6334   27.3911 N   0  0  0  0  0  0  0  0  0  0  0  0
  -13.4710   -0.8357   28.0175 N   0  0  0  0  0  0  0  0  0  0  0  0
   -5.9566   -6.8595   22.0977 C   0  0  0  0  0  0  0  0  0  0  0  0
   -6.9991   -6.9574   21.4530 O   0  0  0  0  0  0  0  0  0  0  0  0
   -4.7188   -7.3866   21.5876 N   0  0  0  0  0  0  0  0  0  0  0  0
  1  2  2  0  0  0  0
  1  6  1  0  0  0  0
  1  7  1  0  0  0  0
  2  3  1  0  0  0  0
  3  4  2  0  0  0  0
  4  5  1  0  0  0  0
  4 20  1  0  0  0  0
  5  6  2  0  0  0  0
  7  8  1  0  0  0  0
  8  9  1  0  0  0  0
  9 10  2  0  0  0  0
  9 13  1  0  0  0  0
 10 11  1  0  0  0  0
 11 12  1  0  0  0  0
 12 13  2  0  0  0  0
 12 18  1  0  0  0  0
 13 14  1  0  0  0  0
 14 15  1  0  0  0  0
 14 16  2  0  0  0  0
 16 17  1  0  0  0  0
 17 18  2  0  0  0  0
 17 19  1  0  0  0  0
 20 21  2  0  0  0  0
 20 22  1  0  0  0  0
M  END
>  <CHROM.1>
9.89675154,-47.55788745,64.31088261,-12.31842969,-8.26308486,-3.87993617
25.96217585,-0.90194244,-0.19335487,0.91363961

>  <Name>
ligand

>  <RI>
0

>  <Rbt.Current_Directory>
/home/itssahil/PROJECTS/Mol_Feturizer/New_Systems/rnas/4LVY

>  <Rbt.Executable>
rbdock ($Id: //depot/dev/client3/rdock/2013.1/src/exe/rbdock.cxx#4 $)

>  <Rbt.Library>
libRbt.so (2013.1, Build901 2013/11/27)

>  <Rbt.Parameter_File>
/export/apps/rDock/src/rDock_2013.1_src/data/scripts/dock_solv.prm

>  <Rbt.Receptor>
prm/blind_docking_100.prm

>  <SCORE>
-14.035

>  <SCORE.INTER>
-14.4663

>  <SCORE.INTER.CONST>
1

>  <SCORE.INTER.POLAR>
0

>  <SCORE.INTER.ROT>
4

>  <SCORE.INTER.SOLV>
6.43215

>  <SCORE.INTER.VDW>
-18.0549

>  <SCORE.INTER.norm>
-0.65756

>  <SCORE.INTRA>
0.430085

>  <SCORE.INTRA.DIHEDRAL>
0.0985087

>  <SCORE.INTRA.DIHEDRAL.0>
6.18831

>  <SCORE.INTRA.POLAR>
0

>  <SCORE.INTRA.POLAR.0>
0

>  <SCORE.INTRA.REPUL>
0

>  <SCORE.INTRA.REPUL.0>
0

>  <SCORE.INTRA.SOLV>
-0.000738279

>  <SCORE.INTRA.SOLV.lig_0>
-44.3465

>  <SCORE.INTRA.VDW>
0.3812

>  <SCORE.INTRA.VDW.0>
-0.778272

>  <SCORE.INTRA.norm>
0.0195493

>  <SCORE.RESTR>
0.00125978

>  <SCORE.RESTR.CAVITY>
0.00125978

>  <SCORE.RESTR.norm>
5.72626e-05

>  <SCORE.SYSTEM>
0

>  <SCORE.SYSTEM.CONST>
0

>  <SCORE.SYSTEM.DIHEDRAL>
0

>  <SCORE.SYSTEM.SOLV>
0

>  <SCORE.SYSTEM.norm>
0

>  <SCORE.heavy>
22

>  <SCORE.norm>
-0.637954

>  <RMSD>
14.347

$$$$
ligand
 OpenBabel11021811503D
libRbt.so/2013.1/901 2013/11/27
 22 24  0  0  0  0  0  0  0  0999 V2000
   -2.1311   -4.9386   10.3790 C   0  0  0  0  0  0  0  0  0  0  0  0
   -2.8800   -4.1260    9.5018 C   0  0  0  0  0  0  0  0  0  0  0  0
   -3.9367   -4.6840    8.7873 C   0  0  0  0  0  0  0  0  0  0  0  0
   -4.2395   -6.0470    8.9508 C   0  0  0  0  0  0  0  0  0  0  0  0
   -3.4824   -6.8662    9.8241 C   0  0  0  0  0  0  0  0  0  0  0  0
   -2.4287   -6.3081   10.5350 C   0  0  0  0  0  0  0  0  0  0  0  0
   -0.9474   -4.3406   11.1634 C   0  0  0  0  0  0  0  0  0  0  0  0
   -1.3312   -3.6271   12.4838 C   0  0  0  0  0  0  0  0  0  0  0  0
   -0.2487   -3.6917   13.5550 C   0  0  0  0  0  0  0  0  0  0  0  0
    1.0981   -3.3972   13.3219 C   0  0  0  0  0  0  0  0  0  0  0  0
    1.7471   -3.5590   14.5045 N   0  0  0  0  0  0  0  0  0  0  0  0
    0.8971   -3.9484   15.5204 C   0  0  0  0  0  0  0  0  0  0  0  0
   -0.3752   -4.0433   14.9675 C   0  0  0  0  0  0  0  0  0  0  0  0
   -1.4517   -4.4373   15.8497 C   0  0  0  0  0  0  0  0  0  0  0  0
   -2.7528   -4.5445   15.3660 O   0  0  0  0  0  0  0  0  0  0  0  0
   -1.1685   -4.7093   17.1815 N   0  0  0  0  0  0  0  0  0  0  0  0
    0.0954   -4.5932   17.6832 C   0  0  0  0  0  0  0  0  0  0  0  0
    1.1182   -4.2304   16.8934 N   0  0  0  0  0  0  0  0  0  0  0  0
    0.3420   -4.8755   19.1010 N   0  0  0  0  0  0  0  0  0  0  0  0
   -5.3840   -6.6257    8.1619 C   0  0  0  0  0  0  0  0  0  0  0  0
   -5.5499   -6.3036    6.9868 O   0  0  0  0  0  0  0  0  0  0  0  0
   -6.2761   -7.5508    8.8087 N   0  0  0  0  0  0  0  0  0  0  0  0
  1  2  2  0  0  0  0
  1  6  1  0  0  0  0
  1  7  1  0  0  0  0
  2  3  1  0  0  0  0
  3  4  2  0  0  0  0
  4  5  1  0  0  0  0
  4 20  1  0  0  0  0
  5  6  2  0  0  0  0
  7  8  1  0  0  0  0
  8  9  1  0  0  0  0
  9 10  2  0  0  0  0
  9 13  1  0  0  0  0
 10 11  1  0  0  0  0
 11 12  1  0  0  0  0
 12 13  2  0  0  0  0
 12 18  1  0  0  0  0
 13 14  1  0  0  0  0
 14 15  1  0  0  0  0
 14 16  2  0  0  0  0
 16 17  1  0  0  0  0
 17 18  2  0  0  0  0
 17 19  1  0  0  0  0
 20 21  2  0  0  0  0
 20 22  1  0  0  0  0
M  END
>  <CHROM.1>
84.26891890,40.89038116,149.76254338,47.91049150,-1.80984562,-4.88987241
12.74108277,-2.19819165,0.53456296,1.68971964

>  <Name>
ligand

>  <RI>
0

>  <Rbt.Current_Directory>
/home/itssahil/PROJECTS/Mol_Feturizer/New_Systems/rnas/4LVY

>  <Rbt.Executable>
rbdock ($Id: //depot/dev/client3/rdock/2013.1/src/exe/rbdock.cxx#4 $)

>  <Rbt.Library>
libRbt.so (2013.1, Build901 2013/11/27)

>  <Rbt.Parameter_File>
/export/apps/rDock/src/rDock_2013.1_src/data/scripts/dock_solv.prm

>  <Rbt.Receptor>
prm/blind_docking_20.prm

>  <SCORE>
-2.31133

>  <SCORE.INTER>
-4.59791

>  <SCORE.INTER.CONST>
1

>  <SCORE.INTER.POLAR>
0

>  <SCORE.INTER.ROT>
4

>  <SCORE.INTER.SOLV>
10.503

>  <SCORE.INTER.VDW>
-12.8329

>  <SCORE.INTER.norm>
-0.208996

>  <SCORE.INTRA>
1.34819

>  <SCORE.INTRA.DIHEDRAL>
3.15553

>  <SCORE.INTRA.DIHEDRAL.0>
6.18831

>  <SCORE.INTRA.POLAR>
0

>  <SCORE.INTRA.POLAR.0>
0

>  <SCORE.INTRA.REPUL>
0

>  <SCORE.INTRA.REPUL.0>
0

>  <SCORE.INTRA.SOLV>
0.00861755

>  <SCORE.INTRA.SOLV.lig_0>
-44.3465

>  <SCORE.INTRA.VDW>
-0.233878

>  <SCORE.INTRA.VDW.0>
-0.778272

>  <SCORE.INTRA.norm>
0.0612816

>  <SCORE.RESTR>
0.938386

>  <SCORE.RESTR.CAVITY>
0.938386

>  <SCORE.RESTR.norm>
0.0426539

>  <SCORE.SYSTEM>
0

>  <SCORE.SYSTEM.CONST>
0

>  <SCORE.SYSTEM.DIHEDRAL>
0

>  <SCORE.SYSTEM.SOLV>
0

>  <SCORE.SYSTEM.norm>
0

>  <SCORE.heavy>
22

>  <SCORE.norm>
-0.10506

>  <RMSD>
14.367

$$$$
ligand
 OpenBabel11021811503D
libRbt.so/2013.1/901 2013/11/27
 22 24  0  0  0  0  0  0  0  0999 V2000
   -6.0837   -5.5762   25.0857 C   0  0  0  0  0  0  0  0  0  0  0  0
   -6.0593   -6.9773   24.9218 C   0  0  0  0  0  0  0  0  0  0  0  0
   -6.4244   -7.5289   23.6967 C   0  0  0  0  0  0  0  0  0  0  0  0
   -6.8118   -6.6815   22.6441 C   0  0  0  0  0  0  0  0  0  0  0  0
   -6.8458   -5.2750   22.8102 C   0  0  0  0  0  0  0  0  0  0  0  0
   -6.4821   -4.7270   24.0327 C   0  0  0  0  0  0  0  0  0  0  0  0
   -5.6998   -4.9509   26.4406 C   0  0  0  0  0  0  0  0  0  0  0  0
   -6.3251   -3.5615   26.7206 C   0  0  0  0  0  0  0  0  0  0  0  0
   -7.8454   -3.5819   26.8300 C   0  0  0  0  0  0  0  0  0  0  0  0
   -8.6508   -4.6034   26.3174 C   0  0  0  0  0  0  0  0  0  0  0  0
   -9.9364   -4.2762   26.6112 N   0  0  0  0  0  0  0  0  0  0  0  0
  -10.0301   -3.0819   27.2977 C   0  0  0  0  0  0  0  0  0  0  0  0
   -8.7331   -2.6076   27.4604 C   0  0  0  0  0  0  0  0  0  0  0  0
   -8.5711   -1.3541   28.1638 C   0  0  0  0  0  0  0  0  0  0  0  0
   -7.3006   -0.8237   28.3705 O   0  0  0  0  0  0  0  0  0  0  0  0
   -9.6984   -0.6880   28.6257 N   0  0  0  0  0  0  0  0  0  0  0  0
  -10.9527   -1.1969   28.4517 C   0  0  0  0  0  0  0  0  0  0  0  0
  -11.1403   -2.3572   27.8033 N   0  0  0  0  0  0  0  0  0  0  0  0
  -12.1117   -0.4644   28.9720 N   0  0  0  0  0  0  0  0  0  0  0  0
   -7.2067   -7.3050   21.3316 C   0  0  0  0  0  0  0  0  0  0  0  0
   -6.4447   -8.0856   20.7642 O   0  0  0  0  0  0  0  0  0  0  0  0
   -8.4813   -6.9656   20.7569 N   0  0  0  0  0  0  0  0  0  0  0  0
  1  2  2  0  0  0  0
  1  6  1  0  0  0  0
  1  7  1  0  0  0  0
  2  3  1  0  0  0  0
  3  4  2  0  0  0  0
  4  5  1  0  0  0  0
  4 20  1  0  0  0  0
  5  6  2  0  0  0  0
  7  8  1  0  0  0  0
  8  9  1  0  0  0  0
  9 10  2  0  0  0  0
  9 13  1  0  0  0  0
 10 11  1  0  0  0  0
 11 12  1  0  0  0  0
 12 13  2  0  0  0  0
 12 18  1  0  0  0  0
 13 14  1  0  0  0  0
 14 15  1  0  0  0  0
 14 16  2  0  0  0  0
 16 17  1  0  0  0  0
 17 18  2  0  0  0  0
 17 19  1  0  0  0  0
 20 21  2  0  0  0  0
 20 22  1  0  0  0  0
M  END
>  <CHROM.1>
-154.33190881,-54.02341461,64.18548002,-19.85672486,-8.09686579,-4.17562769
25.65642941,-1.19534370,-0.19684036,0.90125361

>  <Name>
ligand

>  <RI>
0

>  <Rbt.Current_Directory>
/home/itssahil/PROJECTS/Mol_Feturizer/New_Systems/rnas/4LVY

>  <Rbt.Executable>
rbdock ($Id: //depot/dev/client3/rdock/2013.1/src/exe/rbdock.cxx#4 $)

>  <Rbt.Library>
libRbt.so (2013.1, Build901 2013/11/27)

>  <Rbt.Parameter_File>
/export/apps/rDock/src/rDock_2013.1_src/data/scripts/dock_solv.prm

>  <Rbt.Receptor>
prm/blind_docking_60.prm

>  <SCORE>
-13.9459

>  <SCORE.INTER>
-14.1677

>  <SCORE.INTER.CONST>
1

>  <SCORE.INTER.POLAR>
0

>  <SCORE.INTER.ROT>
4

>  <SCORE.INTER.SOLV>
7.04258

>  <SCORE.INTER.VDW>
-18.0593

>  <SCORE.INTER.norm>
-0.643988

>  <SCORE.INTRA>
0.221809

>  <SCORE.INTRA.DIHEDRAL>
0.201769

>  <SCORE.INTRA.DIHEDRAL.0>
6.18831

>  <SCORE.INTRA.POLAR>
0

>  <SCORE.INTRA.POLAR.0>
0

>  <SCORE.INTRA.REPUL>
0

>  <SCORE.INTRA.REPUL.0>
0

>  <SCORE.INTRA.SOLV>
-0.00245724

>  <SCORE.INTRA.SOLV.lig_0>
-44.3465

>  <SCORE.INTRA.VDW>
0.122153

>  <SCORE.INTRA.VDW.0>
-0.778272

>  <SCORE.INTRA.norm>
0.0100822

>  <SCORE.RESTR>
0

>  <SCORE.RESTR.CAVITY>
0

>  <SCORE.RESTR.norm>
0

>  <SCORE.SYSTEM>
0

>  <SCORE.SYSTEM.CONST>
0

>  <SCORE.SYSTEM.DIHEDRAL>
0

>  <SCORE.SYSTEM.SOLV>
0

>  <SCORE.SYSTEM.norm>
0

>  <SCORE.heavy>
22

>  <SCORE.norm>
-0.633905

>  <RMSD>
14.396

$$$$
ligand
 OpenBabel11021811503D
libRbt.so/2013.1/901 2013/11/27
 22 24  0  0  0  0  0  0  0  0999 V2000
   -6.4367   -5.1958   24.7259 C   0  0  0  0  0  0  0  0  0  0  0  0
   -6.1819   -6.5746   24.8824 C   0  0  0  0  0  0  0  0  0  0  0  0
   -5.8763   -7.3447   23.7635 C   0  0  0  0  0  0  0  0  0  0  0  0
   -5.8273   -6.7365   22.4971 C   0  0  0  0  0  0  0  0  0  0  0  0
   -6.0922   -5.3541   22.3373 C   0  0  0  0  0  0  0  0  0  0  0  0
   -6.3975   -4.5881   23.4540 C   0  0  0  0  0  0  0  0  0  0  0  0
   -6.7939   -4.3331   25.9516 C   0  0  0  0  0  0  0  0  0  0  0  0
   -8.2496   -4.4877   26.4586 C   0  0  0  0  0  0  0  0  0  0  0  0
   -8.5749   -3.6199   27.6688 C   0  0  0  0  0  0  0  0  0  0  0  0
   -7.7579   -3.5193   28.7990 C   0  0  0  0  0  0  0  0  0  0  0  0
   -8.3702   -2.6572   29.6521 N   0  0  0  0  0  0  0  0  0  0  0  0
   -9.5606   -2.1747   29.1458 C   0  0  0  0  0  0  0  0  0  0  0  0
   -9.7304   -2.7543   27.8932 C   0  0  0  0  0  0  0  0  0  0  0  0
  -10.9207   -2.3946   27.1543 C   0  0  0  0  0  0  0  0  0  0  0  0
  -11.1515   -2.9303   25.8902 O   0  0  0  0  0  0  0  0  0  0  0  0
  -11.8288   -1.5122   27.7241 N   0  0  0  0  0  0  0  0  0  0  0  0
  -11.6156   -0.9596   28.9536 C   0  0  0  0  0  0  0  0  0  0  0  0
  -10.5223   -1.2711   29.6674 N   0  0  0  0  0  0  0  0  0  0  0  0
  -12.5960   -0.0197   29.5066 N   0  0  0  0  0  0  0  0  0  0  0  0
   -5.4996   -7.5940   21.3035 C   0  0  0  0  0  0  0  0  0  0  0  0
   -6.3782   -8.2640   20.7639 O   0  0  0  0  0  0  0  0  0  0  0  0
   -4.1462   -7.6177   20.8157 N   0  0  0  0  0  0  0  0  0  0  0  0
  1  2  2  0  0  0  0
  1  6  1  0  0  0  0
  1  7  1  0  0  0  0
  2  3  1  0  0  0  0
  3  4  2  0  0  0  0
  4  5  1  0  0  0  0
  4 20  1  0  0  0  0
  5  6  2  0  0  0  0
  7  8  1  0  0  0  0
  8  9  1  0  0  0  0
  9 10  2  0  0  0  0
  9 13  1  0  0  0  0
 10 11  1  0  0  0  0
 11 12  1  0  0  0  0
 12 13  2  0  0  0  0
 12 18  1  0  0  0  0
 13 14  1  0  0  0  0
 14 15  1  0  0  0  0
 14 16  2  0  0  0  0
 16 17  1  0  0  0  0
 17 18  2  0  0  0  0
 17 19  1  0  0  0  0
 20 21  2  0  0  0  0
 20 22  1  0  0  0  0
M  END
>  <CHROM.1>
-77.05753783,82.12623346,-179.83854425,-47.09850910,-8.25580162,-4.16580785
25.85422132,-0.95352074,-0.47233862,1.19824835

>  <Name>
ligand

>  <RI>
0

>  <Rbt.Current_Directory>
/home/itssahil/PROJECTS/Mol_Feturizer/New_Systems/rnas/4LVY

>  <Rbt.Executable>
rbdock ($Id: //depot/dev/client3/rdock/2013.1/src/exe/rbdock.cxx#4 $)

>  <Rbt.Library>
libRbt.so (2013.1, Build901 2013/11/27)

>  <Rbt.Parameter_File>
/export/apps/rDock/src/rDock_2013.1_src/data/scripts/dock_solv.prm

>  <Rbt.Receptor>
prm/blind_docking_40.prm

>  <SCORE>
-11.6136

>  <SCORE.INTER>
-11.3001

>  <SCORE.INTER.CONST>
1

>  <SCORE.INTER.POLAR>
0

>  <SCORE.INTER.ROT>
4

>  <SCORE.INTER.SOLV>
7.81785

>  <SCORE.INTER.VDW>
-16.406

>  <SCORE.INTER.norm>
-0.513639

>  <SCORE.INTRA>
-0.313573

>  <SCORE.INTRA.DIHEDRAL>
0.00405222

>  <SCORE.INTRA.DIHEDRAL.0>
6.18831

>  <SCORE.INTRA.POLAR>
0

>  <SCORE.INTRA.POLAR.0>
0

>  <SCORE.INTRA.REPUL>
0

>  <SCORE.INTRA.REPUL.0>
0

>  <SCORE.INTRA.SOLV>
-6.22281e-05

>  <SCORE.INTRA.SOLV.lig_0>
-44.3465

>  <SCORE.INTRA.VDW>
-0.315568

>  <SCORE.INTRA.VDW.0>
-0.778272

>  <SCORE.INTRA.norm>
-0.0142533

>  <SCORE.RESTR>
0

>  <SCORE.RESTR.CAVITY>
0

>  <SCORE.RESTR.norm>
0

>  <SCORE.SYSTEM>
0

>  <SCORE.SYSTEM.CONST>
0

>  <SCORE.SYSTEM.DIHEDRAL>
0

>  <SCORE.SYSTEM.SOLV>
0

>  <SCORE.SYSTEM.norm>
0

>  <SCORE.heavy>
22

>  <SCORE.norm>
-0.527893

>  <RMSD>
14.528

$$$$
ligand
 OpenBabel11021811503D
libRbt.so/2013.1/901 2013/11/27
 22 24  0  0  0  0  0  0  0  0999 V2000
   -5.4754   -5.4734   25.9704 C   0  0  0  0  0  0  0  0  0  0  0  0
   -5.2332   -6.8227   25.6367 C   0  0  0  0  0  0  0  0  0  0  0  0
   -6.0282   -7.4429   24.6767 C   0  0  0  0  0  0  0  0  0  0  0  0
   -7.0589   -6.7154   24.0566 C   0  0  0  0  0  0  0  0  0  0  0  0
   -7.3093   -5.3634   24.3975 C   0  0  0  0  0  0  0  0  0  0  0  0
   -6.5160   -4.7470   25.3555 C   0  0  0  0  0  0  0  0  0  0  0  0
   -4.6162   -4.7777   27.0437 C   0  0  0  0  0  0  0  0  0  0  0  0
   -5.0048   -5.1062   28.5069 C   0  0  0  0  0  0  0  0  0  0  0  0
   -6.4387   -4.7301   28.8618 C   0  0  0  0  0  0  0  0  0  0  0  0
   -7.3137   -5.5657   29.5625 C   0  0  0  0  0  0  0  0  0  0  0  0
   -8.4852   -4.8896   29.6917 N   0  0  0  0  0  0  0  0  0  0  0  0
   -8.4358   -3.6386   29.1098 C   0  0  0  0  0  0  0  0  0  0  0  0
   -7.1609   -3.4930   28.5742 C   0  0  0  0  0  0  0  0  0  0  0  0
   -6.8629   -2.2450   27.9064 C   0  0  0  0  0  0  0  0  0  0  0  0
   -5.6038   -2.0270   27.3540 O   0  0  0  0  0  0  0  0  0  0  0  0
   -7.8495   -1.2716   27.8219 N   0  0  0  0  0  0  0  0  0  0  0  0
   -9.0851   -1.4545   28.3718 C   0  0  0  0  0  0  0  0  0  0  0  0
   -9.3964   -2.6001   28.9983 N   0  0  0  0  0  0  0  0  0  0  0  0
  -10.0890   -0.3903   28.2709 N   0  0  0  0  0  0  0  0  0  0  0  0
   -7.9068   -7.4123   23.0257 C   0  0  0  0  0  0  0  0  0  0  0  0
   -8.4780   -8.4650   23.3044 O   0  0  0  0  0  0  0  0  0  0  0  0
   -8.0281   -6.8288   21.7162 N   0  0  0  0  0  0  0  0  0  0  0  0
  1  2  2  0  0  0  0
  1  6  1  0  0  0  0
  1  7  1  0  0  0  0
  2  3  1  0  0  0  0
  3  4  2  0  0  0  0
  4  5  1  0  0  0  0
  4 20  1  0  0  0  0
  5  6  2  0  0  0  0
  7  8  1  0  0  0  0
  8  9  1  0  0  0  0
  9 10  2  0  0  0  0
  9 13  1  0  0  0  0
 10 11  1  0  0  0  0
 11 12  1  0  0  0  0
 12 13  2  0  0  0  0
 12 18  1  0  0  0  0
 13 14  1  0  0  0  0
 14 15  1  0  0  0  0
 14 16  2  0  0  0  0
 16 17  1  0  0  0  0
 17 18  2  0  0  0  0
 17 19  1  0  0  0  0
 20 21  2  0  0  0  0
 20 22  1  0  0  0  0
M  END
>  <CHROM.1>
-79.13831251,54.53626538,-59.46348728,134.46732021,-7.21561070,-4.58479617
26.73199167,-1.41294247,-0.57673482,0.89577845

>  <Name>
ligand

>  <RI>
0

>  <Rbt.Current_Directory>
/home/itssahil/PROJECTS/Mol_Feturizer/New_Systems/rnas/4LVY

>  <Rbt.Executable>
rbdock ($Id: //depot/dev/client3/rdock/2013.1/src/exe/rbdock.cxx#4 $)

>  <Rbt.Library>
libRbt.so (2013.1, Build901 2013/11/27)

>  <Rbt.Parameter_File>
/export/apps/rDock/src/rDock_2013.1_src/data/scripts/dock_solv.prm

>  <Rbt.Receptor>
prm/blind_docking_40.prm

>  <SCORE>
-12.759

>  <SCORE.INTER>
-11.6263

>  <SCORE.INTER.CONST>
1

>  <SCORE.INTER.POLAR>
0

>  <SCORE.INTER.ROT>
4

>  <SCORE.INTER.SOLV>
6.10881

>  <SCORE.INTER.VDW>
-16.0538

>  <SCORE.INTER.norm>
-0.52847

>  <SCORE.INTRA>
-1.14324

>  <SCORE.INTRA.DIHEDRAL>
-0.0653444

>  <SCORE.INTRA.DIHEDRAL.0>
6.18831

>  <SCORE.INTRA.POLAR>
0

>  <SCORE.INTRA.POLAR.0>
0

>  <SCORE.INTRA.REPUL>
0

>  <SCORE.INTRA.REPUL.0>
0

>  <SCORE.INTRA.SOLV>
0.459172

>  <SCORE.INTRA.SOLV.lig_0>
-44.3465

>  <SCORE.INTRA.VDW>
-1.34016

>  <SCORE.INTRA.VDW.0>
-0.778272

>  <SCORE.INTRA.norm>
-0.0519656

>  <SCORE.RESTR>
0.0106017

>  <SCORE.RESTR.CAVITY>
0.0106017

>  <SCORE.RESTR.norm>
0.000481895

>  <SCORE.SYSTEM>
0

>  <SCORE.SYSTEM.CONST>
0

>  <SCORE.SYSTEM.DIHEDRAL>
0

>  <SCORE.SYSTEM.SOLV>
0

>  <SCORE.SYSTEM.norm>
0

>  <SCORE.heavy>
22

>  <SCORE.norm>
-0.579954

>  <RMSD>
14.536

$$$$
ligand
 OpenBabel11021811503D
libRbt.so/2013.1/901 2013/11/27
 22 24  0  0  0  0  0  0  0  0999 V2000
   -6.4761   -5.2771   24.7932 C   0  0  0  0  0  0  0  0  0  0  0  0
   -6.4784   -4.5924   23.5596 C   0  0  0  0  0  0  0  0  0  0  0  0
   -6.2492   -5.3015   22.3836 C   0  0  0  0  0  0  0  0  0  0  0  0
   -6.0186   -6.6869   22.4445 C   0  0  0  0  0  0  0  0  0  0  0  0
   -6.0066   -7.3741   23.6833 C   0  0  0  0  0  0  0  0  0  0  0  0
   -6.2346   -6.6651   24.8548 C   0  0  0  0  0  0  0  0  0  0  0  0
   -6.7102   -4.5040   26.1053 C   0  0  0  0  0  0  0  0  0  0  0  0
   -8.1949   -4.3584   26.5228 C   0  0  0  0  0  0  0  0  0  0  0  0
   -8.3880   -3.7428   27.9039 C   0  0  0  0  0  0  0  0  0  0  0  0
   -7.5730   -4.0246   29.0045 C   0  0  0  0  0  0  0  0  0  0  0  0
   -8.0480   -3.2904   30.0444 N   0  0  0  0  0  0  0  0  0  0  0  0
   -9.1442   -2.5289   29.6916 C   0  0  0  0  0  0  0  0  0  0  0  0
   -9.3945   -2.7809   28.3472 C   0  0  0  0  0  0  0  0  0  0  0  0
  -10.5084   -2.0858   27.7405 C   0  0  0  0  0  0  0  0  0  0  0  0
  -10.8119   -2.2836   26.3963 O   0  0  0  0  0  0  0  0  0  0  0  0
  -11.2703   -1.2231   28.5171 N   0  0  0  0  0  0  0  0  0  0  0  0
  -10.9812   -0.9985   29.8319 C   0  0  0  0  0  0  0  0  0  0  0  0
   -9.9554   -1.6267   30.4275 N   0  0  0  0  0  0  0  0  0  0  0  0
  -11.8054   -0.0655   30.6070 N   0  0  0  0  0  0  0  0  0  0  0  0
   -5.7683   -7.4281   21.1579 C   0  0  0  0  0  0  0  0  0  0  0  0
   -6.6473   -7.4918   20.3004 O   0  0  0  0  0  0  0  0  0  0  0  0
   -4.4917   -8.0609   20.9577 N   0  0  0  0  0  0  0  0  0  0  0  0
  1  2  2  0  0  0  0
  1  6  1  0  0  0  0
  1  7  1  0  0  0  0
  2  3  1  0  0  0  0
  3  4  2  0  0  0  0
  4  5  1  0  0  0  0
  4 20  1  0  0  0  0
  5  6  2  0  0  0  0
  7  8  1  0  0  0  0
  8  9  1  0  0  0  0
  9 10  2  0  0  0  0
  9 13  1  0  0  0  0
 10 11  1  0  0  0  0
 11 12  1  0  0  0  0
 12 13  2  0  0  0  0
 12 18  1  0  0  0  0
 13 14  1  0  0  0  0
 14 15  1  0  0  0  0
 14 16  2  0  0  0  0
 16 17  1  0  0  0  0
 17 18  2  0  0  0  0
 17 19  1  0  0  0  0
 20 21  2  0  0  0  0
 20 22  1  0  0  0  0
M  END
>  <CHROM.1>
88.31725574,-63.83931171,172.88910443,-38.94039345,-8.09999780,-4.17509590
26.14152796,-0.98774233,-0.64750693,1.33123532

>  <Name>
ligand

>  <RI>
0

>  <Rbt.Current_Directory>
/home/itssahil/PROJECTS/Mol_Feturizer/New_Systems/rnas/4LVY

>  <Rbt.Executable>
rbdock ($Id: //depot/dev/client3/rdock/2013.1/src/exe/rbdock.cxx#4 $)

>  <Rbt.Library>
libRbt.so (2013.1, Build901 2013/11/27)

>  <Rbt.Parameter_File>
/export/apps/rDock/src/rDock_2013.1_src/data/scripts/dock_solv.prm

>  <Rbt.Receptor>
prm/blind_docking_100.prm

>  <SCORE>
-11.4554

>  <SCORE.INTER>
-11.3879

>  <SCORE.INTER.CONST>
1

>  <SCORE.INTER.POLAR>
0

>  <SCORE.INTER.ROT>
4

>  <SCORE.INTER.SOLV>
8.01394

>  <SCORE.INTER.VDW>
-16.5299

>  <SCORE.INTER.norm>
-0.517631

>  <SCORE.INTRA>
-0.0674734

>  <SCORE.INTRA.DIHEDRAL>
0.326759

>  <SCORE.INTRA.DIHEDRAL.0>
6.18831

>  <SCORE.INTRA.POLAR>
0

>  <SCORE.INTRA.POLAR.0>
0

>  <SCORE.INTRA.REPUL>
0

>  <SCORE.INTRA.REPUL.0>
0

>  <SCORE.INTRA.SOLV>
-0.00452307

>  <SCORE.INTRA.SOLV.lig_0>
-44.3465

>  <SCORE.INTRA.VDW>
-0.228591

>  <SCORE.INTRA.VDW.0>
-0.778272

>  <SCORE.INTRA.norm>
-0.00306697

>  <SCORE.RESTR>
0

>  <SCORE.RESTR.CAVITY>
0

>  <SCORE.RESTR.norm>
0

>  <SCORE.SYSTEM>
0

>  <SCORE.SYSTEM.CONST>
0

>  <SCORE.SYSTEM.DIHEDRAL>
0

>  <SCORE.SYSTEM.SOLV>
0

>  <SCORE.SYSTEM.norm>
0

>  <SCORE.heavy>
22

>  <SCORE.norm>
-0.520698

>  <RMSD>
14.555

$$$$
ligand
 OpenBabel11021811503D
libRbt.so/2013.1/901 2013/11/27
 22 24  0  0  0  0  0  0  0  0999 V2000
   -6.4484   -5.2207   24.6597 C   0  0  0  0  0  0  0  0  0  0  0  0
   -6.3509   -4.6345   23.3801 C   0  0  0  0  0  0  0  0  0  0  0  0
   -6.0296   -5.4323   22.2853 C   0  0  0  0  0  0  0  0  0  0  0  0
   -5.8067   -6.8076   22.4726 C   0  0  0  0  0  0  0  0  0  0  0  0
   -5.8949   -7.3957   23.7584 C   0  0  0  0  0  0  0  0  0  0  0  0
   -6.2148   -6.5985   24.8489 C   0  0  0  0  0  0  0  0  0  0  0  0
   -6.7855   -4.3486   25.8844 C   0  0  0  0  0  0  0  0  0  0  0  0
   -8.2435   -4.4710   26.3934 C   0  0  0  0  0  0  0  0  0  0  0  0
   -8.5706   -3.5376   27.5532 C   0  0  0  0  0  0  0  0  0  0  0  0
   -7.6669   -3.2075   28.5677 C   0  0  0  0  0  0  0  0  0  0  0  0
   -8.3118   -2.3567   29.4082 N   0  0  0  0  0  0  0  0  0  0  0  0
   -9.6068   -2.1009   29.0037 C   0  0  0  0  0  0  0  0  0  0  0  0
   -9.8144   -2.8244   27.8345 C   0  0  0  0  0  0  0  0  0  0  0  0
  -11.1147   -2.7135   27.2105 C   0  0  0  0  0  0  0  0  0  0  0  0
  -11.3900   -3.4035   26.0331 O   0  0  0  0  0  0  0  0  0  0  0  0
  -12.0824   -1.9134   27.8032 N   0  0  0  0  0  0  0  0  0  0  0  0
  -11.8304   -1.2128   28.9470 C   0  0  0  0  0  0  0  0  0  0  0  0
  -10.6354   -1.2925   29.5531 N   0  0  0  0  0  0  0  0  0  0  0  0
  -12.8797   -0.3680   29.5265 N   0  0  0  0  0  0  0  0  0  0  0  0
   -5.4555   -7.6459   21.2722 C   0  0  0  0  0  0  0  0  0  0  0  0
   -6.0422   -8.7067   21.0662 O   0  0  0  0  0  0  0  0  0  0  0  0
   -4.4227   -7.1864   20.3821 N   0  0  0  0  0  0  0  0  0  0  0  0
  1  2  2  0  0  0  0
  1  6  1  0  0  0  0
  1  7  1  0  0  0  0
  2  3  1  0  0  0  0
  3  4  2  0  0  0  0
  4  5  1  0  0  0  0
  4 20  1  0  0  0  0
  5  6  2  0  0  0  0
  7  8  1  0  0  0  0
  8  9  1  0  0  0  0
  9 10  2  0  0  0  0
  9 13  1  0  0  0  0
 10 11  1  0  0  0  0
 11 12  1  0  0  0  0
 12 13  2  0  0  0  0
 12 18  1  0  0  0  0
 13 14  1  0  0  0  0
 14 15  1  0  0  0  0
 14 16  2  0  0  0  0
 16 17  1  0  0  0  0
 17 18  2  0  0  0  0
 17 19  1  0  0  0  0
 20 21  2  0  0  0  0
 20 22  1  0  0  0  0
M  END
>  <CHROM.1>
103.58543764,-131.81827219,-176.61658530,-36.06154692,-8.30611532,-4.24075315
25.80579966,-0.98113092,-0.29676352,1.08958918

>  <Name>
ligand

>  <RI>
0

>  <Rbt.Current_Directory>
/home/itssahil/PROJECTS/Mol_Feturizer/New_Systems/rnas/4LVY

>  <Rbt.Executable>
rbdock ($Id: //depot/dev/client3/rdock/2013.1/src/exe/rbdock.cxx#4 $)

>  <Rbt.Library>
libRbt.so (2013.1, Build901 2013/11/27)

>  <Rbt.Parameter_File>
/export/apps/rDock/src/rDock_2013.1_src/data/scripts/dock_solv.prm

>  <Rbt.Receptor>
prm/blind_docking_40.prm

>  <SCORE>
-11.1892

>  <SCORE.INTER>
-11.1722

>  <SCORE.INTER.CONST>
1

>  <SCORE.INTER.POLAR>
0

>  <SCORE.INTER.ROT>
4

>  <SCORE.INTER.SOLV>
7.46917

>  <SCORE.INTER.VDW>
-16.2045

>  <SCORE.INTER.norm>
-0.507826

>  <SCORE.INTRA>
-0.0189332

>  <SCORE.INTRA.DIHEDRAL>
0.170763

>  <SCORE.INTRA.DIHEDRAL.0>
6.18831

>  <SCORE.INTRA.POLAR>
0

>  <SCORE.INTRA.POLAR.0>
0

>  <SCORE.INTRA.REPUL>
0

>  <SCORE.INTRA.REPUL.0>
0

>  <SCORE.INTRA.SOLV>
0.00100814

>  <SCORE.INTRA.SOLV.lig_0>
-44.3465

>  <SCORE.INTRA.VDW>
-0.104819

>  <SCORE.INTRA.VDW.0>
-0.778272

>  <SCORE.INTRA.norm>
-0.000860601

>  <SCORE.RESTR>
0.00191372

>  <SCORE.RESTR.CAVITY>
0.00191372

>  <SCORE.RESTR.norm>
8.69872e-05

>  <SCORE.SYSTEM>
0

>  <SCORE.SYSTEM.CONST>
0

>  <SCORE.SYSTEM.DIHEDRAL>
0

>  <SCORE.SYSTEM.SOLV>
0

>  <SCORE.SYSTEM.norm>
0

>  <SCORE.heavy>
22

>  <SCORE.norm>
-0.5086

>  <RMSD>
14.578

$$$$
ligand
 OpenBabel11021811503D
libRbt.so/2013.1/901 2013/11/27
 22 24  0  0  0  0  0  0  0  0999 V2000
   -5.9547   -4.7957   25.9005 C   0  0  0  0  0  0  0  0  0  0  0  0
   -6.6416   -4.4738   24.7109 C   0  0  0  0  0  0  0  0  0  0  0  0
   -6.7099   -5.4129   23.6853 C   0  0  0  0  0  0  0  0  0  0  0  0
   -6.0933   -6.6653   23.8514 C   0  0  0  0  0  0  0  0  0  0  0  0
   -5.3952   -6.9863   25.0415 C   0  0  0  0  0  0  0  0  0  0  0  0
   -5.3276   -6.0483   26.0627 C   0  0  0  0  0  0  0  0  0  0  0  0
   -5.8545   -3.7611   27.0379 C   0  0  0  0  0  0  0  0  0  0  0  0
   -6.9471   -3.8810   28.1295 C   0  0  0  0  0  0  0  0  0  0  0  0
   -8.3677   -3.7336   27.5968 C   0  0  0  0  0  0  0  0  0  0  0  0
   -8.8946   -4.5046   26.5562 C   0  0  0  0  0  0  0  0  0  0  0  0
  -10.1757   -4.0921   26.3702 N   0  0  0  0  0  0  0  0  0  0  0  0
  -10.5323   -3.0797   27.2386 C   0  0  0  0  0  0  0  0  0  0  0  0
   -9.4217   -2.8211   28.0343 C   0  0  0  0  0  0  0  0  0  0  0  0
   -9.5534   -1.7875   29.0375 C   0  0  0  0  0  0  0  0  0  0  0  0
   -8.4845   -1.4812   29.8752 O   0  0  0  0  0  0  0  0  0  0  0  0
  -10.7573   -1.1050   29.1503 N   0  0  0  0  0  0  0  0  0  0  0  0
  -11.8252   -1.3998   28.3533 C   0  0  0  0  0  0  0  0  0  0  0  0
  -11.7384   -2.3525   27.4117 N   0  0  0  0  0  0  0  0  0  0  0  0
  -13.0815   -0.6623   28.5213 N   0  0  0  0  0  0  0  0  0  0  0  0
   -6.1782   -7.6600   22.7242 C   0  0  0  0  0  0  0  0  0  0  0  0
   -7.0551   -8.5221   22.7255 O   0  0  0  0  0  0  0  0  0  0  0  0
   -5.2154   -7.5853   21.6577 N   0  0  0  0  0  0  0  0  0  0  0  0
  1  2  2  0  0  0  0
  1  6  1  0  0  0  0
  1  7  1  0  0  0  0
  2  3  1  0  0  0  0
  3  4  2  0  0  0  0
  4  5  1  0  0  0  0
  4 20  1  0  0  0  0
  5  6  2  0  0  0  0
  7  8  1  0  0  0  0
  8  9  1  0  0  0  0
  9 10  2  0  0  0  0
  9 13  1  0  0  0  0
 10 11  1  0  0  0  0
 11 12  1  0  0  0  0
 12 13  2  0  0  0  0
 12 18  1  0  0  0  0
 13 14  1  0  0  0  0
 14 15  1  0  0  0  0
 14 16  2  0  0  0  0
 16 17  1  0  0  0  0
 17 18  2  0  0  0  0
 17 19  1  0  0  0  0
 20 21  2  0  0  0  0
 20 22  1  0  0  0  0
M  END
>  <CHROM.1>
94.16348593,-95.50426851,-59.25095619,54.48187114,-8.22399718,-4.19796970
26.37433643,-0.96888817,-0.23431341,0.91968612

>  <Name>
ligand

>  <RI>
0

>  <Rbt.Current_Directory>
/home/itssahil/PROJECTS/Mol_Feturizer/New_Systems/rnas/4LVY

>  <Rbt.Executable>
rbdock ($Id: //depot/dev/client3/rdock/2013.1/src/exe/rbdock.cxx#4 $)

>  <Rbt.Library>
libRbt.so (2013.1, Build901 2013/11/27)

>  <Rbt.Parameter_File>
/export/apps/rDock/src/rDock_2013.1_src/data/scripts/dock_solv.prm

>  <Rbt.Receptor>
prm/blind_docking_40.prm

>  <SCORE>
-14.5334

>  <SCORE.INTER>
-13.7389

>  <SCORE.INTER.CONST>
1

>  <SCORE.INTER.POLAR>
0

>  <SCORE.INTER.ROT>
4

>  <SCORE.INTER.SOLV>
5.88621

>  <SCORE.INTER.VDW>
-17.388

>  <SCORE.INTER.norm>
-0.624496

>  <SCORE.INTRA>
-0.794482

>  <SCORE.INTRA.DIHEDRAL>
0.0668763

>  <SCORE.INTRA.DIHEDRAL.0>
6.18831

>  <SCORE.INTRA.POLAR>
0

>  <SCORE.INTRA.POLAR.0>
0

>  <SCORE.INTRA.REPUL>
0

>  <SCORE.INTRA.REPUL.0>
0

>  <SCORE.INTRA.SOLV>
0.0199447

>  <SCORE.INTRA.SOLV.lig_0>
-44.3465

>  <SCORE.INTRA.VDW>
-0.837892

>  <SCORE.INTRA.VDW.0>
-0.778272

>  <SCORE.INTRA.norm>
-0.0361128

>  <SCORE.RESTR>
0

>  <SCORE.RESTR.CAVITY>
0

>  <SCORE.RESTR.norm>
0

>  <SCORE.SYSTEM>
0

>  <SCORE.SYSTEM.CONST>
0

>  <SCORE.SYSTEM.DIHEDRAL>
0

>  <SCORE.SYSTEM.SOLV>
0

>  <SCORE.SYSTEM.norm>
0

>  <SCORE.heavy>
22

>  <SCORE.norm>
-0.660609

>  <RMSD>
14.597

$$$$
ligand
 OpenBabel11021811503D
libRbt.so/2013.1/901 2013/11/27
 22 24  0  0  0  0  0  0  0  0999 V2000
   -5.6147   -5.5305   25.8391 C   0  0  0  0  0  0  0  0  0  0  0  0
   -6.7426   -4.8469   25.3377 C   0  0  0  0  0  0  0  0  0  0  0  0
   -7.5564   -5.4697   24.3953 C   0  0  0  0  0  0  0  0  0  0  0  0
   -7.2410   -6.7681   23.9584 C   0  0  0  0  0  0  0  0  0  0  0  0
   -6.1036   -7.4519   24.4540 C   0  0  0  0  0  0  0  0  0  0  0  0
   -5.2929   -6.8289   25.3930 C   0  0  0  0  0  0  0  0  0  0  0  0
   -4.6938   -4.8484   26.8690 C   0  0  0  0  0  0  0  0  0  0  0  0
   -5.0154   -5.1718   28.3495 C   0  0  0  0  0  0  0  0  0  0  0  0
   -6.4289   -4.7867   28.7703 C   0  0  0  0  0  0  0  0  0  0  0  0
   -7.2651   -5.6046   29.5363 C   0  0  0  0  0  0  0  0  0  0  0  0
   -8.4287   -4.9251   29.7105 N   0  0  0  0  0  0  0  0  0  0  0  0
   -8.4112   -3.6887   29.0965 C   0  0  0  0  0  0  0  0  0  0  0  0
   -7.1664   -3.5567   28.4911 C   0  0  0  0  0  0  0  0  0  0  0  0
   -6.9052   -2.3254   27.7783 C   0  0  0  0  0  0  0  0  0  0  0  0
   -5.6772   -2.1214   27.1551 O   0  0  0  0  0  0  0  0  0  0  0  0
   -7.8958   -1.3540   27.7223 N   0  0  0  0  0  0  0  0  0  0  0  0
   -9.1005   -1.5230   28.3408 C   0  0  0  0  0  0  0  0  0  0  0  0
   -9.3773   -2.6529   29.0106 N   0  0  0  0  0  0  0  0  0  0  0  0
  -10.1093   -0.4612   28.2671 N   0  0  0  0  0  0  0  0  0  0  0  0
   -8.1352   -7.4159   22.9347 C   0  0  0  0  0  0  0  0  0  0  0  0
   -8.9183   -8.3024   23.2707 O   0  0  0  0  0  0  0  0  0  0  0  0
   -8.0500   -6.9838   21.5650 N   0  0  0  0  0  0  0  0  0  0  0  0
  1  2  2  0  0  0  0
  1  6  1  0  0  0  0
  1  7  1  0  0  0  0
  2  3  1  0  0  0  0
  3  4  2  0  0  0  0
  4  5  1  0  0  0  0
  4 20  1  0  0  0  0
  5  6  2  0  0  0  0
  7  8  1  0  0  0  0
  8  9  1  0  0  0  0
  9 10  2  0  0  0  0
  9 13  1  0  0  0  0
 10 11  1  0  0  0  0
 11 12  1  0  0  0  0
 12 13  2  0  0  0  0
 12 18  1  0  0  0  0
 13 14  1  0  0  0  0
 14 15  1  0  0  0  0
 14 16  2  0  0  0  0
 16 17  1  0  0  0  0
 17 18  2  0  0  0  0
 17 19  1  0  0  0  0
 20 21  2  0  0  0  0
 20 22  1  0  0  0  0
M  END
>  <CHROM.1>
94.63002305,-105.17865487,-58.90618272,135.83821565,-7.29706820,-4.63614343
26.64226547,-1.44657499,-0.54527215,0.89269708

>  <Name>
ligand

>  <RI>
0

>  <Rbt.Current_Directory>
/home/itssahil/PROJECTS/Mol_Feturizer/New_Systems/rnas/4LVY

>  <Rbt.Executable>
rbdock ($Id: //depot/dev/client3/rdock/2013.1/src/exe/rbdock.cxx#4 $)

>  <Rbt.Library>
libRbt.so (2013.1, Build901 2013/11/27)

>  <Rbt.Parameter_File>
/export/apps/rDock/src/rDock_2013.1_src/data/scripts/dock_solv.prm

>  <Rbt.Receptor>
prm/blind_docking_40.prm

>  <SCORE>
-12.6022

>  <SCORE.INTER>
-11.473

>  <SCORE.INTER.CONST>
1

>  <SCORE.INTER.POLAR>
0

>  <SCORE.INTER.ROT>
4

>  <SCORE.INTER.SOLV>
6.07692

>  <SCORE.INTER.VDW>
-15.941

>  <SCORE.INTER.norm>
-0.521499

>  <SCORE.INTRA>
-1.14563

>  <SCORE.INTRA.DIHEDRAL>
0.0649761

>  <SCORE.INTRA.DIHEDRAL.0>
6.18831

>  <SCORE.INTRA.POLAR>
0

>  <SCORE.INTRA.POLAR.0>
0

>  <SCORE.INTRA.REPUL>
0

>  <SCORE.INTRA.REPUL.0>
0

>  <SCORE.INTRA.SOLV>
0.481357

>  <SCORE.INTRA.SOLV.lig_0>
-44.3465

>  <SCORE.INTRA.VDW>
-1.41879

>  <SCORE.INTRA.VDW.0>
-0.778272

>  <SCORE.INTRA.norm>
-0.0520739

>  <SCORE.RESTR>
0.016428

>  <SCORE.RESTR.CAVITY>
0.016428

>  <SCORE.RESTR.norm>
0.000746728

>  <SCORE.SYSTEM>
0

>  <SCORE.SYSTEM.CONST>
0

>  <SCORE.SYSTEM.DIHEDRAL>
0

>  <SCORE.SYSTEM.SOLV>
0

>  <SCORE.SYSTEM.norm>
0

>  <SCORE.heavy>
22

>  <SCORE.norm>
-0.572827

>  <RMSD>
14.613

$$$$
ligand
 OpenBabel11021811503D
libRbt.so/2013.1/901 2013/11/27
 22 24  0  0  0  0  0  0  0  0999 V2000
   -6.3225   -7.5694   23.1736 C   0  0  0  0  0  0  0  0  0  0  0  0
   -7.4817   -8.3130   23.4801 C   0  0  0  0  0  0  0  0  0  0  0  0
   -7.7900   -9.4410   22.7244 C   0  0  0  0  0  0  0  0  0  0  0  0
   -6.9425   -9.8197   21.6687 C   0  0  0  0  0  0  0  0  0  0  0  0
   -5.7834   -9.0685   21.3539 C   0  0  0  0  0  0  0  0  0  0  0  0
   -5.4781   -7.9437   22.1081 C   0  0  0  0  0  0  0  0  0  0  0  0
   -5.9768   -6.3084   23.9888 C   0  0  0  0  0  0  0  0  0  0  0  0
   -5.2398   -6.5749   25.3251 C   0  0  0  0  0  0  0  0  0  0  0  0
   -4.9539   -5.3137   26.1320 C   0  0  0  0  0  0  0  0  0  0  0  0
   -3.6806   -4.9428   26.5750 C   0  0  0  0  0  0  0  0  0  0  0  0
   -3.8235   -3.7707   27.2472 N   0  0  0  0  0  0  0  0  0  0  0  0
   -5.1344   -3.3383   27.2752 C   0  0  0  0  0  0  0  0  0  0  0  0
   -5.8848   -4.2810   26.5811 C   0  0  0  0  0  0  0  0  0  0  0  0
   -7.3070   -4.0419   26.4698 C   0  0  0  0  0  0  0  0  0  0  0  0
   -8.1185   -4.9397   25.7816 O   0  0  0  0  0  0  0  0  0  0  0  0
   -7.8499   -2.9085   27.0604 N   0  0  0  0  0  0  0  0  0  0  0  0
   -7.0723   -2.0045   27.7241 C   0  0  0  0  0  0  0  0  0  0  0  0
   -5.7492   -2.1946   27.8473 N   0  0  0  0  0  0  0  0  0  0  0  0
   -7.6895   -0.8138   28.3174 N   0  0  0  0  0  0  0  0  0  0  0  0
   -7.3026  -11.0407   20.8645 C   0  0  0  0  0  0  0  0  0  0  0  0
   -7.2754  -12.1541   21.3856 O   0  0  0  0  0  0  0  0  0  0  0  0
   -7.6698  -10.8790   19.4827 N   0  0  0  0  0  0  0  0  0  0  0  0
  1  2  2  0  0  0  0
  1  6  1  0  0  0  0
  1  7  1  0  0  0  0
  2  3  1  0  0  0  0
  3  4  2  0  0  0  0
  4  5  1  0  0  0  0
  4 20  1  0  0  0  0
  5  6  2  0  0  0  0
  7  8  1  0  0  0  0
  8  9  1  0  0  0  0
  9 10  2  0  0  0  0
  9 13  1  0  0  0  0
 10 11  1  0  0  0  0
 11 12  1  0  0  0  0
 12 13  2  0  0  0  0
 12 18  1  0  0  0  0
 13 14  1  0  0  0  0
 14 15  1  0  0  0  0
 14 16  2  0  0  0  0
 16 17  1  0  0  0  0
 17 18  2  0  0  0  0
 17 19  1  0  0  0  0
 20 21  2  0  0  0  0
 20 22  1  0  0  0  0
M  END
>  <CHROM.1>
82.77473967,-66.77970249,-177.99600183,-125.02372047,-6.41896613,-6.24900557
24.67831800,-1.65421895,-0.13616849,0.67320094

>  <Name>
ligand

>  <RI>
0

>  <Rbt.Current_Directory>
/home/itssahil/PROJECTS/Mol_Feturizer/New_Systems/rnas/4LVY

>  <Rbt.Executable>
rbdock ($Id: //depot/dev/client3/rdock/2013.1/src/exe/rbdock.cxx#4 $)

>  <Rbt.Library>
libRbt.so (2013.1, Build901 2013/11/27)

>  <Rbt.Parameter_File>
/export/apps/rDock/src/rDock_2013.1_src/data/scripts/dock_solv.prm

>  <Rbt.Receptor>
prm/blind_docking_40.prm

>  <SCORE>
-11.4257

>  <SCORE.INTER>
-10.9516

>  <SCORE.INTER.CONST>
1

>  <SCORE.INTER.POLAR>
0

>  <SCORE.INTER.ROT>
4

>  <SCORE.INTER.SOLV>
7.47988

>  <SCORE.INTER.VDW>
-16.061

>  <SCORE.INTER.norm>
-0.4978

>  <SCORE.INTRA>
-0.474066

>  <SCORE.INTRA.DIHEDRAL>
0.108256

>  <SCORE.INTRA.DIHEDRAL.0>
6.18831

>  <SCORE.INTRA.POLAR>
0

>  <SCORE.INTRA.POLAR.0>
0

>  <SCORE.INTRA.REPUL>
0

>  <SCORE.INTRA.REPUL.0>
0

>  <SCORE.INTRA.SOLV>
0.316381

>  <SCORE.INTRA.SOLV.lig_0>
-44.3465

>  <SCORE.INTRA.VDW>
-0.686384

>  <SCORE.INTRA.VDW.0>
-0.778272

>  <SCORE.INTRA.norm>
-0.0215484

>  <SCORE.RESTR>
0

>  <SCORE.RESTR.CAVITY>
0

>  <SCORE.RESTR.norm>
0

>  <SCORE.SYSTEM>
0

>  <SCORE.SYSTEM.CONST>
0

>  <SCORE.SYSTEM.DIHEDRAL>
0

>  <SCORE.SYSTEM.SOLV>
0

>  <SCORE.SYSTEM.norm>
0

>  <SCORE.heavy>
22

>  <SCORE.norm>
-0.519349

>  <RMSD>
14.626

$$$$
ligand
 OpenBabel11021811503D
libRbt.so/2013.1/901 2013/11/27
 22 24  0  0  0  0  0  0  0  0999 V2000
   -5.9356   -6.5926   24.3842 C   0  0  0  0  0  0  0  0  0  0  0  0
   -6.9058   -7.6073   24.2436 C   0  0  0  0  0  0  0  0  0  0  0  0
   -7.7601   -7.5888   23.1445 C   0  0  0  0  0  0  0  0  0  0  0  0
   -7.6429   -6.5598   22.1939 C   0  0  0  0  0  0  0  0  0  0  0  0
   -6.6755   -5.5351   22.3388 C   0  0  0  0  0  0  0  0  0  0  0  0
   -5.8250   -5.5549   23.4358 C   0  0  0  0  0  0  0  0  0  0  0  0
   -4.9944   -6.5886   25.6041 C   0  0  0  0  0  0  0  0  0  0  0  0
   -4.9133   -5.2407   26.3634 C   0  0  0  0  0  0  0  0  0  0  0  0
   -6.2711   -4.6852   26.7772 C   0  0  0  0  0  0  0  0  0  0  0  0
   -7.3673   -4.5820   25.9155 C   0  0  0  0  0  0  0  0  0  0  0  0
   -8.3881   -4.0519   26.6386 N   0  0  0  0  0  0  0  0  0  0  0  0
   -8.0268   -3.7948   27.9461 C   0  0  0  0  0  0  0  0  0  0  0  0
   -6.6977   -4.1809   28.0805 C   0  0  0  0  0  0  0  0  0  0  0  0
   -6.0877   -4.0094   29.3808 C   0  0  0  0  0  0  0  0  0  0  0  0
   -4.7629   -4.3824   29.5899 O   0  0  0  0  0  0  0  0  0  0  0  0
   -6.8401   -3.4660   30.4136 N   0  0  0  0  0  0  0  0  0  0  0  0
   -8.1459   -3.1101   30.2381 C   0  0  0  0  0  0  0  0  0  0  0  0
   -8.7438   -3.2548   29.0451 N   0  0  0  0  0  0  0  0  0  0  0  0
   -8.9043   -2.5552   31.3639 N   0  0  0  0  0  0  0  0  0  0  0  0
   -8.5831   -6.5613   21.0178 C   0  0  0  0  0  0  0  0  0  0  0  0
   -8.1520   -6.7523   19.8822 O   0  0  0  0  0  0  0  0  0  0  0  0
   -9.9843   -6.3296   21.2483 N   0  0  0  0  0  0  0  0  0  0  0  0
  1  2  2  0  0  0  0
  1  6  1  0  0  0  0
  1  7  1  0  0  0  0
  2  3  1  0  0  0  0
  3  4  2  0  0  0  0
  4  5  1  0  0  0  0
  4 20  1  0  0  0  0
  5  6  2  0  0  0  0
  7  8  1  0  0  0  0
  8  9  1  0  0  0  0
  9 10  2  0  0  0  0
  9 13  1  0  0  0  0
 10 11  1  0  0  0  0
 11 12  1  0  0  0  0
 12 13  2  0  0  0  0
 12 18  1  0  0  0  0
 13 14  1  0  0  0  0
 14 15  1  0  0  0  0
 14 16  2  0  0  0  0
 16 17  1  0  0  0  0
 17 18  2  0  0  0  0
 17 19  1  0  0  0  0
 20 21  2  0  0  0  0
 20 22  1  0  0  0  0
M  END
>  <CHROM.1>
-129.50401532,-113.32056736,53.03828905,-48.40008368,-7.16226267,-5.11664374
25.90969393,-1.64347329,-0.31738915,1.17660558

>  <Name>
ligand

>  <RI>
0

>  <Rbt.Current_Directory>
/home/itssahil/PROJECTS/Mol_Feturizer/New_Systems/rnas/4LVY

>  <Rbt.Executable>
rbdock ($Id: //depot/dev/client3/rdock/2013.1/src/exe/rbdock.cxx#4 $)

>  <Rbt.Library>
libRbt.so (2013.1, Build901 2013/11/27)

>  <Rbt.Parameter_File>
/export/apps/rDock/src/rDock_2013.1_src/data/scripts/dock_solv.prm

>  <Rbt.Receptor>
prm/blind_docking_40.prm

>  <SCORE>
-12.8484

>  <SCORE.INTER>
-12.4055

>  <SCORE.INTER.CONST>
1

>  <SCORE.INTER.POLAR>
0

>  <SCORE.INTER.ROT>
4

>  <SCORE.INTER.SOLV>
12.624

>  <SCORE.INTER.VDW>
-18.745

>  <SCORE.INTER.norm>
-0.563888

>  <SCORE.INTRA>
-0.442816

>  <SCORE.INTRA.DIHEDRAL>
0.267781

>  <SCORE.INTRA.DIHEDRAL.0>
6.18831

>  <SCORE.INTRA.POLAR>
0

>  <SCORE.INTRA.POLAR.0>
0

>  <SCORE.INTRA.REPUL>
0

>  <SCORE.INTRA.REPUL.0>
0

>  <SCORE.INTRA.SOLV>
0.00785136

>  <SCORE.INTRA.SOLV.lig_0>
-44.3465

>  <SCORE.INTRA.VDW>
-0.580632

>  <SCORE.INTRA.VDW.0>
-0.778272

>  <SCORE.INTRA.norm>
-0.020128

>  <SCORE.RESTR>
0

>  <SCORE.RESTR.CAVITY>
0

>  <SCORE.RESTR.norm>
0

>  <SCORE.SYSTEM>
0

>  <SCORE.SYSTEM.CONST>
0

>  <SCORE.SYSTEM.DIHEDRAL>
0

>  <SCORE.SYSTEM.SOLV>
0

>  <SCORE.SYSTEM.norm>
0

>  <SCORE.heavy>
22

>  <SCORE.norm>
-0.584016

>  <RMSD>
14.634

$$$$
ligand
 OpenBabel11021811503D
libRbt.so/2013.1/901 2013/11/27
 22 24  0  0  0  0  0  0  0  0999 V2000
   -6.1855   -3.2435   13.3210 C   0  0  0  0  0  0  0  0  0  0  0  0
   -5.8607   -3.5406   11.9805 C   0  0  0  0  0  0  0  0  0  0  0  0
   -6.7448   -3.1807   10.9670 C   0  0  0  0  0  0  0  0  0  0  0  0
   -7.9460   -2.5286   11.2955 C   0  0  0  0  0  0  0  0  0  0  0  0
   -8.2778   -2.2382   12.6418 C   0  0  0  0  0  0  0  0  0  0  0  0
   -7.3953   -2.5985   13.6511 C   0  0  0  0  0  0  0  0  0  0  0  0
   -5.2263   -3.6510   14.4559 C   0  0  0  0  0  0  0  0  0  0  0  0
   -3.8223   -4.1129   13.9917 C   0  0  0  0  0  0  0  0  0  0  0  0
   -2.9090   -4.5461   15.1326 C   0  0  0  0  0  0  0  0  0  0  0  0
   -3.3386   -5.2879   16.2372 C   0  0  0  0  0  0  0  0  0  0  0  0
   -2.2507   -5.4834   17.0274 N   0  0  0  0  0  0  0  0  0  0  0  0
   -1.1110   -4.9068   16.5033 C   0  0  0  0  0  0  0  0  0  0  0  0
   -1.4783   -4.3046   15.3050 C   0  0  0  0  0  0  0  0  0  0  0  0
   -0.4394   -3.6289   14.5590 C   0  0  0  0  0  0  0  0  0  0  0  0
   -0.7337   -3.0112   13.3466 O   0  0  0  0  0  0  0  0  0  0  0  0
    0.8513   -3.6029   15.0701 N   0  0  0  0  0  0  0  0  0  0  0  0
    1.1682   -4.2170   16.2470 C   0  0  0  0  0  0  0  0  0  0  0  0
    0.2295   -4.8528   16.9655 N   0  0  0  0  0  0  0  0  0  0  0  0
    2.5494   -4.1761   16.7378 N   0  0  0  0  0  0  0  0  0  0  0  0
   -8.8862   -2.1556   10.1801 C   0  0  0  0  0  0  0  0  0  0  0  0
   -9.6961   -1.2431   10.3336 O   0  0  0  0  0  0  0  0  0  0  0  0
   -8.8221   -2.8879    8.9433 N   0  0  0  0  0  0  0  0  0  0  0  0
  1  2  2  0  0  0  0
  1  6  1  0  0  0  0
  1  7  1  0  0  0  0
  2  3  1  0  0  0  0
  3  4  2  0  0  0  0
  4  5  1  0  0  0  0
  4 20  1  0  0  0  0
  5  6  2  0  0  0  0
  7  8  1  0  0  0  0
  8  9  1  0  0  0  0
  9 10  2  0  0  0  0
  9 13  1  0  0  0  0
 10 11  1  0  0  0  0
 11 12  1  0  0  0  0
 12 13  2  0  0  0  0
 12 18  1  0  0  0  0
 13 14  1  0  0  0  0
 14 15  1  0  0  0  0
 14 16  2  0  0  0  0
 16 17  1  0  0  0  0
 17 18  2  0  0  0  0
 17 19  1  0  0  0  0
 20 21  2  0  0  0  0
 20 22  1  0  0  0  0
M  END
>  <CHROM.1>
11.94404123,-156.45293881,-178.39682307,39.94026139,-3.88341339,-3.59218503
13.84565878,2.56991345,-0.04384402,-1.13409310

>  <Name>
ligand

>  <RI>
0

>  <Rbt.Current_Directory>
/home/itssahil/PROJECTS/Mol_Feturizer/New_Systems/rnas/4LVY

>  <Rbt.Executable>
rbdock ($Id: //depot/dev/client3/rdock/2013.1/src/exe/rbdock.cxx#4 $)

>  <Rbt.Library>
libRbt.so (2013.1, Build901 2013/11/27)

>  <Rbt.Parameter_File>
/export/apps/rDock/src/rDock_2013.1_src/data/scripts/dock_solv.prm

>  <Rbt.Receptor>
prm/blind_docking_20.prm

>  <SCORE>
-6.14775

>  <SCORE.INTER>
-8.26029

>  <SCORE.INTER.CONST>
1

>  <SCORE.INTER.POLAR>
0

>  <SCORE.INTER.ROT>
4

>  <SCORE.INTER.SOLV>
10.4197

>  <SCORE.INTER.VDW>
-15.2468

>  <SCORE.INTER.norm>
-0.375468

>  <SCORE.INTRA>
0.661673

>  <SCORE.INTRA.DIHEDRAL>
-0.00421309

>  <SCORE.INTRA.DIHEDRAL.0>
6.18831

>  <SCORE.INTRA.POLAR>
0

>  <SCORE.INTRA.POLAR.0>
0

>  <SCORE.INTRA.REPUL>
0

>  <SCORE.INTRA.REPUL.0>
0

>  <SCORE.INTRA.SOLV>
0.00788887

>  <SCORE.INTRA.SOLV.lig_0>
-44.3465

>  <SCORE.INTRA.VDW>
0.659835

>  <SCORE.INTRA.VDW.0>
-0.778272

>  <SCORE.INTRA.norm>
0.030076

>  <SCORE.RESTR>
1.45087

>  <SCORE.RESTR.CAVITY>
1.45087

>  <SCORE.RESTR.norm>
0.0659486

>  <SCORE.SYSTEM>
0

>  <SCORE.SYSTEM.CONST>
0

>  <SCORE.SYSTEM.DIHEDRAL>
0

>  <SCORE.SYSTEM.SOLV>
0

>  <SCORE.SYSTEM.norm>
0

>  <SCORE.heavy>
22

>  <SCORE.norm>
-0.279443

>  <RMSD>
14.680

$$$$
ligand
 OpenBabel11021811503D
libRbt.so/2013.1/901 2013/11/27
 22 24  0  0  0  0  0  0  0  0999 V2000
   -5.2721   -3.3841   12.9105 C   0  0  0  0  0  0  0  0  0  0  0  0
   -5.4028   -3.5036   11.5108 C   0  0  0  0  0  0  0  0  0  0  0  0
   -6.5956   -3.1251   10.9007 C   0  0  0  0  0  0  0  0  0  0  0  0
   -7.6498   -2.6312   11.6888 C   0  0  0  0  0  0  0  0  0  0  0  0
   -7.5233   -2.5197   13.0953 C   0  0  0  0  0  0  0  0  0  0  0  0
   -6.3334   -2.8983   13.7019 C   0  0  0  0  0  0  0  0  0  0  0  0
   -3.9650   -3.8154   13.6032 C   0  0  0  0  0  0  0  0  0  0  0  0
   -4.0722   -5.1018   14.4598 C   0  0  0  0  0  0  0  0  0  0  0  0
   -3.0548   -5.1729   15.5926 C   0  0  0  0  0  0  0  0  0  0  0  0
   -3.3882   -5.4319   16.9255 C   0  0  0  0  0  0  0  0  0  0  0  0
   -2.2271   -5.4218   17.6310 N   0  0  0  0  0  0  0  0  0  0  0  0
   -1.1300   -5.1681   16.8323 C   0  0  0  0  0  0  0  0  0  0  0  0
   -1.6044   -5.0059   15.5353 C   0  0  0  0  0  0  0  0  0  0  0  0
   -0.6283   -4.7309   14.5038 C   0  0  0  0  0  0  0  0  0  0  0  0
   -1.0311   -4.5653   13.1816 O   0  0  0  0  0  0  0  0  0  0  0  0
    0.7123   -4.6315   14.8516 N   0  0  0  0  0  0  0  0  0  0  0  0
    1.1337   -4.8082   16.1376 C   0  0  0  0  0  0  0  0  0  0  0  0
    0.2556   -5.0643   17.1200 N   0  0  0  0  0  0  0  0  0  0  0  0
    2.5624   -4.7098   16.4530 N   0  0  0  0  0  0  0  0  0  0  0  0
   -8.9305   -2.2343   11.0036 C   0  0  0  0  0  0  0  0  0  0  0  0
   -9.8286   -1.6873   11.6411 O   0  0  0  0  0  0  0  0  0  0  0  0
   -9.0827   -2.5122    9.6002 N   0  0  0  0  0  0  0  0  0  0  0  0
  1  2  2  0  0  0  0
  1  6  1  0  0  0  0
  1  7  1  0  0  0  0
  2  3  1  0  0  0  0
  3  4  2  0  0  0  0
  4  5  1  0  0  0  0
  4 20  1  0  0  0  0
  5  6  2  0  0  0  0
  7  8  1  0  0  0  0
  8  9  1  0  0  0  0
  9 10  2  0  0  0  0
  9 13  1  0  0  0  0
 10 11  1  0  0  0  0
 11 12  1  0  0  0  0
 12 13  2  0  0  0  0
 12 18  1  0  0  0  0
 13 14  1  0  0  0  0
 14 15  1  0  0  0  0
 14 16  2  0  0  0  0
 16 17  1  0  0  0  0
 17 18  2  0  0  0  0
 17 19  1  0  0  0  0
 20 21  2  0  0  0  0
 20 22  1  0  0  0  0
M  END
>  <CHROM.1>
-109.38242796,-173.44697429,-153.60298029,128.46518779,-3.74744104,-4.00360523
14.03253538,-2.57623791,-0.13261399,1.84742394

>  <Name>
ligand

>  <RI>
0

>  <Rbt.Current_Directory>
/home/itssahil/PROJECTS/Mol_Feturizer/New_Systems/rnas/4LVY

>  <Rbt.Executable>
rbdock ($Id: //depot/dev/client3/rdock/2013.1/src/exe/rbdock.cxx#4 $)

>  <Rbt.Library>
libRbt.so (2013.1, Build901 2013/11/27)

>  <Rbt.Parameter_File>
/export/apps/rDock/src/rDock_2013.1_src/data/scripts/dock_solv.prm

>  <Rbt.Receptor>
prm/blind_docking_20.prm

>  <SCORE>
-2.81432

>  <SCORE.INTER>
-6.05407

>  <SCORE.INTER.CONST>
1

>  <SCORE.INTER.POLAR>
0

>  <SCORE.INTER.ROT>
4

>  <SCORE.INTER.SOLV>
9.39158

>  <SCORE.INTER.VDW>
-13.4332

>  <SCORE.INTER.norm>
-0.275185

>  <SCORE.INTRA>
1.11141

>  <SCORE.INTRA.DIHEDRAL>
2.47084

>  <SCORE.INTRA.DIHEDRAL.0>
6.18831

>  <SCORE.INTRA.POLAR>
0

>  <SCORE.INTRA.POLAR.0>
0

>  <SCORE.INTRA.REPUL>
0

>  <SCORE.INTRA.REPUL.0>
0

>  <SCORE.INTRA.SOLV>
0.343795

>  <SCORE.INTRA.SOLV.lig_0>
-44.3465

>  <SCORE.INTRA.VDW>
-0.295914

>  <SCORE.INTRA.VDW.0>
-0.778272

>  <SCORE.INTRA.norm>
0.0505184

>  <SCORE.RESTR>
2.12834

>  <SCORE.RESTR.CAVITY>
2.12834

>  <SCORE.RESTR.norm>
0.0967429

>  <SCORE.SYSTEM>
0

>  <SCORE.SYSTEM.CONST>
0

>  <SCORE.SYSTEM.DIHEDRAL>
0

>  <SCORE.SYSTEM.SOLV>
0

>  <SCORE.SYSTEM.norm>
0

>  <SCORE.heavy>
22

>  <SCORE.norm>
-0.127924

>  <RMSD>
14.695

$$$$
ligand
 OpenBabel11021811503D
libRbt.so/2013.1/901 2013/11/27
 22 24  0  0  0  0  0  0  0  0999 V2000
   -2.1060   -4.5552   13.0369 C   0  0  0  0  0  0  0  0  0  0  0  0
   -1.6853   -5.3807   14.1009 C   0  0  0  0  0  0  0  0  0  0  0  0
   -0.5652   -5.0197   14.8447 C   0  0  0  0  0  0  0  0  0  0  0  0
    0.1283   -3.8399   14.5232 C   0  0  0  0  0  0  0  0  0  0  0  0
   -0.2874   -3.0150   13.4492 C   0  0  0  0  0  0  0  0  0  0  0  0
   -1.4041   -3.3771   12.7082 C   0  0  0  0  0  0  0  0  0  0  0  0
   -3.3330   -4.9498   12.1925 C   0  0  0  0  0  0  0  0  0  0  0  0
   -3.0510   -5.1502   10.6825 C   0  0  0  0  0  0  0  0  0  0  0  0
   -4.3083   -5.3418    9.8421 C   0  0  0  0  0  0  0  0  0  0  0  0
   -4.4381   -6.3102    8.8420 C   0  0  0  0  0  0  0  0  0  0  0  0
   -5.6879   -6.1782    8.3259 N   0  0  0  0  0  0  0  0  0  0  0  0
   -6.4026   -5.1656    8.9342 C   0  0  0  0  0  0  0  0  0  0  0  0
   -5.5714   -4.6098    9.9005 C   0  0  0  0  0  0  0  0  0  0  0  0
   -6.1065   -3.5178   10.6839 C   0  0  0  0  0  0  0  0  0  0  0  0
   -5.3331   -2.9191   11.6746 O   0  0  0  0  0  0  0  0  0  0  0  0
   -7.3980   -3.0749   10.4318 N   0  0  0  0  0  0  0  0  0  0  0  0
   -8.1820   -3.6578    9.4788 C   0  0  0  0  0  0  0  0  0  0  0  0
   -7.7179   -4.6728    8.7330 N   0  0  0  0  0  0  0  0  0  0  0  0
   -9.5459   -3.1653    9.2604 N   0  0  0  0  0  0  0  0  0  0  0  0
    1.3394   -3.4761   15.3407 C   0  0  0  0  0  0  0  0  0  0  0  0
    2.0088   -2.4872   15.0473 O   0  0  0  0  0  0  0  0  0  0  0  0
    1.6977   -4.3071   16.4592 N   0  0  0  0  0  0  0  0  0  0  0  0
  1  2  2  0  0  0  0
  1  6  1  0  0  0  0
  1  7  1  0  0  0  0
  2  3  1  0  0  0  0
  3  4  2  0  0  0  0
  4  5  1  0  0  0  0
  4 20  1  0  0  0  0
  5  6  2  0  0  0  0
  7  8  1  0  0  0  0
  8  9  1  0  0  0  0
  9 10  2  0  0  0  0
  9 13  1  0  0  0  0
 10 11  1  0  0  0  0
 11 12  1  0  0  0  0
 12 13  2  0  0  0  0
 12 18  1  0  0  0  0
 13 14  1  0  0  0  0
 14 15  1  0  0  0  0
 14 16  2  0  0  0  0
 16 17  1  0  0  0  0
 17 18  2  0  0  0  0
 17 19  1  0  0  0  0
 20 21  2  0  0  0  0
 20 22  1  0  0  0  0
M  END
>  <CHROM.1>
-120.11403088,176.42231749,-171.69240486,-135.84569251,-3.56204075,-4.24735807
11.75156815,-0.44169696,0.45336678,-2.41895863

>  <Name>
ligand

>  <RI>
0

>  <Rbt.Current_Directory>
/home/itssahil/PROJECTS/Mol_Feturizer/New_Systems/rnas/4LVY

>  <Rbt.Executable>
rbdock ($Id: //depot/dev/client3/rdock/2013.1/src/exe/rbdock.cxx#4 $)

>  <Rbt.Library>
libRbt.so (2013.1, Build901 2013/11/27)

>  <Rbt.Parameter_File>
/export/apps/rDock/src/rDock_2013.1_src/data/scripts/dock_solv.prm

>  <Rbt.Receptor>
prm/blind_docking_20.prm

>  <SCORE>
1.48868

>  <SCORE.INTER>
-1.89038

>  <SCORE.INTER.CONST>
1

>  <SCORE.INTER.POLAR>
0

>  <SCORE.INTER.ROT>
4

>  <SCORE.INTER.SOLV>
10.3433

>  <SCORE.INTER.VDW>
-10.9747

>  <SCORE.INTER.norm>
-0.0859265

>  <SCORE.INTRA>
0.386419

>  <SCORE.INTRA.DIHEDRAL>
0.326088

>  <SCORE.INTRA.DIHEDRAL.0>
6.18831

>  <SCORE.INTRA.POLAR>
0

>  <SCORE.INTRA.POLAR.0>
0

>  <SCORE.INTRA.REPUL>
0

>  <SCORE.INTRA.REPUL.0>
0

>  <SCORE.INTRA.SOLV>
0.389282

>  <SCORE.INTRA.SOLV.lig_0>
-44.3465

>  <SCORE.INTRA.VDW>
0.0287348

>  <SCORE.INTRA.VDW.0>
-0.778272

>  <SCORE.INTRA.norm>
0.0175645

>  <SCORE.RESTR>
2.99265

>  <SCORE.RESTR.CAVITY>
2.99265

>  <SCORE.RESTR.norm>
0.136029

>  <SCORE.SYSTEM>
0

>  <SCORE.SYSTEM.CONST>
0

>  <SCORE.SYSTEM.DIHEDRAL>
0

>  <SCORE.SYSTEM.SOLV>
0

>  <SCORE.SYSTEM.norm>
0

>  <SCORE.heavy>
22

>  <SCORE.norm>
0.0676675

>  <RMSD>
14.724

$$$$
ligand
 OpenBabel11021811503D
libRbt.so/2013.1/901 2013/11/27
 22 24  0  0  0  0  0  0  0  0999 V2000
   -5.6538   -5.1347   25.9363 C   0  0  0  0  0  0  0  0  0  0  0  0
   -4.4377   -5.4927   26.5556 C   0  0  0  0  0  0  0  0  0  0  0  0
   -4.0493   -4.8450   27.7252 C   0  0  0  0  0  0  0  0  0  0  0  0
   -4.8741   -3.8449   28.2691 C   0  0  0  0  0  0  0  0  0  0  0  0
   -6.0908   -3.4778   27.6432 C   0  0  0  0  0  0  0  0  0  0  0  0
   -6.4759   -4.1243   26.4767 C   0  0  0  0  0  0  0  0  0  0  0  0
   -6.0893   -5.8294   24.6318 C   0  0  0  0  0  0  0  0  0  0  0  0
   -6.5537   -4.8731   23.5049 C   0  0  0  0  0  0  0  0  0  0  0  0
   -7.4203   -5.5452   22.4462 C   0  0  0  0  0  0  0  0  0  0  0  0
   -8.8136   -5.6353   22.5207 C   0  0  0  0  0  0  0  0  0  0  0  0
   -9.2262   -6.2899   21.4039 N   0  0  0  0  0  0  0  0  0  0  0  0
   -8.1733   -6.6430   20.5836 C   0  0  0  0  0  0  0  0  0  0  0  0
   -7.0121   -6.1911   21.2008 C   0  0  0  0  0  0  0  0  0  0  0  0
   -5.7607   -6.4434   20.5207 C   0  0  0  0  0  0  0  0  0  0  0  0
   -4.5595   -6.0117   21.0766 O   0  0  0  0  0  0  0  0  0  0  0  0
   -5.7748   -7.1233   19.3101 N   0  0  0  0  0  0  0  0  0  0  0  0
   -6.9408   -7.5399   18.7362 C   0  0  0  0  0  0  0  0  0  0  0  0
   -8.1202   -7.3233   19.3395 N   0  0  0  0  0  0  0  0  0  0  0  0
   -6.9059   -8.2401   17.4481 N   0  0  0  0  0  0  0  0  0  0  0  0
   -4.4273   -3.1569   29.5318 C   0  0  0  0  0  0  0  0  0  0  0  0
   -3.5905   -2.2573   29.4825 O   0  0  0  0  0  0  0  0  0  0  0  0
   -4.9906   -3.5756   30.7877 N   0  0  0  0  0  0  0  0  0  0  0  0
  1  2  2  0  0  0  0
  1  6  1  0  0  0  0
  1  7  1  0  0  0  0
  2  3  1  0  0  0  0
  3  4  2  0  0  0  0
  4  5  1  0  0  0  0
  4 20  1  0  0  0  0
  5  6  2  0  0  0  0
  7  8  1  0  0  0  0
  8  9  1  0  0  0  0
  9 10  2  0  0  0  0
  9 13  1  0  0  0  0
 10 11  1  0  0  0  0
 11 12  1  0  0  0  0
 12 13  2  0  0  0  0
 12 18  1  0  0  0  0
 13 14  1  0  0  0  0
 14 15  1  0  0  0  0
 14 16  2  0  0  0  0
 16 17  1  0  0  0  0
 17 18  2  0  0  0  0
 17 19  1  0  0  0  0
 20 21  2  0  0  0  0
 20 22  1  0  0  0  0
M  END
>  <CHROM.1>
-131.78946907,79.91278819,-159.54748465,89.62713378,-6.15121012,-5.43624011
23.83457971,-1.32614732,0.04296382,-1.93974101

>  <Name>
ligand

>  <RI>
0

>  <Rbt.Current_Directory>
/home/itssahil/PROJECTS/Mol_Feturizer/New_Systems/rnas/4LVY

>  <Rbt.Executable>
rbdock ($Id: //depot/dev/client3/rdock/2013.1/src/exe/rbdock.cxx#4 $)

>  <Rbt.Library>
libRbt.so (2013.1, Build901 2013/11/27)

>  <Rbt.Parameter_File>
/export/apps/rDock/src/rDock_2013.1_src/data/scripts/dock_solv.prm

>  <Rbt.Receptor>
prm/blind_docking_40.prm

>  <SCORE>
-9.72064

>  <SCORE.INTER>
-10.2472

>  <SCORE.INTER.CONST>
1

>  <SCORE.INTER.POLAR>
0

>  <SCORE.INTER.ROT>
4

>  <SCORE.INTER.SOLV>
6.60375

>  <SCORE.INTER.VDW>
-15.2994

>  <SCORE.INTER.norm>
-0.46578

>  <SCORE.INTRA>
0.526533

>  <SCORE.INTRA.DIHEDRAL>
1.71275

>  <SCORE.INTRA.DIHEDRAL.0>
6.18831

>  <SCORE.INTRA.POLAR>
0

>  <SCORE.INTRA.POLAR.0>
0

>  <SCORE.INTRA.REPUL>
0

>  <SCORE.INTRA.REPUL.0>
0

>  <SCORE.INTRA.SOLV>
0.147424

>  <SCORE.INTRA.SOLV.lig_0>
-44.3465

>  <SCORE.INTRA.VDW>
-0.403556

>  <SCORE.INTRA.VDW.0>
-0.778272

>  <SCORE.INTRA.norm>
0.0239333

>  <SCORE.RESTR>
0

>  <SCORE.RESTR.CAVITY>
0

>  <SCORE.RESTR.norm>
0

>  <SCORE.SYSTEM>
0

>  <SCORE.SYSTEM.CONST>
0

>  <SCORE.SYSTEM.DIHEDRAL>
0

>  <SCORE.SYSTEM.SOLV>
0

>  <SCORE.SYSTEM.norm>
0

>  <SCORE.heavy>
22

>  <SCORE.norm>
-0.441847

>  <RMSD>
14.749

$$$$
ligand
 OpenBabel11021811503D
libRbt.so/2013.1/901 2013/11/27
 22 24  0  0  0  0  0  0  0  0999 V2000
   -5.7287   -6.3331   24.4889 C   0  0  0  0  0  0  0  0  0  0  0  0
   -6.0292   -5.3278   23.5456 C   0  0  0  0  0  0  0  0  0  0  0  0
   -7.0519   -5.5381   22.6247 C   0  0  0  0  0  0  0  0  0  0  0  0
   -7.7674   -6.7479   22.6491 C   0  0  0  0  0  0  0  0  0  0  0  0
   -7.4605   -7.7619   23.5895 C   0  0  0  0  0  0  0  0  0  0  0  0
   -6.4399   -7.5507   24.5065 C   0  0  0  0  0  0  0  0  0  0  0  0
   -4.5880   -6.1234   25.5033 C   0  0  0  0  0  0  0  0  0  0  0  0
   -5.0476   -5.8504   26.9574 C   0  0  0  0  0  0  0  0  0  0  0  0
   -6.0319   -4.6934   27.0844 C   0  0  0  0  0  0  0  0  0  0  0  0
   -6.3833   -3.8484   26.0273 C   0  0  0  0  0  0  0  0  0  0  0  0
   -7.2789   -2.9532   26.5198 N   0  0  0  0  0  0  0  0  0  0  0  0
   -7.5444   -3.1592   27.8589 C   0  0  0  0  0  0  0  0  0  0  0  0
   -6.7802   -4.2500   28.2584 C   0  0  0  0  0  0  0  0  0  0  0  0
   -6.8925   -4.6656   29.6393 C   0  0  0  0  0  0  0  0  0  0  0  0
   -6.1626   -5.7552   30.1065 O   0  0  0  0  0  0  0  0  0  0  0  0
   -7.7341   -3.9619   30.4903 N   0  0  0  0  0  0  0  0  0  0  0  0
   -8.4737   -2.9023   30.0513 C   0  0  0  0  0  0  0  0  0  0  0  0
   -8.3940   -2.4889   28.7767 N   0  0  0  0  0  0  0  0  0  0  0  0
   -9.3612   -2.2006   30.9843 N   0  0  0  0  0  0  0  0  0  0  0  0
   -8.8648   -6.9510   21.6383 C   0  0  0  0  0  0  0  0  0  0  0  0
   -9.8291   -6.1885   21.6114 O   0  0  0  0  0  0  0  0  0  0  0  0
   -8.7653   -8.0512   20.7164 N   0  0  0  0  0  0  0  0  0  0  0  0
  1  2  2  0  0  0  0
  1  6  1  0  0  0  0
  1  7  1  0  0  0  0
  2  3  1  0  0  0  0
  3  4  2  0  0  0  0
  4  5  1  0  0  0  0
  4 20  1  0  0  0  0
  5  6  2  0  0  0  0
  7  8  1  0  0  0  0
  8  9  1  0  0  0  0
  9 10  2  0  0  0  0
  9 13  1  0  0  0  0
 10 11  1  0  0  0  0
 11 12  1  0  0  0  0
 12 13  2  0  0  0  0
 12 18  1  0  0  0  0
 13 14  1  0  0  0  0
 14 15  1  0  0  0  0
 14 16  2  0  0  0  0
 16 17  1  0  0  0  0
 17 18  2  0  0  0  0
 17 19  1  0  0  0  0
 20 21  2  0  0  0  0
 20 22  1  0  0  0  0
M  END
>  <CHROM.1>
106.83898398,-60.56171041,-53.75981532,-6.94609976,-7.23599428,-5.14230176
26.11986935,-1.60855564,-0.48946877,1.12779579

>  <Name>
ligand

>  <RI>
0

>  <Rbt.Current_Directory>
/home/itssahil/PROJECTS/Mol_Feturizer/New_Systems/rnas/4LVY

>  <Rbt.Executable>
rbdock ($Id: //depot/dev/client3/rdock/2013.1/src/exe/rbdock.cxx#4 $)

>  <Rbt.Library>
libRbt.so (2013.1, Build901 2013/11/27)

>  <Rbt.Parameter_File>
/export/apps/rDock/src/rDock_2013.1_src/data/scripts/dock_solv.prm

>  <Rbt.Receptor>
prm/blind_docking_40.prm

>  <SCORE>
-12.31

>  <SCORE.INTER>
-12.2178

>  <SCORE.INTER.CONST>
1

>  <SCORE.INTER.POLAR>
0

>  <SCORE.INTER.ROT>
4

>  <SCORE.INTER.SOLV>
10.5361

>  <SCORE.INTER.VDW>
-17.9239

>  <SCORE.INTER.norm>
-0.555354

>  <SCORE.INTRA>
-0.0922497

>  <SCORE.INTRA.DIHEDRAL>
0.245103

>  <SCORE.INTRA.DIHEDRAL.0>
6.18831

>  <SCORE.INTRA.POLAR>
0

>  <SCORE.INTRA.POLAR.0>
0

>  <SCORE.INTRA.REPUL>
0

>  <SCORE.INTRA.REPUL.0>
0

>  <SCORE.INTRA.SOLV>
-0.00396083

>  <SCORE.INTRA.SOLV.lig_0>
-44.3465

>  <SCORE.INTRA.VDW>
-0.212821

>  <SCORE.INTRA.VDW.0>
-0.778272

>  <SCORE.INTRA.norm>
-0.00419317

>  <SCORE.RESTR>
0

>  <SCORE.RESTR.CAVITY>
0

>  <SCORE.RESTR.norm>
0

>  <SCORE.SYSTEM>
0

>  <SCORE.SYSTEM.CONST>
0

>  <SCORE.SYSTEM.DIHEDRAL>
0

>  <SCORE.SYSTEM.SOLV>
0

>  <SCORE.SYSTEM.norm>
0

>  <SCORE.heavy>
22

>  <SCORE.norm>
-0.559547

>  <RMSD>
14.760

$$$$
ligand
 OpenBabel11021811503D
libRbt.so/2013.1/901 2013/11/27
 22 24  0  0  0  0  0  0  0  0999 V2000
   -6.1460   -4.5270   25.8541 C   0  0  0  0  0  0  0  0  0  0  0  0
   -6.6531   -3.2204   26.0161 C   0  0  0  0  0  0  0  0  0  0  0  0
   -6.0476   -2.3602   26.9282 C   0  0  0  0  0  0  0  0  0  0  0  0
   -4.9422   -2.8075   27.6728 C   0  0  0  0  0  0  0  0  0  0  0  0
   -4.4379   -4.1223   27.5179 C   0  0  0  0  0  0  0  0  0  0  0  0
   -5.0435   -4.9787   26.6085 C   0  0  0  0  0  0  0  0  0  0  0  0
   -6.8157   -5.4971   24.8619 C   0  0  0  0  0  0  0  0  0  0  0  0
   -5.8360   -6.3634   24.0316 C   0  0  0  0  0  0  0  0  0  0  0  0
   -6.5256   -7.2893   23.0362 C   0  0  0  0  0  0  0  0  0  0  0  0
   -7.3521   -8.3549   23.4054 C   0  0  0  0  0  0  0  0  0  0  0  0
   -7.7817   -8.9369   22.2553 N   0  0  0  0  0  0  0  0  0  0  0  0
   -7.2813   -8.3102   21.1314 C   0  0  0  0  0  0  0  0  0  0  0  0
   -6.4835   -7.2617   21.5760 C   0  0  0  0  0  0  0  0  0  0  0  0
   -5.8436   -6.4446   20.5684 C   0  0  0  0  0  0  0  0  0  0  0  0
   -5.0374   -5.3726   20.9412 O   0  0  0  0  0  0  0  0  0  0  0  0
   -6.0422   -6.7464   19.2277 N   0  0  0  0  0  0  0  0  0  0  0  0
   -6.8427   -7.7804   18.8373 C   0  0  0  0  0  0  0  0  0  0  0  0
   -7.4517   -8.5595   19.7450 N   0  0  0  0  0  0  0  0  0  0  0  0
   -7.0348   -8.0498   17.4086 N   0  0  0  0  0  0  0  0  0  0  0  0
   -4.3100   -1.8583   28.6559 C   0  0  0  0  0  0  0  0  0  0  0  0
   -4.9778   -0.9596   29.1642 O   0  0  0  0  0  0  0  0  0  0  0  0
   -2.9176   -2.0196   28.9803 N   0  0  0  0  0  0  0  0  0  0  0  0
  1  2  2  0  0  0  0
  1  6  1  0  0  0  0
  1  7  1  0  0  0  0
  2  3  1  0  0  0  0
  3  4  2  0  0  0  0
  4  5  1  0  0  0  0
  4 20  1  0  0  0  0
  5  6  2  0  0  0  0
  7  8  1  0  0  0  0
  8  9  1  0  0  0  0
  9 10  2  0  0  0  0
  9 13  1  0  0  0  0
 10 11  1  0  0  0  0
 11 12  1  0  0  0  0
 12 13  2  0  0  0  0
 12 18  1  0  0  0  0
 13 14  1  0  0  0  0
 14 15  1  0  0  0  0
 14 16  2  0  0  0  0
 16 17  1  0  0  0  0
 17 18  2  0  0  0  0
 17 19  1  0  0  0  0
 20 21  2  0  0  0  0
 20 22  1  0  0  0  0
M  END
>  <CHROM.1>
139.34737271,26.68841948,-178.64401060,-65.54457430,-5.97727130,-5.52292995
23.79922209,1.15403667,1.02627095,1.35179326

>  <Name>
ligand

>  <RI>
0

>  <Rbt.Current_Directory>
/home/itssahil/PROJECTS/Mol_Feturizer/New_Systems/rnas/4LVY

>  <Rbt.Executable>
rbdock ($Id: //depot/dev/client3/rdock/2013.1/src/exe/rbdock.cxx#4 $)

>  <Rbt.Library>
libRbt.so (2013.1, Build901 2013/11/27)

>  <Rbt.Parameter_File>
/export/apps/rDock/src/rDock_2013.1_src/data/scripts/dock_solv.prm

>  <Rbt.Receptor>
prm/blind_docking_40.prm

>  <SCORE>
-8.27981

>  <SCORE.INTER>
-8.34012

>  <SCORE.INTER.CONST>
1

>  <SCORE.INTER.POLAR>
0

>  <SCORE.INTER.ROT>
4

>  <SCORE.INTER.SOLV>
8.14256

>  <SCORE.INTER.VDW>
-14.5409

>  <SCORE.INTER.norm>
-0.379096

>  <SCORE.INTRA>
0.0603032

>  <SCORE.INTRA.DIHEDRAL>
-0.0667841

>  <SCORE.INTRA.DIHEDRAL.0>
6.18831

>  <SCORE.INTRA.POLAR>
0

>  <SCORE.INTRA.POLAR.0>
0

>  <SCORE.INTRA.REPUL>
0

>  <SCORE.INTRA.REPUL.0>
0

>  <SCORE.INTRA.SOLV>
0.068948

>  <SCORE.INTRA.SOLV.lig_0>
-44.3465

>  <SCORE.INTRA.VDW>
0.0592212

>  <SCORE.INTRA.VDW.0>
-0.778272

>  <SCORE.INTRA.norm>
0.00274105

>  <SCORE.RESTR>
0

>  <SCORE.RESTR.CAVITY>
0

>  <SCORE.RESTR.norm>
0

>  <SCORE.SYSTEM>
0

>  <SCORE.SYSTEM.CONST>
0

>  <SCORE.SYSTEM.DIHEDRAL>
0

>  <SCORE.SYSTEM.SOLV>
0

>  <SCORE.SYSTEM.norm>
0

>  <SCORE.heavy>
22

>  <SCORE.norm>
-0.376355

>  <RMSD>
14.763

$$$$
ligand
 OpenBabel11021811503D
libRbt.so/2013.1/901 2013/11/27
 22 24  0  0  0  0  0  0  0  0999 V2000
   -5.2693   -6.3297   21.4347 C   0  0  0  0  0  0  0  0  0  0  0  0
   -5.0708   -5.1749   20.6488 C   0  0  0  0  0  0  0  0  0  0  0  0
   -3.8271   -4.9511   20.0645 C   0  0  0  0  0  0  0  0  0  0  0  0
   -2.7900   -5.8781   20.2676 C   0  0  0  0  0  0  0  0  0  0  0  0
   -2.9852   -7.0332   21.0642 C   0  0  0  0  0  0  0  0  0  0  0  0
   -4.2258   -7.2543   21.6465 C   0  0  0  0  0  0  0  0  0  0  0  0
   -6.6344   -6.5831   22.1029 C   0  0  0  0  0  0  0  0  0  0  0  0
   -7.8589   -6.4379   21.1652 C   0  0  0  0  0  0  0  0  0  0  0  0
   -9.1951   -6.4105   21.8981 C   0  0  0  0  0  0  0  0  0  0  0  0
  -10.0576   -5.3101   21.9071 C   0  0  0  0  0  0  0  0  0  0  0  0
  -11.1376   -5.6622   22.6526 N   0  0  0  0  0  0  0  0  0  0  0  0
  -11.0390   -6.9487   23.1440 C   0  0  0  0  0  0  0  0  0  0  0  0
   -9.8284   -7.4616   22.6912 C   0  0  0  0  0  0  0  0  0  0  0  0
   -9.4980   -8.8156   23.0782 C   0  0  0  0  0  0  0  0  0  0  0  0
   -8.3060   -9.3964   22.6541 O   0  0  0  0  0  0  0  0  0  0  0  0
  -10.3833   -9.5244   23.8794 N   0  0  0  0  0  0  0  0  0  0  0  0
  -11.5661   -8.9833   24.2924 C   0  0  0  0  0  0  0  0  0  0  0  0
  -11.9049   -7.7297   23.9526 N   0  0  0  0  0  0  0  0  0  0  0  0
  -12.4761   -9.7773   25.1243 N   0  0  0  0  0  0  0  0  0  0  0  0
   -1.4535   -5.6085   19.6284 C   0  0  0  0  0  0  0  0  0  0  0  0
   -1.3332   -5.6533   18.4055 O   0  0  0  0  0  0  0  0  0  0  0  0
   -0.3281   -5.3065   20.4723 N   0  0  0  0  0  0  0  0  0  0  0  0
  1  2  2  0  0  0  0
  1  6  1  0  0  0  0
  1  7  1  0  0  0  0
  2  3  1  0  0  0  0
  3  4  2  0  0  0  0
  4  5  1  0  0  0  0
  4 20  1  0  0  0  0
  5  6  2  0  0  0  0
  7  8  1  0  0  0  0
  8  9  1  0  0  0  0
  9 10  2  0  0  0  0
  9 13  1  0  0  0  0
 10 11  1  0  0  0  0
 11 12  1  0  0  0  0
 12 13  2  0  0  0  0
 12 18  1  0  0  0  0
 13 14  1  0  0  0  0
 14 15  1  0  0  0  0
 14 16  2  0  0  0  0
 16 17  1  0  0  0  0
 17 18  2  0  0  0  0
 17 19  1  0  0  0  0
 20 21  2  0  0  0  0
 20 22  1  0  0  0  0
M  END
>  <CHROM.1>
49.05504618,-67.88194753,-168.18548606,115.95647454,-7.15395724,-6.95438552
21.91967433,-0.39320852,-0.24458864,2.69288166

>  <Name>
ligand

>  <RI>
0

>  <Rbt.Current_Directory>
/home/itssahil/PROJECTS/Mol_Feturizer/New_Systems/rnas/4LVY

>  <Rbt.Executable>
rbdock ($Id: //depot/dev/client3/rdock/2013.1/src/exe/rbdock.cxx#4 $)

>  <Rbt.Library>
libRbt.so (2013.1, Build901 2013/11/27)

>  <Rbt.Parameter_File>
/export/apps/rDock/src/rDock_2013.1_src/data/scripts/dock_solv.prm

>  <Rbt.Receptor>
prm/blind_docking_60.prm

>  <SCORE>
-10.3843

>  <SCORE.INTER>
-10.2737

>  <SCORE.INTER.CONST>
1

>  <SCORE.INTER.POLAR>
0

>  <SCORE.INTER.ROT>
4

>  <SCORE.INTER.SOLV>
7.24095

>  <SCORE.INTER.VDW>
-15.5295

>  <SCORE.INTER.norm>
-0.466987

>  <SCORE.INTRA>
-0.110575

>  <SCORE.INTRA.DIHEDRAL>
0.542338

>  <SCORE.INTRA.DIHEDRAL.0>
6.18831

>  <SCORE.INTRA.POLAR>
0

>  <SCORE.INTRA.POLAR.0>
0

>  <SCORE.INTRA.REPUL>
0

>  <SCORE.INTRA.REPUL.0>
0

>  <SCORE.INTRA.SOLV>
0.27003

>  <SCORE.INTRA.SOLV.lig_0>
-44.3465

>  <SCORE.INTRA.VDW>
-0.516759

>  <SCORE.INTRA.VDW.0>
-0.778272

>  <SCORE.INTRA.norm>
-0.00502612

>  <SCORE.RESTR>
0

>  <SCORE.RESTR.CAVITY>
0

>  <SCORE.RESTR.norm>
0

>  <SCORE.SYSTEM>
0

>  <SCORE.SYSTEM.CONST>
0

>  <SCORE.SYSTEM.DIHEDRAL>
0

>  <SCORE.SYSTEM.SOLV>
0

>  <SCORE.SYSTEM.norm>
0

>  <SCORE.heavy>
22

>  <SCORE.norm>
-0.472013

>  <RMSD>
14.813

$$$$
ligand
 OpenBabel11021811503D
libRbt.so/2013.1/901 2013/11/27
 22 24  0  0  0  0  0  0  0  0999 V2000
   -6.3041   -3.1382   13.1461 C   0  0  0  0  0  0  0  0  0  0  0  0
   -5.8197   -2.2780   12.1381 C   0  0  0  0  0  0  0  0  0  0  0  0
   -6.6485   -1.9391   11.0720 C   0  0  0  0  0  0  0  0  0  0  0  0
   -7.9532   -2.4598   11.0168 C   0  0  0  0  0  0  0  0  0  0  0  0
   -8.4376   -3.3311   12.0233 C   0  0  0  0  0  0  0  0  0  0  0  0
   -7.6094   -3.6685   13.0851 C   0  0  0  0  0  0  0  0  0  0  0  0
   -5.3935   -3.5373   14.3233 C   0  0  0  0  0  0  0  0  0  0  0  0
   -4.0165   -4.1192   13.9171 C   0  0  0  0  0  0  0  0  0  0  0  0
   -3.1017   -4.4172   15.0995 C   0  0  0  0  0  0  0  0  0  0  0  0
   -3.5592   -4.8206   16.3576 C   0  0  0  0  0  0  0  0  0  0  0  0
   -2.4613   -4.9939   17.1389 N   0  0  0  0  0  0  0  0  0  0  0  0
   -1.2881   -4.7254   16.4623 C   0  0  0  0  0  0  0  0  0  0  0  0
   -1.6434   -4.3588   15.1689 C   0  0  0  0  0  0  0  0  0  0  0  0
   -0.5702   -4.0295   14.2567 C   0  0  0  0  0  0  0  0  0  0  0  0
   -0.8521   -3.6619   12.9439 O   0  0  0  0  0  0  0  0  0  0  0  0
    0.7413   -4.0821   14.7095 N   0  0  0  0  0  0  0  0  0  0  0  0
    1.0438   -4.4575   15.9863 C   0  0  0  0  0  0  0  0  0  0  0  0
    0.0734   -4.7694   16.8597 N   0  0  0  0  0  0  0  0  0  0  0  0
    2.4456   -4.5137   16.4133 N   0  0  0  0  0  0  0  0  0  0  0  0
   -8.8262   -2.0811    9.8500 C   0  0  0  0  0  0  0  0  0  0  0  0
   -9.7959   -1.3437   10.0173 O   0  0  0  0  0  0  0  0  0  0  0  0
   -8.5084   -2.6015    8.5468 N   0  0  0  0  0  0  0  0  0  0  0  0
  1  2  2  0  0  0  0
  1  6  1  0  0  0  0
  1  7  1  0  0  0  0
  2  3  1  0  0  0  0
  3  4  2  0  0  0  0
  4  5  1  0  0  0  0
  4 20  1  0  0  0  0
  5  6  2  0  0  0  0
  7  8  1  0  0  0  0
  8  9  1  0  0  0  0
  9 10  2  0  0  0  0
  9 13  1  0  0  0  0
 10 11  1  0  0  0  0
 11 12  1  0  0  0  0
 12 13  2  0  0  0  0
 12 18  1  0  0  0  0
 13 14  1  0  0  0  0
 14 15  1  0  0  0  0
 14 16  2  0  0  0  0
 16 17  1  0  0  0  0
 17 18  2  0  0  0  0
 17 19  1  0  0  0  0
 20 21  2  0  0  0  0
 20 22  1  0  0  0  0
M  END
>  <CHROM.1>
-52.73961270,-110.42551052,176.10421006,32.04737334,-3.98146612,-3.59863298
13.64369744,2.54591445,0.02007111,-1.20865999

>  <Name>
ligand

>  <RI>
0

>  <Rbt.Current_Directory>
/home/itssahil/PROJECTS/Mol_Feturizer/New_Systems/rnas/4LVY

>  <Rbt.Executable>
rbdock ($Id: //depot/dev/client3/rdock/2013.1/src/exe/rbdock.cxx#4 $)

>  <Rbt.Library>
libRbt.so (2013.1, Build901 2013/11/27)

>  <Rbt.Parameter_File>
/export/apps/rDock/src/rDock_2013.1_src/data/scripts/dock_solv.prm

>  <Rbt.Receptor>
prm/blind_docking_20.prm

>  <SCORE>
-6.93959

>  <SCORE.INTER>
-8.30286

>  <SCORE.INTER.CONST>
1

>  <SCORE.INTER.POLAR>
0

>  <SCORE.INTER.ROT>
4

>  <SCORE.INTER.SOLV>
7.99354

>  <SCORE.INTER.VDW>
-14.4664

>  <SCORE.INTER.norm>
-0.377403

>  <SCORE.INTRA>
0.0477847

>  <SCORE.INTRA.DIHEDRAL>
0.0738892

>  <SCORE.INTRA.DIHEDRAL.0>
6.18831

>  <SCORE.INTRA.POLAR>
0

>  <SCORE.INTRA.POLAR.0>
0

>  <SCORE.INTRA.REPUL>
0

>  <SCORE.INTRA.REPUL.0>
0

>  <SCORE.INTRA.SOLV>
-0.00488224

>  <SCORE.INTRA.SOLV.lig_0>
-44.3465

>  <SCORE.INTRA.VDW>
0.0132812

>  <SCORE.INTRA.VDW.0>
-0.778272

>  <SCORE.INTRA.norm>
0.00217203

>  <SCORE.RESTR>
1.31549

>  <SCORE.RESTR.CAVITY>
1.31549

>  <SCORE.RESTR.norm>
0.0597949

>  <SCORE.SYSTEM>
0

>  <SCORE.SYSTEM.CONST>
0

>  <SCORE.SYSTEM.DIHEDRAL>
0

>  <SCORE.SYSTEM.SOLV>
0

>  <SCORE.SYSTEM.norm>
0

>  <SCORE.heavy>
22

>  <SCORE.norm>
-0.315436

>  <RMSD>
14.821

$$$$
ligand
 OpenBabel11021811503D
libRbt.so/2013.1/901 2013/11/27
 22 24  0  0  0  0  0  0  0  0999 V2000
   -6.3494   -3.2533   13.2205 C   0  0  0  0  0  0  0  0  0  0  0  0
   -7.5941   -2.6359   13.4660 C   0  0  0  0  0  0  0  0  0  0  0  0
   -8.4498   -2.3746   12.3993 C   0  0  0  0  0  0  0  0  0  0  0  0
   -8.0598   -2.7291   11.0961 C   0  0  0  0  0  0  0  0  0  0  0  0
   -6.8063   -3.3404   10.8471 C   0  0  0  0  0  0  0  0  0  0  0  0
   -5.9542   -3.5995   11.9119 C   0  0  0  0  0  0  0  0  0  0  0  0
   -5.3833   -3.5330   14.3877 C   0  0  0  0  0  0  0  0  0  0  0  0
   -3.9954   -4.0808   13.9712 C   0  0  0  0  0  0  0  0  0  0  0  0
   -3.0882   -4.4173   15.1491 C   0  0  0  0  0  0  0  0  0  0  0  0
   -3.5531   -4.8707   16.3873 C   0  0  0  0  0  0  0  0  0  0  0  0
   -2.4603   -5.0665   17.1706 N   0  0  0  0  0  0  0  0  0  0  0  0
   -1.2836   -4.7652   16.5143 C   0  0  0  0  0  0  0  0  0  0  0  0
   -1.6309   -4.3524   15.2327 C   0  0  0  0  0  0  0  0  0  0  0  0
   -0.5526   -3.9822   14.3425 C   0  0  0  0  0  0  0  0  0  0  0  0
   -0.8264   -3.5672   13.0421 O   0  0  0  0  0  0  0  0  0  0  0  0
    0.7556   -4.0436   14.8038 N   0  0  0  0  0  0  0  0  0  0  0  0
    1.0502   -4.4648   16.0680 C   0  0  0  0  0  0  0  0  0  0  0  0
    0.0749   -4.8156   16.9210 N   0  0  0  0  0  0  0  0  0  0  0  0
    2.4489   -4.5283   16.5042 N   0  0  0  0  0  0  0  0  0  0  0  0
   -9.0023   -2.4302    9.9605 C   0  0  0  0  0  0  0  0  0  0  0  0
   -9.1891   -3.2643    9.0765 O   0  0  0  0  0  0  0  0  0  0  0  0
   -9.6693   -1.1558    9.9284 N   0  0  0  0  0  0  0  0  0  0  0  0
  1  2  2  0  0  0  0
  1  6  1  0  0  0  0
  1  7  1  0  0  0  0
  2  3  1  0  0  0  0
  3  4  2  0  0  0  0
  4  5  1  0  0  0  0
  4 20  1  0  0  0  0
  5  6  2  0  0  0  0
  7  8  1  0  0  0  0
  8  9  1  0  0  0  0
  9 10  2  0  0  0  0
  9 13  1  0  0  0  0
 10 11  1  0  0  0  0
 11 12  1  0  0  0  0
 12 13  2  0  0  0  0
 12 18  1  0  0  0  0
 13 14  1  0  0  0  0
 14 15  1  0  0  0  0
 14 16  2  0  0  0  0
 16 17  1  0  0  0  0
 17 18  2  0  0  0  0
 17 19  1  0  0  0  0
 20 21  2  0  0  0  0
 20 22  1  0  0  0  0
M  END
>  <CHROM.1>
-174.06985811,-137.02186149,-176.94327649,31.63260852,-4.02376352,-3.69589238
13.72277059,2.56851989,0.06511860,-1.31634953

>  <Name>
ligand

>  <RI>
0

>  <Rbt.Current_Directory>
/home/itssahil/PROJECTS/Mol_Feturizer/New_Systems/rnas/4LVY

>  <Rbt.Executable>
rbdock ($Id: //depot/dev/client3/rdock/2013.1/src/exe/rbdock.cxx#4 $)

>  <Rbt.Library>
libRbt.so (2013.1, Build901 2013/11/27)

>  <Rbt.Parameter_File>
/export/apps/rDock/src/rDock_2013.1_src/data/scripts/dock_solv.prm

>  <Rbt.Receptor>
prm/blind_docking_20.prm

>  <SCORE>
-5.13771

>  <SCORE.INTER>
-7.30297

>  <SCORE.INTER.CONST>
1

>  <SCORE.INTER.POLAR>
0

>  <SCORE.INTER.ROT>
4

>  <SCORE.INTER.SOLV>
9.90492

>  <SCORE.INTER.VDW>
-14.437

>  <SCORE.INTER.norm>
-0.331953

>  <SCORE.INTRA>
0.824921

>  <SCORE.INTRA.DIHEDRAL>
0.0792982

>  <SCORE.INTRA.DIHEDRAL.0>
6.18831

>  <SCORE.INTRA.POLAR>
0

>  <SCORE.INTRA.POLAR.0>
0

>  <SCORE.INTRA.REPUL>
0

>  <SCORE.INTRA.REPUL.0>
0

>  <SCORE.INTRA.SOLV>
0.00230249

>  <SCORE.INTRA.SOLV.lig_0>
-44.3465

>  <SCORE.INTRA.VDW>
0.78412

>  <SCORE.INTRA.VDW.0>
-0.778272

>  <SCORE.INTRA.norm>
0.0374964

>  <SCORE.RESTR>
1.34033

>  <SCORE.RESTR.CAVITY>
1.34033

>  <SCORE.RESTR.norm>
0.0609243

>  <SCORE.SYSTEM>
0

>  <SCORE.SYSTEM.CONST>
0

>  <SCORE.SYSTEM.DIHEDRAL>
0

>  <SCORE.SYSTEM.SOLV>
0

>  <SCORE.SYSTEM.norm>
0

>  <SCORE.heavy>
22

>  <SCORE.norm>
-0.233532

>  <RMSD>
14.850

$$$$
ligand
 OpenBabel11021811503D
libRbt.so/2013.1/901 2013/11/27
 22 24  0  0  0  0  0  0  0  0999 V2000
   -6.3207   -3.1894   13.0619 C   0  0  0  0  0  0  0  0  0  0  0  0
   -5.8868   -2.3234   12.0361 C   0  0  0  0  0  0  0  0  0  0  0  0
   -6.7339   -2.0547   10.9644 C   0  0  0  0  0  0  0  0  0  0  0  0
   -8.0063   -2.6507   10.9214 C   0  0  0  0  0  0  0  0  0  0  0  0
   -8.4396   -3.5279   11.9459 C   0  0  0  0  0  0  0  0  0  0  0  0
   -7.5933   -3.7952   13.0134 C   0  0  0  0  0  0  0  0  0  0  0  0
   -5.3886   -3.5113   14.2458 C   0  0  0  0  0  0  0  0  0  0  0  0
   -4.0104   -4.0991   13.8524 C   0  0  0  0  0  0  0  0  0  0  0  0
   -3.1019   -4.3867   15.0421 C   0  0  0  0  0  0  0  0  0  0  0  0
   -3.5657   -4.7853   16.2995 C   0  0  0  0  0  0  0  0  0  0  0  0
   -2.4721   -4.9496   17.0887 N   0  0  0  0  0  0  0  0  0  0  0  0
   -1.2958   -4.6795   16.4183 C   0  0  0  0  0  0  0  0  0  0  0  0
   -1.6444   -4.3215   15.1206 C   0  0  0  0  0  0  0  0  0  0  0  0
   -0.5668   -3.9923   14.2136 C   0  0  0  0  0  0  0  0  0  0  0  0
   -0.8418   -3.6331   12.8970 O   0  0  0  0  0  0  0  0  0  0  0  0
    0.7420   -4.0368   14.6750 N   0  0  0  0  0  0  0  0  0  0  0  0
    1.0379   -4.4039   15.9557 C   0  0  0  0  0  0  0  0  0  0  0  0
    0.0633   -4.7154   16.8245 N   0  0  0  0  0  0  0  0  0  0  0  0
    2.4372   -4.4516   16.3919 N   0  0  0  0  0  0  0  0  0  0  0  0
   -8.8998   -2.3468    9.7481 C   0  0  0  0  0  0  0  0  0  0  0  0
   -8.8811   -3.0697    8.7536 O   0  0  0  0  0  0  0  0  0  0  0  0
   -9.7641   -1.1983    9.8122 N   0  0  0  0  0  0  0  0  0  0  0  0
  1  2  2  0  0  0  0
  1  6  1  0  0  0  0
  1  7  1  0  0  0  0
  2  3  1  0  0  0  0
  3  4  2  0  0  0  0
  4  5  1  0  0  0  0
  4 20  1  0  0  0  0
  5  6  2  0  0  0  0
  7  8  1  0  0  0  0
  8  9  1  0  0  0  0
  9 10  2  0  0  0  0
  9 13  1  0  0  0  0
 10 11  1  0  0  0  0
 11 12  1  0  0  0  0
 12 13  2  0  0  0  0
 12 18  1  0  0  0  0
 13 14  1  0  0  0  0
 14 15  1  0  0  0  0
 14 16  2  0  0  0  0
 16 17  1  0  0  0  0
 17 18  2  0  0  0  0
 17 19  1  0  0  0  0
 20 21  2  0  0  0  0
 20 22  1  0  0  0  0
M  END
>  <CHROM.1>
-56.16105352,91.60409752,179.07844100,32.47816805,-4.00463853,-3.64408349
13.57979711,2.55218780,-0.00316652,-1.21922837

>  <Name>
ligand

>  <RI>
0

>  <Rbt.Current_Directory>
/home/itssahil/PROJECTS/Mol_Feturizer/New_Systems/rnas/4LVY

>  <Rbt.Executable>
rbdock ($Id: //depot/dev/client3/rdock/2013.1/src/exe/rbdock.cxx#4 $)

>  <Rbt.Library>
libRbt.so (2013.1, Build901 2013/11/27)

>  <Rbt.Parameter_File>
/export/apps/rDock/src/rDock_2013.1_src/data/scripts/dock_solv.prm

>  <Rbt.Receptor>
prm/blind_docking_20.prm

>  <SCORE>
-6.24292

>  <SCORE.INTER>
-7.50111

>  <SCORE.INTER.CONST>
1

>  <SCORE.INTER.POLAR>
0

>  <SCORE.INTER.ROT>
4

>  <SCORE.INTER.SOLV>
9.23875

>  <SCORE.INTER.VDW>
-14.347

>  <SCORE.INTER.norm>
-0.340959

>  <SCORE.INTRA>
-0.0219881

>  <SCORE.INTRA.DIHEDRAL>
0.0420351

>  <SCORE.INTRA.DIHEDRAL.0>
6.18831

>  <SCORE.INTRA.POLAR>
0

>  <SCORE.INTRA.POLAR.0>
0

>  <SCORE.INTRA.REPUL>
0

>  <SCORE.INTRA.REPUL.0>
0

>  <SCORE.INTRA.SOLV>
-0.00876488

>  <SCORE.INTRA.SOLV.lig_0>
-44.3465

>  <SCORE.INTRA.VDW>
-0.0386232

>  <SCORE.INTRA.VDW.0>
-0.778272

>  <SCORE.INTRA.norm>
-0.000999457

>  <SCORE.RESTR>
1.28017

>  <SCORE.RESTR.CAVITY>
1.28017

>  <SCORE.RESTR.norm>
0.0581896

>  <SCORE.SYSTEM>
0

>  <SCORE.SYSTEM.CONST>
0

>  <SCORE.SYSTEM.DIHEDRAL>
0

>  <SCORE.SYSTEM.SOLV>
0

>  <SCORE.SYSTEM.norm>
0

>  <SCORE.heavy>
22

>  <SCORE.norm>
-0.283769

>  <RMSD>
14.873

$$$$
ligand
 OpenBabel11021811503D
libRbt.so/2013.1/901 2013/11/27
 22 24  0  0  0  0  0  0  0  0999 V2000
   -6.3768   -3.0922   12.9537 C   0  0  0  0  0  0  0  0  0  0  0  0
   -5.9676   -2.1514   11.9852 C   0  0  0  0  0  0  0  0  0  0  0  0
   -6.8260   -1.8325   10.9364 C   0  0  0  0  0  0  0  0  0  0  0  0
   -8.0849   -2.4533   10.8591 C   0  0  0  0  0  0  0  0  0  0  0  0
   -8.4932   -3.4051   11.8257 C   0  0  0  0  0  0  0  0  0  0  0  0
   -7.6356   -3.7222   12.8703 C   0  0  0  0  0  0  0  0  0  0  0  0
   -5.4316   -3.4695   14.1107 C   0  0  0  0  0  0  0  0  0  0  0  0
   -4.0595   -4.0412   13.6745 C   0  0  0  0  0  0  0  0  0  0  0  0
   -3.0883   -4.2578   14.8292 C   0  0  0  0  0  0  0  0  0  0  0  0
   -3.4674   -4.7301   16.0894 C   0  0  0  0  0  0  0  0  0  0  0  0
   -2.3378   -4.7961   16.8415 N   0  0  0  0  0  0  0  0  0  0  0  0
   -1.2182   -4.3898   16.1434 C   0  0  0  0  0  0  0  0  0  0  0  0
   -1.6436   -4.0421   14.8660 C   0  0  0  0  0  0  0  0  0  0  0  0
   -0.6359   -3.5822   13.9358 C   0  0  0  0  0  0  0  0  0  0  0  0
   -0.9889   -3.2252   12.6374 O   0  0  0  0  0  0  0  0  0  0  0  0
    0.6846   -3.4994   14.3569 N   0  0  0  0  0  0  0  0  0  0  0  0
    1.0581   -3.8612   15.6187 C   0  0  0  0  0  0  0  0  0  0  0  0
    0.1496   -4.2919   16.5080 N   0  0  0  0  0  0  0  0  0  0  0  0
    2.4681   -3.7717   16.0119 N   0  0  0  0  0  0  0  0  0  0  0  0
   -8.9910   -2.0938    9.7115 C   0  0  0  0  0  0  0  0  0  0  0  0
   -9.8599   -1.2357    9.8555 O   0  0  0  0  0  0  0  0  0  0  0  0
   -8.8244   -2.7748    8.4552 N   0  0  0  0  0  0  0  0  0  0  0  0
  1  2  2  0  0  0  0
  1  6  1  0  0  0  0
  1  7  1  0  0  0  0
  2  3  1  0  0  0  0
  3  4  2  0  0  0  0
  4  5  1  0  0  0  0
  4 20  1  0  0  0  0
  5  6  2  0  0  0  0
  7  8  1  0  0  0  0
  8  9  1  0  0  0  0
  9 10  2  0  0  0  0
  9 13  1  0  0  0  0
 10 11  1  0  0  0  0
 11 12  1  0  0  0  0
 12 13  2  0  0  0  0
 12 18  1  0  0  0  0
 13 14  1  0  0  0  0
 14 15  1  0  0  0  0
 14 16  2  0  0  0  0
 16 17  1  0  0  0  0
 17 18  2  0  0  0  0
 17 19  1  0  0  0  0
 20 21  2  0  0  0  0
 20 22  1  0  0  0  0
M  END
>  <CHROM.1>
-58.02254536,-95.98673201,173.47724924,38.47370411,-4.03143746,-3.38389490
13.39458234,2.58444223,-0.05875118,-1.15625305

>  <Name>
ligand

>  <RI>
0

>  <Rbt.Current_Directory>
/home/itssahil/PROJECTS/Mol_Feturizer/New_Systems/rnas/4LVY

>  <Rbt.Executable>
rbdock ($Id: //depot/dev/client3/rdock/2013.1/src/exe/rbdock.cxx#4 $)

>  <Rbt.Library>
libRbt.so (2013.1, Build901 2013/11/27)

>  <Rbt.Parameter_File>
/export/apps/rDock/src/rDock_2013.1_src/data/scripts/dock_solv.prm

>  <Rbt.Receptor>
prm/blind_docking_20.prm

>  <SCORE>
-6.82683

>  <SCORE.INTER>
-8.07386

>  <SCORE.INTER.CONST>
1

>  <SCORE.INTER.POLAR>
0

>  <SCORE.INTER.ROT>
4

>  <SCORE.INTER.SOLV>
9.2828

>  <SCORE.INTER.VDW>
-14.7435

>  <SCORE.INTER.norm>
-0.366994

>  <SCORE.INTRA>
-0.0496208

>  <SCORE.INTRA.DIHEDRAL>
0.156158

>  <SCORE.INTRA.DIHEDRAL.0>
6.18831

>  <SCORE.INTRA.POLAR>
0

>  <SCORE.INTRA.POLAR.0>
0

>  <SCORE.INTRA.REPUL>
0

>  <SCORE.INTRA.REPUL.0>
0

>  <SCORE.INTRA.SOLV>
-0.00700641

>  <SCORE.INTRA.SOLV.lig_0>
-44.3465

>  <SCORE.INTRA.VDW>
-0.124197

>  <SCORE.INTRA.VDW.0>
-0.778272

>  <SCORE.INTRA.norm>
-0.00225549

>  <SCORE.RESTR>
1.29666

>  <SCORE.RESTR.CAVITY>
1.29666

>  <SCORE.RESTR.norm>
0.0589389

>  <SCORE.SYSTEM>
0

>  <SCORE.SYSTEM.CONST>
0

>  <SCORE.SYSTEM.DIHEDRAL>
0

>  <SCORE.SYSTEM.SOLV>
0

>  <SCORE.SYSTEM.norm>
0

>  <SCORE.heavy>
22

>  <SCORE.norm>
-0.31031

>  <RMSD>
14.880

$$$$
ligand
 OpenBabel11021811503D
libRbt.so/2013.1/901 2013/11/27
 22 24  0  0  0  0  0  0  0  0999 V2000
   -6.4412   -2.9891   13.0290 C   0  0  0  0  0  0  0  0  0  0  0  0
   -5.9227   -2.1405   12.0282 C   0  0  0  0  0  0  0  0  0  0  0  0
   -6.6886   -1.8692   10.8976 C   0  0  0  0  0  0  0  0  0  0  0  0
   -7.9646   -2.4456   10.7713 C   0  0  0  0  0  0  0  0  0  0  0  0
   -8.4825   -3.3054   11.7710 C   0  0  0  0  0  0  0  0  0  0  0  0
   -7.7170   -3.5752   12.8972 C   0  0  0  0  0  0  0  0  0  0  0  0
   -5.5991   -3.3137   14.2779 C   0  0  0  0  0  0  0  0  0  0  0  0
   -4.5823   -4.4687   14.0993 C   0  0  0  0  0  0  0  0  0  0  0  0
   -3.1381   -4.0011   13.9613 C   0  0  0  0  0  0  0  0  0  0  0  0
   -2.6644   -3.2372   12.8903 C   0  0  0  0  0  0  0  0  0  0  0  0
   -1.3439   -3.0140   13.1195 N   0  0  0  0  0  0  0  0  0  0  0  0
   -0.9102   -3.5931   14.2953 C   0  0  0  0  0  0  0  0  0  0  0  0
   -2.0105   -4.2265   14.8627 C   0  0  0  0  0  0  0  0  0  0  0  0
   -1.8037   -4.9108   16.1202 C   0  0  0  0  0  0  0  0  0  0  0  0
   -2.8627   -5.5593   16.7494 O   0  0  0  0  0  0  0  0  0  0  0  0
   -0.5362   -4.9138   16.6871 N   0  0  0  0  0  0  0  0  0  0  0  0
    0.5132   -4.2696   16.0988 C   0  0  0  0  0  0  0  0  0  0  0  0
    0.3576   -3.6250   14.9317 N   0  0  0  0  0  0  0  0  0  0  0  0
    1.8297   -4.2873   16.7446 N   0  0  0  0  0  0  0  0  0  0  0  0
   -8.7691   -2.1395    9.5359 C   0  0  0  0  0  0  0  0  0  0  0  0
   -8.5343   -2.7304    8.4834 O   0  0  0  0  0  0  0  0  0  0  0  0
   -9.8056   -1.1445    9.6107 N   0  0  0  0  0  0  0  0  0  0  0  0
  1  2  2  0  0  0  0
  1  6  1  0  0  0  0
  1  7  1  0  0  0  0
  2  3  1  0  0  0  0
  3  4  2  0  0  0  0
  4  5  1  0  0  0  0
  4 20  1  0  0  0  0
  5  6  2  0  0  0  0
  7  8  1  0  0  0  0
  8  9  1  0  0  0  0
  9 10  2  0  0  0  0
  9 13  1  0  0  0  0
 10 11  1  0  0  0  0
 11 12  1  0  0  0  0
 12 13  2  0  0  0  0
 12 18  1  0  0  0  0
 13 14  1  0  0  0  0
 14 15  1  0  0  0  0
 14 16  2  0  0  0  0
 16 17  1  0  0  0  0
 17 18  2  0  0  0  0
 17 19  1  0  0  0  0
 20 21  2  0  0  0  0
 20 22  1  0  0  0  0
M  END
>  <CHROM.1>
-83.71116951,79.51673810,104.62082216,-64.91635615,-4.20249401,-3.46782387
13.37846453,2.51911150,-0.10550806,-1.06792918

>  <Name>
ligand

>  <RI>
0

>  <Rbt.Current_Directory>
/home/itssahil/PROJECTS/Mol_Feturizer/New_Systems/rnas/4LVY

>  <Rbt.Executable>
rbdock ($Id: //depot/dev/client3/rdock/2013.1/src/exe/rbdock.cxx#4 $)

>  <Rbt.Library>
libRbt.so (2013.1, Build901 2013/11/27)

>  <Rbt.Parameter_File>
/export/apps/rDock/src/rDock_2013.1_src/data/scripts/dock_solv.prm

>  <Rbt.Receptor>
prm/blind_docking_20.prm

>  <SCORE>
-4.45823

>  <SCORE.INTER>
-7.99828

>  <SCORE.INTER.CONST>
1

>  <SCORE.INTER.POLAR>
0

>  <SCORE.INTER.ROT>
4

>  <SCORE.INTER.SOLV>
8.71707

>  <SCORE.INTER.VDW>
-14.5045

>  <SCORE.INTER.norm>
-0.363558

>  <SCORE.INTRA>
1.79675

>  <SCORE.INTRA.DIHEDRAL>
5.14811

>  <SCORE.INTRA.DIHEDRAL.0>
6.18831

>  <SCORE.INTRA.POLAR>
0

>  <SCORE.INTRA.POLAR.0>
0

>  <SCORE.INTRA.REPUL>
0

>  <SCORE.INTRA.REPUL.0>
0

>  <SCORE.INTRA.SOLV>
0.0544397

>  <SCORE.INTRA.SOLV.lig_0>
-44.3465

>  <SCORE.INTRA.VDW>
-0.804526

>  <SCORE.INTRA.VDW.0>
-0.778272

>  <SCORE.INTRA.norm>
0.0816704

>  <SCORE.RESTR>
1.74329

>  <SCORE.RESTR.CAVITY>
1.74329

>  <SCORE.RESTR.norm>
0.0792405

>  <SCORE.SYSTEM>
0

>  <SCORE.SYSTEM.CONST>
0

>  <SCORE.SYSTEM.DIHEDRAL>
0

>  <SCORE.SYSTEM.SOLV>
0

>  <SCORE.SYSTEM.norm>
0

>  <SCORE.heavy>
22

>  <SCORE.norm>
-0.202647

>  <RMSD>
14.892

$$$$
ligand
 OpenBabel11021811503D
libRbt.so/2013.1/901 2013/11/27
 22 24  0  0  0  0  0  0  0  0999 V2000
   -6.3825   -3.1056   12.9505 C   0  0  0  0  0  0  0  0  0  0  0  0
   -5.9784   -2.1770   11.9682 C   0  0  0  0  0  0  0  0  0  0  0  0
   -6.8439   -1.8682   10.9222 C   0  0  0  0  0  0  0  0  0  0  0  0
   -8.1048   -2.4867   10.8615 C   0  0  0  0  0  0  0  0  0  0  0  0
   -8.5080   -3.4263   11.8420 C   0  0  0  0  0  0  0  0  0  0  0  0
   -7.6434   -3.7335   12.8837 C   0  0  0  0  0  0  0  0  0  0  0  0
   -5.4296   -3.4718   14.1046 C   0  0  0  0  0  0  0  0  0  0  0  0
   -4.0557   -4.0365   13.6645 C   0  0  0  0  0  0  0  0  0  0  0  0
   -3.0818   -4.2527   14.8170 C   0  0  0  0  0  0  0  0  0  0  0  0
   -3.4591   -4.7179   16.0804 C   0  0  0  0  0  0  0  0  0  0  0  0
   -2.3274   -4.7860   16.8292 N   0  0  0  0  0  0  0  0  0  0  0  0
   -1.2081   -4.3879   16.1257 C   0  0  0  0  0  0  0  0  0  0  0  0
   -1.6361   -4.0436   14.8482 C   0  0  0  0  0  0  0  0  0  0  0  0
   -0.6292   -3.5924   13.9129 C   0  0  0  0  0  0  0  0  0  0  0  0
   -0.9848   -3.2393   12.6141 O   0  0  0  0  0  0  0  0  0  0  0  0
    0.6930   -3.5140   14.3294 N   0  0  0  0  0  0  0  0  0  0  0  0
    1.0689   -3.8722   15.5915 C   0  0  0  0  0  0  0  0  0  0  0  0
    0.1613   -4.2949   16.4856 N   0  0  0  0  0  0  0  0  0  0  0  0
    2.4805   -3.7876   15.9798 N   0  0  0  0  0  0  0  0  0  0  0  0
   -9.0187   -2.1382    9.7167 C   0  0  0  0  0  0  0  0  0  0  0  0
   -9.9413   -1.3425    9.8826 O   0  0  0  0  0  0  0  0  0  0  0  0
   -8.7954   -2.7562    8.4367 N   0  0  0  0  0  0  0  0  0  0  0  0
  1  2  2  0  0  0  0
  1  6  1  0  0  0  0
  1  7  1  0  0  0  0
  2  3  1  0  0  0  0
  3  4  2  0  0  0  0
  4  5  1  0  0  0  0
  4 20  1  0  0  0  0
  5  6  2  0  0  0  0
  7  8  1  0  0  0  0
  8  9  1  0  0  0  0
  9 10  2  0  0  0  0
  9 13  1  0  0  0  0
 10 11  1  0  0  0  0
 11 12  1  0  0  0  0
 12 13  2  0  0  0  0
 12 18  1  0  0  0  0
 13 14  1  0  0  0  0
 14 15  1  0  0  0  0
 14 16  2  0  0  0  0
 16 17  1  0  0  0  0
 17 18  2  0  0  0  0
 17 19  1  0  0  0  0
 20 21  2  0  0  0  0
 20 22  1  0  0  0  0
M  END
>  <CHROM.1>
-57.34175342,-100.87871099,173.95619189,37.80374258,-4.03425691,-3.39868829
13.38412208,2.58907232,-0.05323429,-1.16795779

>  <Name>
ligand

>  <RI>
0

>  <Rbt.Current_Directory>
/home/itssahil/PROJECTS/Mol_Feturizer/New_Systems/rnas/4LVY

>  <Rbt.Executable>
rbdock ($Id: //depot/dev/client3/rdock/2013.1/src/exe/rbdock.cxx#4 $)

>  <Rbt.Library>
libRbt.so (2013.1, Build901 2013/11/27)

>  <Rbt.Parameter_File>
/export/apps/rDock/src/rDock_2013.1_src/data/scripts/dock_solv.prm

>  <Rbt.Receptor>
prm/blind_docking_20.prm

>  <SCORE>
-6.89264

>  <SCORE.INTER>
-8.13598

>  <SCORE.INTER.CONST>
1

>  <SCORE.INTER.POLAR>
0

>  <SCORE.INTER.ROT>
4

>  <SCORE.INTER.SOLV>
9.14918

>  <SCORE.INTER.VDW>
-14.7404

>  <SCORE.INTER.norm>
-0.369817

>  <SCORE.INTRA>
-0.0428506

>  <SCORE.INTRA.DIHEDRAL>
0.136602

>  <SCORE.INTRA.DIHEDRAL.0>
6.18831

>  <SCORE.INTRA.POLAR>
0

>  <SCORE.INTRA.POLAR.0>
0

>  <SCORE.INTRA.REPUL>
0

>  <SCORE.INTRA.REPUL.0>
0

>  <SCORE.INTRA.SOLV>
-0.00649544

>  <SCORE.INTRA.SOLV.lig_0>
-44.3465

>  <SCORE.INTRA.VDW>
-0.107904

>  <SCORE.INTRA.VDW.0>
-0.778272

>  <SCORE.INTRA.norm>
-0.00194776

>  <SCORE.RESTR>
1.28619

>  <SCORE.RESTR.CAVITY>
1.28619

>  <SCORE.RESTR.norm>
0.0584633

>  <SCORE.SYSTEM>
0

>  <SCORE.SYSTEM.CONST>
0

>  <SCORE.SYSTEM.DIHEDRAL>
0

>  <SCORE.SYSTEM.SOLV>
0

>  <SCORE.SYSTEM.norm>
0

>  <SCORE.heavy>
22

>  <SCORE.norm>
-0.313302

>  <RMSD>
14.896

$$$$
ligand
 OpenBabel11021811503D
libRbt.so/2013.1/901 2013/11/27
 22 24  0  0  0  0  0  0  0  0999 V2000
   -6.5633   -2.9146   13.0586 C   0  0  0  0  0  0  0  0  0  0  0  0
   -7.8822   -3.4111   12.9901 C   0  0  0  0  0  0  0  0  0  0  0  0
   -8.6591   -3.1351   11.8682 C   0  0  0  0  0  0  0  0  0  0  0  0
   -8.1176   -2.3662   10.8233 C   0  0  0  0  0  0  0  0  0  0  0  0
   -6.7968   -1.8592   10.8951 C   0  0  0  0  0  0  0  0  0  0  0  0
   -6.0239   -2.1348   12.0148 C   0  0  0  0  0  0  0  0  0  0  0  0
   -5.6965   -3.1959   14.3011 C   0  0  0  0  0  0  0  0  0  0  0  0
   -4.7209   -4.3911   14.1612 C   0  0  0  0  0  0  0  0  0  0  0  0
   -3.2602   -3.9794   14.0187 C   0  0  0  0  0  0  0  0  0  0  0  0
   -2.7411   -3.3197   12.9005 C   0  0  0  0  0  0  0  0  0  0  0  0
   -1.4191   -3.1180   13.1408 N   0  0  0  0  0  0  0  0  0  0  0  0
   -1.0278   -3.6120   14.3692 C   0  0  0  0  0  0  0  0  0  0  0  0
   -2.1587   -4.1640   14.9607 C   0  0  0  0  0  0  0  0  0  0  0  0
   -1.9990   -4.7493   16.2738 C   0  0  0  0  0  0  0  0  0  0  0  0
   -3.0904   -5.3127   16.9292 O   0  0  0  0  0  0  0  0  0  0  0  0
   -0.7440   -4.7439   16.8679 N   0  0  0  0  0  0  0  0  0  0  0  0
    0.3369   -4.1812   16.2534 C   0  0  0  0  0  0  0  0  0  0  0  0
    0.2253   -3.6295   15.0348 N   0  0  0  0  0  0  0  0  0  0  0  0
    1.6388   -4.1854   16.9282 N   0  0  0  0  0  0  0  0  0  0  0  0
   -8.9817   -2.0785    9.6242 C   0  0  0  0  0  0  0  0  0  0  0  0
   -9.8841   -1.2465    9.6982 O   0  0  0  0  0  0  0  0  0  0  0  0
   -8.7354   -2.7966    8.4021 N   0  0  0  0  0  0  0  0  0  0  0  0
  1  2  2  0  0  0  0
  1  6  1  0  0  0  0
  1  7  1  0  0  0  0
  2  3  1  0  0  0  0
  3  4  2  0  0  0  0
  4  5  1  0  0  0  0
  4 20  1  0  0  0  0
  5  6  2  0  0  0  0
  7  8  1  0  0  0  0
  8  9  1  0  0  0  0
  9 10  2  0  0  0  0
  9 13  1  0  0  0  0
 10 11  1  0  0  0  0
 11 12  1  0  0  0  0
 12 13  2  0  0  0  0
 12 18  1  0  0  0  0
 13 14  1  0  0  0  0
 14 15  1  0  0  0  0
 14 16  2  0  0  0  0
 16 17  1  0  0  0  0
 17 18  2  0  0  0  0
 17 19  1  0  0  0  0
 20 21  2  0  0  0  0
 20 22  1  0  0  0  0
M  END
>  <CHROM.1>
97.41701763,75.04825623,107.10837006,-68.10491104,-4.35820138,-3.40089822
13.46278797,2.51127412,-0.06759194,-1.13156745

>  <Name>
ligand

>  <RI>
0

>  <Rbt.Current_Directory>
/home/itssahil/PROJECTS/Mol_Feturizer/New_Systems/rnas/4LVY

>  <Rbt.Executable>
rbdock ($Id: //depot/dev/client3/rdock/2013.1/src/exe/rbdock.cxx#4 $)

>  <Rbt.Library>
libRbt.so (2013.1, Build901 2013/11/27)

>  <Rbt.Parameter_File>
/export/apps/rDock/src/rDock_2013.1_src/data/scripts/dock_solv.prm

>  <Rbt.Receptor>
prm/blind_docking_20.prm

>  <SCORE>
-4.65928

>  <SCORE.INTER>
-8.41558

>  <SCORE.INTER.CONST>
1

>  <SCORE.INTER.POLAR>
0

>  <SCORE.INTER.ROT>
4

>  <SCORE.INTER.SOLV>
9.6812

>  <SCORE.INTER.VDW>
-15.1041

>  <SCORE.INTER.norm>
-0.382526

>  <SCORE.INTRA>
2.02692

>  <SCORE.INTRA.DIHEDRAL>
5.55332

>  <SCORE.INTRA.DIHEDRAL.0>
6.18831

>  <SCORE.INTRA.POLAR>
0

>  <SCORE.INTRA.POLAR.0>
0

>  <SCORE.INTRA.REPUL>
0

>  <SCORE.INTRA.REPUL.0>
0

>  <SCORE.INTRA.SOLV>
0.0662115

>  <SCORE.INTRA.SOLV.lig_0>
-44.3465

>  <SCORE.INTRA.VDW>
-0.782847

>  <SCORE.INTRA.VDW.0>
-0.778272

>  <SCORE.INTRA.norm>
0.0921326

>  <SCORE.RESTR>
1.72938

>  <SCORE.RESTR.CAVITY>
1.72938

>  <SCORE.RESTR.norm>
0.0786082

>  <SCORE.SYSTEM>
0

>  <SCORE.SYSTEM.CONST>
0

>  <SCORE.SYSTEM.DIHEDRAL>
0

>  <SCORE.SYSTEM.SOLV>
0

>  <SCORE.SYSTEM.norm>
0

>  <SCORE.heavy>
22

>  <SCORE.norm>
-0.211785

>  <RMSD>
14.901

$$$$
ligand
 OpenBabel11021811503D
libRbt.so/2013.1/901 2013/11/27
 22 24  0  0  0  0  0  0  0  0999 V2000
   -6.3300   -3.1980   13.0510 C   0  0  0  0  0  0  0  0  0  0  0  0
   -5.9090   -2.3025   12.0453 C   0  0  0  0  0  0  0  0  0  0  0  0
   -6.7549   -2.0318   10.9731 C   0  0  0  0  0  0  0  0  0  0  0  0
   -8.0133   -2.6552   10.9097 C   0  0  0  0  0  0  0  0  0  0  0  0
   -8.4334   -3.5618   11.9139 C   0  0  0  0  0  0  0  0  0  0  0  0
   -7.5883   -3.8310   12.9818 C   0  0  0  0  0  0  0  0  0  0  0  0
   -5.3986   -3.5221   14.2348 C   0  0  0  0  0  0  0  0  0  0  0  0
   -4.0111   -4.0868   13.8401 C   0  0  0  0  0  0  0  0  0  0  0  0
   -3.1066   -4.3839   15.0305 C   0  0  0  0  0  0  0  0  0  0  0  0
   -3.5765   -4.7566   16.2935 C   0  0  0  0  0  0  0  0  0  0  0  0
   -2.4849   -4.9397   17.0816 N   0  0  0  0  0  0  0  0  0  0  0  0
   -1.3042   -4.7070   16.4048 C   0  0  0  0  0  0  0  0  0  0  0  0
   -1.6476   -4.3548   15.1042 C   0  0  0  0  0  0  0  0  0  0  0  0
   -0.5648   -4.0633   14.1905 C   0  0  0  0  0  0  0  0  0  0  0  0
   -0.8347   -3.7120   12.8707 O   0  0  0  0  0  0  0  0  0  0  0  0
    0.7439   -4.1357   14.6488 N   0  0  0  0  0  0  0  0  0  0  0  0
    1.0343   -4.4958   15.9328 C   0  0  0  0  0  0  0  0  0  0  0  0
    0.0548   -4.7727   16.8077 N   0  0  0  0  0  0  0  0  0  0  0  0
    2.4332   -4.5741   16.3656 N   0  0  0  0  0  0  0  0  0  0  0  0
   -8.9058   -2.3484    9.7364 C   0  0  0  0  0  0  0  0  0  0  0  0
   -8.8731   -3.0582    8.7328 O   0  0  0  0  0  0  0  0  0  0  0  0
   -9.7856   -1.2124    9.8111 N   0  0  0  0  0  0  0  0  0  0  0  0
  1  2  2  0  0  0  0
  1  6  1  0  0  0  0
  1  7  1  0  0  0  0
  2  3  1  0  0  0  0
  3  4  2  0  0  0  0
  4  5  1  0  0  0  0
  4 20  1  0  0  0  0
  5  6  2  0  0  0  0
  7  8  1  0  0  0  0
  8  9  1  0  0  0  0
  9 10  2  0  0  0  0
  9 13  1  0  0  0  0
 10 11  1  0  0  0  0
 11 12  1  0  0  0  0
 12 13  2  0  0  0  0
 12 18  1  0  0  0  0
 13 14  1  0  0  0  0
 14 15  1  0  0  0  0
 14 16  2  0  0  0  0
 16 17  1  0  0  0  0
 17 18  2  0  0  0  0
 17 19  1  0  0  0  0
 20 21  2  0  0  0  0
 20 22  1  0  0  0  0
M  END
>  <CHROM.1>
-56.84861682,92.26955051,179.38435512,29.75023339,-4.01000541,-3.67139230
13.56494946,2.55158940,0.01396803,-1.23376453

>  <Name>
ligand

>  <RI>
0

>  <Rbt.Current_Directory>
/home/itssahil/PROJECTS/Mol_Feturizer/New_Systems/rnas/4LVY

>  <Rbt.Executable>
rbdock ($Id: //depot/dev/client3/rdock/2013.1/src/exe/rbdock.cxx#4 $)

>  <Rbt.Library>
libRbt.so (2013.1, Build901 2013/11/27)

>  <Rbt.Parameter_File>
/export/apps/rDock/src/rDock_2013.1_src/data/scripts/dock_solv.prm

>  <Rbt.Receptor>
prm/blind_docking_20.prm

>  <SCORE>
-6.17856

>  <SCORE.INTER>
-7.45632

>  <SCORE.INTER.CONST>
1

>  <SCORE.INTER.POLAR>
0

>  <SCORE.INTER.ROT>
4

>  <SCORE.INTER.SOLV>
9.14527

>  <SCORE.INTER.VDW>
-14.286

>  <SCORE.INTER.norm>
-0.338924

>  <SCORE.INTRA>
0.00201555

>  <SCORE.INTRA.DIHEDRAL>
0.0370603

>  <SCORE.INTRA.DIHEDRAL.0>
6.18831

>  <SCORE.INTRA.POLAR>
0

>  <SCORE.INTRA.POLAR.0>
0

>  <SCORE.INTRA.REPUL>
0

>  <SCORE.INTRA.REPUL.0>
0

>  <SCORE.INTRA.SOLV>
-0.00873601

>  <SCORE.INTRA.SOLV.lig_0>
-44.3465

>  <SCORE.INTRA.VDW>
-0.0121466

>  <SCORE.INTRA.VDW.0>
-0.778272

>  <SCORE.INTRA.norm>
9.16158e-05

>  <SCORE.RESTR>
1.27574

>  <SCORE.RESTR.CAVITY>
1.27574

>  <SCORE.RESTR.norm>
0.0579884

>  <SCORE.SYSTEM>
0

>  <SCORE.SYSTEM.CONST>
0

>  <SCORE.SYSTEM.DIHEDRAL>
0

>  <SCORE.SYSTEM.SOLV>
0

>  <SCORE.SYSTEM.norm>
0

>  <SCORE.heavy>
22

>  <SCORE.norm>
-0.280844

>  <RMSD>
14.902

$$$$
ligand
 OpenBabel11021811503D
libRbt.so/2013.1/901 2013/11/27
 22 24  0  0  0  0  0  0  0  0999 V2000
   -6.4923   -3.0554   12.8862 C   0  0  0  0  0  0  0  0  0  0  0  0
   -7.7737   -3.6290   12.7457 C   0  0  0  0  0  0  0  0  0  0  0  0
   -8.3874   -3.6335   11.4961 C   0  0  0  0  0  0  0  0  0  0  0  0
   -7.7213   -3.0663   10.3957 C   0  0  0  0  0  0  0  0  0  0  0  0
   -6.4388   -2.4816   10.5373 C   0  0  0  0  0  0  0  0  0  0  0  0
   -5.8288   -2.4774   11.7843 C   0  0  0  0  0  0  0  0  0  0  0  0
   -5.8070   -3.0263   14.2660 C   0  0  0  0  0  0  0  0  0  0  0  0
   -4.8475   -4.2101   14.5450 C   0  0  0  0  0  0  0  0  0  0  0  0
   -3.4034   -3.9404   14.1386 C   0  0  0  0  0  0  0  0  0  0  0  0
   -3.0190   -3.5068   12.8662 C   0  0  0  0  0  0  0  0  0  0  0  0
   -1.6671   -3.3729   12.8875 N   0  0  0  0  0  0  0  0  0  0  0  0
   -1.1270   -3.6967   14.1161 C   0  0  0  0  0  0  0  0  0  0  0  0
   -2.1872   -4.0596   14.9395 C   0  0  0  0  0  0  0  0  0  0  0  0
   -1.8685   -4.4421   16.2977 C   0  0  0  0  0  0  0  0  0  0  0  0
   -2.8809   -4.8092   17.1800 O   0  0  0  0  0  0  0  0  0  0  0  0
   -0.5415   -4.4407   16.7062 N   0  0  0  0  0  0  0  0  0  0  0  0
    0.4664   -4.0670   15.8654 C   0  0  0  0  0  0  0  0  0  0  0  0
    0.2073   -3.7066   14.5986 N   0  0  0  0  0  0  0  0  0  0  0  0
    1.8512   -4.0661   16.3481 N   0  0  0  0  0  0  0  0  0  0  0  0
   -8.4104   -3.0801    9.0570 C   0  0  0  0  0  0  0  0  0  0  0  0
   -9.4196   -2.4017    8.8744 O   0  0  0  0  0  0  0  0  0  0  0  0
   -7.8712   -3.9022    8.0065 N   0  0  0  0  0  0  0  0  0  0  0  0
  1  2  2  0  0  0  0
  1  6  1  0  0  0  0
  1  7  1  0  0  0  0
  2  3  1  0  0  0  0
  3  4  2  0  0  0  0
  4  5  1  0  0  0  0
  4 20  1  0  0  0  0
  5  6  2  0  0  0  0
  7  8  1  0  0  0  0
  8  9  1  0  0  0  0
  9 10  2  0  0  0  0
  9 13  1  0  0  0  0
 10 11  1  0  0  0  0
 11 12  1  0  0  0  0
 12 13  2  0  0  0  0
 12 18  1  0  0  0  0
 13 14  1  0  0  0  0
 14 15  1  0  0  0  0
 14 16  2  0  0  0  0
 16 17  1  0  0  0  0
 17 18  2  0  0  0  0
 17 19  1  0  0  0  0
 20 21  2  0  0  0  0
 20 22  1  0  0  0  0
M  END
>  <CHROM.1>
94.25651370,67.67053782,91.07776151,-53.10693094,-4.21194413,-3.60541417
13.23571734,2.48085427,-0.00701870,-1.37857933

>  <Name>
ligand

>  <RI>
0

>  <Rbt.Current_Directory>
/home/itssahil/PROJECTS/Mol_Feturizer/New_Systems/rnas/4LVY

>  <Rbt.Executable>
rbdock ($Id: //depot/dev/client3/rdock/2013.1/src/exe/rbdock.cxx#4 $)

>  <Rbt.Library>
libRbt.so (2013.1, Build901 2013/11/27)

>  <Rbt.Parameter_File>
/export/apps/rDock/src/rDock_2013.1_src/data/scripts/dock_solv.prm

>  <Rbt.Receptor>
prm/blind_docking_20.prm

>  <SCORE>
-3.06191

>  <SCORE.INTER>
-5.56004

>  <SCORE.INTER.CONST>
1

>  <SCORE.INTER.POLAR>
0

>  <SCORE.INTER.ROT>
4

>  <SCORE.INTER.SOLV>
7.82418

>  <SCORE.INTER.VDW>
-12.5814

>  <SCORE.INTER.norm>
-0.252729

>  <SCORE.INTRA>
0.868054

>  <SCORE.INTRA.DIHEDRAL>
3.35122

>  <SCORE.INTRA.DIHEDRAL.0>
6.18831

>  <SCORE.INTRA.POLAR>
0

>  <SCORE.INTRA.POLAR.0>
0

>  <SCORE.INTRA.REPUL>
0

>  <SCORE.INTRA.REPUL.0>
0

>  <SCORE.INTRA.SOLV>
0.0184179

>  <SCORE.INTRA.SOLV.lig_0>
-44.3465

>  <SCORE.INTRA.VDW>
-0.816767

>  <SCORE.INTRA.VDW.0>
-0.778272

>  <SCORE.INTRA.norm>
0.039457

>  <SCORE.RESTR>
1.63009

>  <SCORE.RESTR.CAVITY>
1.63009

>  <SCORE.RESTR.norm>
0.0740948

>  <SCORE.SYSTEM>
0

>  <SCORE.SYSTEM.CONST>
0

>  <SCORE.SYSTEM.DIHEDRAL>
0

>  <SCORE.SYSTEM.SOLV>
0

>  <SCORE.SYSTEM.norm>
0

>  <SCORE.heavy>
22

>  <SCORE.norm>
-0.139178

>  <RMSD>
14.919

$$$$
ligand
 OpenBabel11021811503D
libRbt.so/2013.1/901 2013/11/27
 22 24  0  0  0  0  0  0  0  0999 V2000
   -6.3536   -3.1601   12.9163 C   0  0  0  0  0  0  0  0  0  0  0  0
   -7.6452   -3.7263   12.8754 C   0  0  0  0  0  0  0  0  0  0  0  0
   -8.5093   -3.3838   11.8389 C   0  0  0  0  0  0  0  0  0  0  0  0
   -8.0814   -2.4796   10.8512 C   0  0  0  0  0  0  0  0  0  0  0  0
   -6.7881   -1.9031   10.8963 C   0  0  0  0  0  0  0  0  0  0  0  0
   -5.9283   -2.2453   11.9310 C   0  0  0  0  0  0  0  0  0  0  0  0
   -5.3916   -3.5148   14.0665 C   0  0  0  0  0  0  0  0  0  0  0  0
   -4.0408   -4.1302   13.6234 C   0  0  0  0  0  0  0  0  0  0  0  0
   -3.0285   -4.2712   14.7543 C   0  0  0  0  0  0  0  0  0  0  0  0
   -3.3558   -4.6947   16.0460 C   0  0  0  0  0  0  0  0  0  0  0  0
   -2.2018   -4.6996   16.7631 N   0  0  0  0  0  0  0  0  0  0  0  0
   -1.1153   -4.2989   16.0114 C   0  0  0  0  0  0  0  0  0  0  0  0
   -1.5894   -4.0197   14.7344 C   0  0  0  0  0  0  0  0  0  0  0  0
   -0.6233   -3.5787   13.7523 C   0  0  0  0  0  0  0  0  0  0  0  0
   -1.0260   -3.2894   12.4514 O   0  0  0  0  0  0  0  0  0  0  0  0
    0.7073   -3.4454   14.1260 N   0  0  0  0  0  0  0  0  0  0  0  0
    1.1293   -3.7408   15.3898 C   0  0  0  0  0  0  0  0  0  0  0  0
    0.2604   -4.1522   16.3266 N   0  0  0  0  0  0  0  0  0  0  0  0
    2.5483   -3.6000   15.7324 N   0  0  0  0  0  0  0  0  0  0  0  0
   -9.0381   -2.1228    9.7445 C   0  0  0  0  0  0  0  0  0  0  0  0
   -9.9593   -1.3357    9.9539 O   0  0  0  0  0  0  0  0  0  0  0  0
   -8.8570   -2.7225    8.4493 N   0  0  0  0  0  0  0  0  0  0  0  0
  1  2  2  0  0  0  0
  1  6  1  0  0  0  0
  1  7  1  0  0  0  0
  2  3  1  0  0  0  0
  3  4  2  0  0  0  0
  4  5  1  0  0  0  0
  4 20  1  0  0  0  0
  5  6  2  0  0  0  0
  7  8  1  0  0  0  0
  8  9  1  0  0  0  0
  9 10  2  0  0  0  0
  9 13  1  0  0  0  0
 10 11  1  0  0  0  0
 11 12  1  0  0  0  0
 12 13  2  0  0  0  0
 12 18  1  0  0  0  0
 13 14  1  0  0  0  0
 14 15  1  0  0  0  0
 14 16  2  0  0  0  0
 16 17  1  0  0  0  0
 17 18  2  0  0  0  0
 17 19  1  0  0  0  0
 20 21  2  0  0  0  0
 20 22  1  0  0  0  0
M  END
>  <CHROM.1>
122.28517296,76.70707126,171.05855470,40.97981424,-4.00205998,-3.37496977
13.30999405,2.60843083,-0.05204128,-1.17218216

>  <Name>
ligand

>  <RI>
0

>  <Rbt.Current_Directory>
/home/itssahil/PROJECTS/Mol_Feturizer/New_Systems/rnas/4LVY

>  <Rbt.Executable>
rbdock ($Id: //depot/dev/client3/rdock/2013.1/src/exe/rbdock.cxx#4 $)

>  <Rbt.Library>
libRbt.so (2013.1, Build901 2013/11/27)

>  <Rbt.Parameter_File>
/export/apps/rDock/src/rDock_2013.1_src/data/scripts/dock_solv.prm

>  <Rbt.Receptor>
prm/blind_docking_20.prm

>  <SCORE>
-6.8623

>  <SCORE.INTER>
-8.22068

>  <SCORE.INTER.CONST>
1

>  <SCORE.INTER.POLAR>
0

>  <SCORE.INTER.ROT>
4

>  <SCORE.INTER.SOLV>
9.30676

>  <SCORE.INTER.VDW>
-14.8494

>  <SCORE.INTER.norm>
-0.373667

>  <SCORE.INTRA>
0.0393525

>  <SCORE.INTRA.DIHEDRAL>
0.346299

>  <SCORE.INTRA.DIHEDRAL.0>
6.18831

>  <SCORE.INTRA.POLAR>
0

>  <SCORE.INTRA.POLAR.0>
0

>  <SCORE.INTRA.REPUL>
0

>  <SCORE.INTRA.REPUL.0>
0

>  <SCORE.INTRA.SOLV>
-0.00825387

>  <SCORE.INTRA.SOLV.lig_0>
-44.3465

>  <SCORE.INTRA.VDW>
-0.12967

>  <SCORE.INTRA.VDW.0>
-0.778272

>  <SCORE.INTRA.norm>
0.00178875

>  <SCORE.RESTR>
1.31904

>  <SCORE.RESTR.CAVITY>
1.31904

>  <SCORE.RESTR.norm>
0.0599562

>  <SCORE.SYSTEM>
0

>  <SCORE.SYSTEM.CONST>
0

>  <SCORE.SYSTEM.DIHEDRAL>
0

>  <SCORE.SYSTEM.SOLV>
0

>  <SCORE.SYSTEM.norm>
0

>  <SCORE.heavy>
22

>  <SCORE.norm>
-0.311923

>  <RMSD>
14.920

$$$$
ligand
 OpenBabel11021811503D
libRbt.so/2013.1/901 2013/11/27
 22 24  0  0  0  0  0  0  0  0999 V2000
   -6.3137   -3.1724   13.0407 C   0  0  0  0  0  0  0  0  0  0  0  0
   -5.8823   -2.2919   12.0262 C   0  0  0  0  0  0  0  0  0  0  0  0
   -6.7284   -2.0150   10.9558 C   0  0  0  0  0  0  0  0  0  0  0  0
   -7.9974   -2.6174   10.9028 C   0  0  0  0  0  0  0  0  0  0  0  0
   -8.4282   -3.5090   11.9159 C   0  0  0  0  0  0  0  0  0  0  0  0
   -7.5828   -3.7844   12.9820 C   0  0  0  0  0  0  0  0  0  0  0  0
   -5.3825   -3.5032   14.2228 C   0  0  0  0  0  0  0  0  0  0  0  0
   -3.9944   -4.0644   13.8250 C   0  0  0  0  0  0  0  0  0  0  0  0
   -3.1009   -4.3954   15.0148 C   0  0  0  0  0  0  0  0  0  0  0  0
   -3.5835   -4.7415   16.2805 C   0  0  0  0  0  0  0  0  0  0  0  0
   -2.4990   -4.9686   17.0669 N   0  0  0  0  0  0  0  0  0  0  0  0
   -1.3110   -4.7908   16.3865 C   0  0  0  0  0  0  0  0  0  0  0  0
   -1.6418   -4.4297   15.0851 C   0  0  0  0  0  0  0  0  0  0  0  0
   -0.5496   -4.1898   14.1676 C   0  0  0  0  0  0  0  0  0  0  0  0
   -0.8071   -3.8329   12.8468 O   0  0  0  0  0  0  0  0  0  0  0  0
    0.7558   -4.3172   14.6232 N   0  0  0  0  0  0  0  0  0  0  0  0
    1.0334   -4.6840   15.9082 C   0  0  0  0  0  0  0  0  0  0  0  0
    0.0448   -4.9140   16.7866 N   0  0  0  0  0  0  0  0  0  0  0  0
    2.4286   -4.8213   16.3382 N   0  0  0  0  0  0  0  0  0  0  0  0
   -8.8900   -2.3045    9.7312 C   0  0  0  0  0  0  0  0  0  0  0  0
   -8.8522   -3.0048    8.7211 O   0  0  0  0  0  0  0  0  0  0  0  0
   -9.7759   -1.1740    9.8152 N   0  0  0  0  0  0  0  0  0  0  0  0
  1  2  2  0  0  0  0
  1  6  1  0  0  0  0
  1  7  1  0  0  0  0
  2  3  1  0  0  0  0
  3  4  2  0  0  0  0
  4  5  1  0  0  0  0
  4 20  1  0  0  0  0
  5  6  2  0  0  0  0
  7  8  1  0  0  0  0
  8  9  1  0  0  0  0
  9 10  2  0  0  0  0
  9 13  1  0  0  0  0
 10 11  1  0  0  0  0
 11 12  1  0  0  0  0
 12 13  2  0  0  0  0
 12 18  1  0  0  0  0
 13 14  1  0  0  0  0
 14 15  1  0  0  0  0
 14 16  2  0  0  0  0
 16 17  1  0  0  0  0
 17 18  2  0  0  0  0
 17 19  1  0  0  0  0
 20 21  2  0  0  0  0
 20 22  1  0  0  0  0
M  END
>  <CHROM.1>
-55.52879146,90.62931138,-179.41619933,26.88494436,-4.00083637,-3.71047123
13.55034041,2.54855882,0.04791045,-1.25234107

>  <Name>
ligand

>  <RI>
0

>  <Rbt.Current_Directory>
/home/itssahil/PROJECTS/Mol_Feturizer/New_Systems/rnas/4LVY

>  <Rbt.Executable>
rbdock ($Id: //depot/dev/client3/rdock/2013.1/src/exe/rbdock.cxx#4 $)

>  <Rbt.Library>
libRbt.so (2013.1, Build901 2013/11/27)

>  <Rbt.Parameter_File>
/export/apps/rDock/src/rDock_2013.1_src/data/scripts/dock_solv.prm

>  <Rbt.Receptor>
prm/blind_docking_20.prm

>  <SCORE>
-5.91422

>  <SCORE.INTER>
-7.19896

>  <SCORE.INTER.CONST>
1

>  <SCORE.INTER.POLAR>
0

>  <SCORE.INTER.ROT>
4

>  <SCORE.INTER.SOLV>
9.35515

>  <SCORE.INTER.VDW>
-14.1844

>  <SCORE.INTER.norm>
-0.327226

>  <SCORE.INTRA>
0.0490992

>  <SCORE.INTRA.DIHEDRAL>
0.0427026

>  <SCORE.INTRA.DIHEDRAL.0>
6.18831

>  <SCORE.INTRA.POLAR>
0

>  <SCORE.INTRA.POLAR.0>
0

>  <SCORE.INTRA.REPUL>
0

>  <SCORE.INTRA.REPUL.0>
0

>  <SCORE.INTRA.SOLV>
-0.00882132

>  <SCORE.INTRA.SOLV.lig_0>
-44.3465

>  <SCORE.INTRA.VDW>
0.0321585

>  <SCORE.INTRA.VDW.0>
-0.778272

>  <SCORE.INTRA.norm>
0.00223178

>  <SCORE.RESTR>
1.23565

>  <SCORE.RESTR.CAVITY>
1.23565

>  <SCORE.RESTR.norm>
0.0561658

>  <SCORE.SYSTEM>
0

>  <SCORE.SYSTEM.CONST>
0

>  <SCORE.SYSTEM.DIHEDRAL>
0

>  <SCORE.SYSTEM.SOLV>
0

>  <SCORE.SYSTEM.norm>
0

>  <SCORE.heavy>
22

>  <SCORE.norm>
-0.268828

>  <RMSD>
14.933

$$$$
ligand
 OpenBabel11021811503D
libRbt.so/2013.1/901 2013/11/27
 22 24  0  0  0  0  0  0  0  0999 V2000
   -7.0383   -5.9989   24.0766 C   0  0  0  0  0  0  0  0  0  0  0  0
   -8.3644   -6.2270   23.6521 C   0  0  0  0  0  0  0  0  0  0  0  0
   -8.6921   -7.4420   23.0566 C   0  0  0  0  0  0  0  0  0  0  0  0
   -7.6972   -8.4206   22.8873 C   0  0  0  0  0  0  0  0  0  0  0  0
   -6.3633   -8.1892   23.3044 C   0  0  0  0  0  0  0  0  0  0  0  0
   -6.0382   -6.9768   23.8974 C   0  0  0  0  0  0  0  0  0  0  0  0
   -6.6552   -4.6528   24.7212 C   0  0  0  0  0  0  0  0  0  0  0  0
   -6.4653   -4.6939   26.2581 C   0  0  0  0  0  0  0  0  0  0  0  0
   -6.6325   -3.3385   26.9350 C   0  0  0  0  0  0  0  0  0  0  0  0
   -6.0736   -2.1512   26.4525 C   0  0  0  0  0  0  0  0  0  0  0  0
   -6.4426   -1.1648   27.3110 N   0  0  0  0  0  0  0  0  0  0  0  0
   -7.2237   -1.6362   28.3473 C   0  0  0  0  0  0  0  0  0  0  0  0
   -7.3719   -3.0047   28.1503 C   0  0  0  0  0  0  0  0  0  0  0  0
   -8.1644   -3.7300   29.1189 C   0  0  0  0  0  0  0  0  0  0  0  0
   -8.3618   -5.1011   28.9797 O   0  0  0  0  0  0  0  0  0  0  0  0
   -8.7211   -3.0411   30.1881 N   0  0  0  0  0  0  0  0  0  0  0  0
   -8.5572   -1.6943   30.3358 C   0  0  0  0  0  0  0  0  0  0  0  0
   -7.8279   -0.9896   29.4565 N   0  0  0  0  0  0  0  0  0  0  0  0
   -9.1787   -1.0082   31.4732 N   0  0  0  0  0  0  0  0  0  0  0  0
   -8.0781   -9.7234   22.2355 C   0  0  0  0  0  0  0  0  0  0  0  0
   -8.0184   -9.8435   21.0132 O   0  0  0  0  0  0  0  0  0  0  0  0
   -8.5161  -10.8137   23.0658 N   0  0  0  0  0  0  0  0  0  0  0  0
  1  2  2  0  0  0  0
  1  6  1  0  0  0  0
  1  7  1  0  0  0  0
  2  3  1  0  0  0  0
  3  4  2  0  0  0  0
  4  5  1  0  0  0  0
  4 20  1  0  0  0  0
  5  6  2  0  0  0  0
  7  8  1  0  0  0  0
  8  9  1  0  0  0  0
  9 10  2  0  0  0  0
  9 13  1  0  0  0  0
 10 11  1  0  0  0  0
 11 12  1  0  0  0  0
 12 13  2  0  0  0  0
 12 18  1  0  0  0  0
 13 14  1  0  0  0  0
 14 15  1  0  0  0  0
 14 16  2  0  0  0  0
 16 17  1  0  0  0  0
 17 18  2  0  0  0  0
 17 19  1  0  0  0  0
 20 21  2  0  0  0  0
 20 22  1  0  0  0  0
M  END
>  <CHROM.1>
104.61084209,88.73006792,-157.25884751,-44.55115902,-7.59040605,-5.00198537
26.16738006,-1.54271452,0.88811414,0.75874711

>  <Name>
ligand

>  <RI>
0

>  <Rbt.Current_Directory>
/home/itssahil/PROJECTS/Mol_Feturizer/New_Systems/rnas/4LVY

>  <Rbt.Executable>
rbdock ($Id: //depot/dev/client3/rdock/2013.1/src/exe/rbdock.cxx#4 $)

>  <Rbt.Library>
libRbt.so (2013.1, Build901 2013/11/27)

>  <Rbt.Parameter_File>
/export/apps/rDock/src/rDock_2013.1_src/data/scripts/dock_solv.prm

>  <Rbt.Receptor>
prm/blind_docking_40.prm

>  <SCORE>
-7.97746

>  <SCORE.INTER>
-8.69406

>  <SCORE.INTER.CONST>
1

>  <SCORE.INTER.POLAR>
0

>  <SCORE.INTER.ROT>
4

>  <SCORE.INTER.SOLV>
6.96823

>  <SCORE.INTER.VDW>
-14.3854

>  <SCORE.INTER.norm>
-0.395184

>  <SCORE.INTRA>
0.716601

>  <SCORE.INTRA.DIHEDRAL>
2.05109

>  <SCORE.INTRA.DIHEDRAL.0>
6.18831

>  <SCORE.INTRA.POLAR>
0

>  <SCORE.INTRA.POLAR.0>
0

>  <SCORE.INTRA.REPUL>
0

>  <SCORE.INTRA.REPUL.0>
0

>  <SCORE.INTRA.SOLV>
-0.00660795

>  <SCORE.INTRA.SOLV.lig_0>
-44.3465

>  <SCORE.INTRA.VDW>
-0.305638

>  <SCORE.INTRA.VDW.0>
-0.778272

>  <SCORE.INTRA.norm>
0.0325728

>  <SCORE.RESTR>
0

>  <SCORE.RESTR.CAVITY>
0

>  <SCORE.RESTR.norm>
0

>  <SCORE.SYSTEM>
0

>  <SCORE.SYSTEM.CONST>
0

>  <SCORE.SYSTEM.DIHEDRAL>
0

>  <SCORE.SYSTEM.SOLV>
0

>  <SCORE.SYSTEM.norm>
0

>  <SCORE.heavy>
22

>  <SCORE.norm>
-0.362612

>  <RMSD>
14.951

$$$$
ligand
 OpenBabel11021811503D
libRbt.so/2013.1/901 2013/11/27
 22 24  0  0  0  0  0  0  0  0999 V2000
   -6.6547   -2.8351   12.9874 C   0  0  0  0  0  0  0  0  0  0  0  0
   -8.0577   -2.7007   13.0517 C   0  0  0  0  0  0  0  0  0  0  0  0
   -8.7767   -2.4695   11.8821 C   0  0  0  0  0  0  0  0  0  0  0  0
   -8.0935   -2.3730   10.6572 C   0  0  0  0  0  0  0  0  0  0  0  0
   -6.6839   -2.4983   10.5925 C   0  0  0  0  0  0  0  0  0  0  0  0
   -5.9687   -2.7281   11.7599 C   0  0  0  0  0  0  0  0  0  0  0  0
   -5.8425   -3.0734   14.2749 C   0  0  0  0  0  0  0  0  0  0  0  0
   -5.0134   -4.3819   14.2927 C   0  0  0  0  0  0  0  0  0  0  0  0
   -4.0634   -4.4921   15.4796 C   0  0  0  0  0  0  0  0  0  0  0  0
   -4.4830   -4.6810   16.7999 C   0  0  0  0  0  0  0  0  0  0  0  0
   -3.3619   -4.7352   17.5655 N   0  0  0  0  0  0  0  0  0  0  0  0
   -2.2094   -4.5914   16.8191 C   0  0  0  0  0  0  0  0  0  0  0  0
   -2.6034   -4.4369   15.4946 C   0  0  0  0  0  0  0  0  0  0  0  0
   -1.5578   -4.2705   14.5090 C   0  0  0  0  0  0  0  0  0  0  0  0
   -1.8791   -4.1189   13.1629 O   0  0  0  0  0  0  0  0  0  0  0  0
   -0.2330   -4.2611   14.9245 N   0  0  0  0  0  0  0  0  0  0  0  0
    0.1076   -4.4265   16.2357 C   0  0  0  0  0  0  0  0  0  0  0  0
   -0.8363   -4.5830   17.1770 N   0  0  0  0  0  0  0  0  0  0  0  0
    1.5219   -4.4257   16.6236 N   0  0  0  0  0  0  0  0  0  0  0  0
   -8.8953   -2.1172    9.4086 C   0  0  0  0  0  0  0  0  0  0  0  0
   -8.7401   -2.8290    8.4180 O   0  0  0  0  0  0  0  0  0  0  0  0
   -9.8343   -1.0272    9.3971 N   0  0  0  0  0  0  0  0  0  0  0  0
  1  2  2  0  0  0  0
  1  6  1  0  0  0  0
  1  7  1  0  0  0  0
  2  3  1  0  0  0  0
  3  4  2  0  0  0  0
  4  5  1  0  0  0  0
  4 20  1  0  0  0  0
  5  6  2  0  0  0  0
  7  8  1  0  0  0  0
  8  9  1  0  0  0  0
  9 10  2  0  0  0  0
  9 13  1  0  0  0  0
 10 11  1  0  0  0  0
 11 12  1  0  0  0  0
 12 13  2  0  0  0  0
 12 18  1  0  0  0  0
 13 14  1  0  0  0  0
 14 15  1  0  0  0  0
 14 16  2  0  0  0  0
 16 17  1  0  0  0  0
 17 18  2  0  0  0  0
 17 19  1  0  0  0  0
 20 21  2  0  0  0  0
 20 22  1  0  0  0  0
M  END
>  <CHROM.1>
120.70683547,-129.57943862,171.35628953,69.90941084,-4.60014144,-3.55747098
13.68200045,2.44292618,0.11978275,-1.34974464

>  <Name>
ligand

>  <RI>
0

>  <Rbt.Current_Directory>
/home/itssahil/PROJECTS/Mol_Feturizer/New_Systems/rnas/4LVY

>  <Rbt.Executable>
rbdock ($Id: //depot/dev/client3/rdock/2013.1/src/exe/rbdock.cxx#4 $)

>  <Rbt.Library>
libRbt.so (2013.1, Build901 2013/11/27)

>  <Rbt.Parameter_File>
/export/apps/rDock/src/rDock_2013.1_src/data/scripts/dock_solv.prm

>  <Rbt.Receptor>
prm/blind_docking_20.prm

>  <SCORE>
-7.43826

>  <SCORE.INTER>
-9.25843

>  <SCORE.INTER.CONST>
1

>  <SCORE.INTER.POLAR>
0

>  <SCORE.INTER.ROT>
4

>  <SCORE.INTER.SOLV>
8.89745

>  <SCORE.INTER.VDW>
-15.4048

>  <SCORE.INTER.norm>
-0.420838

>  <SCORE.INTRA>
-0.155421

>  <SCORE.INTRA.DIHEDRAL>
0.356726

>  <SCORE.INTRA.DIHEDRAL.0>
6.18831

>  <SCORE.INTRA.POLAR>
0

>  <SCORE.INTRA.POLAR.0>
0

>  <SCORE.INTRA.REPUL>
0

>  <SCORE.INTRA.REPUL.0>
0

>  <SCORE.INTRA.SOLV>
0.0780573

>  <SCORE.INTRA.SOLV.lig_0>
-44.3465

>  <SCORE.INTRA.VDW>
-0.372812

>  <SCORE.INTRA.VDW.0>
-0.778272

>  <SCORE.INTRA.norm>
-0.00706457

>  <SCORE.RESTR>
1.97559

>  <SCORE.RESTR.CAVITY>
1.97559

>  <SCORE.RESTR.norm>
0.0897994

>  <SCORE.SYSTEM>
0

>  <SCORE.SYSTEM.CONST>
0

>  <SCORE.SYSTEM.DIHEDRAL>
0

>  <SCORE.SYSTEM.SOLV>
0

>  <SCORE.SYSTEM.norm>
0

>  <SCORE.heavy>
22

>  <SCORE.norm>
-0.338103

>  <RMSD>
14.952

$$$$
ligand
 OpenBabel11021811503D
libRbt.so/2013.1/901 2013/11/27
 22 24  0  0  0  0  0  0  0  0999 V2000
   -7.1947   -6.2744   22.2123 C   0  0  0  0  0  0  0  0  0  0  0  0
   -8.4699   -5.8940   21.7434 C   0  0  0  0  0  0  0  0  0  0  0  0
   -9.5871   -6.6311   22.1266 C   0  0  0  0  0  0  0  0  0  0  0  0
   -9.4265   -7.7420   22.9729 C   0  0  0  0  0  0  0  0  0  0  0  0
   -8.1456   -8.1307   23.4368 C   0  0  0  0  0  0  0  0  0  0  0  0
   -7.0328   -7.3949   23.0530 C   0  0  0  0  0  0  0  0  0  0  0  0
   -5.9462   -5.4800   21.7831 C   0  0  0  0  0  0  0  0  0  0  0  0
   -5.2793   -5.9672   20.4725 C   0  0  0  0  0  0  0  0  0  0  0  0
   -4.1373   -5.0772   19.9957 C   0  0  0  0  0  0  0  0  0  0  0  0
   -4.3212   -3.8670   19.3201 C   0  0  0  0  0  0  0  0  0  0  0  0
   -3.0842   -3.3651   19.0673 N   0  0  0  0  0  0  0  0  0  0  0  0
   -2.0788   -4.1833   19.5427 C   0  0  0  0  0  0  0  0  0  0  0  0
   -2.6970   -5.2768   20.1390 C   0  0  0  0  0  0  0  0  0  0  0  0
   -1.8388   -6.2850   20.7215 C   0  0  0  0  0  0  0  0  0  0  0  0
   -2.3893   -7.4027   21.3425 O   0  0  0  0  0  0  0  0  0  0  0  0
   -0.4616   -6.1234   20.6496 N   0  0  0  0  0  0  0  0  0  0  0  0
    0.1013   -5.0275   20.0626 C   0  0  0  0  0  0  0  0  0  0  0  0
   -0.6645   -4.0727   19.5116 N   0  0  0  0  0  0  0  0  0  0  0  0
    1.5612   -4.8936   20.0257 N   0  0  0  0  0  0  0  0  0  0  0  0
  -10.6511   -8.5245   23.3673 C   0  0  0  0  0  0  0  0  0  0  0  0
  -11.7715   -8.0971   23.0955 O   0  0  0  0  0  0  0  0  0  0  0  0
  -10.4839   -9.7693   24.0691 N   0  0  0  0  0  0  0  0  0  0  0  0
  1  2  2  0  0  0  0
  1  6  1  0  0  0  0
  1  7  1  0  0  0  0
  2  3  1  0  0  0  0
  3  4  2  0  0  0  0
  4  5  1  0  0  0  0
  4 20  1  0  0  0  0
  5  6  2  0  0  0  0
  7  8  1  0  0  0  0
  8  9  1  0  0  0  0
  9 10  2  0  0  0  0
  9 13  1  0  0  0  0
 10 11  1  0  0  0  0
 11 12  1  0  0  0  0
 12 13  2  0  0  0  0
 12 18  1  0  0  0  0
 13 14  1  0  0  0  0
 14 15  1  0  0  0  0
 14 16  2  0  0  0  0
 16 17  1  0  0  0  0
 17 18  2  0  0  0  0
 17 19  1  0  0  0  0
 20 21  2  0  0  0  0
 20 22  1  0  0  0  0
M  END
>  <CHROM.1>
-88.62909313,-9.22024873,173.97675740,-78.97816774,-5.15167056,-6.17851395
21.30569023,2.69422335,-0.09512236,2.53701125

>  <Name>
ligand

>  <RI>
0

>  <Rbt.Current_Directory>
/home/itssahil/PROJECTS/Mol_Feturizer/New_Systems/rnas/4LVY

>  <Rbt.Executable>
rbdock ($Id: //depot/dev/client3/rdock/2013.1/src/exe/rbdock.cxx#4 $)

>  <Rbt.Library>
libRbt.so (2013.1, Build901 2013/11/27)

>  <Rbt.Parameter_File>
/export/apps/rDock/src/rDock_2013.1_src/data/scripts/dock_solv.prm

>  <Rbt.Receptor>
prm/blind_docking_60.prm

>  <SCORE>
-13.3759

>  <SCORE.INTER>
-13.2231

>  <SCORE.INTER.CONST>
1

>  <SCORE.INTER.POLAR>
0

>  <SCORE.INTER.ROT>
4

>  <SCORE.INTER.SOLV>
10.1051

>  <SCORE.INTER.VDW>
-18.4504

>  <SCORE.INTER.norm>
-0.601051

>  <SCORE.INTRA>
-0.152809

>  <SCORE.INTRA.DIHEDRAL>
0.0891485

>  <SCORE.INTRA.DIHEDRAL.0>
6.18831

>  <SCORE.INTRA.POLAR>
0

>  <SCORE.INTRA.POLAR.0>
0

>  <SCORE.INTRA.REPUL>
0

>  <SCORE.INTRA.REPUL.0>
0

>  <SCORE.INTRA.SOLV>
0.122966

>  <SCORE.INTRA.SOLV.lig_0>
-44.3465

>  <SCORE.INTRA.VDW>
-0.258867

>  <SCORE.INTRA.VDW.0>
-0.778272

>  <SCORE.INTRA.norm>
-0.00694587

>  <SCORE.RESTR>
0

>  <SCORE.RESTR.CAVITY>
0

>  <SCORE.RESTR.norm>
0

>  <SCORE.SYSTEM>
0

>  <SCORE.SYSTEM.CONST>
0

>  <SCORE.SYSTEM.DIHEDRAL>
0

>  <SCORE.SYSTEM.SOLV>
0

>  <SCORE.SYSTEM.norm>
0

>  <SCORE.heavy>
22

>  <SCORE.norm>
-0.607996

>  <RMSD>
14.975

$$$$
ligand
 OpenBabel11021811503D
libRbt.so/2013.1/901 2013/11/27
 22 24  0  0  0  0  0  0  0  0999 V2000
   -5.5078   -5.9036   21.6855 C   0  0  0  0  0  0  0  0  0  0  0  0
   -5.1101   -4.9861   20.6902 C   0  0  0  0  0  0  0  0  0  0  0  0
   -3.8779   -5.1492   20.0630 C   0  0  0  0  0  0  0  0  0  0  0  0
   -3.0503   -6.2240   20.4319 C   0  0  0  0  0  0  0  0  0  0  0  0
   -3.4442   -7.1405   21.4377 C   0  0  0  0  0  0  0  0  0  0  0  0
   -4.6729   -6.9758   22.0625 C   0  0  0  0  0  0  0  0  0  0  0  0
   -6.8604   -5.7269   22.4019 C   0  0  0  0  0  0  0  0  0  0  0  0
   -8.1060   -5.8641   21.4910 C   0  0  0  0  0  0  0  0  0  0  0  0
   -8.0686   -7.0837   20.5774 C   0  0  0  0  0  0  0  0  0  0  0  0
   -7.5038   -7.0833   19.2983 C   0  0  0  0  0  0  0  0  0  0  0  0
   -7.6542   -8.3388   18.8011 N   0  0  0  0  0  0  0  0  0  0  0  0
   -8.2939   -9.1814   19.6882 C   0  0  0  0  0  0  0  0  0  0  0  0
   -8.5732   -8.4322   20.8259 C   0  0  0  0  0  0  0  0  0  0  0  0
   -9.2472   -9.1075   21.9131 C   0  0  0  0  0  0  0  0  0  0  0  0
   -9.5508   -8.4213   23.0857 O   0  0  0  0  0  0  0  0  0  0  0  0
   -9.5888  -10.4456   21.7690 N   0  0  0  0  0  0  0  0  0  0  0  0
   -9.2853  -11.1444   20.6367 C   0  0  0  0  0  0  0  0  0  0  0  0
   -8.6609  -10.5497   19.6080 N   0  0  0  0  0  0  0  0  0  0  0  0
   -9.6522  -12.5608   20.5380 N   0  0  0  0  0  0  0  0  0  0  0  0
   -1.7207   -6.3735   19.7412 C   0  0  0  0  0  0  0  0  0  0  0  0
   -1.5441   -7.2811   18.9305 O   0  0  0  0  0  0  0  0  0  0  0  0
   -0.6678   -5.4437   20.0523 N   0  0  0  0  0  0  0  0  0  0  0  0
  1  2  2  0  0  0  0
  1  6  1  0  0  0  0
  1  7  1  0  0  0  0
  2  3  1  0  0  0  0
  3  4  2  0  0  0  0
  4  5  1  0  0  0  0
  4 20  1  0  0  0  0
  5  6  2  0  0  0  0
  7  8  1  0  0  0  0
  8  9  1  0  0  0  0
  9 10  2  0  0  0  0
  9 13  1  0  0  0  0
 10 11  1  0  0  0  0
 11 12  1  0  0  0  0
 12 13  2  0  0  0  0
 12 18  1  0  0  0  0
 13 14  1  0  0  0  0
 14 15  1  0  0  0  0
 14 16  2  0  0  0  0
 16 17  1  0  0  0  0
 17 18  2  0  0  0  0
 17 19  1  0  0  0  0
 20 21  2  0  0  0  0
 20 22  1  0  0  0  0
M  END
>  <CHROM.1>
64.14862998,-108.14917970,47.30670355,-89.09013870,-6.41428289,-7.73974807
20.72089957,0.41466404,0.36375964,0.48879895

>  <Name>
ligand

>  <RI>
0

>  <Rbt.Current_Directory>
/home/itssahil/PROJECTS/Mol_Feturizer/New_Systems/rnas/4LVY

>  <Rbt.Executable>
rbdock ($Id: //depot/dev/client3/rdock/2013.1/src/exe/rbdock.cxx#4 $)

>  <Rbt.Library>
libRbt.so (2013.1, Build901 2013/11/27)

>  <Rbt.Parameter_File>
/export/apps/rDock/src/rDock_2013.1_src/data/scripts/dock_solv.prm

>  <Rbt.Receptor>
prm/blind_docking_60.prm

>  <SCORE>
-10.8524

>  <SCORE.INTER>
-9.91862

>  <SCORE.INTER.CONST>
1

>  <SCORE.INTER.POLAR>
0

>  <SCORE.INTER.ROT>
4

>  <SCORE.INTER.SOLV>
7.31743

>  <SCORE.INTER.VDW>
-15.3182

>  <SCORE.INTER.norm>
-0.450846

>  <SCORE.INTRA>
-0.933781

>  <SCORE.INTRA.DIHEDRAL>
0.646934

>  <SCORE.INTRA.DIHEDRAL.0>
6.18831

>  <SCORE.INTRA.POLAR>
0

>  <SCORE.INTRA.POLAR.0>
0

>  <SCORE.INTRA.REPUL>
0

>  <SCORE.INTRA.REPUL.0>
0

>  <SCORE.INTRA.SOLV>
0.152108

>  <SCORE.INTRA.SOLV.lig_0>
-44.3465

>  <SCORE.INTRA.VDW>
-1.3333

>  <SCORE.INTRA.VDW.0>
-0.778272

>  <SCORE.INTRA.norm>
-0.0424446

>  <SCORE.RESTR>
0

>  <SCORE.RESTR.CAVITY>
0

>  <SCORE.RESTR.norm>
0

>  <SCORE.SYSTEM>
0

>  <SCORE.SYSTEM.CONST>
0

>  <SCORE.SYSTEM.DIHEDRAL>
0

>  <SCORE.SYSTEM.SOLV>
0

>  <SCORE.SYSTEM.norm>
0

>  <SCORE.heavy>
22

>  <SCORE.norm>
-0.493291

>  <RMSD>
15.163

$$$$
ligand
 OpenBabel11021811503D
libRbt.so/2013.1/901 2013/11/27
 22 24  0  0  0  0  0  0  0  0999 V2000
   -6.0176   -5.3624   25.2367 C   0  0  0  0  0  0  0  0  0  0  0  0
   -6.6606   -4.1692   25.6284 C   0  0  0  0  0  0  0  0  0  0  0  0
   -6.1700   -3.4540   26.7174 C   0  0  0  0  0  0  0  0  0  0  0  0
   -5.0435   -3.9323   27.4090 C   0  0  0  0  0  0  0  0  0  0  0  0
   -4.4026   -5.1351   27.0226 C   0  0  0  0  0  0  0  0  0  0  0  0
   -4.8937   -5.8473   25.9369 C   0  0  0  0  0  0  0  0  0  0  0  0
   -6.5588   -6.1752   24.0448 C   0  0  0  0  0  0  0  0  0  0  0  0
   -6.6742   -5.3888   22.7151 C   0  0  0  0  0  0  0  0  0  0  0  0
   -7.4889   -6.1061   21.6449 C   0  0  0  0  0  0  0  0  0  0  0  0
   -8.7066   -5.6349   21.1449 C   0  0  0  0  0  0  0  0  0  0  0  0
   -9.1226   -6.5312   20.2123 N   0  0  0  0  0  0  0  0  0  0  0  0
   -8.2395   -7.5820   20.0638 C   0  0  0  0  0  0  0  0  0  0  0  0
   -7.1904   -7.3550   20.9478 C   0  0  0  0  0  0  0  0  0  0  0  0
   -6.1240   -8.3320   20.9730 C   0  0  0  0  0  0  0  0  0  0  0  0
   -5.0379   -8.1645   21.8276 O   0  0  0  0  0  0  0  0  0  0  0  0
   -6.2010   -9.4378   20.1369 N   0  0  0  0  0  0  0  0  0  0  0  0
   -7.2462   -9.6144   19.2772 C   0  0  0  0  0  0  0  0  0  0  0  0
   -8.2532   -8.7283   19.2276 N   0  0  0  0  0  0  0  0  0  0  0  0
   -7.2748  -10.7905   18.4017 N   0  0  0  0  0  0  0  0  0  0  0  0
   -4.5373   -3.1417   28.5862 C   0  0  0  0  0  0  0  0  0  0  0  0
   -4.8800   -3.4448   29.7276 O   0  0  0  0  0  0  0  0  0  0  0  0
   -3.6565   -2.0290   28.3489 N   0  0  0  0  0  0  0  0  0  0  0  0
  1  2  2  0  0  0  0
  1  6  1  0  0  0  0
  1  7  1  0  0  0  0
  2  3  1  0  0  0  0
  3  4  2  0  0  0  0
  4  5  1  0  0  0  0
  4 20  1  0  0  0  0
  5  6  2  0  0  0  0
  7  8  1  0  0  0  0
  8  9  1  0  0  0  0
  9 10  2  0  0  0  0
  9 13  1  0  0  0  0
 10 11  1  0  0  0  0
 11 12  1  0  0  0  0
 12 13  2  0  0  0  0
 12 18  1  0  0  0  0
 13 14  1  0  0  0  0
 14 15  1  0  0  0  0
 14 16  2  0  0  0  0
 16 17  1  0  0  0  0
 17 18  2  0  0  0  0
 17 19  1  0  0  0  0
 20 21  2  0  0  0  0
 20 22  1  0  0  0  0
M  END
>  <CHROM.1>
56.19554945,95.89980092,-167.15679906,114.73900357,-6.36273908,-6.22671635
23.40966552,-1.23164212,0.66617577,-2.34291181

>  <Name>
ligand

>  <RI>
0

>  <Rbt.Current_Directory>
/home/itssahil/PROJECTS/Mol_Feturizer/New_Systems/rnas/4LVY

>  <Rbt.Executable>
rbdock ($Id: //depot/dev/client3/rdock/2013.1/src/exe/rbdock.cxx#4 $)

>  <Rbt.Library>
libRbt.so (2013.1, Build901 2013/11/27)

>  <Rbt.Parameter_File>
/export/apps/rDock/src/rDock_2013.1_src/data/scripts/dock_solv.prm

>  <Rbt.Receptor>
prm/blind_docking_100.prm

>  <SCORE>
-12.3391

>  <SCORE.INTER>
-12.2107

>  <SCORE.INTER.CONST>
1

>  <SCORE.INTER.POLAR>
0

>  <SCORE.INTER.ROT>
4

>  <SCORE.INTER.SOLV>
6.75984

>  <SCORE.INTER.VDW>
-16.6604

>  <SCORE.INTER.norm>
-0.555034

>  <SCORE.INTRA>
-0.128388

>  <SCORE.INTRA.DIHEDRAL>
0.705653

>  <SCORE.INTRA.DIHEDRAL.0>
6.18831

>  <SCORE.INTRA.POLAR>
0

>  <SCORE.INTRA.POLAR.0>
0

>  <SCORE.INTRA.REPUL>
0

>  <SCORE.INTRA.REPUL.0>
0

>  <SCORE.INTRA.SOLV>
0.261312

>  <SCORE.INTRA.SOLV.lig_0>
-44.3465

>  <SCORE.INTRA.VDW>
-0.61187

>  <SCORE.INTRA.VDW.0>
-0.778272

>  <SCORE.INTRA.norm>
-0.0058358

>  <SCORE.RESTR>
0

>  <SCORE.RESTR.CAVITY>
0

>  <SCORE.RESTR.norm>
0

>  <SCORE.SYSTEM>
0

>  <SCORE.SYSTEM.CONST>
0

>  <SCORE.SYSTEM.DIHEDRAL>
0

>  <SCORE.SYSTEM.SOLV>
0

>  <SCORE.SYSTEM.norm>
0

>  <SCORE.heavy>
22

>  <SCORE.norm>
-0.56087

>  <RMSD>
15.249

$$$$
ligand
 OpenBabel11021811503D
libRbt.so/2013.1/901 2013/11/27
 22 24  0  0  0  0  0  0  0  0999 V2000
   -7.6897   -6.9153   20.8790 C   0  0  0  0  0  0  0  0  0  0  0  0
   -8.6703   -5.9036   20.8044 C   0  0  0  0  0  0  0  0  0  0  0  0
   -9.9409   -6.1435   21.3204 C   0  0  0  0  0  0  0  0  0  0  0  0
  -10.2262   -7.3892   21.9060 C   0  0  0  0  0  0  0  0  0  0  0  0
   -9.2455   -8.4093   21.9731 C   0  0  0  0  0  0  0  0  0  0  0  0
   -7.9793   -8.1684   21.4574 C   0  0  0  0  0  0  0  0  0  0  0  0
   -6.2841   -6.6721   20.2966 C   0  0  0  0  0  0  0  0  0  0  0  0
   -5.4206   -5.6496   21.0768 C   0  0  0  0  0  0  0  0  0  0  0  0
   -4.3257   -5.0017   20.2372 C   0  0  0  0  0  0  0  0  0  0  0  0
   -4.5381   -3.9174   19.3805 C   0  0  0  0  0  0  0  0  0  0  0  0
   -3.3383   -3.6203   18.8163 N   0  0  0  0  0  0  0  0  0  0  0  0
   -2.3307   -4.4557   19.2555 C   0  0  0  0  0  0  0  0  0  0  0  0
   -2.9075   -5.3440   20.1566 C   0  0  0  0  0  0  0  0  0  0  0  0
   -2.0382   -6.3283   20.7629 C   0  0  0  0  0  0  0  0  0  0  0  0
   -2.5460   -7.2440   21.6803 O   0  0  0  0  0  0  0  0  0  0  0  0
   -0.6941   -6.3484   20.4149 N   0  0  0  0  0  0  0  0  0  0  0  0
   -0.1692   -5.4495   19.5323 C   0  0  0  0  0  0  0  0  0  0  0  0
   -0.9466   -4.5228   18.9503 N   0  0  0  0  0  0  0  0  0  0  0  0
    1.2602   -5.5002   19.2087 N   0  0  0  0  0  0  0  0  0  0  0  0
  -11.6100   -7.6237   22.4514 C   0  0  0  0  0  0  0  0  0  0  0  0
  -12.1601   -6.7606   23.1330 O   0  0  0  0  0  0  0  0  0  0  0  0
  -12.2670   -8.8715   22.1659 N   0  0  0  0  0  0  0  0  0  0  0  0
  1  2  2  0  0  0  0
  1  6  1  0  0  0  0
  1  7  1  0  0  0  0
  2  3  1  0  0  0  0
  3  4  2  0  0  0  0
  4  5  1  0  0  0  0
  4 20  1  0  0  0  0
  5  6  2  0  0  0  0
  7  8  1  0  0  0  0
  8  9  1  0  0  0  0
  9 10  2  0  0  0  0
  9 13  1  0  0  0  0
 10 11  1  0  0  0  0
 11 12  1  0  0  0  0
 12 13  2  0  0  0  0
 12 18  1  0  0  0  0
 13 14  1  0  0  0  0
 14 15  1  0  0  0  0
 14 16  2  0  0  0  0
 16 17  1  0  0  0  0
 17 18  2  0  0  0  0
 17 19  1  0  0  0  0
 20 21  2  0  0  0  0
 20 22  1  0  0  0  0
M  END
>  <CHROM.1>
69.80800251,-44.85991608,-156.42483988,81.93305198,-5.60505396,-6.20014958
20.73915850,-2.83095062,0.10641702,-0.50606476

>  <Name>
ligand

>  <RI>
0

>  <Rbt.Current_Directory>
/home/itssahil/PROJECTS/Mol_Feturizer/New_Systems/rnas/4LVY

>  <Rbt.Executable>
rbdock ($Id: //depot/dev/client3/rdock/2013.1/src/exe/rbdock.cxx#4 $)

>  <Rbt.Library>
libRbt.so (2013.1, Build901 2013/11/27)

>  <Rbt.Parameter_File>
/export/apps/rDock/src/rDock_2013.1_src/data/scripts/dock_solv.prm

>  <Rbt.Receptor>
prm/blind_docking_60.prm

>  <SCORE>
-9.67021

>  <SCORE.INTER>
-10.3303

>  <SCORE.INTER.CONST>
1

>  <SCORE.INTER.POLAR>
0

>  <SCORE.INTER.ROT>
4

>  <SCORE.INTER.SOLV>
8.22493

>  <SCORE.INTER.VDW>
-15.8952

>  <SCORE.INTER.norm>
-0.469557

>  <SCORE.INTRA>
0.660051

>  <SCORE.INTRA.DIHEDRAL>
2.15205

>  <SCORE.INTRA.DIHEDRAL.0>
6.18831

>  <SCORE.INTRA.POLAR>
0

>  <SCORE.INTRA.POLAR.0>
0

>  <SCORE.INTRA.REPUL>
0

>  <SCORE.INTRA.REPUL.0>
0

>  <SCORE.INTRA.SOLV>
0.124422

>  <SCORE.INTRA.SOLV.lig_0>
-44.3465

>  <SCORE.INTRA.VDW>
-0.478184

>  <SCORE.INTRA.VDW.0>
-0.778272

>  <SCORE.INTRA.norm>
0.0300023

>  <SCORE.RESTR>
0

>  <SCORE.RESTR.CAVITY>
0

>  <SCORE.RESTR.norm>
0

>  <SCORE.SYSTEM>
0

>  <SCORE.SYSTEM.CONST>
0

>  <SCORE.SYSTEM.DIHEDRAL>
0

>  <SCORE.SYSTEM.SOLV>
0

>  <SCORE.SYSTEM.norm>
0

>  <SCORE.heavy>
22

>  <SCORE.norm>
-0.439555

>  <RMSD>
15.337

$$$$
ligand
 OpenBabel11021811503D
libRbt.so/2013.1/901 2013/11/27
 22 24  0  0  0  0  0  0  0  0999 V2000
   -6.1178   -5.0046   25.3735 C   0  0  0  0  0  0  0  0  0  0  0  0
   -5.1864   -5.7744   26.1020 C   0  0  0  0  0  0  0  0  0  0  0  0
   -4.8677   -5.4072   27.4066 C   0  0  0  0  0  0  0  0  0  0  0  0
   -5.4779   -4.2760   27.9760 C   0  0  0  0  0  0  0  0  0  0  0  0
   -6.4061   -3.4968   27.2425 C   0  0  0  0  0  0  0  0  0  0  0  0
   -6.7221   -3.8641   25.9415 C   0  0  0  0  0  0  0  0  0  0  0  0
   -6.4679   -5.3870   23.9225 C   0  0  0  0  0  0  0  0  0  0  0  0
   -7.8866   -5.9773   23.7257 C   0  0  0  0  0  0  0  0  0  0  0  0
   -8.2363   -6.2659   22.2704 C   0  0  0  0  0  0  0  0  0  0  0  0
   -9.2790   -5.6407   21.5798 C   0  0  0  0  0  0  0  0  0  0  0  0
   -9.2763   -6.1479   20.3194 N   0  0  0  0  0  0  0  0  0  0  0  0
   -8.2794   -7.0846   20.1328 C   0  0  0  0  0  0  0  0  0  0  0  0
   -7.5951   -7.1908   21.3386 C   0  0  0  0  0  0  0  0  0  0  0  0
   -6.4885   -8.1208   21.3911 C   0  0  0  0  0  0  0  0  0  0  0  0
   -5.7533   -8.2725   22.5635 O   0  0  0  0  0  0  0  0  0  0  0  0
   -6.1732   -8.8603   20.2589 N   0  0  0  0  0  0  0  0  0  0  0  0
   -6.8672   -8.7157   19.0927 C   0  0  0  0  0  0  0  0  0  0  0  0
   -7.8999   -7.8624   19.0082 N   0  0  0  0  0  0  0  0  0  0  0  0
   -6.4861   -9.5073   17.9186 N   0  0  0  0  0  0  0  0  0  0  0  0
   -5.1109   -3.8987   29.3867 C   0  0  0  0  0  0  0  0  0  0  0  0
   -5.5686   -4.5334   30.3352 O   0  0  0  0  0  0  0  0  0  0  0  0
   -4.2259   -2.7845   29.6000 N   0  0  0  0  0  0  0  0  0  0  0  0
  1  2  2  0  0  0  0
  1  6  1  0  0  0  0
  1  7  1  0  0  0  0
  2  3  1  0  0  0  0
  3  4  2  0  0  0  0
  4  5  1  0  0  0  0
  4 20  1  0  0  0  0
  5  6  2  0  0  0  0
  7  8  1  0  0  0  0
  8  9  1  0  0  0  0
  9 10  2  0  0  0  0
  9 13  1  0  0  0  0
 10 11  1  0  0  0  0
 11 12  1  0  0  0  0
 12 13  2  0  0  0  0
 12 18  1  0  0  0  0
 13 14  1  0  0  0  0
 14 15  1  0  0  0  0
 14 16  2  0  0  0  0
 16 17  1  0  0  0  0
 17 18  2  0  0  0  0
 17 19  1  0  0  0  0
 20 21  2  0  0  0  0
 20 22  1  0  0  0  0
M  END
>  <CHROM.1>
108.63881003,-76.28790352,176.43306340,-117.46365929,-6.63854303,-6.12973422
23.76128330,1.30388973,-0.62833545,0.98944941

>  <Name>
ligand

>  <RI>
0

>  <Rbt.Current_Directory>
/home/itssahil/PROJECTS/Mol_Feturizer/New_Systems/rnas/4LVY

>  <Rbt.Executable>
rbdock ($Id: //depot/dev/client3/rdock/2013.1/src/exe/rbdock.cxx#4 $)

>  <Rbt.Library>
libRbt.so (2013.1, Build901 2013/11/27)

>  <Rbt.Parameter_File>
/export/apps/rDock/src/rDock_2013.1_src/data/scripts/dock_solv.prm

>  <Rbt.Receptor>
prm/blind_docking_40.prm

>  <SCORE>
-10.4141

>  <SCORE.INTER>
-9.88722

>  <SCORE.INTER.CONST>
1

>  <SCORE.INTER.POLAR>
0

>  <SCORE.INTER.ROT>
4

>  <SCORE.INTER.SOLV>
7.05018

>  <SCORE.INTER.VDW>
-15.2082

>  <SCORE.INTER.norm>
-0.449419

>  <SCORE.INTRA>
-0.527264

>  <SCORE.INTRA.DIHEDRAL>
0.0982141

>  <SCORE.INTRA.DIHEDRAL.0>
6.18831

>  <SCORE.INTRA.POLAR>
0

>  <SCORE.INTRA.POLAR.0>
0

>  <SCORE.INTRA.REPUL>
0

>  <SCORE.INTRA.REPUL.0>
0

>  <SCORE.INTRA.SOLV>
0.279766

>  <SCORE.INTRA.SOLV.lig_0>
-44.3465

>  <SCORE.INTRA.VDW>
-0.716254

>  <SCORE.INTRA.VDW.0>
-0.778272

>  <SCORE.INTRA.norm>
-0.0239665

>  <SCORE.RESTR>
0.000414042

>  <SCORE.RESTR.CAVITY>
0.000414042

>  <SCORE.RESTR.norm>
1.88201e-05

>  <SCORE.SYSTEM>
0

>  <SCORE.SYSTEM.CONST>
0

>  <SCORE.SYSTEM.DIHEDRAL>
0

>  <SCORE.SYSTEM.SOLV>
0

>  <SCORE.SYSTEM.norm>
0

>  <SCORE.heavy>
22

>  <SCORE.norm>
-0.473367

>  <RMSD>
15.428

$$$$
ligand
 OpenBabel11021811503D
libRbt.so/2013.1/901 2013/11/27
 22 24  0  0  0  0  0  0  0  0999 V2000
   -5.9020   -5.7853   24.8110 C   0  0  0  0  0  0  0  0  0  0  0  0
   -6.8908   -4.8083   25.0525 C   0  0  0  0  0  0  0  0  0  0  0  0
   -6.9469   -4.1851   26.2962 C   0  0  0  0  0  0  0  0  0  0  0  0
   -6.0186   -4.5398   27.2906 C   0  0  0  0  0  0  0  0  0  0  0  0
   -5.0312   -5.5273   27.0526 C   0  0  0  0  0  0  0  0  0  0  0  0
   -4.9774   -6.1481   25.8121 C   0  0  0  0  0  0  0  0  0  0  0  0
   -5.8376   -6.4972   23.4460 C   0  0  0  0  0  0  0  0  0  0  0  0
   -6.1046   -5.5878   22.2206 C   0  0  0  0  0  0  0  0  0  0  0  0
   -5.9971   -6.3109   20.8830 C   0  0  0  0  0  0  0  0  0  0  0  0
   -5.1002   -5.9522   19.8722 C   0  0  0  0  0  0  0  0  0  0  0  0
   -5.2939   -6.8224   18.8469 N   0  0  0  0  0  0  0  0  0  0  0  0
   -6.2796   -7.7485   19.1238 C   0  0  0  0  0  0  0  0  0  0  0  0
   -6.7516   -7.4654   20.4008 C   0  0  0  0  0  0  0  0  0  0  0  0
   -7.8009   -8.3143   20.9210 C   0  0  0  0  0  0  0  0  0  0  0  0
   -8.3154   -8.0941   22.1958 O   0  0  0  0  0  0  0  0  0  0  0  0
   -8.2883   -9.3471   20.1312 N   0  0  0  0  0  0  0  0  0  0  0  0
   -7.7873   -9.5942   18.8860 C   0  0  0  0  0  0  0  0  0  0  0  0
   -6.8138   -8.8265   18.3715 N   0  0  0  0  0  0  0  0  0  0  0  0
   -8.3235  -10.7073   18.0960 N   0  0  0  0  0  0  0  0  0  0  0  0
   -6.1054   -3.8538   28.6282 C   0  0  0  0  0  0  0  0  0  0  0  0
   -5.6200   -2.7345   28.7813 O   0  0  0  0  0  0  0  0  0  0  0  0
   -6.7572   -4.5331   29.7163 N   0  0  0  0  0  0  0  0  0  0  0  0
  1  2  2  0  0  0  0
  1  6  1  0  0  0  0
  1  7  1  0  0  0  0
  2  3  1  0  0  0  0
  3  4  2  0  0  0  0
  4  5  1  0  0  0  0
  4 20  1  0  0  0  0
  5  6  2  0  0  0  0
  7  8  1  0  0  0  0
  8  9  1  0  0  0  0
  9 10  2  0  0  0  0
  9 13  1  0  0  0  0
 10 11  1  0  0  0  0
 11 12  1  0  0  0  0
 12 13  2  0  0  0  0
 12 18  1  0  0  0  0
 13 14  1  0  0  0  0
 14 15  1  0  0  0  0
 14 16  2  0  0  0  0
 16 17  1  0  0  0  0
 17 18  2  0  0  0  0
 17 19  1  0  0  0  0
 20 21  2  0  0  0  0
 20 22  1  0  0  0  0
M  END
>  <CHROM.1>
39.73016102,-80.93872635,178.43009443,-120.61996420,-6.52396819,-6.53332387
23.03348039,-1.40171312,-0.79797677,-1.91910665

>  <Name>
ligand

>  <RI>
0

>  <Rbt.Current_Directory>
/home/itssahil/PROJECTS/Mol_Feturizer/New_Systems/rnas/4LVY

>  <Rbt.Executable>
rbdock ($Id: //depot/dev/client3/rdock/2013.1/src/exe/rbdock.cxx#4 $)

>  <Rbt.Library>
libRbt.so (2013.1, Build901 2013/11/27)

>  <Rbt.Parameter_File>
/export/apps/rDock/src/rDock_2013.1_src/data/scripts/dock_solv.prm

>  <Rbt.Receptor>
prm/blind_docking_100.prm

>  <SCORE>
-10.933

>  <SCORE.INTER>
-10.6246

>  <SCORE.INTER.CONST>
1

>  <SCORE.INTER.POLAR>
0

>  <SCORE.INTER.ROT>
4

>  <SCORE.INTER.SOLV>
5.81689

>  <SCORE.INTER.VDW>
-15.2887

>  <SCORE.INTER.norm>
-0.482936

>  <SCORE.INTRA>
-0.308897

>  <SCORE.INTRA.DIHEDRAL>
-0.056957

>  <SCORE.INTRA.DIHEDRAL.0>
6.18831

>  <SCORE.INTRA.POLAR>
0

>  <SCORE.INTRA.POLAR.0>
0

>  <SCORE.INTRA.REPUL>
0

>  <SCORE.INTRA.REPUL.0>
0

>  <SCORE.INTRA.SOLV>
0.294028

>  <SCORE.INTRA.SOLV.lig_0>
-44.3465

>  <SCORE.INTRA.VDW>
-0.427433

>  <SCORE.INTRA.VDW.0>
-0.778272

>  <SCORE.INTRA.norm>
-0.0140408

>  <SCORE.RESTR>
0.000526886

>  <SCORE.RESTR.CAVITY>
0.000526886

>  <SCORE.RESTR.norm>
2.39494e-05

>  <SCORE.SYSTEM>
0

>  <SCORE.SYSTEM.CONST>
0

>  <SCORE.SYSTEM.DIHEDRAL>
0

>  <SCORE.SYSTEM.SOLV>
0

>  <SCORE.SYSTEM.norm>
0

>  <SCORE.heavy>
22

>  <SCORE.norm>
-0.496953

>  <RMSD>
15.644

$$$$
ligand
 OpenBabel11021811503D
libRbt.so/2013.1/901 2013/11/27
 22 24  0  0  0  0  0  0  0  0999 V2000
   -5.6972   -5.9249   24.0658 C   0  0  0  0  0  0  0  0  0  0  0  0
   -6.6784   -4.9322   24.2722 C   0  0  0  0  0  0  0  0  0  0  0  0
   -6.8029   -4.3448   25.5283 C   0  0  0  0  0  0  0  0  0  0  0  0
   -5.9503   -4.7505   26.5698 C   0  0  0  0  0  0  0  0  0  0  0  0
   -4.9710   -5.7537   26.3664 C   0  0  0  0  0  0  0  0  0  0  0  0
   -4.8489   -6.3388   25.1134 C   0  0  0  0  0  0  0  0  0  0  0  0
   -5.5584   -6.5976   22.6865 C   0  0  0  0  0  0  0  0  0  0  0  0
   -6.4303   -5.9783   21.5658 C   0  0  0  0  0  0  0  0  0  0  0  0
   -7.9288   -6.0739   21.8285 C   0  0  0  0  0  0  0  0  0  0  0  0
   -8.8302   -5.0313   21.5933 C   0  0  0  0  0  0  0  0  0  0  0  0
  -10.0616   -5.4899   21.9386 N   0  0  0  0  0  0  0  0  0  0  0  0
  -10.0275   -6.7927   22.3946 C   0  0  0  0  0  0  0  0  0  0  0  0
   -8.7003   -7.2040   22.3409 C   0  0  0  0  0  0  0  0  0  0  0  0
   -8.4086   -8.5539   22.7709 C   0  0  0  0  0  0  0  0  0  0  0  0
   -7.1029   -9.0356   22.7362 O   0  0  0  0  0  0  0  0  0  0  0  0
   -9.4468   -9.3589   23.2205 N   0  0  0  0  0  0  0  0  0  0  0  0
  -10.7373   -8.9156   23.2463 C   0  0  0  0  0  0  0  0  0  0  0  0
  -11.0442   -7.6688   22.8551 N   0  0  0  0  0  0  0  0  0  0  0  0
  -11.8021   -9.8088   23.7142 N   0  0  0  0  0  0  0  0  0  0  0  0
   -6.1103   -4.1024   27.9194 C   0  0  0  0  0  0  0  0  0  0  0  0
   -6.1758   -2.8780   28.0132 O   0  0  0  0  0  0  0  0  0  0  0  0
   -6.1776   -4.9388   29.0882 N   0  0  0  0  0  0  0  0  0  0  0  0
  1  2  2  0  0  0  0
  1  6  1  0  0  0  0
  1  7  1  0  0  0  0
  2  3  1  0  0  0  0
  3  4  2  0  0  0  0
  4  5  1  0  0  0  0
  4 20  1  0  0  0  0
  5  6  2  0  0  0  0
  7  8  1  0  0  0  0
  8  9  1  0  0  0  0
  9 10  2  0  0  0  0
  9 13  1  0  0  0  0
 10 11  1  0  0  0  0
 11 12  1  0  0  0  0
 12 13  2  0  0  0  0
 12 18  1  0  0  0  0
 13 14  1  0  0  0  0
 14 15  1  0  0  0  0
 14 16  2  0  0  0  0
 16 17  1  0  0  0  0
 17 18  2  0  0  0  0
 17 19  1  0  0  0  0
 20 21  2  0  0  0  0
 20 22  1  0  0  0  0
M  END
>  <CHROM.1>
7.24090602,-48.69349776,-62.27355458,137.24517036,-7.72021094,-6.40907397
24.09431829,-0.83293292,-0.56033964,-1.79664878

>  <Name>
ligand

>  <RI>
0

>  <Rbt.Current_Directory>
/home/itssahil/PROJECTS/Mol_Feturizer/New_Systems/rnas/4LVY

>  <Rbt.Executable>
rbdock ($Id: //depot/dev/client3/rdock/2013.1/src/exe/rbdock.cxx#4 $)

>  <Rbt.Library>
libRbt.so (2013.1, Build901 2013/11/27)

>  <Rbt.Parameter_File>
/export/apps/rDock/src/rDock_2013.1_src/data/scripts/dock_solv.prm

>  <Rbt.Receptor>
prm/blind_docking_60.prm

>  <SCORE>
-14.706

>  <SCORE.INTER>
-14.6322

>  <SCORE.INTER.CONST>
1

>  <SCORE.INTER.POLAR>
0

>  <SCORE.INTER.ROT>
4

>  <SCORE.INTER.SOLV>
5.00426

>  <SCORE.INTER.VDW>
-17.6896

>  <SCORE.INTER.norm>
-0.665102

>  <SCORE.INTRA>
-0.0737496

>  <SCORE.INTRA.DIHEDRAL>
0.0154424

>  <SCORE.INTRA.DIHEDRAL.0>
6.18831

>  <SCORE.INTRA.POLAR>
0

>  <SCORE.INTRA.POLAR.0>
0

>  <SCORE.INTRA.REPUL>
0

>  <SCORE.INTRA.REPUL.0>
0

>  <SCORE.INTRA.SOLV>
0.413633

>  <SCORE.INTRA.SOLV.lig_0>
-44.3465

>  <SCORE.INTRA.VDW>
-0.288287

>  <SCORE.INTRA.VDW.0>
-0.778272

>  <SCORE.INTRA.norm>
-0.00335225

>  <SCORE.RESTR>
0

>  <SCORE.RESTR.CAVITY>
0

>  <SCORE.RESTR.norm>
0

>  <SCORE.SYSTEM>
0

>  <SCORE.SYSTEM.CONST>
0

>  <SCORE.SYSTEM.DIHEDRAL>
0

>  <SCORE.SYSTEM.SOLV>
0

>  <SCORE.SYSTEM.norm>
0

>  <SCORE.heavy>
22

>  <SCORE.norm>
-0.668454

>  <RMSD>
15.726

$$$$
ligand
 OpenBabel11021811503D
libRbt.so/2013.1/901 2013/11/27
 22 24  0  0  0  0  0  0  0  0999 V2000
   -7.2665   -4.4380   25.9763 C   0  0  0  0  0  0  0  0  0  0  0  0
   -6.5583   -3.3640   26.5555 C   0  0  0  0  0  0  0  0  0  0  0  0
   -7.2225   -2.4893   27.4111 C   0  0  0  0  0  0  0  0  0  0  0  0
   -8.5871   -2.6898   27.6831 C   0  0  0  0  0  0  0  0  0  0  0  0
   -9.3017   -3.7622   27.0948 C   0  0  0  0  0  0  0  0  0  0  0  0
   -8.6378   -4.6329   26.2414 C   0  0  0  0  0  0  0  0  0  0  0  0
   -6.5506   -5.4045   25.0133 C   0  0  0  0  0  0  0  0  0  0  0  0
   -6.3878   -4.8826   23.5638 C   0  0  0  0  0  0  0  0  0  0  0  0
   -7.2959   -5.5759   22.5548 C   0  0  0  0  0  0  0  0  0  0  0  0
   -8.6687   -5.7646   22.7415 C   0  0  0  0  0  0  0  0  0  0  0  0
   -9.1316   -6.4072   21.6374 N   0  0  0  0  0  0  0  0  0  0  0  0
   -8.1321   -6.6579   20.7186 C   0  0  0  0  0  0  0  0  0  0  0  0
   -6.9545   -6.1485   21.2547 C   0  0  0  0  0  0  0  0  0  0  0  0
   -5.7523   -6.2899   20.4629 C   0  0  0  0  0  0  0  0  0  0  0  0
   -4.5389   -5.7958   20.9337 O   0  0  0  0  0  0  0  0  0  0  0  0
   -5.8255   -6.9269   19.2313 N   0  0  0  0  0  0  0  0  0  0  0  0
   -7.0065   -7.4030   18.7402 C   0  0  0  0  0  0  0  0  0  0  0  0
   -8.1413   -7.2894   19.4479 N   0  0  0  0  0  0  0  0  0  0  0  0
   -7.0363   -8.0539   17.4265 N   0  0  0  0  0  0  0  0  0  0  0  0
   -9.2818   -1.7256   28.6077 C   0  0  0  0  0  0  0  0  0  0  0  0
   -8.9361   -1.6400   29.7846 O   0  0  0  0  0  0  0  0  0  0  0  0
  -10.3546   -0.9180   28.0909 N   0  0  0  0  0  0  0  0  0  0  0  0
  1  2  2  0  0  0  0
  1  6  1  0  0  0  0
  1  7  1  0  0  0  0
  2  3  1  0  0  0  0
  3  4  2  0  0  0  0
  4  5  1  0  0  0  0
  4 20  1  0  0  0  0
  5  6  2  0  0  0  0
  7  8  1  0  0  0  0
  8  9  1  0  0  0  0
  9 10  2  0  0  0  0
  9 13  1  0  0  0  0
 10 11  1  0  0  0  0
 11 12  1  0  0  0  0
 12 13  2  0  0  0  0
 12 18  1  0  0  0  0
 13 14  1  0  0  0  0
 14 15  1  0  0  0  0
 14 16  2  0  0  0  0
 16 17  1  0  0  0  0
 17 18  2  0  0  0  0
 17 19  1  0  0  0  0
 20 21  2  0  0  0  0
 20 22  1  0  0  0  0
M  END
>  <CHROM.1>
-79.97197940,-63.73368752,-107.67032336,48.93950575,-7.59284243,-4.92532057
23.65664125,-1.76690734,-0.01457912,-2.07188389

>  <Name>
ligand

>  <RI>
0

>  <Rbt.Current_Directory>
/home/itssahil/PROJECTS/Mol_Feturizer/New_Systems/rnas/4LVY

>  <Rbt.Executable>
rbdock ($Id: //depot/dev/client3/rdock/2013.1/src/exe/rbdock.cxx#4 $)

>  <Rbt.Library>
libRbt.so (2013.1, Build901 2013/11/27)

>  <Rbt.Parameter_File>
/export/apps/rDock/src/rDock_2013.1_src/data/scripts/dock_solv.prm

>  <Rbt.Receptor>
prm/blind_docking_40.prm

>  <SCORE>
-10.79

>  <SCORE.INTER>
-12.928

>  <SCORE.INTER.CONST>
1

>  <SCORE.INTER.POLAR>
0

>  <SCORE.INTER.ROT>
4

>  <SCORE.INTER.SOLV>
8.85445

>  <SCORE.INTER.VDW>
-17.8368

>  <SCORE.INTER.norm>
-0.587635

>  <SCORE.INTRA>
2.13796

>  <SCORE.INTRA.DIHEDRAL>
5.44155

>  <SCORE.INTRA.DIHEDRAL.0>
6.18831

>  <SCORE.INTRA.POLAR>
0

>  <SCORE.INTRA.POLAR.0>
0

>  <SCORE.INTRA.REPUL>
0

>  <SCORE.INTRA.REPUL.0>
0

>  <SCORE.INTRA.SOLV>
0.00675619

>  <SCORE.INTRA.SOLV.lig_0>
-44.3465

>  <SCORE.INTRA.VDW>
-0.58619

>  <SCORE.INTRA.VDW.0>
-0.778272

>  <SCORE.INTRA.norm>
0.0971802

>  <SCORE.RESTR>
0

>  <SCORE.RESTR.CAVITY>
0

>  <SCORE.RESTR.norm>
0

>  <SCORE.SYSTEM>
0

>  <SCORE.SYSTEM.CONST>
0

>  <SCORE.SYSTEM.DIHEDRAL>
0

>  <SCORE.SYSTEM.SOLV>
0

>  <SCORE.SYSTEM.norm>
0

>  <SCORE.heavy>
22

>  <SCORE.norm>
-0.490455

>  <RMSD>
15.790

$$$$
ligand
 OpenBabel11021811503D
libRbt.so/2013.1/901 2013/11/27
 22 24  0  0  0  0  0  0  0  0999 V2000
   -6.2354   -6.5216   24.3451 C   0  0  0  0  0  0  0  0  0  0  0  0
   -5.0428   -6.4453   25.0952 C   0  0  0  0  0  0  0  0  0  0  0  0
   -4.9374   -5.5068   26.1182 C   0  0  0  0  0  0  0  0  0  0  0  0
   -6.0197   -4.6508   26.3864 C   0  0  0  0  0  0  0  0  0  0  0  0
   -7.2142   -4.7199   25.6279 C   0  0  0  0  0  0  0  0  0  0  0  0
   -7.3171   -5.6558   24.6078 C   0  0  0  0  0  0  0  0  0  0  0  0
   -6.3615   -7.5424   23.1979 C   0  0  0  0  0  0  0  0  0  0  0  0
   -6.8743   -6.9599   21.8572 C   0  0  0  0  0  0  0  0  0  0  0  0
   -8.3096   -6.4500   21.9171 C   0  0  0  0  0  0  0  0  0  0  0  0
   -8.6921   -5.1528   21.5624 C   0  0  0  0  0  0  0  0  0  0  0  0
  -10.0369   -5.0762   21.7402 N   0  0  0  0  0  0  0  0  0  0  0  0
  -10.5741   -6.2630   22.1977 C   0  0  0  0  0  0  0  0  0  0  0  0
   -9.5199   -7.1611   22.3226 C   0  0  0  0  0  0  0  0  0  0  0  0
   -9.8377   -8.4929   22.7889 C   0  0  0  0  0  0  0  0  0  0  0  0
   -8.8331   -9.4464   22.9297 O   0  0  0  0  0  0  0  0  0  0  0  0
  -11.1555   -8.8046   23.0961 N   0  0  0  0  0  0  0  0  0  0  0  0
  -12.1602   -7.8928   22.9486 C   0  0  0  0  0  0  0  0  0  0  0  0
  -11.9016   -6.6478   22.5188 N   0  0  0  0  0  0  0  0  0  0  0  0
  -13.5392   -8.2742   23.2706 N   0  0  0  0  0  0  0  0  0  0  0  0
   -5.8767   -3.6418   27.4949 C   0  0  0  0  0  0  0  0  0  0  0  0
   -5.4950   -2.4997   27.2455 O   0  0  0  0  0  0  0  0  0  0  0  0
   -6.1870   -4.0408   28.8419 N   0  0  0  0  0  0  0  0  0  0  0  0
  1  2  2  0  0  0  0
  1  6  1  0  0  0  0
  1  7  1  0  0  0  0
  2  3  1  0  0  0  0
  3  4  2  0  0  0  0
  4  5  1  0  0  0  0
  4 20  1  0  0  0  0
  5  6  2  0  0  0  0
  7  8  1  0  0  0  0
  8  9  1  0  0  0  0
  9 10  2  0  0  0  0
  9 13  1  0  0  0  0
 10 11  1  0  0  0  0
 11 12  1  0  0  0  0
 12 13  2  0  0  0  0
 12 18  1  0  0  0  0
 13 14  1  0  0  0  0
 14 15  1  0  0  0  0
 14 16  2  0  0  0  0
 16 17  1  0  0  0  0
 17 18  2  0  0  0  0
 17 19  1  0  0  0  0
 20 21  2  0  0  0  0
 20 22  1  0  0  0  0
M  END
>  <CHROM.1>
-130.35727162,93.69344301,-65.48025930,124.84417310,-8.30347857,-6.28203717
24.01050693,-0.79822405,0.01059806,-2.25054949

>  <Name>
ligand

>  <RI>
0

>  <Rbt.Current_Directory>
/home/itssahil/PROJECTS/Mol_Feturizer/New_Systems/rnas/4LVY

>  <Rbt.Executable>
rbdock ($Id: //depot/dev/client3/rdock/2013.1/src/exe/rbdock.cxx#4 $)

>  <Rbt.Library>
libRbt.so (2013.1, Build901 2013/11/27)

>  <Rbt.Parameter_File>
/export/apps/rDock/src/rDock_2013.1_src/data/scripts/dock_solv.prm

>  <Rbt.Receptor>
prm/blind_docking_60.prm

>  <SCORE>
-14.3876

>  <SCORE.INTER>
-13.5419

>  <SCORE.INTER.CONST>
1

>  <SCORE.INTER.POLAR>
0

>  <SCORE.INTER.ROT>
4

>  <SCORE.INTER.SOLV>
3.55885

>  <SCORE.INTER.VDW>
-16.4809

>  <SCORE.INTER.norm>
-0.615542

>  <SCORE.INTRA>
-0.845708

>  <SCORE.INTRA.DIHEDRAL>
0.211172

>  <SCORE.INTRA.DIHEDRAL.0>
6.18831

>  <SCORE.INTRA.POLAR>
0

>  <SCORE.INTRA.POLAR.0>
0

>  <SCORE.INTRA.REPUL>
0

>  <SCORE.INTRA.REPUL.0>
0

>  <SCORE.INTRA.SOLV>
0.308121

>  <SCORE.INTRA.SOLV.lig_0>
-44.3465

>  <SCORE.INTRA.VDW>
-1.10535

>  <SCORE.INTRA.VDW.0>
-0.778272

>  <SCORE.INTRA.norm>
-0.0384413

>  <SCORE.RESTR>
0

>  <SCORE.RESTR.CAVITY>
0

>  <SCORE.RESTR.norm>
0

>  <SCORE.SYSTEM>
0

>  <SCORE.SYSTEM.CONST>
0

>  <SCORE.SYSTEM.DIHEDRAL>
0

>  <SCORE.SYSTEM.SOLV>
0

>  <SCORE.SYSTEM.norm>
0

>  <SCORE.heavy>
22

>  <SCORE.norm>
-0.653983

>  <RMSD>
15.956

$$$$
ligand
 OpenBabel11021811503D
libRbt.so/2013.1/901 2013/11/27
 22 24  0  0  0  0  0  0  0  0999 V2000
   -7.0780   -4.4201   25.8958 C   0  0  0  0  0  0  0  0  0  0  0  0
   -6.1831   -3.7299   26.7405 C   0  0  0  0  0  0  0  0  0  0  0  0
   -6.6472   -3.2011   27.9419 C   0  0  0  0  0  0  0  0  0  0  0  0
   -7.9988   -3.3626   28.2931 C   0  0  0  0  0  0  0  0  0  0  0  0
   -8.9004   -4.0472   27.4415 C   0  0  0  0  0  0  0  0  0  0  0  0
   -8.4360   -4.5731   26.2436 C   0  0  0  0  0  0  0  0  0  0  0  0
   -6.5845   -4.9957   24.5545 C   0  0  0  0  0  0  0  0  0  0  0  0
   -7.2440   -6.3330   24.1342 C   0  0  0  0  0  0  0  0  0  0  0  0
   -7.8655   -6.3017   22.7427 C   0  0  0  0  0  0  0  0  0  0  0  0
   -9.1114   -5.7350   22.4573 C   0  0  0  0  0  0  0  0  0  0  0  0
   -9.3195   -5.8923   21.1239 N   0  0  0  0  0  0  0  0  0  0  0  0
   -8.2700   -6.5386   20.5017 C   0  0  0  0  0  0  0  0  0  0  0  0
   -7.3267   -6.8150   21.4853 C   0  0  0  0  0  0  0  0  0  0  0  0
   -6.1192   -7.4949   21.0707 C   0  0  0  0  0  0  0  0  0  0  0  0
   -5.1280   -7.7961   22.0007 O   0  0  0  0  0  0  0  0  0  0  0  0
   -5.9651   -7.8445   19.7358 N   0  0  0  0  0  0  0  0  0  0  0  0
   -6.9142   -7.5436   18.8024 C   0  0  0  0  0  0  0  0  0  0  0  0
   -8.0470   -6.9139   19.1516 N   0  0  0  0  0  0  0  0  0  0  0  0
   -6.6986   -7.9191   17.4013 N   0  0  0  0  0  0  0  0  0  0  0  0
   -8.4749   -2.7761   29.5956 C   0  0  0  0  0  0  0  0  0  0  0  0
   -8.1436   -3.2898   30.6625 O   0  0  0  0  0  0  0  0  0  0  0  0
   -9.3244   -1.6152   29.5655 N   0  0  0  0  0  0  0  0  0  0  0  0
  1  2  2  0  0  0  0
  1  6  1  0  0  0  0
  1  7  1  0  0  0  0
  2  3  1  0  0  0  0
  3  4  2  0  0  0  0
  4  5  1  0  0  0  0
  4 20  1  0  0  0  0
  5  6  2  0  0  0  0
  7  8  1  0  0  0  0
  8  9  1  0  0  0  0
  9 10  2  0  0  0  0
  9 13  1  0  0  0  0
 10 11  1  0  0  0  0
 11 12  1  0  0  0  0
 12 13  2  0  0  0  0
 12 18  1  0  0  0  0
 13 14  1  0  0  0  0
 14 15  1  0  0  0  0
 14 16  2  0  0  0  0
 16 17  1  0  0  0  0
 17 18  2  0  0  0  0
 17 19  1  0  0  0  0
 20 21  2  0  0  0  0
 20 22  1  0  0  0  0
M  END
>  <CHROM.1>
145.06729323,-72.14061964,125.87336044,-79.35132034,-7.51331803,-5.44411940
23.95982013,-1.68606966,0.36069296,-1.96517519

>  <Name>
ligand

>  <RI>
0

>  <Rbt.Current_Directory>
/home/itssahil/PROJECTS/Mol_Feturizer/New_Systems/rnas/4LVY

>  <Rbt.Executable>
rbdock ($Id: //depot/dev/client3/rdock/2013.1/src/exe/rbdock.cxx#4 $)

>  <Rbt.Library>
libRbt.so (2013.1, Build901 2013/11/27)

>  <Rbt.Parameter_File>
/export/apps/rDock/src/rDock_2013.1_src/data/scripts/dock_solv.prm

>  <Rbt.Receptor>
prm/blind_docking_40.prm

>  <SCORE>
-9.24266

>  <SCORE.INTER>
-11.9456

>  <SCORE.INTER.CONST>
1

>  <SCORE.INTER.POLAR>
0

>  <SCORE.INTER.ROT>
4

>  <SCORE.INTER.SOLV>
7.24845

>  <SCORE.INTER.VDW>
-16.6465

>  <SCORE.INTER.norm>
-0.54298

>  <SCORE.INTRA>
2.70291

>  <SCORE.INTRA.DIHEDRAL>
5.88928

>  <SCORE.INTRA.DIHEDRAL.0>
6.18831

>  <SCORE.INTRA.POLAR>
0

>  <SCORE.INTRA.POLAR.0>
0

>  <SCORE.INTRA.REPUL>
0

>  <SCORE.INTRA.REPUL.0>
0

>  <SCORE.INTRA.SOLV>
0.111032

>  <SCORE.INTRA.SOLV.lig_0>
-44.3465

>  <SCORE.INTRA.VDW>
-0.29725

>  <SCORE.INTRA.VDW.0>
-0.778272

>  <SCORE.INTRA.norm>
0.122859

>  <SCORE.RESTR>
0

>  <SCORE.RESTR.CAVITY>
0

>  <SCORE.RESTR.norm>
0

>  <SCORE.SYSTEM>
0

>  <SCORE.SYSTEM.CONST>
0

>  <SCORE.SYSTEM.DIHEDRAL>
0

>  <SCORE.SYSTEM.SOLV>
0

>  <SCORE.SYSTEM.norm>
0

>  <SCORE.heavy>
22

>  <SCORE.norm>
-0.420121

>  <RMSD>
15.995

$$$$
ligand
 OpenBabel11021811503D
libRbt.so/2013.1/901 2013/11/27
 22 24  0  0  0  0  0  0  0  0999 V2000
   -5.2826   -8.6994   20.8257 C   0  0  0  0  0  0  0  0  0  0  0  0
   -5.9903   -8.9187   19.6250 C   0  0  0  0  0  0  0  0  0  0  0  0
   -6.7055  -10.1016   19.4593 C   0  0  0  0  0  0  0  0  0  0  0  0
   -6.7102  -11.0578   20.4898 C   0  0  0  0  0  0  0  0  0  0  0  0
   -5.9923  -10.8430   21.6920 C   0  0  0  0  0  0  0  0  0  0  0  0
   -5.2791   -9.6632   21.8551 C   0  0  0  0  0  0  0  0  0  0  0  0
   -4.4715   -7.4034   21.0176 C   0  0  0  0  0  0  0  0  0  0  0  0
   -5.2905   -6.0944   20.8924 C   0  0  0  0  0  0  0  0  0  0  0  0
   -6.3684   -5.9389   21.9588 C   0  0  0  0  0  0  0  0  0  0  0  0
   -6.1071   -5.5894   23.2872 C   0  0  0  0  0  0  0  0  0  0  0  0
   -7.3056   -5.5439   23.9255 N   0  0  0  0  0  0  0  0  0  0  0  0
   -8.3590   -5.8467   23.0860 C   0  0  0  0  0  0  0  0  0  0  0  0
   -7.8149   -6.1015   21.8320 C   0  0  0  0  0  0  0  0  0  0  0  0
   -8.7349   -6.4424   20.7691 C   0  0  0  0  0  0  0  0  0  0  0  0
   -8.2608   -6.7019   19.4861 O   0  0  0  0  0  0  0  0  0  0  0  0
  -10.0935   -6.5098   21.0473 N   0  0  0  0  0  0  0  0  0  0  0  0
  -10.5840   -6.2415   22.2923 C   0  0  0  0  0  0  0  0  0  0  0  0
   -9.7594   -5.9225   23.3023 N   0  0  0  0  0  0  0  0  0  0  0  0
  -12.0289   -6.3099   22.5332 N   0  0  0  0  0  0  0  0  0  0  0  0
   -7.4876  -12.3305   20.2819 C   0  0  0  0  0  0  0  0  0  0  0  0
   -8.3395  -12.6747   21.0991 O   0  0  0  0  0  0  0  0  0  0  0  0
   -7.2102  -13.1321   19.1198 N   0  0  0  0  0  0  0  0  0  0  0  0
  1  2  2  0  0  0  0
  1  6  1  0  0  0  0
  1  7  1  0  0  0  0
  2  3  1  0  0  0  0
  3  4  2  0  0  0  0
  4  5  1  0  0  0  0
  4 20  1  0  0  0  0
  5  6  2  0  0  0  0
  7  8  1  0  0  0  0
  8  9  1  0  0  0  0
  9 10  2  0  0  0  0
  9 13  1  0  0  0  0
 10 11  1  0  0  0  0
 11 12  1  0  0  0  0
 12 13  2  0  0  0  0
 12 18  1  0  0  0  0
 13 14  1  0  0  0  0
 14 15  1  0  0  0  0
 14 16  2  0  0  0  0
 16 17  1  0  0  0  0
 17 18  2  0  0  0  0
 17 19  1  0  0  0  0
 20 21  2  0  0  0  0
 20 22  1  0  0  0  0
M  END
>  <CHROM.1>
58.13957386,-125.43282167,63.52868726,75.54024486,-7.51287356,-8.09817421
21.34456927,-1.24245950,0.08817948,0.33314317

>  <Name>
ligand

>  <RI>
0

>  <Rbt.Current_Directory>
/home/itssahil/PROJECTS/Mol_Feturizer/New_Systems/rnas/4LVY

>  <Rbt.Executable>
rbdock ($Id: //depot/dev/client3/rdock/2013.1/src/exe/rbdock.cxx#4 $)

>  <Rbt.Library>
libRbt.so (2013.1, Build901 2013/11/27)

>  <Rbt.Parameter_File>
/export/apps/rDock/src/rDock_2013.1_src/data/scripts/dock_solv.prm

>  <Rbt.Receptor>
prm/blind_docking_100.prm

>  <SCORE>
-14.7616

>  <SCORE.INTER>
-13.5099

>  <SCORE.INTER.CONST>
1

>  <SCORE.INTER.POLAR>
0

>  <SCORE.INTER.ROT>
4

>  <SCORE.INTER.SOLV>
10.057

>  <SCORE.INTER.VDW>
-18.6256

>  <SCORE.INTER.norm>
-0.614086

>  <SCORE.INTRA>
-1.25173

>  <SCORE.INTRA.DIHEDRAL>
0.0914327

>  <SCORE.INTRA.DIHEDRAL.0>
6.18831

>  <SCORE.INTRA.POLAR>
0

>  <SCORE.INTRA.POLAR.0>
0

>  <SCORE.INTRA.REPUL>
0

>  <SCORE.INTRA.REPUL.0>
0

>  <SCORE.INTRA.SOLV>
0.272779

>  <SCORE.INTRA.SOLV.lig_0>
-44.3465

>  <SCORE.INTRA.VDW>
-1.43383

>  <SCORE.INTRA.VDW.0>
-0.778272

>  <SCORE.INTRA.norm>
-0.0568966

>  <SCORE.RESTR>
0

>  <SCORE.RESTR.CAVITY>
0

>  <SCORE.RESTR.norm>
0

>  <SCORE.SYSTEM>
0

>  <SCORE.SYSTEM.CONST>
0

>  <SCORE.SYSTEM.DIHEDRAL>
0

>  <SCORE.SYSTEM.SOLV>
0

>  <SCORE.SYSTEM.norm>
0

>  <SCORE.heavy>
22

>  <SCORE.norm>
-0.670982

>  <RMSD>
16.018

$$$$
ligand
 OpenBabel11021811503D
libRbt.so/2013.1/901 2013/11/27
 22 24  0  0  0  0  0  0  0  0999 V2000
   -6.9900   -3.0832   28.6458 C   0  0  0  0  0  0  0  0  0  0  0  0
   -8.2842   -2.6821   28.2523 C   0  0  0  0  0  0  0  0  0  0  0  0
   -9.2373   -2.3971   29.2263 C   0  0  0  0  0  0  0  0  0  0  0  0
   -8.8953   -2.5144   30.5848 C   0  0  0  0  0  0  0  0  0  0  0  0
   -7.5991   -2.9262   30.9812 C   0  0  0  0  0  0  0  0  0  0  0  0
   -6.6503   -3.2106   30.0086 C   0  0  0  0  0  0  0  0  0  0  0  0
   -5.9290   -3.4196   27.5804 C   0  0  0  0  0  0  0  0  0  0  0  0
   -5.2804   -4.8192   27.7220 C   0  0  0  0  0  0  0  0  0  0  0  0
   -4.9014   -5.4591   26.3914 C   0  0  0  0  0  0  0  0  0  0  0  0
   -3.6242   -5.9447   26.0949 C   0  0  0  0  0  0  0  0  0  0  0  0
   -3.6752   -6.4409   24.8311 N   0  0  0  0  0  0  0  0  0  0  0  0
   -4.9283   -6.3105   24.2663 C   0  0  0  0  0  0  0  0  0  0  0  0
   -5.7370   -5.6970   25.2166 C   0  0  0  0  0  0  0  0  0  0  0  0
   -7.1159   -5.4537   24.8535 C   0  0  0  0  0  0  0  0  0  0  0  0
   -7.9848   -4.8508   25.7587 O   0  0  0  0  0  0  0  0  0  0  0  0
   -7.5579   -5.8266   23.5912 N   0  0  0  0  0  0  0  0  0  0  0  0
   -6.7300   -6.4359   22.6934 C   0  0  0  0  0  0  0  0  0  0  0  0
   -5.4448   -6.6766   22.9964 N   0  0  0  0  0  0  0  0  0  0  0  0
   -7.2476   -6.8261   21.3779 N   0  0  0  0  0  0  0  0  0  0  0  0
   -9.9471   -2.2052   31.6170 C   0  0  0  0  0  0  0  0  0  0  0  0
  -11.1179   -2.0444   31.2773 O   0  0  0  0  0  0  0  0  0  0  0  0
   -9.5552   -2.0961   32.9970 N   0  0  0  0  0  0  0  0  0  0  0  0
  1  2  2  0  0  0  0
  1  6  1  0  0  0  0
  1  7  1  0  0  0  0
  2  3  1  0  0  0  0
  3  4  2  0  0  0  0
  4  5  1  0  0  0  0
  4 20  1  0  0  0  0
  5  6  2  0  0  0  0
  7  8  1  0  0  0  0
  8  9  1  0  0  0  0
  9 10  2  0  0  0  0
  9 13  1  0  0  0  0
 10 11  1  0  0  0  0
 11 12  1  0  0  0  0
 12 13  2  0  0  0  0
 12 18  1  0  0  0  0
 13 14  1  0  0  0  0
 14 15  1  0  0  0  0
 14 16  2  0  0  0  0
 16 17  1  0  0  0  0
 17 18  2  0  0  0  0
 17 19  1  0  0  0  0
 20 21  2  0  0  0  0
 20 22  1  0  0  0  0
M  END
>  <CHROM.1>
-125.44095394,10.27440585,147.05744487,126.50457438,-7.05903045,-4.43222372
27.11166425,-1.97327095,0.22314876,-1.96598137

>  <Name>
ligand

>  <RI>
0

>  <Rbt.Current_Directory>
/home/itssahil/PROJECTS/Mol_Feturizer/New_Systems/rnas/4LVY

>  <Rbt.Executable>
rbdock ($Id: //depot/dev/client3/rdock/2013.1/src/exe/rbdock.cxx#4 $)

>  <Rbt.Library>
libRbt.so (2013.1, Build901 2013/11/27)

>  <Rbt.Parameter_File>
/export/apps/rDock/src/rDock_2013.1_src/data/scripts/dock_solv.prm

>  <Rbt.Receptor>
prm/blind_docking_40.prm

>  <SCORE>
-9.48902

>  <SCORE.INTER>
-11.0762

>  <SCORE.INTER.CONST>
1

>  <SCORE.INTER.POLAR>
0

>  <SCORE.INTER.ROT>
4

>  <SCORE.INTER.SOLV>
10.1992

>  <SCORE.INTER.VDW>
-17.0505

>  <SCORE.INTER.norm>
-0.503465

>  <SCORE.INTRA>
1.58721

>  <SCORE.INTRA.DIHEDRAL>
3.55431

>  <SCORE.INTRA.DIHEDRAL.0>
6.18831

>  <SCORE.INTRA.POLAR>
0

>  <SCORE.INTRA.POLAR.0>
0

>  <SCORE.INTRA.REPUL>
0

>  <SCORE.INTRA.REPUL.0>
0

>  <SCORE.INTRA.SOLV>
0.493962

>  <SCORE.INTRA.SOLV.lig_0>
-44.3465

>  <SCORE.INTRA.VDW>
-0.436931

>  <SCORE.INTRA.VDW.0>
-0.778272

>  <SCORE.INTRA.norm>
0.0721457

>  <SCORE.RESTR>
0

>  <SCORE.RESTR.CAVITY>
0

>  <SCORE.RESTR.norm>
0

>  <SCORE.SYSTEM>
0

>  <SCORE.SYSTEM.CONST>
0

>  <SCORE.SYSTEM.DIHEDRAL>
0

>  <SCORE.SYSTEM.SOLV>
0

>  <SCORE.SYSTEM.norm>
0

>  <SCORE.heavy>
22

>  <SCORE.norm>
-0.431319

>  <RMSD>
16.054

$$$$
ligand
 OpenBabel11021811503D
libRbt.so/2013.1/901 2013/11/27
 22 24  0  0  0  0  0  0  0  0999 V2000
   -6.2914   -5.5340   25.0967 C   0  0  0  0  0  0  0  0  0  0  0  0
   -5.0827   -6.0470   25.6131 C   0  0  0  0  0  0  0  0  0  0  0  0
   -4.4033   -5.3351   26.5980 C   0  0  0  0  0  0  0  0  0  0  0  0
   -4.9318   -4.1174   27.0609 C   0  0  0  0  0  0  0  0  0  0  0  0
   -6.1403   -3.5966   26.5365 C   0  0  0  0  0  0  0  0  0  0  0  0
   -6.8159   -4.3075   25.5540 C   0  0  0  0  0  0  0  0  0  0  0  0
   -7.0463   -6.3006   23.9937 C   0  0  0  0  0  0  0  0  0  0  0  0
   -6.8839   -7.8406   24.0389 C   0  0  0  0  0  0  0  0  0  0  0  0
   -7.8538   -8.5883   23.1314 C   0  0  0  0  0  0  0  0  0  0  0  0
   -9.2308   -8.6696   23.3598 C   0  0  0  0  0  0  0  0  0  0  0  0
   -9.7555   -9.4054   22.3451 N   0  0  0  0  0  0  0  0  0  0  0  0
   -8.7934   -9.8212   21.4465 C   0  0  0  0  0  0  0  0  0  0  0  0
   -7.5760   -9.3267   21.9016 C   0  0  0  0  0  0  0  0  0  0  0  0
   -6.4022   -9.6320   21.1134 C   0  0  0  0  0  0  0  0  0  0  0  0
   -5.1515   -9.1624   21.5049 O   0  0  0  0  0  0  0  0  0  0  0  0
   -6.5405  -10.4008   19.9654 N   0  0  0  0  0  0  0  0  0  0  0  0
   -7.7583  -10.8568   19.5512 C   0  0  0  0  0  0  0  0  0  0  0  0
   -8.8684  -10.5930   20.2582 N   0  0  0  0  0  0  0  0  0  0  0  0
   -7.8559  -11.6517   18.3227 N   0  0  0  0  0  0  0  0  0  0  0  0
   -4.1737   -3.3656   28.1227 C   0  0  0  0  0  0  0  0  0  0  0  0
   -4.4727   -3.5003   29.3078 O   0  0  0  0  0  0  0  0  0  0  0  0
   -3.1052   -2.4885   27.7240 N   0  0  0  0  0  0  0  0  0  0  0  0
  1  2  2  0  0  0  0
  1  6  1  0  0  0  0
  1  7  1  0  0  0  0
  2  3  1  0  0  0  0
  3  4  2  0  0  0  0
  4  5  1  0  0  0  0
  4 20  1  0  0  0  0
  5  6  2  0  0  0  0
  7  8  1  0  0  0  0
  8  9  1  0  0  0  0
  9 10  2  0  0  0  0
  9 13  1  0  0  0  0
 10 11  1  0  0  0  0
 11 12  1  0  0  0  0
 12 13  2  0  0  0  0
 12 18  1  0  0  0  0
 13 14  1  0  0  0  0
 14 15  1  0  0  0  0
 14 16  2  0  0  0  0
 16 17  1  0  0  0  0
 17 18  2  0  0  0  0
 17 19  1  0  0  0  0
 20 21  2  0  0  0  0
 20 22  1  0  0  0  0
M  END
>  <CHROM.1>
30.87523192,-95.65910793,168.11241647,-69.50573301,-6.57431145,-7.32335059
23.73119247,1.24535616,0.13773415,0.86604669

>  <Name>
ligand

>  <RI>
0

>  <Rbt.Current_Directory>
/home/itssahil/PROJECTS/Mol_Feturizer/New_Systems/rnas/4LVY

>  <Rbt.Executable>
rbdock ($Id: //depot/dev/client3/rdock/2013.1/src/exe/rbdock.cxx#4 $)

>  <Rbt.Library>
libRbt.so (2013.1, Build901 2013/11/27)

>  <Rbt.Parameter_File>
/export/apps/rDock/src/rDock_2013.1_src/data/scripts/dock_solv.prm

>  <Rbt.Receptor>
prm/blind_docking_100.prm

>  <SCORE>
-11.1742

>  <SCORE.INTER>
-11.3617

>  <SCORE.INTER.CONST>
1

>  <SCORE.INTER.POLAR>
0

>  <SCORE.INTER.ROT>
4

>  <SCORE.INTER.SOLV>
6.11337

>  <SCORE.INTER.VDW>
-15.8789

>  <SCORE.INTER.norm>
-0.516441

>  <SCORE.INTRA>
0.187495

>  <SCORE.INTRA.DIHEDRAL>
0.48229

>  <SCORE.INTRA.DIHEDRAL.0>
6.18831

>  <SCORE.INTRA.POLAR>
0

>  <SCORE.INTRA.POLAR.0>
0

>  <SCORE.INTRA.REPUL>
0

>  <SCORE.INTRA.REPUL.0>
0

>  <SCORE.INTRA.SOLV>
0.0722955

>  <SCORE.INTRA.SOLV.lig_0>
-44.3465

>  <SCORE.INTRA.VDW>
-0.0897977

>  <SCORE.INTRA.VDW.0>
-0.778272

>  <SCORE.INTRA.norm>
0.0085225

>  <SCORE.RESTR>
0

>  <SCORE.RESTR.CAVITY>
0

>  <SCORE.RESTR.norm>
0

>  <SCORE.SYSTEM>
0

>  <SCORE.SYSTEM.CONST>
0

>  <SCORE.SYSTEM.DIHEDRAL>
0

>  <SCORE.SYSTEM.SOLV>
0

>  <SCORE.SYSTEM.norm>
0

>  <SCORE.heavy>
22

>  <SCORE.norm>
-0.507918

>  <RMSD>
16.121

$$$$
ligand
 OpenBabel11021811503D
libRbt.so/2013.1/901 2013/11/27
 22 24  0  0  0  0  0  0  0  0999 V2000
   -6.6679   -4.2396   29.8525 C   0  0  0  0  0  0  0  0  0  0  0  0
   -5.9918   -3.6779   30.9562 C   0  0  0  0  0  0  0  0  0  0  0  0
   -6.6967   -2.8870   31.8595 C   0  0  0  0  0  0  0  0  0  0  0  0
   -8.0692   -2.6603   31.6568 C   0  0  0  0  0  0  0  0  0  0  0  0
   -8.7472   -3.2159   30.5440 C   0  0  0  0  0  0  0  0  0  0  0  0
   -8.0425   -4.0037   29.6440 C   0  0  0  0  0  0  0  0  0  0  0  0
   -5.8986   -5.1025   28.8339 C   0  0  0  0  0  0  0  0  0  0  0  0
   -5.2087   -4.3110   27.6948 C   0  0  0  0  0  0  0  0  0  0  0  0
   -4.9486   -5.1381   26.4411 C   0  0  0  0  0  0  0  0  0  0  0  0
   -3.7010   -5.6715   26.1034 C   0  0  0  0  0  0  0  0  0  0  0  0
   -3.8637   -6.3434   24.9337 N   0  0  0  0  0  0  0  0  0  0  0  0
   -5.1633   -6.2852   24.4715 C   0  0  0  0  0  0  0  0  0  0  0  0
   -5.8858   -5.5352   25.3929 C   0  0  0  0  0  0  0  0  0  0  0  0
   -7.2930   -5.3354   25.1246 C   0  0  0  0  0  0  0  0  0  0  0  0
   -8.0795   -4.6018   26.0085 O   0  0  0  0  0  0  0  0  0  0  0  0
   -7.8456   -5.8818   23.9739 N   0  0  0  0  0  0  0  0  0  0  0  0
   -7.0994   -6.6203   23.1019 C   0  0  0  0  0  0  0  0  0  0  0  0
   -5.7908   -6.8255   23.3191 N   0  0  0  0  0  0  0  0  0  0  0  0
   -7.7319   -7.1909   21.9082 N   0  0  0  0  0  0  0  0  0  0  0  0
   -8.8059   -1.7968   32.6462 C   0  0  0  0  0  0  0  0  0  0  0  0
   -9.7275   -2.2667   33.3108 O   0  0  0  0  0  0  0  0  0  0  0  0
   -8.4160   -0.4194   32.7915 N   0  0  0  0  0  0  0  0  0  0  0  0
  1  2  2  0  0  0  0
  1  6  1  0  0  0  0
  1  7  1  0  0  0  0
  2  3  1  0  0  0  0
  3  4  2  0  0  0  0
  4  5  1  0  0  0  0
  4 20  1  0  0  0  0
  5  6  2  0  0  0  0
  7  8  1  0  0  0  0
  8  9  1  0  0  0  0
  9 10  2  0  0  0  0
  9 13  1  0  0  0  0
 10 11  1  0  0  0  0
 11 12  1  0  0  0  0
 12 13  2  0  0  0  0
 12 18  1  0  0  0  0
 13 14  1  0  0  0  0
 14 15  1  0  0  0  0
 14 16  2  0  0  0  0
 16 17  1  0  0  0  0
 17 18  2  0  0  0  0
 17 19  1  0  0  0  0
 20 21  2  0  0  0  0
 20 22  1  0  0  0  0
M  END
>  <CHROM.1>
-86.11900515,-117.68556716,-156.81818130,-101.76885520,-6.84175198,-4.54461436
27.73091544,-1.80060814,0.17341974,-1.98617105

>  <Name>
ligand

>  <RI>
0

>  <Rbt.Current_Directory>
/home/itssahil/PROJECTS/Mol_Feturizer/New_Systems/rnas/4LVY

>  <Rbt.Executable>
rbdock ($Id: //depot/dev/client3/rdock/2013.1/src/exe/rbdock.cxx#4 $)

>  <Rbt.Library>
libRbt.so (2013.1, Build901 2013/11/27)

>  <Rbt.Parameter_File>
/export/apps/rDock/src/rDock_2013.1_src/data/scripts/dock_solv.prm

>  <Rbt.Receptor>
prm/blind_docking_40.prm

>  <SCORE>
-13.3171

>  <SCORE.INTER>
-13.5441

>  <SCORE.INTER.CONST>
1

>  <SCORE.INTER.POLAR>
0

>  <SCORE.INTER.ROT>
4

>  <SCORE.INTER.SOLV>
8.9475

>  <SCORE.INTER.VDW>
-18.2786

>  <SCORE.INTER.norm>
-0.615642

>  <SCORE.INTRA>
0.223646

>  <SCORE.INTRA.DIHEDRAL>
1.9146

>  <SCORE.INTRA.DIHEDRAL.0>
6.18831

>  <SCORE.INTRA.POLAR>
0

>  <SCORE.INTRA.POLAR.0>
0

>  <SCORE.INTRA.REPUL>
0

>  <SCORE.INTRA.REPUL.0>
0

>  <SCORE.INTRA.SOLV>
0.250548

>  <SCORE.INTRA.SOLV.lig_0>
-44.3465

>  <SCORE.INTRA.VDW>
-0.858925

>  <SCORE.INTRA.VDW.0>
-0.778272

>  <SCORE.INTRA.norm>
0.0101657

>  <SCORE.RESTR>
0.00335127

>  <SCORE.RESTR.CAVITY>
0.00335127

>  <SCORE.RESTR.norm>
0.00015233

>  <SCORE.SYSTEM>
0

>  <SCORE.SYSTEM.CONST>
0

>  <SCORE.SYSTEM.DIHEDRAL>
0

>  <SCORE.SYSTEM.SOLV>
0

>  <SCORE.SYSTEM.norm>
0

>  <SCORE.heavy>
22

>  <SCORE.norm>
-0.605323

>  <RMSD>
16.142

$$$$
ligand
 OpenBabel11021811503D
libRbt.so/2013.1/901 2013/11/27
 22 24  0  0  0  0  0  0  0  0999 V2000
   -5.8700   -5.4178   23.8259 C   0  0  0  0  0  0  0  0  0  0  0  0
   -4.8894   -6.2383   24.4224 C   0  0  0  0  0  0  0  0  0  0  0  0
   -4.6719   -6.1560   25.7950 C   0  0  0  0  0  0  0  0  0  0  0  0
   -5.4316   -5.2570   26.5636 C   0  0  0  0  0  0  0  0  0  0  0  0
   -6.4099   -4.4258   25.9646 C   0  0  0  0  0  0  0  0  0  0  0  0
   -6.6249   -4.5088   24.5956 C   0  0  0  0  0  0  0  0  0  0  0  0
   -6.1107   -5.4838   22.3054 C   0  0  0  0  0  0  0  0  0  0  0  0
   -7.5259   -5.9547   21.8868 C   0  0  0  0  0  0  0  0  0  0  0  0
   -7.8284   -7.4013   22.2602 C   0  0  0  0  0  0  0  0  0  0  0  0
   -8.0060   -7.8472   23.5734 C   0  0  0  0  0  0  0  0  0  0  0  0
   -8.2617   -9.1799   23.5056 N   0  0  0  0  0  0  0  0  0  0  0  0
   -8.2639   -9.6483   22.2068 C   0  0  0  0  0  0  0  0  0  0  0  0
   -7.9964   -8.5590   21.3849 C   0  0  0  0  0  0  0  0  0  0  0  0
   -7.9501   -8.8019   19.9597 C   0  0  0  0  0  0  0  0  0  0  0  0
   -7.6956   -7.7560   19.0768 O   0  0  0  0  0  0  0  0  0  0  0  0
   -8.1594  -10.0905   19.4868 N   0  0  0  0  0  0  0  0  0  0  0  0
   -8.4289  -11.1283   20.3311 C   0  0  0  0  0  0  0  0  0  0  0  0
   -8.4791  -10.9394   21.6591 N   0  0  0  0  0  0  0  0  0  0  0  0
   -8.6592  -12.4688   19.7827 N   0  0  0  0  0  0  0  0  0  0  0  0
   -5.1719   -5.1847   28.0450 C   0  0  0  0  0  0  0  0  0  0  0  0
   -5.5272   -6.1041   28.7803 O   0  0  0  0  0  0  0  0  0  0  0  0
   -4.5108   -4.0236   28.5787 N   0  0  0  0  0  0  0  0  0  0  0  0
  1  2  2  0  0  0  0
  1  6  1  0  0  0  0
  1  7  1  0  0  0  0
  2  3  1  0  0  0  0
  3  4  2  0  0  0  0
  4  5  1  0  0  0  0
  4 20  1  0  0  0  0
  5  6  2  0  0  0  0
  7  8  1  0  0  0  0
  8  9  1  0  0  0  0
  9 10  2  0  0  0  0
  9 13  1  0  0  0  0
 10 11  1  0  0  0  0
 11 12  1  0  0  0  0
 12 13  2  0  0  0  0
 12 18  1  0  0  0  0
 13 14  1  0  0  0  0
 14 15  1  0  0  0  0
 14 16  2  0  0  0  0
 16 17  1  0  0  0  0
 17 18  2  0  0  0  0
 17 19  1  0  0  0  0
 20 21  2  0  0  0  0
 20 22  1  0  0  0  0
M  END
>  <CHROM.1>
117.38912803,-72.07541014,-65.75652076,69.49751202,-6.94392724,-7.42144977
23.33459431,-0.31511062,-1.21150988,-0.97683276

>  <Name>
ligand

>  <RI>
0

>  <Rbt.Current_Directory>
/home/itssahil/PROJECTS/Mol_Feturizer/New_Systems/rnas/4LVY

>  <Rbt.Executable>
rbdock ($Id: //depot/dev/client3/rdock/2013.1/src/exe/rbdock.cxx#4 $)

>  <Rbt.Library>
libRbt.so (2013.1, Build901 2013/11/27)

>  <Rbt.Parameter_File>
/export/apps/rDock/src/rDock_2013.1_src/data/scripts/dock_solv.prm

>  <Rbt.Receptor>
prm/blind_docking_40.prm

>  <SCORE>
-12.279

>  <SCORE.INTER>
-11.3674

>  <SCORE.INTER.CONST>
1

>  <SCORE.INTER.POLAR>
0

>  <SCORE.INTER.ROT>
4

>  <SCORE.INTER.SOLV>
5.69534

>  <SCORE.INTER.VDW>
-15.7434

>  <SCORE.INTER.norm>
-0.5167

>  <SCORE.INTRA>
-0.915732

>  <SCORE.INTRA.DIHEDRAL>
0.170624

>  <SCORE.INTRA.DIHEDRAL.0>
6.18831

>  <SCORE.INTRA.POLAR>
0

>  <SCORE.INTRA.POLAR.0>
0

>  <SCORE.INTRA.REPUL>
0

>  <SCORE.INTRA.REPUL.0>
0

>  <SCORE.INTRA.SOLV>
0.070213

>  <SCORE.INTRA.SOLV.lig_0>
-44.3465

>  <SCORE.INTRA.VDW>
-1.03615

>  <SCORE.INTRA.VDW.0>
-0.778272

>  <SCORE.INTRA.norm>
-0.0416242

>  <SCORE.RESTR>
0.00412007

>  <SCORE.RESTR.CAVITY>
0.00412007

>  <SCORE.RESTR.norm>
0.000187276

>  <SCORE.SYSTEM>
0

>  <SCORE.SYSTEM.CONST>
0

>  <SCORE.SYSTEM.DIHEDRAL>
0

>  <SCORE.SYSTEM.SOLV>
0

>  <SCORE.SYSTEM.norm>
0

>  <SCORE.heavy>
22

>  <SCORE.norm>
-0.558136

>  <RMSD>
16.174

$$$$
ligand
 OpenBabel11021811503D
libRbt.so/2013.1/901 2013/11/27
 22 24  0  0  0  0  0  0  0  0999 V2000
   -7.3851   -3.3809   27.9300 C   0  0  0  0  0  0  0  0  0  0  0  0
   -7.7024   -4.4090   28.8426 C   0  0  0  0  0  0  0  0  0  0  0  0
   -8.2843   -4.0829   30.0647 C   0  0  0  0  0  0  0  0  0  0  0  0
   -8.5453   -2.7356   30.3695 C   0  0  0  0  0  0  0  0  0  0  0  0
   -8.2185   -1.7015   29.4580 C   0  0  0  0  0  0  0  0  0  0  0  0
   -7.6377   -2.0286   28.2403 C   0  0  0  0  0  0  0  0  0  0  0  0
   -6.7243   -3.7234   26.5809 C   0  0  0  0  0  0  0  0  0  0  0  0
   -7.4640   -4.7968   25.7439 C   0  0  0  0  0  0  0  0  0  0  0  0
   -6.5680   -5.5272   24.7503 C   0  0  0  0  0  0  0  0  0  0  0  0
   -5.2104   -5.7829   24.9657 C   0  0  0  0  0  0  0  0  0  0  0  0
   -4.7573   -6.4511   23.8729 N   0  0  0  0  0  0  0  0  0  0  0  0
   -5.7490   -6.6555   22.9344 C   0  0  0  0  0  0  0  0  0  0  0  0
   -6.9116   -6.0902   23.4465 C   0  0  0  0  0  0  0  0  0  0  0  0
   -8.1049   -6.1822   22.6343 C   0  0  0  0  0  0  0  0  0  0  0  0
   -9.3067   -5.6455   23.0880 O   0  0  0  0  0  0  0  0  0  0  0  0
   -8.0336   -6.8093   21.3975 N   0  0  0  0  0  0  0  0  0  0  0  0
   -6.8717   -7.3593   20.9392 C   0  0  0  0  0  0  0  0  0  0  0  0
   -5.7453   -7.2920   21.6661 N   0  0  0  0  0  0  0  0  0  0  0  0
   -6.8500   -8.0257   19.6331 N   0  0  0  0  0  0  0  0  0  0  0  0
   -9.1703   -2.4109   31.7003 C   0  0  0  0  0  0  0  0  0  0  0  0
   -8.4690   -2.0309   32.6362 O   0  0  0  0  0  0  0  0  0  0  0  0
  -10.5930   -2.5598   31.8544 N   0  0  0  0  0  0  0  0  0  0  0  0
  1  2  2  0  0  0  0
  1  6  1  0  0  0  0
  1  7  1  0  0  0  0
  2  3  1  0  0  0  0
  3  4  2  0  0  0  0
  4  5  1  0  0  0  0
  4 20  1  0  0  0  0
  5  6  2  0  0  0  0
  7  8  1  0  0  0  0
  8  9  1  0  0  0  0
  9 10  2  0  0  0  0
  9 13  1  0  0  0  0
 10 11  1  0  0  0  0
 11 12  1  0  0  0  0
 12 13  2  0  0  0  0
 12 18  1  0  0  0  0
 13 14  1  0  0  0  0
 14 15  1  0  0  0  0
 14 16  2  0  0  0  0
 16 17  1  0  0  0  0
 17 18  2  0  0  0  0
 17 19  1  0  0  0  0
 20 21  2  0  0  0  0
 20 22  1  0  0  0  0
M  END
>  <CHROM.1>
52.80240428,98.79953180,-156.21206719,31.79722411,-7.49307542,-4.81877044
26.00488381,-1.76475552,0.10388266,-2.00016464

>  <Name>
ligand

>  <RI>
0

>  <Rbt.Current_Directory>
/home/itssahil/PROJECTS/Mol_Feturizer/New_Systems/rnas/4LVY

>  <Rbt.Executable>
rbdock ($Id: //depot/dev/client3/rdock/2013.1/src/exe/rbdock.cxx#4 $)

>  <Rbt.Library>
libRbt.so (2013.1, Build901 2013/11/27)

>  <Rbt.Parameter_File>
/export/apps/rDock/src/rDock_2013.1_src/data/scripts/dock_solv.prm

>  <Rbt.Receptor>
prm/blind_docking_40.prm

>  <SCORE>
-9.28221

>  <SCORE.INTER>
-10.2791

>  <SCORE.INTER.CONST>
1

>  <SCORE.INTER.POLAR>
0

>  <SCORE.INTER.ROT>
4

>  <SCORE.INTER.SOLV>
9.86599

>  <SCORE.INTER.VDW>
-16.408

>  <SCORE.INTER.norm>
-0.467231

>  <SCORE.INTRA>
0.996869

>  <SCORE.INTRA.DIHEDRAL>
2.07441

>  <SCORE.INTRA.DIHEDRAL.0>
6.18831

>  <SCORE.INTRA.POLAR>
0

>  <SCORE.INTRA.POLAR.0>
0

>  <SCORE.INTRA.REPUL>
0

>  <SCORE.INTRA.REPUL.0>
0

>  <SCORE.INTRA.SOLV>
-0.00807896

>  <SCORE.INTRA.SOLV.lig_0>
-44.3465

>  <SCORE.INTRA.VDW>
-0.0362986

>  <SCORE.INTRA.VDW.0>
-0.778272

>  <SCORE.INTRA.norm>
0.0453122

>  <SCORE.RESTR>
0

>  <SCORE.RESTR.CAVITY>
0

>  <SCORE.RESTR.norm>
0

>  <SCORE.SYSTEM>
0

>  <SCORE.SYSTEM.CONST>
0

>  <SCORE.SYSTEM.DIHEDRAL>
0

>  <SCORE.SYSTEM.SOLV>
0

>  <SCORE.SYSTEM.norm>
0

>  <SCORE.heavy>
22

>  <SCORE.norm>
-0.421918

>  <RMSD>
16.290

$$$$
ligand
 OpenBabel11021811503D
libRbt.so/2013.1/901 2013/11/27
 22 24  0  0  0  0  0  0  0  0999 V2000
   -7.0024   -4.3912   26.0053 C   0  0  0  0  0  0  0  0  0  0  0  0
   -8.3629   -4.5840   26.3253 C   0  0  0  0  0  0  0  0  0  0  0  0
   -9.0159   -3.6508   27.1259 C   0  0  0  0  0  0  0  0  0  0  0  0
   -8.3094   -2.5329   27.6028 C   0  0  0  0  0  0  0  0  0  0  0  0
   -6.9408   -2.3429   27.2901 C   0  0  0  0  0  0  0  0  0  0  0  0
   -6.2913   -3.2750   26.4922 C   0  0  0  0  0  0  0  0  0  0  0  0
   -6.2603   -5.4239   25.1353 C   0  0  0  0  0  0  0  0  0  0  0  0
   -6.7308   -5.4961   23.6611 C   0  0  0  0  0  0  0  0  0  0  0  0
   -6.1354   -6.6630   22.8818 C   0  0  0  0  0  0  0  0  0  0  0  0
   -4.8642   -6.6450   22.3000 C   0  0  0  0  0  0  0  0  0  0  0  0
   -4.6867   -7.8530   21.7040 N   0  0  0  0  0  0  0  0  0  0  0  0
   -5.7808   -8.6806   21.8595 C   0  0  0  0  0  0  0  0  0  0  0  0
   -6.7208   -7.9716   22.5992 C   0  0  0  0  0  0  0  0  0  0  0  0
   -7.9680   -8.6405   22.8982 C   0  0  0  0  0  0  0  0  0  0  0  0
   -8.9514   -7.9937   23.6416 O   0  0  0  0  0  0  0  0  0  0  0  0
   -8.1706   -9.9324   22.4313 N   0  0  0  0  0  0  0  0  0  0  0  0
   -7.2145  -10.5938   21.7165 C   0  0  0  0  0  0  0  0  0  0  0  0
   -6.0458  -10.0037   21.4204 N   0  0  0  0  0  0  0  0  0  0  0  0
   -7.4686  -11.9637   21.2589 N   0  0  0  0  0  0  0  0  0  0  0  0
   -9.0387   -1.5421   28.4710 C   0  0  0  0  0  0  0  0  0  0  0  0
   -9.3325   -1.8338   29.6288 O   0  0  0  0  0  0  0  0  0  0  0  0
   -9.3878   -0.2599   27.9194 N   0  0  0  0  0  0  0  0  0  0  0  0
  1  2  2  0  0  0  0
  1  6  1  0  0  0  0
  1  7  1  0  0  0  0
  2  3  1  0  0  0  0
  3  4  2  0  0  0  0
  4  5  1  0  0  0  0
  4 20  1  0  0  0  0
  5  6  2  0  0  0  0
  7  8  1  0  0  0  0
  8  9  1  0  0  0  0
  9 10  2  0  0  0  0
  9 13  1  0  0  0  0
 10 11  1  0  0  0  0
 11 12  1  0  0  0  0
 12 13  2  0  0  0  0
 12 18  1  0  0  0  0
 13 14  1  0  0  0  0
 14 15  1  0  0  0  0
 14 16  2  0  0  0  0
 16 17  1  0  0  0  0
 17 18  2  0  0  0  0
 17 19  1  0  0  0  0
 20 21  2  0  0  0  0
 20 22  1  0  0  0  0
M  END
>  <CHROM.1>
67.91918062,72.54157434,-171.13880941,-81.98150594,-7.33817881,-6.04341815
24.56135955,-1.77764905,-0.47322144,-2.55529592

>  <Name>
ligand

>  <RI>
0

>  <Rbt.Current_Directory>
/home/itssahil/PROJECTS/Mol_Feturizer/New_Systems/rnas/4LVY

>  <Rbt.Executable>
rbdock ($Id: //depot/dev/client3/rdock/2013.1/src/exe/rbdock.cxx#4 $)

>  <Rbt.Library>
libRbt.so (2013.1, Build901 2013/11/27)

>  <Rbt.Parameter_File>
/export/apps/rDock/src/rDock_2013.1_src/data/scripts/dock_solv.prm

>  <Rbt.Receptor>
prm/blind_docking_40.prm

>  <SCORE>
-12.3434

>  <SCORE.INTER>
-11.999

>  <SCORE.INTER.CONST>
1

>  <SCORE.INTER.POLAR>
0

>  <SCORE.INTER.ROT>
4

>  <SCORE.INTER.SOLV>
9.01014

>  <SCORE.INTER.VDW>
-17.2694

>  <SCORE.INTER.norm>
-0.54541

>  <SCORE.INTRA>
-0.34443

>  <SCORE.INTRA.DIHEDRAL>
0.369367

>  <SCORE.INTRA.DIHEDRAL.0>
6.18831

>  <SCORE.INTRA.POLAR>
0

>  <SCORE.INTRA.POLAR.0>
0

>  <SCORE.INTRA.REPUL>
0

>  <SCORE.INTRA.REPUL.0>
0

>  <SCORE.INTRA.SOLV>
0.120054

>  <SCORE.INTRA.SOLV.lig_0>
-44.3465

>  <SCORE.INTRA.VDW>
-0.58914

>  <SCORE.INTRA.VDW.0>
-0.778272

>  <SCORE.INTRA.norm>
-0.0156559

>  <SCORE.RESTR>
0

>  <SCORE.RESTR.CAVITY>
0

>  <SCORE.RESTR.norm>
0

>  <SCORE.SYSTEM>
0

>  <SCORE.SYSTEM.CONST>
0

>  <SCORE.SYSTEM.DIHEDRAL>
0

>  <SCORE.SYSTEM.SOLV>
0

>  <SCORE.SYSTEM.norm>
0

>  <SCORE.heavy>
22

>  <SCORE.norm>
-0.561066

>  <RMSD>
16.384

$$$$
ligand
 OpenBabel11021811503D
libRbt.so/2013.1/901 2013/11/27
 22 24  0  0  0  0  0  0  0  0999 V2000
   -5.9582   -6.0681   24.1317 C   0  0  0  0  0  0  0  0  0  0  0  0
   -5.0877   -6.6229   25.0934 C   0  0  0  0  0  0  0  0  0  0  0  0
   -4.9605   -6.0081   26.3360 C   0  0  0  0  0  0  0  0  0  0  0  0
   -5.7003   -4.8450   26.6118 C   0  0  0  0  0  0  0  0  0  0  0  0
   -6.5676   -4.2815   25.6438 C   0  0  0  0  0  0  0  0  0  0  0  0
   -6.6925   -4.8956   24.4051 C   0  0  0  0  0  0  0  0  0  0  0  0
   -6.0968   -6.7261   22.7454 C   0  0  0  0  0  0  0  0  0  0  0  0
   -7.5327   -6.7303   22.1638 C   0  0  0  0  0  0  0  0  0  0  0  0
   -7.6595   -7.4823   20.8440 C   0  0  0  0  0  0  0  0  0  0  0  0
   -7.3934   -6.9150   19.5941 C   0  0  0  0  0  0  0  0  0  0  0  0
   -7.6096   -7.8849   18.6674 N   0  0  0  0  0  0  0  0  0  0  0  0
   -8.0084   -9.0769   19.2386 C   0  0  0  0  0  0  0  0  0  0  0  0
   -8.0521   -8.8706   20.6130 C   0  0  0  0  0  0  0  0  0  0  0  0
   -8.4453   -9.9921   21.4376 C   0  0  0  0  0  0  0  0  0  0  0  0
   -8.5029   -9.8599   22.8223 O   0  0  0  0  0  0  0  0  0  0  0  0
   -8.7666  -11.1982   20.8292 N   0  0  0  0  0  0  0  0  0  0  0  0
   -8.6998  -11.3577   19.4754 C   0  0  0  0  0  0  0  0  0  0  0  0
   -8.3393  -10.3385   18.6798 N   0  0  0  0  0  0  0  0  0  0  0  0
   -9.0332  -12.6559   18.8804 N   0  0  0  0  0  0  0  0  0  0  0  0
   -5.5396   -4.1977   27.9618 C   0  0  0  0  0  0  0  0  0  0  0  0
   -5.9932   -4.7427   28.9664 O   0  0  0  0  0  0  0  0  0  0  0  0
   -4.8554   -2.9351   28.0498 N   0  0  0  0  0  0  0  0  0  0  0  0
  1  2  2  0  0  0  0
  1  6  1  0  0  0  0
  1  7  1  0  0  0  0
  2  3  1  0  0  0  0
  3  4  2  0  0  0  0
  4  5  1  0  0  0  0
  4 20  1  0  0  0  0
  5  6  2  0  0  0  0
  7  8  1  0  0  0  0
  8  9  1  0  0  0  0
  9 10  2  0  0  0  0
  9 13  1  0  0  0  0
 10 11  1  0  0  0  0
 11 12  1  0  0  0  0
 12 13  2  0  0  0  0
 12 18  1  0  0  0  0
 13 14  1  0  0  0  0
 14 15  1  0  0  0  0
 14 16  2  0  0  0  0
 16 17  1  0  0  0  0
 17 18  2  0  0  0  0
 17 19  1  0  0  0  0
 20 21  2  0  0  0  0
 20 22  1  0  0  0  0
M  END
>  <CHROM.1>
141.64300224,-70.71719063,-175.47345947,-84.93532289,-7.09215528,-7.48078778
22.88610182,-0.56907749,-1.22164888,-1.25112747

>  <Name>
ligand

>  <RI>
0

>  <Rbt.Current_Directory>
/home/itssahil/PROJECTS/Mol_Feturizer/New_Systems/rnas/4LVY

>  <Rbt.Executable>
rbdock ($Id: //depot/dev/client3/rdock/2013.1/src/exe/rbdock.cxx#4 $)

>  <Rbt.Library>
libRbt.so (2013.1, Build901 2013/11/27)

>  <Rbt.Parameter_File>
/export/apps/rDock/src/rDock_2013.1_src/data/scripts/dock_solv.prm

>  <Rbt.Receptor>
prm/blind_docking_40.prm

>  <SCORE>
-11.3362

>  <SCORE.INTER>
-11.1512

>  <SCORE.INTER.CONST>
1

>  <SCORE.INTER.POLAR>
0

>  <SCORE.INTER.ROT>
4

>  <SCORE.INTER.SOLV>
3.33352

>  <SCORE.INTER.VDW>
-14.812

>  <SCORE.INTER.norm>
-0.506872

>  <SCORE.INTRA>
-0.184964

>  <SCORE.INTRA.DIHEDRAL>
0.00228844

>  <SCORE.INTRA.DIHEDRAL.0>
6.18831

>  <SCORE.INTRA.POLAR>
0

>  <SCORE.INTRA.POLAR.0>
0

>  <SCORE.INTRA.REPUL>
0

>  <SCORE.INTRA.REPUL.0>
0

>  <SCORE.INTRA.SOLV>
0.133961

>  <SCORE.INTRA.SOLV.lig_0>
-44.3465

>  <SCORE.INTRA.VDW>
-0.253089

>  <SCORE.INTRA.VDW.0>
-0.778272

>  <SCORE.INTRA.norm>
-0.00840747

>  <SCORE.RESTR>
0

>  <SCORE.RESTR.CAVITY>
0

>  <SCORE.RESTR.norm>
0

>  <SCORE.SYSTEM>
0

>  <SCORE.SYSTEM.CONST>
0

>  <SCORE.SYSTEM.DIHEDRAL>
0

>  <SCORE.SYSTEM.SOLV>
0

>  <SCORE.SYSTEM.norm>
0

>  <SCORE.heavy>
22

>  <SCORE.norm>
-0.51528

>  <RMSD>
16.398

$$$$
ligand
 OpenBabel11021811503D
libRbt.so/2013.1/901 2013/11/27
 22 24  0  0  0  0  0  0  0  0999 V2000
   -5.9558   -5.9049   24.1851 C   0  0  0  0  0  0  0  0  0  0  0  0
   -6.6803   -4.7544   24.5620 C   0  0  0  0  0  0  0  0  0  0  0  0
   -6.5530   -4.2602   25.8573 C   0  0  0  0  0  0  0  0  0  0  0  0
   -5.7061   -4.9156   26.7681 C   0  0  0  0  0  0  0  0  0  0  0  0
   -4.9854   -6.0763   26.3938 C   0  0  0  0  0  0  0  0  0  0  0  0
   -5.1142   -6.5680   25.1019 C   0  0  0  0  0  0  0  0  0  0  0  0
   -6.0993   -6.4750   22.7608 C   0  0  0  0  0  0  0  0  0  0  0  0
   -7.5583   -6.6819   22.2829 C   0  0  0  0  0  0  0  0  0  0  0  0
   -7.6702   -7.3842   20.9346 C   0  0  0  0  0  0  0  0  0  0  0  0
   -7.2210   -6.8355   19.7296 C   0  0  0  0  0  0  0  0  0  0  0  0
   -7.4850   -7.7485   18.7586 N   0  0  0  0  0  0  0  0  0  0  0  0
   -8.0907   -8.8846   19.2572 C   0  0  0  0  0  0  0  0  0  0  0  0
   -8.2262   -8.7003   20.6288 C   0  0  0  0  0  0  0  0  0  0  0  0
   -8.8389   -9.7721   21.3825 C   0  0  0  0  0  0  0  0  0  0  0  0
   -8.9991   -9.6594   22.7608 O   0  0  0  0  0  0  0  0  0  0  0  0
   -9.2667  -10.9105   20.7124 N   0  0  0  0  0  0  0  0  0  0  0  0
   -9.1039  -11.0521   19.3648 C   0  0  0  0  0  0  0  0  0  0  0  0
   -8.5399  -10.0776   18.6340 N   0  0  0  0  0  0  0  0  0  0  0  0
   -9.5573  -12.2803   18.7042 N   0  0  0  0  0  0  0  0  0  0  0  0
   -5.5912   -4.3628   28.1640 C   0  0  0  0  0  0  0  0  0  0  0  0
   -6.0138   -5.0087   29.1212 O   0  0  0  0  0  0  0  0  0  0  0  0
   -4.9876   -3.0703   28.3519 N   0  0  0  0  0  0  0  0  0  0  0  0
  1  2  2  0  0  0  0
  1  6  1  0  0  0  0
  1  7  1  0  0  0  0
  2  3  1  0  0  0  0
  3  4  2  0  0  0  0
  4  5  1  0  0  0  0
  4 20  1  0  0  0  0
  5  6  2  0  0  0  0
  7  8  1  0  0  0  0
  8  9  1  0  0  0  0
  9 10  2  0  0  0  0
  9 13  1  0  0  0  0
 10 11  1  0  0  0  0
 11 12  1  0  0  0  0
 12 13  2  0  0  0  0
 12 18  1  0  0  0  0
 13 14  1  0  0  0  0
 14 15  1  0  0  0  0
 14 16  2  0  0  0  0
 16 17  1  0  0  0  0
 17 18  2  0  0  0  0
 17 19  1  0  0  0  0
 20 21  2  0  0  0  0
 20 22  1  0  0  0  0
M  END
>  <CHROM.1>
-50.05628164,113.50099704,-173.77407053,-65.54938691,-7.22351966,-7.37655041
22.94016889,-0.82038368,-1.09479116,-1.49227361

>  <Name>
ligand

>  <RI>
0

>  <Rbt.Current_Directory>
/home/itssahil/PROJECTS/Mol_Feturizer/New_Systems/rnas/4LVY

>  <Rbt.Executable>
rbdock ($Id: //depot/dev/client3/rdock/2013.1/src/exe/rbdock.cxx#4 $)

>  <Rbt.Library>
libRbt.so (2013.1, Build901 2013/11/27)

>  <Rbt.Parameter_File>
/export/apps/rDock/src/rDock_2013.1_src/data/scripts/dock_solv.prm

>  <Rbt.Receptor>
prm/blind_docking_60.prm

>  <SCORE>
-11.3353

>  <SCORE.INTER>
-11.1782

>  <SCORE.INTER.CONST>
1

>  <SCORE.INTER.POLAR>
0

>  <SCORE.INTER.ROT>
4

>  <SCORE.INTER.SOLV>
4.09157

>  <SCORE.INTER.VDW>
-15.0827

>  <SCORE.INTER.norm>
-0.508101

>  <SCORE.INTRA>
-0.157048

>  <SCORE.INTRA.DIHEDRAL>
0.22167

>  <SCORE.INTRA.DIHEDRAL.0>
6.18831

>  <SCORE.INTRA.POLAR>
0

>  <SCORE.INTRA.POLAR.0>
0

>  <SCORE.INTRA.REPUL>
0

>  <SCORE.INTRA.REPUL.0>
0

>  <SCORE.INTRA.SOLV>
0.0598622

>  <SCORE.INTRA.SOLV.lig_0>
-44.3465

>  <SCORE.INTRA.VDW>
-0.297814

>  <SCORE.INTRA.VDW.0>
-0.778272

>  <SCORE.INTRA.norm>
-0.00713853

>  <SCORE.RESTR>
0

>  <SCORE.RESTR.CAVITY>
0

>  <SCORE.RESTR.norm>
0

>  <SCORE.SYSTEM>
0

>  <SCORE.SYSTEM.CONST>
0

>  <SCORE.SYSTEM.DIHEDRAL>
0

>  <SCORE.SYSTEM.SOLV>
0

>  <SCORE.SYSTEM.norm>
0

>  <SCORE.heavy>
22

>  <SCORE.norm>
-0.515239

>  <RMSD>
16.400

$$$$
ligand
 OpenBabel11021811503D
libRbt.so/2013.1/901 2013/11/27
 22 24  0  0  0  0  0  0  0  0999 V2000
   -7.0678   -4.4828   25.8902 C   0  0  0  0  0  0  0  0  0  0  0  0
   -6.1803   -3.7702   26.7240 C   0  0  0  0  0  0  0  0  0  0  0  0
   -6.6576   -3.1988   27.9005 C   0  0  0  0  0  0  0  0  0  0  0  0
   -8.0150   -3.3403   28.2377 C   0  0  0  0  0  0  0  0  0  0  0  0
   -8.9091   -4.0473   27.3966 C   0  0  0  0  0  0  0  0  0  0  0  0
   -8.4315   -4.6158   26.2236 C   0  0  0  0  0  0  0  0  0  0  0  0
   -6.5594   -5.1058   24.5758 C   0  0  0  0  0  0  0  0  0  0  0  0
   -6.4303   -6.6495   24.5906 C   0  0  0  0  0  0  0  0  0  0  0  0
   -6.0097   -7.2445   23.2517 C   0  0  0  0  0  0  0  0  0  0  0  0
   -4.8632   -6.8570   22.5515 C   0  0  0  0  0  0  0  0  0  0  0  0
   -4.8218   -7.6059   21.4186 N   0  0  0  0  0  0  0  0  0  0  0  0
   -5.8880   -8.4782   21.3270 C   0  0  0  0  0  0  0  0  0  0  0  0
   -6.6646   -8.2867   22.4644 C   0  0  0  0  0  0  0  0  0  0  0  0
   -7.8522   -9.1013   22.5989 C   0  0  0  0  0  0  0  0  0  0  0  0
   -8.6721   -8.9688   23.7162 O   0  0  0  0  0  0  0  0  0  0  0  0
   -8.1632  -10.0126   21.5985 N   0  0  0  0  0  0  0  0  0  0  0  0
   -7.3653  -10.1738   20.5031 C   0  0  0  0  0  0  0  0  0  0  0  0
   -6.2561   -9.4346   20.3454 N   0  0  0  0  0  0  0  0  0  0  0  0
   -7.7271  -11.1611   19.4809 N   0  0  0  0  0  0  0  0  0  0  0  0
   -8.5054   -2.7077   29.5131 C   0  0  0  0  0  0  0  0  0  0  0  0
   -8.3675   -3.2927   30.5858 O   0  0  0  0  0  0  0  0  0  0  0  0
   -9.1395   -1.4178   29.4497 N   0  0  0  0  0  0  0  0  0  0  0  0
  1  2  2  0  0  0  0
  1  6  1  0  0  0  0
  1  7  1  0  0  0  0
  2  3  1  0  0  0  0
  3  4  2  0  0  0  0
  4  5  1  0  0  0  0
  4 20  1  0  0  0  0
  5  6  2  0  0  0  0
  7  8  1  0  0  0  0
  8  9  1  0  0  0  0
  9 10  2  0  0  0  0
  9 13  1  0  0  0  0
 10 11  1  0  0  0  0
 11 12  1  0  0  0  0
 12 13  2  0  0  0  0
 12 18  1  0  0  0  0
 13 14  1  0  0  0  0
 14 15  1  0  0  0  0
 14 16  2  0  0  0  0
 16 17  1  0  0  0  0
 17 18  2  0  0  0  0
 17 19  1  0  0  0  0
 20 21  2  0  0  0  0
 20 22  1  0  0  0  0
M  END
>  <CHROM.1>
107.32652417,-83.20081278,176.36543273,54.79128101,-7.23375975,-6.40282683
24.56028322,-1.71306930,-0.49708470,-2.33979169

>  <Name>
ligand

>  <RI>
0

>  <Rbt.Current_Directory>
/home/itssahil/PROJECTS/Mol_Feturizer/New_Systems/rnas/4LVY

>  <Rbt.Executable>
rbdock ($Id: //depot/dev/client3/rdock/2013.1/src/exe/rbdock.cxx#4 $)

>  <Rbt.Library>
libRbt.so (2013.1, Build901 2013/11/27)

>  <Rbt.Parameter_File>
/export/apps/rDock/src/rDock_2013.1_src/data/scripts/dock_solv.prm

>  <Rbt.Receptor>
prm/blind_docking_40.prm

>  <SCORE>
-10.7801

>  <SCORE.INTER>
-10.4688

>  <SCORE.INTER.CONST>
1

>  <SCORE.INTER.POLAR>
0

>  <SCORE.INTER.ROT>
4

>  <SCORE.INTER.SOLV>
7.39378

>  <SCORE.INTER.VDW>
-15.7105

>  <SCORE.INTER.norm>
-0.475855

>  <SCORE.INTRA>
-0.311265

>  <SCORE.INTRA.DIHEDRAL>
0.0950728

>  <SCORE.INTRA.DIHEDRAL.0>
6.18831

>  <SCORE.INTRA.POLAR>
0

>  <SCORE.INTRA.POLAR.0>
0

>  <SCORE.INTRA.REPUL>
0

>  <SCORE.INTRA.REPUL.0>
0

>  <SCORE.INTRA.SOLV>
0.0206662

>  <SCORE.INTRA.SOLV.lig_0>
-44.3465

>  <SCORE.INTRA.VDW>
-0.369135

>  <SCORE.INTRA.VDW.0>
-0.778272

>  <SCORE.INTRA.norm>
-0.0141484

>  <SCORE.RESTR>
0

>  <SCORE.RESTR.CAVITY>
0

>  <SCORE.RESTR.norm>
0

>  <SCORE.SYSTEM>
0

>  <SCORE.SYSTEM.CONST>
0

>  <SCORE.SYSTEM.DIHEDRAL>
0

>  <SCORE.SYSTEM.SOLV>
0

>  <SCORE.SYSTEM.norm>
0

>  <SCORE.heavy>
22

>  <SCORE.norm>
-0.490003

>  <RMSD>
16.540

$$$$
ligand
 OpenBabel11021811503D
libRbt.so/2013.1/901 2013/11/27
 22 24  0  0  0  0  0  0  0  0999 V2000
   -6.3932   -6.6966   24.4268 C   0  0  0  0  0  0  0  0  0  0  0  0
   -5.2412   -6.8045   25.2343 C   0  0  0  0  0  0  0  0  0  0  0  0
   -4.9971   -5.8412   26.2094 C   0  0  0  0  0  0  0  0  0  0  0  0
   -5.9012   -4.7772   26.3728 C   0  0  0  0  0  0  0  0  0  0  0  0
   -7.0532   -4.6625   25.5565 C   0  0  0  0  0  0  0  0  0  0  0  0
   -7.2945   -5.6236   24.5843 C   0  0  0  0  0  0  0  0  0  0  0  0
   -6.6685   -7.7445   23.3312 C   0  0  0  0  0  0  0  0  0  0  0  0
   -6.6640   -7.1937   21.8833 C   0  0  0  0  0  0  0  0  0  0  0  0
   -6.6754   -8.2786   20.8125 C   0  0  0  0  0  0  0  0  0  0  0  0
   -5.6826   -8.4242   19.8388 C   0  0  0  0  0  0  0  0  0  0  0  0
   -6.0325   -9.4929   19.0764 N   0  0  0  0  0  0  0  0  0  0  0  0
   -7.2146  -10.0711   19.4943 C   0  0  0  0  0  0  0  0  0  0  0  0
   -7.6565   -9.3382   20.5902 C   0  0  0  0  0  0  0  0  0  0  0  0
   -8.8918   -9.7605   21.2133 C   0  0  0  0  0  0  0  0  0  0  0  0
   -9.3894   -9.0782   22.3200 O   0  0  0  0  0  0  0  0  0  0  0  0
   -9.5735  -10.8514   20.6907 N   0  0  0  0  0  0  0  0  0  0  0  0
   -9.0963  -11.5476   19.6182 C   0  0  0  0  0  0  0  0  0  0  0  0
   -7.9537  -11.1836   19.0151 N   0  0  0  0  0  0  0  0  0  0  0  0
   -9.8439  -12.7033   19.1124 N   0  0  0  0  0  0  0  0  0  0  0  0
   -5.6099   -3.7466   27.4313 C   0  0  0  0  0  0  0  0  0  0  0  0
   -5.5040   -2.5602   27.1262 O   0  0  0  0  0  0  0  0  0  0  0  0
   -5.4529   -4.1769   28.7953 N   0  0  0  0  0  0  0  0  0  0  0  0
  1  2  2  0  0  0  0
  1  6  1  0  0  0  0
  1  7  1  0  0  0  0
  2  3  1  0  0  0  0
  3  4  2  0  0  0  0
  4  5  1  0  0  0  0
  4 20  1  0  0  0  0
  5  6  2  0  0  0  0
  7  8  1  0  0  0  0
  8  9  1  0  0  0  0
  9 10  2  0  0  0  0
  9 13  1  0  0  0  0
 10 11  1  0  0  0  0
 11 12  1  0  0  0  0
 12 13  2  0  0  0  0
 12 18  1  0  0  0  0
 13 14  1  0  0  0  0
 14 15  1  0  0  0  0
 14 16  2  0  0  0  0
 16 17  1  0  0  0  0
 17 18  2  0  0  0  0
 17 19  1  0  0  0  0
 20 21  2  0  0  0  0
 20 22  1  0  0  0  0
M  END
>  <CHROM.1>
-116.34884911,122.36090669,169.09314343,-120.97563884,-7.06778870,-7.76196453
22.84746239,1.25790159,0.53691211,1.00334312

>  <Name>
ligand

>  <RI>
0

>  <Rbt.Current_Directory>
/home/itssahil/PROJECTS/Mol_Feturizer/New_Systems/rnas/4LVY

>  <Rbt.Executable>
rbdock ($Id: //depot/dev/client3/rdock/2013.1/src/exe/rbdock.cxx#4 $)

>  <Rbt.Library>
libRbt.so (2013.1, Build901 2013/11/27)

>  <Rbt.Parameter_File>
/export/apps/rDock/src/rDock_2013.1_src/data/scripts/dock_solv.prm

>  <Rbt.Receptor>
prm/blind_docking_60.prm

>  <SCORE>
-10.2345

>  <SCORE.INTER>
-10.0499

>  <SCORE.INTER.CONST>
1

>  <SCORE.INTER.POLAR>
0

>  <SCORE.INTER.ROT>
4

>  <SCORE.INTER.SOLV>
3.42619

>  <SCORE.INTER.VDW>
-14.1087

>  <SCORE.INTER.norm>
-0.456814

>  <SCORE.INTRA>
-0.18464

>  <SCORE.INTRA.DIHEDRAL>
0.494948

>  <SCORE.INTRA.DIHEDRAL.0>
6.18831

>  <SCORE.INTRA.POLAR>
0

>  <SCORE.INTRA.POLAR.0>
0

>  <SCORE.INTRA.REPUL>
0

>  <SCORE.INTRA.REPUL.0>
0

>  <SCORE.INTRA.SOLV>
0.299857

>  <SCORE.INTRA.SOLV.lig_0>
-44.3465

>  <SCORE.INTRA.VDW>
-0.582042

>  <SCORE.INTRA.VDW.0>
-0.778272

>  <SCORE.INTRA.norm>
-0.00839271

>  <SCORE.RESTR>
0

>  <SCORE.RESTR.CAVITY>
0

>  <SCORE.RESTR.norm>
0

>  <SCORE.SYSTEM>
0

>  <SCORE.SYSTEM.CONST>
0

>  <SCORE.SYSTEM.DIHEDRAL>
0

>  <SCORE.SYSTEM.SOLV>
0

>  <SCORE.SYSTEM.norm>
0

>  <SCORE.heavy>
22

>  <SCORE.norm>
-0.465206

>  <RMSD>
16.629

$$$$
ligand
 OpenBabel11021811503D
libRbt.so/2013.1/901 2013/11/27
 22 24  0  0  0  0  0  0  0  0999 V2000
   -5.7761   -5.8728   24.7404 C   0  0  0  0  0  0  0  0  0  0  0  0
   -4.9387   -6.2396   25.8150 C   0  0  0  0  0  0  0  0  0  0  0  0
   -5.0754   -5.5925   27.0400 C   0  0  0  0  0  0  0  0  0  0  0  0
   -6.0442   -4.5844   27.1860 C   0  0  0  0  0  0  0  0  0  0  0  0
   -6.8792   -4.2085   26.1052 C   0  0  0  0  0  0  0  0  0  0  0  0
   -6.7409   -4.8544   24.8842 C   0  0  0  0  0  0  0  0  0  0  0  0
   -5.6255   -6.5667   23.3729 C   0  0  0  0  0  0  0  0  0  0  0  0
   -6.6480   -7.6973   23.0968 C   0  0  0  0  0  0  0  0  0  0  0  0
   -6.3720   -8.4772   21.8166 C   0  0  0  0  0  0  0  0  0  0  0  0
   -5.4651   -8.0682   20.8341 C   0  0  0  0  0  0  0  0  0  0  0  0
   -5.4886   -9.0135   19.8584 N   0  0  0  0  0  0  0  0  0  0  0  0
   -6.3698  -10.0380   20.1416 C   0  0  0  0  0  0  0  0  0  0  0  0
   -6.9498   -9.7428   21.3704 C   0  0  0  0  0  0  0  0  0  0  0  0
   -7.9181  -10.6847   21.8877 C   0  0  0  0  0  0  0  0  0  0  0  0
   -8.5324  -10.4574   23.1161 O   0  0  0  0  0  0  0  0  0  0  0  0
   -8.2272  -11.8141   21.1415 N   0  0  0  0  0  0  0  0  0  0  0  0
   -7.6248  -12.0682   19.9436 C   0  0  0  0  0  0  0  0  0  0  0  0
   -6.7221  -11.2159   19.4332 N   0  0  0  0  0  0  0  0  0  0  0  0
   -7.9725  -13.2832   19.1997 N   0  0  0  0  0  0  0  0  0  0  0  0
   -6.1669   -3.8974   28.5203 C   0  0  0  0  0  0  0  0  0  0  0  0
   -6.8042   -4.4242   29.4304 O   0  0  0  0  0  0  0  0  0  0  0  0
   -5.5334   -2.6187   28.7042 N   0  0  0  0  0  0  0  0  0  0  0  0
  1  2  2  0  0  0  0
  1  6  1  0  0  0  0
  1  7  1  0  0  0  0
  2  3  1  0  0  0  0
  3  4  2  0  0  0  0
  4  5  1  0  0  0  0
  4 20  1  0  0  0  0
  5  6  2  0  0  0  0
  7  8  1  0  0  0  0
  8  9  1  0  0  0  0
  9 10  2  0  0  0  0
  9 13  1  0  0  0  0
 10 11  1  0  0  0  0
 11 12  1  0  0  0  0
 12 13  2  0  0  0  0
 12 18  1  0  0  0  0
 13 14  1  0  0  0  0
 14 15  1  0  0  0  0
 14 16  2  0  0  0  0
 16 17  1  0  0  0  0
 17 18  2  0  0  0  0
 17 19  1  0  0  0  0
 20 21  2  0  0  0  0
 20 22  1  0  0  0  0
M  END
>  <CHROM.1>
99.26052816,-81.52512282,-172.94977749,-12.42527132,-6.57422816,-7.83539290
23.53644620,-1.38036465,-0.86656034,-2.18054934

>  <Name>
ligand

>  <RI>
0

>  <Rbt.Current_Directory>
/home/itssahil/PROJECTS/Mol_Feturizer/New_Systems/rnas/4LVY

>  <Rbt.Executable>
rbdock ($Id: //depot/dev/client3/rdock/2013.1/src/exe/rbdock.cxx#4 $)

>  <Rbt.Library>
libRbt.so (2013.1, Build901 2013/11/27)

>  <Rbt.Parameter_File>
/export/apps/rDock/src/rDock_2013.1_src/data/scripts/dock_solv.prm

>  <Rbt.Receptor>
prm/blind_docking_60.prm

>  <SCORE>
-10.1694

>  <SCORE.INTER>
-10.3606

>  <SCORE.INTER.CONST>
1

>  <SCORE.INTER.POLAR>
0

>  <SCORE.INTER.ROT>
4

>  <SCORE.INTER.SOLV>
5.51767

>  <SCORE.INTER.VDW>
-15.013

>  <SCORE.INTER.norm>
-0.470938

>  <SCORE.INTRA>
0.191269

>  <SCORE.INTRA.DIHEDRAL>
0.289491

>  <SCORE.INTRA.DIHEDRAL.0>
6.18831

>  <SCORE.INTRA.POLAR>
0

>  <SCORE.INTRA.POLAR.0>
0

>  <SCORE.INTRA.REPUL>
0

>  <SCORE.INTRA.REPUL.0>
0

>  <SCORE.INTRA.SOLV>
-0.00716371

>  <SCORE.INTRA.SOLV.lig_0>
-44.3465

>  <SCORE.INTRA.VDW>
0.0501051

>  <SCORE.INTRA.VDW.0>
-0.778272

>  <SCORE.INTRA.norm>
0.00869403

>  <SCORE.RESTR>
0

>  <SCORE.RESTR.CAVITY>
0

>  <SCORE.RESTR.norm>
0

>  <SCORE.SYSTEM>
0

>  <SCORE.SYSTEM.CONST>
0

>  <SCORE.SYSTEM.DIHEDRAL>
0

>  <SCORE.SYSTEM.SOLV>
0

>  <SCORE.SYSTEM.norm>
0

>  <SCORE.heavy>
22

>  <SCORE.norm>
-0.462244

>  <RMSD>
16.637

$$$$
ligand
 OpenBabel11021811503D
libRbt.so/2013.1/901 2013/11/27
 22 24  0  0  0  0  0  0  0  0999 V2000
  -11.0621   -5.2853   22.5043 C   0  0  0  0  0  0  0  0  0  0  0  0
  -11.0338   -5.4784   23.9016 C   0  0  0  0  0  0  0  0  0  0  0  0
  -11.4456   -4.4482   24.7427 C   0  0  0  0  0  0  0  0  0  0  0  0
  -11.8818   -3.2331   24.1865 C   0  0  0  0  0  0  0  0  0  0  0  0
  -11.9018   -3.0345   22.7840 C   0  0  0  0  0  0  0  0  0  0  0  0
  -11.4901   -4.0627   21.9470 C   0  0  0  0  0  0  0  0  0  0  0  0
  -10.5927   -6.4090   21.5603 C   0  0  0  0  0  0  0  0  0  0  0  0
   -9.3800   -7.2274   22.0696 C   0  0  0  0  0  0  0  0  0  0  0  0
   -8.0788   -6.4347   22.1159 C   0  0  0  0  0  0  0  0  0  0  0  0
   -7.6930   -5.6306   23.1927 C   0  0  0  0  0  0  0  0  0  0  0  0
   -6.4853   -5.0968   22.8727 N   0  0  0  0  0  0  0  0  0  0  0  0
   -6.0432   -5.5061   21.6304 C   0  0  0  0  0  0  0  0  0  0  0  0
   -7.0171   -6.3545   21.1153 C   0  0  0  0  0  0  0  0  0  0  0  0
   -6.7749   -6.9215   19.8068 C   0  0  0  0  0  0  0  0  0  0  0  0
   -7.7032   -7.7858   19.2330 O   0  0  0  0  0  0  0  0  0  0  0  0
   -5.6076   -6.5895   19.1322 N   0  0  0  0  0  0  0  0  0  0  0  0
   -4.6741   -5.7594   19.6817 C   0  0  0  0  0  0  0  0  0  0  0  0
   -4.8661   -5.2149   20.8935 N   0  0  0  0  0  0  0  0  0  0  0  0
   -3.4489   -5.4512   18.9370 N   0  0  0  0  0  0  0  0  0  0  0  0
  -12.3165   -2.1340   25.1194 C   0  0  0  0  0  0  0  0  0  0  0  0
  -11.5922   -1.7931   26.0527 O   0  0  0  0  0  0  0  0  0  0  0  0
  -13.5900   -1.5009   24.9013 N   0  0  0  0  0  0  0  0  0  0  0  0
  1  2  2  0  0  0  0
  1  6  1  0  0  0  0
  1  7  1  0  0  0  0
  2  3  1  0  0  0  0
  3  4  2  0  0  0  0
  4  5  1  0  0  0  0
  4 20  1  0  0  0  0
  5  6  2  0  0  0  0
  7  8  1  0  0  0  0
  8  9  1  0  0  0  0
  9 10  2  0  0  0  0
  9 13  1  0  0  0  0
 10 11  1  0  0  0  0
 11 12  1  0  0  0  0
 12 13  2  0  0  0  0
 12 18  1  0  0  0  0
 13 14  1  0  0  0  0
 14 15  1  0  0  0  0
 14 16  2  0  0  0  0
 16 17  1  0  0  0  0
 17 18  2  0  0  0  0
 17 19  1  0  0  0  0
 20 21  2  0  0  0  0
 20 22  1  0  0  0  0
M  END
>  <CHROM.1>
-37.17878714,50.64099769,-68.18207466,85.48761342,-8.81585277,-5.06846142
22.17637980,2.46443819,0.22595789,0.66314229

>  <Name>
ligand

>  <RI>
0

>  <Rbt.Current_Directory>
/home/itssahil/PROJECTS/Mol_Feturizer/New_Systems/rnas/4LVY

>  <Rbt.Executable>
rbdock ($Id: //depot/dev/client3/rdock/2013.1/src/exe/rbdock.cxx#4 $)

>  <Rbt.Library>
libRbt.so (2013.1, Build901 2013/11/27)

>  <Rbt.Parameter_File>
/export/apps/rDock/src/rDock_2013.1_src/data/scripts/dock_solv.prm

>  <Rbt.Receptor>
prm/blind_docking_80.prm

>  <SCORE>
-13.2688

>  <SCORE.INTER>
-12.7402

>  <SCORE.INTER.CONST>
1

>  <SCORE.INTER.POLAR>
0

>  <SCORE.INTER.ROT>
4

>  <SCORE.INTER.SOLV>
9.62699

>  <SCORE.INTER.VDW>
-17.9691

>  <SCORE.INTER.norm>
-0.579099

>  <SCORE.INTRA>
-0.528567

>  <SCORE.INTRA.DIHEDRAL>
0.382479

>  <SCORE.INTRA.DIHEDRAL.0>
6.18831

>  <SCORE.INTRA.POLAR>
0

>  <SCORE.INTRA.POLAR.0>
0

>  <SCORE.INTRA.REPUL>
0

>  <SCORE.INTRA.REPUL.0>
0

>  <SCORE.INTRA.SOLV>
0.135769

>  <SCORE.INTRA.SOLV.lig_0>
-44.3465

>  <SCORE.INTRA.VDW>
-0.787691

>  <SCORE.INTRA.VDW.0>
-0.778272

>  <SCORE.INTRA.norm>
-0.0240258

>  <SCORE.RESTR>
0

>  <SCORE.RESTR.CAVITY>
0

>  <SCORE.RESTR.norm>
0

>  <SCORE.SYSTEM>
0

>  <SCORE.SYSTEM.CONST>
0

>  <SCORE.SYSTEM.DIHEDRAL>
0

>  <SCORE.SYSTEM.SOLV>
0

>  <SCORE.SYSTEM.norm>
0

>  <SCORE.heavy>
22

>  <SCORE.norm>
-0.603125

>  <RMSD>
16.703

$$$$
ligand
 OpenBabel11021811503D
libRbt.so/2013.1/901 2013/11/27
 22 24  0  0  0  0  0  0  0  0999 V2000
   -6.3614   -6.8677   24.5088 C   0  0  0  0  0  0  0  0  0  0  0  0
   -5.3217   -7.0115   25.4516 C   0  0  0  0  0  0  0  0  0  0  0  0
   -5.0200   -5.9524   26.3035 C   0  0  0  0  0  0  0  0  0  0  0  0
   -5.7552   -4.7578   26.2100 C   0  0  0  0  0  0  0  0  0  0  0  0
   -6.7932   -4.6088   25.2575 C   0  0  0  0  0  0  0  0  0  0  0  0
   -7.0920   -5.6657   24.4085 C   0  0  0  0  0  0  0  0  0  0  0  0
   -6.6959   -8.0238   23.5467 C   0  0  0  0  0  0  0  0  0  0  0  0
   -8.1998   -8.3844   23.4550 C   0  0  0  0  0  0  0  0  0  0  0  0
   -8.4622   -9.8246   23.0304 C   0  0  0  0  0  0  0  0  0  0  0  0
   -9.2367  -10.7262   23.7667 C   0  0  0  0  0  0  0  0  0  0  0  0
   -9.2452  -11.8952   23.0743 N   0  0  0  0  0  0  0  0  0  0  0  0
   -8.5118  -11.8189   21.9070 C   0  0  0  0  0  0  0  0  0  0  0  0
   -7.9997  -10.5280   21.8362 C   0  0  0  0  0  0  0  0  0  0  0  0
   -7.1888  -10.2008   20.6840 C   0  0  0  0  0  0  0  0  0  0  0  0
   -6.6505   -8.9246   20.5434 O   0  0  0  0  0  0  0  0  0  0  0  0
   -6.9534  -11.1764   19.7245 N   0  0  0  0  0  0  0  0  0  0  0  0
   -7.4854  -12.4287   19.8307 C   0  0  0  0  0  0  0  0  0  0  0  0
   -8.2421  -12.7672   20.8865 N   0  0  0  0  0  0  0  0  0  0  0  0
   -7.2218  -13.4204   18.7831 N   0  0  0  0  0  0  0  0  0  0  0  0
   -5.4044   -3.6268   27.1400 C   0  0  0  0  0  0  0  0  0  0  0  0
   -4.2267   -3.3660   27.3791 O   0  0  0  0  0  0  0  0  0  0  0  0
   -6.4676   -2.8681   27.7433 N   0  0  0  0  0  0  0  0  0  0  0  0
  1  2  2  0  0  0  0
  1  6  1  0  0  0  0
  1  7  1  0  0  0  0
  2  3  1  0  0  0  0
  3  4  2  0  0  0  0
  4  5  1  0  0  0  0
  4 20  1  0  0  0  0
  5  6  2  0  0  0  0
  7  8  1  0  0  0  0
  8  9  1  0  0  0  0
  9 10  2  0  0  0  0
  9 13  1  0  0  0  0
 10 11  1  0  0  0  0
 11 12  1  0  0  0  0
 12 13  2  0  0  0  0
 12 18  1  0  0  0  0
 13 14  1  0  0  0  0
 14 15  1  0  0  0  0
 14 16  2  0  0  0  0
 16 17  1  0  0  0  0
 17 18  2  0  0  0  0
 17 19  1  0  0  0  0
 20 21  2  0  0  0  0
 20 22  1  0  0  0  0
M  END
>  <CHROM.1>
131.48474336,41.18071260,-154.69839385,124.63455059,-7.00708757,-8.40687123
23.39787742,-1.26432576,-0.71998845,-2.27315903

>  <Name>
ligand

>  <RI>
0

>  <Rbt.Current_Directory>
/home/itssahil/PROJECTS/Mol_Feturizer/New_Systems/rnas/4LVY

>  <Rbt.Executable>
rbdock ($Id: //depot/dev/client3/rdock/2013.1/src/exe/rbdock.cxx#4 $)

>  <Rbt.Library>
libRbt.so (2013.1, Build901 2013/11/27)

>  <Rbt.Parameter_File>
/export/apps/rDock/src/rDock_2013.1_src/data/scripts/dock_solv.prm

>  <Rbt.Receptor>
prm/blind_docking_100.prm

>  <SCORE>
-11.3025

>  <SCORE.INTER>
-12.2913

>  <SCORE.INTER.CONST>
1

>  <SCORE.INTER.POLAR>
0

>  <SCORE.INTER.ROT>
4

>  <SCORE.INTER.SOLV>
7.08378

>  <SCORE.INTER.VDW>
-16.8221

>  <SCORE.INTER.norm>
-0.558695

>  <SCORE.INTRA>
0.988793

>  <SCORE.INTRA.DIHEDRAL>
2.26889

>  <SCORE.INTRA.DIHEDRAL.0>
6.18831

>  <SCORE.INTRA.POLAR>
0

>  <SCORE.INTRA.POLAR.0>
0

>  <SCORE.INTRA.REPUL>
0

>  <SCORE.INTRA.REPUL.0>
0

>  <SCORE.INTRA.SOLV>
0.315666

>  <SCORE.INTRA.SOLV.lig_0>
-44.3465

>  <SCORE.INTRA.VDW>
-0.303485

>  <SCORE.INTRA.VDW.0>
-0.778272

>  <SCORE.INTRA.norm>
0.0449451

>  <SCORE.RESTR>
0

>  <SCORE.RESTR.CAVITY>
0

>  <SCORE.RESTR.norm>
0

>  <SCORE.SYSTEM>
0

>  <SCORE.SYSTEM.CONST>
0

>  <SCORE.SYSTEM.DIHEDRAL>
0

>  <SCORE.SYSTEM.SOLV>
0

>  <SCORE.SYSTEM.norm>
0

>  <SCORE.heavy>
22

>  <SCORE.norm>
-0.51375

>  <RMSD>
17.140

$$$$
ligand
 OpenBabel11021811503D
libRbt.so/2013.1/901 2013/11/27
 22 24  0  0  0  0  0  0  0  0999 V2000
   -6.9544  -24.4288   32.5520 C   0  0  0  0  0  0  0  0  0  0  0  0
   -6.1049  -24.6445   31.4463 C   0  0  0  0  0  0  0  0  0  0  0  0
   -5.9487  -25.9341   30.9455 C   0  0  0  0  0  0  0  0  0  0  0  0
   -6.6387  -26.9996   31.5495 C   0  0  0  0  0  0  0  0  0  0  0  0
   -7.4846  -26.7859   32.6656 C   0  0  0  0  0  0  0  0  0  0  0  0
   -7.6385  -25.4994   33.1640 C   0  0  0  0  0  0  0  0  0  0  0  0
   -7.1242  -23.0105   33.1295 C   0  0  0  0  0  0  0  0  0  0  0  0
   -6.1578  -22.6554   34.2871 C   0  0  0  0  0  0  0  0  0  0  0  0
   -6.2834  -21.2164   34.7737 C   0  0  0  0  0  0  0  0  0  0  0  0
   -7.5027  -20.5521   34.9385 C   0  0  0  0  0  0  0  0  0  0  0  0
   -7.2130  -19.3030   35.3878 N   0  0  0  0  0  0  0  0  0  0  0  0
   -5.8552  -19.0990   35.5321 C   0  0  0  0  0  0  0  0  0  0  0  0
   -5.2277  -20.2820   35.1574 C   0  0  0  0  0  0  0  0  0  0  0  0
   -3.7833  -20.3154   35.2284 C   0  0  0  0  0  0  0  0  0  0  0  0
   -3.0892  -21.4697   34.8763 O   0  0  0  0  0  0  0  0  0  0  0  0
   -3.1012  -19.1814   35.6487 N   0  0  0  0  0  0  0  0  0  0  0  0
   -3.7602  -18.0444   36.0168 C   0  0  0  0  0  0  0  0  0  0  0  0
   -5.0998  -17.9778   35.9629 N   0  0  0  0  0  0  0  0  0  0  0  0
   -2.9964  -16.8773   36.4696 N   0  0  0  0  0  0  0  0  0  0  0  0
   -6.4473  -28.3847   30.9909 C   0  0  0  0  0  0  0  0  0  0  0  0
   -6.5210  -28.5778   29.7787 O   0  0  0  0  0  0  0  0  0  0  0  0
   -6.1852  -29.4698   31.8986 N   0  0  0  0  0  0  0  0  0  0  0  0
  1  2  2  0  0  0  0
  1  6  1  0  0  0  0
  1  7  1  0  0  0  0
  2  3  1  0  0  0  0
  3  4  2  0  0  0  0
  4  5  1  0  0  0  0
  4 20  1  0  0  0  0
  5  6  2  0  0  0  0
  7  8  1  0  0  0  0
  8  9  1  0  0  0  0
  9 10  2  0  0  0  0
  9 13  1  0  0  0  0
 10 11  1  0  0  0  0
 11 12  1  0  0  0  0
 12 13  2  0  0  0  0
 12 18  1  0  0  0  0
 13 14  1  0  0  0  0
 14 15  1  0  0  0  0
 14 16  2  0  0  0  0
 16 17  1  0  0  0  0
 17 18  2  0  0  0  0
 17 19  1  0  0  0  0
 20 21  2  0  0  0  0
 20 22  1  0  0  0  0
M  END
>  <CHROM.1>
-92.44313708,-47.47584480,176.02384152,41.09218759,-5.73316411,-22.74701598
33.75171451,1.78478440,0.00535578,-2.67570955

>  <Name>
ligand

>  <RI>
0

>  <Rbt.Current_Directory>
/home/itssahil/PROJECTS/Mol_Feturizer/New_Systems/rnas/4LVY

>  <Rbt.Executable>
rbdock ($Id: //depot/dev/client3/rdock/2013.1/src/exe/rbdock.cxx#4 $)

>  <Rbt.Library>
libRbt.so (2013.1, Build901 2013/11/27)

>  <Rbt.Parameter_File>
/export/apps/rDock/src/rDock_2013.1_src/data/scripts/dock_solv.prm

>  <Rbt.Receptor>
prm/blind_docking_100.prm

>  <SCORE>
-14.7407

>  <SCORE.INTER>
-14.5826

>  <SCORE.INTER.CONST>
1

>  <SCORE.INTER.POLAR>
0

>  <SCORE.INTER.ROT>
4

>  <SCORE.INTER.SOLV>
8.54988

>  <SCORE.INTER.VDW>
-18.8384

>  <SCORE.INTER.norm>
-0.662847

>  <SCORE.INTRA>
-0.158103

>  <SCORE.INTRA.DIHEDRAL>
0.0101915

>  <SCORE.INTRA.DIHEDRAL.0>
6.18831

>  <SCORE.INTRA.POLAR>
0

>  <SCORE.INTRA.POLAR.0>
0

>  <SCORE.INTRA.REPUL>
0

>  <SCORE.INTRA.REPUL.0>
0

>  <SCORE.INTRA.SOLV>
-0.000547323

>  <SCORE.INTRA.SOLV.lig_0>
-44.3465

>  <SCORE.INTRA.VDW>
-0.162925

>  <SCORE.INTRA.VDW.0>
-0.778272

>  <SCORE.INTRA.norm>
-0.0071865

>  <SCORE.RESTR>
0

>  <SCORE.RESTR.CAVITY>
0

>  <SCORE.RESTR.norm>
0

>  <SCORE.SYSTEM>
0

>  <SCORE.SYSTEM.CONST>
0

>  <SCORE.SYSTEM.DIHEDRAL>
0

>  <SCORE.SYSTEM.SOLV>
0

>  <SCORE.SYSTEM.norm>
0

>  <SCORE.heavy>
22

>  <SCORE.norm>
-0.670034

>  <RMSD>
30.567

$$$$
ligand
 OpenBabel11021811503D
libRbt.so/2013.1/901 2013/11/27
 22 24  0  0  0  0  0  0  0  0999 V2000
   -5.5334  -24.3183   34.3654 C   0  0  0  0  0  0  0  0  0  0  0  0
   -6.1582  -24.1354   33.1137 C   0  0  0  0  0  0  0  0  0  0  0  0
   -6.4587  -25.2467   32.3307 C   0  0  0  0  0  0  0  0  0  0  0  0
   -6.1342  -26.5318   32.7993 C   0  0  0  0  0  0  0  0  0  0  0  0
   -5.4983  -26.7162   34.0516 C   0  0  0  0  0  0  0  0  0  0  0  0
   -5.1988  -25.6069   34.8306 C   0  0  0  0  0  0  0  0  0  0  0  0
   -5.1779  -23.0978   35.2362 C   0  0  0  0  0  0  0  0  0  0  0  0
   -3.7009  -22.6389   35.1475 C   0  0  0  0  0  0  0  0  0  0  0  0
   -3.3265  -21.5704   36.1682 C   0  0  0  0  0  0  0  0  0  0  0  0
   -2.2903  -21.7075   37.0968 C   0  0  0  0  0  0  0  0  0  0  0  0
   -2.2577  -20.5596   37.8229 N   0  0  0  0  0  0  0  0  0  0  0  0
   -3.2247  -19.6587   37.4237 C   0  0  0  0  0  0  0  0  0  0  0  0
   -3.9234  -20.2535   36.3790 C   0  0  0  0  0  0  0  0  0  0  0  0
   -4.9988  -19.4908   35.7840 C   0  0  0  0  0  0  0  0  0  0  0  0
   -5.7355  -20.0208   34.7283 O   0  0  0  0  0  0  0  0  0  0  0  0
   -5.2867  -18.2271   36.2820 N   0  0  0  0  0  0  0  0  0  0  0  0
   -4.5669  -17.6787   37.3036 C   0  0  0  0  0  0  0  0  0  0  0  0
   -3.5627  -18.3581   37.8796 N   0  0  0  0  0  0  0  0  0  0  0  0
   -4.8984  -16.3336   37.7845 N   0  0  0  0  0  0  0  0  0  0  0  0
   -6.4657  -27.7155   31.9297 C   0  0  0  0  0  0  0  0  0  0  0  0
   -7.2473  -28.5765   32.3297 O   0  0  0  0  0  0  0  0  0  0  0  0
   -5.8485  -27.8205   30.6343 N   0  0  0  0  0  0  0  0  0  0  0  0
  1  2  2  0  0  0  0
  1  6  1  0  0  0  0
  1  7  1  0  0  0  0
  2  3  1  0  0  0  0
  3  4  2  0  0  0  0
  4  5  1  0  0  0  0
  4 20  1  0  0  0  0
  5  6  2  0  0  0  0
  7  8  1  0  0  0  0
  8  9  1  0  0  0  0
  9 10  2  0  0  0  0
  9 13  1  0  0  0  0
 10 11  1  0  0  0  0
 11 12  1  0  0  0  0
 12 13  2  0  0  0  0
 12 18  1  0  0  0  0
 13 14  1  0  0  0  0
 14 15  1  0  0  0  0
 14 16  2  0  0  0  0
 16 17  1  0  0  0  0
 17 18  2  0  0  0  0
 17 19  1  0  0  0  0
 20 21  2  0  0  0  0
 20 22  1  0  0  0  0
M  END
>  <CHROM.1>
-98.91237345,-118.49207706,-171.31512061,123.07807250,-4.90655370,-22.53021846
35.05902290,-1.86204393,-0.67872868,0.32554286

>  <Name>
ligand

>  <RI>
0

>  <Rbt.Current_Directory>
/home/itssahil/PROJECTS/Mol_Feturizer/New_Systems/rnas/4LVY

>  <Rbt.Executable>
rbdock ($Id: //depot/dev/client3/rdock/2013.1/src/exe/rbdock.cxx#4 $)

>  <Rbt.Library>
libRbt.so (2013.1, Build901 2013/11/27)

>  <Rbt.Parameter_File>
/export/apps/rDock/src/rDock_2013.1_src/data/scripts/dock_solv.prm

>  <Rbt.Receptor>
prm/blind_docking_60.prm

>  <SCORE>
-13.8693

>  <SCORE.INTER>
-13.4729

>  <SCORE.INTER.CONST>
1

>  <SCORE.INTER.POLAR>
0

>  <SCORE.INTER.ROT>
4

>  <SCORE.INTER.SOLV>
9.18734

>  <SCORE.INTER.VDW>
-18.3111

>  <SCORE.INTER.norm>
-0.612406

>  <SCORE.INTRA>
-0.3964

>  <SCORE.INTRA.DIHEDRAL>
0.261203

>  <SCORE.INTRA.DIHEDRAL.0>
6.18831

>  <SCORE.INTRA.POLAR>
0

>  <SCORE.INTRA.POLAR.0>
0

>  <SCORE.INTRA.REPUL>
0

>  <SCORE.INTRA.REPUL.0>
0

>  <SCORE.INTRA.SOLV>
0.305683

>  <SCORE.INTRA.SOLV.lig_0>
-44.3465

>  <SCORE.INTRA.VDW>
-0.679843

>  <SCORE.INTRA.VDW.0>
-0.778272

>  <SCORE.INTRA.norm>
-0.0180182

>  <SCORE.RESTR>
0

>  <SCORE.RESTR.CAVITY>
0

>  <SCORE.RESTR.norm>
0

>  <SCORE.SYSTEM>
0

>  <SCORE.SYSTEM.CONST>
0

>  <SCORE.SYSTEM.DIHEDRAL>
0

>  <SCORE.SYSTEM.SOLV>
0

>  <SCORE.SYSTEM.norm>
0

>  <SCORE.heavy>
22

>  <SCORE.norm>
-0.630424

>  <RMSD>
30.733

$$$$
ligand
 OpenBabel11021811503D
libRbt.so/2013.1/901 2013/11/27
 22 24  0  0  0  0  0  0  0  0999 V2000
   -6.6940  -25.0220   31.8546 C   0  0  0  0  0  0  0  0  0  0  0  0
   -7.6607  -26.0488   31.8123 C   0  0  0  0  0  0  0  0  0  0  0  0
   -7.3681  -27.2363   31.1471 C   0  0  0  0  0  0  0  0  0  0  0  0
   -6.1156  -27.3925   30.5282 C   0  0  0  0  0  0  0  0  0  0  0  0
   -5.1476  -26.3587   30.5618 C   0  0  0  0  0  0  0  0  0  0  0  0
   -5.4415  -25.1751   31.2249 C   0  0  0  0  0  0  0  0  0  0  0  0
   -7.0088  -23.6948   32.5713 C   0  0  0  0  0  0  0  0  0  0  0  0
   -6.1724  -23.4259   33.8472 C   0  0  0  0  0  0  0  0  0  0  0  0
   -6.3827  -22.0371   34.4392 C   0  0  0  0  0  0  0  0  0  0  0  0
   -7.6338  -21.4272   34.5728 C   0  0  0  0  0  0  0  0  0  0  0  0
   -7.4206  -20.2115   35.1408 N   0  0  0  0  0  0  0  0  0  0  0  0
   -6.0837  -19.9781   35.3945 C   0  0  0  0  0  0  0  0  0  0  0  0
   -5.3897  -21.1055   34.9692 C   0  0  0  0  0  0  0  0  0  0  0  0
   -3.9530  -21.0997   35.1368 C   0  0  0  0  0  0  0  0  0  0  0  0
   -3.1951  -22.1983   34.7409 O   0  0  0  0  0  0  0  0  0  0  0  0
   -3.3423  -19.9840   35.6937 N   0  0  0  0  0  0  0  0  0  0  0  0
   -4.0655  -18.9027   36.1065 C   0  0  0  0  0  0  0  0  0  0  0  0
   -5.4001  -18.8736   35.9659 N   0  0  0  0  0  0  0  0  0  0  0  0
   -3.3767  -17.7543   36.7040 N   0  0  0  0  0  0  0  0  0  0  0  0
   -5.8277  -28.6849   29.8113 C   0  0  0  0  0  0  0  0  0  0  0  0
   -6.7518  -29.3688   29.3750 O   0  0  0  0  0  0  0  0  0  0  0  0
   -4.4598  -29.1027   29.6546 N   0  0  0  0  0  0  0  0  0  0  0  0
  1  2  2  0  0  0  0
  1  6  1  0  0  0  0
  1  7  1  0  0  0  0
  2  3  1  0  0  0  0
  3  4  2  0  0  0  0
  4  5  1  0  0  0  0
  4 20  1  0  0  0  0
  5  6  2  0  0  0  0
  7  8  1  0  0  0  0
  8  9  1  0  0  0  0
  9 10  2  0  0  0  0
  9 13  1  0  0  0  0
 10 11  1  0  0  0  0
 11 12  1  0  0  0  0
 12 13  2  0  0  0  0
 12 18  1  0  0  0  0
 13 14  1  0  0  0  0
 14 15  1  0  0  0  0
 14 16  2  0  0  0  0
 16 17  1  0  0  0  0
 17 18  2  0  0  0  0
 17 19  1  0  0  0  0
 20 21  2  0  0  0  0
 20 22  1  0  0  0  0
M  END
>  <CHROM.1>
113.22655632,24.78890243,173.00629522,43.16334343,-5.63955741,-23.40332713
33.25400667,1.70651655,0.03421448,-2.56078455

>  <Name>
ligand

>  <RI>
0

>  <Rbt.Current_Directory>
/home/itssahil/PROJECTS/Mol_Feturizer/New_Systems/rnas/4LVY

>  <Rbt.Executable>
rbdock ($Id: //depot/dev/client3/rdock/2013.1/src/exe/rbdock.cxx#4 $)

>  <Rbt.Library>
libRbt.so (2013.1, Build901 2013/11/27)

>  <Rbt.Parameter_File>
/export/apps/rDock/src/rDock_2013.1_src/data/scripts/dock_solv.prm

>  <Rbt.Receptor>
prm/blind_docking_60.prm

>  <SCORE>
-16.4406

>  <SCORE.INTER>
-16.5708

>  <SCORE.INTER.CONST>
1

>  <SCORE.INTER.POLAR>
0

>  <SCORE.INTER.ROT>
4

>  <SCORE.INTER.SOLV>
9.31867

>  <SCORE.INTER.VDW>
-20.4201

>  <SCORE.INTER.norm>
-0.753217

>  <SCORE.INTRA>
0.130168

>  <SCORE.INTRA.DIHEDRAL>
0.208829

>  <SCORE.INTRA.DIHEDRAL.0>
6.18831

>  <SCORE.INTRA.POLAR>
0

>  <SCORE.INTRA.POLAR.0>
0

>  <SCORE.INTRA.REPUL>
0

>  <SCORE.INTRA.REPUL.0>
0

>  <SCORE.INTRA.SOLV>
0.00430792

>  <SCORE.INTRA.SOLV.lig_0>
-44.3465

>  <SCORE.INTRA.VDW>
0.0235996

>  <SCORE.INTRA.VDW.0>
-0.778272

>  <SCORE.INTRA.norm>
0.00591673

>  <SCORE.RESTR>
0

>  <SCORE.RESTR.CAVITY>
0

>  <SCORE.RESTR.norm>
0

>  <SCORE.SYSTEM>
0

>  <SCORE.SYSTEM.CONST>
0

>  <SCORE.SYSTEM.DIHEDRAL>
0

>  <SCORE.SYSTEM.SOLV>
0

>  <SCORE.SYSTEM.norm>
0

>  <SCORE.heavy>
22

>  <SCORE.norm>
-0.747301

>  <RMSD>
30.841

$$$$
ligand
 OpenBabel11021811503D
libRbt.so/2013.1/901 2013/11/27
 22 24  0  0  0  0  0  0  0  0999 V2000
   -5.5185  -25.5594   33.4603 C   0  0  0  0  0  0  0  0  0  0  0  0
   -6.1963  -26.7895   33.5948 C   0  0  0  0  0  0  0  0  0  0  0  0
   -6.3068  -27.6333   32.4929 C   0  0  0  0  0  0  0  0  0  0  0  0
   -5.7425  -27.2458   31.2650 C   0  0  0  0  0  0  0  0  0  0  0  0
   -5.0700  -26.0067   31.1262 C   0  0  0  0  0  0  0  0  0  0  0  0
   -4.9614  -25.1665   32.2259 C   0  0  0  0  0  0  0  0  0  0  0  0
   -5.4030  -24.6063   34.6654 C   0  0  0  0  0  0  0  0  0  0  0  0
   -5.5655  -23.1029   34.3285 C   0  0  0  0  0  0  0  0  0  0  0  0
   -4.5314  -22.2068   35.0000 C   0  0  0  0  0  0  0  0  0  0  0  0
   -3.1855  -22.5510   35.1577 C   0  0  0  0  0  0  0  0  0  0  0  0
   -2.5838  -21.5089   35.7886 N   0  0  0  0  0  0  0  0  0  0  0  0
   -3.4646  -20.4813   36.0612 C   0  0  0  0  0  0  0  0  0  0  0  0
   -4.7074  -20.8769   35.5791 C   0  0  0  0  0  0  0  0  0  0  0  0
   -5.8067  -19.9519   35.7472 C   0  0  0  0  0  0  0  0  0  0  0  0
   -7.0772  -20.2786   35.2811 O   0  0  0  0  0  0  0  0  0  0  0  0
   -5.5773  -18.7381   36.3812 N   0  0  0  0  0  0  0  0  0  0  0  0
   -4.3370  -18.3875   36.8300 C   0  0  0  0  0  0  0  0  0  0  0  0
   -3.2943  -19.2213   36.6913 N   0  0  0  0  0  0  0  0  0  0  0  0
   -4.1410  -17.0871   37.4790 N   0  0  0  0  0  0  0  0  0  0  0  0
   -5.8815  -28.1750   30.0884 C   0  0  0  0  0  0  0  0  0  0  0  0
   -6.9874  -28.3838   29.5930 O   0  0  0  0  0  0  0  0  0  0  0  0
   -4.7034  -28.8134   29.5645 N   0  0  0  0  0  0  0  0  0  0  0  0
  1  2  2  0  0  0  0
  1  6  1  0  0  0  0
  1  7  1  0  0  0  0
  2  3  1  0  0  0  0
  3  4  2  0  0  0  0
  4  5  1  0  0  0  0
  4 20  1  0  0  0  0
  5  6  2  0  0  0  0
  7  8  1  0  0  0  0
  8  9  1  0  0  0  0
  9 10  2  0  0  0  0
  9 13  1  0  0  0  0
 10 11  1  0  0  0  0
 11 12  1  0  0  0  0
 12 13  2  0  0  0  0
 12 18  1  0  0  0  0
 13 14  1  0  0  0  0
 14 15  1  0  0  0  0
 14 16  2  0  0  0  0
 16 17  1  0  0  0  0
 17 18  2  0  0  0  0
 17 19  1  0  0  0  0
 20 21  2  0  0  0  0
 20 22  1  0  0  0  0
M  END
>  <CHROM.1>
-140.44218976,67.18907136,-135.22438899,39.05809641,-5.07443579,-23.26616033
34.02144942,1.70776943,0.16411076,-2.58233934

>  <Name>
ligand

>  <RI>
0

>  <Rbt.Current_Directory>
/home/itssahil/PROJECTS/Mol_Feturizer/New_Systems/rnas/4LVY

>  <Rbt.Executable>
rbdock ($Id: //depot/dev/client3/rdock/2013.1/src/exe/rbdock.cxx#4 $)

>  <Rbt.Library>
libRbt.so (2013.1, Build901 2013/11/27)

>  <Rbt.Parameter_File>
/export/apps/rDock/src/rDock_2013.1_src/data/scripts/dock_solv.prm

>  <Rbt.Receptor>
prm/blind_docking_80.prm

>  <SCORE>
-13.0554

>  <SCORE.INTER>
-15.7529

>  <SCORE.INTER.CONST>
1

>  <SCORE.INTER.POLAR>
0

>  <SCORE.INTER.ROT>
4

>  <SCORE.INTER.SOLV>
7.99522

>  <SCORE.INTER.VDW>
-19.4337

>  <SCORE.INTER.norm>
-0.716041

>  <SCORE.INTRA>
2.69749

>  <SCORE.INTRA.DIHEDRAL>
5.27774

>  <SCORE.INTRA.DIHEDRAL.0>
6.18831

>  <SCORE.INTRA.POLAR>
0

>  <SCORE.INTRA.POLAR.0>
0

>  <SCORE.INTRA.REPUL>
0

>  <SCORE.INTRA.REPUL.0>
0

>  <SCORE.INTRA.SOLV>
-0.00695032

>  <SCORE.INTRA.SOLV.lig_0>
-44.3465

>  <SCORE.INTRA.VDW>
0.06209

>  <SCORE.INTRA.VDW.0>
-0.778272

>  <SCORE.INTRA.norm>
0.122613

>  <SCORE.RESTR>
0

>  <SCORE.RESTR.CAVITY>
0

>  <SCORE.RESTR.norm>
0

>  <SCORE.SYSTEM>
0

>  <SCORE.SYSTEM.CONST>
0

>  <SCORE.SYSTEM.DIHEDRAL>
0

>  <SCORE.SYSTEM.SOLV>
0

>  <SCORE.SYSTEM.norm>
0

>  <SCORE.heavy>
22

>  <SCORE.norm>
-0.593428

>  <RMSD>
30.920

$$$$
ligand
 OpenBabel11021811503D
libRbt.so/2013.1/901 2013/11/27
 22 24  0  0  0  0  0  0  0  0999 V2000
   -5.2114  -25.5158   33.3419 C   0  0  0  0  0  0  0  0  0  0  0  0
   -5.0729  -25.1036   31.9997 C   0  0  0  0  0  0  0  0  0  0  0  0
   -5.6105  -25.8898   30.9842 C   0  0  0  0  0  0  0  0  0  0  0  0
   -6.2813  -27.0808   31.3123 C   0  0  0  0  0  0  0  0  0  0  0  0
   -6.4128  -27.5006   32.6589 C   0  0  0  0  0  0  0  0  0  0  0  0
   -5.8755  -26.7158   33.6701 C   0  0  0  0  0  0  0  0  0  0  0  0
   -4.6067  -24.6663   34.4763 C   0  0  0  0  0  0  0  0  0  0  0  0
   -5.1035  -23.2001   34.5319 C   0  0  0  0  0  0  0  0  0  0  0  0
   -4.1895  -22.2704   35.3216 C   0  0  0  0  0  0  0  0  0  0  0  0
   -2.8961  -22.6098   35.7301 C   0  0  0  0  0  0  0  0  0  0  0  0
   -2.3988  -21.5353   36.3965 N   0  0  0  0  0  0  0  0  0  0  0  0
   -3.2995  -20.4905   36.4536 C   0  0  0  0  0  0  0  0  0  0  0  0
   -4.4451  -20.9087   35.7857 C   0  0  0  0  0  0  0  0  0  0  0  0
   -5.5442  -19.9716   35.7078 C   0  0  0  0  0  0  0  0  0  0  0  0
   -6.7190  -20.3200   35.0469 O   0  0  0  0  0  0  0  0  0  0  0  0
   -5.4118  -18.7241   36.3028 N   0  0  0  0  0  0  0  0  0  0  0  0
   -4.2635  -18.3527   36.9401 C   0  0  0  0  0  0  0  0  0  0  0  0
   -3.2240  -19.1969   37.0319 N   0  0  0  0  0  0  0  0  0  0  0  0
   -4.1654  -17.0178   37.5392 N   0  0  0  0  0  0  0  0  0  0  0  0
   -6.8483  -27.9145   30.1939 C   0  0  0  0  0  0  0  0  0  0  0  0
   -6.1218  -28.6828   29.5663 O   0  0  0  0  0  0  0  0  0  0  0  0
   -8.2453  -27.7892   29.8735 N   0  0  0  0  0  0  0  0  0  0  0  0
  1  2  2  0  0  0  0
  1  6  1  0  0  0  0
  1  7  1  0  0  0  0
  2  3  1  0  0  0  0
  3  4  2  0  0  0  0
  4  5  1  0  0  0  0
  4 20  1  0  0  0  0
  5  6  2  0  0  0  0
  7  8  1  0  0  0  0
  8  9  1  0  0  0  0
  9 10  2  0  0  0  0
  9 13  1  0  0  0  0
 10 11  1  0  0  0  0
 11 12  1  0  0  0  0
 12 13  2  0  0  0  0
 12 18  1  0  0  0  0
 13 14  1  0  0  0  0
 14 15  1  0  0  0  0
 14 16  2  0  0  0  0
 16 17  1  0  0  0  0
 17 18  2  0  0  0  0
 17 19  1  0  0  0  0
 20 21  2  0  0  0  0
 20 22  1  0  0  0  0
M  END
>  <CHROM.1>
57.42607181,81.63908916,-160.67130091,12.54558606,-5.10841402,-23.20910184
34.12994808,-1.83179809,-0.52872795,0.47261384

>  <Name>
ligand

>  <RI>
0

>  <Rbt.Current_Directory>
/home/itssahil/PROJECTS/Mol_Feturizer/New_Systems/rnas/4LVY

>  <Rbt.Executable>
rbdock ($Id: //depot/dev/client3/rdock/2013.1/src/exe/rbdock.cxx#4 $)

>  <Rbt.Library>
libRbt.so (2013.1, Build901 2013/11/27)

>  <Rbt.Parameter_File>
/export/apps/rDock/src/rDock_2013.1_src/data/scripts/dock_solv.prm

>  <Rbt.Receptor>
prm/blind_docking_60.prm

>  <SCORE>
-16.9098

>  <SCORE.INTER>
-17.7655

>  <SCORE.INTER.CONST>
1

>  <SCORE.INTER.POLAR>
0

>  <SCORE.INTER.ROT>
4

>  <SCORE.INTER.SOLV>
6.93626

>  <SCORE.INTER.VDW>
-20.4224

>  <SCORE.INTER.norm>
-0.807524

>  <SCORE.INTRA>
0.855738

>  <SCORE.INTRA.DIHEDRAL>
1.45856

>  <SCORE.INTRA.DIHEDRAL.0>
6.18831

>  <SCORE.INTRA.POLAR>
0

>  <SCORE.INTRA.POLAR.0>
0

>  <SCORE.INTRA.REPUL>
0

>  <SCORE.INTRA.REPUL.0>
0

>  <SCORE.INTRA.SOLV>
-0.0087581

>  <SCORE.INTRA.SOLV.lig_0>
-44.3465

>  <SCORE.INTRA.VDW>
0.130835

>  <SCORE.INTRA.VDW.0>
-0.778272

>  <SCORE.INTRA.norm>
0.0388972

>  <SCORE.RESTR>
0

>  <SCORE.RESTR.CAVITY>
0

>  <SCORE.RESTR.norm>
0

>  <SCORE.SYSTEM>
0

>  <SCORE.SYSTEM.CONST>
0

>  <SCORE.SYSTEM.DIHEDRAL>
0

>  <SCORE.SYSTEM.SOLV>
0

>  <SCORE.SYSTEM.norm>
0

>  <SCORE.heavy>
22

>  <SCORE.norm>
-0.768626

>  <RMSD>
30.978

$$$$
ligand
 OpenBabel11021811503D
libRbt.so/2013.1/901 2013/11/27
 22 24  0  0  0  0  0  0  0  0999 V2000
   -5.1566  -25.5701   33.3238 C   0  0  0  0  0  0  0  0  0  0  0  0
   -4.8826  -25.2201   31.9847 C   0  0  0  0  0  0  0  0  0  0  0  0
   -5.3812  -26.0133   30.9550 C   0  0  0  0  0  0  0  0  0  0  0  0
   -6.1483  -27.1496   31.2658 C   0  0  0  0  0  0  0  0  0  0  0  0
   -6.4163  -27.5075   32.6101 C   0  0  0  0  0  0  0  0  0  0  0  0
   -5.9175  -26.7157   33.6355 C   0  0  0  0  0  0  0  0  0  0  0  0
   -4.5971  -24.7130   34.4755 C   0  0  0  0  0  0  0  0  0  0  0  0
   -5.0857  -23.2430   34.4941 C   0  0  0  0  0  0  0  0  0  0  0  0
   -4.1765  -22.3024   35.2765 C   0  0  0  0  0  0  0  0  0  0  0  0
   -2.8706  -22.6207   35.6615 C   0  0  0  0  0  0  0  0  0  0  0  0
   -2.3827  -21.5422   36.3284 N   0  0  0  0  0  0  0  0  0  0  0  0
   -3.3016  -20.5149   36.4082 C   0  0  0  0  0  0  0  0  0  0  0  0
   -4.4499  -20.9494   35.7554 C   0  0  0  0  0  0  0  0  0  0  0  0
   -5.5674  -20.0324   35.7025 C   0  0  0  0  0  0  0  0  0  0  0  0
   -6.7459  -20.3977   35.0578 O   0  0  0  0  0  0  0  0  0  0  0  0
   -5.4486  -18.7873   36.3053 N   0  0  0  0  0  0  0  0  0  0  0  0
   -4.2973  -18.3993   36.9270 C   0  0  0  0  0  0  0  0  0  0  0  0
   -3.2409  -19.2246   36.9955 N   0  0  0  0  0  0  0  0  0  0  0  0
   -4.2143  -17.0674   37.5351 N   0  0  0  0  0  0  0  0  0  0  0  0
   -6.6707  -27.9926   30.1328 C   0  0  0  0  0  0  0  0  0  0  0  0
   -5.8986  -28.6806   29.4675 O   0  0  0  0  0  0  0  0  0  0  0  0
   -8.0798  -27.9709   29.8431 N   0  0  0  0  0  0  0  0  0  0  0  0
  1  2  2  0  0  0  0
  1  6  1  0  0  0  0
  1  7  1  0  0  0  0
  2  3  1  0  0  0  0
  3  4  2  0  0  0  0
  4  5  1  0  0  0  0
  4 20  1  0  0  0  0
  5  6  2  0  0  0  0
  7  8  1  0  0  0  0
  8  9  1  0  0  0  0
  9 10  2  0  0  0  0
  9 13  1  0  0  0  0
 10 11  1  0  0  0  0
 11 12  1  0  0  0  0
 12 13  2  0  0  0  0
 12 18  1  0  0  0  0
 13 14  1  0  0  0  0
 14 15  1  0  0  0  0
 14 16  2  0  0  0  0
 16 17  1  0  0  0  0
 17 18  2  0  0  0  0
 17 19  1  0  0  0  0
 20 21  2  0  0  0  0
 20 22  1  0  0  0  0
M  END
>  <CHROM.1>
61.50834148,70.90188804,-158.77325192,15.27911531,-5.06226598,-23.26166784
34.09710972,-1.80477647,-0.47927277,0.49786725

>  <Name>
ligand

>  <RI>
0

>  <Rbt.Current_Directory>
/home/itssahil/PROJECTS/Mol_Feturizer/New_Systems/rnas/4LVY

>  <Rbt.Executable>
rbdock ($Id: //depot/dev/client3/rdock/2013.1/src/exe/rbdock.cxx#4 $)

>  <Rbt.Library>
libRbt.so (2013.1, Build901 2013/11/27)

>  <Rbt.Parameter_File>
/export/apps/rDock/src/rDock_2013.1_src/data/scripts/dock_solv.prm

>  <Rbt.Receptor>
prm/blind_docking_60.prm

>  <SCORE>
-16.8377

>  <SCORE.INTER>
-17.7883

>  <SCORE.INTER.CONST>
1

>  <SCORE.INTER.POLAR>
0

>  <SCORE.INTER.ROT>
4

>  <SCORE.INTER.SOLV>
7.19805

>  <SCORE.INTER.VDW>
-20.5249

>  <SCORE.INTER.norm>
-0.808558

>  <SCORE.INTRA>
0.950559

>  <SCORE.INTRA.DIHEDRAL>
1.72763

>  <SCORE.INTRA.DIHEDRAL.0>
6.18831

>  <SCORE.INTRA.POLAR>
0

>  <SCORE.INTRA.POLAR.0>
0

>  <SCORE.INTRA.REPUL>
0

>  <SCORE.INTRA.REPUL.0>
0

>  <SCORE.INTRA.SOLV>
-0.00756293

>  <SCORE.INTRA.SOLV.lig_0>
-44.3465

>  <SCORE.INTRA.VDW>
0.0905248

>  <SCORE.INTRA.VDW.0>
-0.778272

>  <SCORE.INTRA.norm>
0.0432072

>  <SCORE.RESTR>
0

>  <SCORE.RESTR.CAVITY>
0

>  <SCORE.RESTR.norm>
0

>  <SCORE.SYSTEM>
0

>  <SCORE.SYSTEM.CONST>
0

>  <SCORE.SYSTEM.DIHEDRAL>
0

>  <SCORE.SYSTEM.SOLV>
0

>  <SCORE.SYSTEM.norm>
0

>  <SCORE.heavy>
22

>  <SCORE.norm>
-0.76535

>  <RMSD>
30.989

$$$$
ligand
 OpenBabel11021811503D
libRbt.so/2013.1/901 2013/11/27
 22 24  0  0  0  0  0  0  0  0999 V2000
   -5.3382  -25.5192   33.2508 C   0  0  0  0  0  0  0  0  0  0  0  0
   -5.1914  -25.1686   31.8920 C   0  0  0  0  0  0  0  0  0  0  0  0
   -5.8145  -25.9409   30.9155 C   0  0  0  0  0  0  0  0  0  0  0  0
   -6.5783  -27.0571   31.2988 C   0  0  0  0  0  0  0  0  0  0  0  0
   -6.7187  -27.4158   32.6621 C   0  0  0  0  0  0  0  0  0  0  0  0
   -6.0961  -26.6449   33.6343 C   0  0  0  0  0  0  0  0  0  0  0  0
   -4.6404  -24.6854   34.3426 C   0  0  0  0  0  0  0  0  0  0  0  0
   -5.1619  -23.2342   34.4909 C   0  0  0  0  0  0  0  0  0  0  0  0
   -4.2302  -22.3237   35.2823 C   0  0  0  0  0  0  0  0  0  0  0  0
   -2.9365  -22.6816   35.6736 C   0  0  0  0  0  0  0  0  0  0  0  0
   -2.4212  -21.6203   36.3476 N   0  0  0  0  0  0  0  0  0  0  0  0
   -3.3101  -20.5668   36.4262 C   0  0  0  0  0  0  0  0  0  0  0  0
   -4.4667  -20.9650   35.7650 C   0  0  0  0  0  0  0  0  0  0  0  0
   -5.5565  -20.0155   35.7092 C   0  0  0  0  0  0  0  0  0  0  0  0
   -6.7414  -20.3437   35.0562 O   0  0  0  0  0  0  0  0  0  0  0  0
   -5.4049  -18.7767   36.3176 N   0  0  0  0  0  0  0  0  0  0  0  0
   -4.2465  -18.4250   36.9476 C   0  0  0  0  0  0  0  0  0  0  0  0
   -3.2151  -19.2811   37.0189 N   0  0  0  0  0  0  0  0  0  0  0  0
   -4.1282  -17.0984   37.5614 N   0  0  0  0  0  0  0  0  0  0  0  0
   -7.2368  -27.8779   30.2218 C   0  0  0  0  0  0  0  0  0  0  0  0
   -8.4343  -27.7355   29.9815 O   0  0  0  0  0  0  0  0  0  0  0  0
   -6.4432  -28.8293   29.4903 N   0  0  0  0  0  0  0  0  0  0  0  0
  1  2  2  0  0  0  0
  1  6  1  0  0  0  0
  1  7  1  0  0  0  0
  2  3  1  0  0  0  0
  3  4  2  0  0  0  0
  4  5  1  0  0  0  0
  4 20  1  0  0  0  0
  5  6  2  0  0  0  0
  7  8  1  0  0  0  0
  8  9  1  0  0  0  0
  9 10  2  0  0  0  0
  9 13  1  0  0  0  0
 10 11  1  0  0  0  0
 11 12  1  0  0  0  0
 12 13  2  0  0  0  0
 12 18  1  0  0  0  0
 13 14  1  0  0  0  0
 14 15  1  0  0  0  0
 14 16  2  0  0  0  0
 16 17  1  0  0  0  0
 17 18  2  0  0  0  0
 17 19  1  0  0  0  0
 20 21  2  0  0  0  0
 20 22  1  0  0  0  0
M  END
>  <CHROM.1>
66.15973763,-100.98879025,-164.07176880,9.16203373,-5.22802468,-23.23743251
34.10749633,-1.86349963,-0.49351160,0.47062261

>  <Name>
ligand

>  <RI>
0

>  <Rbt.Current_Directory>
/home/itssahil/PROJECTS/Mol_Feturizer/New_Systems/rnas/4LVY

>  <Rbt.Executable>
rbdock ($Id: //depot/dev/client3/rdock/2013.1/src/exe/rbdock.cxx#4 $)

>  <Rbt.Library>
libRbt.so (2013.1, Build901 2013/11/27)

>  <Rbt.Parameter_File>
/export/apps/rDock/src/rDock_2013.1_src/data/scripts/dock_solv.prm

>  <Rbt.Receptor>
prm/blind_docking_80.prm

>  <SCORE>
-16.7179

>  <SCORE.INTER>
-17.3191

>  <SCORE.INTER.CONST>
1

>  <SCORE.INTER.POLAR>
0

>  <SCORE.INTER.ROT>
4

>  <SCORE.INTER.SOLV>
6.43647

>  <SCORE.INTER.VDW>
-19.9582

>  <SCORE.INTER.norm>
-0.787231

>  <SCORE.INTRA>
0.60121

>  <SCORE.INTRA.DIHEDRAL>
1.01439

>  <SCORE.INTRA.DIHEDRAL.0>
6.18831

>  <SCORE.INTRA.POLAR>
0

>  <SCORE.INTRA.POLAR.0>
0

>  <SCORE.INTRA.REPUL>
0

>  <SCORE.INTRA.REPUL.0>
0

>  <SCORE.INTRA.SOLV>
-0.00653085

>  <SCORE.INTRA.SOLV.lig_0>
-44.3465

>  <SCORE.INTRA.VDW>
0.0972795

>  <SCORE.INTRA.VDW.0>
-0.778272

>  <SCORE.INTRA.norm>
0.0273277

>  <SCORE.RESTR>
0

>  <SCORE.RESTR.CAVITY>
0

>  <SCORE.RESTR.norm>
0

>  <SCORE.SYSTEM>
0

>  <SCORE.SYSTEM.CONST>
0

>  <SCORE.SYSTEM.DIHEDRAL>
0

>  <SCORE.SYSTEM.SOLV>
0

>  <SCORE.SYSTEM.norm>
0

>  <SCORE.heavy>
22

>  <SCORE.norm>
-0.759903

>  <RMSD>
31.042

$$$$
ligand
 OpenBabel11021811503D
libRbt.so/2013.1/901 2013/11/27
 22 24  0  0  0  0  0  0  0  0999 V2000
   -5.2408  -25.7435   33.0545 C   0  0  0  0  0  0  0  0  0  0  0  0
   -4.8945  -25.4475   31.7192 C   0  0  0  0  0  0  0  0  0  0  0  0
   -5.2791  -26.3190   30.7039 C   0  0  0  0  0  0  0  0  0  0  0  0
   -6.0048  -27.4792   31.0255 C   0  0  0  0  0  0  0  0  0  0  0  0
   -6.3450  -27.7825   32.3669 C   0  0  0  0  0  0  0  0  0  0  0  0
   -5.9600  -26.9126   33.3779 C   0  0  0  0  0  0  0  0  0  0  0  0
   -4.8074  -24.7985   34.1918 C   0  0  0  0  0  0  0  0  0  0  0  0
   -5.9591  -24.2894   35.0941 C   0  0  0  0  0  0  0  0  0  0  0  0
   -6.1774  -22.7826   35.0214 C   0  0  0  0  0  0  0  0  0  0  0  0
   -7.4277  -22.1832   34.8416 C   0  0  0  0  0  0  0  0  0  0  0  0
   -7.2232  -20.8400   34.8346 N   0  0  0  0  0  0  0  0  0  0  0  0
   -5.8928  -20.5110   35.0017 C   0  0  0  0  0  0  0  0  0  0  0  0
   -5.1942  -21.7069   35.1259 C   0  0  0  0  0  0  0  0  0  0  0  0
   -3.7630  -21.6197   35.3167 C   0  0  0  0  0  0  0  0  0  0  0  0
   -3.0013  -22.7765   35.4568 O   0  0  0  0  0  0  0  0  0  0  0  0
   -3.1615  -20.3688   35.3546 N   0  0  0  0  0  0  0  0  0  0  0  0
   -3.8893  -19.2202   35.2381 C   0  0  0  0  0  0  0  0  0  0  0  0
   -5.2189  -19.2636   35.0596 N   0  0  0  0  0  0  0  0  0  0  0  0
   -3.2106  -17.9217   35.3008 N   0  0  0  0  0  0  0  0  0  0  0  0
   -6.4032  -28.4070   29.9085 C   0  0  0  0  0  0  0  0  0  0  0  0
   -7.5902  -28.5607   29.6266 O   0  0  0  0  0  0  0  0  0  0  0  0
   -5.3745  -29.1092   29.1883 N   0  0  0  0  0  0  0  0  0  0  0  0
  1  2  2  0  0  0  0
  1  6  1  0  0  0  0
  1  7  1  0  0  0  0
  2  3  1  0  0  0  0
  3  4  2  0  0  0  0
  4  5  1  0  0  0  0
  4 20  1  0  0  0  0
  5  6  2  0  0  0  0
  7  8  1  0  0  0  0
  8  9  1  0  0  0  0
  9 10  2  0  0  0  0
  9 13  1  0  0  0  0
 10 11  1  0  0  0  0
 11 12  1  0  0  0  0
 12 13  2  0  0  0  0
 12 18  1  0  0  0  0
 13 14  1  0  0  0  0
 14 15  1  0  0  0  0
 14 16  2  0  0  0  0
 16 17  1  0  0  0  0
 17 18  2  0  0  0  0
 17 19  1  0  0  0  0
 20 21  2  0  0  0  0
 20 22  1  0  0  0  0
M  END
>  <CHROM.1>
125.29590200,-114.06491537,-115.75347027,131.75028963,-5.34447176,-23.80098505
33.49697575,-1.74978573,0.04544742,0.54601203

>  <Name>
ligand

>  <RI>
0

>  <Rbt.Current_Directory>
/home/itssahil/PROJECTS/Mol_Feturizer/New_Systems/rnas/4LVY

>  <Rbt.Executable>
rbdock ($Id: //depot/dev/client3/rdock/2013.1/src/exe/rbdock.cxx#4 $)

>  <Rbt.Library>
libRbt.so (2013.1, Build901 2013/11/27)

>  <Rbt.Parameter_File>
/export/apps/rDock/src/rDock_2013.1_src/data/scripts/dock_solv.prm

>  <Rbt.Receptor>
prm/blind_docking_60.prm

>  <SCORE>
-14.0036

>  <SCORE.INTER>
-16.7463

>  <SCORE.INTER.CONST>
1

>  <SCORE.INTER.POLAR>
0

>  <SCORE.INTER.ROT>
4

>  <SCORE.INTER.SOLV>
12.0277

>  <SCORE.INTER.VDW>
-21.4401

>  <SCORE.INTER.norm>
-0.761197

>  <SCORE.INTRA>
2.74276

>  <SCORE.INTRA.DIHEDRAL>
6.02649

>  <SCORE.INTRA.DIHEDRAL.0>
6.18831

>  <SCORE.INTRA.POLAR>
0

>  <SCORE.INTRA.POLAR.0>
0

>  <SCORE.INTRA.REPUL>
0

>  <SCORE.INTRA.REPUL.0>
0

>  <SCORE.INTRA.SOLV>
0.34422

>  <SCORE.INTRA.SOLV.lig_0>
-44.3465

>  <SCORE.INTRA.VDW>
-0.44259

>  <SCORE.INTRA.VDW.0>
-0.778272

>  <SCORE.INTRA.norm>
0.124671

>  <SCORE.RESTR>
0

>  <SCORE.RESTR.CAVITY>
0

>  <SCORE.RESTR.norm>
0

>  <SCORE.SYSTEM>
0

>  <SCORE.SYSTEM.CONST>
0

>  <SCORE.SYSTEM.DIHEDRAL>
0

>  <SCORE.SYSTEM.SOLV>
0

>  <SCORE.SYSTEM.norm>
0

>  <SCORE.heavy>
22

>  <SCORE.norm>
-0.636526

>  <RMSD>
31.210

$$$$
ligand
 OpenBabel11021811503D
libRbt.so/2013.1/901 2013/11/27
 22 24  0  0  0  0  0  0  0  0999 V2000
   -5.4702  -25.7450   32.6795 C   0  0  0  0  0  0  0  0  0  0  0  0
   -5.2322  -25.6359   31.2932 C   0  0  0  0  0  0  0  0  0  0  0  0
   -5.5588  -26.7005   30.4576 C   0  0  0  0  0  0  0  0  0  0  0  0
   -6.1193  -27.8661   31.0084 C   0  0  0  0  0  0  0  0  0  0  0  0
   -6.3501  -27.9806   32.4014 C   0  0  0  0  0  0  0  0  0  0  0  0
   -6.0231  -26.9183   33.2331 C   0  0  0  0  0  0  0  0  0  0  0  0
   -5.0978  -24.5828   33.6202 C   0  0  0  0  0  0  0  0  0  0  0  0
   -6.2021  -24.1775   34.6283 C   0  0  0  0  0  0  0  0  0  0  0  0
   -6.3876  -22.6707   34.7645 C   0  0  0  0  0  0  0  0  0  0  0  0
   -7.6124  -22.0172   34.5981 C   0  0  0  0  0  0  0  0  0  0  0  0
   -7.3833  -20.6935   34.8011 N   0  0  0  0  0  0  0  0  0  0  0  0
   -6.0607  -20.4291   35.0962 C   0  0  0  0  0  0  0  0  0  0  0  0
   -5.3937  -21.6491   35.0860 C   0  0  0  0  0  0  0  0  0  0  0  0
   -3.9765  -21.6302   35.3750 C   0  0  0  0  0  0  0  0  0  0  0  0
   -3.2467  -22.8156   35.3902 O   0  0  0  0  0  0  0  0  0  0  0  0
   -3.3558  -20.4152   35.6331 N   0  0  0  0  0  0  0  0  0  0  0  0
   -4.0534  -19.2422   35.6422 C   0  0  0  0  0  0  0  0  0  0  0  0
   -5.3693  -19.2224   35.3780 N   0  0  0  0  0  0  0  0  0  0  0  0
   -3.3566  -17.9859   35.9365 N   0  0  0  0  0  0  0  0  0  0  0  0
   -6.4581  -29.0041   30.0824 C   0  0  0  0  0  0  0  0  0  0  0  0
   -5.6566  -29.9207   29.9106 O   0  0  0  0  0  0  0  0  0  0  0  0
   -7.7265  -28.9932   29.4033 N   0  0  0  0  0  0  0  0  0  0  0  0
  1  2  2  0  0  0  0
  1  6  1  0  0  0  0
  1  7  1  0  0  0  0
  2  3  1  0  0  0  0
  3  4  2  0  0  0  0
  4  5  1  0  0  0  0
  4 20  1  0  0  0  0
  5  6  2  0  0  0  0
  7  8  1  0  0  0  0
  8  9  1  0  0  0  0
  9 10  2  0  0  0  0
  9 13  1  0  0  0  0
 10 11  1  0  0  0  0
 11 12  1  0  0  0  0
 12 13  2  0  0  0  0
 12 18  1  0  0  0  0
 13 14  1  0  0  0  0
 14 15  1  0  0  0  0
 14 16  2  0  0  0  0
 16 17  1  0  0  0  0
 17 18  2  0  0  0  0
 17 19  1  0  0  0  0
 20 21  2  0  0  0  0
 20 22  1  0  0  0  0
M  END
>  <CHROM.1>
132.29279101,94.85945354,-136.36940324,125.80277465,-5.51650870,-23.91135489
33.48619680,-1.73158440,-0.13704403,0.50567438

>  <Name>
ligand

>  <RI>
0

>  <Rbt.Current_Directory>
/home/itssahil/PROJECTS/Mol_Feturizer/New_Systems/rnas/4LVY

>  <Rbt.Executable>
rbdock ($Id: //depot/dev/client3/rdock/2013.1/src/exe/rbdock.cxx#4 $)

>  <Rbt.Library>
libRbt.so (2013.1, Build901 2013/11/27)

>  <Rbt.Parameter_File>
/export/apps/rDock/src/rDock_2013.1_src/data/scripts/dock_solv.prm

>  <Rbt.Receptor>
prm/blind_docking_80.prm

>  <SCORE>
-13.724

>  <SCORE.INTER>
-15.9833

>  <SCORE.INTER.CONST>
1

>  <SCORE.INTER.POLAR>
0

>  <SCORE.INTER.ROT>
4

>  <SCORE.INTER.SOLV>
9.29283

>  <SCORE.INTER.VDW>
-20.0198

>  <SCORE.INTER.norm>
-0.726515

>  <SCORE.INTRA>
2.25931

>  <SCORE.INTRA.DIHEDRAL>
5.06235

>  <SCORE.INTRA.DIHEDRAL.0>
6.18831

>  <SCORE.INTRA.POLAR>
0

>  <SCORE.INTRA.POLAR.0>
0

>  <SCORE.INTRA.REPUL>
0

>  <SCORE.INTRA.REPUL.0>
0

>  <SCORE.INTRA.SOLV>
0.312696

>  <SCORE.INTRA.SOLV.lig_0>
-44.3465

>  <SCORE.INTRA.VDW>
-0.428211

>  <SCORE.INTRA.VDW.0>
-0.778272

>  <SCORE.INTRA.norm>
0.102696

>  <SCORE.RESTR>
0

>  <SCORE.RESTR.CAVITY>
0

>  <SCORE.RESTR.norm>
0

>  <SCORE.SYSTEM>
0

>  <SCORE.SYSTEM.CONST>
0

>  <SCORE.SYSTEM.DIHEDRAL>
0

>  <SCORE.SYSTEM.SOLV>
0

>  <SCORE.SYSTEM.norm>
0

>  <SCORE.heavy>
22

>  <SCORE.norm>
-0.623819

>  <RMSD>
31.344

$$$$
ligand
 OpenBabel11021811503D
libRbt.so/2013.1/901 2013/11/27
 22 24  0  0  0  0  0  0  0  0999 V2000
   -6.2813  -21.7128   34.4734 C   0  0  0  0  0  0  0  0  0  0  0  0
   -7.2330  -20.8299   35.0259 C   0  0  0  0  0  0  0  0  0  0  0  0
   -6.8045  -19.6405   35.6091 C   0  0  0  0  0  0  0  0  0  0  0  0
   -5.4317  -19.3393   35.6387 C   0  0  0  0  0  0  0  0  0  0  0  0
   -4.4743  -20.2293   35.0928 C   0  0  0  0  0  0  0  0  0  0  0  0
   -4.9034  -21.4151   34.5123 C   0  0  0  0  0  0  0  0  0  0  0  0
   -6.7374  -23.0415   33.8404 C   0  0  0  0  0  0  0  0  0  0  0  0
   -5.6396  -24.1300   33.7415 C   0  0  0  0  0  0  0  0  0  0  0  0
   -5.7339  -24.9864   32.4841 C   0  0  0  0  0  0  0  0  0  0  0  0
   -4.7037  -25.1131   31.5473 C   0  0  0  0  0  0  0  0  0  0  0  0
   -5.1526  -25.9546   30.5796 N   0  0  0  0  0  0  0  0  0  0  0  0
   -6.4368  -26.3983   30.8245 C   0  0  0  0  0  0  0  0  0  0  0  0
   -6.8445  -25.8139   32.0187 C   0  0  0  0  0  0  0  0  0  0  0  0
   -8.1731  -26.1349   32.4920 C   0  0  0  0  0  0  0  0  0  0  0  0
   -8.6441  -25.5924   33.6844 O   0  0  0  0  0  0  0  0  0  0  0  0
   -8.9706  -26.9872   31.7400 N   0  0  0  0  0  0  0  0  0  0  0  0
   -8.5244  -27.5460   30.5776 C   0  0  0  0  0  0  0  0  0  0  0  0
   -7.2975  -27.2700   30.1084 N   0  0  0  0  0  0  0  0  0  0  0  0
   -9.3980  -28.4534   29.8266 N   0  0  0  0  0  0  0  0  0  0  0  0
   -4.9957  -18.0487   36.2803 C   0  0  0  0  0  0  0  0  0  0  0  0
   -4.2222  -17.2961   35.6910 O   0  0  0  0  0  0  0  0  0  0  0  0
   -5.4941  -17.7206   37.5895 N   0  0  0  0  0  0  0  0  0  0  0  0
  1  2  2  0  0  0  0
  1  6  1  0  0  0  0
  1  7  1  0  0  0  0
  2  3  1  0  0  0  0
  3  4  2  0  0  0  0
  4  5  1  0  0  0  0
  4 20  1  0  0  0  0
  5  6  2  0  0  0  0
  7  8  1  0  0  0  0
  8  9  1  0  0  0  0
  9 10  2  0  0  0  0
  9 13  1  0  0  0  0
 10 11  1  0  0  0  0
 11 12  1  0  0  0  0
 12 13  2  0  0  0  0
 12 18  1  0  0  0  0
 13 14  1  0  0  0  0
 14 15  1  0  0  0  0
 14 16  2  0  0  0  0
 16 17  1  0  0  0  0
 17 18  2  0  0  0  0
 17 19  1  0  0  0  0
 20 21  2  0  0  0  0
 20 22  1  0  0  0  0
M  END
>  <CHROM.1>
-158.75000831,-130.75079512,-144.03893699,122.09591427,-6.48242166,-23.36545730
33.33183111,1.29994740,0.35572524,0.63955377

>  <Name>
ligand

>  <RI>
0

>  <Rbt.Current_Directory>
/home/itssahil/PROJECTS/Mol_Feturizer/New_Systems/rnas/4LVY

>  <Rbt.Executable>
rbdock ($Id: //depot/dev/client3/rdock/2013.1/src/exe/rbdock.cxx#4 $)

>  <Rbt.Library>
libRbt.so (2013.1, Build901 2013/11/27)

>  <Rbt.Parameter_File>
/export/apps/rDock/src/rDock_2013.1_src/data/scripts/dock_solv.prm

>  <Rbt.Receptor>
prm/blind_docking_100.prm

>  <SCORE>
-13.9089

>  <SCORE.INTER>
-16.128

>  <SCORE.INTER.CONST>
1

>  <SCORE.INTER.POLAR>
0

>  <SCORE.INTER.ROT>
4

>  <SCORE.INTER.SOLV>
7.71406

>  <SCORE.INTER.VDW>
-19.59

>  <SCORE.INTER.norm>
-0.73309

>  <SCORE.INTRA>
2.21907

>  <SCORE.INTRA.DIHEDRAL>
4.10235

>  <SCORE.INTRA.DIHEDRAL.0>
6.18831

>  <SCORE.INTRA.POLAR>
0

>  <SCORE.INTRA.POLAR.0>
0

>  <SCORE.INTRA.REPUL>
0

>  <SCORE.INTRA.REPUL.0>
0

>  <SCORE.INTRA.SOLV>
0.304536

>  <SCORE.INTRA.SOLV.lig_0>
-44.3465

>  <SCORE.INTRA.VDW>
0.0156212

>  <SCORE.INTRA.VDW.0>
-0.778272

>  <SCORE.INTRA.norm>
0.100867

>  <SCORE.RESTR>
0

>  <SCORE.RESTR.CAVITY>
0

>  <SCORE.RESTR.norm>
0

>  <SCORE.SYSTEM>
0

>  <SCORE.SYSTEM.CONST>
0

>  <SCORE.SYSTEM.DIHEDRAL>
0

>  <SCORE.SYSTEM.SOLV>
0

>  <SCORE.SYSTEM.norm>
0

>  <SCORE.heavy>
22

>  <SCORE.norm>
-0.632223

>  <RMSD>
31.503

$$$$
ligand
 OpenBabel11021811503D
libRbt.so/2013.1/901 2013/11/27
 22 24  0  0  0  0  0  0  0  0999 V2000
   -6.4245  -21.6024   34.4125 C   0  0  0  0  0  0  0  0  0  0  0  0
   -7.4180  -20.7613   34.9567 C   0  0  0  0  0  0  0  0  0  0  0  0
   -7.0392  -19.6076   35.6377 C   0  0  0  0  0  0  0  0  0  0  0  0
   -5.6741  -19.3001   35.7726 C   0  0  0  0  0  0  0  0  0  0  0  0
   -4.6752  -20.1486   35.2349 C   0  0  0  0  0  0  0  0  0  0  0  0
   -5.0549  -21.2990   34.5568 C   0  0  0  0  0  0  0  0  0  0  0  0
   -6.8264  -22.8922   33.6715 C   0  0  0  0  0  0  0  0  0  0  0  0
   -5.7541  -24.0103   33.6757 C   0  0  0  0  0  0  0  0  0  0  0  0
   -5.7963  -24.9076   32.4442 C   0  0  0  0  0  0  0  0  0  0  0  0
   -4.7353  -25.0480   31.5445 C   0  0  0  0  0  0  0  0  0  0  0  0
   -5.1412  -25.9268   30.5911 N   0  0  0  0  0  0  0  0  0  0  0  0
   -6.4259  -26.3823   30.8101 C   0  0  0  0  0  0  0  0  0  0  0  0
   -6.8795  -25.7666   31.9715 C   0  0  0  0  0  0  0  0  0  0  0  0
   -8.2176  -26.0930   32.4134 C   0  0  0  0  0  0  0  0  0  0  0  0
   -8.7338  -25.5202   33.5725 O   0  0  0  0  0  0  0  0  0  0  0  0
   -8.9785  -26.9810   31.6649 N   0  0  0  0  0  0  0  0  0  0  0  0
   -8.4878  -27.5695   30.5356 C   0  0  0  0  0  0  0  0  0  0  0  0
   -7.2508  -27.2896   30.0961 N   0  0  0  0  0  0  0  0  0  0  0  0
   -9.3240  -28.5138   29.7875 N   0  0  0  0  0  0  0  0  0  0  0  0
   -5.2925  -18.0490   36.5184 C   0  0  0  0  0  0  0  0  0  0  0  0
   -5.8728  -17.7493   37.5602 O   0  0  0  0  0  0  0  0  0  0  0  0
   -4.2475  -17.2149   35.9870 N   0  0  0  0  0  0  0  0  0  0  0  0
  1  2  2  0  0  0  0
  1  6  1  0  0  0  0
  1  7  1  0  0  0  0
  2  3  1  0  0  0  0
  3  4  2  0  0  0  0
  4  5  1  0  0  0  0
  4 20  1  0  0  0  0
  5  6  2  0  0  0  0
  7  8  1  0  0  0  0
  8  9  1  0  0  0  0
  9 10  2  0  0  0  0
  9 13  1  0  0  0  0
 10 11  1  0  0  0  0
 11 12  1  0  0  0  0
 12 13  2  0  0  0  0
 12 18  1  0  0  0  0
 13 14  1  0  0  0  0
 14 15  1  0  0  0  0
 14 16  2  0  0  0  0
 16 17  1  0  0  0  0
 17 18  2  0  0  0  0
 17 19  1  0  0  0  0
 20 21  2  0  0  0  0
 20 22  1  0  0  0  0
M  END
>  <CHROM.1>
-153.98967025,42.29706338,-149.97666587,119.23884264,-6.58891291,-23.32283833
33.34424663,1.33472447,0.32410448,0.63584404

>  <Name>
ligand

>  <RI>
0

>  <Rbt.Current_Directory>
/home/itssahil/PROJECTS/Mol_Feturizer/New_Systems/rnas/4LVY

>  <Rbt.Executable>
rbdock ($Id: //depot/dev/client3/rdock/2013.1/src/exe/rbdock.cxx#4 $)

>  <Rbt.Library>
libRbt.so (2013.1, Build901 2013/11/27)

>  <Rbt.Parameter_File>
/export/apps/rDock/src/rDock_2013.1_src/data/scripts/dock_solv.prm

>  <Rbt.Receptor>
prm/blind_docking_100.prm

>  <SCORE>
-13.9862

>  <SCORE.INTER>
-15.7004

>  <SCORE.INTER.CONST>
1

>  <SCORE.INTER.POLAR>
0

>  <SCORE.INTER.ROT>
4

>  <SCORE.INTER.SOLV>
8.43758

>  <SCORE.INTER.VDW>
-19.5461

>  <SCORE.INTER.norm>
-0.713654

>  <SCORE.INTRA>
1.71413

>  <SCORE.INTRA.DIHEDRAL>
3.14104

>  <SCORE.INTRA.DIHEDRAL.0>
6.18831

>  <SCORE.INTRA.POLAR>
0

>  <SCORE.INTRA.POLAR.0>
0

>  <SCORE.INTRA.REPUL>
0

>  <SCORE.INTRA.REPUL.0>
0

>  <SCORE.INTRA.SOLV>
0.29015

>  <SCORE.INTRA.SOLV.lig_0>
-44.3465

>  <SCORE.INTRA.VDW>
-0.00146846

>  <SCORE.INTRA.VDW.0>
-0.778272

>  <SCORE.INTRA.norm>
0.0779149

>  <SCORE.RESTR>
0

>  <SCORE.RESTR.CAVITY>
0

>  <SCORE.RESTR.norm>
0

>  <SCORE.SYSTEM>
0

>  <SCORE.SYSTEM.CONST>
0

>  <SCORE.SYSTEM.DIHEDRAL>
0

>  <SCORE.SYSTEM.SOLV>
0

>  <SCORE.SYSTEM.norm>
0

>  <SCORE.heavy>
22

>  <SCORE.norm>
-0.635739

>  <RMSD>
31.510

$$$$
ligand
 OpenBabel11021811503D
libRbt.so/2013.1/901 2013/11/27
 22 24  0  0  0  0  0  0  0  0999 V2000
   -5.0811  -22.9198   34.7829 C   0  0  0  0  0  0  0  0  0  0  0  0
   -5.8030  -21.7623   34.4231 C   0  0  0  0  0  0  0  0  0  0  0  0
   -5.1810  -20.5188   34.4949 C   0  0  0  0  0  0  0  0  0  0  0  0
   -3.8452  -20.4368   34.9250 C   0  0  0  0  0  0  0  0  0  0  0  0
   -3.1221  -21.5973   35.2956 C   0  0  0  0  0  0  0  0  0  0  0  0
   -3.7443  -22.8362   35.2241 C   0  0  0  0  0  0  0  0  0  0  0  0
   -5.7604  -24.3017   34.7263 C   0  0  0  0  0  0  0  0  0  0  0  0
   -4.9397  -25.4054   34.0135 C   0  0  0  0  0  0  0  0  0  0  0  0
   -5.3789  -25.6682   32.5777 C   0  0  0  0  0  0  0  0  0  0  0  0
   -4.5995  -25.3687   31.4562 C   0  0  0  0  0  0  0  0  0  0  0  0
   -5.3165  -25.7472   30.3659 N   0  0  0  0  0  0  0  0  0  0  0  0
   -6.5412  -26.2869   30.7048 C   0  0  0  0  0  0  0  0  0  0  0  0
   -6.6240  -26.2593   32.0926 C   0  0  0  0  0  0  0  0  0  0  0  0
   -7.8311  -26.7829   32.6934 C   0  0  0  0  0  0  0  0  0  0  0  0
   -7.9788  -26.7944   34.0776 O   0  0  0  0  0  0  0  0  0  0  0  0
   -8.8387  -27.2696   31.8713 N   0  0  0  0  0  0  0  0  0  0  0  0
   -8.7094  -27.2861   30.5128 C   0  0  0  0  0  0  0  0  0  0  0  0
   -7.6034  -26.8079   29.9213 N   0  0  0  0  0  0  0  0  0  0  0  0
   -9.7947  -27.8255   29.6872 N   0  0  0  0  0  0  0  0  0  0  0  0
   -3.1988  -19.0788   34.9982 C   0  0  0  0  0  0  0  0  0  0  0  0
   -2.2935  -18.7826   34.2206 O   0  0  0  0  0  0  0  0  0  0  0  0
   -3.6546  -18.1452   35.9935 N   0  0  0  0  0  0  0  0  0  0  0  0
  1  2  2  0  0  0  0
  1  6  1  0  0  0  0
  1  7  1  0  0  0  0
  2  3  1  0  0  0  0
  3  4  2  0  0  0  0
  4  5  1  0  0  0  0
  4 20  1  0  0  0  0
  5  6  2  0  0  0  0
  7  8  1  0  0  0  0
  8  9  1  0  0  0  0
  9 10  2  0  0  0  0
  9 13  1  0  0  0  0
 10 11  1  0  0  0  0
 11 12  1  0  0  0  0
 12 13  2  0  0  0  0
 12 18  1  0  0  0  0
 13 14  1  0  0  0  0
 14 15  1  0  0  0  0
 14 16  2  0  0  0  0
 16 17  1  0  0  0  0
 17 18  2  0  0  0  0
 17 19  1  0  0  0  0
 20 21  2  0  0  0  0
 20 22  1  0  0  0  0
M  END
>  <CHROM.1>
132.18087106,-111.70087219,-100.12716400,112.17830938,-5.74457901,-24.01369685
33.12973982,0.73659222,0.87582232,1.20649276

>  <Name>
ligand

>  <RI>
0

>  <Rbt.Current_Directory>
/home/itssahil/PROJECTS/Mol_Feturizer/New_Systems/rnas/4LVY

>  <Rbt.Executable>
rbdock ($Id: //depot/dev/client3/rdock/2013.1/src/exe/rbdock.cxx#4 $)

>  <Rbt.Library>
libRbt.so (2013.1, Build901 2013/11/27)

>  <Rbt.Parameter_File>
/export/apps/rDock/src/rDock_2013.1_src/data/scripts/dock_solv.prm

>  <Rbt.Receptor>
prm/blind_docking_80.prm

>  <SCORE>
-16.7849

>  <SCORE.INTER>
-18.5865

>  <SCORE.INTER.CONST>
1

>  <SCORE.INTER.POLAR>
0

>  <SCORE.INTER.ROT>
4

>  <SCORE.INTER.SOLV>
9.18269

>  <SCORE.INTER.VDW>
-21.7186

>  <SCORE.INTER.norm>
-0.844841

>  <SCORE.INTRA>
1.80161

>  <SCORE.INTRA.DIHEDRAL>
4.58631

>  <SCORE.INTRA.DIHEDRAL.0>
6.18831

>  <SCORE.INTRA.POLAR>
0

>  <SCORE.INTRA.POLAR.0>
0

>  <SCORE.INTRA.REPUL>
0

>  <SCORE.INTRA.REPUL.0>
0

>  <SCORE.INTRA.SOLV>
0.25315

>  <SCORE.INTRA.SOLV.lig_0>
-44.3465

>  <SCORE.INTRA.VDW>
-0.618121

>  <SCORE.INTRA.VDW.0>
-0.778272

>  <SCORE.INTRA.norm>
0.0818913

>  <SCORE.RESTR>
0

>  <SCORE.RESTR.CAVITY>
0

>  <SCORE.RESTR.norm>
0

>  <SCORE.SYSTEM>
0

>  <SCORE.SYSTEM.CONST>
0

>  <SCORE.SYSTEM.DIHEDRAL>
0

>  <SCORE.SYSTEM.SOLV>
0

>  <SCORE.SYSTEM.norm>
0

>  <SCORE.heavy>
22

>  <SCORE.norm>
-0.76295

>  <RMSD>
31.605

$$$$
ligand
 OpenBabel11021811503D
libRbt.so/2013.1/901 2013/11/27
 22 24  0  0  0  0  0  0  0  0999 V2000
   -5.9375  -22.6834   34.5309 C   0  0  0  0  0  0  0  0  0  0  0  0
   -6.6820  -21.5029   34.7379 C   0  0  0  0  0  0  0  0  0  0  0  0
   -6.0168  -20.3226   35.0584 C   0  0  0  0  0  0  0  0  0  0  0  0
   -4.6156  -20.3264   35.1713 C   0  0  0  0  0  0  0  0  0  0  0  0
   -3.8677  -21.5130   34.9729 C   0  0  0  0  0  0  0  0  0  0  0  0
   -4.5327  -22.6891   34.6541 C   0  0  0  0  0  0  0  0  0  0  0  0
   -6.6597  -24.0020   34.1931 C   0  0  0  0  0  0  0  0  0  0  0  0
   -7.1193  -24.1374   32.7199 C   0  0  0  0  0  0  0  0  0  0  0  0
   -6.2810  -25.1125   31.9013 C   0  0  0  0  0  0  0  0  0  0  0  0
   -4.9150  -24.9484   31.6519 C   0  0  0  0  0  0  0  0  0  0  0  0
   -4.5215  -26.0101   30.9010 N   0  0  0  0  0  0  0  0  0  0  0  0
   -5.5610  -26.8791   30.6355 C   0  0  0  0  0  0  0  0  0  0  0  0
   -6.6926  -26.3536   31.2493 C   0  0  0  0  0  0  0  0  0  0  0  0
   -7.9248  -27.0990   31.1137 C   0  0  0  0  0  0  0  0  0  0  0  0
   -9.0949  -26.6364   31.7092 O   0  0  0  0  0  0  0  0  0  0  0  0
   -7.9238  -28.2779   30.3801 N   0  0  0  0  0  0  0  0  0  0  0  0
   -6.7856  -28.7613   29.8026 C   0  0  0  0  0  0  0  0  0  0  0  0
   -5.6248  -28.0955   29.9078 N   0  0  0  0  0  0  0  0  0  0  0  0
   -6.8313  -30.0197   29.0511 N   0  0  0  0  0  0  0  0  0  0  0  0
   -3.9224  -19.0371   35.5242 C   0  0  0  0  0  0  0  0  0  0  0  0
   -4.3085  -18.3700   36.4823 O   0  0  0  0  0  0  0  0  0  0  0  0
   -2.8121  -18.6024   34.7191 N   0  0  0  0  0  0  0  0  0  0  0  0
  1  2  2  0  0  0  0
  1  6  1  0  0  0  0
  1  7  1  0  0  0  0
  2  3  1  0  0  0  0
  3  4  2  0  0  0  0
  4  5  1  0  0  0  0
  4 20  1  0  0  0  0
  5  6  2  0  0  0  0
  7  8  1  0  0  0  0
  8  9  1  0  0  0  0
  9 10  2  0  0  0  0
  9 13  1  0  0  0  0
 10 11  1  0  0  0  0
 11 12  1  0  0  0  0
 12 13  2  0  0  0  0
 12 18  1  0  0  0  0
 13 14  1  0  0  0  0
 14 15  1  0  0  0  0
 14 16  2  0  0  0  0
 16 17  1  0  0  0  0
 17 18  2  0  0  0  0
 17 19  1  0  0  0  0
 20 21  2  0  0  0  0
 20 22  1  0  0  0  0
M  END
>  <CHROM.1>
78.58360020,49.81362740,106.59646879,-62.07319114,-5.87476374,-24.17784008
32.75997670,1.30794175,0.26535039,0.62576082

>  <Name>
ligand

>  <RI>
0

>  <Rbt.Current_Directory>
/home/itssahil/PROJECTS/Mol_Feturizer/New_Systems/rnas/4LVY

>  <Rbt.Executable>
rbdock ($Id: //depot/dev/client3/rdock/2013.1/src/exe/rbdock.cxx#4 $)

>  <Rbt.Library>
libRbt.so (2013.1, Build901 2013/11/27)

>  <Rbt.Parameter_File>
/export/apps/rDock/src/rDock_2013.1_src/data/scripts/dock_solv.prm

>  <Rbt.Receptor>
prm/blind_docking_100.prm

>  <SCORE>
-12.9001

>  <SCORE.INTER>
-15.0208

>  <SCORE.INTER.CONST>
1

>  <SCORE.INTER.POLAR>
0

>  <SCORE.INTER.ROT>
4

>  <SCORE.INTER.SOLV>
11.8235

>  <SCORE.INTER.VDW>
-20.2217

>  <SCORE.INTER.norm>
-0.682762

>  <SCORE.INTRA>
2.12067

>  <SCORE.INTRA.DIHEDRAL>
5.4655

>  <SCORE.INTRA.DIHEDRAL.0>
6.18831

>  <SCORE.INTRA.POLAR>
0

>  <SCORE.INTRA.POLAR.0>
0

>  <SCORE.INTRA.REPUL>
0

>  <SCORE.INTRA.REPUL.0>
0

>  <SCORE.INTRA.SOLV>
0.050779

>  <SCORE.INTRA.SOLV.lig_0>
-44.3465

>  <SCORE.INTRA.VDW>
-0.637471

>  <SCORE.INTRA.VDW.0>
-0.778272

>  <SCORE.INTRA.norm>
0.096394

>  <SCORE.RESTR>
0

>  <SCORE.RESTR.CAVITY>
0

>  <SCORE.RESTR.norm>
0

>  <SCORE.SYSTEM>
0

>  <SCORE.SYSTEM.CONST>
0

>  <SCORE.SYSTEM.DIHEDRAL>
0

>  <SCORE.SYSTEM.SOLV>
0

>  <SCORE.SYSTEM.norm>
0

>  <SCORE.heavy>
22

>  <SCORE.norm>
-0.586368

>  <RMSD>
31.823

$$$$
ligand
 OpenBabel11021811503D
libRbt.so/2013.1/901 2013/11/27
 22 24  0  0  0  0  0  0  0  0999 V2000
   -5.7095  -26.7126   32.6525 C   0  0  0  0  0  0  0  0  0  0  0  0
   -6.2150  -27.9771   33.0214 C   0  0  0  0  0  0  0  0  0  0  0  0
   -6.5256  -28.9048   32.0309 C   0  0  0  0  0  0  0  0  0  0  0  0
   -6.3314  -28.5665   30.6803 C   0  0  0  0  0  0  0  0  0  0  0  0
   -5.8328  -27.2938   30.3080 C   0  0  0  0  0  0  0  0  0  0  0  0
   -5.5244  -26.3699   31.2971 C   0  0  0  0  0  0  0  0  0  0  0  0
   -5.3778  -25.6681   33.7356 C   0  0  0  0  0  0  0  0  0  0  0  0
   -5.8337  -24.2232   33.4126 C   0  0  0  0  0  0  0  0  0  0  0  0
   -5.2425  -23.1695   34.3419 C   0  0  0  0  0  0  0  0  0  0  0  0
   -3.9560  -23.2415   34.8847 C   0  0  0  0  0  0  0  0  0  0  0  0
   -3.7882  -22.1305   35.6487 N   0  0  0  0  0  0  0  0  0  0  0  0
   -4.9033  -21.3164   35.6430 C   0  0  0  0  0  0  0  0  0  0  0  0
   -5.8476  -21.9318   34.8286 C   0  0  0  0  0  0  0  0  0  0  0  0
   -7.1162  -21.2573   34.6611 C   0  0  0  0  0  0  0  0  0  0  0  0
   -8.1052  -21.8116   33.8533 O   0  0  0  0  0  0  0  0  0  0  0  0
   -7.3334  -20.0538   35.3187 N   0  0  0  0  0  0  0  0  0  0  0  0
   -6.3727  -19.4814   36.1009 C   0  0  0  0  0  0  0  0  0  0  0  0
   -5.1843  -20.0795   36.2790 N   0  0  0  0  0  0  0  0  0  0  0  0
   -6.6433  -18.2007   36.7621 N   0  0  0  0  0  0  0  0  0  0  0  0
   -6.6805  -29.5869   29.6294 C   0  0  0  0  0  0  0  0  0  0  0  0
   -5.9384  -30.5468   29.4295 O   0  0  0  0  0  0  0  0  0  0  0  0
   -7.8874  -29.4127   28.8659 N   0  0  0  0  0  0  0  0  0  0  0  0
  1  2  2  0  0  0  0
  1  6  1  0  0  0  0
  1  7  1  0  0  0  0
  2  3  1  0  0  0  0
  3  4  2  0  0  0  0
  4  5  1  0  0  0  0
  4 20  1  0  0  0  0
  5  6  2  0  0  0  0
  7  8  1  0  0  0  0
  8  9  1  0  0  0  0
  9 10  2  0  0  0  0
  9 13  1  0  0  0  0
 10 11  1  0  0  0  0
 11 12  1  0  0  0  0
 12 13  2  0  0  0  0
 12 18  1  0  0  0  0
 13 14  1  0  0  0  0
 14 15  1  0  0  0  0
 14 16  2  0  0  0  0
 16 17  1  0  0  0  0
 17 18  2  0  0  0  0
 17 19  1  0  0  0  0
 20 21  2  0  0  0  0
 20 22  1  0  0  0  0
M  END
>  <CHROM.1>
-136.96834464,-75.75467260,-167.66964283,34.60837812,-6.04341528,-24.42043196
33.33502886,-1.61533000,-0.48527631,0.53508926

>  <Name>
ligand

>  <RI>
0

>  <Rbt.Current_Directory>
/home/itssahil/PROJECTS/Mol_Feturizer/New_Systems/rnas/4LVY

>  <Rbt.Executable>
rbdock ($Id: //depot/dev/client3/rdock/2013.1/src/exe/rbdock.cxx#4 $)

>  <Rbt.Library>
libRbt.so (2013.1, Build901 2013/11/27)

>  <Rbt.Parameter_File>
/export/apps/rDock/src/rDock_2013.1_src/data/scripts/dock_solv.prm

>  <Rbt.Receptor>
prm/blind_docking_100.prm

>  <SCORE>
-15.1156

>  <SCORE.INTER>
-15.5608

>  <SCORE.INTER.CONST>
1

>  <SCORE.INTER.POLAR>
0

>  <SCORE.INTER.ROT>
4

>  <SCORE.INTER.SOLV>
13.5613

>  <SCORE.INTER.VDW>
-21.161

>  <SCORE.INTER.norm>
-0.70731

>  <SCORE.INTRA>
0.445197

>  <SCORE.INTRA.DIHEDRAL>
0.655568

>  <SCORE.INTRA.DIHEDRAL.0>
6.18831

>  <SCORE.INTRA.POLAR>
0

>  <SCORE.INTRA.POLAR.0>
0

>  <SCORE.INTRA.REPUL>
0

>  <SCORE.INTRA.REPUL.0>
0

>  <SCORE.INTRA.SOLV>
-0.00666218

>  <SCORE.INTRA.SOLV.lig_0>
-44.3465

>  <SCORE.INTRA.VDW>
0.120744

>  <SCORE.INTRA.VDW.0>
-0.778272

>  <SCORE.INTRA.norm>
0.0202362

>  <SCORE.RESTR>
0

>  <SCORE.RESTR.CAVITY>
0

>  <SCORE.RESTR.norm>
0

>  <SCORE.SYSTEM>
0

>  <SCORE.SYSTEM.CONST>
0

>  <SCORE.SYSTEM.DIHEDRAL>
0

>  <SCORE.SYSTEM.SOLV>
0

>  <SCORE.SYSTEM.norm>
0

>  <SCORE.heavy>
22

>  <SCORE.norm>
-0.687074

>  <RMSD>
31.873

$$$$
ligand
 OpenBabel11021811503D
libRbt.so/2013.1/901 2013/11/27
 22 24  0  0  0  0  0  0  0  0999 V2000
   -4.7288  -22.6995   34.6954 C   0  0  0  0  0  0  0  0  0  0  0  0
   -3.4161  -22.5052   35.1745 C   0  0  0  0  0  0  0  0  0  0  0  0
   -2.9659  -21.2127   35.4301 C   0  0  0  0  0  0  0  0  0  0  0  0
   -3.8257  -20.1233   35.2062 C   0  0  0  0  0  0  0  0  0  0  0  0
   -5.1408  -20.3164   34.7163 C   0  0  0  0  0  0  0  0  0  0  0  0
   -5.5876  -21.6057   34.4613 C   0  0  0  0  0  0  0  0  0  0  0  0
   -5.2363  -24.1220   34.3905 C   0  0  0  0  0  0  0  0  0  0  0  0
   -6.6257  -24.1888   33.7086 C   0  0  0  0  0  0  0  0  0  0  0  0
   -7.0821  -25.6056   33.3798 C   0  0  0  0  0  0  0  0  0  0  0  0
   -8.0939  -26.2794   34.0706 C   0  0  0  0  0  0  0  0  0  0  0  0
   -8.2193  -27.5020   33.4914 N   0  0  0  0  0  0  0  0  0  0  0  0
   -7.3380  -27.6791   32.4435 C   0  0  0  0  0  0  0  0  0  0  0  0
   -6.5999  -26.5056   32.3347 C   0  0  0  0  0  0  0  0  0  0  0  0
   -5.6004  -26.4477   31.2908 C   0  0  0  0  0  0  0  0  0  0  0  0
   -4.8302  -25.3009   31.1184 O   0  0  0  0  0  0  0  0  0  0  0  0
   -5.4187  -27.5510   30.4675 N   0  0  0  0  0  0  0  0  0  0  0  0
   -6.1740  -28.6794   30.6049 C   0  0  0  0  0  0  0  0  0  0  0  0
   -7.1100  -28.7680   31.5628 N   0  0  0  0  0  0  0  0  0  0  0  0
   -5.9561  -29.8129   29.7004 N   0  0  0  0  0  0  0  0  0  0  0  0
   -3.3113  -18.7361   35.4860 C   0  0  0  0  0  0  0  0  0  0  0  0
   -2.5615  -18.1817   34.6845 O   0  0  0  0  0  0  0  0  0  0  0  0
   -3.7070  -18.0811   36.7044 N   0  0  0  0  0  0  0  0  0  0  0  0
  1  2  2  0  0  0  0
  1  6  1  0  0  0  0
  1  7  1  0  0  0  0
  2  3  1  0  0  0  0
  3  4  2  0  0  0  0
  4  5  1  0  0  0  0
  4 20  1  0  0  0  0
  5  6  2  0  0  0  0
  7  8  1  0  0  0  0
  8  9  1  0  0  0  0
  9 10  2  0  0  0  0
  9 13  1  0  0  0  0
 10 11  1  0  0  0  0
 11 12  1  0  0  0  0
 12 13  2  0  0  0  0
 12 18  1  0  0  0  0
 13 14  1  0  0  0  0
 14 15  1  0  0  0  0
 14 16  2  0  0  0  0
 16 17  1  0  0  0  0
 17 18  2  0  0  0  0
 17 19  1  0  0  0  0
 20 21  2  0  0  0  0
 20 22  1  0  0  0  0
M  END
>  <CHROM.1>
-172.80107524,77.96533090,178.18925582,107.41251515,-5.41437389,-24.18475819
33.37341384,1.18281489,0.62759633,0.67388996

>  <Name>
ligand

>  <RI>
0

>  <Rbt.Current_Directory>
/home/itssahil/PROJECTS/Mol_Feturizer/New_Systems/rnas/4LVY

>  <Rbt.Executable>
rbdock ($Id: //depot/dev/client3/rdock/2013.1/src/exe/rbdock.cxx#4 $)

>  <Rbt.Library>
libRbt.so (2013.1, Build901 2013/11/27)

>  <Rbt.Parameter_File>
/export/apps/rDock/src/rDock_2013.1_src/data/scripts/dock_solv.prm

>  <Rbt.Receptor>
prm/blind_docking_80.prm

>  <SCORE>
-14.4266

>  <SCORE.INTER>
-14.7148

>  <SCORE.INTER.CONST>
1

>  <SCORE.INTER.POLAR>
0

>  <SCORE.INTER.ROT>
4

>  <SCORE.INTER.SOLV>
9.78125

>  <SCORE.INTER.VDW>
-19.3369

>  <SCORE.INTER.norm>
-0.668854

>  <SCORE.INTRA>
0.288221

>  <SCORE.INTRA.DIHEDRAL>
0.101599

>  <SCORE.INTRA.DIHEDRAL.0>
6.18831

>  <SCORE.INTRA.POLAR>
0

>  <SCORE.INTRA.POLAR.0>
0

>  <SCORE.INTRA.REPUL>
0

>  <SCORE.INTRA.REPUL.0>
0

>  <SCORE.INTRA.SOLV>
0.226893

>  <SCORE.INTRA.SOLV.lig_0>
-44.3465

>  <SCORE.INTRA.VDW>
0.123975

>  <SCORE.INTRA.VDW.0>
-0.778272

>  <SCORE.INTRA.norm>
0.013101

>  <SCORE.RESTR>
0

>  <SCORE.RESTR.CAVITY>
0

>  <SCORE.RESTR.norm>
0

>  <SCORE.SYSTEM>
0

>  <SCORE.SYSTEM.CONST>
0

>  <SCORE.SYSTEM.DIHEDRAL>
0

>  <SCORE.SYSTEM.SOLV>
0

>  <SCORE.SYSTEM.norm>
0

>  <SCORE.heavy>
22

>  <SCORE.norm>
-0.655753

>  <RMSD>
31.894

$$$$
ligand
 OpenBabel11021811503D
libRbt.so/2013.1/901 2013/11/27
 22 24  0  0  0  0  0  0  0  0999 V2000
   -4.7719  -22.7018   34.7005 C   0  0  0  0  0  0  0  0  0  0  0  0
   -5.6231  -21.5909   34.5221 C   0  0  0  0  0  0  0  0  0  0  0  0
   -5.1342  -20.3095   34.7617 C   0  0  0  0  0  0  0  0  0  0  0  0
   -3.8018  -20.1437   35.1780 C   0  0  0  0  0  0  0  0  0  0  0  0
   -2.9488  -21.2589   35.3667 C   0  0  0  0  0  0  0  0  0  0  0  0
   -3.4384  -22.5358   35.1280 C   0  0  0  0  0  0  0  0  0  0  0  0
   -5.3027  -24.1277   34.4569 C   0  0  0  0  0  0  0  0  0  0  0  0
   -6.2778  -24.2674   33.2612 C   0  0  0  0  0  0  0  0  0  0  0  0
   -6.7859  -25.6881   33.0446 C   0  0  0  0  0  0  0  0  0  0  0  0
   -7.7737  -26.2914   33.8290 C   0  0  0  0  0  0  0  0  0  0  0  0
   -7.9608  -27.5424   33.3331 N   0  0  0  0  0  0  0  0  0  0  0  0
   -7.1437  -27.8058   32.2518 C   0  0  0  0  0  0  0  0  0  0  0  0
   -6.3847  -26.6617   32.0318 C   0  0  0  0  0  0  0  0  0  0  0  0
   -5.4438  -26.6937   30.9337 C   0  0  0  0  0  0  0  0  0  0  0  0
   -4.6569  -25.5808   30.6502 O   0  0  0  0  0  0  0  0  0  0  0  0
   -5.3350  -27.8486   30.1706 N   0  0  0  0  0  0  0  0  0  0  0  0
   -6.1086  -28.9455   30.4172 C   0  0  0  0  0  0  0  0  0  0  0  0
   -6.9917  -28.9512   31.4281 N   0  0  0  0  0  0  0  0  0  0  0  0
   -5.9690  -30.1365   29.5731 N   0  0  0  0  0  0  0  0  0  0  0  0
   -3.3007  -18.7472   35.4351 C   0  0  0  0  0  0  0  0  0  0  0  0
   -2.5562  -18.1988   34.6246 O   0  0  0  0  0  0  0  0  0  0  0  0
   -3.7028  -18.0762   36.6426 N   0  0  0  0  0  0  0  0  0  0  0  0
  1  2  2  0  0  0  0
  1  6  1  0  0  0  0
  1  7  1  0  0  0  0
  2  3  1  0  0  0  0
  3  4  2  0  0  0  0
  4  5  1  0  0  0  0
  4 20  1  0  0  0  0
  5  6  2  0  0  0  0
  7  8  1  0  0  0  0
  8  9  1  0  0  0  0
  9 10  2  0  0  0  0
  9 13  1  0  0  0  0
 10 11  1  0  0  0  0
 11 12  1  0  0  0  0
 12 13  2  0  0  0  0
 12 18  1  0  0  0  0
 13 14  1  0  0  0  0
 14 15  1  0  0  0  0
 14 16  2  0  0  0  0
 16 17  1  0  0  0  0
 17 18  2  0  0  0  0
 17 19  1  0  0  0  0
 20 21  2  0  0  0  0
 20 22  1  0  0  0  0
M  END
>  <CHROM.1>
38.04763755,-104.65058230,179.99660575,76.70730254,-5.31790806,-24.28763206
33.21600850,1.20598378,0.66969513,0.68669619

>  <Name>
ligand

>  <RI>
0

>  <Rbt.Current_Directory>
/home/itssahil/PROJECTS/Mol_Feturizer/New_Systems/rnas/4LVY

>  <Rbt.Executable>
rbdock ($Id: //depot/dev/client3/rdock/2013.1/src/exe/rbdock.cxx#4 $)

>  <Rbt.Library>
libRbt.so (2013.1, Build901 2013/11/27)

>  <Rbt.Parameter_File>
/export/apps/rDock/src/rDock_2013.1_src/data/scripts/dock_solv.prm

>  <Rbt.Receptor>
prm/blind_docking_60.prm

>  <SCORE>
-15.109

>  <SCORE.INTER>
-14.9002

>  <SCORE.INTER.CONST>
1

>  <SCORE.INTER.POLAR>
0

>  <SCORE.INTER.ROT>
4

>  <SCORE.INTER.SOLV>
11.0517

>  <SCORE.INTER.VDW>
-19.884

>  <SCORE.INTER.norm>
-0.677282

>  <SCORE.INTRA>
-0.208803

>  <SCORE.INTRA.DIHEDRAL>
-0.0477156

>  <SCORE.INTRA.DIHEDRAL.0>
6.18831

>  <SCORE.INTRA.POLAR>
0

>  <SCORE.INTRA.POLAR.0>
0

>  <SCORE.INTRA.REPUL>
0

>  <SCORE.INTRA.REPUL.0>
0

>  <SCORE.INTRA.SOLV>
0.0974609

>  <SCORE.INTRA.SOLV.lig_0>
-44.3465

>  <SCORE.INTRA.VDW>
-0.233675

>  <SCORE.INTRA.VDW.0>
-0.778272

>  <SCORE.INTRA.norm>
-0.00949102

>  <SCORE.RESTR>
0

>  <SCORE.RESTR.CAVITY>
0

>  <SCORE.RESTR.norm>
0

>  <SCORE.SYSTEM>
0

>  <SCORE.SYSTEM.CONST>
0

>  <SCORE.SYSTEM.DIHEDRAL>
0

>  <SCORE.SYSTEM.SOLV>
0

>  <SCORE.SYSTEM.norm>
0

>  <SCORE.heavy>
22

>  <SCORE.norm>
-0.686773

>  <RMSD>
31.927

$$$$
ligand
 OpenBabel11021811503D
libRbt.so/2013.1/901 2013/11/27
 22 24  0  0  0  0  0  0  0  0999 V2000
   -6.2346  -26.4277   31.1152 C   0  0  0  0  0  0  0  0  0  0  0  0
   -7.4796  -27.0438   30.8684 C   0  0  0  0  0  0  0  0  0  0  0  0
   -7.5189  -28.2569   30.1862 C   0  0  0  0  0  0  0  0  0  0  0  0
   -6.3184  -28.8472   29.7541 C   0  0  0  0  0  0  0  0  0  0  0  0
   -5.0684  -28.2250   29.9930 C   0  0  0  0  0  0  0  0  0  0  0  0
   -5.0313  -27.0151   30.6727 C   0  0  0  0  0  0  0  0  0  0  0  0
   -6.1751  -25.0763   31.8530 C   0  0  0  0  0  0  0  0  0  0  0  0
   -7.2541  -24.8802   32.9471 C   0  0  0  0  0  0  0  0  0  0  0  0
   -7.3342  -23.4557   33.4837 C   0  0  0  0  0  0  0  0  0  0  0  0
   -8.4770  -22.6543   33.4017 C   0  0  0  0  0  0  0  0  0  0  0  0
   -8.1684  -21.4675   33.9868 N   0  0  0  0  0  0  0  0  0  0  0  0
   -6.8709  -21.4362   34.4576 C   0  0  0  0  0  0  0  0  0  0  0  0
   -6.3055  -22.6721   34.1636 C   0  0  0  0  0  0  0  0  0  0  0  0
   -4.9329  -22.8841   34.5681 C   0  0  0  0  0  0  0  0  0  0  0  0
   -4.3055  -24.1005   34.3135 O   0  0  0  0  0  0  0  0  0  0  0  0
   -4.2514  -21.8582   35.2092 N   0  0  0  0  0  0  0  0  0  0  0  0
   -4.8507  -20.6638   35.4863 C   0  0  0  0  0  0  0  0  0  0  0  0
   -6.1226  -20.4323   35.1252 N   0  0  0  0  0  0  0  0  0  0  0  0
   -4.0946  -19.6164   36.1803 N   0  0  0  0  0  0  0  0  0  0  0  0
   -6.3904  -30.1565   29.0141 C   0  0  0  0  0  0  0  0  0  0  0  0
   -6.3243  -30.1770   27.7864 O   0  0  0  0  0  0  0  0  0  0  0  0
   -6.5438  -31.3727   29.7673 N   0  0  0  0  0  0  0  0  0  0  0  0
  1  2  2  0  0  0  0
  1  6  1  0  0  0  0
  1  7  1  0  0  0  0
  2  3  1  0  0  0  0
  3  4  2  0  0  0  0
  4  5  1  0  0  0  0
  4 20  1  0  0  0  0
  5  6  2  0  0  0  0
  7  8  1  0  0  0  0
  8  9  1  0  0  0  0
  9 10  2  0  0  0  0
  9 13  1  0  0  0  0
 10 11  1  0  0  0  0
 11 12  1  0  0  0  0
 12 13  2  0  0  0  0
 12 18  1  0  0  0  0
 13 14  1  0  0  0  0
 14 15  1  0  0  0  0
 14 16  2  0  0  0  0
 16 17  1  0  0  0  0
 17 18  2  0  0  0  0
 17 19  1  0  0  0  0
 20 21  2  0  0  0  0
 20 22  1  0  0  0  0
M  END
>  <CHROM.1>
34.40254452,99.14704963,-169.59714060,119.62404994,-6.15532164,-24.93408599
32.48438494,-1.64439259,-0.22098637,0.58410858

>  <Name>
ligand

>  <RI>
0

>  <Rbt.Current_Directory>
/home/itssahil/PROJECTS/Mol_Feturizer/New_Systems/rnas/4LVY

>  <Rbt.Executable>
rbdock ($Id: //depot/dev/client3/rdock/2013.1/src/exe/rbdock.cxx#4 $)

>  <Rbt.Library>
libRbt.so (2013.1, Build901 2013/11/27)

>  <Rbt.Parameter_File>
/export/apps/rDock/src/rDock_2013.1_src/data/scripts/dock_solv.prm

>  <Rbt.Receptor>
prm/blind_docking_60.prm

>  <SCORE>
-18.2483

>  <SCORE.INTER>
-18.2562

>  <SCORE.INTER.CONST>
1

>  <SCORE.INTER.POLAR>
0

>  <SCORE.INTER.ROT>
4

>  <SCORE.INTER.SOLV>
10.6595

>  <SCORE.INTER.VDW>
-21.9907

>  <SCORE.INTER.norm>
-0.829828

>  <SCORE.INTRA>
0.00790246

>  <SCORE.INTRA.DIHEDRAL>
0.416737

>  <SCORE.INTRA.DIHEDRAL.0>
6.18831

>  <SCORE.INTRA.POLAR>
0

>  <SCORE.INTRA.POLAR.0>
0

>  <SCORE.INTRA.REPUL>
0

>  <SCORE.INTRA.REPUL.0>
0

>  <SCORE.INTRA.SOLV>
0.28447

>  <SCORE.INTRA.SOLV.lig_0>
-44.3465

>  <SCORE.INTRA.VDW>
-0.342701

>  <SCORE.INTRA.VDW.0>
-0.778272

>  <SCORE.INTRA.norm>
0.000359203

>  <SCORE.RESTR>
0

>  <SCORE.RESTR.CAVITY>
0

>  <SCORE.RESTR.norm>
0

>  <SCORE.SYSTEM>
0

>  <SCORE.SYSTEM.CONST>
0

>  <SCORE.SYSTEM.DIHEDRAL>
0

>  <SCORE.SYSTEM.SOLV>
0

>  <SCORE.SYSTEM.norm>
0

>  <SCORE.heavy>
22

>  <SCORE.norm>
-0.829469

>  <RMSD>
32.018

$$$$
ligand
 OpenBabel11021811503D
libRbt.so/2013.1/901 2013/11/27
 22 24  0  0  0  0  0  0  0  0999 V2000
   -6.7489  -26.8482   32.1632 C   0  0  0  0  0  0  0  0  0  0  0  0
   -6.4385  -28.0810   32.7751 C   0  0  0  0  0  0  0  0  0  0  0  0
   -6.1365  -29.1825   31.9790 C   0  0  0  0  0  0  0  0  0  0  0  0
   -6.1467  -29.0489   30.5797 C   0  0  0  0  0  0  0  0  0  0  0  0
   -6.4674  -27.8141   29.9638 C   0  0  0  0  0  0  0  0  0  0  0  0
   -6.7689  -26.7170   30.7592 C   0  0  0  0  0  0  0  0  0  0  0  0
   -7.1028  -25.6241   33.0295 C   0  0  0  0  0  0  0  0  0  0  0  0
   -6.2756  -24.3491   32.7296 C   0  0  0  0  0  0  0  0  0  0  0  0
   -6.8113  -23.0943   33.4093 C   0  0  0  0  0  0  0  0  0  0  0  0
   -8.1274  -22.6399   33.2826 C   0  0  0  0  0  0  0  0  0  0  0  0
   -8.2274  -21.5094   34.0296 N   0  0  0  0  0  0  0  0  0  0  0  0
   -7.0384  -21.1848   34.6517 C   0  0  0  0  0  0  0  0  0  0  0  0
   -6.1149  -22.1595   34.2903 C   0  0  0  0  0  0  0  0  0  0  0  0
   -4.7781  -22.0357   34.8286 C   0  0  0  0  0  0  0  0  0  0  0  0
   -3.8045  -22.9803   34.5156 O   0  0  0  0  0  0  0  0  0  0  0  0
   -4.4802  -20.9621   35.6572 N   0  0  0  0  0  0  0  0  0  0  0  0
   -5.4224  -20.0338   35.9934 C   0  0  0  0  0  0  0  0  0  0  0  0
   -6.6726  -20.1172   35.5120 N   0  0  0  0  0  0  0  0  0  0  0  0
   -5.0640  -18.9264   36.8854 N   0  0  0  0  0  0  0  0  0  0  0  0
   -5.8215  -30.2576   29.7427 C   0  0  0  0  0  0  0  0  0  0  0  0
   -4.9330  -30.2012   28.8945 O   0  0  0  0  0  0  0  0  0  0  0  0
   -6.5708  -31.4682   29.9502 N   0  0  0  0  0  0  0  0  0  0  0  0
  1  2  2  0  0  0  0
  1  6  1  0  0  0  0
  1  7  1  0  0  0  0
  2  3  1  0  0  0  0
  3  4  2  0  0  0  0
  4  5  1  0  0  0  0
  4 20  1  0  0  0  0
  5  6  2  0  0  0  0
  7  8  1  0  0  0  0
  8  9  1  0  0  0  0
  9 10  2  0  0  0  0
  9 13  1  0  0  0  0
 10 11  1  0  0  0  0
 11 12  1  0  0  0  0
 12 13  2  0  0  0  0
 12 18  1  0  0  0  0
 13 14  1  0  0  0  0
 14 15  1  0  0  0  0
 14 16  2  0  0  0  0
 16 17  1  0  0  0  0
 17 18  2  0  0  0  0
 17 19  1  0  0  0  0
 20 21  2  0  0  0  0
 20 22  1  0  0  0  0
M  END
>  <CHROM.1>
127.17568151,-125.98306065,169.31405329,-54.32527838,-6.13713815,-24.76041039
32.99541493,1.59619714,0.26914264,-2.62753133

>  <Name>
ligand

>  <RI>
0

>  <Rbt.Current_Directory>
/home/itssahil/PROJECTS/Mol_Feturizer/New_Systems/rnas/4LVY

>  <Rbt.Executable>
rbdock ($Id: //depot/dev/client3/rdock/2013.1/src/exe/rbdock.cxx#4 $)

>  <Rbt.Library>
libRbt.so (2013.1, Build901 2013/11/27)

>  <Rbt.Parameter_File>
/export/apps/rDock/src/rDock_2013.1_src/data/scripts/dock_solv.prm

>  <Rbt.Receptor>
prm/blind_docking_80.prm

>  <SCORE>
-18.093

>  <SCORE.INTER>
-18.1536

>  <SCORE.INTER.CONST>
1

>  <SCORE.INTER.POLAR>
0

>  <SCORE.INTER.ROT>
4

>  <SCORE.INTER.SOLV>
9.80307

>  <SCORE.INTER.VDW>
-21.6368

>  <SCORE.INTER.norm>
-0.825164

>  <SCORE.INTRA>
0.0606171

>  <SCORE.INTRA.DIHEDRAL>
0.47991

>  <SCORE.INTRA.DIHEDRAL.0>
6.18831

>  <SCORE.INTRA.POLAR>
0

>  <SCORE.INTRA.POLAR.0>
0

>  <SCORE.INTRA.REPUL>
0

>  <SCORE.INTRA.REPUL.0>
0

>  <SCORE.INTRA.SOLV>
0.0281

>  <SCORE.INTRA.SOLV.lig_0>
-44.3465

>  <SCORE.INTRA.VDW>
-0.193388

>  <SCORE.INTRA.VDW.0>
-0.778272

>  <SCORE.INTRA.norm>
0.00275532

>  <SCORE.RESTR>
0

>  <SCORE.RESTR.CAVITY>
0

>  <SCORE.RESTR.norm>
0

>  <SCORE.SYSTEM>
0

>  <SCORE.SYSTEM.CONST>
0

>  <SCORE.SYSTEM.DIHEDRAL>
0

>  <SCORE.SYSTEM.SOLV>
0

>  <SCORE.SYSTEM.norm>
0

>  <SCORE.heavy>
22

>  <SCORE.norm>
-0.822409

>  <RMSD>
32.029

$$$$
ligand
 OpenBabel11021811503D
libRbt.so/2013.1/901 2013/11/27
 22 24  0  0  0  0  0  0  0  0999 V2000
   -6.7919  -26.9084   32.0555 C   0  0  0  0  0  0  0  0  0  0  0  0
   -6.7793  -26.7920   30.6494 C   0  0  0  0  0  0  0  0  0  0  0  0
   -6.4466  -27.8999   29.8747 C   0  0  0  0  0  0  0  0  0  0  0  0
   -6.1282  -29.1152   30.5054 C   0  0  0  0  0  0  0  0  0  0  0  0
   -6.1312  -29.2309   31.9173 C   0  0  0  0  0  0  0  0  0  0  0  0
   -6.4625  -28.1249   32.6881 C   0  0  0  0  0  0  0  0  0  0  0  0
   -7.1404  -25.6871   32.9278 C   0  0  0  0  0  0  0  0  0  0  0  0
   -6.2357  -24.4484   32.7106 C   0  0  0  0  0  0  0  0  0  0  0  0
   -6.7733  -23.1741   33.3514 C   0  0  0  0  0  0  0  0  0  0  0  0
   -8.0655  -22.6820   33.1445 C   0  0  0  0  0  0  0  0  0  0  0  0
   -8.1759  -21.5443   33.8791 N   0  0  0  0  0  0  0  0  0  0  0  0
   -7.0168  -21.2509   34.5694 C   0  0  0  0  0  0  0  0  0  0  0  0
   -6.1030  -22.2546   34.2680 C   0  0  0  0  0  0  0  0  0  0  0  0
   -4.7973  -22.1668   34.8843 C   0  0  0  0  0  0  0  0  0  0  0  0
   -3.8353  -23.1415   34.6341 O   0  0  0  0  0  0  0  0  0  0  0  0
   -4.5173  -21.0972   35.7242 N   0  0  0  0  0  0  0  0  0  0  0  0
   -5.4498  -20.1394   35.9995 C   0  0  0  0  0  0  0  0  0  0  0  0
   -6.6712  -20.1891   35.4449 N   0  0  0  0  0  0  0  0  0  0  0  0
   -5.1122  -19.0374   36.9062 N   0  0  0  0  0  0  0  0  0  0  0  0
   -5.7670  -30.2959   29.6435 C   0  0  0  0  0  0  0  0  0  0  0  0
   -4.8548  -30.2065   28.8238 O   0  0  0  0  0  0  0  0  0  0  0  0
   -6.5101  -31.5187   29.7934 N   0  0  0  0  0  0  0  0  0  0  0  0
  1  2  2  0  0  0  0
  1  6  1  0  0  0  0
  1  7  1  0  0  0  0
  2  3  1  0  0  0  0
  3  4  2  0  0  0  0
  4  5  1  0  0  0  0
  4 20  1  0  0  0  0
  5  6  2  0  0  0  0
  7  8  1  0  0  0  0
  8  9  1  0  0  0  0
  9 10  2  0  0  0  0
  9 13  1  0  0  0  0
 10 11  1  0  0  0  0
 11 12  1  0  0  0  0
 12 13  2  0  0  0  0
 12 18  1  0  0  0  0
 13 14  1  0  0  0  0
 14 15  1  0  0  0  0
 14 16  2  0  0  0  0
 16 17  1  0  0  0  0
 17 18  2  0  0  0  0
 17 19  1  0  0  0  0
 20 21  2  0  0  0  0
 20 22  1  0  0  0  0
M  END
>  <CHROM.1>
-57.42478615,55.32245256,167.60132293,-52.45154205,-6.12845233,-24.83677287
32.94172286,1.59281729,0.33672663,-2.61769359

>  <Name>
ligand

>  <RI>
0

>  <Rbt.Current_Directory>
/home/itssahil/PROJECTS/Mol_Feturizer/New_Systems/rnas/4LVY

>  <Rbt.Executable>
rbdock ($Id: //depot/dev/client3/rdock/2013.1/src/exe/rbdock.cxx#4 $)

>  <Rbt.Library>
libRbt.so (2013.1, Build901 2013/11/27)

>  <Rbt.Parameter_File>
/export/apps/rDock/src/rDock_2013.1_src/data/scripts/dock_solv.prm

>  <Rbt.Receptor>
prm/blind_docking_60.prm

>  <SCORE>
-18.3111

>  <SCORE.INTER>
-18.4179

>  <SCORE.INTER.CONST>
1

>  <SCORE.INTER.POLAR>
0

>  <SCORE.INTER.ROT>
4

>  <SCORE.INTER.SOLV>
9.82501

>  <SCORE.INTER.VDW>
-21.8203

>  <SCORE.INTER.norm>
-0.837176

>  <SCORE.INTRA>
0.106796

>  <SCORE.INTRA.DIHEDRAL>
0.657302

>  <SCORE.INTRA.DIHEDRAL.0>
6.18831

>  <SCORE.INTRA.POLAR>
0

>  <SCORE.INTRA.POLAR.0>
0

>  <SCORE.INTRA.REPUL>
0

>  <SCORE.INTRA.REPUL.0>
0

>  <SCORE.INTRA.SOLV>
0.0192326

>  <SCORE.INTRA.SOLV.lig_0>
-44.3465

>  <SCORE.INTRA.VDW>
-0.231471

>  <SCORE.INTRA.VDW.0>
-0.778272

>  <SCORE.INTRA.norm>
0.00485437

>  <SCORE.RESTR>
0

>  <SCORE.RESTR.CAVITY>
0

>  <SCORE.RESTR.norm>
0

>  <SCORE.SYSTEM>
0

>  <SCORE.SYSTEM.CONST>
0

>  <SCORE.SYSTEM.DIHEDRAL>
0

>  <SCORE.SYSTEM.SOLV>
0

>  <SCORE.SYSTEM.norm>
0

>  <SCORE.heavy>
22

>  <SCORE.norm>
-0.832322

>  <RMSD>
32.070

$$$$
ligand
 OpenBabel11021811503D
libRbt.so/2013.1/901 2013/11/27
 22 24  0  0  0  0  0  0  0  0999 V2000
   -6.3431  -27.1081   32.4420 C   0  0  0  0  0  0  0  0  0  0  0  0
   -6.2971  -26.7426   31.0800 C   0  0  0  0  0  0  0  0  0  0  0  0
   -6.2080  -27.7357   30.1083 C   0  0  0  0  0  0  0  0  0  0  0  0
   -6.1645  -29.0852   30.4997 C   0  0  0  0  0  0  0  0  0  0  0  0
   -6.2010  -29.4531   31.8673 C   0  0  0  0  0  0  0  0  0  0  0  0
   -6.2891  -28.4614   32.8347 C   0  0  0  0  0  0  0  0  0  0  0  0
   -6.4237  -26.0205   33.5305 C   0  0  0  0  0  0  0  0  0  0  0  0
   -5.4720  -24.8158   33.3233 C   0  0  0  0  0  0  0  0  0  0  0  0
   -6.1047  -23.4685   33.6523 C   0  0  0  0  0  0  0  0  0  0  0  0
   -7.3522  -23.0552   33.1752 C   0  0  0  0  0  0  0  0  0  0  0  0
   -7.5764  -21.8147   33.6821 N   0  0  0  0  0  0  0  0  0  0  0  0
   -6.5363  -21.3771   34.4776 C   0  0  0  0  0  0  0  0  0  0  0  0
   -5.5840  -22.3903   34.4896 C   0  0  0  0  0  0  0  0  0  0  0  0
   -4.3872  -22.1634   35.2696 C   0  0  0  0  0  0  0  0  0  0  0  0
   -3.3952  -23.1381   35.3338 O   0  0  0  0  0  0  0  0  0  0  0  0
   -4.2413  -20.9612   35.9488 N   0  0  0  0  0  0  0  0  0  0  0  0
   -5.2078  -19.9982   35.9163 C   0  0  0  0  0  0  0  0  0  0  0  0
   -6.3308  -20.1747   35.2026 N   0  0  0  0  0  0  0  0  0  0  0  0
   -5.0151  -18.7513   36.6636 N   0  0  0  0  0  0  0  0  0  0  0  0
   -6.0627  -30.1383   29.4284 C   0  0  0  0  0  0  0  0  0  0  0  0
   -7.0502  -30.8026   29.1190 O   0  0  0  0  0  0  0  0  0  0  0  0
   -4.7944  -30.3537   28.7842 N   0  0  0  0  0  0  0  0  0  0  0  0
  1  2  2  0  0  0  0
  1  6  1  0  0  0  0
  1  7  1  0  0  0  0
  2  3  1  0  0  0  0
  3  4  2  0  0  0  0
  4  5  1  0  0  0  0
  4 20  1  0  0  0  0
  5  6  2  0  0  0  0
  7  8  1  0  0  0  0
  8  9  1  0  0  0  0
  9 10  2  0  0  0  0
  9 13  1  0  0  0  0
 10 11  1  0  0  0  0
 11 12  1  0  0  0  0
 12 13  2  0  0  0  0
 12 18  1  0  0  0  0
 13 14  1  0  0  0  0
 14 15  1  0  0  0  0
 14 16  2  0  0  0  0
 16 17  1  0  0  0  0
 17 18  2  0  0  0  0
 17 19  1  0  0  0  0
 20 21  2  0  0  0  0
 20 22  1  0  0  0  0
M  END
>  <CHROM.1>
-44.24503772,-104.05885197,139.17414891,-49.04001201,-5.83902921,-24.88701873
33.05606415,-1.65744202,-0.48734283,0.50436978

>  <Name>
ligand

>  <RI>
0

>  <Rbt.Current_Directory>
/home/itssahil/PROJECTS/Mol_Feturizer/New_Systems/rnas/4LVY

>  <Rbt.Executable>
rbdock ($Id: //depot/dev/client3/rdock/2013.1/src/exe/rbdock.cxx#4 $)

>  <Rbt.Library>
libRbt.so (2013.1, Build901 2013/11/27)

>  <Rbt.Parameter_File>
/export/apps/rDock/src/rDock_2013.1_src/data/scripts/dock_solv.prm

>  <Rbt.Receptor>
prm/blind_docking_100.prm

>  <SCORE>
-16.2893

>  <SCORE.INTER>
-18.4969

>  <SCORE.INTER.CONST>
1

>  <SCORE.INTER.POLAR>
0

>  <SCORE.INTER.ROT>
4

>  <SCORE.INTER.SOLV>
8.97659

>  <SCORE.INTER.VDW>
-21.5901

>  <SCORE.INTER.norm>
-0.840766

>  <SCORE.INTRA>
2.2075

>  <SCORE.INTRA.DIHEDRAL>
4.77392

>  <SCORE.INTRA.DIHEDRAL.0>
6.18831

>  <SCORE.INTRA.POLAR>
0

>  <SCORE.INTRA.POLAR.0>
0

>  <SCORE.INTRA.REPUL>
0

>  <SCORE.INTRA.REPUL.0>
0

>  <SCORE.INTRA.SOLV>
0.0077903

>  <SCORE.INTRA.SOLV.lig_0>
-44.3465

>  <SCORE.INTRA.VDW>
-0.183353

>  <SCORE.INTRA.VDW.0>
-0.778272

>  <SCORE.INTRA.norm>
0.100341

>  <SCORE.RESTR>
0

>  <SCORE.RESTR.CAVITY>
0

>  <SCORE.RESTR.norm>
0

>  <SCORE.SYSTEM>
0

>  <SCORE.SYSTEM.CONST>
0

>  <SCORE.SYSTEM.DIHEDRAL>
0

>  <SCORE.SYSTEM.SOLV>
0

>  <SCORE.SYSTEM.norm>
0

>  <SCORE.heavy>
22

>  <SCORE.norm>
-0.740425

>  <RMSD>
32.082

$$$$
ligand
 OpenBabel11021811503D
libRbt.so/2013.1/901 2013/11/27
 22 24  0  0  0  0  0  0  0  0999 V2000
   -6.8442  -26.9435   32.0422 C   0  0  0  0  0  0  0  0  0  0  0  0
   -6.5026  -28.1554   32.6790 C   0  0  0  0  0  0  0  0  0  0  0  0
   -6.1789  -29.2667   31.9052 C   0  0  0  0  0  0  0  0  0  0  0  0
   -6.1986  -29.1636   30.5034 C   0  0  0  0  0  0  0  0  0  0  0  0
   -6.5505  -27.9501   29.8627 C   0  0  0  0  0  0  0  0  0  0  0  0
   -6.8736  -26.8433   30.6359 C   0  0  0  0  0  0  0  0  0  0  0  0
   -7.2223  -25.7095   32.8838 C   0  0  0  0  0  0  0  0  0  0  0  0
   -6.2565  -24.5056   32.7502 C   0  0  0  0  0  0  0  0  0  0  0  0
   -6.7827  -23.2219   33.3817 C   0  0  0  0  0  0  0  0  0  0  0  0
   -8.0777  -22.7314   33.1888 C   0  0  0  0  0  0  0  0  0  0  0  0
   -8.1754  -21.5835   33.9091 N   0  0  0  0  0  0  0  0  0  0  0  0
   -7.0051  -21.2817   34.5765 C   0  0  0  0  0  0  0  0  0  0  0  0
   -6.0969  -22.2904   34.2745 C   0  0  0  0  0  0  0  0  0  0  0  0
   -4.7815  -22.1954   34.8684 C   0  0  0  0  0  0  0  0  0  0  0  0
   -3.8245  -23.1745   34.6164 O   0  0  0  0  0  0  0  0  0  0  0  0
   -4.4872  -21.1145   35.6888 N   0  0  0  0  0  0  0  0  0  0  0  0
   -5.4143  -20.1520   35.9656 C   0  0  0  0  0  0  0  0  0  0  0  0
   -6.6445  -20.2081   35.4315 N   0  0  0  0  0  0  0  0  0  0  0  0
   -5.0613  -19.0378   36.8513 N   0  0  0  0  0  0  0  0  0  0  0  0
   -5.8494  -30.3824   29.6911 C   0  0  0  0  0  0  0  0  0  0  0  0
   -6.4503  -31.4396   29.8735 O   0  0  0  0  0  0  0  0  0  0  0  0
   -4.8019  -30.2864   28.7095 N   0  0  0  0  0  0  0  0  0  0  0  0
  1  2  2  0  0  0  0
  1  6  1  0  0  0  0
  1  7  1  0  0  0  0
  2  3  1  0  0  0  0
  3  4  2  0  0  0  0
  4  5  1  0  0  0  0
  4 20  1  0  0  0  0
  5  6  2  0  0  0  0
  7  8  1  0  0  0  0
  8  9  1  0  0  0  0
  9 10  2  0  0  0  0
  9 13  1  0  0  0  0
 10 11  1  0  0  0  0
 11 12  1  0  0  0  0
 12 13  2  0  0  0  0
 12 18  1  0  0  0  0
 13 14  1  0  0  0  0
 14 15  1  0  0  0  0
 14 16  2  0  0  0  0
 16 17  1  0  0  0  0
 17 18  2  0  0  0  0
 17 19  1  0  0  0  0
 20 21  2  0  0  0  0
 20 22  1  0  0  0  0
M  END
>  <CHROM.1>
116.00361852,54.36620725,169.34265408,-46.98189981,-6.15177450,-24.87760661
32.94357170,1.60184426,0.31897240,-2.62507054

>  <Name>
ligand

>  <RI>
0

>  <Rbt.Current_Directory>
/home/itssahil/PROJECTS/Mol_Feturizer/New_Systems/rnas/4LVY

>  <Rbt.Executable>
rbdock ($Id: //depot/dev/client3/rdock/2013.1/src/exe/rbdock.cxx#4 $)

>  <Rbt.Library>
libRbt.so (2013.1, Build901 2013/11/27)

>  <Rbt.Parameter_File>
/export/apps/rDock/src/rDock_2013.1_src/data/scripts/dock_solv.prm

>  <Rbt.Receptor>
prm/blind_docking_80.prm

>  <SCORE>
-18.816

>  <SCORE.INTER>
-18.8655

>  <SCORE.INTER.CONST>
1

>  <SCORE.INTER.POLAR>
0

>  <SCORE.INTER.ROT>
4

>  <SCORE.INTER.SOLV>
8.91233

>  <SCORE.INTER.VDW>
-21.8144

>  <SCORE.INTER.norm>
-0.857522

>  <SCORE.INTRA>
0.0494374

>  <SCORE.INTRA.DIHEDRAL>
0.514574

>  <SCORE.INTRA.DIHEDRAL.0>
6.18831

>  <SCORE.INTRA.POLAR>
0

>  <SCORE.INTRA.POLAR.0>
0

>  <SCORE.INTRA.REPUL>
0

>  <SCORE.INTRA.REPUL.0>
0

>  <SCORE.INTRA.SOLV>
0.00450662

>  <SCORE.INTRA.SOLV.lig_0>
-44.3465

>  <SCORE.INTRA.VDW>
-0.210103

>  <SCORE.INTRA.VDW.0>
-0.778272

>  <SCORE.INTRA.norm>
0.00224716

>  <SCORE.RESTR>
0

>  <SCORE.RESTR.CAVITY>
0

>  <SCORE.RESTR.norm>
0

>  <SCORE.SYSTEM>
0

>  <SCORE.SYSTEM.CONST>
0

>  <SCORE.SYSTEM.DIHEDRAL>
0

>  <SCORE.SYSTEM.SOLV>
0

>  <SCORE.SYSTEM.norm>
0

>  <SCORE.heavy>
22

>  <SCORE.norm>
-0.855275

>  <RMSD>
32.099

$$$$
ligand
 OpenBabel11021811503D
libRbt.so/2013.1/901 2013/11/27
 22 24  0  0  0  0  0  0  0  0999 V2000
   -5.3288  -22.8438   34.4718 C   0  0  0  0  0  0  0  0  0  0  0  0
   -5.8552  -21.5943   34.8620 C   0  0  0  0  0  0  0  0  0  0  0  0
   -5.0979  -20.7581   35.6778 C   0  0  0  0  0  0  0  0  0  0  0  0
   -3.8226  -21.1723   36.0998 C   0  0  0  0  0  0  0  0  0  0  0  0
   -3.2967  -22.4306   35.7165 C   0  0  0  0  0  0  0  0  0  0  0  0
   -4.0536  -23.2633   34.9036 C   0  0  0  0  0  0  0  0  0  0  0  0
   -6.1613  -23.7886   33.5839 C   0  0  0  0  0  0  0  0  0  0  0  0
   -5.3918  -25.0143   33.0313 C   0  0  0  0  0  0  0  0  0  0  0  0
   -6.1184  -25.7400   31.9048 C   0  0  0  0  0  0  0  0  0  0  0  0
   -5.5493  -26.0110   30.6568 C   0  0  0  0  0  0  0  0  0  0  0  0
   -6.4897  -26.6691   29.9297 N   0  0  0  0  0  0  0  0  0  0  0  0
   -7.6635  -26.8521   30.6331 C   0  0  0  0  0  0  0  0  0  0  0  0
   -7.4748  -26.2827   31.8876 C   0  0  0  0  0  0  0  0  0  0  0  0
   -8.5797  -26.3531   32.8185 C   0  0  0  0  0  0  0  0  0  0  0  0
   -8.4582  -25.8113   34.0951 O   0  0  0  0  0  0  0  0  0  0  0  0
   -9.7609  -26.9646   32.4201 N   0  0  0  0  0  0  0  0  0  0  0  0
   -9.8976  -27.5193   31.1806 C   0  0  0  0  0  0  0  0  0  0  0  0
   -8.8934  -27.4720   30.2913 N   0  0  0  0  0  0  0  0  0  0  0  0
  -11.1596  -28.1688   30.8116 N   0  0  0  0  0  0  0  0  0  0  0  0
   -3.0274  -20.2505   36.9860 C   0  0  0  0  0  0  0  0  0  0  0  0
   -3.0476  -19.0365   36.7914 O   0  0  0  0  0  0  0  0  0  0  0  0
   -2.2445  -20.8161   38.0523 N   0  0  0  0  0  0  0  0  0  0  0  0
  1  2  2  0  0  0  0
  1  6  1  0  0  0  0
  1  7  1  0  0  0  0
  2  3  1  0  0  0  0
  3  4  2  0  0  0  0
  4  5  1  0  0  0  0
  4 20  1  0  0  0  0
  5  6  2  0  0  0  0
  7  8  1  0  0  0  0
  8  9  1  0  0  0  0
  9 10  2  0  0  0  0
  9 13  1  0  0  0  0
 10 11  1  0  0  0  0
 11 12  1  0  0  0  0
 12 13  2  0  0  0  0
 12 18  1  0  0  0  0
 13 14  1  0  0  0  0
 14 15  1  0  0  0  0
 14 16  2  0  0  0  0
 16 17  1  0  0  0  0
 17 18  2  0  0  0  0
 17 19  1  0  0  0  0
 20 21  2  0  0  0  0
 20 22  1  0  0  0  0
M  END
>  <CHROM.1>
170.22938534,-38.86081308,-166.04793112,126.22680441,-6.27502170,-24.31795971
33.50149267,0.96157174,0.32036503,0.90907880

>  <Name>
ligand

>  <RI>
0

>  <Rbt.Current_Directory>
/home/itssahil/PROJECTS/Mol_Feturizer/New_Systems/rnas/4LVY

>  <Rbt.Executable>
rbdock ($Id: //depot/dev/client3/rdock/2013.1/src/exe/rbdock.cxx#4 $)

>  <Rbt.Library>
libRbt.so (2013.1, Build901 2013/11/27)

>  <Rbt.Parameter_File>
/export/apps/rDock/src/rDock_2013.1_src/data/scripts/dock_solv.prm

>  <Rbt.Receptor>
prm/blind_docking_100.prm

>  <SCORE>
-14.954

>  <SCORE.INTER>
-15.7901

>  <SCORE.INTER.CONST>
1

>  <SCORE.INTER.POLAR>
0

>  <SCORE.INTER.ROT>
4

>  <SCORE.INTER.SOLV>
7.27511

>  <SCORE.INTER.VDW>
-19.2184

>  <SCORE.INTER.norm>
-0.71773

>  <SCORE.INTRA>
0.836037

>  <SCORE.INTRA.DIHEDRAL>
0.781978

>  <SCORE.INTRA.DIHEDRAL.0>
6.18831

>  <SCORE.INTRA.POLAR>
0

>  <SCORE.INTRA.POLAR.0>
0

>  <SCORE.INTRA.REPUL>
0

>  <SCORE.INTRA.REPUL.0>
0

>  <SCORE.INTRA.SOLV>
0.324735

>  <SCORE.INTRA.SOLV.lig_0>
-44.3465

>  <SCORE.INTRA.VDW>
0.282681

>  <SCORE.INTRA.VDW.0>
-0.778272

>  <SCORE.INTRA.norm>
0.0380017

>  <SCORE.RESTR>
0

>  <SCORE.RESTR.CAVITY>
0

>  <SCORE.RESTR.norm>
0

>  <SCORE.SYSTEM>
0

>  <SCORE.SYSTEM.CONST>
0

>  <SCORE.SYSTEM.DIHEDRAL>
0

>  <SCORE.SYSTEM.SOLV>
0

>  <SCORE.SYSTEM.norm>
0

>  <SCORE.heavy>
22

>  <SCORE.norm>
-0.679728

>  <RMSD>
32.126

$$$$
ligand
 OpenBabel11021811503D
libRbt.so/2013.1/901 2013/11/27
 22 24  0  0  0  0  0  0  0  0999 V2000
   -4.4117  -22.6504   34.8600 C   0  0  0  0  0  0  0  0  0  0  0  0
   -5.1775  -21.4692   34.7662 C   0  0  0  0  0  0  0  0  0  0  0  0
   -4.7426  -20.3188   35.4188 C   0  0  0  0  0  0  0  0  0  0  0  0
   -3.5490  -20.3533   36.1607 C   0  0  0  0  0  0  0  0  0  0  0  0
   -2.7841  -21.5412   36.2635 C   0  0  0  0  0  0  0  0  0  0  0  0
   -3.2198  -22.6874   35.6127 C   0  0  0  0  0  0  0  0  0  0  0  0
   -4.8884  -23.9368   34.1584 C   0  0  0  0  0  0  0  0  0  0  0  0
   -6.0176  -24.7023   34.8925 C   0  0  0  0  0  0  0  0  0  0  0  0
   -6.5807  -25.8763   34.0999 C   0  0  0  0  0  0  0  0  0  0  0  0
   -5.8037  -26.9284   33.6058 C   0  0  0  0  0  0  0  0  0  0  0  0
   -6.6505  -27.7767   32.9660 N   0  0  0  0  0  0  0  0  0  0  0  0
   -7.9601  -27.3418   33.0085 C   0  0  0  0  0  0  0  0  0  0  0  0
   -7.9648  -26.1452   33.7168 C   0  0  0  0  0  0  0  0  0  0  0  0
   -9.2415  -25.4902   33.8997 C   0  0  0  0  0  0  0  0  0  0  0  0
   -9.3222  -24.2932   34.6059 O   0  0  0  0  0  0  0  0  0  0  0  0
  -10.3817  -26.0698   33.3593 N   0  0  0  0  0  0  0  0  0  0  0  0
  -10.3307  -27.2520   32.6792 C   0  0  0  0  0  0  0  0  0  0  0  0
   -9.1633  -27.8869   32.4902 N   0  0  0  0  0  0  0  0  0  0  0  0
  -11.5648  -27.8331   32.1408 N   0  0  0  0  0  0  0  0  0  0  0  0
   -3.1049  -19.0963   36.8608 C   0  0  0  0  0  0  0  0  0  0  0  0
   -2.7393  -19.1387   38.0341 O   0  0  0  0  0  0  0  0  0  0  0  0
   -3.1235  -17.8537   36.1359 N   0  0  0  0  0  0  0  0  0  0  0  0
  1  2  2  0  0  0  0
  1  6  1  0  0  0  0
  1  7  1  0  0  0  0
  2  3  1  0  0  0  0
  3  4  2  0  0  0  0
  4  5  1  0  0  0  0
  4 20  1  0  0  0  0
  5  6  2  0  0  0  0
  7  8  1  0  0  0  0
  8  9  1  0  0  0  0
  9 10  2  0  0  0  0
  9 13  1  0  0  0  0
 10 11  1  0  0  0  0
 11 12  1  0  0  0  0
 12 13  2  0  0  0  0
 12 18  1  0  0  0  0
 13 14  1  0  0  0  0
 14 15  1  0  0  0  0
 14 16  2  0  0  0  0
 16 17  1  0  0  0  0
 17 18  2  0  0  0  0
 17 19  1  0  0  0  0
 20 21  2  0  0  0  0
 20 22  1  0  0  0  0
M  END
>  <CHROM.1>
-78.08978765,132.91703617,173.23585542,55.87856303,-6.35113264,-23.93559665
34.54424886,-0.91667860,0.13194309,-2.79678335

>  <Name>
ligand

>  <RI>
0

>  <Rbt.Current_Directory>
/home/itssahil/PROJECTS/Mol_Feturizer/New_Systems/rnas/4LVY

>  <Rbt.Executable>
rbdock ($Id: //depot/dev/client3/rdock/2013.1/src/exe/rbdock.cxx#4 $)

>  <Rbt.Library>
libRbt.so (2013.1, Build901 2013/11/27)

>  <Rbt.Parameter_File>
/export/apps/rDock/src/rDock_2013.1_src/data/scripts/dock_solv.prm

>  <Rbt.Receptor>
prm/blind_docking_80.prm

>  <SCORE>
-12.9471

>  <SCORE.INTER>
-12.7184

>  <SCORE.INTER.CONST>
1

>  <SCORE.INTER.POLAR>
0

>  <SCORE.INTER.ROT>
4

>  <SCORE.INTER.SOLV>
3.51936

>  <SCORE.INTER.VDW>
-15.9187

>  <SCORE.INTER.norm>
-0.578107

>  <SCORE.INTRA>
-0.228751

>  <SCORE.INTRA.DIHEDRAL>
0.126802

>  <SCORE.INTRA.DIHEDRAL.0>
6.18831

>  <SCORE.INTRA.POLAR>
0

>  <SCORE.INTRA.POLAR.0>
0

>  <SCORE.INTRA.REPUL>
0

>  <SCORE.INTRA.REPUL.0>
0

>  <SCORE.INTRA.SOLV>
0.0315558

>  <SCORE.INTRA.SOLV.lig_0>
-44.3465

>  <SCORE.INTRA.VDW>
-0.30793

>  <SCORE.INTRA.VDW.0>
-0.778272

>  <SCORE.INTRA.norm>
-0.0103978

>  <SCORE.RESTR>
0

>  <SCORE.RESTR.CAVITY>
0

>  <SCORE.RESTR.norm>
0

>  <SCORE.SYSTEM>
0

>  <SCORE.SYSTEM.CONST>
0

>  <SCORE.SYSTEM.DIHEDRAL>
0

>  <SCORE.SYSTEM.SOLV>
0

>  <SCORE.SYSTEM.norm>
0

>  <SCORE.heavy>
22

>  <SCORE.norm>
-0.588505

>  <RMSD>
32.192

$$$$
ligand
 OpenBabel11021811503D
libRbt.so/2013.1/901 2013/11/27
 22 24  0  0  0  0  0  0  0  0999 V2000
   -6.4204  -27.0563   32.2469 C   0  0  0  0  0  0  0  0  0  0  0  0
   -6.3292  -28.3778   32.7327 C   0  0  0  0  0  0  0  0  0  0  0  0
   -6.1834  -29.4289   31.8315 C   0  0  0  0  0  0  0  0  0  0  0  0
   -6.1302  -29.1568   30.4533 C   0  0  0  0  0  0  0  0  0  0  0  0
   -6.2311  -27.8313   29.9637 C   0  0  0  0  0  0  0  0  0  0  0  0
   -6.3772  -26.7846   30.8638 C   0  0  0  0  0  0  0  0  0  0  0  0
   -6.6000  -25.8834   33.2299 C   0  0  0  0  0  0  0  0  0  0  0  0
   -5.9229  -24.5586   32.7985 C   0  0  0  0  0  0  0  0  0  0  0  0
   -6.5894  -23.3126   33.3700 C   0  0  0  0  0  0  0  0  0  0  0  0
   -7.8429  -22.8433   32.9658 C   0  0  0  0  0  0  0  0  0  0  0  0
   -8.0998  -21.7270   33.6965 N   0  0  0  0  0  0  0  0  0  0  0  0
   -7.0760  -21.4261   34.5725 C   0  0  0  0  0  0  0  0  0  0  0  0
   -6.1003  -22.4022   34.4029 C   0  0  0  0  0  0  0  0  0  0  0  0
   -4.9147  -22.3017   35.2254 C   0  0  0  0  0  0  0  0  0  0  0  0
   -3.9006  -23.2490   35.1147 O   0  0  0  0  0  0  0  0  0  0  0  0
   -4.8020  -21.2478   36.1223 N   0  0  0  0  0  0  0  0  0  0  0  0
   -5.7907  -20.3174   36.2622 C   0  0  0  0  0  0  0  0  0  0  0  0
   -6.9041  -20.3794   35.5150 N   0  0  0  0  0  0  0  0  0  0  0  0
   -5.6328  -19.2314   37.2349 N   0  0  0  0  0  0  0  0  0  0  0  0
   -5.9773  -30.3129   29.5008 C   0  0  0  0  0  0  0  0  0  0  0  0
   -4.8853  -30.5509   28.9880 O   0  0  0  0  0  0  0  0  0  0  0  0
   -7.1282  -31.1225   29.2005 N   0  0  0  0  0  0  0  0  0  0  0  0
  1  2  2  0  0  0  0
  1  6  1  0  0  0  0
  1  7  1  0  0  0  0
  2  3  1  0  0  0  0
  3  4  2  0  0  0  0
  4  5  1  0  0  0  0
  4 20  1  0  0  0  0
  5  6  2  0  0  0  0
  7  8  1  0  0  0  0
  8  9  1  0  0  0  0
  9 10  2  0  0  0  0
  9 13  1  0  0  0  0
 10 11  1  0  0  0  0
 11 12  1  0  0  0  0
 12 13  2  0  0  0  0
 12 18  1  0  0  0  0
 13 14  1  0  0  0  0
 14 15  1  0  0  0  0
 14 16  2  0  0  0  0
 16 17  1  0  0  0  0
 17 18  2  0  0  0  0
 17 19  1  0  0  0  0
 20 21  2  0  0  0  0
 20 22  1  0  0  0  0
M  END
>  <CHROM.1>
146.88629875,-102.60793238,153.46526918,-70.81815537,-6.13785336,-24.95641807
33.03321155,-1.58459700,-0.52036920,0.55553676

>  <Name>
ligand

>  <RI>
0

>  <Rbt.Current_Directory>
/home/itssahil/PROJECTS/Mol_Feturizer/New_Systems/rnas/4LVY

>  <Rbt.Executable>
rbdock ($Id: //depot/dev/client3/rdock/2013.1/src/exe/rbdock.cxx#4 $)

>  <Rbt.Library>
libRbt.so (2013.1, Build901 2013/11/27)

>  <Rbt.Parameter_File>
/export/apps/rDock/src/rDock_2013.1_src/data/scripts/dock_solv.prm

>  <Rbt.Receptor>
prm/blind_docking_100.prm

>  <SCORE>
-17.4494

>  <SCORE.INTER>
-18.5914

>  <SCORE.INTER.CONST>
1

>  <SCORE.INTER.POLAR>
0

>  <SCORE.INTER.ROT>
4

>  <SCORE.INTER.SOLV>
9.31411

>  <SCORE.INTER.VDW>
-21.7656

>  <SCORE.INTER.norm>
-0.845064

>  <SCORE.INTRA>
1.14201

>  <SCORE.INTRA.DIHEDRAL>
2.42064

>  <SCORE.INTRA.DIHEDRAL.0>
6.18831

>  <SCORE.INTRA.POLAR>
0

>  <SCORE.INTRA.POLAR.0>
0

>  <SCORE.INTRA.REPUL>
0

>  <SCORE.INTRA.REPUL.0>
0

>  <SCORE.INTRA.SOLV>
0.0778618

>  <SCORE.INTRA.SOLV.lig_0>
-44.3465

>  <SCORE.INTRA.VDW>
-0.107238

>  <SCORE.INTRA.VDW.0>
-0.778272

>  <SCORE.INTRA.norm>
0.0519097

>  <SCORE.RESTR>
0

>  <SCORE.RESTR.CAVITY>
0

>  <SCORE.RESTR.norm>
0

>  <SCORE.SYSTEM>
0

>  <SCORE.SYSTEM.CONST>
0

>  <SCORE.SYSTEM.DIHEDRAL>
0

>  <SCORE.SYSTEM.SOLV>
0

>  <SCORE.SYSTEM.norm>
0

>  <SCORE.heavy>
22

>  <SCORE.norm>
-0.793155

>  <RMSD>
32.195

$$$$
ligand
 OpenBabel11021811503D
libRbt.so/2013.1/901 2013/11/27
 22 24  0  0  0  0  0  0  0  0999 V2000
   -6.7201  -26.8183   32.4499 C   0  0  0  0  0  0  0  0  0  0  0  0
   -6.5214  -26.6073   31.0691 C   0  0  0  0  0  0  0  0  0  0  0  0
   -7.4739  -27.0662   30.1633 C   0  0  0  0  0  0  0  0  0  0  0  0
   -8.6168  -27.7326   30.6388 C   0  0  0  0  0  0  0  0  0  0  0  0
   -8.8129  -27.9536   32.0243 C   0  0  0  0  0  0  0  0  0  0  0  0
   -7.8617  -27.4958   32.9258 C   0  0  0  0  0  0  0  0  0  0  0  0
   -5.6669  -26.3325   33.4642 C   0  0  0  0  0  0  0  0  0  0  0  0
   -5.0554  -24.9427   33.1574 C   0  0  0  0  0  0  0  0  0  0  0  0
   -6.0290  -23.7859   33.3510 C   0  0  0  0  0  0  0  0  0  0  0  0
   -7.2282  -23.6491   32.6453 C   0  0  0  0  0  0  0  0  0  0  0  0
   -7.8198  -22.5101   33.0912 N   0  0  0  0  0  0  0  0  0  0  0  0
   -7.0722  -21.8767   34.0639 C   0  0  0  0  0  0  0  0  0  0  0  0
   -5.9323  -22.6479   34.2623 C   0  0  0  0  0  0  0  0  0  0  0  0
   -4.9839  -22.1836   35.2508 C   0  0  0  0  0  0  0  0  0  0  0  0
   -3.8244  -22.9102   35.5076 O   0  0  0  0  0  0  0  0  0  0  0  0
   -5.2446  -21.0042   35.9356 N   0  0  0  0  0  0  0  0  0  0  0  0
   -6.3829  -20.2844   35.7148 C   0  0  0  0  0  0  0  0  0  0  0  0
   -7.2845  -20.6853   34.8048 N   0  0  0  0  0  0  0  0  0  0  0  0
   -6.6218  -19.0532   36.4749 N   0  0  0  0  0  0  0  0  0  0  0  0
   -9.6281  -28.2231   29.6368 C   0  0  0  0  0  0  0  0  0  0  0  0
   -9.3132  -29.0737   28.8067 O   0  0  0  0  0  0  0  0  0  0  0  0
  -10.9580  -27.6749   29.6669 N   0  0  0  0  0  0  0  0  0  0  0  0
  1  2  2  0  0  0  0
  1  6  1  0  0  0  0
  1  7  1  0  0  0  0
  2  3  1  0  0  0  0
  3  4  2  0  0  0  0
  4  5  1  0  0  0  0
  4 20  1  0  0  0  0
  5  6  2  0  0  0  0
  7  8  1  0  0  0  0
  8  9  1  0  0  0  0
  9 10  2  0  0  0  0
  9 13  1  0  0  0  0
 10 11  1  0  0  0  0
 11 12  1  0  0  0  0
 12 13  2  0  0  0  0
 12 18  1  0  0  0  0
 13 14  1  0  0  0  0
 14 15  1  0  0  0  0
 14 16  2  0  0  0  0
 16 17  1  0  0  0  0
 17 18  2  0  0  0  0
 17 19  1  0  0  0  0
 20 21  2  0  0  0  0
 20 22  1  0  0  0  0
M  END
>  <CHROM.1>
40.66199589,62.81343106,69.96542935,-60.31907204,-7.02947121,-24.54034654
32.97801231,-1.94721929,-0.44797561,0.46980218

>  <Name>
ligand

>  <RI>
0

>  <Rbt.Current_Directory>
/home/itssahil/PROJECTS/Mol_Feturizer/New_Systems/rnas/4LVY

>  <Rbt.Executable>
rbdock ($Id: //depot/dev/client3/rdock/2013.1/src/exe/rbdock.cxx#4 $)

>  <Rbt.Library>
libRbt.so (2013.1, Build901 2013/11/27)

>  <Rbt.Parameter_File>
/export/apps/rDock/src/rDock_2013.1_src/data/scripts/dock_solv.prm

>  <Rbt.Receptor>
prm/blind_docking_60.prm

>  <SCORE>
-13.9469

>  <SCORE.INTER>
-13.4643

>  <SCORE.INTER.CONST>
1

>  <SCORE.INTER.POLAR>
0

>  <SCORE.INTER.ROT>
4

>  <SCORE.INTER.SOLV>
8.7985

>  <SCORE.INTER.VDW>
-18.1757

>  <SCORE.INTER.norm>
-0.612016

>  <SCORE.INTRA>
-0.48258

>  <SCORE.INTRA.DIHEDRAL>
0.368731

>  <SCORE.INTRA.DIHEDRAL.0>
6.18831

>  <SCORE.INTRA.POLAR>
0

>  <SCORE.INTRA.POLAR.0>
0

>  <SCORE.INTRA.REPUL>
0

>  <SCORE.INTRA.REPUL.0>
0

>  <SCORE.INTRA.SOLV>
0.0416112

>  <SCORE.INTRA.SOLV.lig_0>
-44.3465

>  <SCORE.INTRA.VDW>
-0.687751

>  <SCORE.INTRA.VDW.0>
-0.778272

>  <SCORE.INTRA.norm>
-0.0219354

>  <SCORE.RESTR>
0

>  <SCORE.RESTR.CAVITY>
0

>  <SCORE.RESTR.norm>
0

>  <SCORE.SYSTEM>
0

>  <SCORE.SYSTEM.CONST>
0

>  <SCORE.SYSTEM.DIHEDRAL>
0

>  <SCORE.SYSTEM.SOLV>
0

>  <SCORE.SYSTEM.norm>
0

>  <SCORE.heavy>
22

>  <SCORE.norm>
-0.633951

>  <RMSD>
32.197

$$$$
ligand
 OpenBabel11021811503D
libRbt.so/2013.1/901 2013/11/27
 22 24  0  0  0  0  0  0  0  0999 V2000
   -5.8983  -23.3220   34.6585 C   0  0  0  0  0  0  0  0  0  0  0  0
   -4.5117  -23.5695   34.7408 C   0  0  0  0  0  0  0  0  0  0  0  0
   -3.6659  -22.5704   35.2148 C   0  0  0  0  0  0  0  0  0  0  0  0
   -4.2065  -21.3320   35.6026 C   0  0  0  0  0  0  0  0  0  0  0  0
   -5.5974  -21.0789   35.5115 C   0  0  0  0  0  0  0  0  0  0  0  0
   -6.4391  -22.0761   35.0379 C   0  0  0  0  0  0  0  0  0  0  0  0
   -6.8459  -24.4108   34.1192 C   0  0  0  0  0  0  0  0  0  0  0  0
   -7.1199  -24.3437   32.5959 C   0  0  0  0  0  0  0  0  0  0  0  0
   -6.2534  -25.2899   31.7729 C   0  0  0  0  0  0  0  0  0  0  0  0
   -4.9037  -25.0623   31.4874 C   0  0  0  0  0  0  0  0  0  0  0  0
   -4.4752  -26.1161   30.7444 N   0  0  0  0  0  0  0  0  0  0  0  0
   -5.4758  -27.0402   30.5185 C   0  0  0  0  0  0  0  0  0  0  0  0
   -6.6175  -26.5611   31.1514 C   0  0  0  0  0  0  0  0  0  0  0  0
   -7.8135  -27.3693   31.0582 C   0  0  0  0  0  0  0  0  0  0  0  0
   -8.9910  -26.9552   31.6748 O   0  0  0  0  0  0  0  0  0  0  0  0
   -7.7708  -28.5592   30.3440 N   0  0  0  0  0  0  0  0  0  0  0  0
   -6.6238  -28.9953   29.7467 C   0  0  0  0  0  0  0  0  0  0  0  0
   -5.4957  -28.2708   29.8124 N   0  0  0  0  0  0  0  0  0  0  0  0
   -6.6240  -30.2674   29.0169 N   0  0  0  0  0  0  0  0  0  0  0  0
   -3.2683  -20.2676   36.1065 C   0  0  0  0  0  0  0  0  0  0  0  0
   -3.0673  -19.2546   35.4391 O   0  0  0  0  0  0  0  0  0  0  0  0
   -2.6121  -20.4624   37.3720 N   0  0  0  0  0  0  0  0  0  0  0  0
  1  2  2  0  0  0  0
  1  6  1  0  0  0  0
  1  7  1  0  0  0  0
  2  3  1  0  0  0  0
  3  4  2  0  0  0  0
  4  5  1  0  0  0  0
  4 20  1  0  0  0  0
  5  6  2  0  0  0  0
  7  8  1  0  0  0  0
  8  9  1  0  0  0  0
  9 10  2  0  0  0  0
  9 13  1  0  0  0  0
 10 11  1  0  0  0  0
 11 12  1  0  0  0  0
 12 13  2  0  0  0  0
 12 18  1  0  0  0  0
 13 14  1  0  0  0  0
 14 15  1  0  0  0  0
 14 16  2  0  0  0  0
 16 17  1  0  0  0  0
 17 18  2  0  0  0  0
 17 19  1  0  0  0  0
 20 21  2  0  0  0  0
 20 22  1  0  0  0  0
M  END
>  <CHROM.1>
-91.99313227,111.13202866,97.45394010,-75.65852620,-5.66950445,-24.71249365
32.87139204,1.25967801,0.17757738,0.71355548

>  <Name>
ligand

>  <RI>
0

>  <Rbt.Current_Directory>
/home/itssahil/PROJECTS/Mol_Feturizer/New_Systems/rnas/4LVY

>  <Rbt.Executable>
rbdock ($Id: //depot/dev/client3/rdock/2013.1/src/exe/rbdock.cxx#4 $)

>  <Rbt.Library>
libRbt.so (2013.1, Build901 2013/11/27)

>  <Rbt.Parameter_File>
/export/apps/rDock/src/rDock_2013.1_src/data/scripts/dock_solv.prm

>  <Rbt.Receptor>
prm/blind_docking_80.prm

>  <SCORE>
-13.8367

>  <SCORE.INTER>
-15.0719

>  <SCORE.INTER.CONST>
1

>  <SCORE.INTER.POLAR>
0

>  <SCORE.INTER.ROT>
4

>  <SCORE.INTER.SOLV>
12.2049

>  <SCORE.INTER.VDW>
-20.3829

>  <SCORE.INTER.norm>
-0.685088

>  <SCORE.INTRA>
1.23524

>  <SCORE.INTRA.DIHEDRAL>
4.16532

>  <SCORE.INTRA.DIHEDRAL.0>
6.18831

>  <SCORE.INTRA.POLAR>
0

>  <SCORE.INTRA.POLAR.0>
0

>  <SCORE.INTRA.REPUL>
0

>  <SCORE.INTRA.REPUL.0>
0

>  <SCORE.INTRA.SOLV>
0.0966447

>  <SCORE.INTRA.SOLV.lig_0>
-44.3465

>  <SCORE.INTRA.VDW>
-0.895745

>  <SCORE.INTRA.VDW.0>
-0.778272

>  <SCORE.INTRA.norm>
0.0561472

>  <SCORE.RESTR>
0

>  <SCORE.RESTR.CAVITY>
0

>  <SCORE.RESTR.norm>
0

>  <SCORE.SYSTEM>
0

>  <SCORE.SYSTEM.CONST>
0

>  <SCORE.SYSTEM.DIHEDRAL>
0

>  <SCORE.SYSTEM.SOLV>
0

>  <SCORE.SYSTEM.norm>
0

>  <SCORE.heavy>
22

>  <SCORE.norm>
-0.628941

>  <RMSD>
32.240

$$$$
ligand
 OpenBabel11021811503D
libRbt.so/2013.1/901 2013/11/27
 22 24  0  0  0  0  0  0  0  0999 V2000
   -5.9923  -27.1844   32.5102 C   0  0  0  0  0  0  0  0  0  0  0  0
   -6.2523  -28.5210   32.8797 C   0  0  0  0  0  0  0  0  0  0  0  0
   -6.3287  -29.5005   31.8933 C   0  0  0  0  0  0  0  0  0  0  0  0
   -6.1465  -29.1421   30.5463 C   0  0  0  0  0  0  0  0  0  0  0  0
   -5.8947  -27.7989   30.1731 C   0  0  0  0  0  0  0  0  0  0  0  0
   -5.8197  -26.8235   31.1580 C   0  0  0  0  0  0  0  0  0  0  0  0
   -5.9225  -26.0855   33.5880 C   0  0  0  0  0  0  0  0  0  0  0  0
   -5.6406  -24.6598   33.0514 C   0  0  0  0  0  0  0  0  0  0  0  0
   -5.2244  -23.6674   34.1309 C   0  0  0  0  0  0  0  0  0  0  0  0
   -4.0501  -23.7781   34.8816 C   0  0  0  0  0  0  0  0  0  0  0  0
   -4.0229  -22.7166   35.7292 N   0  0  0  0  0  0  0  0  0  0  0  0
   -5.1254  -21.8988   35.5814 C   0  0  0  0  0  0  0  0  0  0  0  0
   -5.9118  -22.4591   34.5808 C   0  0  0  0  0  0  0  0  0  0  0  0
   -7.1368  -21.7700   34.2390 C   0  0  0  0  0  0  0  0  0  0  0  0
   -7.9688  -22.2696   33.2408 O   0  0  0  0  0  0  0  0  0  0  0  0
   -7.4713  -20.6079   34.9214 N   0  0  0  0  0  0  0  0  0  0  0  0
   -6.6629  -20.0886   35.8906 C   0  0  0  0  0  0  0  0  0  0  0  0
   -5.5192  -20.7018   36.2337 N   0  0  0  0  0  0  0  0  0  0  0  0
   -7.0511  -18.8495   36.5721 N   0  0  0  0  0  0  0  0  0  0  0  0
   -6.2396  -30.2206   29.4997 C   0  0  0  0  0  0  0  0  0  0  0  0
   -6.4133  -31.3915   29.8326 O   0  0  0  0  0  0  0  0  0  0  0  0
   -6.1153  -29.8560   28.1134 N   0  0  0  0  0  0  0  0  0  0  0  0
  1  2  2  0  0  0  0
  1  6  1  0  0  0  0
  1  7  1  0  0  0  0
  2  3  1  0  0  0  0
  3  4  2  0  0  0  0
  4  5  1  0  0  0  0
  4 20  1  0  0  0  0
  5  6  2  0  0  0  0
  7  8  1  0  0  0  0
  8  9  1  0  0  0  0
  9 10  2  0  0  0  0
  9 13  1  0  0  0  0
 10 11  1  0  0  0  0
 11 12  1  0  0  0  0
 12 13  2  0  0  0  0
 12 18  1  0  0  0  0
 13 14  1  0  0  0  0
 14 15  1  0  0  0  0
 14 16  2  0  0  0  0
 16 17  1  0  0  0  0
 17 18  2  0  0  0  0
 17 19  1  0  0  0  0
 20 21  2  0  0  0  0
 20 22  1  0  0  0  0
M  END
>  <CHROM.1>
-179.58537465,-3.09557569,-165.15618830,64.13715073,-6.06956114,-24.97034954
33.14579466,-1.56321780,-0.69473130,0.55381065

>  <Name>
ligand

>  <RI>
0

>  <Rbt.Current_Directory>
/home/itssahil/PROJECTS/Mol_Feturizer/New_Systems/rnas/4LVY

>  <Rbt.Executable>
rbdock ($Id: //depot/dev/client3/rdock/2013.1/src/exe/rbdock.cxx#4 $)

>  <Rbt.Library>
libRbt.so (2013.1, Build901 2013/11/27)

>  <Rbt.Parameter_File>
/export/apps/rDock/src/rDock_2013.1_src/data/scripts/dock_solv.prm

>  <Rbt.Receptor>
prm/blind_docking_80.prm

>  <SCORE>
-16.0698

>  <SCORE.INTER>
-17.2529

>  <SCORE.INTER.CONST>
1

>  <SCORE.INTER.POLAR>
0

>  <SCORE.INTER.ROT>
4

>  <SCORE.INTER.SOLV>
14.7845

>  <SCORE.INTER.VDW>
-22.6968

>  <SCORE.INTER.norm>
-0.784222

>  <SCORE.INTRA>
1.1831

>  <SCORE.INTRA.DIHEDRAL>
0.91057

>  <SCORE.INTRA.DIHEDRAL.0>
6.18831

>  <SCORE.INTRA.POLAR>
0

>  <SCORE.INTRA.POLAR.0>
0

>  <SCORE.INTRA.REPUL>
0

>  <SCORE.INTRA.REPUL.0>
0

>  <SCORE.INTRA.SOLV>
0.064807

>  <SCORE.INTRA.SOLV.lig_0>
-44.3465

>  <SCORE.INTRA.VDW>
0.695416

>  <SCORE.INTRA.VDW.0>
-0.778272

>  <SCORE.INTRA.norm>
0.0537775

>  <SCORE.RESTR>
0

>  <SCORE.RESTR.CAVITY>
0

>  <SCORE.RESTR.norm>
0

>  <SCORE.SYSTEM>
0

>  <SCORE.SYSTEM.CONST>
0

>  <SCORE.SYSTEM.DIHEDRAL>
0

>  <SCORE.SYSTEM.SOLV>
0

>  <SCORE.SYSTEM.norm>
0

>  <SCORE.heavy>
22

>  <SCORE.norm>
-0.730444

>  <RMSD>
32.264

$$$$
ligand
 OpenBabel11021811503D
libRbt.so/2013.1/901 2013/11/27
 22 24  0  0  0  0  0  0  0  0999 V2000
   -6.3149  -26.5806   30.8009 C   0  0  0  0  0  0  0  0  0  0  0  0
   -7.5484  -27.2093   30.5290 C   0  0  0  0  0  0  0  0  0  0  0  0
   -7.5572  -28.4883   29.9792 C   0  0  0  0  0  0  0  0  0  0  0  0
   -6.3381  -29.1316   29.7033 C   0  0  0  0  0  0  0  0  0  0  0  0
   -5.0989  -28.4977   29.9670 C   0  0  0  0  0  0  0  0  0  0  0  0
   -5.0922  -27.2221   30.5146 C   0  0  0  0  0  0  0  0  0  0  0  0
   -6.2877  -25.1582   31.3927 C   0  0  0  0  0  0  0  0  0  0  0  0
   -7.1560  -24.9603   32.6603 C   0  0  0  0  0  0  0  0  0  0  0  0
   -7.0318  -23.5734   33.2806 C   0  0  0  0  0  0  0  0  0  0  0  0
   -7.9778  -22.5572   33.1151 C   0  0  0  0  0  0  0  0  0  0  0  0
   -7.5279  -21.4827   33.8144 N   0  0  0  0  0  0  0  0  0  0  0  0
   -6.3234  -21.7317   34.4416 C   0  0  0  0  0  0  0  0  0  0  0  0
   -5.9719  -23.0414   34.1341 C   0  0  0  0  0  0  0  0  0  0  0  0
   -4.7324  -23.5406   34.6879 C   0  0  0  0  0  0  0  0  0  0  0  0
   -4.3221  -24.8454   34.4283 O   0  0  0  0  0  0  0  0  0  0  0  0
   -3.9584  -22.7006   35.4773 N   0  0  0  0  0  0  0  0  0  0  0  0
   -4.3485  -21.4239   35.7611 C   0  0  0  0  0  0  0  0  0  0  0  0
   -5.4923  -20.9276   35.2638 N   0  0  0  0  0  0  0  0  0  0  0  0
   -3.5048  -20.5799   36.6134 N   0  0  0  0  0  0  0  0  0  0  0  0
   -6.3769  -30.5124   29.1039 C   0  0  0  0  0  0  0  0  0  0  0  0
   -6.5740  -31.4919   29.8206 O   0  0  0  0  0  0  0  0  0  0  0  0
   -6.1734  -30.6607   27.6873 N   0  0  0  0  0  0  0  0  0  0  0  0
  1  2  2  0  0  0  0
  1  6  1  0  0  0  0
  1  7  1  0  0  0  0
  2  3  1  0  0  0  0
  3  4  2  0  0  0  0
  4  5  1  0  0  0  0
  4 20  1  0  0  0  0
  5  6  2  0  0  0  0
  7  8  1  0  0  0  0
  8  9  1  0  0  0  0
  9 10  2  0  0  0  0
  9 13  1  0  0  0  0
 10 11  1  0  0  0  0
 11 12  1  0  0  0  0
 12 13  2  0  0  0  0
 12 18  1  0  0  0  0
 13 14  1  0  0  0  0
 14 15  1  0  0  0  0
 14 16  2  0  0  0  0
 16 17  1  0  0  0  0
 17 18  2  0  0  0  0
 17 19  1  0  0  0  0
 20 21  2  0  0  0  0
 20 22  1  0  0  0  0
M  END
>  <CHROM.1>
51.64419846,-80.32595525,175.85274256,101.39826903,-5.95926464,-25.29394770
32.45066314,1.70438289,0.46899338,-2.57394160

>  <Name>
ligand

>  <RI>
0

>  <Rbt.Current_Directory>
/home/itssahil/PROJECTS/Mol_Feturizer/New_Systems/rnas/4LVY

>  <Rbt.Executable>
rbdock ($Id: //depot/dev/client3/rdock/2013.1/src/exe/rbdock.cxx#4 $)

>  <Rbt.Library>
libRbt.so (2013.1, Build901 2013/11/27)

>  <Rbt.Parameter_File>
/export/apps/rDock/src/rDock_2013.1_src/data/scripts/dock_solv.prm

>  <Rbt.Receptor>
prm/blind_docking_60.prm

>  <SCORE>
-21.1548

>  <SCORE.INTER>
-20.7486

>  <SCORE.INTER.CONST>
1

>  <SCORE.INTER.POLAR>
0

>  <SCORE.INTER.ROT>
4

>  <SCORE.INTER.SOLV>
11.1693

>  <SCORE.INTER.VDW>
-23.8221

>  <SCORE.INTER.norm>
-0.943116

>  <SCORE.INTRA>
-0.412042

>  <SCORE.INTRA.DIHEDRAL>
0.0583796

>  <SCORE.INTRA.DIHEDRAL.0>
6.18831

>  <SCORE.INTRA.POLAR>
0

>  <SCORE.INTRA.POLAR.0>
0

>  <SCORE.INTRA.REPUL>
0

>  <SCORE.INTRA.REPUL.0>
0

>  <SCORE.INTRA.SOLV>
0.200993

>  <SCORE.INTRA.SOLV.lig_0>
-44.3465

>  <SCORE.INTRA.VDW>
-0.541728

>  <SCORE.INTRA.VDW.0>
-0.778272

>  <SCORE.INTRA.norm>
-0.0187292

>  <SCORE.RESTR>
0.005773

>  <SCORE.RESTR.CAVITY>
0.005773

>  <SCORE.RESTR.norm>
0.000262409

>  <SCORE.SYSTEM>
0

>  <SCORE.SYSTEM.CONST>
0

>  <SCORE.SYSTEM.DIHEDRAL>
0

>  <SCORE.SYSTEM.SOLV>
0

>  <SCORE.SYSTEM.norm>
0

>  <SCORE.heavy>
22

>  <SCORE.norm>
-0.961583

>  <RMSD>
32.268

$$$$
ligand
 OpenBabel11021811503D
libRbt.so/2013.1/901 2013/11/27
 22 24  0  0  0  0  0  0  0  0999 V2000
   -6.2953  -26.5540   30.7666 C   0  0  0  0  0  0  0  0  0  0  0  0
   -5.0853  -27.2202   30.4792 C   0  0  0  0  0  0  0  0  0  0  0  0
   -5.1224  -28.5129   29.9635 C   0  0  0  0  0  0  0  0  0  0  0  0
   -6.3637  -29.1331   29.7385 C   0  0  0  0  0  0  0  0  0  0  0  0
   -7.5792  -28.4688   30.0355 C   0  0  0  0  0  0  0  0  0  0  0  0
   -7.5402  -27.1802   30.5503 C   0  0  0  0  0  0  0  0  0  0  0  0
   -6.2714  -25.1299   31.3545 C   0  0  0  0  0  0  0  0  0  0  0  0
   -6.9802  -24.9753   32.7233 C   0  0  0  0  0  0  0  0  0  0  0  0
   -6.8554  -23.5810   33.3265 C   0  0  0  0  0  0  0  0  0  0  0  0
   -7.7840  -22.5561   33.1212 C   0  0  0  0  0  0  0  0  0  0  0  0
   -7.3395  -21.4768   33.8167 N   0  0  0  0  0  0  0  0  0  0  0  0
   -6.1553  -21.7310   34.4794 C   0  0  0  0  0  0  0  0  0  0  0  0
   -5.8120  -23.0493   34.2003 C   0  0  0  0  0  0  0  0  0  0  0  0
   -4.5939  -23.5551   34.7941 C   0  0  0  0  0  0  0  0  0  0  0  0
   -4.1931  -24.8684   34.5645 O   0  0  0  0  0  0  0  0  0  0  0  0
   -3.8307  -22.7129   35.5918 N   0  0  0  0  0  0  0  0  0  0  0  0
   -4.2124  -21.4276   35.8466 C   0  0  0  0  0  0  0  0  0  0  0  0
   -5.3363  -20.9250   35.3119 N   0  0  0  0  0  0  0  0  0  0  0  0
   -3.3812  -20.5813   36.7089 N   0  0  0  0  0  0  0  0  0  0  0  0
   -6.3745  -30.5334   29.1851 C   0  0  0  0  0  0  0  0  0  0  0  0
   -6.4966  -31.4956   29.9409 O   0  0  0  0  0  0  0  0  0  0  0  0
   -6.2332  -30.7205   27.7656 N   0  0  0  0  0  0  0  0  0  0  0  0
  1  2  2  0  0  0  0
  1  6  1  0  0  0  0
  1  7  1  0  0  0  0
  2  3  1  0  0  0  0
  3  4  2  0  0  0  0
  4  5  1  0  0  0  0
  4 20  1  0  0  0  0
  5  6  2  0  0  0  0
  7  8  1  0  0  0  0
  8  9  1  0  0  0  0
  9 10  2  0  0  0  0
  9 13  1  0  0  0  0
 10 11  1  0  0  0  0
 11 12  1  0  0  0  0
 12 13  2  0  0  0  0
 12 18  1  0  0  0  0
 13 14  1  0  0  0  0
 14 15  1  0  0  0  0
 14 16  2  0  0  0  0
 16 17  1  0  0  0  0
 17 18  2  0  0  0  0
 17 19  1  0  0  0  0
 20 21  2  0  0  0  0
 20 22  1  0  0  0  0
M  END
>  <CHROM.1>
-121.33586736,97.22366626,175.88574856,91.67191349,-5.87269140,-25.29764738
32.50244107,1.72760447,0.51609356,-2.58878699

>  <Name>
ligand

>  <RI>
0

>  <Rbt.Current_Directory>
/home/itssahil/PROJECTS/Mol_Feturizer/New_Systems/rnas/4LVY

>  <Rbt.Executable>
rbdock ($Id: //depot/dev/client3/rdock/2013.1/src/exe/rbdock.cxx#4 $)

>  <Rbt.Library>
libRbt.so (2013.1, Build901 2013/11/27)

>  <Rbt.Parameter_File>
/export/apps/rDock/src/rDock_2013.1_src/data/scripts/dock_solv.prm

>  <Rbt.Receptor>
prm/blind_docking_100.prm

>  <SCORE>
-21.0842

>  <SCORE.INTER>
-20.7045

>  <SCORE.INTER.CONST>
1

>  <SCORE.INTER.POLAR>
0

>  <SCORE.INTER.ROT>
4

>  <SCORE.INTER.SOLV>
11.6743

>  <SCORE.INTER.VDW>
-23.9611

>  <SCORE.INTER.norm>
-0.941113

>  <SCORE.INTRA>
-0.383106

>  <SCORE.INTRA.DIHEDRAL>
0.15322

>  <SCORE.INTRA.DIHEDRAL.0>
6.18831

>  <SCORE.INTRA.POLAR>
0

>  <SCORE.INTRA.POLAR.0>
0

>  <SCORE.INTRA.REPUL>
0

>  <SCORE.INTRA.REPUL.0>
0

>  <SCORE.INTRA.SOLV>
0.156502

>  <SCORE.INTRA.SOLV.lig_0>
-44.3465

>  <SCORE.INTRA.VDW>
-0.537967

>  <SCORE.INTRA.VDW.0>
-0.778272

>  <SCORE.INTRA.norm>
-0.0174139

>  <SCORE.RESTR>
0.00338264

>  <SCORE.RESTR.CAVITY>
0.00338264

>  <SCORE.RESTR.norm>
0.000153756

>  <SCORE.SYSTEM>
0

>  <SCORE.SYSTEM.CONST>
0

>  <SCORE.SYSTEM.DIHEDRAL>
0

>  <SCORE.SYSTEM.SOLV>
0

>  <SCORE.SYSTEM.norm>
0

>  <SCORE.heavy>
22

>  <SCORE.norm>
-0.958373

>  <RMSD>
32.272

$$$$
ligand
 OpenBabel11021811503D
libRbt.so/2013.1/901 2013/11/27
 22 24  0  0  0  0  0  0  0  0999 V2000
   -6.3524  -26.5359   30.7770 C   0  0  0  0  0  0  0  0  0  0  0  0
   -5.1350  -27.2162   30.5634 C   0  0  0  0  0  0  0  0  0  0  0  0
   -5.1543  -28.4981   30.0203 C   0  0  0  0  0  0  0  0  0  0  0  0
   -6.3855  -29.0934   29.6947 C   0  0  0  0  0  0  0  0  0  0  0  0
   -7.6091  -28.4151   29.9175 C   0  0  0  0  0  0  0  0  0  0  0  0
   -7.5878  -27.1373   30.4598 C   0  0  0  0  0  0  0  0  0  0  0  0
   -6.3494  -25.1239   31.3938 C   0  0  0  0  0  0  0  0  0  0  0  0
   -7.0984  -24.9982   32.7441 C   0  0  0  0  0  0  0  0  0  0  0  0
   -6.9956  -23.6158   33.3781 C   0  0  0  0  0  0  0  0  0  0  0  0
   -7.9692  -22.6214   33.2433 C   0  0  0  0  0  0  0  0  0  0  0  0
   -7.5317  -21.5441   33.9463 N   0  0  0  0  0  0  0  0  0  0  0  0
   -6.3092  -21.7705   34.5466 C   0  0  0  0  0  0  0  0  0  0  0  0
   -5.9322  -23.0677   34.2168 C   0  0  0  0  0  0  0  0  0  0  0  0
   -4.6700  -23.5425   34.7401 C   0  0  0  0  0  0  0  0  0  0  0  0
   -4.2334  -24.8338   34.4571 O   0  0  0  0  0  0  0  0  0  0  0  0
   -3.9011  -22.6927   35.5240 N   0  0  0  0  0  0  0  0  0  0  0  0
   -4.3164  -21.4293   35.8305 C   0  0  0  0  0  0  0  0  0  0  0  0
   -5.4816  -20.9557   35.3618 N   0  0  0  0  0  0  0  0  0  0  0  0
   -3.4767  -20.5746   36.6759 N   0  0  0  0  0  0  0  0  0  0  0  0
   -6.3775  -30.4825   29.1138 C   0  0  0  0  0  0  0  0  0  0  0  0
   -6.3055  -30.6430   27.8968 O   0  0  0  0  0  0  0  0  0  0  0  0
   -6.4620  -31.6088   30.0051 N   0  0  0  0  0  0  0  0  0  0  0  0
  1  2  2  0  0  0  0
  1  6  1  0  0  0  0
  1  7  1  0  0  0  0
  2  3  1  0  0  0  0
  3  4  2  0  0  0  0
  4  5  1  0  0  0  0
  4 20  1  0  0  0  0
  5  6  2  0  0  0  0
  7  8  1  0  0  0  0
  8  9  1  0  0  0  0
  9 10  2  0  0  0  0
  9 13  1  0  0  0  0
 10 11  1  0  0  0  0
 11 12  1  0  0  0  0
 12 13  2  0  0  0  0
 12 18  1  0  0  0  0
 13 14  1  0  0  0  0
 14 15  1  0  0  0  0
 14 16  2  0  0  0  0
 16 17  1  0  0  0  0
 17 18  2  0  0  0  0
 17 19  1  0  0  0  0
 20 21  2  0  0  0  0
 20 22  1  0  0  0  0
M  END
>  <CHROM.1>
-118.69865811,-89.56903094,175.92548106,96.44012720,-5.95253660,-25.29259430
32.49920168,1.71183413,0.46946260,-2.56874068

>  <Name>
ligand

>  <RI>
0

>  <Rbt.Current_Directory>
/home/itssahil/PROJECTS/Mol_Feturizer/New_Systems/rnas/4LVY

>  <Rbt.Executable>
rbdock ($Id: //depot/dev/client3/rdock/2013.1/src/exe/rbdock.cxx#4 $)

>  <Rbt.Library>
libRbt.so (2013.1, Build901 2013/11/27)

>  <Rbt.Parameter_File>
/export/apps/rDock/src/rDock_2013.1_src/data/scripts/dock_solv.prm

>  <Rbt.Receptor>
prm/blind_docking_100.prm

>  <SCORE>
-20.3053

>  <SCORE.INTER>
-19.8523

>  <SCORE.INTER.CONST>
1

>  <SCORE.INTER.POLAR>
0

>  <SCORE.INTER.ROT>
4

>  <SCORE.INTER.SOLV>
12.3699

>  <SCORE.INTER.VDW>
-23.6248

>  <SCORE.INTER.norm>
-0.902376

>  <SCORE.INTRA>
-0.453

>  <SCORE.INTRA.DIHEDRAL>
0.0870701

>  <SCORE.INTRA.DIHEDRAL.0>
6.18831

>  <SCORE.INTRA.POLAR>
0

>  <SCORE.INTRA.POLAR.0>
0

>  <SCORE.INTRA.REPUL>
0

>  <SCORE.INTRA.REPUL.0>
0

>  <SCORE.INTRA.SOLV>
0.178371

>  <SCORE.INTRA.SOLV.lig_0>
-44.3465

>  <SCORE.INTRA.VDW>
-0.585721

>  <SCORE.INTRA.VDW.0>
-0.778272

>  <SCORE.INTRA.norm>
-0.0205909

>  <SCORE.RESTR>
0

>  <SCORE.RESTR.CAVITY>
0

>  <SCORE.RESTR.norm>
0

>  <SCORE.SYSTEM>
0

>  <SCORE.SYSTEM.CONST>
0

>  <SCORE.SYSTEM.DIHEDRAL>
0

>  <SCORE.SYSTEM.SOLV>
0

>  <SCORE.SYSTEM.norm>
0

>  <SCORE.heavy>
22

>  <SCORE.norm>
-0.922966

>  <RMSD>
32.297

$$$$
ligand
 OpenBabel11021811503D
libRbt.so/2013.1/901 2013/11/27
 22 24  0  0  0  0  0  0  0  0999 V2000
   -4.7570  -23.7658   34.6089 C   0  0  0  0  0  0  0  0  0  0  0  0
   -3.7899  -22.9683   35.2565 C   0  0  0  0  0  0  0  0  0  0  0  0
   -4.0287  -21.6073   35.4266 C   0  0  0  0  0  0  0  0  0  0  0  0
   -5.2281  -21.0501   34.9500 C   0  0  0  0  0  0  0  0  0  0  0  0
   -6.1958  -21.8478   34.2912 C   0  0  0  0  0  0  0  0  0  0  0  0
   -5.9556  -23.2046   34.1218 C   0  0  0  0  0  0  0  0  0  0  0  0
   -4.5002  -25.2701   34.3967 C   0  0  0  0  0  0  0  0  0  0  0  0
   -5.7684  -26.1192   34.1307 C   0  0  0  0  0  0  0  0  0  0  0  0
   -6.1681  -26.1841   32.6611 C   0  0  0  0  0  0  0  0  0  0  0  0
   -5.3622  -25.7300   31.6127 C   0  0  0  0  0  0  0  0  0  0  0  0
   -6.0476  -25.9582   30.4619 N   0  0  0  0  0  0  0  0  0  0  0  0
   -7.2763  -26.5447   30.6905 C   0  0  0  0  0  0  0  0  0  0  0  0
   -7.3953  -26.7084   32.0662 C   0  0  0  0  0  0  0  0  0  0  0  0
   -8.6133  -27.3149   32.5570 C   0  0  0  0  0  0  0  0  0  0  0  0
   -8.7969  -27.5170   33.9221 O   0  0  0  0  0  0  0  0  0  0  0  0
   -9.5953  -27.6885   31.6491 N   0  0  0  0  0  0  0  0  0  0  0  0
   -9.4307  -27.5176   30.3052 C   0  0  0  0  0  0  0  0  0  0  0  0
   -8.3136  -26.9578   29.8148 N   0  0  0  0  0  0  0  0  0  0  0  0
  -10.4898  -27.9432   29.3845 N   0  0  0  0  0  0  0  0  0  0  0  0
   -5.4582  -19.5745   35.1427 C   0  0  0  0  0  0  0  0  0  0  0  0
   -4.5614  -18.7714   34.8921 O   0  0  0  0  0  0  0  0  0  0  0  0
   -6.7368  -19.1284   35.6286 N   0  0  0  0  0  0  0  0  0  0  0  0
  1  2  2  0  0  0  0
  1  6  1  0  0  0  0
  1  7  1  0  0  0  0
  2  3  1  0  0  0  0
  3  4  2  0  0  0  0
  4  5  1  0  0  0  0
  4 20  1  0  0  0  0
  5  6  2  0  0  0  0
  7  8  1  0  0  0  0
  8  9  1  0  0  0  0
  9 10  2  0  0  0  0
  9 13  1  0  0  0  0
 10 11  1  0  0  0  0
 11 12  1  0  0  0  0
 12 13  2  0  0  0  0
 12 18  1  0  0  0  0
 13 14  1  0  0  0  0
 14 15  1  0  0  0  0
 14 16  2  0  0  0  0
 16 17  1  0  0  0  0
 17 18  2  0  0  0  0
 17 19  1  0  0  0  0
 20 21  2  0  0  0  0
 20 22  1  0  0  0  0
M  END
>  <CHROM.1>
160.20276077,45.49627703,87.25039092,10.64515760,-6.60796739,-24.53073307
33.08350785,-1.06491089,0.54542943,-2.87540618

>  <Name>
ligand

>  <RI>
0

>  <Rbt.Current_Directory>
/home/itssahil/PROJECTS/Mol_Feturizer/New_Systems/rnas/4LVY

>  <Rbt.Executable>
rbdock ($Id: //depot/dev/client3/rdock/2013.1/src/exe/rbdock.cxx#4 $)

>  <Rbt.Library>
libRbt.so (2013.1, Build901 2013/11/27)

>  <Rbt.Parameter_File>
/export/apps/rDock/src/rDock_2013.1_src/data/scripts/dock_solv.prm

>  <Rbt.Receptor>
prm/blind_docking_100.prm

>  <SCORE>
-15.7861

>  <SCORE.INTER>
-17.3831

>  <SCORE.INTER.CONST>
1

>  <SCORE.INTER.POLAR>
0

>  <SCORE.INTER.ROT>
4

>  <SCORE.INTER.SOLV>
8.69461

>  <SCORE.INTER.VDW>
-20.7536

>  <SCORE.INTER.norm>
-0.790142

>  <SCORE.INTRA>
1.59698

>  <SCORE.INTRA.DIHEDRAL>
2.54587

>  <SCORE.INTRA.DIHEDRAL.0>
6.18831

>  <SCORE.INTRA.POLAR>
0

>  <SCORE.INTRA.POLAR.0>
0

>  <SCORE.INTRA.REPUL>
0

>  <SCORE.INTRA.REPUL.0>
0

>  <SCORE.INTRA.SOLV>
-0.00163

>  <SCORE.INTRA.SOLV.lig_0>
-44.3465

>  <SCORE.INTRA.VDW>
0.324862

>  <SCORE.INTRA.VDW.0>
-0.778272

>  <SCORE.INTRA.norm>
0.07259

>  <SCORE.RESTR>
0

>  <SCORE.RESTR.CAVITY>
0

>  <SCORE.RESTR.norm>
0

>  <SCORE.SYSTEM>
0

>  <SCORE.SYSTEM.CONST>
0

>  <SCORE.SYSTEM.DIHEDRAL>
0

>  <SCORE.SYSTEM.SOLV>
0

>  <SCORE.SYSTEM.norm>
0

>  <SCORE.heavy>
22

>  <SCORE.norm>
-0.717552

>  <RMSD>
32.314

$$$$
ligand
 OpenBabel11021811503D
libRbt.so/2013.1/901 2013/11/27
 22 24  0  0  0  0  0  0  0  0999 V2000
   -6.1899  -26.9186   32.1111 C   0  0  0  0  0  0  0  0  0  0  0  0
   -5.6871  -26.7864   30.7995 C   0  0  0  0  0  0  0  0  0  0  0  0
   -5.5380  -27.9212   30.0068 C   0  0  0  0  0  0  0  0  0  0  0  0
   -5.8898  -29.1793   30.5260 C   0  0  0  0  0  0  0  0  0  0  0  0
   -6.3859  -29.3146   31.8460 C   0  0  0  0  0  0  0  0  0  0  0  0
   -6.5332  -28.1821   32.6351 C   0  0  0  0  0  0  0  0  0  0  0  0
   -6.3441  -25.6749   33.0075 C   0  0  0  0  0  0  0  0  0  0  0  0
   -6.7981  -24.3899   32.2711 C   0  0  0  0  0  0  0  0  0  0  0  0
   -7.0299  -23.2004   33.1957 C   0  0  0  0  0  0  0  0  0  0  0  0
   -8.1415  -22.3559   33.1167 C   0  0  0  0  0  0  0  0  0  0  0  0
   -8.0007  -21.4269   34.0981 N   0  0  0  0  0  0  0  0  0  0  0  0
   -6.8456  -21.6097   34.8319 C   0  0  0  0  0  0  0  0  0  0  0  0
   -6.2007  -22.7203   34.2987 C   0  0  0  0  0  0  0  0  0  0  0  0
   -4.9520  -23.1172   34.9116 C   0  0  0  0  0  0  0  0  0  0  0  0
   -4.2562  -24.2247   34.4347 O   0  0  0  0  0  0  0  0  0  0  0  0
   -4.4574  -22.3774   35.9774 N   0  0  0  0  0  0  0  0  0  0  0  0
   -5.1304  -21.2992   36.4745 C   0  0  0  0  0  0  0  0  0  0  0  0
   -6.2915  -20.9024   35.9302 N   0  0  0  0  0  0  0  0  0  0  0  0
   -4.5757  -20.5591   37.6125 N   0  0  0  0  0  0  0  0  0  0  0  0
   -5.7134  -30.3904   29.6488 C   0  0  0  0  0  0  0  0  0  0  0  0
   -4.8268  -30.4127   28.7971 O   0  0  0  0  0  0  0  0  0  0  0  0
   -6.6013  -31.5091   29.8224 N   0  0  0  0  0  0  0  0  0  0  0  0
  1  2  2  0  0  0  0
  1  6  1  0  0  0  0
  1  7  1  0  0  0  0
  2  3  1  0  0  0  0
  3  4  2  0  0  0  0
  4  5  1  0  0  0  0
  4 20  1  0  0  0  0
  5  6  2  0  0  0  0
  7  8  1  0  0  0  0
  8  9  1  0  0  0  0
  9 10  2  0  0  0  0
  9 13  1  0  0  0  0
 10 11  1  0  0  0  0
 11 12  1  0  0  0  0
 12 13  2  0  0  0  0
 12 18  1  0  0  0  0
 13 14  1  0  0  0  0
 14 15  1  0  0  0  0
 14 16  2  0  0  0  0
 16 17  1  0  0  0  0
 17 18  2  0  0  0  0
 17 19  1  0  0  0  0
 20 21  2  0  0  0  0
 20 22  1  0  0  0  0
M  END
>  <CHROM.1>
36.97973662,29.96753218,176.21664289,-134.86834442,-5.98320324,-25.19539333
33.03003724,1.57209100,0.59433378,-2.55223657

>  <Name>
ligand

>  <RI>
0

>  <Rbt.Current_Directory>
/home/itssahil/PROJECTS/Mol_Feturizer/New_Systems/rnas/4LVY

>  <Rbt.Executable>
rbdock ($Id: //depot/dev/client3/rdock/2013.1/src/exe/rbdock.cxx#4 $)

>  <Rbt.Library>
libRbt.so (2013.1, Build901 2013/11/27)

>  <Rbt.Parameter_File>
/export/apps/rDock/src/rDock_2013.1_src/data/scripts/dock_solv.prm

>  <Rbt.Receptor>
prm/blind_docking_100.prm

>  <SCORE>
-18.648

>  <SCORE.INTER>
-18.9606

>  <SCORE.INTER.CONST>
1

>  <SCORE.INTER.POLAR>
0

>  <SCORE.INTER.ROT>
4

>  <SCORE.INTER.SOLV>
9.35175

>  <SCORE.INTER.VDW>
-22.0243

>  <SCORE.INTER.norm>
-0.861844

>  <SCORE.INTRA>
0.312567

>  <SCORE.INTRA.DIHEDRAL>
0.00198786

>  <SCORE.INTRA.DIHEDRAL.0>
6.18831

>  <SCORE.INTRA.POLAR>
0

>  <SCORE.INTRA.POLAR.0>
0

>  <SCORE.INTRA.REPUL>
0

>  <SCORE.INTRA.REPUL.0>
0

>  <SCORE.INTRA.SOLV>
0.368634

>  <SCORE.INTRA.SOLV.lig_0>
-44.3465

>  <SCORE.INTRA.VDW>
0.127256

>  <SCORE.INTRA.VDW.0>
-0.778272

>  <SCORE.INTRA.norm>
0.0142076

>  <SCORE.RESTR>
0

>  <SCORE.RESTR.CAVITY>
0

>  <SCORE.RESTR.norm>
0

>  <SCORE.SYSTEM>
0

>  <SCORE.SYSTEM.CONST>
0

>  <SCORE.SYSTEM.DIHEDRAL>
0

>  <SCORE.SYSTEM.SOLV>
0

>  <SCORE.SYSTEM.norm>
0

>  <SCORE.heavy>
22

>  <SCORE.norm>
-0.847636

>  <RMSD>
32.352

$$$$
ligand
 OpenBabel11021811503D
libRbt.so/2013.1/901 2013/11/27
 22 24  0  0  0  0  0  0  0  0999 V2000
   -6.7396  -26.9255   32.0434 C   0  0  0  0  0  0  0  0  0  0  0  0
   -6.4289  -28.1566   32.6585 C   0  0  0  0  0  0  0  0  0  0  0  0
   -6.1198  -29.2584   31.8655 C   0  0  0  0  0  0  0  0  0  0  0  0
   -6.1230  -29.1266   30.4659 C   0  0  0  0  0  0  0  0  0  0  0  0
   -6.4441  -27.8936   29.8468 C   0  0  0  0  0  0  0  0  0  0  0  0
   -6.7528  -26.7963   30.6392 C   0  0  0  0  0  0  0  0  0  0  0  0
   -7.1015  -25.7013   32.9062 C   0  0  0  0  0  0  0  0  0  0  0  0
   -6.8377  -24.3289   32.2379 C   0  0  0  0  0  0  0  0  0  0  0  0
   -7.0812  -23.1391   33.1592 C   0  0  0  0  0  0  0  0  0  0  0  0
   -8.1854  -22.2874   33.0582 C   0  0  0  0  0  0  0  0  0  0  0  0
   -8.0593  -21.3606   34.0437 N   0  0  0  0  0  0  0  0  0  0  0  0
   -6.9210  -21.5518   34.8012 C   0  0  0  0  0  0  0  0  0  0  0  0
   -6.2722  -22.6659   34.2801 C   0  0  0  0  0  0  0  0  0  0  0  0
   -5.0393  -23.0716   34.9184 C   0  0  0  0  0  0  0  0  0  0  0  0
   -4.3408  -24.1830   34.4546 O   0  0  0  0  0  0  0  0  0  0  0  0
   -4.5624  -22.3365   35.9955 N   0  0  0  0  0  0  0  0  0  0  0  0
   -5.2388  -21.2546   36.4799 C   0  0  0  0  0  0  0  0  0  0  0  0
   -6.3856  -20.8496   35.9119 N   0  0  0  0  0  0  0  0  0  0  0  0
   -4.7033  -20.5196   37.6304 N   0  0  0  0  0  0  0  0  0  0  0  0
   -5.7902  -30.3356   29.6323 C   0  0  0  0  0  0  0  0  0  0  0  0
   -4.8998  -30.2768   28.7863 O   0  0  0  0  0  0  0  0  0  0  0  0
   -6.5344  -31.5492   29.8403 N   0  0  0  0  0  0  0  0  0  0  0  0
  1  2  2  0  0  0  0
  1  6  1  0  0  0  0
  1  7  1  0  0  0  0
  2  3  1  0  0  0  0
  3  4  2  0  0  0  0
  4  5  1  0  0  0  0
  4 20  1  0  0  0  0
  5  6  2  0  0  0  0
  7  8  1  0  0  0  0
  8  9  1  0  0  0  0
  9 10  2  0  0  0  0
  9 13  1  0  0  0  0
 10 11  1  0  0  0  0
 11 12  1  0  0  0  0
 12 13  2  0  0  0  0
 12 18  1  0  0  0  0
 13 14  1  0  0  0  0
 14 15  1  0  0  0  0
 14 16  2  0  0  0  0
 16 17  1  0  0  0  0
 17 18  2  0  0  0  0
 17 19  1  0  0  0  0
 20 21  2  0  0  0  0
 20 22  1  0  0  0  0
M  END
>  <CHROM.1>
155.18697344,-126.16812479,-174.59408833,-106.14937794,-6.16829731,-25.15364510
32.99979221,1.58726740,0.64605921,-2.55900489

>  <Name>
ligand

>  <RI>
0

>  <Rbt.Current_Directory>
/home/itssahil/PROJECTS/Mol_Feturizer/New_Systems/rnas/4LVY

>  <Rbt.Executable>
rbdock ($Id: //depot/dev/client3/rdock/2013.1/src/exe/rbdock.cxx#4 $)

>  <Rbt.Library>
libRbt.so (2013.1, Build901 2013/11/27)

>  <Rbt.Parameter_File>
/export/apps/rDock/src/rDock_2013.1_src/data/scripts/dock_solv.prm

>  <Rbt.Receptor>
prm/blind_docking_60.prm

>  <SCORE>
-18.4915

>  <SCORE.INTER>
-18.5469

>  <SCORE.INTER.CONST>
1

>  <SCORE.INTER.POLAR>
0

>  <SCORE.INTER.ROT>
4

>  <SCORE.INTER.SOLV>
9.25066

>  <SCORE.INTER.VDW>
-21.7148

>  <SCORE.INTER.norm>
-0.84304

>  <SCORE.INTRA>
0.0554034

>  <SCORE.INTRA.DIHEDRAL>
0.062844

>  <SCORE.INTRA.DIHEDRAL.0>
6.18831

>  <SCORE.INTRA.POLAR>
0

>  <SCORE.INTRA.POLAR.0>
0

>  <SCORE.INTRA.REPUL>
0

>  <SCORE.INTRA.REPUL.0>
0

>  <SCORE.INTRA.SOLV>
0.232771

>  <SCORE.INTRA.SOLV.lig_0>
-44.3465

>  <SCORE.INTRA.VDW>
-0.0924044

>  <SCORE.INTRA.VDW.0>
-0.778272

>  <SCORE.INTRA.norm>
0.00251834

>  <SCORE.RESTR>
0

>  <SCORE.RESTR.CAVITY>
0

>  <SCORE.RESTR.norm>
0

>  <SCORE.SYSTEM>
0

>  <SCORE.SYSTEM.CONST>
0

>  <SCORE.SYSTEM.DIHEDRAL>
0

>  <SCORE.SYSTEM.SOLV>
0

>  <SCORE.SYSTEM.norm>
0

>  <SCORE.heavy>
22

>  <SCORE.norm>
-0.840521

>  <RMSD>
32.363

$$$$
ligand
 OpenBabel11021811503D
libRbt.so/2013.1/901 2013/11/27
 22 24  0  0  0  0  0  0  0  0999 V2000
   -6.7718  -26.9233   32.0308 C   0  0  0  0  0  0  0  0  0  0  0  0
   -6.4117  -28.1419   32.6440 C   0  0  0  0  0  0  0  0  0  0  0  0
   -6.1022  -29.2421   31.8490 C   0  0  0  0  0  0  0  0  0  0  0  0
   -6.1542  -29.1213   30.4494 C   0  0  0  0  0  0  0  0  0  0  0  0
   -6.5248  -27.9010   29.8325 C   0  0  0  0  0  0  0  0  0  0  0  0
   -6.8338  -26.8053   30.6269 C   0  0  0  0  0  0  0  0  0  0  0  0
   -7.1347  -25.7014   32.8965 C   0  0  0  0  0  0  0  0  0  0  0  0
   -6.7854  -24.3285   32.2695 C   0  0  0  0  0  0  0  0  0  0  0  0
   -7.0428  -23.1458   33.1961 C   0  0  0  0  0  0  0  0  0  0  0  0
   -8.1582  -22.3081   33.1004 C   0  0  0  0  0  0  0  0  0  0  0  0
   -8.0424  -21.3838   34.0895 N   0  0  0  0  0  0  0  0  0  0  0  0
   -6.9004  -21.5633   34.8443 C   0  0  0  0  0  0  0  0  0  0  0  0
   -6.2381  -22.6666   34.3175 C   0  0  0  0  0  0  0  0  0  0  0  0
   -4.9989  -23.0589   34.9521 C   0  0  0  0  0  0  0  0  0  0  0  0
   -4.2868  -24.1592   34.4826 O   0  0  0  0  0  0  0  0  0  0  0  0
   -4.5297  -22.3220   36.0314 N   0  0  0  0  0  0  0  0  0  0  0  0
   -5.2193  -21.2510   36.5214 C   0  0  0  0  0  0  0  0  0  0  0  0
   -6.3722  -20.8587   35.9570 N   0  0  0  0  0  0  0  0  0  0  0  0
   -4.6914  -20.5138   37.6739 N   0  0  0  0  0  0  0  0  0  0  0  0
   -5.8198  -30.3284   29.6138 C   0  0  0  0  0  0  0  0  0  0  0  0
   -4.9026  -30.2792   28.7963 O   0  0  0  0  0  0  0  0  0  0  0  0
   -6.5941  -31.5287   29.7860 N   0  0  0  0  0  0  0  0  0  0  0  0
  1  2  2  0  0  0  0
  1  6  1  0  0  0  0
  1  7  1  0  0  0  0
  2  3  1  0  0  0  0
  3  4  2  0  0  0  0
  4  5  1  0  0  0  0
  4 20  1  0  0  0  0
  5  6  2  0  0  0  0
  7  8  1  0  0  0  0
  8  9  1  0  0  0  0
  9 10  2  0  0  0  0
  9 13  1  0  0  0  0
 10 11  1  0  0  0  0
 11 12  1  0  0  0  0
 12 13  2  0  0  0  0
 12 18  1  0  0  0  0
 13 14  1  0  0  0  0
 14 15  1  0  0  0  0
 14 16  2  0  0  0  0
 16 17  1  0  0  0  0
 17 18  2  0  0  0  0
 17 19  1  0  0  0  0
 20 21  2  0  0  0  0
 20 22  1  0  0  0  0
M  END
>  <CHROM.1>
148.96837829,-121.62617297,-174.95446422,-101.67496439,-6.16542950,-25.15175274
33.01409886,1.59564691,0.63059250,-2.55745847

>  <Name>
ligand

>  <RI>
0

>  <Rbt.Current_Directory>
/home/itssahil/PROJECTS/Mol_Feturizer/New_Systems/rnas/4LVY

>  <Rbt.Executable>
rbdock ($Id: //depot/dev/client3/rdock/2013.1/src/exe/rbdock.cxx#4 $)

>  <Rbt.Library>
libRbt.so (2013.1, Build901 2013/11/27)

>  <Rbt.Parameter_File>
/export/apps/rDock/src/rDock_2013.1_src/data/scripts/dock_solv.prm

>  <Rbt.Receptor>
prm/blind_docking_100.prm

>  <SCORE>
-18.4602

>  <SCORE.INTER>
-18.4039

>  <SCORE.INTER.CONST>
1

>  <SCORE.INTER.POLAR>
0

>  <SCORE.INTER.ROT>
4

>  <SCORE.INTER.SOLV>
9.26172

>  <SCORE.INTER.VDW>
-21.6232

>  <SCORE.INTER.norm>
-0.83654

>  <SCORE.INTRA>
-0.0563179

>  <SCORE.INTRA.DIHEDRAL>
0.0349198

>  <SCORE.INTRA.DIHEDRAL.0>
6.18831

>  <SCORE.INTRA.POLAR>
0

>  <SCORE.INTRA.POLAR.0>
0

>  <SCORE.INTRA.REPUL>
0

>  <SCORE.INTRA.REPUL.0>
0

>  <SCORE.INTRA.SOLV>
0.210929

>  <SCORE.INTRA.SOLV.lig_0>
-44.3465

>  <SCORE.INTRA.VDW>
-0.179243

>  <SCORE.INTRA.VDW.0>
-0.778272

>  <SCORE.INTRA.norm>
-0.00255991

>  <SCORE.RESTR>
0

>  <SCORE.RESTR.CAVITY>
0

>  <SCORE.RESTR.norm>
0

>  <SCORE.SYSTEM>
0

>  <SCORE.SYSTEM.CONST>
0

>  <SCORE.SYSTEM.DIHEDRAL>
0

>  <SCORE.SYSTEM.SOLV>
0

>  <SCORE.SYSTEM.norm>
0

>  <SCORE.heavy>
22

>  <SCORE.norm>
-0.8391

>  <RMSD>
32.369

$$$$
ligand
 OpenBabel11021811503D
libRbt.so/2013.1/901 2013/11/27
 22 24  0  0  0  0  0  0  0  0999 V2000
   -6.5937  -22.7656   33.9061 C   0  0  0  0  0  0  0  0  0  0  0  0
   -5.2720  -22.7425   34.3990 C   0  0  0  0  0  0  0  0  0  0  0  0
   -4.8534  -21.6709   35.1832 C   0  0  0  0  0  0  0  0  0  0  0  0
   -5.7535  -20.6299   35.4700 C   0  0  0  0  0  0  0  0  0  0  0  0
   -7.0780  -20.6472   34.9678 C   0  0  0  0  0  0  0  0  0  0  0  0
   -7.4933  -21.7162   34.1855 C   0  0  0  0  0  0  0  0  0  0  0  0
   -7.0673  -23.9354   33.0220 C   0  0  0  0  0  0  0  0  0  0  0  0
   -7.2765  -25.2766   33.7685 C   0  0  0  0  0  0  0  0  0  0  0  0
   -7.7046  -26.4248   32.8620 C   0  0  0  0  0  0  0  0  0  0  0  0
   -8.9528  -27.0508   32.9325 C   0  0  0  0  0  0  0  0  0  0  0  0
   -8.9661  -28.0121   31.9724 N   0  0  0  0  0  0  0  0  0  0  0  0
   -7.7838  -28.0596   31.2610 C   0  0  0  0  0  0  0  0  0  0  0  0
   -6.9569  -27.0730   31.7870 C   0  0  0  0  0  0  0  0  0  0  0  0
   -5.6458  -26.9243   31.1944 C   0  0  0  0  0  0  0  0  0  0  0  0
   -4.7684  -25.9513   31.6652 O   0  0  0  0  0  0  0  0  0  0  0  0
   -5.2751  -27.7659   30.1541 N   0  0  0  0  0  0  0  0  0  0  0  0
   -6.1244  -28.7147   29.6631 C   0  0  0  0  0  0  0  0  0  0  0  0
   -7.3481  -28.8809   30.1891 N   0  0  0  0  0  0  0  0  0  0  0  0
   -5.6933  -29.5692   28.5520 N   0  0  0  0  0  0  0  0  0  0  0  0
   -5.2728  -19.4807   36.3159 C   0  0  0  0  0  0  0  0  0  0  0  0
   -5.5461  -18.3242   36.0002 O   0  0  0  0  0  0  0  0  0  0  0  0
   -4.4875  -19.7619   37.4883 N   0  0  0  0  0  0  0  0  0  0  0  0
  1  2  2  0  0  0  0
  1  6  1  0  0  0  0
  1  7  1  0  0  0  0
  2  3  1  0  0  0  0
  3  4  2  0  0  0  0
  4  5  1  0  0  0  0
  4 20  1  0  0  0  0
  5  6  2  0  0  0  0
  7  8  1  0  0  0  0
  8  9  1  0  0  0  0
  9 10  2  0  0  0  0
  9 13  1  0  0  0  0
 10 11  1  0  0  0  0
 11 12  1  0  0  0  0
 12 13  2  0  0  0  0
 12 18  1  0  0  0  0
 13 14  1  0  0  0  0
 14 15  1  0  0  0  0
 14 16  2  0  0  0  0
 16 17  1  0  0  0  0
 17 18  2  0  0  0  0
 17 19  1  0  0  0  0
 20 21  2  0  0  0  0
 20 22  1  0  0  0  0
M  END
>  <CHROM.1>
72.24985305,136.04604007,-178.27563472,-113.87092734,-6.42134181,-24.61554585
33.02186758,1.44479301,0.32746315,0.61771144

>  <Name>
ligand

>  <RI>
0

>  <Rbt.Current_Directory>
/home/itssahil/PROJECTS/Mol_Feturizer/New_Systems/rnas/4LVY

>  <Rbt.Executable>
rbdock ($Id: //depot/dev/client3/rdock/2013.1/src/exe/rbdock.cxx#4 $)

>  <Rbt.Library>
libRbt.so (2013.1, Build901 2013/11/27)

>  <Rbt.Parameter_File>
/export/apps/rDock/src/rDock_2013.1_src/data/scripts/dock_solv.prm

>  <Rbt.Receptor>
prm/blind_docking_60.prm

>  <SCORE>
-10.7592

>  <SCORE.INTER>
-10.2784

>  <SCORE.INTER.CONST>
1

>  <SCORE.INTER.POLAR>
0

>  <SCORE.INTER.ROT>
4

>  <SCORE.INTER.SOLV>
10.0363

>  <SCORE.INTER.VDW>
-16.4644

>  <SCORE.INTER.norm>
-0.467199

>  <SCORE.INTRA>
-0.480854

>  <SCORE.INTRA.DIHEDRAL>
0.0510387

>  <SCORE.INTRA.DIHEDRAL.0>
6.18831

>  <SCORE.INTRA.POLAR>
0

>  <SCORE.INTRA.POLAR.0>
0

>  <SCORE.INTRA.REPUL>
0

>  <SCORE.INTRA.REPUL.0>
0

>  <SCORE.INTRA.SOLV>
0.271153

>  <SCORE.INTRA.SOLV.lig_0>
-44.3465

>  <SCORE.INTRA.VDW>
-0.64195

>  <SCORE.INTRA.VDW.0>
-0.778272

>  <SCORE.INTRA.norm>
-0.021857

>  <SCORE.RESTR>
0

>  <SCORE.RESTR.CAVITY>
0

>  <SCORE.RESTR.norm>
0

>  <SCORE.SYSTEM>
0

>  <SCORE.SYSTEM.CONST>
0

>  <SCORE.SYSTEM.DIHEDRAL>
0

>  <SCORE.SYSTEM.SOLV>
0

>  <SCORE.SYSTEM.norm>
0

>  <SCORE.heavy>
22

>  <SCORE.norm>
-0.489056

>  <RMSD>
32.508

$$$$
ligand
 OpenBabel11021811503D
libRbt.so/2013.1/901 2013/11/27
 22 24  0  0  0  0  0  0  0  0999 V2000
   -4.7564  -23.6101   34.5836 C   0  0  0  0  0  0  0  0  0  0  0  0
   -3.7101  -22.9096   35.2201 C   0  0  0  0  0  0  0  0  0  0  0  0
   -3.8410  -21.5420   35.4456 C   0  0  0  0  0  0  0  0  0  0  0  0
   -5.0122  -20.8817   35.0350 C   0  0  0  0  0  0  0  0  0  0  0  0
   -6.0595  -21.5820   34.3873 C   0  0  0  0  0  0  0  0  0  0  0  0
   -5.9268  -22.9455   34.1627 C   0  0  0  0  0  0  0  0  0  0  0  0
   -4.6198  -25.1203   34.3105 C   0  0  0  0  0  0  0  0  0  0  0  0
   -5.6005  -26.0199   35.1035 C   0  0  0  0  0  0  0  0  0  0  0  0
   -7.0517  -25.8925   34.6550 C   0  0  0  0  0  0  0  0  0  0  0  0
   -7.9667  -24.9979   35.2185 C   0  0  0  0  0  0  0  0  0  0  0  0
   -9.1425  -25.1702   34.5598 N   0  0  0  0  0  0  0  0  0  0  0  0
   -9.0580  -26.1393   33.5801 C   0  0  0  0  0  0  0  0  0  0  0  0
   -7.7543  -26.6225   33.6023 C   0  0  0  0  0  0  0  0  0  0  0  0
   -7.4167  -27.6577   32.6502 C   0  0  0  0  0  0  0  0  0  0  0  0
   -6.1277  -28.1822   32.6103 O   0  0  0  0  0  0  0  0  0  0  0  0
   -8.3953  -28.1216   31.7812 N   0  0  0  0  0  0  0  0  0  0  0  0
   -9.6606  -27.6102   31.7886 C   0  0  0  0  0  0  0  0  0  0  0  0
  -10.0090  -26.6493   32.6586 N   0  0  0  0  0  0  0  0  0  0  0  0
  -10.6553  -28.1213   30.8400 N   0  0  0  0  0  0  0  0  0  0  0  0
   -5.1250  -19.4014   35.2865 C   0  0  0  0  0  0  0  0  0  0  0  0
   -6.2062  -18.9091   35.6039 O   0  0  0  0  0  0  0  0  0  0  0  0
   -3.9520  -18.5808   35.1423 N   0  0  0  0  0  0  0  0  0  0  0  0
  1  2  2  0  0  0  0
  1  6  1  0  0  0  0
  1  7  1  0  0  0  0
  2  3  1  0  0  0  0
  3  4  2  0  0  0  0
  4  5  1  0  0  0  0
  4 20  1  0  0  0  0
  5  6  2  0  0  0  0
  7  8  1  0  0  0  0
  8  9  1  0  0  0  0
  9 10  2  0  0  0  0
  9 13  1  0  0  0  0
 10 11  1  0  0  0  0
 11 12  1  0  0  0  0
 12 13  2  0  0  0  0
 12 18  1  0  0  0  0
 13 14  1  0  0  0  0
 14 15  1  0  0  0  0
 14 16  2  0  0  0  0
 16 17  1  0  0  0  0
 17 18  2  0  0  0  0
 17 19  1  0  0  0  0
 20 21  2  0  0  0  0
 20 22  1  0  0  0  0
M  END
>  <CHROM.1>
113.69714827,-142.85296994,69.92617441,-91.80381866,-6.75025313,-24.41946762
33.98741173,-1.07490060,0.25857236,-2.90755699

>  <Name>
ligand

>  <RI>
0

>  <Rbt.Current_Directory>
/home/itssahil/PROJECTS/Mol_Feturizer/New_Systems/rnas/4LVY

>  <Rbt.Executable>
rbdock ($Id: //depot/dev/client3/rdock/2013.1/src/exe/rbdock.cxx#4 $)

>  <Rbt.Library>
libRbt.so (2013.1, Build901 2013/11/27)

>  <Rbt.Parameter_File>
/export/apps/rDock/src/rDock_2013.1_src/data/scripts/dock_solv.prm

>  <Rbt.Receptor>
prm/blind_docking_100.prm

>  <SCORE>
-13.499

>  <SCORE.INTER>
-12.8129

>  <SCORE.INTER.CONST>
1

>  <SCORE.INTER.POLAR>
0

>  <SCORE.INTER.ROT>
4

>  <SCORE.INTER.SOLV>
8.07586

>  <SCORE.INTER.VDW>
-17.5005

>  <SCORE.INTER.norm>
-0.582403

>  <SCORE.INTRA>
-0.68612

>  <SCORE.INTRA.DIHEDRAL>
0.454943

>  <SCORE.INTRA.DIHEDRAL.0>
6.18831

>  <SCORE.INTRA.POLAR>
0

>  <SCORE.INTRA.POLAR.0>
0

>  <SCORE.INTRA.REPUL>
0

>  <SCORE.INTRA.REPUL.0>
0

>  <SCORE.INTRA.SOLV>
0.17341

>  <SCORE.INTRA.SOLV.lig_0>
-44.3465

>  <SCORE.INTRA.VDW>
-1.0003

>  <SCORE.INTRA.VDW.0>
-0.778272

>  <SCORE.INTRA.norm>
-0.0311873

>  <SCORE.RESTR>
0

>  <SCORE.RESTR.CAVITY>
0

>  <SCORE.RESTR.norm>
0

>  <SCORE.SYSTEM>
0

>  <SCORE.SYSTEM.CONST>
0

>  <SCORE.SYSTEM.DIHEDRAL>
0

>  <SCORE.SYSTEM.SOLV>
0

>  <SCORE.SYSTEM.norm>
0

>  <SCORE.heavy>
22

>  <SCORE.norm>
-0.61359

>  <RMSD>
32.517

$$$$
ligand
 OpenBabel11021811503D
libRbt.so/2013.1/901 2013/11/27
 22 24  0  0  0  0  0  0  0  0999 V2000
   -8.1934  -26.5246   31.9417 C   0  0  0  0  0  0  0  0  0  0  0  0
   -7.6065  -26.9097   30.7178 C   0  0  0  0  0  0  0  0  0  0  0  0
   -8.3280  -27.7089   29.8352 C   0  0  0  0  0  0  0  0  0  0  0  0
   -9.6281  -28.1195   30.1778 C   0  0  0  0  0  0  0  0  0  0  0  0
  -10.2150  -27.7414   31.4105 C   0  0  0  0  0  0  0  0  0  0  0  0
   -9.4937  -26.9450   32.2896 C   0  0  0  0  0  0  0  0  0  0  0  0
   -7.4016  -25.6552   32.9374 C   0  0  0  0  0  0  0  0  0  0  0  0
   -6.8319  -24.3403   32.3487 C   0  0  0  0  0  0  0  0  0  0  0  0
   -6.9994  -23.1331   33.2642 C   0  0  0  0  0  0  0  0  0  0  0  0
   -8.0736  -22.2412   33.1905 C   0  0  0  0  0  0  0  0  0  0  0  0
   -7.8797  -21.3102   34.1609 N   0  0  0  0  0  0  0  0  0  0  0  0
   -6.7246  -21.5369   34.8823 C   0  0  0  0  0  0  0  0  0  0  0  0
   -6.1360  -22.6798   34.3523 C   0  0  0  0  0  0  0  0  0  0  0  0
   -4.8984  -23.1257   34.9538 C   0  0  0  0  0  0  0  0  0  0  0  0
   -4.2582  -24.2673   34.4795 O   0  0  0  0  0  0  0  0  0  0  0  0
   -4.3583  -22.3986   36.0062 N   0  0  0  0  0  0  0  0  0  0  0  0
   -4.9769  -21.2871   36.5007 C   0  0  0  0  0  0  0  0  0  0  0  0
   -6.1261  -20.8445   35.9667 N   0  0  0  0  0  0  0  0  0  0  0  0
   -4.3757  -20.5617   37.6245 N   0  0  0  0  0  0  0  0  0  0  0  0
  -10.3837  -28.9878   29.2071 C   0  0  0  0  0  0  0  0  0  0  0  0
  -10.9549  -30.0029   29.6012 O   0  0  0  0  0  0  0  0  0  0  0  0
  -10.4174  -28.6112   27.8189 N   0  0  0  0  0  0  0  0  0  0  0  0
  1  2  2  0  0  0  0
  1  6  1  0  0  0  0
  1  7  1  0  0  0  0
  2  3  1  0  0  0  0
  3  4  2  0  0  0  0
  4  5  1  0  0  0  0
  4 20  1  0  0  0  0
  5  6  2  0  0  0  0
  7  8  1  0  0  0  0
  8  9  1  0  0  0  0
  9 10  2  0  0  0  0
  9 13  1  0  0  0  0
 10 11  1  0  0  0  0
 11 12  1  0  0  0  0
 12 13  2  0  0  0  0
 12 18  1  0  0  0  0
 13 14  1  0  0  0  0
 14 15  1  0  0  0  0
 14 16  2  0  0  0  0
 16 17  1  0  0  0  0
 17 18  2  0  0  0  0
 17 19  1  0  0  0  0
 20 21  2  0  0  0  0
 20 22  1  0  0  0  0
M  END
>  <CHROM.1>
53.88797734,132.10000138,137.15427851,-94.06366156,-7.43628112,-24.76822597
32.91619563,-2.08787684,-0.44051446,0.48154914

>  <Name>
ligand

>  <RI>
0

>  <Rbt.Current_Directory>
/home/itssahil/PROJECTS/Mol_Feturizer/New_Systems/rnas/4LVY

>  <Rbt.Executable>
rbdock ($Id: //depot/dev/client3/rdock/2013.1/src/exe/rbdock.cxx#4 $)

>  <Rbt.Library>
libRbt.so (2013.1, Build901 2013/11/27)

>  <Rbt.Parameter_File>
/export/apps/rDock/src/rDock_2013.1_src/data/scripts/dock_solv.prm

>  <Rbt.Receptor>
prm/blind_docking_80.prm

>  <SCORE>
-11.7927

>  <SCORE.INTER>
-13.8834

>  <SCORE.INTER.CONST>
1

>  <SCORE.INTER.POLAR>
0

>  <SCORE.INTER.ROT>
4

>  <SCORE.INTER.SOLV>
6.32861

>  <SCORE.INTER.VDW>
-17.6318

>  <SCORE.INTER.norm>
-0.631063

>  <SCORE.INTRA>
2.09069

>  <SCORE.INTRA.DIHEDRAL>
4.92205

>  <SCORE.INTRA.DIHEDRAL.0>
6.18831

>  <SCORE.INTRA.POLAR>
0

>  <SCORE.INTRA.POLAR.0>
0

>  <SCORE.INTRA.REPUL>
0

>  <SCORE.INTRA.REPUL.0>
0

>  <SCORE.INTRA.SOLV>
0.179206

>  <SCORE.INTRA.SOLV.lig_0>
-44.3465

>  <SCORE.INTRA.VDW>
-0.459938

>  <SCORE.INTRA.VDW.0>
-0.778272

>  <SCORE.INTRA.norm>
0.0950315

>  <SCORE.RESTR>
0

>  <SCORE.RESTR.CAVITY>
0

>  <SCORE.RESTR.norm>
0

>  <SCORE.SYSTEM>
0

>  <SCORE.SYSTEM.CONST>
0

>  <SCORE.SYSTEM.DIHEDRAL>
0

>  <SCORE.SYSTEM.SOLV>
0

>  <SCORE.SYSTEM.norm>
0

>  <SCORE.heavy>
22

>  <SCORE.norm>
-0.536032

>  <RMSD>
32.597

$$$$
ligand
 OpenBabel11021811503D
libRbt.so/2013.1/901 2013/11/27
 22 24  0  0  0  0  0  0  0  0999 V2000
   -6.0663  -23.3260   33.8953 C   0  0  0  0  0  0  0  0  0  0  0  0
   -4.7923  -23.7504   34.3282 C   0  0  0  0  0  0  0  0  0  0  0  0
   -3.9389  -22.8367   34.9407 C   0  0  0  0  0  0  0  0  0  0  0  0
   -4.3598  -21.5070   35.1168 C   0  0  0  0  0  0  0  0  0  0  0  0
   -5.6350  -21.0772   34.6741 C   0  0  0  0  0  0  0  0  0  0  0  0
   -6.4842  -21.9897   34.0630 C   0  0  0  0  0  0  0  0  0  0  0  0
   -7.0158  -24.3204   33.1997 C   0  0  0  0  0  0  0  0  0  0  0  0
   -7.2970  -25.6208   33.9932 C   0  0  0  0  0  0  0  0  0  0  0  0
   -8.4386  -26.4546   33.4231 C   0  0  0  0  0  0  0  0  0  0  0  0
   -9.5102  -26.9332   34.1830 C   0  0  0  0  0  0  0  0  0  0  0  0
  -10.3185  -27.6208   33.3345 N   0  0  0  0  0  0  0  0  0  0  0  0
   -9.8381  -27.6253   32.0402 C   0  0  0  0  0  0  0  0  0  0  0  0
   -8.6526  -26.8987   32.0476 C   0  0  0  0  0  0  0  0  0  0  0  0
   -7.9555  -26.7580   30.7880 C   0  0  0  0  0  0  0  0  0  0  0  0
   -6.7668  -26.0366   30.7197 O   0  0  0  0  0  0  0  0  0  0  0  0
   -8.4863  -27.3542   29.6519 N   0  0  0  0  0  0  0  0  0  0  0  0
   -9.6594  -28.0505   29.6900 C   0  0  0  0  0  0  0  0  0  0  0  0
  -10.3326  -28.2014   30.8414 N   0  0  0  0  0  0  0  0  0  0  0  0
  -10.1885  -28.6485   28.4600 N   0  0  0  0  0  0  0  0  0  0  0  0
   -3.4147  -20.5386   35.7773 C   0  0  0  0  0  0  0  0  0  0  0  0
   -2.8119  -20.8627   36.7989 O   0  0  0  0  0  0  0  0  0  0  0  0
   -3.2384  -19.2342   35.1963 N   0  0  0  0  0  0  0  0  0  0  0  0
  1  2  2  0  0  0  0
  1  6  1  0  0  0  0
  1  7  1  0  0  0  0
  2  3  1  0  0  0  0
  3  4  2  0  0  0  0
  4  5  1  0  0  0  0
  4 20  1  0  0  0  0
  5  6  2  0  0  0  0
  7  8  1  0  0  0  0
  8  9  1  0  0  0  0
  9 10  2  0  0  0  0
  9 13  1  0  0  0  0
 10 11  1  0  0  0  0
 11 12  1  0  0  0  0
 12 13  2  0  0  0  0
 12 18  1  0  0  0  0
 13 14  1  0  0  0  0
 14 15  1  0  0  0  0
 14 16  2  0  0  0  0
 16 17  1  0  0  0  0
 17 18  2  0  0  0  0
 17 19  1  0  0  0  0
 20 21  2  0  0  0  0
 20 22  1  0  0  0  0
M  END
>  <CHROM.1>
54.34964628,-45.73074681,168.57564838,-129.18003680,-7.04375738,-24.81590492
33.02594299,-0.67416228,-0.76434071,-1.82265877

>  <Name>
ligand

>  <RI>
0

>  <Rbt.Current_Directory>
/home/itssahil/PROJECTS/Mol_Feturizer/New_Systems/rnas/4LVY

>  <Rbt.Executable>
rbdock ($Id: //depot/dev/client3/rdock/2013.1/src/exe/rbdock.cxx#4 $)

>  <Rbt.Library>
libRbt.so (2013.1, Build901 2013/11/27)

>  <Rbt.Parameter_File>
/export/apps/rDock/src/rDock_2013.1_src/data/scripts/dock_solv.prm

>  <Rbt.Receptor>
prm/blind_docking_80.prm

>  <SCORE>
-11.8348

>  <SCORE.INTER>
-11.9354

>  <SCORE.INTER.CONST>
1

>  <SCORE.INTER.POLAR>
0

>  <SCORE.INTER.ROT>
4

>  <SCORE.INTER.SOLV>
9.34022

>  <SCORE.INTER.VDW>
-17.337

>  <SCORE.INTER.norm>
-0.542516

>  <SCORE.INTRA>
0.100545

>  <SCORE.INTRA.DIHEDRAL>
0.561556

>  <SCORE.INTRA.DIHEDRAL.0>
6.18831

>  <SCORE.INTRA.POLAR>
0

>  <SCORE.INTRA.POLAR.0>
0

>  <SCORE.INTRA.REPUL>
0

>  <SCORE.INTRA.REPUL.0>
0

>  <SCORE.INTRA.SOLV>
0.340414

>  <SCORE.INTRA.SOLV.lig_0>
-44.3465

>  <SCORE.INTRA.VDW>
-0.35044

>  <SCORE.INTRA.VDW.0>
-0.778272

>  <SCORE.INTRA.norm>
0.00457021

>  <SCORE.RESTR>
0

>  <SCORE.RESTR.CAVITY>
0

>  <SCORE.RESTR.norm>
0

>  <SCORE.SYSTEM>
0

>  <SCORE.SYSTEM.CONST>
0

>  <SCORE.SYSTEM.DIHEDRAL>
0

>  <SCORE.SYSTEM.SOLV>
0

>  <SCORE.SYSTEM.norm>
0

>  <SCORE.heavy>
22

>  <SCORE.norm>
-0.537946

>  <RMSD>
32.627

$$$$
ligand
 OpenBabel11021811503D
libRbt.so/2013.1/901 2013/11/27
 22 24  0  0  0  0  0  0  0  0999 V2000
   -6.7512  -27.1291   30.9545 C   0  0  0  0  0  0  0  0  0  0  0  0
   -5.3707  -27.3941   30.8340 C   0  0  0  0  0  0  0  0  0  0  0  0
   -4.9420  -28.4201   29.9963 C   0  0  0  0  0  0  0  0  0  0  0  0
   -5.8909  -29.1754   29.2854 C   0  0  0  0  0  0  0  0  0  0  0  0
   -7.2779  -28.9166   29.4127 C   0  0  0  0  0  0  0  0  0  0  0  0
   -7.7034  -27.8935   30.2490 C   0  0  0  0  0  0  0  0  0  0  0  0
   -7.2432  -26.0089   31.8911 C   0  0  0  0  0  0  0  0  0  0  0  0
   -6.4155  -24.7004   31.8371 C   0  0  0  0  0  0  0  0  0  0  0  0
   -6.9442  -23.6001   32.7500 C   0  0  0  0  0  0  0  0  0  0  0  0
   -7.6746  -22.4964   32.2993 C   0  0  0  0  0  0  0  0  0  0  0  0
   -7.9721  -21.7477   33.3934 N   0  0  0  0  0  0  0  0  0  0  0  0
   -7.4747  -22.2988   34.5574 C   0  0  0  0  0  0  0  0  0  0  0  0
   -6.8190  -23.4718   34.2001 C   0  0  0  0  0  0  0  0  0  0  0  0
   -6.2099  -24.2393   35.2642 C   0  0  0  0  0  0  0  0  0  0  0  0
   -5.5441  -25.4285   34.9804 O   0  0  0  0  0  0  0  0  0  0  0  0
   -6.2962  -23.7720   36.5689 N   0  0  0  0  0  0  0  0  0  0  0  0
   -6.9594  -22.6189   36.8743 C   0  0  0  0  0  0  0  0  0  0  0  0
   -7.5358  -21.8815   35.9122 N   0  0  0  0  0  0  0  0  0  0  0  0
   -7.0374  -22.1746   38.2697 N   0  0  0  0  0  0  0  0  0  0  0  0
   -5.3999  -30.2825   28.3907 C   0  0  0  0  0  0  0  0  0  0  0  0
   -6.1951  -30.9192   27.7021 O   0  0  0  0  0  0  0  0  0  0  0  0
   -3.9928  -30.5815   28.3638 N   0  0  0  0  0  0  0  0  0  0  0  0
  1  2  2  0  0  0  0
  1  6  1  0  0  0  0
  1  7  1  0  0  0  0
  2  3  1  0  0  0  0
  3  4  2  0  0  0  0
  4  5  1  0  0  0  0
  4 20  1  0  0  0  0
  5  6  2  0  0  0  0
  7  8  1  0  0  0  0
  8  9  1  0  0  0  0
  9 10  2  0  0  0  0
  9 13  1  0  0  0  0
 10 11  1  0  0  0  0
 11 12  1  0  0  0  0
 12 13  2  0  0  0  0
 12 18  1  0  0  0  0
 13 14  1  0  0  0  0
 14 15  1  0  0  0  0
 14 16  2  0  0  0  0
 16 17  1  0  0  0  0
 17 18  2  0  0  0  0
 17 19  1  0  0  0  0
 20 21  2  0  0  0  0
 20 22  1  0  0  0  0
M  END
>  <CHROM.1>
42.48161187,-176.31358742,178.67933150,-103.22523850,-6.51667678,-25.69545697
32.48601752,1.33111492,0.97698127,-2.16456627

>  <Name>
ligand

>  <RI>
0

>  <Rbt.Current_Directory>
/home/itssahil/PROJECTS/Mol_Feturizer/New_Systems/rnas/4LVY

>  <Rbt.Executable>
rbdock ($Id: //depot/dev/client3/rdock/2013.1/src/exe/rbdock.cxx#4 $)

>  <Rbt.Library>
libRbt.so (2013.1, Build901 2013/11/27)

>  <Rbt.Parameter_File>
/export/apps/rDock/src/rDock_2013.1_src/data/scripts/dock_solv.prm

>  <Rbt.Receptor>
prm/blind_docking_80.prm

>  <SCORE>
-17.9301

>  <SCORE.INTER>
-17.8918

>  <SCORE.INTER.CONST>
1

>  <SCORE.INTER.POLAR>
0

>  <SCORE.INTER.ROT>
4

>  <SCORE.INTER.SOLV>
7.81189

>  <SCORE.INTER.VDW>
-20.7985

>  <SCORE.INTER.norm>
-0.813263

>  <SCORE.INTRA>
-0.0383216

>  <SCORE.INTRA.DIHEDRAL>
-0.0447548

>  <SCORE.INTRA.DIHEDRAL.0>
6.18831

>  <SCORE.INTRA.POLAR>
0

>  <SCORE.INTRA.POLAR.0>
0

>  <SCORE.INTRA.REPUL>
0

>  <SCORE.INTRA.REPUL.0>
0

>  <SCORE.INTRA.SOLV>
0.230705

>  <SCORE.INTRA.SOLV.lig_0>
-44.3465

>  <SCORE.INTRA.VDW>
-0.131297

>  <SCORE.INTRA.VDW.0>
-0.778272

>  <SCORE.INTRA.norm>
-0.00174189

>  <SCORE.RESTR>
0

>  <SCORE.RESTR.CAVITY>
0

>  <SCORE.RESTR.norm>
0

>  <SCORE.SYSTEM>
0

>  <SCORE.SYSTEM.CONST>
0

>  <SCORE.SYSTEM.DIHEDRAL>
0

>  <SCORE.SYSTEM.SOLV>
0

>  <SCORE.SYSTEM.norm>
0

>  <SCORE.heavy>
22

>  <SCORE.norm>
-0.815005

>  <RMSD>
32.671

$$$$
ligand
 OpenBabel11021811503D
libRbt.so/2013.1/901 2013/11/27
 22 24  0  0  0  0  0  0  0  0999 V2000
   -4.8854  -23.7754   34.8371 C   0  0  0  0  0  0  0  0  0  0  0  0
   -6.2587  -23.4755   34.9585 C   0  0  0  0  0  0  0  0  0  0  0  0
   -6.6564  -22.1538   35.1406 C   0  0  0  0  0  0  0  0  0  0  0  0
   -5.6839  -21.1404   35.2013 C   0  0  0  0  0  0  0  0  0  0  0  0
   -4.3042  -21.4413   35.0889 C   0  0  0  0  0  0  0  0  0  0  0  0
   -3.9096  -22.7599   34.9082 C   0  0  0  0  0  0  0  0  0  0  0  0
   -4.4276  -25.2351   34.6532 C   0  0  0  0  0  0  0  0  0  0  0  0
   -5.5533  -26.2317   34.2795 C   0  0  0  0  0  0  0  0  0  0  0  0
   -5.8356  -26.3079   32.7835 C   0  0  0  0  0  0  0  0  0  0  0  0
   -5.9626  -25.1885   31.9554 C   0  0  0  0  0  0  0  0  0  0  0  0
   -6.2033  -25.6517   30.7011 N   0  0  0  0  0  0  0  0  0  0  0  0
   -6.2435  -27.0308   30.6498 C   0  0  0  0  0  0  0  0  0  0  0  0
   -6.0144  -27.4892   31.9424 C   0  0  0  0  0  0  0  0  0  0  0  0
   -6.0051  -28.9216   32.1440 C   0  0  0  0  0  0  0  0  0  0  0  0
   -5.7737  -29.4513   33.4105 O   0  0  0  0  0  0  0  0  0  0  0  0
   -6.2329  -29.7579   31.0593 N   0  0  0  0  0  0  0  0  0  0  0  0
   -6.4436  -29.2630   29.8050 C   0  0  0  0  0  0  0  0  0  0  0  0
   -6.4594  -27.9395   29.5815 N   0  0  0  0  0  0  0  0  0  0  0  0
   -6.6634  -30.1871   28.6878 N   0  0  0  0  0  0  0  0  0  0  0  0
   -6.1416  -19.7204   35.4041 C   0  0  0  0  0  0  0  0  0  0  0  0
   -7.3001  -19.4870   35.7441 O   0  0  0  0  0  0  0  0  0  0  0  0
   -5.2043  -18.6506   35.1870 N   0  0  0  0  0  0  0  0  0  0  0  0
  1  2  2  0  0  0  0
  1  6  1  0  0  0  0
  1  7  1  0  0  0  0
  2  3  1  0  0  0  0
  3  4  2  0  0  0  0
  4  5  1  0  0  0  0
  4 20  1  0  0  0  0
  5  6  2  0  0  0  0
  7  8  1  0  0  0  0
  8  9  1  0  0  0  0
  9 10  2  0  0  0  0
  9 13  1  0  0  0  0
 10 11  1  0  0  0  0
 11 12  1  0  0  0  0
 12 13  2  0  0  0  0
 12 18  1  0  0  0  0
 13 14  1  0  0  0  0
 14 15  1  0  0  0  0
 14 16  2  0  0  0  0
 16 17  1  0  0  0  0
 17 18  2  0  0  0  0
 17 19  1  0  0  0  0
 20 21  2  0  0  0  0
 20 22  1  0  0  0  0
M  END
>  <CHROM.1>
13.99482481,12.73208785,85.78875425,-45.58831814,-5.84504101,-25.09850703
33.08547917,-1.42645651,1.18032156,-2.76432272

>  <Name>
ligand

>  <RI>
0

>  <Rbt.Current_Directory>
/home/itssahil/PROJECTS/Mol_Feturizer/New_Systems/rnas/4LVY

>  <Rbt.Executable>
rbdock ($Id: //depot/dev/client3/rdock/2013.1/src/exe/rbdock.cxx#4 $)

>  <Rbt.Library>
libRbt.so (2013.1, Build901 2013/11/27)

>  <Rbt.Parameter_File>
/export/apps/rDock/src/rDock_2013.1_src/data/scripts/dock_solv.prm

>  <Rbt.Receptor>
prm/blind_docking_80.prm

>  <SCORE>
-15.4936

>  <SCORE.INTER>
-16.8334

>  <SCORE.INTER.CONST>
1

>  <SCORE.INTER.POLAR>
0

>  <SCORE.INTER.ROT>
4

>  <SCORE.INTER.SOLV>
16.4344

>  <SCORE.INTER.VDW>
-22.967

>  <SCORE.INTER.norm>
-0.765153

>  <SCORE.INTRA>
1.33971

>  <SCORE.INTRA.DIHEDRAL>
2.36514

>  <SCORE.INTRA.DIHEDRAL.0>
6.18831

>  <SCORE.INTRA.POLAR>
0

>  <SCORE.INTRA.POLAR.0>
0

>  <SCORE.INTRA.REPUL>
0

>  <SCORE.INTRA.REPUL.0>
0

>  <SCORE.INTRA.SOLV>
0.0112596

>  <SCORE.INTRA.SOLV.lig_0>
-44.3465

>  <SCORE.INTRA.VDW>
0.151511

>  <SCORE.INTRA.VDW.0>
-0.778272

>  <SCORE.INTRA.norm>
0.060896

>  <SCORE.RESTR>
0

>  <SCORE.RESTR.CAVITY>
0

>  <SCORE.RESTR.norm>
0

>  <SCORE.SYSTEM>
0

>  <SCORE.SYSTEM.CONST>
0

>  <SCORE.SYSTEM.DIHEDRAL>
0

>  <SCORE.SYSTEM.SOLV>
0

>  <SCORE.SYSTEM.norm>
0

>  <SCORE.heavy>
22

>  <SCORE.norm>
-0.704257

>  <RMSD>
32.759

$$$$
ligand
 OpenBabel11021811503D
libRbt.so/2013.1/901 2013/11/27
 22 24  0  0  0  0  0  0  0  0999 V2000
   -5.9897  -27.2619   32.3798 C   0  0  0  0  0  0  0  0  0  0  0  0
   -5.7684  -26.9190   31.0292 C   0  0  0  0  0  0  0  0  0  0  0  0
   -5.8088  -27.9137   30.0559 C   0  0  0  0  0  0  0  0  0  0  0  0
   -6.0683  -29.2424   30.4344 C   0  0  0  0  0  0  0  0  0  0  0  0
   -6.2812  -29.5896   31.7912 C   0  0  0  0  0  0  0  0  0  0  0  0
   -6.2399  -28.5965   32.7603 C   0  0  0  0  0  0  0  0  0  0  0  0
   -5.9307  -26.1760   33.4713 C   0  0  0  0  0  0  0  0  0  0  0  0
   -7.2944  -25.8199   34.1143 C   0  0  0  0  0  0  0  0  0  0  0  0
   -7.1897  -24.8350   35.2730 C   0  0  0  0  0  0  0  0  0  0  0  0
   -7.1200  -25.2157   36.6165 C   0  0  0  0  0  0  0  0  0  0  0  0
   -7.0304  -24.0726   37.3455 N   0  0  0  0  0  0  0  0  0  0  0  0
   -7.0366  -22.9426   36.5523 C   0  0  0  0  0  0  0  0  0  0  0  0
   -7.1339  -23.3755   35.2345 C   0  0  0  0  0  0  0  0  0  0  0  0
   -7.1552  -22.3598   34.2049 C   0  0  0  0  0  0  0  0  0  0  0  0
   -7.2427  -22.7212   32.8633 O   0  0  0  0  0  0  0  0  0  0  0  0
   -7.0904  -21.0227   34.5735 N   0  0  0  0  0  0  0  0  0  0  0  0
   -6.9854  -20.6443   35.8805 C   0  0  0  0  0  0  0  0  0  0  0  0
   -6.9634  -21.5598   36.8619 N   0  0  0  0  0  0  0  0  0  0  0  0
   -6.9034  -19.2198   36.2192 N   0  0  0  0  0  0  0  0  0  0  0  0
   -6.1009  -30.2989   29.3619 C   0  0  0  0  0  0  0  0  0  0  0  0
   -7.1165  -30.9693   29.1855 O   0  0  0  0  0  0  0  0  0  0  0  0
   -4.9259  -30.5101   28.5589 N   0  0  0  0  0  0  0  0  0  0  0  0
  1  2  2  0  0  0  0
  1  6  1  0  0  0  0
  1  7  1  0  0  0  0
  2  3  1  0  0  0  0
  3  4  2  0  0  0  0
  4  5  1  0  0  0  0
  4 20  1  0  0  0  0
  5  6  2  0  0  0  0
  7  8  1  0  0  0  0
  8  9  1  0  0  0  0
  9 10  2  0  0  0  0
  9 13  1  0  0  0  0
 10 11  1  0  0  0  0
 11 12  1  0  0  0  0
 12 13  2  0  0  0  0
 12 18  1  0  0  0  0
 13 14  1  0  0  0  0
 14 15  1  0  0  0  0
 14 16  2  0  0  0  0
 16 17  1  0  0  0  0
 17 18  2  0  0  0  0
 17 19  1  0  0  0  0
 20 21  2  0  0  0  0
 20 22  1  0  0  0  0
M  END
>  <CHROM.1>
109.97338392,-120.86923485,174.87882092,-95.07972811,-6.62310538,-25.47817158
33.38370819,0.68559122,-1.43865804,2.89835172

>  <Name>
ligand

>  <RI>
0

>  <Rbt.Current_Directory>
/home/itssahil/PROJECTS/Mol_Feturizer/New_Systems/rnas/4LVY

>  <Rbt.Executable>
rbdock ($Id: //depot/dev/client3/rdock/2013.1/src/exe/rbdock.cxx#4 $)

>  <Rbt.Library>
libRbt.so (2013.1, Build901 2013/11/27)

>  <Rbt.Parameter_File>
/export/apps/rDock/src/rDock_2013.1_src/data/scripts/dock_solv.prm

>  <Rbt.Receptor>
prm/blind_docking_80.prm

>  <SCORE>
-14.3492

>  <SCORE.INTER>
-13.909

>  <SCORE.INTER.CONST>
1

>  <SCORE.INTER.POLAR>
0

>  <SCORE.INTER.ROT>
4

>  <SCORE.INTER.SOLV>
11.8886

>  <SCORE.INTER.VDW>
-19.5022

>  <SCORE.INTER.norm>
-0.632228

>  <SCORE.INTRA>
-0.44017

>  <SCORE.INTRA.DIHEDRAL>
0.149605

>  <SCORE.INTRA.DIHEDRAL.0>
6.18831

>  <SCORE.INTRA.POLAR>
0

>  <SCORE.INTRA.POLAR.0>
0

>  <SCORE.INTRA.REPUL>
0

>  <SCORE.INTRA.REPUL.0>
0

>  <SCORE.INTRA.SOLV>
0.181179

>  <SCORE.INTRA.SOLV.lig_0>
-44.3465

>  <SCORE.INTRA.VDW>
-0.605562

>  <SCORE.INTRA.VDW.0>
-0.778272

>  <SCORE.INTRA.norm>
-0.0200077

>  <SCORE.RESTR>
0

>  <SCORE.RESTR.CAVITY>
0

>  <SCORE.RESTR.norm>
0

>  <SCORE.SYSTEM>
0

>  <SCORE.SYSTEM.CONST>
0

>  <SCORE.SYSTEM.DIHEDRAL>
0

>  <SCORE.SYSTEM.SOLV>
0

>  <SCORE.SYSTEM.norm>
0

>  <SCORE.heavy>
22

>  <SCORE.norm>
-0.652236

>  <RMSD>
32.907

$$$$
ligand
 OpenBabel11021811503D
libRbt.so/2013.1/901 2013/11/27
 22 24  0  0  0  0  0  0  0  0999 V2000
   -7.5711  -27.7686   32.3066 C   0  0  0  0  0  0  0  0  0  0  0  0
   -7.8772  -27.4563   30.9652 C   0  0  0  0  0  0  0  0  0  0  0  0
   -7.2496  -28.1580   29.9395 C   0  0  0  0  0  0  0  0  0  0  0  0
   -6.3213  -29.1649   30.2569 C   0  0  0  0  0  0  0  0  0  0  0  0
   -6.0060  -29.4730   31.6032 C   0  0  0  0  0  0  0  0  0  0  0  0
   -6.6322  -28.7717   32.6245 C   0  0  0  0  0  0  0  0  0  0  0  0
   -8.2434  -26.9891   33.4532 C   0  0  0  0  0  0  0  0  0  0  0  0
   -7.8748  -25.4863   33.5269 C   0  0  0  0  0  0  0  0  0  0  0  0
   -6.4566  -25.2243   34.0203 C   0  0  0  0  0  0  0  0  0  0  0  0
   -5.5082  -26.2284   34.2377 C   0  0  0  0  0  0  0  0  0  0  0  0
   -4.3744  -25.6134   34.6646 N   0  0  0  0  0  0  0  0  0  0  0  0
   -4.5188  -24.2426   34.7433 C   0  0  0  0  0  0  0  0  0  0  0  0
   -5.8182  -23.9504   34.3437 C   0  0  0  0  0  0  0  0  0  0  0  0
   -6.2111  -22.5583   34.3388 C   0  0  0  0  0  0  0  0  0  0  0  0
   -7.4943  -22.1920   33.9423 O   0  0  0  0  0  0  0  0  0  0  0  0
   -5.2931  -21.5959   34.7373 N   0  0  0  0  0  0  0  0  0  0  0  0
   -4.0237  -21.9286   35.1124 C   0  0  0  0  0  0  0  0  0  0  0  0
   -3.6252  -23.2102   35.1294 N   0  0  0  0  0  0  0  0  0  0  0  0
   -3.0847  -20.8745   35.5097 N   0  0  0  0  0  0  0  0  0  0  0  0
   -5.6535  -29.9044   29.1280 C   0  0  0  0  0  0  0  0  0  0  0  0
   -6.2299  -30.8393   28.5751 O   0  0  0  0  0  0  0  0  0  0  0  0
   -4.3346  -29.5015   28.7176 N   0  0  0  0  0  0  0  0  0  0  0  0
  1  2  2  0  0  0  0
  1  6  1  0  0  0  0
  1  7  1  0  0  0  0
  2  3  1  0  0  0  0
  3  4  2  0  0  0  0
  4  5  1  0  0  0  0
  4 20  1  0  0  0  0
  5  6  2  0  0  0  0
  7  8  1  0  0  0  0
  8  9  1  0  0  0  0
  9 10  2  0  0  0  0
  9 13  1  0  0  0  0
 10 11  1  0  0  0  0
 11 12  1  0  0  0  0
 12 13  2  0  0  0  0
 12 18  1  0  0  0  0
 13 14  1  0  0  0  0
 14 15  1  0  0  0  0
 14 16  2  0  0  0  0
 16 17  1  0  0  0  0
 17 18  2  0  0  0  0
 17 19  1  0  0  0  0
 20 21  2  0  0  0  0
 20 22  1  0  0  0  0
M  END
>  <CHROM.1>
-65.17792309,-82.03662233,-72.55764342,7.33729010,-5.92120003,-25.91709118
32.81153415,1.72954196,-0.09266717,-2.51104468

>  <Name>
ligand

>  <RI>
0

>  <Rbt.Current_Directory>
/home/itssahil/PROJECTS/Mol_Feturizer/New_Systems/rnas/4LVY

>  <Rbt.Executable>
rbdock ($Id: //depot/dev/client3/rdock/2013.1/src/exe/rbdock.cxx#4 $)

>  <Rbt.Library>
libRbt.so (2013.1, Build901 2013/11/27)

>  <Rbt.Parameter_File>
/export/apps/rDock/src/rDock_2013.1_src/data/scripts/dock_solv.prm

>  <Rbt.Receptor>
prm/blind_docking_100.prm

>  <SCORE>
-18.2599

>  <SCORE.INTER>
-18.1612

>  <SCORE.INTER.CONST>
1

>  <SCORE.INTER.POLAR>
0

>  <SCORE.INTER.ROT>
4

>  <SCORE.INTER.SOLV>
11.8469

>  <SCORE.INTER.VDW>
-22.3231

>  <SCORE.INTER.norm>
-0.82551

>  <SCORE.INTRA>
-0.0987175

>  <SCORE.INTRA.DIHEDRAL>
0.604467

>  <SCORE.INTRA.DIHEDRAL.0>
6.18831

>  <SCORE.INTRA.POLAR>
0

>  <SCORE.INTRA.POLAR.0>
0

>  <SCORE.INTRA.REPUL>
0

>  <SCORE.INTRA.REPUL.0>
0

>  <SCORE.INTRA.SOLV>
-0.00729733

>  <SCORE.INTRA.SOLV.lig_0>
-44.3465

>  <SCORE.INTRA.VDW>
-0.397302

>  <SCORE.INTRA.VDW.0>
-0.778272

>  <SCORE.INTRA.norm>
-0.00448716

>  <SCORE.RESTR>
0

>  <SCORE.RESTR.CAVITY>
0

>  <SCORE.RESTR.norm>
0

>  <SCORE.SYSTEM>
0

>  <SCORE.SYSTEM.CONST>
0

>  <SCORE.SYSTEM.DIHEDRAL>
0

>  <SCORE.SYSTEM.SOLV>
0

>  <SCORE.SYSTEM.norm>
0

>  <SCORE.heavy>
22

>  <SCORE.norm>
-0.829997

>  <RMSD>
32.988

$$$$
ligand
 OpenBabel11021811503D
libRbt.so/2013.1/901 2013/11/27
 22 24  0  0  0  0  0  0  0  0999 V2000
   -8.6379  -27.2404   32.1365 C   0  0  0  0  0  0  0  0  0  0  0  0
   -9.7323  -27.9638   32.6559 C   0  0  0  0  0  0  0  0  0  0  0  0
  -10.6471  -28.5421   31.7802 C   0  0  0  0  0  0  0  0  0  0  0  0
  -10.4662  -28.3952   30.3939 C   0  0  0  0  0  0  0  0  0  0  0  0
   -9.3731  -27.6612   29.8712 C   0  0  0  0  0  0  0  0  0  0  0  0
   -8.4624  -27.0847   30.7460 C   0  0  0  0  0  0  0  0  0  0  0  0
   -7.6264  -26.5791   33.0924 C   0  0  0  0  0  0  0  0  0  0  0  0
   -6.6416  -25.5899   32.4205 C   0  0  0  0  0  0  0  0  0  0  0  0
   -5.7655  -24.8280   33.4082 C   0  0  0  0  0  0  0  0  0  0  0  0
   -4.6233  -25.3629   34.0117 C   0  0  0  0  0  0  0  0  0  0  0  0
   -4.1119  -24.3939   34.8151 N   0  0  0  0  0  0  0  0  0  0  0  0
   -4.8587  -23.2333   34.7779 C   0  0  0  0  0  0  0  0  0  0  0  0
   -5.9131  -23.4602   33.9003 C   0  0  0  0  0  0  0  0  0  0  0  0
   -6.8439  -22.3731   33.6900 C   0  0  0  0  0  0  0  0  0  0  0  0
   -7.9185  -22.5271   32.8184 O   0  0  0  0  0  0  0  0  0  0  0  0
   -6.6521  -21.1783   34.3708 N   0  0  0  0  0  0  0  0  0  0  0  0
   -5.5959  -20.9970   35.2159 C   0  0  0  0  0  0  0  0  0  0  0  0
   -4.7131  -21.9841   35.4351 N   0  0  0  0  0  0  0  0  0  0  0  0
   -5.4264  -19.7109   35.8999 N   0  0  0  0  0  0  0  0  0  0  0  0
  -11.4736  -29.0264   29.4697 C   0  0  0  0  0  0  0  0  0  0  0  0
  -12.2397  -29.8920   29.8891 O   0  0  0  0  0  0  0  0  0  0  0  0
  -11.5159  -28.6036   28.0951 N   0  0  0  0  0  0  0  0  0  0  0  0
  1  2  2  0  0  0  0
  1  6  1  0  0  0  0
  1  7  1  0  0  0  0
  2  3  1  0  0  0  0
  3  4  2  0  0  0  0
  4  5  1  0  0  0  0
  4 20  1  0  0  0  0
  5  6  2  0  0  0  0
  7  8  1  0  0  0  0
  8  9  1  0  0  0  0
  9 10  2  0  0  0  0
  9 13  1  0  0  0  0
 10 11  1  0  0  0  0
 11 12  1  0  0  0  0
 12 13  2  0  0  0  0
 12 18  1  0  0  0  0
 13 14  1  0  0  0  0
 14 15  1  0  0  0  0
 14 16  2  0  0  0  0
 16 17  1  0  0  0  0
 17 18  2  0  0  0  0
 17 19  1  0  0  0  0
 20 21  2  0  0  0  0
 20 22  1  0  0  0  0
M  END
>  <CHROM.1>
-168.43439222,-16.58148704,173.10396273,79.57941511,-7.70917338,-25.26341499
32.67771014,-2.26746071,-0.53114722,0.21974867

>  <Name>
ligand

>  <RI>
0

>  <Rbt.Current_Directory>
/home/itssahil/PROJECTS/Mol_Feturizer/New_Systems/rnas/4LVY

>  <Rbt.Executable>
rbdock ($Id: //depot/dev/client3/rdock/2013.1/src/exe/rbdock.cxx#4 $)

>  <Rbt.Library>
libRbt.so (2013.1, Build901 2013/11/27)

>  <Rbt.Parameter_File>
/export/apps/rDock/src/rDock_2013.1_src/data/scripts/dock_solv.prm

>  <Rbt.Receptor>
prm/blind_docking_80.prm

>  <SCORE>
-13.2957

>  <SCORE.INTER>
-13.9981

>  <SCORE.INTER.CONST>
1

>  <SCORE.INTER.POLAR>
0

>  <SCORE.INTER.ROT>
4

>  <SCORE.INTER.SOLV>
5.59177

>  <SCORE.INTER.VDW>
-17.4627

>  <SCORE.INTER.norm>
-0.636279

>  <SCORE.INTRA>
0.702427

>  <SCORE.INTRA.DIHEDRAL>
0.304717

>  <SCORE.INTRA.DIHEDRAL.0>
6.18831

>  <SCORE.INTRA.POLAR>
0

>  <SCORE.INTRA.POLAR.0>
0

>  <SCORE.INTRA.REPUL>
0

>  <SCORE.INTRA.REPUL.0>
0

>  <SCORE.INTRA.SOLV>
0.121034

>  <SCORE.INTRA.SOLV.lig_0>
-44.3465

>  <SCORE.INTRA.VDW>
0.489551

>  <SCORE.INTRA.VDW.0>
-0.778272

>  <SCORE.INTRA.norm>
0.0319285

>  <SCORE.RESTR>
0

>  <SCORE.RESTR.CAVITY>
0

>  <SCORE.RESTR.norm>
0

>  <SCORE.SYSTEM>
0

>  <SCORE.SYSTEM.CONST>
0

>  <SCORE.SYSTEM.DIHEDRAL>
0

>  <SCORE.SYSTEM.SOLV>
0

>  <SCORE.SYSTEM.norm>
0

>  <SCORE.heavy>
22

>  <SCORE.norm>
-0.604351

>  <RMSD>
33.144

$$$$
ligand
 OpenBabel11021811503D
libRbt.so/2013.1/901 2013/11/27
 22 24  0  0  0  0  0  0  0  0999 V2000
   -5.8106  -24.9135   32.9141 C   0  0  0  0  0  0  0  0  0  0  0  0
   -4.9136  -24.5270   33.9322 C   0  0  0  0  0  0  0  0  0  0  0  0
   -5.0734  -23.2900   34.5508 C   0  0  0  0  0  0  0  0  0  0  0  0
   -6.1246  -22.4467   34.1508 C   0  0  0  0  0  0  0  0  0  0  0  0
   -7.0203  -22.8296   33.1222 C   0  0  0  0  0  0  0  0  0  0  0  0
   -6.8589  -24.0630   32.5061 C   0  0  0  0  0  0  0  0  0  0  0  0
   -5.6368  -26.2715   32.2071 C   0  0  0  0  0  0  0  0  0  0  0  0
   -6.5577  -27.4030   32.7281 C   0  0  0  0  0  0  0  0  0  0  0  0
   -8.0235  -27.2268   32.3489 C   0  0  0  0  0  0  0  0  0  0  0  0
   -8.9952  -26.7080   33.2100 C   0  0  0  0  0  0  0  0  0  0  0  0
  -10.1669  -26.6997   32.5222 N   0  0  0  0  0  0  0  0  0  0  0  0
  -10.0256  -27.1890   31.2389 C   0  0  0  0  0  0  0  0  0  0  0  0
   -8.6872  -27.5328   31.0837 C   0  0  0  0  0  0  0  0  0  0  0  0
   -8.2877  -28.0728   29.8026 C   0  0  0  0  0  0  0  0  0  0  0  0
   -6.9620  -28.4310   29.5738 O   0  0  0  0  0  0  0  0  0  0  0  0
   -9.2439  -28.2313   28.8084 N   0  0  0  0  0  0  0  0  0  0  0  0
  -10.5457  -27.8703   29.0025 C   0  0  0  0  0  0  0  0  0  0  0  0
  -10.9516  -27.3664   30.1785 N   0  0  0  0  0  0  0  0  0  0  0  0
  -11.5158  -28.0415   27.9163 N   0  0  0  0  0  0  0  0  0  0  0  0
   -6.2710  -21.1124   34.8329 C   0  0  0  0  0  0  0  0  0  0  0  0
   -7.2822  -20.8594   35.4853 O   0  0  0  0  0  0  0  0  0  0  0  0
   -5.2143  -20.1449   34.7009 N   0  0  0  0  0  0  0  0  0  0  0  0
  1  2  2  0  0  0  0
  1  6  1  0  0  0  0
  1  7  1  0  0  0  0
  2  3  1  0  0  0  0
  3  4  2  0  0  0  0
  4  5  1  0  0  0  0
  4 20  1  0  0  0  0
  5  6  2  0  0  0  0
  7  8  1  0  0  0  0
  8  9  1  0  0  0  0
  9 10  2  0  0  0  0
  9 13  1  0  0  0  0
 10 11  1  0  0  0  0
 11 12  1  0  0  0  0
 12 13  2  0  0  0  0
 12 18  1  0  0  0  0
 13 14  1  0  0  0  0
 14 15  1  0  0  0  0
 14 16  2  0  0  0  0
 16 17  1  0  0  0  0
 17 18  2  0  0  0  0
 17 19  1  0  0  0  0
 20 21  2  0  0  0  0
 20 22  1  0  0  0  0
M  END
>  <CHROM.1>
99.08736788,-117.26547179,71.24563973,-99.40913151,-7.75348543,-25.52549260
32.09856294,-1.09968265,0.26376013,-2.59519934

>  <Name>
ligand

>  <RI>
0

>  <Rbt.Current_Directory>
/home/itssahil/PROJECTS/Mol_Feturizer/New_Systems/rnas/4LVY

>  <Rbt.Executable>
rbdock ($Id: //depot/dev/client3/rdock/2013.1/src/exe/rbdock.cxx#4 $)

>  <Rbt.Library>
libRbt.so (2013.1, Build901 2013/11/27)

>  <Rbt.Parameter_File>
/export/apps/rDock/src/rDock_2013.1_src/data/scripts/dock_solv.prm

>  <Rbt.Receptor>
prm/blind_docking_80.prm

>  <SCORE>
-14.0849

>  <SCORE.INTER>
-13.2245

>  <SCORE.INTER.CONST>
1

>  <SCORE.INTER.POLAR>
0

>  <SCORE.INTER.ROT>
4

>  <SCORE.INTER.SOLV>
7.2541

>  <SCORE.INTER.VDW>
-17.501

>  <SCORE.INTER.norm>
-0.601113

>  <SCORE.INTRA>
-0.860417

>  <SCORE.INTRA.DIHEDRAL>
0.581102

>  <SCORE.INTRA.DIHEDRAL.0>
6.18831

>  <SCORE.INTRA.POLAR>
0

>  <SCORE.INTRA.POLAR.0>
0

>  <SCORE.INTRA.REPUL>
0

>  <SCORE.INTRA.REPUL.0>
0

>  <SCORE.INTRA.SOLV>
0.199594

>  <SCORE.INTRA.SOLV.lig_0>
-44.3465

>  <SCORE.INTRA.VDW>
-1.25077

>  <SCORE.INTRA.VDW.0>
-0.778272

>  <SCORE.INTRA.norm>
-0.0391099

>  <SCORE.RESTR>
0

>  <SCORE.RESTR.CAVITY>
0

>  <SCORE.RESTR.norm>
0

>  <SCORE.SYSTEM>
0

>  <SCORE.SYSTEM.CONST>
0

>  <SCORE.SYSTEM.DIHEDRAL>
0

>  <SCORE.SYSTEM.SOLV>
0

>  <SCORE.SYSTEM.norm>
0

>  <SCORE.heavy>
22

>  <SCORE.norm>
-0.640223

>  <RMSD>
33.150

$$$$
ligand
 OpenBabel11021811503D
libRbt.so/2013.1/901 2013/11/27
 22 24  0  0  0  0  0  0  0  0999 V2000
   -6.0367  -24.2026   32.7557 C   0  0  0  0  0  0  0  0  0  0  0  0
   -5.1085  -24.0396   33.8056 C   0  0  0  0  0  0  0  0  0  0  0  0
   -5.3034  -23.0252   34.7391 C   0  0  0  0  0  0  0  0  0  0  0  0
   -6.4204  -22.1801   34.6200 C   0  0  0  0  0  0  0  0  0  0  0  0
   -7.3481  -22.3367   33.5608 C   0  0  0  0  0  0  0  0  0  0  0  0
   -7.1517  -23.3483   32.6306 C   0  0  0  0  0  0  0  0  0  0  0  0
   -5.8259  -25.3089   31.7041 C   0  0  0  0  0  0  0  0  0  0  0  0
   -6.2470  -26.7297   32.1558 C   0  0  0  0  0  0  0  0  0  0  0  0
   -6.7344  -27.6180   31.0170 C   0  0  0  0  0  0  0  0  0  0  0  0
   -5.8869  -28.3601   30.1888 C   0  0  0  0  0  0  0  0  0  0  0  0
   -6.6797  -29.0228   29.3066 N   0  0  0  0  0  0  0  0  0  0  0  0
   -8.0203  -28.7592   29.5051 C   0  0  0  0  0  0  0  0  0  0  0  0
   -8.1034  -27.8775   30.5772 C   0  0  0  0  0  0  0  0  0  0  0  0
   -9.4252  -27.4518   30.9821 C   0  0  0  0  0  0  0  0  0  0  0  0
   -9.5840  -26.5765   32.0529 O   0  0  0  0  0  0  0  0  0  0  0  0
  -10.5299  -27.9252   30.2869 N   0  0  0  0  0  0  0  0  0  0  0  0
  -10.4009  -28.7983   29.2459 C   0  0  0  0  0  0  0  0  0  0  0  0
   -9.1899  -29.2141   28.8429 N   0  0  0  0  0  0  0  0  0  0  0  0
  -11.5989  -29.2832   28.5528 N   0  0  0  0  0  0  0  0  0  0  0  0
   -6.6039  -21.0881   35.6403 C   0  0  0  0  0  0  0  0  0  0  0  0
   -7.3372  -21.2662   36.6111 O   0  0  0  0  0  0  0  0  0  0  0  0
   -5.9139  -19.8395   35.4532 N   0  0  0  0  0  0  0  0  0  0  0  0
  1  2  2  0  0  0  0
  1  6  1  0  0  0  0
  1  7  1  0  0  0  0
  2  3  1  0  0  0  0
  3  4  2  0  0  0  0
  4  5  1  0  0  0  0
  4 20  1  0  0  0  0
  5  6  2  0  0  0  0
  7  8  1  0  0  0  0
  8  9  1  0  0  0  0
  9 10  2  0  0  0  0
  9 13  1  0  0  0  0
 10 11  1  0  0  0  0
 11 12  1  0  0  0  0
 12 13  2  0  0  0  0
 12 18  1  0  0  0  0
 13 14  1  0  0  0  0
 14 15  1  0  0  0  0
 14 16  2  0  0  0  0
 16 17  1  0  0  0  0
 17 18  2  0  0  0  0
 17 19  1  0  0  0  0
 20 21  2  0  0  0  0
 20 22  1  0  0  0  0
M  END
>  <CHROM.1>
79.44586189,-96.10959401,149.43033063,84.27110577,-7.56977299,-25.65404650
32.02114171,-1.26285890,0.03964147,-2.48886515

>  <Name>
ligand

>  <RI>
0

>  <Rbt.Current_Directory>
/home/itssahil/PROJECTS/Mol_Feturizer/New_Systems/rnas/4LVY

>  <Rbt.Executable>
rbdock ($Id: //depot/dev/client3/rdock/2013.1/src/exe/rbdock.cxx#4 $)

>  <Rbt.Library>
libRbt.so (2013.1, Build901 2013/11/27)

>  <Rbt.Parameter_File>
/export/apps/rDock/src/rDock_2013.1_src/data/scripts/dock_solv.prm

>  <Rbt.Receptor>
prm/blind_docking_80.prm

>  <SCORE>
-14.5269

>  <SCORE.INTER>
-15.4542

>  <SCORE.INTER.CONST>
1

>  <SCORE.INTER.POLAR>
0

>  <SCORE.INTER.ROT>
4

>  <SCORE.INTER.SOLV>
7.5046

>  <SCORE.INTER.VDW>
-19.071

>  <SCORE.INTER.norm>
-0.702464

>  <SCORE.INTRA>
0.927286

>  <SCORE.INTRA.DIHEDRAL>
3.23648

>  <SCORE.INTRA.DIHEDRAL.0>
6.18831

>  <SCORE.INTRA.POLAR>
0

>  <SCORE.INTRA.POLAR.0>
0

>  <SCORE.INTRA.REPUL>
0

>  <SCORE.INTRA.REPUL.0>
0

>  <SCORE.INTRA.SOLV>
0.12678

>  <SCORE.INTRA.SOLV.lig_0>
-44.3465

>  <SCORE.INTRA.VDW>
-0.754346

>  <SCORE.INTRA.VDW.0>
-0.778272

>  <SCORE.INTRA.norm>
0.0421494

>  <SCORE.RESTR>
0

>  <SCORE.RESTR.CAVITY>
0

>  <SCORE.RESTR.norm>
0

>  <SCORE.SYSTEM>
0

>  <SCORE.SYSTEM.CONST>
0

>  <SCORE.SYSTEM.DIHEDRAL>
0

>  <SCORE.SYSTEM.SOLV>
0

>  <SCORE.SYSTEM.norm>
0

>  <SCORE.heavy>
22

>  <SCORE.norm>
-0.660314

>  <RMSD>
33.269

$$$$
ligand
 OpenBabel11021811503D
libRbt.so/2013.1/901 2013/11/27
 22 24  0  0  0  0  0  0  0  0999 V2000
   -5.9978  -29.2602   29.8216 C   0  0  0  0  0  0  0  0  0  0  0  0
   -4.6284  -28.9273   29.7560 C   0  0  0  0  0  0  0  0  0  0  0  0
   -3.8622  -29.3919   28.6904 C   0  0  0  0  0  0  0  0  0  0  0  0
   -4.4648  -30.1851   27.6985 C   0  0  0  0  0  0  0  0  0  0  0  0
   -5.8376  -30.5280   27.7682 C   0  0  0  0  0  0  0  0  0  0  0  0
   -6.5997  -30.0644   28.8318 C   0  0  0  0  0  0  0  0  0  0  0  0
   -6.8556  -28.7691   31.0037 C   0  0  0  0  0  0  0  0  0  0  0  0
   -6.0696  -28.0483   32.1273 C   0  0  0  0  0  0  0  0  0  0  0  0
   -6.2451  -26.5341   32.1268 C   0  0  0  0  0  0  0  0  0  0  0  0
   -6.7838  -25.8115   31.0580 C   0  0  0  0  0  0  0  0  0  0  0  0
   -6.7845  -24.5040   31.4271 N   0  0  0  0  0  0  0  0  0  0  0  0
   -6.2709  -24.3164   32.6949 C   0  0  0  0  0  0  0  0  0  0  0  0
   -5.9185  -25.5722   33.1770 C   0  0  0  0  0  0  0  0  0  0  0  0
   -5.3531  -25.6350   34.5069 C   0  0  0  0  0  0  0  0  0  0  0  0
   -4.9852  -26.8599   35.0567 O   0  0  0  0  0  0  0  0  0  0  0  0
   -5.1804  -24.4585   35.2238 N   0  0  0  0  0  0  0  0  0  0  0  0
   -5.5506  -23.2479   34.7137 C   0  0  0  0  0  0  0  0  0  0  0  0
   -6.0778  -23.1524   33.4830 N   0  0  0  0  0  0  0  0  0  0  0  0
   -5.3634  -22.0346   35.5158 N   0  0  0  0  0  0  0  0  0  0  0  0
   -3.6116  -30.6784   26.5601 C   0  0  0  0  0  0  0  0  0  0  0  0
   -4.0203  -31.5755   25.8251 O   0  0  0  0  0  0  0  0  0  0  0  0
   -2.3158  -30.0873   26.3562 N   0  0  0  0  0  0  0  0  0  0  0  0
  1  2  2  0  0  0  0
  1  6  1  0  0  0  0
  1  7  1  0  0  0  0
  2  3  1  0  0  0  0
  3  4  2  0  0  0  0
  4  5  1  0  0  0  0
  4 20  1  0  0  0  0
  5  6  2  0  0  0  0
  7  8  1  0  0  0  0
  8  9  1  0  0  0  0
  9 10  2  0  0  0  0
  9 13  1  0  0  0  0
 10 11  1  0  0  0  0
 11 12  1  0  0  0  0
 12 13  2  0  0  0  0
 12 18  1  0  0  0  0
 13 14  1  0  0  0  0
 14 15  1  0  0  0  0
 14 16  2  0  0  0  0
 16 17  1  0  0  0  0
 17 18  2  0  0  0  0
 17 19  1  0  0  0  0
 20 21  2  0  0  0  0
 20 22  1  0  0  0  0
M  END
>  <CHROM.1>
-6.19557795,165.67696255,104.67115202,-14.61457933,-5.38007114,-27.24335291
31.10093041,1.33213375,-0.90071768,-2.49641064

>  <Name>
ligand

>  <RI>
0

>  <Rbt.Current_Directory>
/home/itssahil/PROJECTS/Mol_Feturizer/New_Systems/rnas/4LVY

>  <Rbt.Executable>
rbdock ($Id: //depot/dev/client3/rdock/2013.1/src/exe/rbdock.cxx#4 $)

>  <Rbt.Library>
libRbt.so (2013.1, Build901 2013/11/27)

>  <Rbt.Parameter_File>
/export/apps/rDock/src/rDock_2013.1_src/data/scripts/dock_solv.prm

>  <Rbt.Receptor>
prm/blind_docking_60.prm

>  <SCORE>
-17.4331

>  <SCORE.INTER>
-20.7755

>  <SCORE.INTER.CONST>
1

>  <SCORE.INTER.POLAR>
0

>  <SCORE.INTER.ROT>
4

>  <SCORE.INTER.SOLV>
9.64735

>  <SCORE.INTER.VDW>
-23.3328

>  <SCORE.INTER.norm>
-0.94434

>  <SCORE.INTRA>
3.34241

>  <SCORE.INTRA.DIHEDRAL>
5.23608

>  <SCORE.INTRA.DIHEDRAL.0>
6.18831

>  <SCORE.INTRA.POLAR>
0

>  <SCORE.INTRA.POLAR.0>
0

>  <SCORE.INTRA.REPUL>
0

>  <SCORE.INTRA.REPUL.0>
0

>  <SCORE.INTRA.SOLV>
0.00922552

>  <SCORE.INTRA.SOLV.lig_0>
-44.3465

>  <SCORE.INTRA.VDW>
0.719762

>  <SCORE.INTRA.VDW.0>
-0.778272

>  <SCORE.INTRA.norm>
0.151928

>  <SCORE.RESTR>
0

>  <SCORE.RESTR.CAVITY>
0

>  <SCORE.RESTR.norm>
0

>  <SCORE.SYSTEM>
0

>  <SCORE.SYSTEM.CONST>
0

>  <SCORE.SYSTEM.DIHEDRAL>
0

>  <SCORE.SYSTEM.SOLV>
0

>  <SCORE.SYSTEM.norm>
0

>  <SCORE.heavy>
22

>  <SCORE.norm>
-0.792412

>  <RMSD>
33.312

$$$$
ligand
 OpenBabel11021811503D
libRbt.so/2013.1/901 2013/11/27
 22 24  0  0  0  0  0  0  0  0999 V2000
   -5.8928  -29.3129   29.4808 C   0  0  0  0  0  0  0  0  0  0  0  0
   -4.5245  -28.9786   29.5620 C   0  0  0  0  0  0  0  0  0  0  0  0
   -3.6527  -29.4207   28.5706 C   0  0  0  0  0  0  0  0  0  0  0  0
   -4.1495  -30.1930   27.5061 C   0  0  0  0  0  0  0  0  0  0  0  0
   -5.5214  -30.5373   27.4284 C   0  0  0  0  0  0  0  0  0  0  0  0
   -6.3890  -30.0962   28.4183 C   0  0  0  0  0  0  0  0  0  0  0  0
   -6.8676  -28.8467   30.5793 C   0  0  0  0  0  0  0  0  0  0  0  0
   -7.3134  -27.3669   30.4733 C   0  0  0  0  0  0  0  0  0  0  0  0
   -6.3389  -26.3837   31.1116 C   0  0  0  0  0  0  0  0  0  0  0  0
   -5.1380  -25.9804   30.5200 C   0  0  0  0  0  0  0  0  0  0  0  0
   -4.5519  -25.1038   31.3768 N   0  0  0  0  0  0  0  0  0  0  0  0
   -5.3048  -24.9005   32.5160 C   0  0  0  0  0  0  0  0  0  0  0  0
   -6.4445  -25.6875   32.3918 C   0  0  0  0  0  0  0  0  0  0  0  0
   -7.4018  -25.6403   33.4751 C   0  0  0  0  0  0  0  0  0  0  0  0
   -8.5694  -26.3959   33.4143 O   0  0  0  0  0  0  0  0  0  0  0  0
   -7.1382  -24.8348   34.5750 N   0  0  0  0  0  0  0  0  0  0  0  0
   -6.0097  -24.0708   34.6493 C   0  0  0  0  0  0  0  0  0  0  0  0
   -5.0997  -24.0904   33.6627 N   0  0  0  0  0  0  0  0  0  0  0  0
   -5.7833  -23.2233   35.8244 N   0  0  0  0  0  0  0  0  0  0  0  0
   -3.1836  -30.6623   26.4506 C   0  0  0  0  0  0  0  0  0  0  0  0
   -3.5569  -31.4377   25.5723 O   0  0  0  0  0  0  0  0  0  0  0  0
   -1.8242  -30.1933   26.4950 N   0  0  0  0  0  0  0  0  0  0  0  0
  1  2  2  0  0  0  0
  1  6  1  0  0  0  0
  1  7  1  0  0  0  0
  2  3  1  0  0  0  0
  3  4  2  0  0  0  0
  4  5  1  0  0  0  0
  4 20  1  0  0  0  0
  5  6  2  0  0  0  0
  7  8  1  0  0  0  0
  8  9  1  0  0  0  0
  9 10  2  0  0  0  0
  9 13  1  0  0  0  0
 10 11  1  0  0  0  0
 11 12  1  0  0  0  0
 12 13  2  0  0  0  0
 12 18  1  0  0  0  0
 13 14  1  0  0  0  0
 14 15  1  0  0  0  0
 14 16  2  0  0  0  0
 16 17  1  0  0  0  0
 17 18  2  0  0  0  0
 17 19  1  0  0  0  0
 20 21  2  0  0  0  0
 20 22  1  0  0  0  0
M  END
>  <CHROM.1>
78.61804128,173.44443102,-84.38340037,77.23027068,-5.50201871,-27.40898088
30.66623330,1.28146293,-0.35223502,-2.37207902

>  <Name>
ligand

>  <RI>
0

>  <Rbt.Current_Directory>
/home/itssahil/PROJECTS/Mol_Feturizer/New_Systems/rnas/4LVY

>  <Rbt.Executable>
rbdock ($Id: //depot/dev/client3/rdock/2013.1/src/exe/rbdock.cxx#4 $)

>  <Rbt.Library>
libRbt.so (2013.1, Build901 2013/11/27)

>  <Rbt.Parameter_File>
/export/apps/rDock/src/rDock_2013.1_src/data/scripts/dock_solv.prm

>  <Rbt.Receptor>
prm/blind_docking_100.prm

>  <SCORE>
-23.0227

>  <SCORE.INTER>
-23.4747

>  <SCORE.INTER.CONST>
1

>  <SCORE.INTER.POLAR>
0

>  <SCORE.INTER.ROT>
4

>  <SCORE.INTER.SOLV>
9.03861

>  <SCORE.INTER.VDW>
-24.9293

>  <SCORE.INTER.norm>
-1.06703

>  <SCORE.INTRA>
0.451235

>  <SCORE.INTRA.DIHEDRAL>
2.26946

>  <SCORE.INTRA.DIHEDRAL.0>
6.18831

>  <SCORE.INTRA.POLAR>
0

>  <SCORE.INTRA.POLAR.0>
0

>  <SCORE.INTRA.REPUL>
0

>  <SCORE.INTRA.REPUL.0>
0

>  <SCORE.INTRA.SOLV>
0.115823

>  <SCORE.INTRA.SOLV.lig_0>
-44.3465

>  <SCORE.INTRA.VDW>
-0.741408

>  <SCORE.INTRA.VDW.0>
-0.778272

>  <SCORE.INTRA.norm>
0.0205107

>  <SCORE.RESTR>
0.00074027

>  <SCORE.RESTR.CAVITY>
0.00074027

>  <SCORE.RESTR.norm>
3.36486e-05

>  <SCORE.SYSTEM>
0

>  <SCORE.SYSTEM.CONST>
0

>  <SCORE.SYSTEM.DIHEDRAL>
0

>  <SCORE.SYSTEM.SOLV>
0

>  <SCORE.SYSTEM.norm>
0

>  <SCORE.heavy>
22

>  <SCORE.norm>
-1.04649

>  <RMSD>
33.357

$$$$
ligand
 OpenBabel11021811503D
libRbt.so/2013.1/901 2013/11/27
 22 24  0  0  0  0  0  0  0  0999 V2000
   -5.5243  -29.5800   29.3646 C   0  0  0  0  0  0  0  0  0  0  0  0
   -4.2019  -29.0917   29.4243 C   0  0  0  0  0  0  0  0  0  0  0  0
   -3.3156  -29.3907   28.3931 C   0  0  0  0  0  0  0  0  0  0  0  0
   -3.7521  -30.1741   27.3106 C   0  0  0  0  0  0  0  0  0  0  0  0
   -5.0768  -30.6729   27.2540 C   0  0  0  0  0  0  0  0  0  0  0  0
   -5.9589  -30.3744   28.2836 C   0  0  0  0  0  0  0  0  0  0  0  0
   -6.5124  -29.2732   30.5064 C   0  0  0  0  0  0  0  0  0  0  0  0
   -7.3740  -28.0020   30.3021 C   0  0  0  0  0  0  0  0  0  0  0  0
   -6.7207  -26.7262   30.8209 C   0  0  0  0  0  0  0  0  0  0  0  0
   -5.5771  -26.1510   30.2585 C   0  0  0  0  0  0  0  0  0  0  0  0
   -5.3020  -25.0340   30.9814 N   0  0  0  0  0  0  0  0  0  0  0  0
   -6.2090  -24.8335   32.0028 C   0  0  0  0  0  0  0  0  0  0  0  0
   -7.1254  -25.8774   31.9391 C   0  0  0  0  0  0  0  0  0  0  0  0
   -8.1894  -25.8837   32.9190 C   0  0  0  0  0  0  0  0  0  0  0  0
   -9.1471  -26.8940   32.9094 O   0  0  0  0  0  0  0  0  0  0  0  0
   -8.2394  -24.8719   33.8685 N   0  0  0  0  0  0  0  0  0  0  0  0
   -7.3230  -23.8607   33.8867 C   0  0  0  0  0  0  0  0  0  0  0  0
   -6.3221  -23.8234   32.9930 N   0  0  0  0  0  0  0  0  0  0  0  0
   -7.4271  -22.8053   34.8995 N   0  0  0  0  0  0  0  0  0  0  0  0
   -2.7712  -30.4866   26.2117 C   0  0  0  0  0  0  0  0  0  0  0  0
   -1.6630  -29.9539   26.2026 O   0  0  0  0  0  0  0  0  0  0  0  0
   -3.1573  -31.4092   25.1774 N   0  0  0  0  0  0  0  0  0  0  0  0
  1  2  2  0  0  0  0
  1  6  1  0  0  0  0
  1  7  1  0  0  0  0
  2  3  1  0  0  0  0
  3  4  2  0  0  0  0
  4  5  1  0  0  0  0
  4 20  1  0  0  0  0
  5  6  2  0  0  0  0
  7  8  1  0  0  0  0
  8  9  1  0  0  0  0
  9 10  2  0  0  0  0
  9 13  1  0  0  0  0
 10 11  1  0  0  0  0
 11 12  1  0  0  0  0
 12 13  2  0  0  0  0
 12 18  1  0  0  0  0
 13 14  1  0  0  0  0
 14 15  1  0  0  0  0
 14 16  2  0  0  0  0
 16 17  1  0  0  0  0
 17 18  2  0  0  0  0
 17 19  1  0  0  0  0
 20 21  2  0  0  0  0
 20 22  1  0  0  0  0
M  END
>  <CHROM.1>
92.29376983,-7.26372169,-88.17318075,67.58965245,-5.78539739,-27.48225719
30.29651825,1.06885564,-0.50710390,-2.56119806

>  <Name>
ligand

>  <RI>
0

>  <Rbt.Current_Directory>
/home/itssahil/PROJECTS/Mol_Feturizer/New_Systems/rnas/4LVY

>  <Rbt.Executable>
rbdock ($Id: //depot/dev/client3/rdock/2013.1/src/exe/rbdock.cxx#4 $)

>  <Rbt.Library>
libRbt.so (2013.1, Build901 2013/11/27)

>  <Rbt.Parameter_File>
/export/apps/rDock/src/rDock_2013.1_src/data/scripts/dock_solv.prm

>  <Rbt.Receptor>
prm/blind_docking_100.prm

>  <SCORE>
-22.4851

>  <SCORE.INTER>
-23.3253

>  <SCORE.INTER.CONST>
1

>  <SCORE.INTER.POLAR>
0

>  <SCORE.INTER.ROT>
4

>  <SCORE.INTER.SOLV>
9.34076

>  <SCORE.INTER.VDW>
-24.9305

>  <SCORE.INTER.norm>
-1.06024

>  <SCORE.INTRA>
0.840284

>  <SCORE.INTRA.DIHEDRAL>
2.88681

>  <SCORE.INTRA.DIHEDRAL.0>
6.18831

>  <SCORE.INTRA.POLAR>
0

>  <SCORE.INTRA.POLAR.0>
0

>  <SCORE.INTRA.REPUL>
0

>  <SCORE.INTRA.REPUL.0>
0

>  <SCORE.INTRA.SOLV>
0.0769518

>  <SCORE.INTRA.SOLV.lig_0>
-44.3465

>  <SCORE.INTRA.VDW>
-0.6416

>  <SCORE.INTRA.VDW.0>
-0.778272

>  <SCORE.INTRA.norm>
0.0381947

>  <SCORE.RESTR>
0

>  <SCORE.RESTR.CAVITY>
0

>  <SCORE.RESTR.norm>
0

>  <SCORE.SYSTEM>
0

>  <SCORE.SYSTEM.CONST>
0

>  <SCORE.SYSTEM.DIHEDRAL>
0

>  <SCORE.SYSTEM.SOLV>
0

>  <SCORE.SYSTEM.norm>
0

>  <SCORE.heavy>
22

>  <SCORE.norm>
-1.02205

>  <RMSD>
33.367

$$$$
ligand
 OpenBabel11021811503D
libRbt.so/2013.1/901 2013/11/27
 22 24  0  0  0  0  0  0  0  0999 V2000
   -5.8240  -29.3540   29.4871 C   0  0  0  0  0  0  0  0  0  0  0  0
   -4.4624  -28.9965   29.5802 C   0  0  0  0  0  0  0  0  0  0  0  0
   -3.5765  -29.4144   28.5908 C   0  0  0  0  0  0  0  0  0  0  0  0
   -4.0526  -30.1860   27.5164 C   0  0  0  0  0  0  0  0  0  0  0  0
   -5.4178  -30.5536   27.4266 C   0  0  0  0  0  0  0  0  0  0  0  0
   -6.2994  -30.1365   28.4145 C   0  0  0  0  0  0  0  0  0  0  0  0
   -6.8140  -28.9146   30.5830 C   0  0  0  0  0  0  0  0  0  0  0  0
   -7.2842  -27.4416   30.4876 C   0  0  0  0  0  0  0  0  0  0  0  0
   -6.3170  -26.4453   31.1163 C   0  0  0  0  0  0  0  0  0  0  0  0
   -5.1126  -26.0490   30.5271 C   0  0  0  0  0  0  0  0  0  0  0  0
   -4.5351  -25.1565   31.3732 N   0  0  0  0  0  0  0  0  0  0  0  0
   -5.2972  -24.9358   32.5030 C   0  0  0  0  0  0  0  0  0  0  0  0
   -6.4340  -25.7277   32.3837 C   0  0  0  0  0  0  0  0  0  0  0  0
   -7.3996  -25.6644   33.4588 C   0  0  0  0  0  0  0  0  0  0  0  0
   -8.5649  -26.4240   33.4019 O   0  0  0  0  0  0  0  0  0  0  0  0
   -7.1463  -24.8396   34.5467 N   0  0  0  0  0  0  0  0  0  0  0  0
   -6.0203  -24.0716   34.6164 C   0  0  0  0  0  0  0  0  0  0  0  0
   -5.1028  -24.1056   33.6373 N   0  0  0  0  0  0  0  0  0  0  0  0
   -5.8049  -23.2036   35.7787 N   0  0  0  0  0  0  0  0  0  0  0  0
   -3.0718  -30.6289   26.4633 C   0  0  0  0  0  0  0  0  0  0  0  0
   -1.9276  -30.1786   26.4559 O   0  0  0  0  0  0  0  0  0  0  0  0
   -3.5003  -31.5774   25.4699 N   0  0  0  0  0  0  0  0  0  0  0  0
  1  2  2  0  0  0  0
  1  6  1  0  0  0  0
  1  7  1  0  0  0  0
  2  3  1  0  0  0  0
  3  4  2  0  0  0  0
  4  5  1  0  0  0  0
  4 20  1  0  0  0  0
  5  6  2  0  0  0  0
  7  8  1  0  0  0  0
  8  9  1  0  0  0  0
  9 10  2  0  0  0  0
  9 13  1  0  0  0  0
 10 11  1  0  0  0  0
 11 12  1  0  0  0  0
 12 13  2  0  0  0  0
 12 18  1  0  0  0  0
 13 14  1  0  0  0  0
 14 15  1  0  0  0  0
 14 16  2  0  0  0  0
 16 17  1  0  0  0  0
 17 18  2  0  0  0  0
 17 19  1  0  0  0  0
 20 21  2  0  0  0  0
 20 22  1  0  0  0  0
M  END
>  <CHROM.1>
78.57108262,-9.37097824,-83.19434819,75.41621416,-5.46149287,-27.43004969
30.66076482,1.26861278,-0.36252626,-2.37970197

>  <Name>
ligand

>  <RI>
0

>  <Rbt.Current_Directory>
/home/itssahil/PROJECTS/Mol_Feturizer/New_Systems/rnas/4LVY

>  <Rbt.Executable>
rbdock ($Id: //depot/dev/client3/rdock/2013.1/src/exe/rbdock.cxx#4 $)

>  <Rbt.Library>
libRbt.so (2013.1, Build901 2013/11/27)

>  <Rbt.Parameter_File>
/export/apps/rDock/src/rDock_2013.1_src/data/scripts/dock_solv.prm

>  <Rbt.Receptor>
prm/blind_docking_100.prm

>  <SCORE>
-22.9057

>  <SCORE.INTER>
-23.2948

>  <SCORE.INTER.CONST>
1

>  <SCORE.INTER.POLAR>
0

>  <SCORE.INTER.ROT>
4

>  <SCORE.INTER.SOLV>
10.0447

>  <SCORE.INTER.VDW>
-25.1447

>  <SCORE.INTER.norm>
-1.05885

>  <SCORE.INTRA>
0.389101

>  <SCORE.INTRA.DIHEDRAL>
2.10856

>  <SCORE.INTRA.DIHEDRAL.0>
6.18831

>  <SCORE.INTRA.POLAR>
0

>  <SCORE.INTRA.POLAR.0>
0

>  <SCORE.INTRA.REPUL>
0

>  <SCORE.INTRA.REPUL.0>
0

>  <SCORE.INTRA.SOLV>
0.105753

>  <SCORE.INTRA.SOLV.lig_0>
-44.3465

>  <SCORE.INTRA.VDW>
-0.718057

>  <SCORE.INTRA.VDW.0>
-0.778272

>  <SCORE.INTRA.norm>
0.0176864

>  <SCORE.RESTR>
0

>  <SCORE.RESTR.CAVITY>
0

>  <SCORE.RESTR.norm>
0

>  <SCORE.SYSTEM>
0

>  <SCORE.SYSTEM.CONST>
0

>  <SCORE.SYSTEM.DIHEDRAL>
0

>  <SCORE.SYSTEM.SOLV>
0

>  <SCORE.SYSTEM.norm>
0

>  <SCORE.heavy>
22

>  <SCORE.norm>
-1.04117

>  <RMSD>
33.376

$$$$
ligand
 OpenBabel11021811503D
libRbt.so/2013.1/901 2013/11/27
 22 24  0  0  0  0  0  0  0  0999 V2000
   -5.8754  -29.3620   29.5608 C   0  0  0  0  0  0  0  0  0  0  0  0
   -6.4121  -30.1118   28.4929 C   0  0  0  0  0  0  0  0  0  0  0  0
   -5.5685  -30.5592   27.4797 C   0  0  0  0  0  0  0  0  0  0  0  0
   -4.1969  -30.2561   27.5368 C   0  0  0  0  0  0  0  0  0  0  0  0
   -3.6583  -29.4953   28.6035 C   0  0  0  0  0  0  0  0  0  0  0  0
   -4.5013  -29.0494   29.6124 C   0  0  0  0  0  0  0  0  0  0  0  0
   -6.7985  -28.8441   30.6806 C   0  0  0  0  0  0  0  0  0  0  0  0
   -7.2535  -27.3715   30.5248 C   0  0  0  0  0  0  0  0  0  0  0  0
   -6.2970  -26.3627   31.1500 C   0  0  0  0  0  0  0  0  0  0  0  0
   -5.1075  -25.9394   30.5492 C   0  0  0  0  0  0  0  0  0  0  0  0
   -4.5360  -25.0434   31.3957 N   0  0  0  0  0  0  0  0  0  0  0  0
   -5.2878  -24.8462   32.5368 C   0  0  0  0  0  0  0  0  0  0  0  0
   -6.4112  -25.6579   32.4247 C   0  0  0  0  0  0  0  0  0  0  0  0
   -7.3643  -25.6214   33.5122 C   0  0  0  0  0  0  0  0  0  0  0  0
   -8.5161  -26.4019   33.4633 O   0  0  0  0  0  0  0  0  0  0  0  0
   -7.1126  -24.8012   34.6039 N   0  0  0  0  0  0  0  0  0  0  0  0
   -6.0001  -24.0131   34.6663 C   0  0  0  0  0  0  0  0  0  0  0  0
   -5.0945  -24.0221   33.6756 N   0  0  0  0  0  0  0  0  0  0  0  0
   -5.7862  -23.1509   35.8331 N   0  0  0  0  0  0  0  0  0  0  0  0
   -3.3083  -30.7479   26.4252 C   0  0  0  0  0  0  0  0  0  0  0  0
   -3.7374  -31.5540   25.6017 O   0  0  0  0  0  0  0  0  0  0  0  0
   -1.9555  -30.2637   26.3513 N   0  0  0  0  0  0  0  0  0  0  0  0
  1  2  2  0  0  0  0
  1  6  1  0  0  0  0
  1  7  1  0  0  0  0
  2  3  1  0  0  0  0
  3  4  2  0  0  0  0
  4  5  1  0  0  0  0
  4 20  1  0  0  0  0
  5  6  2  0  0  0  0
  7  8  1  0  0  0  0
  8  9  1  0  0  0  0
  9 10  2  0  0  0  0
  9 13  1  0  0  0  0
 10 11  1  0  0  0  0
 11 12  1  0  0  0  0
 12 13  2  0  0  0  0
 12 18  1  0  0  0  0
 13 14  1  0  0  0  0
 14 15  1  0  0  0  0
 14 16  2  0  0  0  0
 16 17  1  0  0  0  0
 17 18  2  0  0  0  0
 17 19  1  0  0  0  0
 20 21  2  0  0  0  0
 20 22  1  0  0  0  0
M  END
>  <CHROM.1>
-97.74959306,-10.48191228,-88.21707225,79.06392212,-5.50866851,-27.41451124
30.69418857,1.29374123,-0.38413079,-2.38496855

>  <Name>
ligand

>  <RI>
0

>  <Rbt.Current_Directory>
/home/itssahil/PROJECTS/Mol_Feturizer/New_Systems/rnas/4LVY

>  <Rbt.Executable>
rbdock ($Id: //depot/dev/client3/rdock/2013.1/src/exe/rbdock.cxx#4 $)

>  <Rbt.Library>
libRbt.so (2013.1, Build901 2013/11/27)

>  <Rbt.Parameter_File>
/export/apps/rDock/src/rDock_2013.1_src/data/scripts/dock_solv.prm

>  <Rbt.Receptor>
prm/blind_docking_80.prm

>  <SCORE>
-23.1902

>  <SCORE.INTER>
-23.9339

>  <SCORE.INTER.CONST>
1

>  <SCORE.INTER.POLAR>
0

>  <SCORE.INTER.ROT>
4

>  <SCORE.INTER.SOLV>
8.97971

>  <SCORE.INTER.VDW>
-25.2158

>  <SCORE.INTER.norm>
-1.0879

>  <SCORE.INTRA>
0.743702

>  <SCORE.INTRA.DIHEDRAL>
2.76467

>  <SCORE.INTRA.DIHEDRAL.0>
6.18831

>  <SCORE.INTRA.POLAR>
0

>  <SCORE.INTRA.POLAR.0>
0

>  <SCORE.INTRA.REPUL>
0

>  <SCORE.INTRA.REPUL.0>
0

>  <SCORE.INTRA.SOLV>
0.11987

>  <SCORE.INTRA.SOLV.lig_0>
-44.3465

>  <SCORE.INTRA.VDW>
-0.698568

>  <SCORE.INTRA.VDW.0>
-0.778272

>  <SCORE.INTRA.norm>
0.0338046

>  <SCORE.RESTR>
0

>  <SCORE.RESTR.CAVITY>
0

>  <SCORE.RESTR.norm>
0

>  <SCORE.SYSTEM>
0

>  <SCORE.SYSTEM.CONST>
0

>  <SCORE.SYSTEM.DIHEDRAL>
0

>  <SCORE.SYSTEM.SOLV>
0

>  <SCORE.SYSTEM.norm>
0

>  <SCORE.heavy>
22

>  <SCORE.norm>
-1.0541

>  <RMSD>
33.376

$$$$
ligand
 OpenBabel11021811503D
libRbt.so/2013.1/901 2013/11/27
 22 24  0  0  0  0  0  0  0  0999 V2000
   -6.0189  -29.3052   29.4809 C   0  0  0  0  0  0  0  0  0  0  0  0
   -4.6431  -29.0196   29.6080 C   0  0  0  0  0  0  0  0  0  0  0  0
   -3.7536  -29.5013   28.6515 C   0  0  0  0  0  0  0  0  0  0  0  0
   -4.2402  -30.2646   27.5759 C   0  0  0  0  0  0  0  0  0  0  0  0
   -5.6201  -30.5601   27.4521 C   0  0  0  0  0  0  0  0  0  0  0  0
   -6.5054  -30.0794   28.4073 C   0  0  0  0  0  0  0  0  0  0  0  0
   -7.0142  -28.7946   30.5405 C   0  0  0  0  0  0  0  0  0  0  0  0
   -7.3851  -27.2953   30.4210 C   0  0  0  0  0  0  0  0  0  0  0  0
   -6.3804  -26.3585   31.0817 C   0  0  0  0  0  0  0  0  0  0  0  0
   -5.1414  -26.0258   30.5257 C   0  0  0  0  0  0  0  0  0  0  0  0
   -4.5369  -25.1726   31.3932 N   0  0  0  0  0  0  0  0  0  0  0  0
   -5.3138  -24.9175   32.5056 C   0  0  0  0  0  0  0  0  0  0  0  0
   -6.4893  -25.6442   32.3516 C   0  0  0  0  0  0  0  0  0  0  0  0
   -7.4767  -25.5347   33.4030 C   0  0  0  0  0  0  0  0  0  0  0  0
   -8.6805  -26.2279   33.3111 O   0  0  0  0  0  0  0  0  0  0  0  0
   -7.2056  -24.7327   34.5035 N   0  0  0  0  0  0  0  0  0  0  0  0
   -6.0409  -24.0290   34.6075 C   0  0  0  0  0  0  0  0  0  0  0  0
   -5.1023  -24.1073   33.6511 N   0  0  0  0  0  0  0  0  0  0  0  0
   -5.8072  -23.1822   35.7818 N   0  0  0  0  0  0  0  0  0  0  0  0
   -3.2554  -30.7775   26.5588 C   0  0  0  0  0  0  0  0  0  0  0  0
   -3.5922  -31.6454   25.7555 O   0  0  0  0  0  0  0  0  0  0  0  0
   -1.9210  -30.2397   26.5511 N   0  0  0  0  0  0  0  0  0  0  0  0
  1  2  2  0  0  0  0
  1  6  1  0  0  0  0
  1  7  1  0  0  0  0
  2  3  1  0  0  0  0
  3  4  2  0  0  0  0
  4  5  1  0  0  0  0
  4 20  1  0  0  0  0
  5  6  2  0  0  0  0
  7  8  1  0  0  0  0
  8  9  1  0  0  0  0
  9 10  2  0  0  0  0
  9 13  1  0  0  0  0
 10 11  1  0  0  0  0
 11 12  1  0  0  0  0
 12 13  2  0  0  0  0
 12 18  1  0  0  0  0
 13 14  1  0  0  0  0
 14 15  1  0  0  0  0
 14 16  2  0  0  0  0
 16 17  1  0  0  0  0
 17 18  2  0  0  0  0
 17 19  1  0  0  0  0
 20 21  2  0  0  0  0
 20 22  1  0  0  0  0
M  END
>  <CHROM.1>
77.71108310,166.29543600,-83.45918801,76.56795301,-5.56844737,-27.41102218
30.66906343,1.29080328,-0.30395023,-2.37688129

>  <Name>
ligand

>  <RI>
0

>  <Rbt.Current_Directory>
/home/itssahil/PROJECTS/Mol_Feturizer/New_Systems/rnas/4LVY

>  <Rbt.Executable>
rbdock ($Id: //depot/dev/client3/rdock/2013.1/src/exe/rbdock.cxx#4 $)

>  <Rbt.Library>
libRbt.so (2013.1, Build901 2013/11/27)

>  <Rbt.Parameter_File>
/export/apps/rDock/src/rDock_2013.1_src/data/scripts/dock_solv.prm

>  <Rbt.Receptor>
prm/blind_docking_100.prm

>  <SCORE>
-23.1727

>  <SCORE.INTER>
-23.5311

>  <SCORE.INTER.CONST>
1

>  <SCORE.INTER.POLAR>
0

>  <SCORE.INTER.ROT>
4

>  <SCORE.INTER.SOLV>
9.1399

>  <SCORE.INTER.VDW>
-25.0007

>  <SCORE.INTER.norm>
-1.0696

>  <SCORE.INTRA>
0.35844

>  <SCORE.INTRA.DIHEDRAL>
2.11711

>  <SCORE.INTRA.DIHEDRAL.0>
6.18831

>  <SCORE.INTRA.POLAR>
0

>  <SCORE.INTRA.POLAR.0>
0

>  <SCORE.INTRA.REPUL>
0

>  <SCORE.INTRA.REPUL.0>
0

>  <SCORE.INTRA.SOLV>
0.112403

>  <SCORE.INTRA.SOLV.lig_0>
-44.3465

>  <SCORE.INTRA.VDW>
-0.756318

>  <SCORE.INTRA.VDW.0>
-0.778272

>  <SCORE.INTRA.norm>
0.0162927

>  <SCORE.RESTR>
0

>  <SCORE.RESTR.CAVITY>
0

>  <SCORE.RESTR.norm>
0

>  <SCORE.SYSTEM>
0

>  <SCORE.SYSTEM.CONST>
0

>  <SCORE.SYSTEM.DIHEDRAL>
0

>  <SCORE.SYSTEM.SOLV>
0

>  <SCORE.SYSTEM.norm>
0

>  <SCORE.heavy>
22

>  <SCORE.norm>
-1.0533

>  <RMSD>
33.379

$$$$
ligand
 OpenBabel11021811503D
libRbt.so/2013.1/901 2013/11/27
 22 24  0  0  0  0  0  0  0  0999 V2000
   -5.8543  -29.3577   29.4608 C   0  0  0  0  0  0  0  0  0  0  0  0
   -6.2934  -30.1443   28.3750 C   0  0  0  0  0  0  0  0  0  0  0  0
   -5.3741  -30.5585   27.4150 C   0  0  0  0  0  0  0  0  0  0  0  0
   -4.0246  -30.1858   27.5426 C   0  0  0  0  0  0  0  0  0  0  0  0
   -3.5841  -29.3881   28.6273 C   0  0  0  0  0  0  0  0  0  0  0  0
   -4.5024  -28.9755   29.5831 C   0  0  0  0  0  0  0  0  0  0  0  0
   -6.8622  -28.8760   30.5222 C   0  0  0  0  0  0  0  0  0  0  0  0
   -7.2652  -27.3842   30.4124 C   0  0  0  0  0  0  0  0  0  0  0  0
   -6.2845  -26.4311   31.0857 C   0  0  0  0  0  0  0  0  0  0  0  0
   -5.0527  -26.0628   30.5364 C   0  0  0  0  0  0  0  0  0  0  0  0
   -4.4706  -25.2049   31.4146 N   0  0  0  0  0  0  0  0  0  0  0  0
   -5.2558  -24.9807   32.5278 C   0  0  0  0  0  0  0  0  0  0  0  0
   -6.4132  -25.7335   32.3631 C   0  0  0  0  0  0  0  0  0  0  0  0
   -7.4053  -25.6592   33.4132 C   0  0  0  0  0  0  0  0  0  0  0  0
   -8.5919  -26.3800   33.3108 O   0  0  0  0  0  0  0  0  0  0  0  0
   -7.1558  -24.8632   34.5231 N   0  0  0  0  0  0  0  0  0  0  0  0
   -6.0085  -24.1330   34.6376 C   0  0  0  0  0  0  0  0  0  0  0  0
   -5.0662  -24.1783   33.6827 N   0  0  0  0  0  0  0  0  0  0  0  0
   -5.7975  -23.2939   35.8216 N   0  0  0  0  0  0  0  0  0  0  0  0
   -3.0529  -30.6431   26.4873 C   0  0  0  0  0  0  0  0  0  0  0  0
   -1.8875  -30.2513   26.5088 O   0  0  0  0  0  0  0  0  0  0  0  0
   -3.5146  -31.5357   25.4576 N   0  0  0  0  0  0  0  0  0  0  0  0
  1  2  2  0  0  0  0
  1  6  1  0  0  0  0
  1  7  1  0  0  0  0
  2  3  1  0  0  0  0
  3  4  2  0  0  0  0
  4  5  1  0  0  0  0
  4 20  1  0  0  0  0
  5  6  2  0  0  0  0
  7  8  1  0  0  0  0
  8  9  1  0  0  0  0
  9 10  2  0  0  0  0
  9 13  1  0  0  0  0
 10 11  1  0  0  0  0
 11 12  1  0  0  0  0
 12 13  2  0  0  0  0
 12 18  1  0  0  0  0
 13 14  1  0  0  0  0
 14 15  1  0  0  0  0
 14 16  2  0  0  0  0
 16 17  1  0  0  0  0
 17 18  2  0  0  0  0
 17 19  1  0  0  0  0
 20 21  2  0  0  0  0
 20 22  1  0  0  0  0
M  END
>  <CHROM.1>
-104.00653047,174.33977702,-83.66573648,76.84294181,-5.45052665,-27.44016311
30.65531763,1.27223783,-0.32592541,-2.36586290

>  <Name>
ligand

>  <RI>
0

>  <Rbt.Current_Directory>
/home/itssahil/PROJECTS/Mol_Feturizer/New_Systems/rnas/4LVY

>  <Rbt.Executable>
rbdock ($Id: //depot/dev/client3/rdock/2013.1/src/exe/rbdock.cxx#4 $)

>  <Rbt.Library>
libRbt.so (2013.1, Build901 2013/11/27)

>  <Rbt.Parameter_File>
/export/apps/rDock/src/rDock_2013.1_src/data/scripts/dock_solv.prm

>  <Rbt.Receptor>
prm/blind_docking_100.prm

>  <SCORE>
-22.9877

>  <SCORE.INTER>
-23.3567

>  <SCORE.INTER.CONST>
1

>  <SCORE.INTER.POLAR>
0

>  <SCORE.INTER.ROT>
4

>  <SCORE.INTER.SOLV>
10.324

>  <SCORE.INTER.VDW>
-25.2791

>  <SCORE.INTER.norm>
-1.06167

>  <SCORE.INTRA>
0.369022

>  <SCORE.INTRA.DIHEDRAL>
2.04438

>  <SCORE.INTRA.DIHEDRAL.0>
6.18831

>  <SCORE.INTRA.POLAR>
0

>  <SCORE.INTRA.POLAR.0>
0

>  <SCORE.INTRA.REPUL>
0

>  <SCORE.INTRA.REPUL.0>
0

>  <SCORE.INTRA.SOLV>
0.114271

>  <SCORE.INTRA.SOLV.lig_0>
-44.3465

>  <SCORE.INTRA.VDW>
-0.710303

>  <SCORE.INTRA.VDW.0>
-0.778272

>  <SCORE.INTRA.norm>
0.0167737

>  <SCORE.RESTR>
0

>  <SCORE.RESTR.CAVITY>
0

>  <SCORE.RESTR.norm>
0

>  <SCORE.SYSTEM>
0

>  <SCORE.SYSTEM.CONST>
0

>  <SCORE.SYSTEM.DIHEDRAL>
0

>  <SCORE.SYSTEM.SOLV>
0

>  <SCORE.SYSTEM.norm>
0

>  <SCORE.heavy>
22

>  <SCORE.norm>
-1.04489

>  <RMSD>
33.381

$$$$
ligand
 OpenBabel11021811503D
libRbt.so/2013.1/901 2013/11/27
 22 24  0  0  0  0  0  0  0  0999 V2000
   -5.5852  -29.5682   29.6136 C   0  0  0  0  0  0  0  0  0  0  0  0
   -6.0865  -30.3170   28.5279 C   0  0  0  0  0  0  0  0  0  0  0  0
   -5.2514  -30.6033   27.4513 C   0  0  0  0  0  0  0  0  0  0  0  0
   -3.9238  -30.1412   27.4631 C   0  0  0  0  0  0  0  0  0  0  0  0
   -3.4220  -29.3812   28.5482 C   0  0  0  0  0  0  0  0  0  0  0  0
   -4.2564  -29.0962   29.6205 C   0  0  0  0  0  0  0  0  0  0  0  0
   -6.5015  -29.2276   30.8046 C   0  0  0  0  0  0  0  0  0  0  0  0
   -7.4379  -28.0134   30.5834 C   0  0  0  0  0  0  0  0  0  0  0  0
   -6.8241  -26.6803   30.9950 C   0  0  0  0  0  0  0  0  0  0  0  0
   -5.7896  -26.0492   30.2976 C   0  0  0  0  0  0  0  0  0  0  0  0
   -5.5182  -24.8927   30.9572 N   0  0  0  0  0  0  0  0  0  0  0  0
   -6.3235  -24.7192   32.0651 C   0  0  0  0  0  0  0  0  0  0  0  0
   -7.1662  -25.8234   32.1280 C   0  0  0  0  0  0  0  0  0  0  0  0
   -8.1174  -25.8680   33.2169 C   0  0  0  0  0  0  0  0  0  0  0  0
   -8.9977  -26.9397   33.3372 O   0  0  0  0  0  0  0  0  0  0  0  0
   -8.1371  -24.8306   34.1396 N   0  0  0  0  0  0  0  0  0  0  0  0
   -7.2968  -23.7605   34.0323 C   0  0  0  0  0  0  0  0  0  0  0  0
   -6.4015  -23.6864   33.0350 N   0  0  0  0  0  0  0  0  0  0  0  0
   -7.3665  -22.6811   35.0225 N   0  0  0  0  0  0  0  0  0  0  0  0
   -3.0442  -30.4606   26.2835 C   0  0  0  0  0  0  0  0  0  0  0  0
   -1.9577  -29.8999   26.1530 O   0  0  0  0  0  0  0  0  0  0  0  0
   -3.5013  -31.4230   25.3165 N   0  0  0  0  0  0  0  0  0  0  0  0
  1  2  2  0  0  0  0
  1  6  1  0  0  0  0
  1  7  1  0  0  0  0
  2  3  1  0  0  0  0
  3  4  2  0  0  0  0
  4  5  1  0  0  0  0
  4 20  1  0  0  0  0
  5  6  2  0  0  0  0
  7  8  1  0  0  0  0
  8  9  1  0  0  0  0
  9 10  2  0  0  0  0
  9 13  1  0  0  0  0
 10 11  1  0  0  0  0
 11 12  1  0  0  0  0
 12 13  2  0  0  0  0
 12 18  1  0  0  0  0
 13 14  1  0  0  0  0
 14 15  1  0  0  0  0
 14 16  2  0  0  0  0
 16 17  1  0  0  0  0
 17 18  2  0  0  0  0
 17 19  1  0  0  0  0
 20 21  2  0  0  0  0
 20 22  1  0  0  0  0
M  END
>  <CHROM.1>
-81.18868195,168.22050606,-89.46302536,70.98631148,-5.87573405,-27.43246843
30.46423748,1.06757973,-0.60542555,-2.60381147

>  <Name>
ligand

>  <RI>
0

>  <Rbt.Current_Directory>
/home/itssahil/PROJECTS/Mol_Feturizer/New_Systems/rnas/4LVY

>  <Rbt.Executable>
rbdock ($Id: //depot/dev/client3/rdock/2013.1/src/exe/rbdock.cxx#4 $)

>  <Rbt.Library>
libRbt.so (2013.1, Build901 2013/11/27)

>  <Rbt.Parameter_File>
/export/apps/rDock/src/rDock_2013.1_src/data/scripts/dock_solv.prm

>  <Rbt.Receptor>
prm/blind_docking_80.prm

>  <SCORE>
-22.0621

>  <SCORE.INTER>
-22.8963

>  <SCORE.INTER.CONST>
1

>  <SCORE.INTER.POLAR>
0

>  <SCORE.INTER.ROT>
4

>  <SCORE.INTER.SOLV>
8.99661

>  <SCORE.INTER.VDW>
-24.5298

>  <SCORE.INTER.norm>
-1.04074

>  <SCORE.INTRA>
0.834208

>  <SCORE.INTRA.DIHEDRAL>
2.92641

>  <SCORE.INTRA.DIHEDRAL.0>
6.18831

>  <SCORE.INTRA.POLAR>
0

>  <SCORE.INTRA.POLAR.0>
0

>  <SCORE.INTRA.REPUL>
0

>  <SCORE.INTRA.REPUL.0>
0

>  <SCORE.INTRA.SOLV>
0.0914469

>  <SCORE.INTRA.SOLV.lig_0>
-44.3465

>  <SCORE.INTRA.VDW>
-0.674718

>  <SCORE.INTRA.VDW.0>
-0.778272

>  <SCORE.INTRA.norm>
0.0379186

>  <SCORE.RESTR>
0

>  <SCORE.RESTR.CAVITY>
0

>  <SCORE.RESTR.norm>
0

>  <SCORE.SYSTEM>
0

>  <SCORE.SYSTEM.CONST>
0

>  <SCORE.SYSTEM.DIHEDRAL>
0

>  <SCORE.SYSTEM.SOLV>
0

>  <SCORE.SYSTEM.norm>
0

>  <SCORE.heavy>
22

>  <SCORE.norm>
-1.00282

>  <RMSD>
33.394

$$$$
ligand
 OpenBabel11021811503D
libRbt.so/2013.1/901 2013/11/27
 22 24  0  0  0  0  0  0  0  0999 V2000
   -5.7916  -29.1811   30.3413 C   0  0  0  0  0  0  0  0  0  0  0  0
   -6.7167  -30.0281   29.6951 C   0  0  0  0  0  0  0  0  0  0  0  0
   -6.3789  -30.6038   28.4734 C   0  0  0  0  0  0  0  0  0  0  0  0
   -5.1230  -30.3315   27.9035 C   0  0  0  0  0  0  0  0  0  0  0  0
   -4.1969  -29.4737   28.5466 C   0  0  0  0  0  0  0  0  0  0  0  0
   -4.5359  -28.9000   29.7645 C   0  0  0  0  0  0  0  0  0  0  0  0
   -6.1570  -28.5218   31.6852 C   0  0  0  0  0  0  0  0  0  0  0  0
   -6.0858  -26.9743   31.6954 C   0  0  0  0  0  0  0  0  0  0  0  0
   -5.8866  -26.3769   33.0836 C   0  0  0  0  0  0  0  0  0  0  0  0
   -5.3777  -27.0892   34.1737 C   0  0  0  0  0  0  0  0  0  0  0  0
   -5.3422  -26.2287   35.2245 N   0  0  0  0  0  0  0  0  0  0  0  0
   -5.8040  -24.9716   34.8890 C   0  0  0  0  0  0  0  0  0  0  0  0
   -6.1576  -25.0173   33.5450 C   0  0  0  0  0  0  0  0  0  0  0  0
   -6.6727  -23.8012   32.9551 C   0  0  0  0  0  0  0  0  0  0  0  0
   -7.0387  -23.7720   31.6122 O   0  0  0  0  0  0  0  0  0  0  0  0
   -6.7992  -22.6674   33.7466 N   0  0  0  0  0  0  0  0  0  0  0  0
   -6.4298  -22.6661   35.0604 C   0  0  0  0  0  0  0  0  0  0  0  0
   -5.9484  -23.7766   35.6406 N   0  0  0  0  0  0  0  0  0  0  0  0
   -6.5670  -21.4389   35.8515 N   0  0  0  0  0  0  0  0  0  0  0  0
   -4.7858  -30.9632   26.5789 C   0  0  0  0  0  0  0  0  0  0  0  0
   -5.6735  -31.4569   25.8859 O   0  0  0  0  0  0  0  0  0  0  0  0
   -3.4132  -30.9827   26.1479 N   0  0  0  0  0  0  0  0  0  0  0  0
  1  2  2  0  0  0  0
  1  6  1  0  0  0  0
  1  7  1  0  0  0  0
  2  3  1  0  0  0  0
  3  4  2  0  0  0  0
  4  5  1  0  0  0  0
  4 20  1  0  0  0  0
  5  6  2  0  0  0  0
  7  8  1  0  0  0  0
  8  9  1  0  0  0  0
  9 10  2  0  0  0  0
  9 13  1  0  0  0  0
 10 11  1  0  0  0  0
 11 12  1  0  0  0  0
 12 13  2  0  0  0  0
 12 18  1  0  0  0  0
 13 14  1  0  0  0  0
 14 15  1  0  0  0  0
 14 16  2  0  0  0  0
 16 17  1  0  0  0  0
 17 18  2  0  0  0  0
 17 19  1  0  0  0  0
 20 21  2  0  0  0  0
 20 22  1  0  0  0  0
M  END
>  <CHROM.1>
-122.47932501,15.43208678,-156.49316106,20.28986291,-5.78343195,-27.00991289
31.46854957,-1.10565349,-1.29231726,1.24465160

>  <Name>
ligand

>  <RI>
0

>  <Rbt.Current_Directory>
/home/itssahil/PROJECTS/Mol_Feturizer/New_Systems/rnas/4LVY

>  <Rbt.Executable>
rbdock ($Id: //depot/dev/client3/rdock/2013.1/src/exe/rbdock.cxx#4 $)

>  <Rbt.Library>
libRbt.so (2013.1, Build901 2013/11/27)

>  <Rbt.Parameter_File>
/export/apps/rDock/src/rDock_2013.1_src/data/scripts/dock_solv.prm

>  <Rbt.Receptor>
prm/blind_docking_60.prm

>  <SCORE>
-17.8419

>  <SCORE.INTER>
-19.2456

>  <SCORE.INTER.CONST>
1

>  <SCORE.INTER.POLAR>
0

>  <SCORE.INTER.ROT>
4

>  <SCORE.INTER.SOLV>
10.6182

>  <SCORE.INTER.VDW>
-22.6365

>  <SCORE.INTER.norm>
-0.874801

>  <SCORE.INTRA>
1.40367

>  <SCORE.INTRA.DIHEDRAL>
2.03318

>  <SCORE.INTRA.DIHEDRAL.0>
6.18831

>  <SCORE.INTRA.POLAR>
0

>  <SCORE.INTRA.POLAR.0>
0

>  <SCORE.INTRA.REPUL>
0

>  <SCORE.INTRA.REPUL.0>
0

>  <SCORE.INTRA.SOLV>
0.0060036

>  <SCORE.INTRA.SOLV.lig_0>
-44.3465

>  <SCORE.INTRA.VDW>
0.384079

>  <SCORE.INTRA.VDW.0>
-0.778272

>  <SCORE.INTRA.norm>
0.0638033

>  <SCORE.RESTR>
0

>  <SCORE.RESTR.CAVITY>
0

>  <SCORE.RESTR.norm>
0

>  <SCORE.SYSTEM>
0

>  <SCORE.SYSTEM.CONST>
0

>  <SCORE.SYSTEM.DIHEDRAL>
0

>  <SCORE.SYSTEM.SOLV>
0

>  <SCORE.SYSTEM.norm>
0

>  <SCORE.heavy>
22

>  <SCORE.norm>
-0.810998

>  <RMSD>
33.402

$$$$
ligand
 OpenBabel11021811503D
libRbt.so/2013.1/901 2013/11/27
 22 24  0  0  0  0  0  0  0  0999 V2000
   -5.9161  -29.3672   29.5052 C   0  0  0  0  0  0  0  0  0  0  0  0
   -6.3962  -30.1130   28.4080 C   0  0  0  0  0  0  0  0  0  0  0  0
   -5.5036  -30.5403   27.4287 C   0  0  0  0  0  0  0  0  0  0  0  0
   -4.1398  -30.2211   27.5485 C   0  0  0  0  0  0  0  0  0  0  0  0
   -3.6579  -29.4642   28.6448 C   0  0  0  0  0  0  0  0  0  0  0  0
   -4.5496  -29.0385   29.6198 C   0  0  0  0  0  0  0  0  0  0  0  0
   -6.8936  -28.8715   30.5883 C   0  0  0  0  0  0  0  0  0  0  0  0
   -7.3136  -27.3859   30.4601 C   0  0  0  0  0  0  0  0  0  0  0  0
   -6.3281  -26.4112   31.0942 C   0  0  0  0  0  0  0  0  0  0  0  0
   -5.1288  -26.0140   30.4952 C   0  0  0  0  0  0  0  0  0  0  0  0
   -4.5306  -25.1439   31.3503 N   0  0  0  0  0  0  0  0  0  0  0  0
   -5.2740  -24.9391   32.4956 C   0  0  0  0  0  0  0  0  0  0  0  0
   -6.4197  -25.7182   32.3773 C   0  0  0  0  0  0  0  0  0  0  0  0
   -7.3689  -25.6678   33.4677 C   0  0  0  0  0  0  0  0  0  0  0  0
   -8.5419  -26.4155   33.4130 O   0  0  0  0  0  0  0  0  0  0  0  0
   -7.0920  -24.8674   34.5679 N   0  0  0  0  0  0  0  0  0  0  0  0
   -5.9580  -24.1112   34.6363 C   0  0  0  0  0  0  0  0  0  0  0  0
   -5.0552  -24.1338   33.6432 N   0  0  0  0  0  0  0  0  0  0  0  0
   -5.7175  -23.2687   35.8123 N   0  0  0  0  0  0  0  0  0  0  0  0
   -3.1974  -30.6912   26.4724 C   0  0  0  0  0  0  0  0  0  0  0  0
   -2.0638  -30.2211   26.3950 O   0  0  0  0  0  0  0  0  0  0  0  0
   -3.6500  -31.6891   25.5400 N   0  0  0  0  0  0  0  0  0  0  0  0
  1  2  2  0  0  0  0
  1  6  1  0  0  0  0
  1  7  1  0  0  0  0
  2  3  1  0  0  0  0
  3  4  2  0  0  0  0
  4  5  1  0  0  0  0
  4 20  1  0  0  0  0
  5  6  2  0  0  0  0
  7  8  1  0  0  0  0
  8  9  1  0  0  0  0
  9 10  2  0  0  0  0
  9 13  1  0  0  0  0
 10 11  1  0  0  0  0
 11 12  1  0  0  0  0
 12 13  2  0  0  0  0
 12 18  1  0  0  0  0
 13 14  1  0  0  0  0
 14 15  1  0  0  0  0
 14 16  2  0  0  0  0
 16 17  1  0  0  0  0
 17 18  2  0  0  0  0
 17 19  1  0  0  0  0
 20 21  2  0  0  0  0
 20 22  1  0  0  0  0
M  END
>  <CHROM.1>
-100.19406016,165.66070793,-84.29470019,78.61540133,-5.49420057,-27.44348032
30.66677879,1.28832552,-0.35732459,-2.37332777

>  <Name>
ligand

>  <RI>
0

>  <Rbt.Current_Directory>
/home/itssahil/PROJECTS/Mol_Feturizer/New_Systems/rnas/4LVY

>  <Rbt.Executable>
rbdock ($Id: //depot/dev/client3/rdock/2013.1/src/exe/rbdock.cxx#4 $)

>  <Rbt.Library>
libRbt.so (2013.1, Build901 2013/11/27)

>  <Rbt.Parameter_File>
/export/apps/rDock/src/rDock_2013.1_src/data/scripts/dock_solv.prm

>  <Rbt.Receptor>
prm/blind_docking_80.prm

>  <SCORE>
-23.0323

>  <SCORE.INTER>
-23.378

>  <SCORE.INTER.CONST>
1

>  <SCORE.INTER.POLAR>
0

>  <SCORE.INTER.ROT>
4

>  <SCORE.INTER.SOLV>
10.5124

>  <SCORE.INTER.VDW>
-25.3561

>  <SCORE.INTER.norm>
-1.06264

>  <SCORE.INTRA>
0.345699

>  <SCORE.INTRA.DIHEDRAL>
2.12134

>  <SCORE.INTRA.DIHEDRAL.0>
6.18831

>  <SCORE.INTRA.POLAR>
0

>  <SCORE.INTRA.POLAR.0>
0

>  <SCORE.INTRA.REPUL>
0

>  <SCORE.INTRA.REPUL.0>
0

>  <SCORE.INTRA.SOLV>
0.12026

>  <SCORE.INTRA.SOLV.lig_0>
-44.3465

>  <SCORE.INTRA.VDW>
-0.775101

>  <SCORE.INTRA.VDW.0>
-0.778272

>  <SCORE.INTRA.norm>
0.0157136

>  <SCORE.RESTR>
0

>  <SCORE.RESTR.CAVITY>
0

>  <SCORE.RESTR.norm>
0

>  <SCORE.SYSTEM>
0

>  <SCORE.SYSTEM.CONST>
0

>  <SCORE.SYSTEM.DIHEDRAL>
0

>  <SCORE.SYSTEM.SOLV>
0

>  <SCORE.SYSTEM.norm>
0

>  <SCORE.heavy>
22

>  <SCORE.norm>
-1.04692

>  <RMSD>
33.404

$$$$
ligand
 OpenBabel11021811503D
libRbt.so/2013.1/901 2013/11/27
 22 24  0  0  0  0  0  0  0  0999 V2000
   -5.7973  -29.4082   29.6219 C   0  0  0  0  0  0  0  0  0  0  0  0
   -6.3169  -30.1614   28.5479 C   0  0  0  0  0  0  0  0  0  0  0  0
   -5.4679  -30.5613   27.5195 C   0  0  0  0  0  0  0  0  0  0  0  0
   -4.1081  -30.2078   27.5675 C   0  0  0  0  0  0  0  0  0  0  0  0
   -3.5871  -29.4436   28.6405 C   0  0  0  0  0  0  0  0  0  0  0  0
   -4.4353  -29.0451   29.6646 C   0  0  0  0  0  0  0  0  0  0  0  0
   -6.7271  -28.9425   30.7589 C   0  0  0  0  0  0  0  0  0  0  0  0
   -7.2233  -27.4797   30.6405 C   0  0  0  0  0  0  0  0  0  0  0  0
   -6.2630  -26.4547   31.2327 C   0  0  0  0  0  0  0  0  0  0  0  0
   -5.0817  -26.0412   30.6096 C   0  0  0  0  0  0  0  0  0  0  0  0
   -4.5035  -25.1252   31.4298 N   0  0  0  0  0  0  0  0  0  0  0  0
   -5.2432  -24.9052   32.5746 C   0  0  0  0  0  0  0  0  0  0  0  0
   -6.3652  -25.7225   32.4930 C   0  0  0  0  0  0  0  0  0  0  0  0
   -7.3062  -25.6649   33.5901 C   0  0  0  0  0  0  0  0  0  0  0  0
   -8.4560  -26.4496   33.5712 O   0  0  0  0  0  0  0  0  0  0  0  0
   -7.0449  -24.8202   34.6606 N   0  0  0  0  0  0  0  0  0  0  0  0
   -5.9343  -24.0277   34.6933 C   0  0  0  0  0  0  0  0  0  0  0  0
   -5.0397  -24.0558   33.6929 N   0  0  0  0  0  0  0  0  0  0  0  0
   -5.7100  -23.1396   35.8385 N   0  0  0  0  0  0  0  0  0  0  0  0
   -3.2136  -30.6490   26.4394 C   0  0  0  0  0  0  0  0  0  0  0  0
   -2.0660  -30.2155   26.3550 O   0  0  0  0  0  0  0  0  0  0  0  0
   -3.7281  -31.5757   25.4666 N   0  0  0  0  0  0  0  0  0  0  0  0
  1  2  2  0  0  0  0
  1  6  1  0  0  0  0
  1  7  1  0  0  0  0
  2  3  1  0  0  0  0
  3  4  2  0  0  0  0
  4  5  1  0  0  0  0
  4 20  1  0  0  0  0
  5  6  2  0  0  0  0
  7  8  1  0  0  0  0
  8  9  1  0  0  0  0
  9 10  2  0  0  0  0
  9 13  1  0  0  0  0
 10 11  1  0  0  0  0
 11 12  1  0  0  0  0
 12 13  2  0  0  0  0
 12 18  1  0  0  0  0
 13 14  1  0  0  0  0
 14 15  1  0  0  0  0
 14 16  2  0  0  0  0
 16 17  1  0  0  0  0
 17 18  2  0  0  0  0
 17 19  1  0  0  0  0
 20 21  2  0  0  0  0
 20 22  1  0  0  0  0
M  END
>  <CHROM.1>
-98.53636827,170.47936943,-85.80896113,76.09376596,-5.44587331,-27.43406098
30.74112426,1.28718850,-0.40829782,-2.38380325

>  <Name>
ligand

>  <RI>
0

>  <Rbt.Current_Directory>
/home/itssahil/PROJECTS/Mol_Feturizer/New_Systems/rnas/4LVY

>  <Rbt.Executable>
rbdock ($Id: //depot/dev/client3/rdock/2013.1/src/exe/rbdock.cxx#4 $)

>  <Rbt.Library>
libRbt.so (2013.1, Build901 2013/11/27)

>  <Rbt.Parameter_File>
/export/apps/rDock/src/rDock_2013.1_src/data/scripts/dock_solv.prm

>  <Rbt.Receptor>
prm/blind_docking_80.prm

>  <SCORE>
-22.9819

>  <SCORE.INTER>
-23.4911

>  <SCORE.INTER.CONST>
1

>  <SCORE.INTER.POLAR>
0

>  <SCORE.INTER.ROT>
4

>  <SCORE.INTER.SOLV>
10.0981

>  <SCORE.INTER.VDW>
-25.2934

>  <SCORE.INTER.norm>
-1.06778

>  <SCORE.INTRA>
0.509238

>  <SCORE.INTRA.DIHEDRAL>
2.35609

>  <SCORE.INTRA.DIHEDRAL.0>
6.18831

>  <SCORE.INTRA.POLAR>
0

>  <SCORE.INTRA.POLAR.0>
0

>  <SCORE.INTRA.REPUL>
0

>  <SCORE.INTRA.REPUL.0>
0

>  <SCORE.INTRA.SOLV>
0.111014

>  <SCORE.INTRA.SOLV.lig_0>
-44.3465

>  <SCORE.INTRA.VDW>
-0.724315

>  <SCORE.INTRA.VDW.0>
-0.778272

>  <SCORE.INTRA.norm>
0.0231472

>  <SCORE.RESTR>
0

>  <SCORE.RESTR.CAVITY>
0

>  <SCORE.RESTR.norm>
0

>  <SCORE.SYSTEM>
0

>  <SCORE.SYSTEM.CONST>
0

>  <SCORE.SYSTEM.DIHEDRAL>
0

>  <SCORE.SYSTEM.SOLV>
0

>  <SCORE.SYSTEM.norm>
0

>  <SCORE.heavy>
22

>  <SCORE.norm>
-1.04463

>  <RMSD>
33.405

$$$$
ligand
 OpenBabel11021811503D
libRbt.so/2013.1/901 2013/11/27
 22 24  0  0  0  0  0  0  0  0999 V2000
   -5.8244  -29.4342   29.4684 C   0  0  0  0  0  0  0  0  0  0  0  0
   -4.4561  -29.0902   29.4665 C   0  0  0  0  0  0  0  0  0  0  0  0
   -3.6416  -29.5319   28.4273 C   0  0  0  0  0  0  0  0  0  0  0  0
   -4.1951  -30.3135   27.3982 C   0  0  0  0  0  0  0  0  0  0  0  0
   -5.5668  -30.6675   27.4039 C   0  0  0  0  0  0  0  0  0  0  0  0
   -6.3772  -30.2267   28.4412 C   0  0  0  0  0  0  0  0  0  0  0  0
   -6.7356  -28.9684   30.6203 C   0  0  0  0  0  0  0  0  0  0  0  0
   -7.2079  -27.4960   30.5265 C   0  0  0  0  0  0  0  0  0  0  0  0
   -6.2415  -26.4988   31.1552 C   0  0  0  0  0  0  0  0  0  0  0  0
   -5.0276  -26.1173   30.5757 C   0  0  0  0  0  0  0  0  0  0  0  0
   -4.4542  -25.2188   31.4183 N   0  0  0  0  0  0  0  0  0  0  0  0
   -5.2280  -24.9801   32.5365 C   0  0  0  0  0  0  0  0  0  0  0  0
   -6.3686  -25.7659   32.4128 C   0  0  0  0  0  0  0  0  0  0  0  0
   -7.3464  -25.6839   33.4756 C   0  0  0  0  0  0  0  0  0  0  0  0
   -8.5160  -26.4364   33.4137 O   0  0  0  0  0  0  0  0  0  0  0  0
   -7.1003  -24.8484   34.5569 N   0  0  0  0  0  0  0  0  0  0  0  0
   -5.9701  -24.0870   34.6312 C   0  0  0  0  0  0  0  0  0  0  0  0
   -5.0414  -24.1383   33.6634 N   0  0  0  0  0  0  0  0  0  0  0  0
   -5.7626  -23.2071   35.7859 N   0  0  0  0  0  0  0  0  0  0  0  0
   -3.2903  -30.7821   26.2897 C   0  0  0  0  0  0  0  0  0  0  0  0
   -3.7261  -31.5167   25.4051 O   0  0  0  0  0  0  0  0  0  0  0  0
   -1.9145  -30.3611   26.2909 N   0  0  0  0  0  0  0  0  0  0  0  0
  1  2  2  0  0  0  0
  1  6  1  0  0  0  0
  1  7  1  0  0  0  0
  2  3  1  0  0  0  0
  3  4  2  0  0  0  0
  4  5  1  0  0  0  0
  4 20  1  0  0  0  0
  5  6  2  0  0  0  0
  7  8  1  0  0  0  0
  8  9  1  0  0  0  0
  9 10  2  0  0  0  0
  9 13  1  0  0  0  0
 10 11  1  0  0  0  0
 11 12  1  0  0  0  0
 12 13  2  0  0  0  0
 12 18  1  0  0  0  0
 13 14  1  0  0  0  0
 14 15  1  0  0  0  0
 14 16  2  0  0  0  0
 16 17  1  0  0  0  0
 17 18  2  0  0  0  0
 17 19  1  0  0  0  0
 20 21  2  0  0  0  0
 20 22  1  0  0  0  0
M  END
>  <CHROM.1>
79.15508973,176.74585832,-87.29069362,74.30585225,-5.47326300,-27.49918378
30.63406209,1.29664481,-0.37710403,-2.37187641

>  <Name>
ligand

>  <RI>
0

>  <Rbt.Current_Directory>
/home/itssahil/PROJECTS/Mol_Feturizer/New_Systems/rnas/4LVY

>  <Rbt.Executable>
rbdock ($Id: //depot/dev/client3/rdock/2013.1/src/exe/rbdock.cxx#4 $)

>  <Rbt.Library>
libRbt.so (2013.1, Build901 2013/11/27)

>  <Rbt.Parameter_File>
/export/apps/rDock/src/rDock_2013.1_src/data/scripts/dock_solv.prm

>  <Rbt.Receptor>
prm/blind_docking_80.prm

>  <SCORE>
-23.2652

>  <SCORE.INTER>
-23.9904

>  <SCORE.INTER.CONST>
1

>  <SCORE.INTER.POLAR>
0

>  <SCORE.INTER.ROT>
4

>  <SCORE.INTER.SOLV>
9.24829

>  <SCORE.INTER.VDW>
-25.3431

>  <SCORE.INTER.norm>
-1.09047

>  <SCORE.INTRA>
0.725217

>  <SCORE.INTRA.DIHEDRAL>
2.727

>  <SCORE.INTRA.DIHEDRAL.0>
6.18831

>  <SCORE.INTRA.POLAR>
0

>  <SCORE.INTRA.POLAR.0>
0

>  <SCORE.INTRA.REPUL>
0

>  <SCORE.INTRA.REPUL.0>
0

>  <SCORE.INTRA.SOLV>
0.104721

>  <SCORE.INTRA.SOLV.lig_0>
-44.3465

>  <SCORE.INTRA.VDW>
-0.690642

>  <SCORE.INTRA.VDW.0>
-0.778272

>  <SCORE.INTRA.norm>
0.0329644

>  <SCORE.RESTR>
0

>  <SCORE.RESTR.CAVITY>
0

>  <SCORE.RESTR.norm>
0

>  <SCORE.SYSTEM>
0

>  <SCORE.SYSTEM.CONST>
0

>  <SCORE.SYSTEM.DIHEDRAL>
0

>  <SCORE.SYSTEM.SOLV>
0

>  <SCORE.SYSTEM.norm>
0

>  <SCORE.heavy>
22

>  <SCORE.norm>
-1.05751

>  <RMSD>
33.432

$$$$
ligand
 OpenBabel11021811503D
libRbt.so/2013.1/901 2013/11/27
 22 24  0  0  0  0  0  0  0  0999 V2000
   -5.6953  -29.5438   30.0785 C   0  0  0  0  0  0  0  0  0  0  0  0
   -4.3891  -29.1270   29.7457 C   0  0  0  0  0  0  0  0  0  0  0  0
   -3.8375  -29.5143   28.5275 C   0  0  0  0  0  0  0  0  0  0  0  0
   -4.5900  -30.3143   27.6500 C   0  0  0  0  0  0  0  0  0  0  0  0
   -5.8980  -30.7412   27.9870 C   0  0  0  0  0  0  0  0  0  0  0  0
   -6.4461  -30.3547   29.2025 C   0  0  0  0  0  0  0  0  0  0  0  0
   -6.3136  -29.1388   31.4305 C   0  0  0  0  0  0  0  0  0  0  0  0
   -7.4515  -28.0912   31.3420 C   0  0  0  0  0  0  0  0  0  0  0  0
   -6.9657  -26.6481   31.4112 C   0  0  0  0  0  0  0  0  0  0  0  0
   -5.9991  -26.1085   30.5572 C   0  0  0  0  0  0  0  0  0  0  0  0
   -5.8362  -24.8087   30.9180 N   0  0  0  0  0  0  0  0  0  0  0  0
   -6.6496  -24.4517   31.9749 C   0  0  0  0  0  0  0  0  0  0  0  0
   -7.3830  -25.5819   32.3189 C   0  0  0  0  0  0  0  0  0  0  0  0
   -8.3208  -25.4538   33.4127 C   0  0  0  0  0  0  0  0  0  0  0  0
   -9.0946  -26.5423   33.8058 O   0  0  0  0  0  0  0  0  0  0  0  0
   -8.4353  -24.2334   34.0650 N   0  0  0  0  0  0  0  0  0  0  0  0
   -7.7013  -23.1470   33.6860 C   0  0  0  0  0  0  0  0  0  0  0  0
   -6.8214  -23.2300   32.6758 N   0  0  0  0  0  0  0  0  0  0  0  0
   -7.8692  -21.8746   34.3954 N   0  0  0  0  0  0  0  0  0  0  0  0
   -3.9670  -30.7229   26.3415 C   0  0  0  0  0  0  0  0  0  0  0  0
   -2.8715  -30.2725   26.0113 O   0  0  0  0  0  0  0  0  0  0  0  0
   -4.6779  -31.6388   25.4896 N   0  0  0  0  0  0  0  0  0  0  0  0
  1  2  2  0  0  0  0
  1  6  1  0  0  0  0
  1  7  1  0  0  0  0
  2  3  1  0  0  0  0
  3  4  2  0  0  0  0
  4  5  1  0  0  0  0
  4 20  1  0  0  0  0
  5  6  2  0  0  0  0
  7  8  1  0  0  0  0
  8  9  1  0  0  0  0
  9 10  2  0  0  0  0
  9 13  1  0  0  0  0
 10 11  1  0  0  0  0
 11 12  1  0  0  0  0
 12 13  2  0  0  0  0
 12 18  1  0  0  0  0
 13 14  1  0  0  0  0
 14 15  1  0  0  0  0
 14 16  2  0  0  0  0
 16 17  1  0  0  0  0
 17 18  2  0  0  0  0
 17 19  1  0  0  0  0
 20 21  2  0  0  0  0
 20 22  1  0  0  0  0
M  END
>  <CHROM.1>
108.98977591,-5.85392264,-89.33738970,54.85108262,-6.25612446,-27.31409619
30.61622902,1.04496398,-0.79508548,-2.77247541

>  <Name>
ligand

>  <RI>
0

>  <Rbt.Current_Directory>
/home/itssahil/PROJECTS/Mol_Feturizer/New_Systems/rnas/4LVY

>  <Rbt.Executable>
rbdock ($Id: //depot/dev/client3/rdock/2013.1/src/exe/rbdock.cxx#4 $)

>  <Rbt.Library>
libRbt.so (2013.1, Build901 2013/11/27)

>  <Rbt.Parameter_File>
/export/apps/rDock/src/rDock_2013.1_src/data/scripts/dock_solv.prm

>  <Rbt.Receptor>
prm/blind_docking_80.prm

>  <SCORE>
-22.0439

>  <SCORE.INTER>
-23.1316

>  <SCORE.INTER.CONST>
1

>  <SCORE.INTER.POLAR>
0

>  <SCORE.INTER.ROT>
4

>  <SCORE.INTER.SOLV>
13.5604

>  <SCORE.INTER.VDW>
-26.2079

>  <SCORE.INTER.norm>
-1.05144

>  <SCORE.INTRA>
1.08771

>  <SCORE.INTRA.DIHEDRAL>
3.02198

>  <SCORE.INTRA.DIHEDRAL.0>
6.18831

>  <SCORE.INTRA.POLAR>
0

>  <SCORE.INTRA.POLAR.0>
0

>  <SCORE.INTRA.REPUL>
0

>  <SCORE.INTRA.REPUL.0>
0

>  <SCORE.INTRA.SOLV>
0.0355442

>  <SCORE.INTRA.SOLV.lig_0>
-44.3465

>  <SCORE.INTRA.VDW>
-0.441053

>  <SCORE.INTRA.VDW.0>
-0.778272

>  <SCORE.INTRA.norm>
0.0494413

>  <SCORE.RESTR>
0

>  <SCORE.RESTR.CAVITY>
0

>  <SCORE.RESTR.norm>
0

>  <SCORE.SYSTEM>
0

>  <SCORE.SYSTEM.CONST>
0

>  <SCORE.SYSTEM.DIHEDRAL>
0

>  <SCORE.SYSTEM.SOLV>
0

>  <SCORE.SYSTEM.norm>
0

>  <SCORE.heavy>
22

>  <SCORE.norm>
-1.002

>  <RMSD>
33.453

$$$$
ligand
 OpenBabel11021811503D
libRbt.so/2013.1/901 2013/11/27
 22 24  0  0  0  0  0  0  0  0999 V2000
   -5.6827  -29.5859   30.0371 C   0  0  0  0  0  0  0  0  0  0  0  0
   -6.3916  -30.4053   29.1334 C   0  0  0  0  0  0  0  0  0  0  0  0
   -5.7962  -30.7691   27.9287 C   0  0  0  0  0  0  0  0  0  0  0  0
   -4.4997  -30.3138   27.6320 C   0  0  0  0  0  0  0  0  0  0  0  0
   -3.7904  -29.4832   28.5342 C   0  0  0  0  0  0  0  0  0  0  0  0
   -4.3861  -29.1210   29.7347 C   0  0  0  0  0  0  0  0  0  0  0  0
   -6.3343  -29.1596   31.3666 C   0  0  0  0  0  0  0  0  0  0  0  0
   -7.4464  -28.0890   31.2365 C   0  0  0  0  0  0  0  0  0  0  0  0
   -6.9414  -26.6575   31.3757 C   0  0  0  0  0  0  0  0  0  0  0  0
   -5.9794  -26.0846   30.5382 C   0  0  0  0  0  0  0  0  0  0  0  0
   -5.7953  -24.8081   30.9655 N   0  0  0  0  0  0  0  0  0  0  0  0
   -6.5898  -24.4984   32.0512 C   0  0  0  0  0  0  0  0  0  0  0  0
   -7.3329  -25.6365   32.3448 C   0  0  0  0  0  0  0  0  0  0  0  0
   -8.2542  -25.5558   33.4569 C   0  0  0  0  0  0  0  0  0  0  0  0
   -9.0365  -26.6544   33.8023 O   0  0  0  0  0  0  0  0  0  0  0  0
   -8.3444  -24.3708   34.1749 N   0  0  0  0  0  0  0  0  0  0  0  0
   -7.6018  -23.2746   33.8441 C   0  0  0  0  0  0  0  0  0  0  0  0
   -6.7366  -23.3139   32.8186 N   0  0  0  0  0  0  0  0  0  0  0  0
   -7.7439  -22.0400   34.6226 N   0  0  0  0  0  0  0  0  0  0  0  0
   -3.8818  -30.7180   26.3198 C   0  0  0  0  0  0  0  0  0  0  0  0
   -4.4560  -31.5224   25.5881 O   0  0  0  0  0  0  0  0  0  0  0  0
   -2.6125  -30.1528   25.9462 N   0  0  0  0  0  0  0  0  0  0  0  0
  1  2  2  0  0  0  0
  1  6  1  0  0  0  0
  1  7  1  0  0  0  0
  2  3  1  0  0  0  0
  3  4  2  0  0  0  0
  4  5  1  0  0  0  0
  4 20  1  0  0  0  0
  5  6  2  0  0  0  0
  7  8  1  0  0  0  0
  8  9  1  0  0  0  0
  9 10  2  0  0  0  0
  9 13  1  0  0  0  0
 10 11  1  0  0  0  0
 11 12  1  0  0  0  0
 12 13  2  0  0  0  0
 12 18  1  0  0  0  0
 13 14  1  0  0  0  0
 14 15  1  0  0  0  0
 14 16  2  0  0  0  0
 16 17  1  0  0  0  0
 17 18  2  0  0  0  0
 17 19  1  0  0  0  0
 20 21  2  0  0  0  0
 20 22  1  0  0  0  0
M  END
>  <CHROM.1>
-73.36054052,-6.37686574,-91.94298568,59.48398984,-6.19442846,-27.35387209
30.63378521,1.05713756,-0.77532332,-2.73707810

>  <Name>
ligand

>  <RI>
0

>  <Rbt.Current_Directory>
/home/itssahil/PROJECTS/Mol_Feturizer/New_Systems/rnas/4LVY

>  <Rbt.Executable>
rbdock ($Id: //depot/dev/client3/rdock/2013.1/src/exe/rbdock.cxx#4 $)

>  <Rbt.Library>
libRbt.so (2013.1, Build901 2013/11/27)

>  <Rbt.Parameter_File>
/export/apps/rDock/src/rDock_2013.1_src/data/scripts/dock_solv.prm

>  <Rbt.Receptor>
prm/blind_docking_100.prm

>  <SCORE>
-21.7096

>  <SCORE.INTER>
-22.9053

>  <SCORE.INTER.CONST>
1

>  <SCORE.INTER.POLAR>
0

>  <SCORE.INTER.ROT>
4

>  <SCORE.INTER.SOLV>
11.658

>  <SCORE.INTER.VDW>
-25.4229

>  <SCORE.INTER.norm>
-1.04115

>  <SCORE.INTRA>
1.19568

>  <SCORE.INTRA.DIHEDRAL>
3.35099

>  <SCORE.INTRA.DIHEDRAL.0>
6.18831

>  <SCORE.INTRA.POLAR>
0

>  <SCORE.INTRA.POLAR.0>
0

>  <SCORE.INTRA.REPUL>
0

>  <SCORE.INTRA.REPUL.0>
0

>  <SCORE.INTRA.SOLV>
0.0496752

>  <SCORE.INTRA.SOLV.lig_0>
-44.3465

>  <SCORE.INTRA.VDW>
-0.504647

>  <SCORE.INTRA.VDW.0>
-0.778272

>  <SCORE.INTRA.norm>
0.0543493

>  <SCORE.RESTR>
0

>  <SCORE.RESTR.CAVITY>
0

>  <SCORE.RESTR.norm>
0

>  <SCORE.SYSTEM>
0

>  <SCORE.SYSTEM.CONST>
0

>  <SCORE.SYSTEM.DIHEDRAL>
0

>  <SCORE.SYSTEM.SOLV>
0

>  <SCORE.SYSTEM.norm>
0

>  <SCORE.heavy>
22

>  <SCORE.norm>
-0.9868

>  <RMSD>
33.458

$$$$
ligand
 OpenBabel11021811503D
libRbt.so/2013.1/901 2013/11/27
 22 24  0  0  0  0  0  0  0  0999 V2000
   -5.6978  -29.5869   30.2068 C   0  0  0  0  0  0  0  0  0  0  0  0
   -4.4190  -29.1320   29.8218 C   0  0  0  0  0  0  0  0  0  0  0  0
   -3.9014  -29.5120   28.5865 C   0  0  0  0  0  0  0  0  0  0  0  0
   -4.6603  -30.3429   27.7440 C   0  0  0  0  0  0  0  0  0  0  0  0
   -5.9405  -30.8081   28.1334 C   0  0  0  0  0  0  0  0  0  0  0  0
   -6.4546  -30.4286   29.3658 C   0  0  0  0  0  0  0  0  0  0  0  0
   -6.2775  -29.1901   31.5782 C   0  0  0  0  0  0  0  0  0  0  0  0
   -7.4377  -28.1648   31.5261 C   0  0  0  0  0  0  0  0  0  0  0  0
   -6.9748  -26.7128   31.5011 C   0  0  0  0  0  0  0  0  0  0  0  0
   -6.0474  -26.2053   30.5860 C   0  0  0  0  0  0  0  0  0  0  0  0
   -5.8947  -24.8856   30.8710 N   0  0  0  0  0  0  0  0  0  0  0  0
   -6.6774  -24.4846   31.9353 C   0  0  0  0  0  0  0  0  0  0  0  0
   -7.3790  -25.6057   32.3647 C   0  0  0  0  0  0  0  0  0  0  0  0
   -8.2809  -25.4331   33.4824 C   0  0  0  0  0  0  0  0  0  0  0  0
   -9.0219  -26.5106   33.9600 O   0  0  0  0  0  0  0  0  0  0  0  0
   -8.3939  -24.1812   34.0722 N   0  0  0  0  0  0  0  0  0  0  0  0
   -7.6921  -23.1058   33.6102 C   0  0  0  0  0  0  0  0  0  0  0  0
   -6.8460  -23.2296   32.5755 N   0  0  0  0  0  0  0  0  0  0  0  0
   -7.8575  -21.7996   34.2560 N   0  0  0  0  0  0  0  0  0  0  0  0
   -4.0741  -30.7429   26.4160 C   0  0  0  0  0  0  0  0  0  0  0  0
   -4.6950  -31.4960   25.6681 O   0  0  0  0  0  0  0  0  0  0  0  0
   -2.7798  -30.2347   26.0466 N   0  0  0  0  0  0  0  0  0  0  0  0
  1  2  2  0  0  0  0
  1  6  1  0  0  0  0
  1  7  1  0  0  0  0
  2  3  1  0  0  0  0
  3  4  2  0  0  0  0
  4  5  1  0  0  0  0
  4 20  1  0  0  0  0
  5  6  2  0  0  0  0
  7  8  1  0  0  0  0
  8  9  1  0  0  0  0
  9 10  2  0  0  0  0
  9 13  1  0  0  0  0
 10 11  1  0  0  0  0
 11 12  1  0  0  0  0
 12 13  2  0  0  0  0
 12 18  1  0  0  0  0
 13 14  1  0  0  0  0
 14 15  1  0  0  0  0
 14 16  2  0  0  0  0
 16 17  1  0  0  0  0
 17 18  2  0  0  0  0
 17 19  1  0  0  0  0
 20 21  2  0  0  0  0
 20 22  1  0  0  0  0
M  END
>  <CHROM.1>
108.17822758,178.15112986,-86.26987893,52.73628809,-6.27509513,-27.33207250
30.67159603,1.02046997,-0.84539696,-2.82154192

>  <Name>
ligand

>  <RI>
0

>  <Rbt.Current_Directory>
/home/itssahil/PROJECTS/Mol_Feturizer/New_Systems/rnas/4LVY

>  <Rbt.Executable>
rbdock ($Id: //depot/dev/client3/rdock/2013.1/src/exe/rbdock.cxx#4 $)

>  <Rbt.Library>
libRbt.so (2013.1, Build901 2013/11/27)

>  <Rbt.Parameter_File>
/export/apps/rDock/src/rDock_2013.1_src/data/scripts/dock_solv.prm

>  <Rbt.Receptor>
prm/blind_docking_80.prm

>  <SCORE>
-22.1819

>  <SCORE.INTER>
-22.9793

>  <SCORE.INTER.CONST>
1

>  <SCORE.INTER.POLAR>
0

>  <SCORE.INTER.ROT>
4

>  <SCORE.INTER.SOLV>
13.1548

>  <SCORE.INTER.VDW>
-25.9711

>  <SCORE.INTER.norm>
-1.04451

>  <SCORE.INTRA>
0.797365

>  <SCORE.INTRA.DIHEDRAL>
2.52426

>  <SCORE.INTRA.DIHEDRAL.0>
6.18831

>  <SCORE.INTRA.POLAR>
0

>  <SCORE.INTRA.POLAR.0>
0

>  <SCORE.INTRA.REPUL>
0

>  <SCORE.INTRA.REPUL.0>
0

>  <SCORE.INTRA.SOLV>
0.0324653

>  <SCORE.INTRA.SOLV.lig_0>
-44.3465

>  <SCORE.INTRA.VDW>
-0.480996

>  <SCORE.INTRA.VDW.0>
-0.778272

>  <SCORE.INTRA.norm>
0.0362439

>  <SCORE.RESTR>
0

>  <SCORE.RESTR.CAVITY>
0

>  <SCORE.RESTR.norm>
0

>  <SCORE.SYSTEM>
0

>  <SCORE.SYSTEM.CONST>
0

>  <SCORE.SYSTEM.DIHEDRAL>
0

>  <SCORE.SYSTEM.SOLV>
0

>  <SCORE.SYSTEM.norm>
0

>  <SCORE.heavy>
22

>  <SCORE.norm>
-1.00827

>  <RMSD>
33.476

$$$$
ligand
 OpenBabel11021811503D
libRbt.so/2013.1/901 2013/11/27
 22 24  0  0  0  0  0  0  0  0999 V2000
   -5.6078  -29.6485   28.9820 C   0  0  0  0  0  0  0  0  0  0  0  0
   -5.8707  -30.4350   27.8405 C   0  0  0  0  0  0  0  0  0  0  0  0
   -4.8340  -30.7279   26.9585 C   0  0  0  0  0  0  0  0  0  0  0  0
   -3.5435  -30.2349   27.2190 C   0  0  0  0  0  0  0  0  0  0  0  0
   -3.2802  -29.4373   28.3597 C   0  0  0  0  0  0  0  0  0  0  0  0
   -4.3153  -29.1457   29.2376 C   0  0  0  0  0  0  0  0  0  0  0  0
   -6.7477  -29.3004   29.9585 C   0  0  0  0  0  0  0  0  0  0  0  0
   -6.2874  -28.7616   31.3361 C   0  0  0  0  0  0  0  0  0  0  0  0
   -6.0893  -27.2506   31.3707 C   0  0  0  0  0  0  0  0  0  0  0  0
   -5.1654  -26.5665   30.5749 C   0  0  0  0  0  0  0  0  0  0  0  0
   -5.2834  -25.2477   30.8797 N   0  0  0  0  0  0  0  0  0  0  0  0
   -6.2444  -25.0159   31.8435 C   0  0  0  0  0  0  0  0  0  0  0  0
   -6.7820  -26.2527   32.1826 C   0  0  0  0  0  0  0  0  0  0  0  0
   -7.8252  -26.2679   33.1845 C   0  0  0  0  0  0  0  0  0  0  0  0
   -8.4145  -27.4698   33.5668 O   0  0  0  0  0  0  0  0  0  0  0  0
   -8.2267  -25.0697   33.7599 N   0  0  0  0  0  0  0  0  0  0  0  0
   -7.6771  -23.8770   33.3883 C   0  0  0  0  0  0  0  0  0  0  0  0
   -6.7068  -23.8256   32.4623 N   0  0  0  0  0  0  0  0  0  0  0  0
   -8.1460  -22.6360   34.0132 N   0  0  0  0  0  0  0  0  0  0  0  0
   -2.4422  -30.5625   26.2458 C   0  0  0  0  0  0  0  0  0  0  0  0
   -1.3554  -29.9931   26.3278 O   0  0  0  0  0  0  0  0  0  0  0  0
   -2.6887  -31.5428   25.2219 N   0  0  0  0  0  0  0  0  0  0  0  0
  1  2  2  0  0  0  0
  1  6  1  0  0  0  0
  1  7  1  0  0  0  0
  2  3  1  0  0  0  0
  3  4  2  0  0  0  0
  4  5  1  0  0  0  0
  4 20  1  0  0  0  0
  5  6  2  0  0  0  0
  7  8  1  0  0  0  0
  8  9  1  0  0  0  0
  9 10  2  0  0  0  0
  9 13  1  0  0  0  0
 10 11  1  0  0  0  0
 11 12  1  0  0  0  0
 12 13  2  0  0  0  0
 12 18  1  0  0  0  0
 13 14  1  0  0  0  0
 14 15  1  0  0  0  0
 14 16  2  0  0  0  0
 16 17  1  0  0  0  0
 17 18  2  0  0  0  0
 17 19  1  0  0  0  0
 20 21  2  0  0  0  0
 20 22  1  0  0  0  0
M  END
>  <CHROM.1>
164.80882068,169.21557182,88.05119325,-61.28691583,-5.62828557,-27.67103734
30.25802384,0.95997084,-0.66699805,-2.70773254

>  <Name>
ligand

>  <RI>
0

>  <Rbt.Current_Directory>
/home/itssahil/PROJECTS/Mol_Feturizer/New_Systems/rnas/4LVY

>  <Rbt.Executable>
rbdock ($Id: //depot/dev/client3/rdock/2013.1/src/exe/rbdock.cxx#4 $)

>  <Rbt.Library>
libRbt.so (2013.1, Build901 2013/11/27)

>  <Rbt.Parameter_File>
/export/apps/rDock/src/rDock_2013.1_src/data/scripts/dock_solv.prm

>  <Rbt.Receptor>
prm/blind_docking_100.prm

>  <SCORE>
-21.3377

>  <SCORE.INTER>
-22.8727

>  <SCORE.INTER.CONST>
1

>  <SCORE.INTER.POLAR>
0

>  <SCORE.INTER.ROT>
4

>  <SCORE.INTER.SOLV>
12.8791

>  <SCORE.INTER.VDW>
-25.8081

>  <SCORE.INTER.norm>
-1.03967

>  <SCORE.INTRA>
1.53496

>  <SCORE.INTRA.DIHEDRAL>
2.69944

>  <SCORE.INTRA.DIHEDRAL.0>
6.18831

>  <SCORE.INTRA.POLAR>
0

>  <SCORE.INTRA.POLAR.0>
0

>  <SCORE.INTRA.REPUL>
0

>  <SCORE.INTRA.REPUL.0>
0

>  <SCORE.INTRA.SOLV>
0.060484

>  <SCORE.INTRA.SOLV.lig_0>
-44.3465

>  <SCORE.INTRA.VDW>
0.155002

>  <SCORE.INTRA.VDW.0>
-0.778272

>  <SCORE.INTRA.norm>
0.0697711

>  <SCORE.RESTR>
0

>  <SCORE.RESTR.CAVITY>
0

>  <SCORE.RESTR.norm>
0

>  <SCORE.SYSTEM>
0

>  <SCORE.SYSTEM.CONST>
0

>  <SCORE.SYSTEM.DIHEDRAL>
0

>  <SCORE.SYSTEM.SOLV>
0

>  <SCORE.SYSTEM.norm>
0

>  <SCORE.heavy>
22

>  <SCORE.norm>
-0.969895

>  <RMSD>
33.477

$$$$
ligand
 OpenBabel11021811503D
libRbt.so/2013.1/901 2013/11/27
 22 24  0  0  0  0  0  0  0  0999 V2000
   -5.5327  -29.2958   29.5501 C   0  0  0  0  0  0  0  0  0  0  0  0
   -6.4104  -30.0068   28.7048 C   0  0  0  0  0  0  0  0  0  0  0  0
   -5.9076  -30.6300   27.5659 C   0  0  0  0  0  0  0  0  0  0  0  0
   -4.5349  -30.5400   27.2765 C   0  0  0  0  0  0  0  0  0  0  0  0
   -3.6541  -29.8184   28.1193 C   0  0  0  0  0  0  0  0  0  0  0  0
   -4.1574  -29.1971   29.2541 C   0  0  0  0  0  0  0  0  0  0  0  0
   -6.0761  -28.5854   30.8048 C   0  0  0  0  0  0  0  0  0  0  0  0
   -7.0572  -27.4200   30.5235 C   0  0  0  0  0  0  0  0  0  0  0  0
   -7.4557  -26.6371   31.7692 C   0  0  0  0  0  0  0  0  0  0  0  0
   -8.7089  -26.7310   32.3820 C   0  0  0  0  0  0  0  0  0  0  0  0
   -8.6857  -25.8983   33.4554 N   0  0  0  0  0  0  0  0  0  0  0  0
   -7.4742  -25.2503   33.5908 C   0  0  0  0  0  0  0  0  0  0  0  0
   -6.6644  -25.6875   32.5483 C   0  0  0  0  0  0  0  0  0  0  0  0
   -5.3255  -25.1446   32.4789 C   0  0  0  0  0  0  0  0  0  0  0  0
   -4.4572  -25.5438   31.4666 O   0  0  0  0  0  0  0  0  0  0  0  0
   -4.9212  -24.2196   33.4323 N   0  0  0  0  0  0  0  0  0  0  0  0
   -5.7478  -23.8268   34.4448 C   0  0  0  0  0  0  0  0  0  0  0  0
   -6.9966  -24.3096   34.5397 N   0  0  0  0  0  0  0  0  0  0  0  0
   -5.2697  -22.8593   35.4377 N   0  0  0  0  0  0  0  0  0  0  0  0
   -4.0190  -31.2190   26.0355 C   0  0  0  0  0  0  0  0  0  0  0  0
   -4.8031  -31.7429   25.2463 O   0  0  0  0  0  0  0  0  0  0  0  0
   -2.6003  -31.2473   25.7979 N   0  0  0  0  0  0  0  0  0  0  0  0
  1  2  2  0  0  0  0
  1  6  1  0  0  0  0
  1  7  1  0  0  0  0
  2  3  1  0  0  0  0
  3  4  2  0  0  0  0
  4  5  1  0  0  0  0
  4 20  1  0  0  0  0
  5  6  2  0  0  0  0
  7  8  1  0  0  0  0
  8  9  1  0  0  0  0
  9 10  2  0  0  0  0
  9 13  1  0  0  0  0
 10 11  1  0  0  0  0
 11 12  1  0  0  0  0
 12 13  2  0  0  0  0
 12 18  1  0  0  0  0
 13 14  1  0  0  0  0
 14 15  1  0  0  0  0
 14 16  2  0  0  0  0
 16 17  1  0  0  0  0
 17 18  2  0  0  0  0
 17 19  1  0  0  0  0
 20 21  2  0  0  0  0
 20 22  1  0  0  0  0
M  END
>  <CHROM.1>
-64.70939303,5.78328276,-173.49370920,-106.24562968,-5.72666322,-27.51044656
30.65712784,1.34804015,-0.25111925,-2.35400991

>  <Name>
ligand

>  <RI>
0

>  <Rbt.Current_Directory>
/home/itssahil/PROJECTS/Mol_Feturizer/New_Systems/rnas/4LVY

>  <Rbt.Executable>
rbdock ($Id: //depot/dev/client3/rdock/2013.1/src/exe/rbdock.cxx#4 $)

>  <Rbt.Library>
libRbt.so (2013.1, Build901 2013/11/27)

>  <Rbt.Parameter_File>
/export/apps/rDock/src/rDock_2013.1_src/data/scripts/dock_solv.prm

>  <Rbt.Receptor>
prm/blind_docking_80.prm

>  <SCORE>
-21.8278

>  <SCORE.INTER>
-21.6606

>  <SCORE.INTER.CONST>
1

>  <SCORE.INTER.POLAR>
0

>  <SCORE.INTER.ROT>
4

>  <SCORE.INTER.SOLV>
12.8088

>  <SCORE.INTER.VDW>
-24.9766

>  <SCORE.INTER.norm>
-0.984571

>  <SCORE.INTRA>
-0.167232

>  <SCORE.INTRA.DIHEDRAL>
0.15309

>  <SCORE.INTRA.DIHEDRAL.0>
6.18831

>  <SCORE.INTRA.POLAR>
0

>  <SCORE.INTRA.POLAR.0>
0

>  <SCORE.INTRA.REPUL>
0

>  <SCORE.INTRA.REPUL.0>
0

>  <SCORE.INTRA.SOLV>
0.241301

>  <SCORE.INTRA.SOLV.lig_0>
-44.3465

>  <SCORE.INTRA.VDW>
-0.364427

>  <SCORE.INTRA.VDW.0>
-0.778272

>  <SCORE.INTRA.norm>
-0.00760145

>  <SCORE.RESTR>
0

>  <SCORE.RESTR.CAVITY>
0

>  <SCORE.RESTR.norm>
0

>  <SCORE.SYSTEM>
0

>  <SCORE.SYSTEM.CONST>
0

>  <SCORE.SYSTEM.DIHEDRAL>
0

>  <SCORE.SYSTEM.SOLV>
0

>  <SCORE.SYSTEM.norm>
0

>  <SCORE.heavy>
22

>  <SCORE.norm>
-0.992172

>  <RMSD>
33.540

$$$$
ligand
 OpenBabel11021811503D
libRbt.so/2013.1/901 2013/11/27
 22 24  0  0  0  0  0  0  0  0999 V2000
   -5.8770  -24.7157   32.0875 C   0  0  0  0  0  0  0  0  0  0  0  0
   -4.9578  -24.7066   33.1578 C   0  0  0  0  0  0  0  0  0  0  0  0
   -5.1649  -23.8422   34.2294 C   0  0  0  0  0  0  0  0  0  0  0  0
   -6.2850  -22.9927   34.2271 C   0  0  0  0  0  0  0  0  0  0  0  0
   -7.2035  -22.9941   33.1486 C   0  0  0  0  0  0  0  0  0  0  0  0
   -6.9949  -23.8562   32.0807 C   0  0  0  0  0  0  0  0  0  0  0  0
   -5.6526  -25.6535   30.8856 C   0  0  0  0  0  0  0  0  0  0  0  0
   -6.1588  -27.1041   31.0843 C   0  0  0  0  0  0  0  0  0  0  0  0
   -7.6051  -27.1915   31.5576 C   0  0  0  0  0  0  0  0  0  0  0  0
   -8.0835  -26.5810   32.7209 C   0  0  0  0  0  0  0  0  0  0  0  0
   -9.4072  -26.8757   32.8045 N   0  0  0  0  0  0  0  0  0  0  0  0
   -9.8386  -27.6560   31.7504 C   0  0  0  0  0  0  0  0  0  0  0  0
   -8.7342  -27.8793   30.9355 C   0  0  0  0  0  0  0  0  0  0  0  0
   -8.9396  -28.6794   29.7482 C   0  0  0  0  0  0  0  0  0  0  0  0
   -7.8802  -28.9364   28.8823 O   0  0  0  0  0  0  0  0  0  0  0  0
  -10.2048  -29.1886   29.4872 N   0  0  0  0  0  0  0  0  0  0  0  0
  -11.2629  -28.9350   30.3110 C   0  0  0  0  0  0  0  0  0  0  0  0
  -11.1085  -28.1970   31.4215 N   0  0  0  0  0  0  0  0  0  0  0  0
  -12.5840  -29.4815   29.9844 N   0  0  0  0  0  0  0  0  0  0  0  0
   -6.4817  -22.0643   35.3961 C   0  0  0  0  0  0  0  0  0  0  0  0
   -6.8272  -22.5107   36.4885 O   0  0  0  0  0  0  0  0  0  0  0  0
   -6.2651  -20.6545   35.2077 N   0  0  0  0  0  0  0  0  0  0  0  0
  1  2  2  0  0  0  0
  1  6  1  0  0  0  0
  1  7  1  0  0  0  0
  2  3  1  0  0  0  0
  3  4  2  0  0  0  0
  4  5  1  0  0  0  0
  4 20  1  0  0  0  0
  5  6  2  0  0  0  0
  7  8  1  0  0  0  0
  8  9  1  0  0  0  0
  9 10  2  0  0  0  0
  9 13  1  0  0  0  0
 10 11  1  0  0  0  0
 11 12  1  0  0  0  0
 12 13  2  0  0  0  0
 12 18  1  0  0  0  0
 13 14  1  0  0  0  0
 14 15  1  0  0  0  0
 14 16  2  0  0  0  0
 16 17  1  0  0  0  0
 17 18  2  0  0  0  0
 17 19  1  0  0  0  0
 20 21  2  0  0  0  0
 20 22  1  0  0  0  0
M  END
>  <CHROM.1>
83.42445138,-71.93194930,51.53715908,-56.81666568,-7.91501833,-25.97358641
32.14809030,-1.06152512,-0.29494635,-2.35609445

>  <Name>
ligand

>  <RI>
0

>  <Rbt.Current_Directory>
/home/itssahil/PROJECTS/Mol_Feturizer/New_Systems/rnas/4LVY

>  <Rbt.Executable>
rbdock ($Id: //depot/dev/client3/rdock/2013.1/src/exe/rbdock.cxx#4 $)

>  <Rbt.Library>
libRbt.so (2013.1, Build901 2013/11/27)

>  <Rbt.Parameter_File>
/export/apps/rDock/src/rDock_2013.1_src/data/scripts/dock_solv.prm

>  <Rbt.Receptor>
prm/blind_docking_80.prm

>  <SCORE>
-15.2422

>  <SCORE.INTER>
-14.5142

>  <SCORE.INTER.CONST>
1

>  <SCORE.INTER.POLAR>
0

>  <SCORE.INTER.ROT>
4

>  <SCORE.INTER.SOLV>
4.43158

>  <SCORE.INTER.VDW>
-17.42

>  <SCORE.INTER.norm>
-0.659738

>  <SCORE.INTRA>
-0.727952

>  <SCORE.INTRA.DIHEDRAL>
0.378377

>  <SCORE.INTRA.DIHEDRAL.0>
6.18831

>  <SCORE.INTRA.POLAR>
0

>  <SCORE.INTRA.POLAR.0>
0

>  <SCORE.INTRA.REPUL>
0

>  <SCORE.INTRA.REPUL.0>
0

>  <SCORE.INTRA.SOLV>
0.0304692

>  <SCORE.INTRA.SOLV.lig_0>
-44.3465

>  <SCORE.INTRA.VDW>
-0.932375

>  <SCORE.INTRA.VDW.0>
-0.778272

>  <SCORE.INTRA.norm>
-0.0330887

>  <SCORE.RESTR>
0

>  <SCORE.RESTR.CAVITY>
0

>  <SCORE.RESTR.norm>
0

>  <SCORE.SYSTEM>
0

>  <SCORE.SYSTEM.CONST>
0

>  <SCORE.SYSTEM.DIHEDRAL>
0

>  <SCORE.SYSTEM.SOLV>
0

>  <SCORE.SYSTEM.norm>
0

>  <SCORE.heavy>
22

>  <SCORE.norm>
-0.692826

>  <RMSD>
33.569

$$$$
ligand
 OpenBabel11021811503D
libRbt.so/2013.1/901 2013/11/27
 22 24  0  0  0  0  0  0  0  0999 V2000
   -5.6983  -24.8416   32.0032 C   0  0  0  0  0  0  0  0  0  0  0  0
   -6.8179  -23.9854   31.9398 C   0  0  0  0  0  0  0  0  0  0  0  0
   -7.1039  -23.1529   33.0184 C   0  0  0  0  0  0  0  0  0  0  0  0
   -6.2736  -23.1795   34.1525 C   0  0  0  0  0  0  0  0  0  0  0  0
   -5.1546  -24.0455   34.2214 C   0  0  0  0  0  0  0  0  0  0  0  0
   -4.8715  -24.8754   33.1452 C   0  0  0  0  0  0  0  0  0  0  0  0
   -5.3783  -25.7821   30.8254 C   0  0  0  0  0  0  0  0  0  0  0  0
   -5.9214  -27.2253   30.9744 C   0  0  0  0  0  0  0  0  0  0  0  0
   -7.4225  -27.2943   31.2300 C   0  0  0  0  0  0  0  0  0  0  0  0
   -8.0729  -26.5958   32.2518 C   0  0  0  0  0  0  0  0  0  0  0  0
   -9.3934  -26.9022   32.1596 N   0  0  0  0  0  0  0  0  0  0  0  0
   -9.6585  -27.7742   31.1226 C   0  0  0  0  0  0  0  0  0  0  0  0
   -8.4430  -28.0484   30.5055 C   0  0  0  0  0  0  0  0  0  0  0  0
   -8.4645  -28.9480   29.3730 C   0  0  0  0  0  0  0  0  0  0  0  0
   -7.2857  -29.2607   28.7017 O   0  0  0  0  0  0  0  0  0  0  0  0
   -9.6745  -29.4959   28.9684 N   0  0  0  0  0  0  0  0  0  0  0  0
  -10.8457  -29.1901   29.5988 C   0  0  0  0  0  0  0  0  0  0  0  0
  -10.8629  -28.3596   30.6531 N   0  0  0  0  0  0  0  0  0  0  0  0
  -12.1010  -29.7815   29.1243 N   0  0  0  0  0  0  0  0  0  0  0  0
   -6.6092  -22.2725   35.3067 C   0  0  0  0  0  0  0  0  0  0  0  0
   -7.3960  -21.3403   35.1517 O   0  0  0  0  0  0  0  0  0  0  0  0
   -5.9897  -22.5137   36.5827 N   0  0  0  0  0  0  0  0  0  0  0  0
  1  2  2  0  0  0  0
  1  6  1  0  0  0  0
  1  7  1  0  0  0  0
  2  3  1  0  0  0  0
  3  4  2  0  0  0  0
  4  5  1  0  0  0  0
  4 20  1  0  0  0  0
  5  6  2  0  0  0  0
  7  8  1  0  0  0  0
  8  9  1  0  0  0  0
  9 10  2  0  0  0  0
  9 13  1  0  0  0  0
 10 11  1  0  0  0  0
 11 12  1  0  0  0  0
 12 13  2  0  0  0  0
 12 18  1  0  0  0  0
 13 14  1  0  0  0  0
 14 15  1  0  0  0  0
 14 16  2  0  0  0  0
 16 17  1  0  0  0  0
 17 18  2  0  0  0  0
 17 19  1  0  0  0  0
 20 21  2  0  0  0  0
 20 22  1  0  0  0  0
M  END
>  <CHROM.1>
-95.85023160,-15.52733296,55.02400305,-52.97581490,-7.72914491,-26.15700098
31.83948805,-1.14367497,-0.16074427,-2.38918063

>  <Name>
ligand

>  <RI>
0

>  <Rbt.Current_Directory>
/home/itssahil/PROJECTS/Mol_Feturizer/New_Systems/rnas/4LVY

>  <Rbt.Executable>
rbdock ($Id: //depot/dev/client3/rdock/2013.1/src/exe/rbdock.cxx#4 $)

>  <Rbt.Library>
libRbt.so (2013.1, Build901 2013/11/27)

>  <Rbt.Parameter_File>
/export/apps/rDock/src/rDock_2013.1_src/data/scripts/dock_solv.prm

>  <Rbt.Receptor>
prm/blind_docking_100.prm

>  <SCORE>
-15.5605

>  <SCORE.INTER>
-15.125

>  <SCORE.INTER.CONST>
1

>  <SCORE.INTER.POLAR>
0

>  <SCORE.INTER.ROT>
4

>  <SCORE.INTER.SOLV>
7.33856

>  <SCORE.INTER.VDW>
-18.7962

>  <SCORE.INTER.norm>
-0.687499

>  <SCORE.INTRA>
-0.436498

>  <SCORE.INTRA.DIHEDRAL>
0.0836417

>  <SCORE.INTRA.DIHEDRAL.0>
6.18831

>  <SCORE.INTRA.POLAR>
0

>  <SCORE.INTRA.POLAR.0>
0

>  <SCORE.INTRA.REPUL>
0

>  <SCORE.INTRA.REPUL.0>
0

>  <SCORE.INTRA.SOLV>
0.0315811

>  <SCORE.INTRA.SOLV.lig_0>
-44.3465

>  <SCORE.INTRA.VDW>
-0.494109

>  <SCORE.INTRA.VDW.0>
-0.778272

>  <SCORE.INTRA.norm>
-0.0198408

>  <SCORE.RESTR>
0.000993335

>  <SCORE.RESTR.CAVITY>
0.000993335

>  <SCORE.RESTR.norm>
4.51516e-05

>  <SCORE.SYSTEM>
0

>  <SCORE.SYSTEM.CONST>
0

>  <SCORE.SYSTEM.DIHEDRAL>
0

>  <SCORE.SYSTEM.SOLV>
0

>  <SCORE.SYSTEM.norm>
0

>  <SCORE.heavy>
22

>  <SCORE.norm>
-0.707295

>  <RMSD>
33.617

$$$$
ligand
 OpenBabel11021811503D
libRbt.so/2013.1/901 2013/11/27
 22 24  0  0  0  0  0  0  0  0999 V2000
   -5.5564  -29.8120   28.7457 C   0  0  0  0  0  0  0  0  0  0  0  0
   -4.2406  -29.3602   28.9804 C   0  0  0  0  0  0  0  0  0  0  0  0
   -3.2340  -29.6868   28.0758 C   0  0  0  0  0  0  0  0  0  0  0  0
   -3.5446  -30.4616   26.9446 C   0  0  0  0  0  0  0  0  0  0  0  0
   -4.8634  -30.9239   26.7127 C   0  0  0  0  0  0  0  0  0  0  0  0
   -5.8656  -30.5977   27.6162 C   0  0  0  0  0  0  0  0  0  0  0  0
   -6.6784  -29.4744   29.7464 C   0  0  0  0  0  0  0  0  0  0  0  0
   -6.1923  -28.9813   31.1322 C   0  0  0  0  0  0  0  0  0  0  0  0
   -5.9705  -27.4751   31.2061 C   0  0  0  0  0  0  0  0  0  0  0  0
   -5.0323  -26.7858   30.4317 C   0  0  0  0  0  0  0  0  0  0  0  0
   -5.1308  -25.4734   30.7696 N   0  0  0  0  0  0  0  0  0  0  0  0
   -6.0922  -25.2509   31.7350 C   0  0  0  0  0  0  0  0  0  0  0  0
   -6.6508  -26.4871   32.0404 C   0  0  0  0  0  0  0  0  0  0  0  0
   -7.6986  -26.5111   33.0373 C   0  0  0  0  0  0  0  0  0  0  0  0
   -8.3086  -27.7128   33.3865 O   0  0  0  0  0  0  0  0  0  0  0  0
   -8.0836  -25.3217   33.6414 N   0  0  0  0  0  0  0  0  0  0  0  0
   -7.5136  -24.1289   33.3026 C   0  0  0  0  0  0  0  0  0  0  0  0
   -6.5384  -24.0695   32.3821 N   0  0  0  0  0  0  0  0  0  0  0  0
   -7.9655  -22.8968   33.9570 N   0  0  0  0  0  0  0  0  0  0  0  0
   -2.4357  -30.8046   25.9855 C   0  0  0  0  0  0  0  0  0  0  0  0
   -1.2973  -30.3828   26.1806 O   0  0  0  0  0  0  0  0  0  0  0  0
   -2.7353  -31.6242   24.8416 N   0  0  0  0  0  0  0  0  0  0  0  0
  1  2  2  0  0  0  0
  1  6  1  0  0  0  0
  1  7  1  0  0  0  0
  2  3  1  0  0  0  0
  3  4  2  0  0  0  0
  4  5  1  0  0  0  0
  4 20  1  0  0  0  0
  5  6  2  0  0  0  0
  7  8  1  0  0  0  0
  8  9  1  0  0  0  0
  9 10  2  0  0  0  0
  9 13  1  0  0  0  0
 10 11  1  0  0  0  0
 11 12  1  0  0  0  0
 12 13  2  0  0  0  0
 12 18  1  0  0  0  0
 13 14  1  0  0  0  0
 14 15  1  0  0  0  0
 14 16  2  0  0  0  0
 16 17  1  0  0  0  0
 17 18  2  0  0  0  0
 17 19  1  0  0  0  0
 20 21  2  0  0  0  0
 20 22  1  0  0  0  0
M  END
>  <CHROM.1>
-15.82098986,-1.80061269,88.03912507,-62.27981559,-5.54072131,-27.89789100
30.07487001,0.99218547,-0.65185277,-2.66255666

>  <Name>
ligand

>  <RI>
0

>  <Rbt.Current_Directory>
/home/itssahil/PROJECTS/Mol_Feturizer/New_Systems/rnas/4LVY

>  <Rbt.Executable>
rbdock ($Id: //depot/dev/client3/rdock/2013.1/src/exe/rbdock.cxx#4 $)

>  <Rbt.Library>
libRbt.so (2013.1, Build901 2013/11/27)

>  <Rbt.Parameter_File>
/export/apps/rDock/src/rDock_2013.1_src/data/scripts/dock_solv.prm

>  <Rbt.Receptor>
prm/blind_docking_60.prm

>  <SCORE>
-21.2367

>  <SCORE.INTER>
-22.7524

>  <SCORE.INTER.CONST>
1

>  <SCORE.INTER.POLAR>
0

>  <SCORE.INTER.ROT>
4

>  <SCORE.INTER.SOLV>
12.7487

>  <SCORE.INTER.VDW>
-25.6845

>  <SCORE.INTER.norm>
-1.0342

>  <SCORE.INTRA>
1.51566

>  <SCORE.INTRA.DIHEDRAL>
2.82671

>  <SCORE.INTRA.DIHEDRAL.0>
6.18831

>  <SCORE.INTRA.POLAR>
0

>  <SCORE.INTRA.POLAR.0>
0

>  <SCORE.INTRA.REPUL>
0

>  <SCORE.INTRA.REPUL.0>
0

>  <SCORE.INTRA.SOLV>
0.0615603

>  <SCORE.INTRA.SOLV.lig_0>
-44.3465

>  <SCORE.INTRA.VDW>
0.071521

>  <SCORE.INTRA.VDW.0>
-0.778272

>  <SCORE.INTRA.norm>
0.0688935

>  <SCORE.RESTR>
0

>  <SCORE.RESTR.CAVITY>
0

>  <SCORE.RESTR.norm>
0

>  <SCORE.SYSTEM>
0

>  <SCORE.SYSTEM.CONST>
0

>  <SCORE.SYSTEM.DIHEDRAL>
0

>  <SCORE.SYSTEM.SOLV>
0

>  <SCORE.SYSTEM.norm>
0

>  <SCORE.heavy>
22

>  <SCORE.norm>
-0.965304

>  <RMSD>
33.620

$$$$
ligand
 OpenBabel11021811503D
libRbt.so/2013.1/901 2013/11/27
 22 24  0  0  0  0  0  0  0  0999 V2000
   -5.4061  -29.3782   29.6346 C   0  0  0  0  0  0  0  0  0  0  0  0
   -6.3068  -30.0615   28.7905 C   0  0  0  0  0  0  0  0  0  0  0  0
   -5.8366  -30.6411   27.6153 C   0  0  0  0  0  0  0  0  0  0  0  0
   -4.4734  -30.5355   27.2886 C   0  0  0  0  0  0  0  0  0  0  0  0
   -3.5697  -29.8417   28.1305 C   0  0  0  0  0  0  0  0  0  0  0  0
   -4.0406  -29.2638   29.3015 C   0  0  0  0  0  0  0  0  0  0  0  0
   -5.9137  -28.7158   30.9299 C   0  0  0  0  0  0  0  0  0  0  0  0
   -7.1422  -27.7889   30.7527 C   0  0  0  0  0  0  0  0  0  0  0  0
   -7.6106  -27.1343   32.0471 C   0  0  0  0  0  0  0  0  0  0  0  0
   -8.4039  -27.7757   33.0032 C   0  0  0  0  0  0  0  0  0  0  0  0
   -8.6078  -26.8842   34.0081 N   0  0  0  0  0  0  0  0  0  0  0  0
   -7.9874  -25.6741   33.7698 C   0  0  0  0  0  0  0  0  0  0  0  0
   -7.3431  -25.7860   32.5426 C   0  0  0  0  0  0  0  0  0  0  0  0
   -6.6101  -24.6308   32.0730 C   0  0  0  0  0  0  0  0  0  0  0  0
   -5.9341  -24.6746   30.8568 O   0  0  0  0  0  0  0  0  0  0  0  0
   -6.5935  -23.4798   32.8494 N   0  0  0  0  0  0  0  0  0  0  0  0
   -7.2329  -23.4188   34.0536 C   0  0  0  0  0  0  0  0  0  0  0  0
   -7.9228  -24.4714   34.5201 N   0  0  0  0  0  0  0  0  0  0  0  0
   -7.1729  -22.1858   34.8453 N   0  0  0  0  0  0  0  0  0  0  0  0
   -3.9930  -31.1672   26.0089 C   0  0  0  0  0  0  0  0  0  0  0  0
   -4.7977  -31.6763   25.2310 O   0  0  0  0  0  0  0  0  0  0  0  0
   -2.5833  -31.1683   25.7213 N   0  0  0  0  0  0  0  0  0  0  0  0
  1  2  2  0  0  0  0
  1  6  1  0  0  0  0
  1  7  1  0  0  0  0
  2  3  1  0  0  0  0
  3  4  2  0  0  0  0
  4  5  1  0  0  0  0
  4 20  1  0  0  0  0
  5  6  2  0  0  0  0
  7  8  1  0  0  0  0
  8  9  1  0  0  0  0
  9 10  2  0  0  0  0
  9 13  1  0  0  0  0
 10 11  1  0  0  0  0
 11 12  1  0  0  0  0
 12 13  2  0  0  0  0
 12 18  1  0  0  0  0
 13 14  1  0  0  0  0
 14 15  1  0  0  0  0
 14 16  2  0  0  0  0
 16 17  1  0  0  0  0
 17 18  2  0  0  0  0
 17 19  1  0  0  0  0
 20 21  2  0  0  0  0
 20 22  1  0  0  0  0
M  END
>  <CHROM.1>
-50.74540496,5.09444547,-179.25977958,-80.30343856,-6.15596566,-27.52131247
30.62699099,1.11709770,-0.75139417,-2.64190959

>  <Name>
ligand

>  <RI>
0

>  <Rbt.Current_Directory>
/home/itssahil/PROJECTS/Mol_Feturizer/New_Systems/rnas/4LVY

>  <Rbt.Executable>
rbdock ($Id: //depot/dev/client3/rdock/2013.1/src/exe/rbdock.cxx#4 $)

>  <Rbt.Library>
libRbt.so (2013.1, Build901 2013/11/27)

>  <Rbt.Parameter_File>
/export/apps/rDock/src/rDock_2013.1_src/data/scripts/dock_solv.prm

>  <Rbt.Receptor>
prm/blind_docking_60.prm

>  <SCORE>
-20.6711

>  <SCORE.INTER>
-20.696

>  <SCORE.INTER.CONST>
1

>  <SCORE.INTER.POLAR>
0

>  <SCORE.INTER.ROT>
4

>  <SCORE.INTER.SOLV>
12.3347

>  <SCORE.INTER.VDW>
-24.1755

>  <SCORE.INTER.norm>
-0.940726

>  <SCORE.INTRA>
0.00142205

>  <SCORE.INTRA.DIHEDRAL>
0.02899

>  <SCORE.INTRA.DIHEDRAL.0>
6.18831

>  <SCORE.INTRA.POLAR>
0

>  <SCORE.INTRA.POLAR.0>
0

>  <SCORE.INTRA.REPUL>
0

>  <SCORE.INTRA.REPUL.0>
0

>  <SCORE.INTRA.SOLV>
0.128316

>  <SCORE.INTRA.SOLV.lig_0>
-44.3465

>  <SCORE.INTRA.VDW>
-0.0772311

>  <SCORE.INTRA.VDW.0>
-0.778272

>  <SCORE.INTRA.norm>
6.46386e-05

>  <SCORE.RESTR>
0.0234707

>  <SCORE.RESTR.CAVITY>
0.0234707

>  <SCORE.RESTR.norm>
0.00106685

>  <SCORE.SYSTEM>
0

>  <SCORE.SYSTEM.CONST>
0

>  <SCORE.SYSTEM.DIHEDRAL>
0

>  <SCORE.SYSTEM.SOLV>
0

>  <SCORE.SYSTEM.norm>
0

>  <SCORE.heavy>
22

>  <SCORE.norm>
-0.939594

>  <RMSD>
33.636

$$$$
ligand
 OpenBabel11021811503D
libRbt.so/2013.1/901 2013/11/27
 22 24  0  0  0  0  0  0  0  0999 V2000
   -5.3409  -29.7273   29.0963 C   0  0  0  0  0  0  0  0  0  0  0  0
   -3.9531  -29.4811   29.1581 C   0  0  0  0  0  0  0  0  0  0  0  0
   -3.1377  -29.8961   28.1086 C   0  0  0  0  0  0  0  0  0  0  0  0
   -3.7100  -30.5539   27.0059 C   0  0  0  0  0  0  0  0  0  0  0  0
   -5.1020  -30.8101   26.9469 C   0  0  0  0  0  0  0  0  0  0  0  0
   -5.9132  -30.3962   27.9947 C   0  0  0  0  0  0  0  0  0  0  0  0
   -6.2546  -29.2904   30.2576 C   0  0  0  0  0  0  0  0  0  0  0  0
   -6.9665  -27.9297   30.0537 C   0  0  0  0  0  0  0  0  0  0  0  0
   -7.6284  -27.3867   31.3148 C   0  0  0  0  0  0  0  0  0  0  0  0
   -8.5985  -28.0784   32.0464 C   0  0  0  0  0  0  0  0  0  0  0  0
   -8.9413  -27.2850   33.0947 N   0  0  0  0  0  0  0  0  0  0  0  0
   -8.2453  -26.0927   33.0999 C   0  0  0  0  0  0  0  0  0  0  0  0
   -7.4021  -26.1132   31.9943 C   0  0  0  0  0  0  0  0  0  0  0  0
   -6.5572  -24.9578   31.7858 C   0  0  0  0  0  0  0  0  0  0  0  0
   -5.6823  -24.9134   30.7039 O   0  0  0  0  0  0  0  0  0  0  0  0
   -6.6338  -23.8952   32.6764 N   0  0  0  0  0  0  0  0  0  0  0  0
   -7.4701  -23.9232   33.7546 C   0  0  0  0  0  0  0  0  0  0  0  0
   -8.2684  -24.9788   33.9786 N   0  0  0  0  0  0  0  0  0  0  0  0
   -7.5036  -22.7833   34.6765 N   0  0  0  0  0  0  0  0  0  0  0  0
   -2.8043  -30.9966   25.8874 C   0  0  0  0  0  0  0  0  0  0  0  0
   -3.2732  -31.5515   24.8953 O   0  0  0  0  0  0  0  0  0  0  0  0
   -1.3893  -30.7645   26.0061 N   0  0  0  0  0  0  0  0  0  0  0  0
  1  2  2  0  0  0  0
  1  6  1  0  0  0  0
  1  7  1  0  0  0  0
  2  3  1  0  0  0  0
  3  4  2  0  0  0  0
  4  5  1  0  0  0  0
  4 20  1  0  0  0  0
  5  6  2  0  0  0  0
  7  8  1  0  0  0  0
  8  9  1  0  0  0  0
  9 10  2  0  0  0  0
  9 13  1  0  0  0  0
 10 11  1  0  0  0  0
 11 12  1  0  0  0  0
 12 13  2  0  0  0  0
 12 18  1  0  0  0  0
 13 14  1  0  0  0  0
 14 15  1  0  0  0  0
 14 16  2  0  0  0  0
 16 17  1  0  0  0  0
 17 18  2  0  0  0  0
 17 19  1  0  0  0  0
 20 21  2  0  0  0  0
 20 22  1  0  0  0  0
M  END
>  <CHROM.1>
96.80849686,-178.57895503,-168.12984427,-57.33859416,-5.93388714,-27.76725766
30.20396689,1.03564092,-0.55932043,-2.60309147

>  <Name>
ligand

>  <RI>
0

>  <Rbt.Current_Directory>
/home/itssahil/PROJECTS/Mol_Feturizer/New_Systems/rnas/4LVY

>  <Rbt.Executable>
rbdock ($Id: //depot/dev/client3/rdock/2013.1/src/exe/rbdock.cxx#4 $)

>  <Rbt.Library>
libRbt.so (2013.1, Build901 2013/11/27)

>  <Rbt.Parameter_File>
/export/apps/rDock/src/rDock_2013.1_src/data/scripts/dock_solv.prm

>  <Rbt.Receptor>
prm/blind_docking_60.prm

>  <SCORE>
-20.5935

>  <SCORE.INTER>
-20.8329

>  <SCORE.INTER.CONST>
1

>  <SCORE.INTER.POLAR>
0

>  <SCORE.INTER.ROT>
4

>  <SCORE.INTER.SOLV>
11.4329

>  <SCORE.INTER.VDW>
-23.9662

>  <SCORE.INTER.norm>
-0.946952

>  <SCORE.INTRA>
0.239451

>  <SCORE.INTRA.DIHEDRAL>
0.674108

>  <SCORE.INTRA.DIHEDRAL.0>
6.18831

>  <SCORE.INTRA.POLAR>
0

>  <SCORE.INTRA.POLAR.0>
0

>  <SCORE.INTRA.REPUL>
0

>  <SCORE.INTRA.REPUL.0>
0

>  <SCORE.INTRA.SOLV>
0.0487545

>  <SCORE.INTRA.SOLV.lig_0>
-44.3465

>  <SCORE.INTRA.VDW>
-0.12198

>  <SCORE.INTRA.VDW.0>
-0.778272

>  <SCORE.INTRA.norm>
0.0108841

>  <SCORE.RESTR>
0

>  <SCORE.RESTR.CAVITY>
0

>  <SCORE.RESTR.norm>
0

>  <SCORE.SYSTEM>
0

>  <SCORE.SYSTEM.CONST>
0

>  <SCORE.SYSTEM.DIHEDRAL>
0

>  <SCORE.SYSTEM.SOLV>
0

>  <SCORE.SYSTEM.norm>
0

>  <SCORE.heavy>
22

>  <SCORE.norm>
-0.936068

>  <RMSD>
33.645

$$$$
ligand
 OpenBabel11021811503D
libRbt.so/2013.1/901 2013/11/27
 22 24  0  0  0  0  0  0  0  0999 V2000
   -7.0404  -27.2766   30.8863 C   0  0  0  0  0  0  0  0  0  0  0  0
   -7.0836  -28.3116   29.9284 C   0  0  0  0  0  0  0  0  0  0  0  0
   -8.3065  -28.6793   29.3738 C   0  0  0  0  0  0  0  0  0  0  0  0
   -9.4775  -28.0145   29.7776 C   0  0  0  0  0  0  0  0  0  0  0  0
   -9.4368  -26.9817   30.7463 C   0  0  0  0  0  0  0  0  0  0  0  0
   -8.2166  -26.6169   31.2986 C   0  0  0  0  0  0  0  0  0  0  0  0
   -5.6975  -26.8698   31.5229 C   0  0  0  0  0  0  0  0  0  0  0  0
   -5.4319  -25.3444   31.5714 C   0  0  0  0  0  0  0  0  0  0  0  0
   -6.3293  -24.5946   32.5492 C   0  0  0  0  0  0  0  0  0  0  0  0
   -7.1425  -23.5150   32.1912 C   0  0  0  0  0  0  0  0  0  0  0  0
   -7.7900  -23.1191   33.3182 N   0  0  0  0  0  0  0  0  0  0  0  0
   -7.4484  -23.8838   34.4158 C   0  0  0  0  0  0  0  0  0  0  0  0
   -6.5290  -24.8304   33.9772 C   0  0  0  0  0  0  0  0  0  0  0  0
   -6.0199  -25.7621   34.9596 C   0  0  0  0  0  0  0  0  0  0  0  0
   -5.1029  -26.7420   34.5893 O   0  0  0  0  0  0  0  0  0  0  0  0
   -6.4556  -25.6630   36.2742 N   0  0  0  0  0  0  0  0  0  0  0  0
   -7.3678  -24.7230   36.6575 C   0  0  0  0  0  0  0  0  0  0  0  0
   -7.8610  -23.8422   35.7728 N   0  0  0  0  0  0  0  0  0  0  0  0
   -7.8099  -24.6682   38.0547 N   0  0  0  0  0  0  0  0  0  0  0  0
  -10.7871  -28.4360   29.1656 C   0  0  0  0  0  0  0  0  0  0  0  0
  -11.2414  -27.8277   28.1983 O   0  0  0  0  0  0  0  0  0  0  0  0
  -11.4932  -29.5523   29.7361 N   0  0  0  0  0  0  0  0  0  0  0  0
  1  2  2  0  0  0  0
  1  6  1  0  0  0  0
  1  7  1  0  0  0  0
  2  3  1  0  0  0  0
  3  4  2  0  0  0  0
  4  5  1  0  0  0  0
  4 20  1  0  0  0  0
  5  6  2  0  0  0  0
  7  8  1  0  0  0  0
  8  9  1  0  0  0  0
  9 10  2  0  0  0  0
  9 13  1  0  0  0  0
 10 11  1  0  0  0  0
 11 12  1  0  0  0  0
 12 13  2  0  0  0  0
 12 18  1  0  0  0  0
 13 14  1  0  0  0  0
 14 15  1  0  0  0  0
 14 16  2  0  0  0  0
 16 17  1  0  0  0  0
 17 18  2  0  0  0  0
 17 19  1  0  0  0  0
 20 21  2  0  0  0  0
 20 22  1  0  0  0  0
M  END
>  <CHROM.1>
133.22509758,-95.79548529,69.63336824,-124.25790610,-7.73143931,-26.15188170
32.52858196,-1.97124201,0.10873704,1.09273177

>  <Name>
ligand

>  <RI>
0

>  <Rbt.Current_Directory>
/home/itssahil/PROJECTS/Mol_Feturizer/New_Systems/rnas/4LVY

>  <Rbt.Executable>
rbdock ($Id: //depot/dev/client3/rdock/2013.1/src/exe/rbdock.cxx#4 $)

>  <Rbt.Library>
libRbt.so (2013.1, Build901 2013/11/27)

>  <Rbt.Parameter_File>
/export/apps/rDock/src/rDock_2013.1_src/data/scripts/dock_solv.prm

>  <Rbt.Receptor>
prm/blind_docking_80.prm

>  <SCORE>
-15.2459

>  <SCORE.INTER>
-14.5049

>  <SCORE.INTER.CONST>
1

>  <SCORE.INTER.POLAR>
0

>  <SCORE.INTER.ROT>
4

>  <SCORE.INTER.SOLV>
5.39543

>  <SCORE.INTER.VDW>
-17.7351

>  <SCORE.INTER.norm>
-0.659312

>  <SCORE.INTRA>
-0.741021

>  <SCORE.INTRA.DIHEDRAL>
0.337513

>  <SCORE.INTRA.DIHEDRAL.0>
6.18831

>  <SCORE.INTRA.POLAR>
0

>  <SCORE.INTRA.POLAR.0>
0

>  <SCORE.INTRA.REPUL>
0

>  <SCORE.INTRA.REPUL.0>
0

>  <SCORE.INTRA.SOLV>
0.310944

>  <SCORE.INTRA.SOLV.lig_0>
-44.3465

>  <SCORE.INTRA.VDW>
-1.06525

>  <SCORE.INTRA.VDW.0>
-0.778272

>  <SCORE.INTRA.norm>
-0.0336828

>  <SCORE.RESTR>
0

>  <SCORE.RESTR.CAVITY>
0

>  <SCORE.RESTR.norm>
0

>  <SCORE.SYSTEM>
0

>  <SCORE.SYSTEM.CONST>
0

>  <SCORE.SYSTEM.DIHEDRAL>
0

>  <SCORE.SYSTEM.SOLV>
0

>  <SCORE.SYSTEM.norm>
0

>  <SCORE.heavy>
22

>  <SCORE.norm>
-0.692995

>  <RMSD>
33.664

$$$$
ligand
 OpenBabel11021811503D
libRbt.so/2013.1/901 2013/11/27
 22 24  0  0  0  0  0  0  0  0999 V2000
   -5.7915  -25.8025   33.2550 C   0  0  0  0  0  0  0  0  0  0  0  0
   -4.6946  -25.9734   34.1258 C   0  0  0  0  0  0  0  0  0  0  0  0
   -4.1966  -24.8752   34.8217 C   0  0  0  0  0  0  0  0  0  0  0  0
   -4.7937  -23.6149   34.6450 C   0  0  0  0  0  0  0  0  0  0  0  0
   -5.8891  -23.4401   33.7639 C   0  0  0  0  0  0  0  0  0  0  0  0
   -6.3838  -24.5362   33.0703 C   0  0  0  0  0  0  0  0  0  0  0  0
   -6.3432  -27.0041   32.4638 C   0  0  0  0  0  0  0  0  0  0  0  0
   -5.8459  -27.1077   31.0003 C   0  0  0  0  0  0  0  0  0  0  0  0
   -6.6764  -28.0472   30.1335 C   0  0  0  0  0  0  0  0  0  0  0  0
   -6.1285  -28.9810   29.2488 C   0  0  0  0  0  0  0  0  0  0  0  0
   -7.1704  -29.6299   28.6662 N   0  0  0  0  0  0  0  0  0  0  0  0
   -8.3922  -29.1741   29.1198 C   0  0  0  0  0  0  0  0  0  0  0  0
   -8.1295  -28.1746   30.0502 C   0  0  0  0  0  0  0  0  0  0  0  0
   -9.2678  -27.5384   30.6761 C   0  0  0  0  0  0  0  0  0  0  0  0
   -9.0793  -26.5355   31.6230 O   0  0  0  0  0  0  0  0  0  0  0  0
  -10.5478  -27.9394   30.3172 N   0  0  0  0  0  0  0  0  0  0  0  0
  -10.7578  -28.9329   29.4053 C   0  0  0  0  0  0  0  0  0  0  0  0
   -9.7251  -29.5447   28.8046 N   0  0  0  0  0  0  0  0  0  0  0  0
  -12.1285  -29.3329   29.0709 N   0  0  0  0  0  0  0  0  0  0  0  0
   -4.2317  -22.4435   35.4060 C   0  0  0  0  0  0  0  0  0  0  0  0
   -3.0907  -22.0470   35.1758 O   0  0  0  0  0  0  0  0  0  0  0  0
   -5.0488  -21.8073   36.4049 N   0  0  0  0  0  0  0  0  0  0  0  0
  1  2  2  0  0  0  0
  1  6  1  0  0  0  0
  1  7  1  0  0  0  0
  2  3  1  0  0  0  0
  3  4  2  0  0  0  0
  4  5  1  0  0  0  0
  4 20  1  0  0  0  0
  5  6  2  0  0  0  0
  7  8  1  0  0  0  0
  8  9  1  0  0  0  0
  9 10  2  0  0  0  0
  9 13  1  0  0  0  0
 10 11  1  0  0  0  0
 11 12  1  0  0  0  0
 12 13  2  0  0  0  0
 12 18  1  0  0  0  0
 13 14  1  0  0  0  0
 14 15  1  0  0  0  0
 14 16  2  0  0  0  0
 16 17  1  0  0  0  0
 17 18  2  0  0  0  0
 17 19  1  0  0  0  0
 20 21  2  0  0  0  0
 20 22  1  0  0  0  0
M  END
>  <CHROM.1>
-98.34683814,65.08367709,-164.00444694,-135.65883871,-7.04195551,-26.46467959
31.87277787,-1.01422040,0.06231435,-2.40678086

>  <Name>
ligand

>  <RI>
0

>  <Rbt.Current_Directory>
/home/itssahil/PROJECTS/Mol_Feturizer/New_Systems/rnas/4LVY

>  <Rbt.Executable>
rbdock ($Id: //depot/dev/client3/rdock/2013.1/src/exe/rbdock.cxx#4 $)

>  <Rbt.Library>
libRbt.so (2013.1, Build901 2013/11/27)

>  <Rbt.Parameter_File>
/export/apps/rDock/src/rDock_2013.1_src/data/scripts/dock_solv.prm

>  <Rbt.Receptor>
prm/blind_docking_100.prm

>  <SCORE>
-16.0516

>  <SCORE.INTER>
-16.3138

>  <SCORE.INTER.CONST>
1

>  <SCORE.INTER.POLAR>
0

>  <SCORE.INTER.ROT>
4

>  <SCORE.INTER.SOLV>
7.9509

>  <SCORE.INTER.VDW>
-19.7929

>  <SCORE.INTER.norm>
-0.741538

>  <SCORE.INTRA>
0.233706

>  <SCORE.INTRA.DIHEDRAL>
0.994278

>  <SCORE.INTRA.DIHEDRAL.0>
6.18831

>  <SCORE.INTRA.POLAR>
0

>  <SCORE.INTRA.POLAR.0>
0

>  <SCORE.INTRA.REPUL>
0

>  <SCORE.INTRA.REPUL.0>
0

>  <SCORE.INTRA.SOLV>
0.435257

>  <SCORE.INTRA.SOLV.lig_0>
-44.3465

>  <SCORE.INTRA.VDW>
-0.481061

>  <SCORE.INTRA.VDW.0>
-0.778272

>  <SCORE.INTRA.norm>
0.010623

>  <SCORE.RESTR>
0.0284965

>  <SCORE.RESTR.CAVITY>
0.0284965

>  <SCORE.RESTR.norm>
0.00129529

>  <SCORE.SYSTEM>
0

>  <SCORE.SYSTEM.CONST>
0

>  <SCORE.SYSTEM.DIHEDRAL>
0

>  <SCORE.SYSTEM.SOLV>
0

>  <SCORE.SYSTEM.norm>
0

>  <SCORE.heavy>
22

>  <SCORE.norm>
-0.729619

>  <RMSD>
33.671

$$$$
ligand
 OpenBabel11021811503D
libRbt.so/2013.1/901 2013/11/27
 22 24  0  0  0  0  0  0  0  0999 V2000
   -5.6206  -29.3077   29.6720 C   0  0  0  0  0  0  0  0  0  0  0  0
   -4.2440  -29.1380   29.4132 C   0  0  0  0  0  0  0  0  0  0  0  0
   -3.6842  -29.7229   28.2806 C   0  0  0  0  0  0  0  0  0  0  0  0
   -4.4986  -30.4730   27.4145 C   0  0  0  0  0  0  0  0  0  0  0  0
   -5.8789  -30.6520   27.6782 C   0  0  0  0  0  0  0  0  0  0  0  0
   -6.4352  -30.0687   28.8084 C   0  0  0  0  0  0  0  0  0  0  0  0
   -6.2520  -28.6820   30.9306 C   0  0  0  0  0  0  0  0  0  0  0  0
   -7.4351  -27.7193   30.6594 C   0  0  0  0  0  0  0  0  0  0  0  0
   -7.9886  -27.0559   31.9152 C   0  0  0  0  0  0  0  0  0  0  0  0
   -8.9912  -27.6132   32.7147 C   0  0  0  0  0  0  0  0  0  0  0  0
   -9.2114  -26.7425   33.7341 N   0  0  0  0  0  0  0  0  0  0  0  0
   -8.4023  -25.6266   33.6552 C   0  0  0  0  0  0  0  0  0  0  0  0
   -7.6110  -25.7817   32.5223 C   0  0  0  0  0  0  0  0  0  0  0  0
   -6.6661  -24.7272   32.2265 C   0  0  0  0  0  0  0  0  0  0  0  0
   -5.8359  -24.8199   31.1128 O   0  0  0  0  0  0  0  0  0  0  0  0
   -6.6018  -23.6228   33.0656 N   0  0  0  0  0  0  0  0  0  0  0  0
   -7.3920  -23.5178   34.1733 C   0  0  0  0  0  0  0  0  0  0  0  0
   -8.2801  -24.4770   34.4780 N   0  0  0  0  0  0  0  0  0  0  0  0
   -7.2760  -22.3393   35.0384 N   0  0  0  0  0  0  0  0  0  0  0  0
   -3.8660  -31.0988   26.1998 C   0  0  0  0  0  0  0  0  0  0  0  0
   -2.6451  -31.0729   26.0563 O   0  0  0  0  0  0  0  0  0  0  0  0
   -4.7140  -31.7169   25.2155 N   0  0  0  0  0  0  0  0  0  0  0  0
  1  2  2  0  0  0  0
  1  6  1  0  0  0  0
  1  7  1  0  0  0  0
  2  3  1  0  0  0  0
  3  4  2  0  0  0  0
  4  5  1  0  0  0  0
  4 20  1  0  0  0  0
  5  6  2  0  0  0  0
  7  8  1  0  0  0  0
  8  9  1  0  0  0  0
  9 10  2  0  0  0  0
  9 13  1  0  0  0  0
 10 11  1  0  0  0  0
 11 12  1  0  0  0  0
 12 13  2  0  0  0  0
 12 18  1  0  0  0  0
 13 14  1  0  0  0  0
 14 15  1  0  0  0  0
 14 16  2  0  0  0  0
 16 17  1  0  0  0  0
 17 18  2  0  0  0  0
 17 19  1  0  0  0  0
 20 21  2  0  0  0  0
 20 22  1  0  0  0  0
M  END
>  <CHROM.1>
122.95045528,7.82243554,-176.75922954,-88.08948496,-6.32124325,-27.50328820
30.68011491,1.14427911,-0.56350502,-2.55698191

>  <Name>
ligand

>  <RI>
0

>  <Rbt.Current_Directory>
/home/itssahil/PROJECTS/Mol_Feturizer/New_Systems/rnas/4LVY

>  <Rbt.Executable>
rbdock ($Id: //depot/dev/client3/rdock/2013.1/src/exe/rbdock.cxx#4 $)

>  <Rbt.Library>
libRbt.so (2013.1, Build901 2013/11/27)

>  <Rbt.Parameter_File>
/export/apps/rDock/src/rDock_2013.1_src/data/scripts/dock_solv.prm

>  <Rbt.Receptor>
prm/blind_docking_80.prm

>  <SCORE>
-20.8692

>  <SCORE.INTER>
-20.7771

>  <SCORE.INTER.CONST>
1

>  <SCORE.INTER.POLAR>
0

>  <SCORE.INTER.ROT>
4

>  <SCORE.INTER.SOLV>
11.4425

>  <SCORE.INTER.VDW>
-23.9323

>  <SCORE.INTER.norm>
-0.944415

>  <SCORE.INTRA>
-0.0920758

>  <SCORE.INTRA.DIHEDRAL>
0.0215014

>  <SCORE.INTRA.DIHEDRAL.0>
6.18831

>  <SCORE.INTRA.POLAR>
0

>  <SCORE.INTRA.POLAR.0>
0

>  <SCORE.INTRA.REPUL>
0

>  <SCORE.INTRA.REPUL.0>
0

>  <SCORE.INTRA.SOLV>
0.160226

>  <SCORE.INTRA.SOLV.lig_0>
-44.3465

>  <SCORE.INTRA.VDW>
-0.182939

>  <SCORE.INTRA.VDW.0>
-0.778272

>  <SCORE.INTRA.norm>
-0.00418526

>  <SCORE.RESTR>
0

>  <SCORE.RESTR.CAVITY>
0

>  <SCORE.RESTR.norm>
0

>  <SCORE.SYSTEM>
0

>  <SCORE.SYSTEM.CONST>
0

>  <SCORE.SYSTEM.DIHEDRAL>
0

>  <SCORE.SYSTEM.SOLV>
0

>  <SCORE.SYSTEM.norm>
0

>  <SCORE.heavy>
22

>  <SCORE.norm>
-0.9486

>  <RMSD>
33.673

$$$$
ligand
 OpenBabel11021811503D
libRbt.so/2013.1/901 2013/11/27
 22 24  0  0  0  0  0  0  0  0999 V2000
   -5.4081  -29.6068   29.1811 C   0  0  0  0  0  0  0  0  0  0  0  0
   -4.0441  -29.2488   29.2254 C   0  0  0  0  0  0  0  0  0  0  0  0
   -3.1977  -29.6519   28.1960 C   0  0  0  0  0  0  0  0  0  0  0  0
   -3.7154  -30.4090   27.1307 C   0  0  0  0  0  0  0  0  0  0  0  0
   -5.0827  -30.7771   27.0898 C   0  0  0  0  0  0  0  0  0  0  0  0
   -5.9249  -30.3749   28.1174 C   0  0  0  0  0  0  0  0  0  0  0  0
   -6.3543  -29.1840   30.3214 C   0  0  0  0  0  0  0  0  0  0  0  0
   -6.7519  -27.6867   30.3203 C   0  0  0  0  0  0  0  0  0  0  0  0
   -7.2370  -27.1781   31.6729 C   0  0  0  0  0  0  0  0  0  0  0  0
   -8.4071  -27.6192   32.2983 C   0  0  0  0  0  0  0  0  0  0  0  0
   -8.5005  -26.9491   33.4765 N   0  0  0  0  0  0  0  0  0  0  0  0
   -7.4464  -26.0787   33.6701 C   0  0  0  0  0  0  0  0  0  0  0  0
   -6.6213  -26.1907   32.5565 C   0  0  0  0  0  0  0  0  0  0  0  0
   -5.4320  -25.3678   32.5294 C   0  0  0  0  0  0  0  0  0  0  0  0
   -4.5560  -25.4345   31.4494 O   0  0  0  0  0  0  0  0  0  0  0  0
   -5.1793  -24.5105   33.5920 N   0  0  0  0  0  0  0  0  0  0  0  0
   -6.0132  -24.4411   34.6702 C   0  0  0  0  0  0  0  0  0  0  0  0
   -7.1257  -25.1898   34.7286 N   0  0  0  0  0  0  0  0  0  0  0  0
   -5.6952  -23.5319   35.7760 N   0  0  0  0  0  0  0  0  0  0  0  0
   -2.7767  -30.8360   26.0335 C   0  0  0  0  0  0  0  0  0  0  0  0
   -1.5856  -30.5354   26.0874 O   0  0  0  0  0  0  0  0  0  0  0  0
   -3.2999  -31.5913   24.9264 N   0  0  0  0  0  0  0  0  0  0  0  0
  1  2  2  0  0  0  0
  1  6  1  0  0  0  0
  1  7  1  0  0  0  0
  2  3  1  0  0  0  0
  3  4  2  0  0  0  0
  4  5  1  0  0  0  0
  4 20  1  0  0  0  0
  5  6  2  0  0  0  0
  7  8  1  0  0  0  0
  8  9  1  0  0  0  0
  9 10  2  0  0  0  0
  9 13  1  0  0  0  0
 10 11  1  0  0  0  0
 11 12  1  0  0  0  0
 12 13  2  0  0  0  0
 12 18  1  0  0  0  0
 13 14  1  0  0  0  0
 14 15  1  0  0  0  0
 14 16  2  0  0  0  0
 16 17  1  0  0  0  0
 17 18  2  0  0  0  0
 17 19  1  0  0  0  0
 20 21  2  0  0  0  0
 20 22  1  0  0  0  0
M  END
>  <CHROM.1>
74.58730413,0.76472233,-158.79380164,-65.44139296,-5.43610719,-27.79698820
30.60494214,1.21981605,-0.35846778,-2.33974440

>  <Name>
ligand

>  <RI>
0

>  <Rbt.Current_Directory>
/home/itssahil/PROJECTS/Mol_Feturizer/New_Systems/rnas/4LVY

>  <Rbt.Executable>
rbdock ($Id: //depot/dev/client3/rdock/2013.1/src/exe/rbdock.cxx#4 $)

>  <Rbt.Library>
libRbt.so (2013.1, Build901 2013/11/27)

>  <Rbt.Parameter_File>
/export/apps/rDock/src/rDock_2013.1_src/data/scripts/dock_solv.prm

>  <Rbt.Receptor>
prm/blind_docking_60.prm

>  <SCORE>
-19.0331

>  <SCORE.INTER>
-19.753

>  <SCORE.INTER.CONST>
1

>  <SCORE.INTER.POLAR>
0

>  <SCORE.INTER.ROT>
4

>  <SCORE.INTER.SOLV>
13.0701

>  <SCORE.INTER.VDW>
-23.792

>  <SCORE.INTER.norm>
-0.897863

>  <SCORE.INTRA>
0.719923

>  <SCORE.INTRA.DIHEDRAL>
1.76579

>  <SCORE.INTRA.DIHEDRAL.0>
6.18831

>  <SCORE.INTRA.POLAR>
0

>  <SCORE.INTRA.POLAR.0>
0

>  <SCORE.INTRA.REPUL>
0

>  <SCORE.INTRA.REPUL.0>
0

>  <SCORE.INTRA.SOLV>
0.0724422

>  <SCORE.INTRA.SOLV.lig_0>
-44.3465

>  <SCORE.INTRA.VDW>
-0.199196

>  <SCORE.INTRA.VDW.0>
-0.778272

>  <SCORE.INTRA.norm>
0.0327238

>  <SCORE.RESTR>
0

>  <SCORE.RESTR.CAVITY>
0

>  <SCORE.RESTR.norm>
0

>  <SCORE.SYSTEM>
0

>  <SCORE.SYSTEM.CONST>
0

>  <SCORE.SYSTEM.DIHEDRAL>
0

>  <SCORE.SYSTEM.SOLV>
0

>  <SCORE.SYSTEM.norm>
0

>  <SCORE.heavy>
22

>  <SCORE.norm>
-0.86514

>  <RMSD>
33.688

$$$$
ligand
 OpenBabel11021811503D
libRbt.so/2013.1/901 2013/11/27
 22 24  0  0  0  0  0  0  0  0999 V2000
   -5.4784  -29.4019   29.6417 C   0  0  0  0  0  0  0  0  0  0  0  0
   -4.1255  -29.2368   29.2769 C   0  0  0  0  0  0  0  0  0  0  0  0
   -3.6601  -29.8128   28.0980 C   0  0  0  0  0  0  0  0  0  0  0  0
   -4.5448  -30.5497   27.2913 C   0  0  0  0  0  0  0  0  0  0  0  0
   -5.9011  -30.7242   27.6612 C   0  0  0  0  0  0  0  0  0  0  0  0
   -6.3631  -30.1496   28.8375 C   0  0  0  0  0  0  0  0  0  0  0  0
   -6.0050  -28.7859   30.9522 C   0  0  0  0  0  0  0  0  0  0  0  0
   -6.9867  -27.6014   30.7702 C   0  0  0  0  0  0  0  0  0  0  0  0
   -7.3665  -26.9112   32.0752 C   0  0  0  0  0  0  0  0  0  0  0  0
   -8.5254  -27.2003   32.8021 C   0  0  0  0  0  0  0  0  0  0  0  0
   -8.5146  -26.3957   33.8968 N   0  0  0  0  0  0  0  0  0  0  0  0
   -7.4013  -25.5802   33.9376 C   0  0  0  0  0  0  0  0  0  0  0  0
   -6.6458  -25.8723   32.8074 C   0  0  0  0  0  0  0  0  0  0  0  0
   -5.4125  -25.1380   32.6286 C   0  0  0  0  0  0  0  0  0  0  0  0
   -4.6018  -25.3847   31.5241 O   0  0  0  0  0  0  0  0  0  0  0  0
   -5.0518  -24.1838   33.5706 N   0  0  0  0  0  0  0  0  0  0  0  0
   -5.8204  -23.9372   34.6710 C   0  0  0  0  0  0  0  0  0  0  0  0
   -6.9711  -24.5995   34.8686 N   0  0  0  0  0  0  0  0  0  0  0  0
   -5.3892  -22.9310   35.6467 N   0  0  0  0  0  0  0  0  0  0  0  0
   -4.0136  -31.1662   26.0245 C   0  0  0  0  0  0  0  0  0  0  0  0
   -4.7814  -31.7096   25.2325 O   0  0  0  0  0  0  0  0  0  0  0  0
   -2.5994  -31.1125   25.7656 N   0  0  0  0  0  0  0  0  0  0  0  0
  1  2  2  0  0  0  0
  1  6  1  0  0  0  0
  1  7  1  0  0  0  0
  2  3  1  0  0  0  0
  3  4  2  0  0  0  0
  4  5  1  0  0  0  0
  4 20  1  0  0  0  0
  5  6  2  0  0  0  0
  7  8  1  0  0  0  0
  8  9  1  0  0  0  0
  9 10  2  0  0  0  0
  9 13  1  0  0  0  0
 10 11  1  0  0  0  0
 11 12  1  0  0  0  0
 12 13  2  0  0  0  0
 12 18  1  0  0  0  0
 13 14  1  0  0  0  0
 14 15  1  0  0  0  0
 14 16  2  0  0  0  0
 16 17  1  0  0  0  0
 17 18  2  0  0  0  0
 17 19  1  0  0  0  0
 20 21  2  0  0  0  0
 20 22  1  0  0  0  0
M  END
>  <CHROM.1>
110.62001583,-173.17976470,-173.40282889,-96.12075859,-5.71516365,-27.62325651
30.81730008,1.33767538,-0.39604039,-2.35704358

>  <Name>
ligand

>  <RI>
0

>  <Rbt.Current_Directory>
/home/itssahil/PROJECTS/Mol_Feturizer/New_Systems/rnas/4LVY

>  <Rbt.Executable>
rbdock ($Id: //depot/dev/client3/rdock/2013.1/src/exe/rbdock.cxx#4 $)

>  <Rbt.Library>
libRbt.so (2013.1, Build901 2013/11/27)

>  <Rbt.Parameter_File>
/export/apps/rDock/src/rDock_2013.1_src/data/scripts/dock_solv.prm

>  <Rbt.Receptor>
prm/blind_docking_80.prm

>  <SCORE>
-21.3505

>  <SCORE.INTER>
-21.2147

>  <SCORE.INTER.CONST>
1

>  <SCORE.INTER.POLAR>
0

>  <SCORE.INTER.ROT>
4

>  <SCORE.INTER.SOLV>
12.2845

>  <SCORE.INTER.VDW>
-24.5046

>  <SCORE.INTER.norm>
-0.964303

>  <SCORE.INTRA>
-0.13578

>  <SCORE.INTRA.DIHEDRAL>
0.228619

>  <SCORE.INTRA.DIHEDRAL.0>
6.18831

>  <SCORE.INTRA.POLAR>
0

>  <SCORE.INTRA.POLAR.0>
0

>  <SCORE.INTRA.REPUL>
0

>  <SCORE.INTRA.REPUL.0>
0

>  <SCORE.INTRA.SOLV>
0.198475

>  <SCORE.INTRA.SOLV.lig_0>
-44.3465

>  <SCORE.INTRA.VDW>
-0.349327

>  <SCORE.INTRA.VDW.0>
-0.778272

>  <SCORE.INTRA.norm>
-0.00617182

>  <SCORE.RESTR>
0

>  <SCORE.RESTR.CAVITY>
0

>  <SCORE.RESTR.norm>
0

>  <SCORE.SYSTEM>
0

>  <SCORE.SYSTEM.CONST>
0

>  <SCORE.SYSTEM.DIHEDRAL>
0

>  <SCORE.SYSTEM.SOLV>
0

>  <SCORE.SYSTEM.norm>
0

>  <SCORE.heavy>
22

>  <SCORE.norm>
-0.970475

>  <RMSD>
33.690

$$$$
ligand
 OpenBabel11021811503D
libRbt.so/2013.1/901 2013/11/27
 22 24  0  0  0  0  0  0  0  0999 V2000
   -5.7234  -29.3208   30.0473 C   0  0  0  0  0  0  0  0  0  0  0  0
   -4.4487  -29.0871   29.4896 C   0  0  0  0  0  0  0  0  0  0  0  0
   -4.1163  -29.6764   28.2728 C   0  0  0  0  0  0  0  0  0  0  0  0
   -5.0550  -30.4947   27.6206 C   0  0  0  0  0  0  0  0  0  0  0  0
   -6.3318  -30.7378   28.1841 C   0  0  0  0  0  0  0  0  0  0  0  0
   -6.6612  -30.1499   29.3978 C   0  0  0  0  0  0  0  0  0  0  0  0
   -6.1004  -28.6906   31.4018 C   0  0  0  0  0  0  0  0  0  0  0  0
   -6.9694  -27.4115   31.3091 C   0  0  0  0  0  0  0  0  0  0  0  0
   -7.1438  -26.6886   32.6397 C   0  0  0  0  0  0  0  0  0  0  0  0
   -8.1683  -26.9659   33.5498 C   0  0  0  0  0  0  0  0  0  0  0  0
   -7.9921  -26.1315   34.6075 N   0  0  0  0  0  0  0  0  0  0  0  0
   -6.8960  -25.3072   34.4485 C   0  0  0  0  0  0  0  0  0  0  0  0
   -6.3274  -25.6248   33.2200 C   0  0  0  0  0  0  0  0  0  0  0  0
   -5.1471  -24.8867   32.8272 C   0  0  0  0  0  0  0  0  0  0  0  0
   -4.5204  -25.1577   31.6140 O   0  0  0  0  0  0  0  0  0  0  0  0
   -4.6516  -23.9044   33.6743 N   0  0  0  0  0  0  0  0  0  0  0  0
   -5.2374  -23.6333   34.8768 C   0  0  0  0  0  0  0  0  0  0  0  0
   -6.3340  -24.2983   35.2730 N   0  0  0  0  0  0  0  0  0  0  0  0
   -4.6674  -22.5976   35.7445 N   0  0  0  0  0  0  0  0  0  0  0  0
   -4.6673  -31.1236   26.3086 C   0  0  0  0  0  0  0  0  0  0  0  0
   -3.4936  -31.1147   25.9420 O   0  0  0  0  0  0  0  0  0  0  0  0
   -5.6918  -31.7244   25.4965 N   0  0  0  0  0  0  0  0  0  0  0  0
  1  2  2  0  0  0  0
  1  6  1  0  0  0  0
  1  7  1  0  0  0  0
  2  3  1  0  0  0  0
  3  4  2  0  0  0  0
  4  5  1  0  0  0  0
  4 20  1  0  0  0  0
  5  6  2  0  0  0  0
  7  8  1  0  0  0  0
  8  9  1  0  0  0  0
  9 10  2  0  0  0  0
  9 13  1  0  0  0  0
 10 11  1  0  0  0  0
 11 12  1  0  0  0  0
 12 13  2  0  0  0  0
 12 18  1  0  0  0  0
 13 14  1  0  0  0  0
 14 15  1  0  0  0  0
 14 16  2  0  0  0  0
 16 17  1  0  0  0  0
 17 18  2  0  0  0  0
 17 19  1  0  0  0  0
 20 21  2  0  0  0  0
 20 22  1  0  0  0  0
M  END
>  <CHROM.1>
99.89256110,12.62470039,-170.90874232,-88.72071635,-5.71004197,-27.45238856
31.17693403,1.45643365,-0.51908514,-2.34109736

>  <Name>
ligand

>  <RI>
0

>  <Rbt.Current_Directory>
/home/itssahil/PROJECTS/Mol_Feturizer/New_Systems/rnas/4LVY

>  <Rbt.Executable>
rbdock ($Id: //depot/dev/client3/rdock/2013.1/src/exe/rbdock.cxx#4 $)

>  <Rbt.Library>
libRbt.so (2013.1, Build901 2013/11/27)

>  <Rbt.Parameter_File>
/export/apps/rDock/src/rDock_2013.1_src/data/scripts/dock_solv.prm

>  <Rbt.Receptor>
prm/blind_docking_60.prm

>  <SCORE>
-20.3173

>  <SCORE.INTER>
-20.265

>  <SCORE.INTER.CONST>
1

>  <SCORE.INTER.POLAR>
0

>  <SCORE.INTER.ROT>
4

>  <SCORE.INTER.SOLV>
13.862

>  <SCORE.INTER.VDW>
-24.3974

>  <SCORE.INTER.norm>
-0.921138

>  <SCORE.INTRA>
-0.0833977

>  <SCORE.INTRA.DIHEDRAL>
0.388509

>  <SCORE.INTRA.DIHEDRAL.0>
6.18831

>  <SCORE.INTRA.POLAR>
0

>  <SCORE.INTRA.POLAR.0>
0

>  <SCORE.INTRA.REPUL>
0

>  <SCORE.INTRA.REPUL.0>
0

>  <SCORE.INTRA.SOLV>
0.162387

>  <SCORE.INTRA.SOLV.lig_0>
-44.3465

>  <SCORE.INTRA.VDW>
-0.358846

>  <SCORE.INTRA.VDW.0>
-0.778272

>  <SCORE.INTRA.norm>
-0.0037908

>  <SCORE.RESTR>
0.0310876

>  <SCORE.RESTR.CAVITY>
0.0310876

>  <SCORE.RESTR.norm>
0.00141307

>  <SCORE.SYSTEM>
0

>  <SCORE.SYSTEM.CONST>
0

>  <SCORE.SYSTEM.DIHEDRAL>
0

>  <SCORE.SYSTEM.SOLV>
0

>  <SCORE.SYSTEM.norm>
0

>  <SCORE.heavy>
22

>  <SCORE.norm>
-0.923516

>  <RMSD>
33.695

$$$$
ligand
 OpenBabel11021811503D
libRbt.so/2013.1/901 2013/11/27
 22 24  0  0  0  0  0  0  0  0999 V2000
   -5.3292  -29.6892   28.5238 C   0  0  0  0  0  0  0  0  0  0  0  0
   -3.9656  -29.3521   28.6567 C   0  0  0  0  0  0  0  0  0  0  0  0
   -3.0479  -29.8365   27.7285 C   0  0  0  0  0  0  0  0  0  0  0  0
   -3.4944  -30.6536   26.6753 C   0  0  0  0  0  0  0  0  0  0  0  0
   -4.8618  -31.0006   26.5461 C   0  0  0  0  0  0  0  0  0  0  0  0
   -5.7752  -30.5172   27.4730 C   0  0  0  0  0  0  0  0  0  0  0  0
   -6.3548  -29.1760   29.5527 C   0  0  0  0  0  0  0  0  0  0  0  0
   -5.8256  -29.0647   31.0044 C   0  0  0  0  0  0  0  0  0  0  0  0
   -6.6794  -28.1787   31.9042 C   0  0  0  0  0  0  0  0  0  0  0  0
   -7.6705  -28.6636   32.7629 C   0  0  0  0  0  0  0  0  0  0  0  0
   -8.2035  -27.5867   33.3971 N   0  0  0  0  0  0  0  0  0  0  0  0
   -7.6151  -26.4015   33.0031 C   0  0  0  0  0  0  0  0  0  0  0  0
   -6.6446  -26.7266   32.0618 C   0  0  0  0  0  0  0  0  0  0  0  0
   -5.8798  -25.6363   31.4973 C   0  0  0  0  0  0  0  0  0  0  0  0
   -4.8861  -25.8890   30.5556 O   0  0  0  0  0  0  0  0  0  0  0  0
   -6.1527  -24.3374   31.9051 N   0  0  0  0  0  0  0  0  0  0  0  0
   -7.1089  -24.0662   32.8403 C   0  0  0  0  0  0  0  0  0  0  0  0
   -7.8379  -25.0531   33.3847 N   0  0  0  0  0  0  0  0  0  0  0  0
   -7.3496  -22.6792   33.2509 N   0  0  0  0  0  0  0  0  0  0  0  0
   -2.4798  -31.1680   25.6888 C   0  0  0  0  0  0  0  0  0  0  0  0
   -2.8483  -31.7426   24.6661 O   0  0  0  0  0  0  0  0  0  0  0  0
   -1.0811  -30.9803   25.9692 N   0  0  0  0  0  0  0  0  0  0  0  0
  1  2  2  0  0  0  0
  1  6  1  0  0  0  0
  1  7  1  0  0  0  0
  2  3  1  0  0  0  0
  3  4  2  0  0  0  0
  4  5  1  0  0  0  0
  4 20  1  0  0  0  0
  5  6  2  0  0  0  0
  7  8  1  0  0  0  0
  8  9  1  0  0  0  0
  9 10  2  0  0  0  0
  9 13  1  0  0  0  0
 10 11  1  0  0  0  0
 11 12  1  0  0  0  0
 12 13  2  0  0  0  0
 12 18  1  0  0  0  0
 13 14  1  0  0  0  0
 14 15  1  0  0  0  0
 14 16  2  0  0  0  0
 16 17  1  0  0  0  0
 17 18  2  0  0  0  0
 17 19  1  0  0  0  0
 20 21  2  0  0  0  0
 20 22  1  0  0  0  0
M  END
>  <CHROM.1>
-34.43028415,-170.90220407,162.32107436,96.29918761,-5.48844632,-28.07390105
29.95250236,0.95251100,-0.75175735,-2.73385763

>  <Name>
ligand

>  <RI>
0

>  <Rbt.Current_Directory>
/home/itssahil/PROJECTS/Mol_Feturizer/New_Systems/rnas/4LVY

>  <Rbt.Executable>
rbdock ($Id: //depot/dev/client3/rdock/2013.1/src/exe/rbdock.cxx#4 $)

>  <Rbt.Library>
libRbt.so (2013.1, Build901 2013/11/27)

>  <Rbt.Parameter_File>
/export/apps/rDock/src/rDock_2013.1_src/data/scripts/dock_solv.prm

>  <Rbt.Receptor>
prm/blind_docking_100.prm

>  <SCORE>
-20.7241

>  <SCORE.INTER>
-21.3865

>  <SCORE.INTER.CONST>
1

>  <SCORE.INTER.POLAR>
0

>  <SCORE.INTER.ROT>
4

>  <SCORE.INTER.SOLV>
15.8555

>  <SCORE.INTER.VDW>
-25.8095

>  <SCORE.INTER.norm>
-0.972113

>  <SCORE.INTRA>
0.659835

>  <SCORE.INTRA.DIHEDRAL>
1.35471

>  <SCORE.INTRA.DIHEDRAL.0>
6.18831

>  <SCORE.INTRA.POLAR>
0

>  <SCORE.INTRA.POLAR.0>
0

>  <SCORE.INTRA.REPUL>
0

>  <SCORE.INTRA.REPUL.0>
0

>  <SCORE.INTRA.SOLV>
0.195276

>  <SCORE.INTRA.SOLV.lig_0>
-44.3465

>  <SCORE.INTRA.VDW>
-0.115158

>  <SCORE.INTRA.VDW.0>
-0.778272

>  <SCORE.INTRA.norm>
0.0299925

>  <SCORE.RESTR>
0.00255185

>  <SCORE.RESTR.CAVITY>
0.00255185

>  <SCORE.RESTR.norm>
0.000115993

>  <SCORE.SYSTEM>
0

>  <SCORE.SYSTEM.CONST>
0

>  <SCORE.SYSTEM.DIHEDRAL>
0

>  <SCORE.SYSTEM.SOLV>
0

>  <SCORE.SYSTEM.norm>
0

>  <SCORE.heavy>
22

>  <SCORE.norm>
-0.942005

>  <RMSD>
33.759

$$$$
ligand
 OpenBabel11021811503D
libRbt.so/2013.1/901 2013/11/27
 22 24  0  0  0  0  0  0  0  0999 V2000
   -4.9173  -30.0516   28.2565 C   0  0  0  0  0  0  0  0  0  0  0  0
   -4.6907  -30.7493   27.0513 C   0  0  0  0  0  0  0  0  0  0  0  0
   -3.4291  -30.7075   26.4640 C   0  0  0  0  0  0  0  0  0  0  0  0
   -2.4026  -29.9709   27.0804 C   0  0  0  0  0  0  0  0  0  0  0  0
   -2.6314  -29.2622   28.2855 C   0  0  0  0  0  0  0  0  0  0  0  0
   -3.8902  -29.3044   28.8692 C   0  0  0  0  0  0  0  0  0  0  0  0
   -6.3126  -30.0729   28.9098 C   0  0  0  0  0  0  0  0  0  0  0  0
   -6.7887  -28.7136   29.4802 C   0  0  0  0  0  0  0  0  0  0  0  0
   -6.4719  -28.5221   30.9589 C   0  0  0  0  0  0  0  0  0  0  0  0
   -6.5137  -29.5505   31.9053 C   0  0  0  0  0  0  0  0  0  0  0  0
   -6.1679  -29.0014   33.0990 N   0  0  0  0  0  0  0  0  0  0  0  0
   -5.8960  -27.6517   32.9966 C   0  0  0  0  0  0  0  0  0  0  0  0
   -6.0733  -27.3048   31.6618 C   0  0  0  0  0  0  0  0  0  0  0  0
   -5.8395  -25.9237   31.3010 C   0  0  0  0  0  0  0  0  0  0  0  0
   -5.9900  -25.5072   29.9811 O   0  0  0  0  0  0  0  0  0  0  0  0
   -5.4669  -25.0213   32.2883 N   0  0  0  0  0  0  0  0  0  0  0  0
   -5.2949  -25.4093   33.5854 C   0  0  0  0  0  0  0  0  0  0  0  0
   -5.5036  -26.6825   33.9559 N   0  0  0  0  0  0  0  0  0  0  0  0
   -4.8846  -24.4226   34.5897 N   0  0  0  0  0  0  0  0  0  0  0  0
   -1.0494  -29.9385   26.4208 C   0  0  0  0  0  0  0  0  0  0  0  0
   -0.3931  -28.8987   26.4075 O   0  0  0  0  0  0  0  0  0  0  0  0
   -0.5476  -31.1384   25.8055 N   0  0  0  0  0  0  0  0  0  0  0  0
  1  2  2  0  0  0  0
  1  6  1  0  0  0  0
  1  7  1  0  0  0  0
  2  3  1  0  0  0  0
  3  4  2  0  0  0  0
  4  5  1  0  0  0  0
  4 20  1  0  0  0  0
  5  6  2  0  0  0  0
  7  8  1  0  0  0  0
  8  9  1  0  0  0  0
  9 10  2  0  0  0  0
  9 13  1  0  0  0  0
 10 11  1  0  0  0  0
 11 12  1  0  0  0  0
 12 13  2  0  0  0  0
 12 18  1  0  0  0  0
 13 14  1  0  0  0  0
 14 15  1  0  0  0  0
 14 16  2  0  0  0  0
 16 17  1  0  0  0  0
 17 18  2  0  0  0  0
 17 19  1  0  0  0  0
 20 21  2  0  0  0  0
 20 22  1  0  0  0  0
M  END
>  <CHROM.1>
-138.35385468,140.77263541,-93.52620743,-36.26888680,-4.58333361,-28.29888577
29.97911748,1.03994561,-0.49539541,-2.39983938

>  <Name>
ligand

>  <RI>
0

>  <Rbt.Current_Directory>
/home/itssahil/PROJECTS/Mol_Feturizer/New_Systems/rnas/4LVY

>  <Rbt.Executable>
rbdock ($Id: //depot/dev/client3/rdock/2013.1/src/exe/rbdock.cxx#4 $)

>  <Rbt.Library>
libRbt.so (2013.1, Build901 2013/11/27)

>  <Rbt.Parameter_File>
/export/apps/rDock/src/rDock_2013.1_src/data/scripts/dock_solv.prm

>  <Rbt.Receptor>
prm/blind_docking_100.prm

>  <SCORE>
-20.7726

>  <SCORE.INTER>
-22.4858

>  <SCORE.INTER.CONST>
1

>  <SCORE.INTER.POLAR>
0

>  <SCORE.INTER.ROT>
4

>  <SCORE.INTER.SOLV>
15.1376

>  <SCORE.INTER.VDW>
-26.303

>  <SCORE.INTER.norm>
-1.02208

>  <SCORE.INTRA>
1.71295

>  <SCORE.INTRA.DIHEDRAL>
3.70885

>  <SCORE.INTRA.DIHEDRAL.0>
6.18831

>  <SCORE.INTRA.POLAR>
0

>  <SCORE.INTRA.POLAR.0>
0

>  <SCORE.INTRA.REPUL>
0

>  <SCORE.INTRA.REPUL.0>
0

>  <SCORE.INTRA.SOLV>
0.00296952

>  <SCORE.INTRA.SOLV.lig_0>
-44.3465

>  <SCORE.INTRA.VDW>
-0.142965

>  <SCORE.INTRA.VDW.0>
-0.778272

>  <SCORE.INTRA.norm>
0.0778611

>  <SCORE.RESTR>
0.000229922

>  <SCORE.RESTR.CAVITY>
0.000229922

>  <SCORE.RESTR.norm>
1.0451e-05

>  <SCORE.SYSTEM>
0

>  <SCORE.SYSTEM.CONST>
0

>  <SCORE.SYSTEM.DIHEDRAL>
0

>  <SCORE.SYSTEM.SOLV>
0

>  <SCORE.SYSTEM.norm>
0

>  <SCORE.heavy>
22

>  <SCORE.norm>
-0.944208

>  <RMSD>
33.777

$$$$
ligand
 OpenBabel11021811503D
libRbt.so/2013.1/901 2013/11/27
 22 24  0  0  0  0  0  0  0  0999 V2000
   -5.5686  -29.5874   29.6766 C   0  0  0  0  0  0  0  0  0  0  0  0
   -6.0898  -30.3532   28.6124 C   0  0  0  0  0  0  0  0  0  0  0  0
   -5.2872  -30.6234   27.5073 C   0  0  0  0  0  0  0  0  0  0  0  0
   -3.9719  -30.1285   27.4696 C   0  0  0  0  0  0  0  0  0  0  0  0
   -3.4505  -29.3515   28.5331 C   0  0  0  0  0  0  0  0  0  0  0  0
   -4.2526  -29.0825   29.6338 C   0  0  0  0  0  0  0  0  0  0  0  0
   -6.4497  -29.2642   30.8986 C   0  0  0  0  0  0  0  0  0  0  0  0
   -6.5597  -27.7586   31.2461 C   0  0  0  0  0  0  0  0  0  0  0  0
   -7.5682  -27.4536   32.3477 C   0  0  0  0  0  0  0  0  0  0  0  0
   -8.3964  -28.4148   32.9351 C   0  0  0  0  0  0  0  0  0  0  0  0
   -9.1444  -27.7720   33.8697 N   0  0  0  0  0  0  0  0  0  0  0  0
   -8.8556  -26.4235   33.9361 C   0  0  0  0  0  0  0  0  0  0  0  0
   -7.8636  -26.1767   32.9935 C   0  0  0  0  0  0  0  0  0  0  0  0
   -7.3863  -24.8162   32.8769 C   0  0  0  0  0  0  0  0  0  0  0  0
   -6.3884  -24.4981   31.9598 O   0  0  0  0  0  0  0  0  0  0  0  0
   -7.9387  -23.8345   33.6887 N   0  0  0  0  0  0  0  0  0  0  0  0
   -8.9046  -24.1252   34.6080 C   0  0  0  0  0  0  0  0  0  0  0  0
   -9.3714  -25.3765   34.7430 N   0  0  0  0  0  0  0  0  0  0  0  0
   -9.4458  -23.0569   35.4544 N   0  0  0  0  0  0  0  0  0  0  0  0
   -3.1277  -30.4313   26.2601 C   0  0  0  0  0  0  0  0  0  0  0  0
   -2.0824  -29.8136   26.0657 O   0  0  0  0  0  0  0  0  0  0  0  0
   -3.5698  -31.4458   25.3406 N   0  0  0  0  0  0  0  0  0  0  0  0
  1  2  2  0  0  0  0
  1  6  1  0  0  0  0
  1  7  1  0  0  0  0
  2  3  1  0  0  0  0
  3  4  2  0  0  0  0
  4  5  1  0  0  0  0
  4 20  1  0  0  0  0
  5  6  2  0  0  0  0
  7  8  1  0  0  0  0
  8  9  1  0  0  0  0
  9 10  2  0  0  0  0
  9 13  1  0  0  0  0
 10 11  1  0  0  0  0
 11 12  1  0  0  0  0
 12 13  2  0  0  0  0
 12 18  1  0  0  0  0
 13 14  1  0  0  0  0
 14 15  1  0  0  0  0
 14 16  2  0  0  0  0
 16 17  1  0  0  0  0
 17 18  2  0  0  0  0
 17 19  1  0  0  0  0
 20 21  2  0  0  0  0
 20 22  1  0  0  0  0
M  END
>  <CHROM.1>
-125.80760761,165.85160255,172.90452355,-4.41650751,-6.42987919,-27.66363161
30.94572020,0.84901872,-0.74905303,-2.75625441

>  <Name>
ligand

>  <RI>
0

>  <Rbt.Current_Directory>
/home/itssahil/PROJECTS/Mol_Feturizer/New_Systems/rnas/4LVY

>  <Rbt.Executable>
rbdock ($Id: //depot/dev/client3/rdock/2013.1/src/exe/rbdock.cxx#4 $)

>  <Rbt.Library>
libRbt.so (2013.1, Build901 2013/11/27)

>  <Rbt.Parameter_File>
/export/apps/rDock/src/rDock_2013.1_src/data/scripts/dock_solv.prm

>  <Rbt.Receptor>
prm/blind_docking_100.prm

>  <SCORE>
-16.943

>  <SCORE.INTER>
-17.6252

>  <SCORE.INTER.CONST>
1

>  <SCORE.INTER.POLAR>
0

>  <SCORE.INTER.ROT>
4

>  <SCORE.INTER.SOLV>
13.1407

>  <SCORE.INTER.VDW>
-22.397

>  <SCORE.INTER.norm>
-0.801145

>  <SCORE.INTRA>
0.682168

>  <SCORE.INTRA.DIHEDRAL>
0.245626

>  <SCORE.INTRA.DIHEDRAL.0>
6.18831

>  <SCORE.INTRA.POLAR>
0

>  <SCORE.INTRA.POLAR.0>
0

>  <SCORE.INTRA.REPUL>
0

>  <SCORE.INTRA.REPUL.0>
0

>  <SCORE.INTRA.SOLV>
0.00920942

>  <SCORE.INTRA.SOLV.lig_0>
-44.3465

>  <SCORE.INTRA.VDW>
0.55475

>  <SCORE.INTRA.VDW.0>
-0.778272

>  <SCORE.INTRA.norm>
0.0310076

>  <SCORE.RESTR>
0

>  <SCORE.RESTR.CAVITY>
0

>  <SCORE.RESTR.norm>
0

>  <SCORE.SYSTEM>
0

>  <SCORE.SYSTEM.CONST>
0

>  <SCORE.SYSTEM.DIHEDRAL>
0

>  <SCORE.SYSTEM.SOLV>
0

>  <SCORE.SYSTEM.norm>
0

>  <SCORE.heavy>
22

>  <SCORE.norm>
-0.770138

>  <RMSD>
33.887

$$$$
ligand
 OpenBabel11021811503D
libRbt.so/2013.1/901 2013/11/27
 22 24  0  0  0  0  0  0  0  0999 V2000
   -5.3817  -29.3140   29.3717 C   0  0  0  0  0  0  0  0  0  0  0  0
   -6.4789  -29.8768   28.6861 C   0  0  0  0  0  0  0  0  0  0  0  0
   -6.2596  -30.5768   27.5028 C   0  0  0  0  0  0  0  0  0  0  0  0
   -4.9497  -30.7106   27.0103 C   0  0  0  0  0  0  0  0  0  0  0  0
   -3.8482  -30.1379   27.6926 C   0  0  0  0  0  0  0  0  0  0  0  0
   -4.0690  -29.4397   28.8720 C   0  0  0  0  0  0  0  0  0  0  0  0
   -5.6092  -28.5210   30.6730 C   0  0  0  0  0  0  0  0  0  0  0  0
   -6.7585  -27.4838   30.6147 C   0  0  0  0  0  0  0  0  0  0  0  0
   -7.3850  -27.1830   31.9713 C   0  0  0  0  0  0  0  0  0  0  0  0
   -8.1803  -28.0877   32.6813 C   0  0  0  0  0  0  0  0  0  0  0  0
   -8.5461  -27.4696   33.8346 N   0  0  0  0  0  0  0  0  0  0  0  0
   -8.0325  -26.1917   33.9309 C   0  0  0  0  0  0  0  0  0  0  0  0
   -7.2902  -25.9676   32.7766 C   0  0  0  0  0  0  0  0  0  0  0  0
   -6.6421  -24.6809   32.6469 C   0  0  0  0  0  0  0  0  0  0  0  0
   -5.8759  -24.3906   31.5214 O   0  0  0  0  0  0  0  0  0  0  0  0
   -6.7977  -23.7412   33.6572 N   0  0  0  0  0  0  0  0  0  0  0  0
   -7.5284  -24.0091   34.7783 C   0  0  0  0  0  0  0  0  0  0  0  0
   -8.1437  -25.1921   34.9318 N   0  0  0  0  0  0  0  0  0  0  0  0
   -7.6502  -22.9900   35.8257 N   0  0  0  0  0  0  0  0  0  0  0  0
   -4.7419  -31.4681   25.7257 C   0  0  0  0  0  0  0  0  0  0  0  0
   -5.6586  -32.1314   25.2442 O   0  0  0  0  0  0  0  0  0  0  0  0
   -3.4565  -31.4054   25.0823 N   0  0  0  0  0  0  0  0  0  0  0  0
  1  2  2  0  0  0  0
  1  6  1  0  0  0  0
  1  7  1  0  0  0  0
  2  3  1  0  0  0  0
  3  4  2  0  0  0  0
  4  5  1  0  0  0  0
  4 20  1  0  0  0  0
  5  6  2  0  0  0  0
  7  8  1  0  0  0  0
  8  9  1  0  0  0  0
  9 10  2  0  0  0  0
  9 13  1  0  0  0  0
 10 11  1  0  0  0  0
 11 12  1  0  0  0  0
 12 13  2  0  0  0  0
 12 18  1  0  0  0  0
 13 14  1  0  0  0  0
 14 15  1  0  0  0  0
 14 16  2  0  0  0  0
 16 17  1  0  0  0  0
 17 18  2  0  0  0  0
 17 19  1  0  0  0  0
 20 21  2  0  0  0  0
 20 22  1  0  0  0  0
M  END
>  <CHROM.1>
-46.53998996,-11.63686963,153.70453674,-70.33665873,-6.33379479,-27.73202534
30.68772141,-1.20940064,0.72712608,0.63681901

>  <Name>
ligand

>  <RI>
0

>  <Rbt.Current_Directory>
/home/itssahil/PROJECTS/Mol_Feturizer/New_Systems/rnas/4LVY

>  <Rbt.Executable>
rbdock ($Id: //depot/dev/client3/rdock/2013.1/src/exe/rbdock.cxx#4 $)

>  <Rbt.Library>
libRbt.so (2013.1, Build901 2013/11/27)

>  <Rbt.Parameter_File>
/export/apps/rDock/src/rDock_2013.1_src/data/scripts/dock_solv.prm

>  <Rbt.Receptor>
prm/blind_docking_60.prm

>  <SCORE>
-16.3652

>  <SCORE.INTER>
-17.6886

>  <SCORE.INTER.CONST>
1

>  <SCORE.INTER.POLAR>
0

>  <SCORE.INTER.ROT>
4

>  <SCORE.INTER.SOLV>
12.7078

>  <SCORE.INTER.VDW>
-22.295

>  <SCORE.INTER.norm>
-0.804027

>  <SCORE.INTRA>
1.29177

>  <SCORE.INTRA.DIHEDRAL>
2.54325

>  <SCORE.INTRA.DIHEDRAL.0>
6.18831

>  <SCORE.INTRA.POLAR>
0

>  <SCORE.INTRA.POLAR.0>
0

>  <SCORE.INTRA.REPUL>
0

>  <SCORE.INTRA.REPUL.0>
0

>  <SCORE.INTRA.SOLV>
0.0894418

>  <SCORE.INTRA.SOLV.lig_0>
-44.3465

>  <SCORE.INTRA.VDW>
-0.0245704

>  <SCORE.INTRA.VDW.0>
-0.778272

>  <SCORE.INTRA.norm>
0.058717

>  <SCORE.RESTR>
0.0316324

>  <SCORE.RESTR.CAVITY>
0.0316324

>  <SCORE.RESTR.norm>
0.00143784

>  <SCORE.SYSTEM>
0

>  <SCORE.SYSTEM.CONST>
0

>  <SCORE.SYSTEM.DIHEDRAL>
0

>  <SCORE.SYSTEM.SOLV>
0

>  <SCORE.SYSTEM.norm>
0

>  <SCORE.heavy>
22

>  <SCORE.norm>
-0.743872

>  <RMSD>
33.903

$$$$
ligand
 OpenBabel11021811503D
libRbt.so/2013.1/901 2013/11/27
 22 24  0  0  0  0  0  0  0  0999 V2000
   -1.9629  -29.9485   26.6519 C   0  0  0  0  0  0  0  0  0  0  0  0
   -1.5435  -31.1254   25.9965 C   0  0  0  0  0  0  0  0  0  0  0  0
   -0.1937  -31.3012   25.7041 C   0  0  0  0  0  0  0  0  0  0  0  0
    0.7285  -30.3037   26.0657 C   0  0  0  0  0  0  0  0  0  0  0  0
    0.3075  -29.1173   26.7153 C   0  0  0  0  0  0  0  0  0  0  0  0
   -1.0389  -28.9435   27.0053 C   0  0  0  0  0  0  0  0  0  0  0  0
   -3.4554  -29.7304   26.9666 C   0  0  0  0  0  0  0  0  0  0  0  0
   -3.7774  -29.4648   28.4584 C   0  0  0  0  0  0  0  0  0  0  0  0
   -5.2591  -29.5794   28.7977 C   0  0  0  0  0  0  0  0  0  0  0  0
   -6.0687  -30.6499   28.4057 C   0  0  0  0  0  0  0  0  0  0  0  0
   -7.3122  -30.4027   28.8942 N   0  0  0  0  0  0  0  0  0  0  0  0
   -7.3737  -29.2154   29.5961 C   0  0  0  0  0  0  0  0  0  0  0  0
   -6.0989  -28.6611   29.5633 C   0  0  0  0  0  0  0  0  0  0  0  0
   -5.9092  -27.3987   30.2435 C   0  0  0  0  0  0  0  0  0  0  0  0
   -4.6572  -26.7900   30.2586 O   0  0  0  0  0  0  0  0  0  0  0  0
   -6.9919  -26.8031   30.8767 N   0  0  0  0  0  0  0  0  0  0  0  0
   -8.2243  -27.3893   30.8915 C   0  0  0  0  0  0  0  0  0  0  0  0
   -8.4365  -28.5601   30.2703 N   0  0  0  0  0  0  0  0  0  0  0  0
   -9.3334  -26.7293   31.5878 N   0  0  0  0  0  0  0  0  0  0  0  0
    2.1813  -30.5174   25.7327 C   0  0  0  0  0  0  0  0  0  0  0  0
    3.0307  -30.4817   26.6211 O   0  0  0  0  0  0  0  0  0  0  0  0
    2.5524  -30.7556   24.3632 N   0  0  0  0  0  0  0  0  0  0  0  0
  1  2  2  0  0  0  0
  1  6  1  0  0  0  0
  1  7  1  0  0  0  0
  2  3  1  0  0  0  0
  3  4  2  0  0  0  0
  4  5  1  0  0  0  0
  4 20  1  0  0  0  0
  5  6  2  0  0  0  0
  7  8  1  0  0  0  0
  8  9  1  0  0  0  0
  9 10  2  0  0  0  0
  9 13  1  0  0  0  0
 10 11  1  0  0  0  0
 11 12  1  0  0  0  0
 12 13  2  0  0  0  0
 12 18  1  0  0  0  0
 13 14  1  0  0  0  0
 14 15  1  0  0  0  0
 14 16  2  0  0  0  0
 16 17  1  0  0  0  0
 17 18  2  0  0  0  0
 17 19  1  0  0  0  0
 20 21  2  0  0  0  0
 20 22  1  0  0  0  0
M  END
>  <CHROM.1>
124.17071813,-123.57683171,-166.34598080,48.20925939,-3.58763404,-29.23232501
28.20383624,0.47184841,-0.24989542,-2.52098864

>  <Name>
ligand

>  <RI>
0

>  <Rbt.Current_Directory>
/home/itssahil/PROJECTS/Mol_Feturizer/New_Systems/rnas/4LVY

>  <Rbt.Executable>
rbdock ($Id: //depot/dev/client3/rdock/2013.1/src/exe/rbdock.cxx#4 $)

>  <Rbt.Library>
libRbt.so (2013.1, Build901 2013/11/27)

>  <Rbt.Parameter_File>
/export/apps/rDock/src/rDock_2013.1_src/data/scripts/dock_solv.prm

>  <Rbt.Receptor>
prm/blind_docking_60.prm

>  <SCORE>
-21.0165

>  <SCORE.INTER>
-21.2435

>  <SCORE.INTER.CONST>
1

>  <SCORE.INTER.POLAR>
0

>  <SCORE.INTER.ROT>
4

>  <SCORE.INTER.SOLV>
14.9631

>  <SCORE.INTER.VDW>
-25.4167

>  <SCORE.INTER.norm>
-0.965614

>  <SCORE.INTRA>
0.227033

>  <SCORE.INTRA.DIHEDRAL>
0.748514

>  <SCORE.INTRA.DIHEDRAL.0>
6.18831

>  <SCORE.INTRA.POLAR>
0

>  <SCORE.INTRA.POLAR.0>
0

>  <SCORE.INTRA.REPUL>
0

>  <SCORE.INTRA.REPUL.0>
0

>  <SCORE.INTRA.SOLV>
0.00790981

>  <SCORE.INTRA.SOLV.lig_0>
-44.3465

>  <SCORE.INTRA.VDW>
-0.151178

>  <SCORE.INTRA.VDW.0>
-0.778272

>  <SCORE.INTRA.norm>
0.0103197

>  <SCORE.RESTR>
0

>  <SCORE.RESTR.CAVITY>
0

>  <SCORE.RESTR.norm>
0

>  <SCORE.SYSTEM>
0

>  <SCORE.SYSTEM.CONST>
0

>  <SCORE.SYSTEM.DIHEDRAL>
0

>  <SCORE.SYSTEM.SOLV>
0

>  <SCORE.SYSTEM.norm>
0

>  <SCORE.heavy>
22

>  <SCORE.norm>
-0.955295

>  <RMSD>
33.923

$$$$
ligand
 OpenBabel11021811503D
libRbt.so/2013.1/901 2013/11/27
 22 24  0  0  0  0  0  0  0  0999 V2000
   -5.3239  -29.2428   29.4598 C   0  0  0  0  0  0  0  0  0  0  0  0
   -6.3516  -29.9386   28.7887 C   0  0  0  0  0  0  0  0  0  0  0  0
   -6.0561  -30.6335   27.6191 C   0  0  0  0  0  0  0  0  0  0  0  0
   -4.7397  -30.6298   27.1256 C   0  0  0  0  0  0  0  0  0  0  0  0
   -3.7088  -29.9239   27.7933 C   0  0  0  0  0  0  0  0  0  0  0  0
   -4.0057  -29.2310   28.9590 C   0  0  0  0  0  0  0  0  0  0  0  0
   -5.6380  -28.4541   30.7456 C   0  0  0  0  0  0  0  0  0  0  0  0
   -6.0656  -26.9820   30.5222 C   0  0  0  0  0  0  0  0  0  0  0  0
   -5.8802  -26.0948   31.7477 C   0  0  0  0  0  0  0  0  0  0  0  0
   -4.8493  -25.1603   31.8856 C   0  0  0  0  0  0  0  0  0  0  0  0
   -5.0164  -24.5653   33.0955 N   0  0  0  0  0  0  0  0  0  0  0  0
   -6.1123  -25.0579   33.7756 C   0  0  0  0  0  0  0  0  0  0  0  0
   -6.6905  -26.0256   32.9616 C   0  0  0  0  0  0  0  0  0  0  0  0
   -7.8726  -26.6914   33.4633 C   0  0  0  0  0  0  0  0  0  0  0  0
   -8.5086  -27.6650   32.6981 O   0  0  0  0  0  0  0  0  0  0  0  0
   -8.3602  -26.3482   34.7173 N   0  0  0  0  0  0  0  0  0  0  0  0
   -7.7651  -25.3840   35.4780 C   0  0  0  0  0  0  0  0  0  0  0  0
   -6.6666  -24.7462   35.0441 N   0  0  0  0  0  0  0  0  0  0  0  0
   -8.3269  -25.0449   36.7895 N   0  0  0  0  0  0  0  0  0  0  0  0
   -4.4492  -31.3852   25.8559 C   0  0  0  0  0  0  0  0  0  0  0  0
   -5.3720  -31.8395   25.1821 O   0  0  0  0  0  0  0  0  0  0  0  0
   -3.0798  -31.5683   25.4544 N   0  0  0  0  0  0  0  0  0  0  0  0
  1  2  2  0  0  0  0
  1  6  1  0  0  0  0
  1  7  1  0  0  0  0
  2  3  1  0  0  0  0
  3  4  2  0  0  0  0
  4  5  1  0  0  0  0
  4 20  1  0  0  0  0
  5  6  2  0  0  0  0
  7  8  1  0  0  0  0
  8  9  1  0  0  0  0
  9 10  2  0  0  0  0
  9 13  1  0  0  0  0
 10 11  1  0  0  0  0
 11 12  1  0  0  0  0
 12 13  2  0  0  0  0
 12 18  1  0  0  0  0
 13 14  1  0  0  0  0
 14 15  1  0  0  0  0
 14 16  2  0  0  0  0
 16 17  1  0  0  0  0
 17 18  2  0  0  0  0
 17 19  1  0  0  0  0
 20 21  2  0  0  0  0
 20 22  1  0  0  0  0
M  END
>  <CHROM.1>
-89.08408529,9.43433207,-158.88085351,104.66916342,-5.98552036,-27.84882992
30.88878316,1.26215165,-0.51628768,-2.33076032

>  <Name>
ligand

>  <RI>
0

>  <Rbt.Current_Directory>
/home/itssahil/PROJECTS/Mol_Feturizer/New_Systems/rnas/4LVY

>  <Rbt.Executable>
rbdock ($Id: //depot/dev/client3/rdock/2013.1/src/exe/rbdock.cxx#4 $)

>  <Rbt.Library>
libRbt.so (2013.1, Build901 2013/11/27)

>  <Rbt.Parameter_File>
/export/apps/rDock/src/rDock_2013.1_src/data/scripts/dock_solv.prm

>  <Rbt.Receptor>
prm/blind_docking_80.prm

>  <SCORE>
-22.6528

>  <SCORE.INTER>
-23.1937

>  <SCORE.INTER.CONST>
1

>  <SCORE.INTER.POLAR>
0

>  <SCORE.INTER.ROT>
4

>  <SCORE.INTER.SOLV>
10.8052

>  <SCORE.INTER.VDW>
-25.3308

>  <SCORE.INTER.norm>
-1.05426

>  <SCORE.INTRA>
0.540873

>  <SCORE.INTRA.DIHEDRAL>
1.64028

>  <SCORE.INTRA.DIHEDRAL.0>
6.18831

>  <SCORE.INTRA.POLAR>
0

>  <SCORE.INTRA.POLAR.0>
0

>  <SCORE.INTRA.REPUL>
0

>  <SCORE.INTRA.REPUL.0>
0

>  <SCORE.INTRA.SOLV>
0.229844

>  <SCORE.INTRA.SOLV.lig_0>
-44.3465

>  <SCORE.INTRA.VDW>
-0.394191

>  <SCORE.INTRA.VDW.0>
-0.778272

>  <SCORE.INTRA.norm>
0.0245851

>  <SCORE.RESTR>
0

>  <SCORE.RESTR.CAVITY>
0

>  <SCORE.RESTR.norm>
0

>  <SCORE.SYSTEM>
0

>  <SCORE.SYSTEM.CONST>
0

>  <SCORE.SYSTEM.DIHEDRAL>
0

>  <SCORE.SYSTEM.SOLV>
0

>  <SCORE.SYSTEM.norm>
0

>  <SCORE.heavy>
22

>  <SCORE.norm>
-1.02967

>  <RMSD>
33.955

$$$$
ligand
 OpenBabel11021811503D
libRbt.so/2013.1/901 2013/11/27
 22 24  0  0  0  0  0  0  0  0999 V2000
   -5.4193  -29.2057   29.5181 C   0  0  0  0  0  0  0  0  0  0  0  0
   -6.5027  -29.8973   28.9363 C   0  0  0  0  0  0  0  0  0  0  0  0
   -6.3029  -30.6164   27.7610 C   0  0  0  0  0  0  0  0  0  0  0  0
   -5.0261  -30.6409   27.1732 C   0  0  0  0  0  0  0  0  0  0  0  0
   -3.9397  -29.9392   27.7512 C   0  0  0  0  0  0  0  0  0  0  0  0
   -4.1411  -29.2222   28.9227 C   0  0  0  0  0  0  0  0  0  0  0  0
   -5.6280  -28.3905   30.8089 C   0  0  0  0  0  0  0  0  0  0  0  0
   -5.6702  -26.8544   30.6129 C   0  0  0  0  0  0  0  0  0  0  0  0
   -5.7882  -26.0711   31.9153 C   0  0  0  0  0  0  0  0  0  0  0  0
   -4.8907  -25.0744   32.3102 C   0  0  0  0  0  0  0  0  0  0  0  0
   -5.3237  -24.6077   33.5105 N   0  0  0  0  0  0  0  0  0  0  0  0
   -6.4708  -25.2457   33.9387 C   0  0  0  0  0  0  0  0  0  0  0  0
   -6.8025  -26.1777   32.9615 C   0  0  0  0  0  0  0  0  0  0  0  0
   -7.9863  -26.9781   33.1859 C   0  0  0  0  0  0  0  0  0  0  0  0
   -8.3828  -27.9249   32.2455 O   0  0  0  0  0  0  0  0  0  0  0  0
   -8.7174  -26.7908   34.3514 N   0  0  0  0  0  0  0  0  0  0  0  0
   -8.3593  -25.8562   35.2792 C   0  0  0  0  0  0  0  0  0  0  0  0
   -7.2668  -25.0963   35.1038 N   0  0  0  0  0  0  0  0  0  0  0  0
   -9.1729  -25.6841   36.4871 N   0  0  0  0  0  0  0  0  0  0  0  0
   -4.8394  -31.4221   25.8995 C   0  0  0  0  0  0  0  0  0  0  0  0
   -3.7138  -31.5778   25.4295 O   0  0  0  0  0  0  0  0  0  0  0  0
   -5.9970  -31.9723   25.2459 N   0  0  0  0  0  0  0  0  0  0  0  0
  1  2  2  0  0  0  0
  1  6  1  0  0  0  0
  1  7  1  0  0  0  0
  2  3  1  0  0  0  0
  3  4  2  0  0  0  0
  4  5  1  0  0  0  0
  4 20  1  0  0  0  0
  5  6  2  0  0  0  0
  7  8  1  0  0  0  0
  8  9  1  0  0  0  0
  9 10  2  0  0  0  0
  9 13  1  0  0  0  0
 10 11  1  0  0  0  0
 11 12  1  0  0  0  0
 12 13  2  0  0  0  0
 12 18  1  0  0  0  0
 13 14  1  0  0  0  0
 14 15  1  0  0  0  0
 14 16  2  0  0  0  0
 16 17  1  0  0  0  0
 17 18  2  0  0  0  0
 17 19  1  0  0  0  0
 20 21  2  0  0  0  0
 20 22  1  0  0  0  0
M  END
>  <CHROM.1>
-104.87926747,-172.71563158,-176.30339600,124.35377126,-6.22375700,-27.97105645
30.89201155,-1.25872752,0.50395867,0.82553534

>  <Name>
ligand

>  <RI>
0

>  <Rbt.Current_Directory>
/home/itssahil/PROJECTS/Mol_Feturizer/New_Systems/rnas/4LVY

>  <Rbt.Executable>
rbdock ($Id: //depot/dev/client3/rdock/2013.1/src/exe/rbdock.cxx#4 $)

>  <Rbt.Library>
libRbt.so (2013.1, Build901 2013/11/27)

>  <Rbt.Parameter_File>
/export/apps/rDock/src/rDock_2013.1_src/data/scripts/dock_solv.prm

>  <Rbt.Receptor>
prm/blind_docking_100.prm

>  <SCORE>
-21.87

>  <SCORE.INTER>
-21.6698

>  <SCORE.INTER.CONST>
1

>  <SCORE.INTER.POLAR>
0

>  <SCORE.INTER.ROT>
4

>  <SCORE.INTER.SOLV>
12.0617

>  <SCORE.INTER.VDW>
-24.7338

>  <SCORE.INTER.norm>
-0.98499

>  <SCORE.INTRA>
-0.200181

>  <SCORE.INTRA.DIHEDRAL>
0.0336373

>  <SCORE.INTRA.DIHEDRAL.0>
6.18831

>  <SCORE.INTRA.POLAR>
0

>  <SCORE.INTRA.POLAR.0>
0

>  <SCORE.INTRA.REPUL>
0

>  <SCORE.INTRA.REPUL.0>
0

>  <SCORE.INTRA.SOLV>
0.324876

>  <SCORE.INTRA.SOLV.lig_0>
-44.3465

>  <SCORE.INTRA.VDW>
-0.379437

>  <SCORE.INTRA.VDW.0>
-0.778272

>  <SCORE.INTRA.norm>
-0.00909913

>  <SCORE.RESTR>
0

>  <SCORE.RESTR.CAVITY>
0

>  <SCORE.RESTR.norm>
0

>  <SCORE.SYSTEM>
0

>  <SCORE.SYSTEM.CONST>
0

>  <SCORE.SYSTEM.DIHEDRAL>
0

>  <SCORE.SYSTEM.SOLV>
0

>  <SCORE.SYSTEM.norm>
0

>  <SCORE.heavy>
22

>  <SCORE.norm>
-0.994089

>  <RMSD>
34.141

$$$$
ligand
 OpenBabel11021811503D
libRbt.so/2013.1/901 2013/11/27
 22 24  0  0  0  0  0  0  0  0999 V2000
   -6.3188  -26.2420   31.4824 C   0  0  0  0  0  0  0  0  0  0  0  0
   -5.0482  -25.6880   31.7457 C   0  0  0  0  0  0  0  0  0  0  0  0
   -4.9131  -24.7343   32.7509 C   0  0  0  0  0  0  0  0  0  0  0  0
   -6.0441  -24.3386   33.4861 C   0  0  0  0  0  0  0  0  0  0  0  0
   -7.3221  -24.8871   33.2165 C   0  0  0  0  0  0  0  0  0  0  0  0
   -7.4549  -25.8373   32.2133 C   0  0  0  0  0  0  0  0  0  0  0  0
   -6.4886  -27.2853   30.3613 C   0  0  0  0  0  0  0  0  0  0  0  0
   -5.3636  -28.3473   30.2802 C   0  0  0  0  0  0  0  0  0  0  0  0
   -5.5806  -29.3911   29.1907 C   0  0  0  0  0  0  0  0  0  0  0  0
   -6.7394  -30.1643   29.0706 C   0  0  0  0  0  0  0  0  0  0  0  0
   -6.5666  -30.9673   27.9884 N   0  0  0  0  0  0  0  0  0  0  0  0
   -5.3449  -30.7681   27.3769 C   0  0  0  0  0  0  0  0  0  0  0  0
   -4.6880  -29.7793   28.1010 C   0  0  0  0  0  0  0  0  0  0  0  0
   -3.3718  -29.3897   27.6446 C   0  0  0  0  0  0  0  0  0  0  0  0
   -2.6597  -28.4002   28.3166 O   0  0  0  0  0  0  0  0  0  0  0  0
   -2.8295  -30.0178   26.5314 N   0  0  0  0  0  0  0  0  0  0  0  0
   -3.5157  -30.9773   25.8450 C   0  0  0  0  0  0  0  0  0  0  0  0
   -4.7388  -31.3638   26.2405 N   0  0  0  0  0  0  0  0  0  0  0  0
   -2.9074  -31.6004   24.6651 N   0  0  0  0  0  0  0  0  0  0  0  0
   -5.8703  -23.3016   34.5640 C   0  0  0  0  0  0  0  0  0  0  0  0
   -6.8508  -22.7237   35.0294 O   0  0  0  0  0  0  0  0  0  0  0  0
   -4.5429  -22.9988   35.0292 N   0  0  0  0  0  0  0  0  0  0  0  0
  1  2  2  0  0  0  0
  1  6  1  0  0  0  0
  1  7  1  0  0  0  0
  2  3  1  0  0  0  0
  3  4  2  0  0  0  0
  4  5  1  0  0  0  0
  4 20  1  0  0  0  0
  5  6  2  0  0  0  0
  7  8  1  0  0  0  0
  8  9  1  0  0  0  0
  9 10  2  0  0  0  0
  9 13  1  0  0  0  0
 10 11  1  0  0  0  0
 11 12  1  0  0  0  0
 12 13  2  0  0  0  0
 12 18  1  0  0  0  0
 13 14  1  0  0  0  0
 14 15  1  0  0  0  0
 14 16  2  0  0  0  0
 16 17  1  0  0  0  0
 17 18  2  0  0  0  0
 17 19  1  0  0  0  0
 20 21  2  0  0  0  0
 20 22  1  0  0  0  0
M  END
>  <CHROM.1>
41.62233157,164.48051034,178.18494536,-54.27336659,-5.19892094,-27.69271169
30.03199879,1.77667435,0.32395670,0.75484230

>  <Name>
ligand

>  <RI>
0

>  <Rbt.Current_Directory>
/home/itssahil/PROJECTS/Mol_Feturizer/New_Systems/rnas/4LVY

>  <Rbt.Executable>
rbdock ($Id: //depot/dev/client3/rdock/2013.1/src/exe/rbdock.cxx#4 $)

>  <Rbt.Library>
libRbt.so (2013.1, Build901 2013/11/27)

>  <Rbt.Parameter_File>
/export/apps/rDock/src/rDock_2013.1_src/data/scripts/dock_solv.prm

>  <Rbt.Receptor>
prm/blind_docking_80.prm

>  <SCORE>
-17.0527

>  <SCORE.INTER>
-17.2271

>  <SCORE.INTER.CONST>
1

>  <SCORE.INTER.POLAR>
0

>  <SCORE.INTER.ROT>
4

>  <SCORE.INTER.SOLV>
21.6822

>  <SCORE.INTER.VDW>
-24.9788

>  <SCORE.INTER.norm>
-0.78305

>  <SCORE.INTRA>
0.168995

>  <SCORE.INTRA.DIHEDRAL>
-0.0389001

>  <SCORE.INTRA.DIHEDRAL.0>
6.18831

>  <SCORE.INTRA.POLAR>
0

>  <SCORE.INTRA.POLAR.0>
0

>  <SCORE.INTRA.REPUL>
0

>  <SCORE.INTRA.REPUL.0>
0

>  <SCORE.INTRA.SOLV>
0.0379567

>  <SCORE.INTRA.SOLV.lig_0>
-44.3465

>  <SCORE.INTRA.VDW>
0.169466

>  <SCORE.INTRA.VDW.0>
-0.778272

>  <SCORE.INTRA.norm>
0.00768157

>  <SCORE.RESTR>
0.00542126

>  <SCORE.RESTR.CAVITY>
0.00542126

>  <SCORE.RESTR.norm>
0.000246421

>  <SCORE.SYSTEM>
0

>  <SCORE.SYSTEM.CONST>
0

>  <SCORE.SYSTEM.DIHEDRAL>
0

>  <SCORE.SYSTEM.SOLV>
0

>  <SCORE.SYSTEM.norm>
0

>  <SCORE.heavy>
22

>  <SCORE.norm>
-0.775122

>  <RMSD>
34.160

$$$$
ligand
 OpenBabel11021811503D
libRbt.so/2013.1/901 2013/11/27
 22 24  0  0  0  0  0  0  0  0999 V2000
   -1.8178  -29.6355   26.7454 C   0  0  0  0  0  0  0  0  0  0  0  0
   -1.9739  -30.8898   26.1184 C   0  0  0  0  0  0  0  0  0  0  0  0
   -0.8608  -31.5264   25.5762 C   0  0  0  0  0  0  0  0  0  0  0  0
    0.3994  -30.9093   25.6614 C   0  0  0  0  0  0  0  0  0  0  0  0
    0.5561  -29.6456   26.2823 C   0  0  0  0  0  0  0  0  0  0  0  0
   -0.5552  -29.0121   26.8217 C   0  0  0  0  0  0  0  0  0  0  0  0
   -3.0424  -28.9095   27.3346 C   0  0  0  0  0  0  0  0  0  0  0  0
   -3.5165  -29.4381   28.7114 C   0  0  0  0  0  0  0  0  0  0  0  0
   -5.0232  -29.6504   28.8032 C   0  0  0  0  0  0  0  0  0  0  0  0
   -5.6910  -30.7494   28.2545 C   0  0  0  0  0  0  0  0  0  0  0  0
   -7.0096  -30.5930   28.5426 N   0  0  0  0  0  0  0  0  0  0  0  0
   -7.2567  -29.4393   29.2596 C   0  0  0  0  0  0  0  0  0  0  0  0
   -6.0303  -28.8121   29.4495 C   0  0  0  0  0  0  0  0  0  0  0  0
   -6.0312  -27.5683   30.1880 C   0  0  0  0  0  0  0  0  0  0  0  0
   -4.8384  -26.8900   30.4230 O   0  0  0  0  0  0  0  0  0  0  0  0
   -7.2363  -27.0607   30.6549 N   0  0  0  0  0  0  0  0  0  0  0  0
   -8.4160  -27.7167   30.4532 C   0  0  0  0  0  0  0  0  0  0  0  0
   -8.4525  -28.8727   29.7720 N   0  0  0  0  0  0  0  0  0  0  0  0
   -9.6613  -27.1488   30.9800 N   0  0  0  0  0  0  0  0  0  0  0  0
    1.5853  -31.6176   25.0620 C   0  0  0  0  0  0  0  0  0  0  0  0
    1.5693  -31.9582   23.8806 O   0  0  0  0  0  0  0  0  0  0  0  0
    2.7255  -31.8910   25.8957 N   0  0  0  0  0  0  0  0  0  0  0  0
  1  2  2  0  0  0  0
  1  6  1  0  0  0  0
  1  7  1  0  0  0  0
  2  3  1  0  0  0  0
  3  4  2  0  0  0  0
  4  5  1  0  0  0  0
  4 20  1  0  0  0  0
  5  6  2  0  0  0  0
  7  8  1  0  0  0  0
  8  9  1  0  0  0  0
  9 10  2  0  0  0  0
  9 13  1  0  0  0  0
 10 11  1  0  0  0  0
 11 12  1  0  0  0  0
 12 13  2  0  0  0  0
 12 18  1  0  0  0  0
 13 14  1  0  0  0  0
 14 15  1  0  0  0  0
 14 16  2  0  0  0  0
 16 17  1  0  0  0  0
 17 18  2  0  0  0  0
 17 19  1  0  0  0  0
 20 21  2  0  0  0  0
 20 22  1  0  0  0  0
M  END
>  <CHROM.1>
78.69753939,55.53459973,-133.66231182,77.86755426,-3.67964493,-29.51902700
27.97002773,-0.53236597,0.25204603,0.59617947

>  <Name>
ligand

>  <RI>
0

>  <Rbt.Current_Directory>
/home/itssahil/PROJECTS/Mol_Feturizer/New_Systems/rnas/4LVY

>  <Rbt.Executable>
rbdock ($Id: //depot/dev/client3/rdock/2013.1/src/exe/rbdock.cxx#4 $)

>  <Rbt.Library>
libRbt.so (2013.1, Build901 2013/11/27)

>  <Rbt.Parameter_File>
/export/apps/rDock/src/rDock_2013.1_src/data/scripts/dock_solv.prm

>  <Rbt.Receptor>
prm/blind_docking_60.prm

>  <SCORE>
-20.2947

>  <SCORE.INTER>
-22.4811

>  <SCORE.INTER.CONST>
1

>  <SCORE.INTER.POLAR>
0

>  <SCORE.INTER.ROT>
4

>  <SCORE.INTER.SOLV>
14.8595

>  <SCORE.INTER.VDW>
-26.2072

>  <SCORE.INTER.norm>
-1.02187

>  <SCORE.INTRA>
2.18633

>  <SCORE.INTRA.DIHEDRAL>
5.46994

>  <SCORE.INTRA.DIHEDRAL.0>
6.18831

>  <SCORE.INTRA.POLAR>
0

>  <SCORE.INTRA.POLAR.0>
0

>  <SCORE.INTRA.REPUL>
0

>  <SCORE.INTRA.REPUL.0>
0

>  <SCORE.INTRA.SOLV>
0.103802

>  <SCORE.INTRA.SOLV.lig_0>
-44.3465

>  <SCORE.INTRA.VDW>
-0.600536

>  <SCORE.INTRA.VDW.0>
-0.778272

>  <SCORE.INTRA.norm>
0.0993788

>  <SCORE.RESTR>
0

>  <SCORE.RESTR.CAVITY>
0

>  <SCORE.RESTR.norm>
0

>  <SCORE.SYSTEM>
0

>  <SCORE.SYSTEM.CONST>
0

>  <SCORE.SYSTEM.DIHEDRAL>
0

>  <SCORE.SYSTEM.SOLV>
0

>  <SCORE.SYSTEM.norm>
0

>  <SCORE.heavy>
22

>  <SCORE.norm>
-0.922487

>  <RMSD>
34.166

$$$$
ligand
 OpenBabel11021811503D
libRbt.so/2013.1/901 2013/11/27
 22 24  0  0  0  0  0  0  0  0999 V2000
   -4.2977  -29.9258   27.8639 C   0  0  0  0  0  0  0  0  0  0  0  0
   -3.3116  -29.1000   28.4438 C   0  0  0  0  0  0  0  0  0  0  0  0
   -2.0325  -29.0737   27.8947 C   0  0  0  0  0  0  0  0  0  0  0  0
   -1.7443  -29.8703   26.7728 C   0  0  0  0  0  0  0  0  0  0  0  0
   -2.7308  -30.7071   26.1953 C   0  0  0  0  0  0  0  0  0  0  0  0
   -4.0054  -30.7325   26.7448 C   0  0  0  0  0  0  0  0  0  0  0  0
   -5.7131  -29.9801   28.4704 C   0  0  0  0  0  0  0  0  0  0  0  0
   -5.9684  -28.9803   29.6259 C   0  0  0  0  0  0  0  0  0  0  0  0
   -7.4448  -28.7013   29.8829 C   0  0  0  0  0  0  0  0  0  0  0  0
   -8.4688  -29.0371   28.9921 C   0  0  0  0  0  0  0  0  0  0  0  0
   -9.6351  -28.6402   29.5650 N   0  0  0  0  0  0  0  0  0  0  0  0
   -9.4402  -28.0535   30.7995 C   0  0  0  0  0  0  0  0  0  0  0  0
   -8.0713  -28.0718   31.0430 C   0  0  0  0  0  0  0  0  0  0  0  0
   -7.6149  -27.5075   32.2943 C   0  0  0  0  0  0  0  0  0  0  0  0
   -6.2586  -27.4997   32.6081 O   0  0  0  0  0  0  0  0  0  0  0  0
   -8.5466  -26.9724   33.1738 N   0  0  0  0  0  0  0  0  0  0  0  0
   -9.8829  -26.9853   32.8969 C   0  0  0  0  0  0  0  0  0  0  0  0
  -10.3417  -27.5003   31.7454 N   0  0  0  0  0  0  0  0  0  0  0  0
  -10.8300  -26.4228   33.8650 N   0  0  0  0  0  0  0  0  0  0  0  0
   -0.3514  -29.8265   26.2025 C   0  0  0  0  0  0  0  0  0  0  0  0
    0.2852  -28.7745   26.2067 O   0  0  0  0  0  0  0  0  0  0  0  0
    0.2117  -31.0302   25.6511 N   0  0  0  0  0  0  0  0  0  0  0  0
  1  2  2  0  0  0  0
  1  6  1  0  0  0  0
  1  7  1  0  0  0  0
  2  3  1  0  0  0  0
  3  4  2  0  0  0  0
  4  5  1  0  0  0  0
  4 20  1  0  0  0  0
  5  6  2  0  0  0  0
  7  8  1  0  0  0  0
  8  9  1  0  0  0  0
  9 10  2  0  0  0  0
  9 13  1  0  0  0  0
 10 11  1  0  0  0  0
 11 12  1  0  0  0  0
 12 13  2  0  0  0  0
 12 18  1  0  0  0  0
 13 14  1  0  0  0  0
 14 15  1  0  0  0  0
 14 16  2  0  0  0  0
 16 17  1  0  0  0  0
 17 18  2  0  0  0  0
 17 19  1  0  0  0  0
 20 21  2  0  0  0  0
 20 22  1  0  0  0  0
M  END
>  <CHROM.1>
5.77064846,-35.36381836,159.96651801,-14.63248376,-5.73385402,-28.75846523
29.44985403,0.64642338,-0.10558447,-2.13141632

>  <Name>
ligand

>  <RI>
0

>  <Rbt.Current_Directory>
/home/itssahil/PROJECTS/Mol_Feturizer/New_Systems/rnas/4LVY

>  <Rbt.Executable>
rbdock ($Id: //depot/dev/client3/rdock/2013.1/src/exe/rbdock.cxx#4 $)

>  <Rbt.Library>
libRbt.so (2013.1, Build901 2013/11/27)

>  <Rbt.Parameter_File>
/export/apps/rDock/src/rDock_2013.1_src/data/scripts/dock_solv.prm

>  <Rbt.Receptor>
prm/blind_docking_80.prm

>  <SCORE>
-20.25

>  <SCORE.INTER>
-21.9387

>  <SCORE.INTER.CONST>
1

>  <SCORE.INTER.POLAR>
0

>  <SCORE.INTER.ROT>
4

>  <SCORE.INTER.SOLV>
9.07501

>  <SCORE.INTER.VDW>
-23.9175

>  <SCORE.INTER.norm>
-0.997216

>  <SCORE.INTRA>
1.68871

>  <SCORE.INTRA.DIHEDRAL>
1.58267

>  <SCORE.INTRA.DIHEDRAL.0>
6.18831

>  <SCORE.INTRA.POLAR>
0

>  <SCORE.INTRA.POLAR.0>
0

>  <SCORE.INTRA.REPUL>
0

>  <SCORE.INTRA.REPUL.0>
0

>  <SCORE.INTRA.SOLV>
0.00252026

>  <SCORE.INTRA.SOLV.lig_0>
-44.3465

>  <SCORE.INTRA.VDW>
0.896114

>  <SCORE.INTRA.VDW.0>
-0.778272

>  <SCORE.INTRA.norm>
0.0767595

>  <SCORE.RESTR>
0

>  <SCORE.RESTR.CAVITY>
0

>  <SCORE.RESTR.norm>
0

>  <SCORE.SYSTEM>
0

>  <SCORE.SYSTEM.CONST>
0

>  <SCORE.SYSTEM.DIHEDRAL>
0

>  <SCORE.SYSTEM.SOLV>
0

>  <SCORE.SYSTEM.norm>
0

>  <SCORE.heavy>
22

>  <SCORE.norm>
-0.920456

>  <RMSD>
34.229

$$$$
ligand
 OpenBabel11021811503D
libRbt.so/2013.1/901 2013/11/27
 22 24  0  0  0  0  0  0  0  0999 V2000
   -1.4039  -29.4930   26.6206 C   0  0  0  0  0  0  0  0  0  0  0  0
   -1.6357  -30.7989   26.1396 C   0  0  0  0  0  0  0  0  0  0  0  0
   -0.5773  -31.5287   25.6054 C   0  0  0  0  0  0  0  0  0  0  0  0
    0.7040  -30.9526   25.5531 C   0  0  0  0  0  0  0  0  0  0  0  0
    0.9362  -29.6379   26.0270 C   0  0  0  0  0  0  0  0  0  0  0  0
   -0.1206  -28.9116   26.5587 C   0  0  0  0  0  0  0  0  0  0  0  0
   -2.5681  -28.6654   27.1984 C   0  0  0  0  0  0  0  0  0  0  0  0
   -3.1704  -29.2144   28.5159 C   0  0  0  0  0  0  0  0  0  0  0  0
   -4.6369  -29.6143   28.4022 C   0  0  0  0  0  0  0  0  0  0  0  0
   -5.0980  -30.6729   27.6138 C   0  0  0  0  0  0  0  0  0  0  0  0
   -6.4464  -30.7239   27.7725 N   0  0  0  0  0  0  0  0  0  0  0  0
   -6.9109  -29.7479   28.6314 C   0  0  0  0  0  0  0  0  0  0  0  0
   -5.8024  -29.0235   29.0558 C   0  0  0  0  0  0  0  0  0  0  0  0
   -6.0380  -27.9342   29.9779 C   0  0  0  0  0  0  0  0  0  0  0  0
   -4.9737  -27.1715   30.4509 O   0  0  0  0  0  0  0  0  0  0  0  0
   -7.3381  -27.6592   30.3807 N   0  0  0  0  0  0  0  0  0  0  0  0
   -8.3955  -28.4042   29.9454 C   0  0  0  0  0  0  0  0  0  0  0  0
   -8.2138  -29.4219   29.0893 N   0  0  0  0  0  0  0  0  0  0  0  0
   -9.7487  -28.0853   30.4120 N   0  0  0  0  0  0  0  0  0  0  0  0
    1.8294  -31.7622   24.9655 C   0  0  0  0  0  0  0  0  0  0  0  0
    2.9932  -31.5250   25.2840 O   0  0  0  0  0  0  0  0  0  0  0  0
    1.5173  -32.8062   24.0260 N   0  0  0  0  0  0  0  0  0  0  0  0
  1  2  2  0  0  0  0
  1  6  1  0  0  0  0
  1  7  1  0  0  0  0
  2  3  1  0  0  0  0
  3  4  2  0  0  0  0
  4  5  1  0  0  0  0
  4 20  1  0  0  0  0
  5  6  2  0  0  0  0
  7  8  1  0  0  0  0
  8  9  1  0  0  0  0
  9 10  2  0  0  0  0
  9 13  1  0  0  0  0
 10 11  1  0  0  0  0
 11 12  1  0  0  0  0
 12 13  2  0  0  0  0
 12 18  1  0  0  0  0
 13 14  1  0  0  0  0
 14 15  1  0  0  0  0
 14 16  2  0  0  0  0
 16 17  1  0  0  0  0
 17 18  2  0  0  0  0
 17 19  1  0  0  0  0
 20 21  2  0  0  0  0
 20 22  1  0  0  0  0
M  END
>  <CHROM.1>
66.44887227,-155.67550595,-117.86569924,66.05274820,-3.43013587,-29.69573462
27.67979775,-0.48719882,0.22775169,0.62480998

>  <Name>
ligand

>  <RI>
0

>  <Rbt.Current_Directory>
/home/itssahil/PROJECTS/Mol_Feturizer/New_Systems/rnas/4LVY

>  <Rbt.Executable>
rbdock ($Id: //depot/dev/client3/rdock/2013.1/src/exe/rbdock.cxx#4 $)

>  <Rbt.Library>
libRbt.so (2013.1, Build901 2013/11/27)

>  <Rbt.Parameter_File>
/export/apps/rDock/src/rDock_2013.1_src/data/scripts/dock_solv.prm

>  <Rbt.Receptor>
prm/blind_docking_60.prm

>  <SCORE>
-20.6975

>  <SCORE.INTER>
-23.4084

>  <SCORE.INTER.CONST>
1

>  <SCORE.INTER.POLAR>
0

>  <SCORE.INTER.ROT>
4

>  <SCORE.INTER.SOLV>
12.7856

>  <SCORE.INTER.VDW>
-26.1341

>  <SCORE.INTER.norm>
-1.06402

>  <SCORE.INTRA>
2.70899

>  <SCORE.INTRA.DIHEDRAL>
6.18168

>  <SCORE.INTRA.DIHEDRAL.0>
6.18831

>  <SCORE.INTRA.POLAR>
0

>  <SCORE.INTRA.POLAR.0>
0

>  <SCORE.INTRA.REPUL>
0

>  <SCORE.INTRA.REPUL.0>
0

>  <SCORE.INTRA.SOLV>
0.07186

>  <SCORE.INTRA.SOLV.lig_0>
-44.3465

>  <SCORE.INTRA.VDW>
-0.417774

>  <SCORE.INTRA.VDW.0>
-0.778272

>  <SCORE.INTRA.norm>
0.123136

>  <SCORE.RESTR>
0.00187392

>  <SCORE.RESTR.CAVITY>
0.00187392

>  <SCORE.RESTR.norm>
8.51782e-05

>  <SCORE.SYSTEM>
0

>  <SCORE.SYSTEM.CONST>
0

>  <SCORE.SYSTEM.DIHEDRAL>
0

>  <SCORE.SYSTEM.SOLV>
0

>  <SCORE.SYSTEM.norm>
0

>  <SCORE.heavy>
22

>  <SCORE.norm>
-0.940795

>  <RMSD>
34.239

$$$$
ligand
 OpenBabel11021811503D
libRbt.so/2013.1/901 2013/11/27
 22 24  0  0  0  0  0  0  0  0999 V2000
   -5.6506  -29.4797   29.9714 C   0  0  0  0  0  0  0  0  0  0  0  0
   -6.4373  -30.2864   29.1224 C   0  0  0  0  0  0  0  0  0  0  0  0
   -5.8985  -30.7462   27.9238 C   0  0  0  0  0  0  0  0  0  0  0  0
   -4.5807  -30.3987   27.5790 C   0  0  0  0  0  0  0  0  0  0  0  0
   -3.7929  -29.5809   28.4261 C   0  0  0  0  0  0  0  0  0  0  0  0
   -4.3322  -29.1229   29.6204 C   0  0  0  0  0  0  0  0  0  0  0  0
   -6.2381  -28.9479   31.2929 C   0  0  0  0  0  0  0  0  0  0  0  0
   -6.9652  -27.5844   31.1838 C   0  0  0  0  0  0  0  0  0  0  0  0
   -7.7610  -27.2103   32.4289 C   0  0  0  0  0  0  0  0  0  0  0  0
   -9.1162  -27.5052   32.6064 C   0  0  0  0  0  0  0  0  0  0  0  0
   -9.4670  -27.0245   33.8279 N   0  0  0  0  0  0  0  0  0  0  0  0
   -8.4091  -26.4207   34.4778 C   0  0  0  0  0  0  0  0  0  0  0  0
   -7.3092  -26.5159   33.6324 C   0  0  0  0  0  0  0  0  0  0  0  0
   -6.0636  -25.9499   34.1020 C   0  0  0  0  0  0  0  0  0  0  0  0
   -4.9196  -26.0166   33.3115 O   0  0  0  0  0  0  0  0  0  0  0  0
   -6.0267  -25.3381   35.3479 N   0  0  0  0  0  0  0  0  0  0  0  0
   -7.1301  -25.2768   36.1487 C   0  0  0  0  0  0  0  0  0  0  0  0
   -8.3024  -25.7911   35.7450 N   0  0  0  0  0  0  0  0  0  0  0  0
   -7.0375  -24.6346   37.4638 N   0  0  0  0  0  0  0  0  0  0  0  0
   -4.0249  -30.9052   26.2744 C   0  0  0  0  0  0  0  0  0  0  0  0
   -4.7207  -31.5970   25.5333 O   0  0  0  0  0  0  0  0  0  0  0  0
   -2.6713  -30.5710   25.9195 N   0  0  0  0  0  0  0  0  0  0  0  0
  1  2  2  0  0  0  0
  1  6  1  0  0  0  0
  1  7  1  0  0  0  0
  2  3  1  0  0  0  0
  3  4  2  0  0  0  0
  4  5  1  0  0  0  0
  4 20  1  0  0  0  0
  5  6  2  0  0  0  0
  7  8  1  0  0  0  0
  8  9  1  0  0  0  0
  9 10  2  0  0  0  0
  9 13  1  0  0  0  0
 10 11  1  0  0  0  0
 11 12  1  0  0  0  0
 12 13  2  0  0  0  0
 12 18  1  0  0  0  0
 13 14  1  0  0  0  0
 14 15  1  0  0  0  0
 14 16  2  0  0  0  0
 16 17  1  0  0  0  0
 17 18  2  0  0  0  0
 17 19  1  0  0  0  0
 20 21  2  0  0  0  0
 20 22  1  0  0  0  0
M  END
>  <CHROM.1>
-89.10195722,0.52778558,168.90511865,-92.65331152,-6.20376102,-28.01785942
31.46923386,1.25553564,-0.19290809,-2.17067587

>  <Name>
ligand

>  <RI>
0

>  <Rbt.Current_Directory>
/home/itssahil/PROJECTS/Mol_Feturizer/New_Systems/rnas/4LVY

>  <Rbt.Executable>
rbdock ($Id: //depot/dev/client3/rdock/2013.1/src/exe/rbdock.cxx#4 $)

>  <Rbt.Library>
libRbt.so (2013.1, Build901 2013/11/27)

>  <Rbt.Parameter_File>
/export/apps/rDock/src/rDock_2013.1_src/data/scripts/dock_solv.prm

>  <Rbt.Receptor>
prm/blind_docking_80.prm

>  <SCORE>
-20.6659

>  <SCORE.INTER>
-20.6625

>  <SCORE.INTER.CONST>
1

>  <SCORE.INTER.POLAR>
0

>  <SCORE.INTER.ROT>
4

>  <SCORE.INTER.SOLV>
8.86953

>  <SCORE.INTER.VDW>
-22.9982

>  <SCORE.INTER.norm>
-0.939207

>  <SCORE.INTRA>
-0.00331912

>  <SCORE.INTRA.DIHEDRAL>
0.422834

>  <SCORE.INTRA.DIHEDRAL.0>
6.18831

>  <SCORE.INTRA.POLAR>
0

>  <SCORE.INTRA.POLAR.0>
0

>  <SCORE.INTRA.REPUL>
0

>  <SCORE.INTRA.REPUL.0>
0

>  <SCORE.INTRA.SOLV>
0.180275

>  <SCORE.INTRA.SOLV.lig_0>
-44.3465

>  <SCORE.INTRA.VDW>
-0.304873

>  <SCORE.INTRA.VDW.0>
-0.778272

>  <SCORE.INTRA.norm>
-0.000150869

>  <SCORE.RESTR>
0

>  <SCORE.RESTR.CAVITY>
0

>  <SCORE.RESTR.norm>
0

>  <SCORE.SYSTEM>
0

>  <SCORE.SYSTEM.CONST>
0

>  <SCORE.SYSTEM.DIHEDRAL>
0

>  <SCORE.SYSTEM.SOLV>
0

>  <SCORE.SYSTEM.norm>
0

>  <SCORE.heavy>
22

>  <SCORE.norm>
-0.939358

>  <RMSD>
34.315

$$$$
ligand
 OpenBabel11021811503D
libRbt.so/2013.1/901 2013/11/27
 22 24  0  0  0  0  0  0  0  0999 V2000
   -5.7625  -29.2988   29.4791 C   0  0  0  0  0  0  0  0  0  0  0  0
   -4.3607  -29.1458   29.4327 C   0  0  0  0  0  0  0  0  0  0  0  0
   -3.6476  -29.6965   28.3713 C   0  0  0  0  0  0  0  0  0  0  0  0
   -4.3352  -30.3961   27.3643 C   0  0  0  0  0  0  0  0  0  0  0  0
   -5.7416  -30.5585   27.4146 C   0  0  0  0  0  0  0  0  0  0  0  0
   -6.4508  -30.0093   28.4741 C   0  0  0  0  0  0  0  0  0  0  0  0
   -6.5644  -28.7108   30.6561 C   0  0  0  0  0  0  0  0  0  0  0  0
   -7.7158  -27.7567   30.2515 C   0  0  0  0  0  0  0  0  0  0  0  0
   -8.6521  -27.4007   31.4004 C   0  0  0  0  0  0  0  0  0  0  0  0
  -10.0282  -27.6480   31.3906 C   0  0  0  0  0  0  0  0  0  0  0  0
  -10.5169  -27.2025   32.5775 N   0  0  0  0  0  0  0  0  0  0  0  0
   -9.5314  -26.6677   33.3832 C   0  0  0  0  0  0  0  0  0  0  0  0
   -8.3356  -26.7732   32.6814 C   0  0  0  0  0  0  0  0  0  0  0  0
   -7.1421  -26.2765   33.3305 C   0  0  0  0  0  0  0  0  0  0  0  0
   -5.9087  -26.3574   32.6900 O   0  0  0  0  0  0  0  0  0  0  0  0
   -7.2451  -25.7165   34.5969 N   0  0  0  0  0  0  0  0  0  0  0  0
   -8.4398  -25.6430   35.2525 C   0  0  0  0  0  0  0  0  0  0  0  0
   -9.5673  -26.0936   34.6803 N   0  0  0  0  0  0  0  0  0  0  0  0
   -8.4954  -25.0575   36.5959 N   0  0  0  0  0  0  0  0  0  0  0  0
   -3.5386  -30.9859   26.2308 C   0  0  0  0  0  0  0  0  0  0  0  0
   -4.0874  -31.7066   25.3993 O   0  0  0  0  0  0  0  0  0  0  0  0
   -2.1319  -30.6963   26.1459 N   0  0  0  0  0  0  0  0  0  0  0  0
  1  2  2  0  0  0  0
  1  6  1  0  0  0  0
  1  7  1  0  0  0  0
  2  3  1  0  0  0  0
  3  4  2  0  0  0  0
  4  5  1  0  0  0  0
  4 20  1  0  0  0  0
  5  6  2  0  0  0  0
  7  8  1  0  0  0  0
  8  9  1  0  0  0  0
  9 10  2  0  0  0  0
  9 13  1  0  0  0  0
 10 11  1  0  0  0  0
 11 12  1  0  0  0  0
 12 13  2  0  0  0  0
 12 18  1  0  0  0  0
 13 14  1  0  0  0  0
 14 15  1  0  0  0  0
 14 16  2  0  0  0  0
 16 17  1  0  0  0  0
 17 18  2  0  0  0  0
 17 19  1  0  0  0  0
 20 21  2  0  0  0  0
 20 22  1  0  0  0  0
M  END
>  <CHROM.1>
125.14535886,173.33288260,169.01378432,-121.72421065,-6.72337298,-28.15493595
30.82843166,-1.07310103,0.02660039,1.00184043

>  <Name>
ligand

>  <RI>
0

>  <Rbt.Current_Directory>
/home/itssahil/PROJECTS/Mol_Feturizer/New_Systems/rnas/4LVY

>  <Rbt.Executable>
rbdock ($Id: //depot/dev/client3/rdock/2013.1/src/exe/rbdock.cxx#4 $)

>  <Rbt.Library>
libRbt.so (2013.1, Build901 2013/11/27)

>  <Rbt.Parameter_File>
/export/apps/rDock/src/rDock_2013.1_src/data/scripts/dock_solv.prm

>  <Rbt.Receptor>
prm/blind_docking_100.prm

>  <SCORE>
-19.3127

>  <SCORE.INTER>
-19.459

>  <SCORE.INTER.CONST>
1

>  <SCORE.INTER.POLAR>
0

>  <SCORE.INTER.ROT>
4

>  <SCORE.INTER.SOLV>
7.97697

>  <SCORE.INTER.VDW>
-21.8983

>  <SCORE.INTER.norm>
-0.884498

>  <SCORE.INTRA>
0.146219

>  <SCORE.INTRA.DIHEDRAL>
0.491977

>  <SCORE.INTRA.DIHEDRAL.0>
6.18831

>  <SCORE.INTRA.POLAR>
0

>  <SCORE.INTRA.POLAR.0>
0

>  <SCORE.INTRA.REPUL>
0

>  <SCORE.INTRA.REPUL.0>
0

>  <SCORE.INTRA.SOLV>
0.316551

>  <SCORE.INTRA.SOLV.lig_0>
-44.3465

>  <SCORE.INTRA.VDW>
-0.258045

>  <SCORE.INTRA.VDW.0>
-0.778272

>  <SCORE.INTRA.norm>
0.0066463

>  <SCORE.RESTR>
0

>  <SCORE.RESTR.CAVITY>
0

>  <SCORE.RESTR.norm>
0

>  <SCORE.SYSTEM>
0

>  <SCORE.SYSTEM.CONST>
0

>  <SCORE.SYSTEM.DIHEDRAL>
0

>  <SCORE.SYSTEM.SOLV>
0

>  <SCORE.SYSTEM.norm>
0

>  <SCORE.heavy>
22

>  <SCORE.norm>
-0.877852

>  <RMSD>
34.341

$$$$
ligand
 OpenBabel11021811503D
libRbt.so/2013.1/901 2013/11/27
 22 24  0  0  0  0  0  0  0  0999 V2000
   -6.2985  -26.4985   31.7562 C   0  0  0  0  0  0  0  0  0  0  0  0
   -6.1302  -27.0222   33.0555 C   0  0  0  0  0  0  0  0  0  0  0  0
   -5.9642  -26.1500   34.1280 C   0  0  0  0  0  0  0  0  0  0  0  0
   -5.9663  -24.7630   33.8990 C   0  0  0  0  0  0  0  0  0  0  0  0
   -6.1258  -24.2361   32.5937 C   0  0  0  0  0  0  0  0  0  0  0  0
   -6.2904  -25.1073   31.5255 C   0  0  0  0  0  0  0  0  0  0  0  0
   -6.4654  -27.4504   30.5562 C   0  0  0  0  0  0  0  0  0  0  0  0
   -5.2331  -28.3373   30.2484 C   0  0  0  0  0  0  0  0  0  0  0  0
   -5.4786  -29.3745   29.1586 C   0  0  0  0  0  0  0  0  0  0  0  0
   -6.6582  -30.1154   29.0382 C   0  0  0  0  0  0  0  0  0  0  0  0
   -6.5074  -30.9227   27.9559 N   0  0  0  0  0  0  0  0  0  0  0  0
   -5.2806  -30.7572   27.3446 C   0  0  0  0  0  0  0  0  0  0  0  0
   -4.5968  -29.7870   28.0691 C   0  0  0  0  0  0  0  0  0  0  0  0
   -3.2703  -29.4339   27.6131 C   0  0  0  0  0  0  0  0  0  0  0  0
   -2.5312  -28.4644   28.2854 O   0  0  0  0  0  0  0  0  0  0  0  0
   -2.7452  -30.0765   26.4998 N   0  0  0  0  0  0  0  0  0  0  0  0
   -3.4575  -31.0166   25.8132 C   0  0  0  0  0  0  0  0  0  0  0  0
   -4.6909  -31.3692   26.2083 N   0  0  0  0  0  0  0  0  0  0  0  0
   -2.8664  -31.6560   24.6332 N   0  0  0  0  0  0  0  0  0  0  0  0
   -5.7796  -23.8429   35.0761 C   0  0  0  0  0  0  0  0  0  0  0  0
   -6.4335  -24.0132   36.1035 O   0  0  0  0  0  0  0  0  0  0  0  0
   -4.8324  -22.7649   34.9719 N   0  0  0  0  0  0  0  0  0  0  0  0
  1  2  2  0  0  0  0
  1  6  1  0  0  0  0
  1  7  1  0  0  0  0
  2  3  1  0  0  0  0
  3  4  2  0  0  0  0
  4  5  1  0  0  0  0
  4 20  1  0  0  0  0
  5  6  2  0  0  0  0
  7  8  1  0  0  0  0
  8  9  1  0  0  0  0
  9 10  2  0  0  0  0
  9 13  1  0  0  0  0
 10 11  1  0  0  0  0
 11 12  1  0  0  0  0
 12 13  2  0  0  0  0
 12 18  1  0  0  0  0
 13 14  1  0  0  0  0
 14 15  1  0  0  0  0
 14 16  2  0  0  0  0
 16 17  1  0  0  0  0
 17 18  2  0  0  0  0
 17 19  1  0  0  0  0
 20 21  2  0  0  0  0
 20 22  1  0  0  0  0
M  END
>  <CHROM.1>
-64.64444549,-47.80263731,173.58994463,-40.68621358,-5.12529146,-27.87755441
30.18920450,1.78387704,0.45577620,0.79496979

>  <Name>
ligand

>  <RI>
0

>  <Rbt.Current_Directory>
/home/itssahil/PROJECTS/Mol_Feturizer/New_Systems/rnas/4LVY

>  <Rbt.Executable>
rbdock ($Id: //depot/dev/client3/rdock/2013.1/src/exe/rbdock.cxx#4 $)

>  <Rbt.Library>
libRbt.so (2013.1, Build901 2013/11/27)

>  <Rbt.Parameter_File>
/export/apps/rDock/src/rDock_2013.1_src/data/scripts/dock_solv.prm

>  <Rbt.Receptor>
prm/blind_docking_80.prm

>  <SCORE>
-17.3369

>  <SCORE.INTER>
-17.3484

>  <SCORE.INTER.CONST>
1

>  <SCORE.INTER.POLAR>
0

>  <SCORE.INTER.ROT>
4

>  <SCORE.INTER.SOLV>
20.7922

>  <SCORE.INTER.VDW>
-24.763

>  <SCORE.INTER.norm>
-0.788563

>  <SCORE.INTRA>
-0.0107518

>  <SCORE.INTRA.DIHEDRAL>
0.211973

>  <SCORE.INTRA.DIHEDRAL.0>
6.18831

>  <SCORE.INTRA.POLAR>
0

>  <SCORE.INTRA.POLAR.0>
0

>  <SCORE.INTRA.REPUL>
0

>  <SCORE.INTRA.REPUL.0>
0

>  <SCORE.INTRA.SOLV>
-0.000658478

>  <SCORE.INTRA.SOLV.lig_0>
-44.3465

>  <SCORE.INTRA.VDW>
-0.116409

>  <SCORE.INTRA.VDW.0>
-0.778272

>  <SCORE.INTRA.norm>
-0.000488718

>  <SCORE.RESTR>
0.0222483

>  <SCORE.RESTR.CAVITY>
0.0222483

>  <SCORE.RESTR.norm>
0.00101129

>  <SCORE.SYSTEM>
0

>  <SCORE.SYSTEM.CONST>
0

>  <SCORE.SYSTEM.DIHEDRAL>
0

>  <SCORE.SYSTEM.SOLV>
0

>  <SCORE.SYSTEM.norm>
0

>  <SCORE.heavy>
22

>  <SCORE.norm>
-0.78804

>  <RMSD>
34.341

$$$$
ligand
 OpenBabel11021811503D
libRbt.so/2013.1/901 2013/11/27
 22 24  0  0  0  0  0  0  0  0999 V2000
   -5.5041  -29.3895   29.7764 C   0  0  0  0  0  0  0  0  0  0  0  0
   -4.1593  -29.1987   29.3946 C   0  0  0  0  0  0  0  0  0  0  0  0
   -3.6978  -29.7663   28.2101 C   0  0  0  0  0  0  0  0  0  0  0  0
   -4.5782  -30.5204   27.4148 C   0  0  0  0  0  0  0  0  0  0  0  0
   -5.9261  -30.7207   27.8017 C   0  0  0  0  0  0  0  0  0  0  0  0
   -6.3843  -30.1545   28.9835 C   0  0  0  0  0  0  0  0  0  0  0  0
   -6.0259  -28.7831   31.0933 C   0  0  0  0  0  0  0  0  0  0  0  0
   -7.1496  -27.7296   30.9283 C   0  0  0  0  0  0  0  0  0  0  0  0
   -7.8748  -27.3953   32.2268 C   0  0  0  0  0  0  0  0  0  0  0  0
   -9.1866  -27.7871   32.5109 C   0  0  0  0  0  0  0  0  0  0  0  0
   -9.4792  -27.3139   33.7504 N   0  0  0  0  0  0  0  0  0  0  0  0
   -8.4236  -26.6228   34.3109 C   0  0  0  0  0  0  0  0  0  0  0  0
   -7.3868  -26.6498   33.3847 C   0  0  0  0  0  0  0  0  0  0  0  0
   -6.1554  -25.9853   33.7513 C   0  0  0  0  0  0  0  0  0  0  0  0
   -5.0727  -25.9797   32.8761 O   0  0  0  0  0  0  0  0  0  0  0  0
   -6.0704  -25.3522   34.9841 N   0  0  0  0  0  0  0  0  0  0  0  0
   -7.1115  -25.3599   35.8665 C   0  0  0  0  0  0  0  0  0  0  0  0
   -8.2690  -25.9663   35.5594 N   0  0  0  0  0  0  0  0  0  0  0  0
   -6.9682  -24.6912   37.1637 N   0  0  0  0  0  0  0  0  0  0  0  0
   -4.0512  -31.1273   26.1416 C   0  0  0  0  0  0  0  0  0  0  0  0
   -4.8235  -31.6506   25.3405 O   0  0  0  0  0  0  0  0  0  0  0  0
   -2.6356  -31.0882   25.8873 N   0  0  0  0  0  0  0  0  0  0  0  0
  1  2  2  0  0  0  0
  1  6  1  0  0  0  0
  1  7  1  0  0  0  0
  2  3  1  0  0  0  0
  3  4  2  0  0  0  0
  4  5  1  0  0  0  0
  4 20  1  0  0  0  0
  5  6  2  0  0  0  0
  7  8  1  0  0  0  0
  8  9  1  0  0  0  0
  9 10  2  0  0  0  0
  9 13  1  0  0  0  0
 10 11  1  0  0  0  0
 11 12  1  0  0  0  0
 12 13  2  0  0  0  0
 12 18  1  0  0  0  0
 13 14  1  0  0  0  0
 14 15  1  0  0  0  0
 14 16  2  0  0  0  0
 16 17  1  0  0  0  0
 17 18  2  0  0  0  0
 17 19  1  0  0  0  0
 20 21  2  0  0  0  0
 20 22  1  0  0  0  0
M  END
>  <CHROM.1>
117.23736357,-171.01645208,166.07494174,-108.67978617,-6.20984801,-28.12299855
31.25829640,-1.24578595,0.20497879,0.95685789

>  <Name>
ligand

>  <RI>
0

>  <Rbt.Current_Directory>
/home/itssahil/PROJECTS/Mol_Feturizer/New_Systems/rnas/4LVY

>  <Rbt.Executable>
rbdock ($Id: //depot/dev/client3/rdock/2013.1/src/exe/rbdock.cxx#4 $)

>  <Rbt.Library>
libRbt.so (2013.1, Build901 2013/11/27)

>  <Rbt.Parameter_File>
/export/apps/rDock/src/rDock_2013.1_src/data/scripts/dock_solv.prm

>  <Rbt.Receptor>
prm/blind_docking_80.prm

>  <SCORE>
-20.5065

>  <SCORE.INTER>
-20.6928

>  <SCORE.INTER.CONST>
1

>  <SCORE.INTER.POLAR>
0

>  <SCORE.INTER.ROT>
4

>  <SCORE.INTER.SOLV>
9.82497

>  <SCORE.INTER.VDW>
-23.3369

>  <SCORE.INTER.norm>
-0.940583

>  <SCORE.INTRA>
0.186283

>  <SCORE.INTRA.DIHEDRAL>
0.814099

>  <SCORE.INTRA.DIHEDRAL.0>
6.18831

>  <SCORE.INTRA.POLAR>
0

>  <SCORE.INTRA.POLAR.0>
0

>  <SCORE.INTRA.REPUL>
0

>  <SCORE.INTRA.REPUL.0>
0

>  <SCORE.INTRA.SOLV>
0.255593

>  <SCORE.INTRA.SOLV.lig_0>
-44.3465

>  <SCORE.INTRA.VDW>
-0.348563

>  <SCORE.INTRA.VDW.0>
-0.778272

>  <SCORE.INTRA.norm>
0.00846739

>  <SCORE.RESTR>
0

>  <SCORE.RESTR.CAVITY>
0

>  <SCORE.RESTR.norm>
0

>  <SCORE.SYSTEM>
0

>  <SCORE.SYSTEM.CONST>
0

>  <SCORE.SYSTEM.DIHEDRAL>
0

>  <SCORE.SYSTEM.SOLV>
0

>  <SCORE.SYSTEM.norm>
0

>  <SCORE.heavy>
22

>  <SCORE.norm>
-0.932116

>  <RMSD>
34.352

$$$$
ligand
 OpenBabel11021811503D
libRbt.so/2013.1/901 2013/11/27
 22 24  0  0  0  0  0  0  0  0999 V2000
   -4.7732  -30.5011   27.4287 C   0  0  0  0  0  0  0  0  0  0  0  0
   -3.8689  -29.7969   28.2514 C   0  0  0  0  0  0  0  0  0  0  0  0
   -2.5338  -29.6957   27.8697 C   0  0  0  0  0  0  0  0  0  0  0  0
   -2.1088  -30.2969   26.6722 C   0  0  0  0  0  0  0  0  0  0  0  0
   -3.0137  -31.0123   25.8500 C   0  0  0  0  0  0  0  0  0  0  0  0
   -4.3444  -31.1128   26.2326 C   0  0  0  0  0  0  0  0  0  0  0  0
   -6.2502  -30.6376   27.8457 C   0  0  0  0  0  0  0  0  0  0  0  0
   -6.5234  -30.4453   29.3585 C   0  0  0  0  0  0  0  0  0  0  0  0
   -7.4729  -29.2944   29.6706 C   0  0  0  0  0  0  0  0  0  0  0  0
   -8.4785  -28.8557   28.8038 C   0  0  0  0  0  0  0  0  0  0  0  0
   -9.1128  -27.8272   29.4250 N   0  0  0  0  0  0  0  0  0  0  0  0
   -8.5789  -27.5561   30.6690 C   0  0  0  0  0  0  0  0  0  0  0  0
   -7.5409  -28.4598   30.8679 C   0  0  0  0  0  0  0  0  0  0  0  0
   -6.8209  -28.3746   32.1195 C   0  0  0  0  0  0  0  0  0  0  0  0
   -5.7753  -29.2531   32.3898 O   0  0  0  0  0  0  0  0  0  0  0  0
   -7.1849  -27.4042   33.0436 N   0  0  0  0  0  0  0  0  0  0  0  0
   -8.2182  -26.5439   32.8094 C   0  0  0  0  0  0  0  0  0  0  0  0
   -8.9077  -26.5942   31.6589 N   0  0  0  0  0  0  0  0  0  0  0  0
   -8.5758  -25.5464   33.8232 N   0  0  0  0  0  0  0  0  0  0  0  0
   -0.6583  -30.1764   26.2862 C   0  0  0  0  0  0  0  0  0  0  0  0
   -0.0475  -31.1568   25.8646 O   0  0  0  0  0  0  0  0  0  0  0  0
   -0.0057  -28.9018   26.4264 N   0  0  0  0  0  0  0  0  0  0  0  0
  1  2  2  0  0  0  0
  1  6  1  0  0  0  0
  1  7  1  0  0  0  0
  2  3  1  0  0  0  0
  3  4  2  0  0  0  0
  4  5  1  0  0  0  0
  4 20  1  0  0  0  0
  5  6  2  0  0  0  0
  7  8  1  0  0  0  0
  8  9  1  0  0  0  0
  9 10  2  0  0  0  0
  9 13  1  0  0  0  0
 10 11  1  0  0  0  0
 11 12  1  0  0  0  0
 12 13  2  0  0  0  0
 12 18  1  0  0  0  0
 13 14  1  0  0  0  0
 14 15  1  0  0  0  0
 14 16  2  0  0  0  0
 16 17  1  0  0  0  0
 17 18  2  0  0  0  0
 17 19  1  0  0  0  0
 20 21  2  0  0  0  0
 20 22  1  0  0  0  0
M  END
>  <CHROM.1>
-21.52130186,135.70500431,120.04294297,28.90019370,-5.47557959,-29.05500737
29.28853290,0.77294849,-0.04676888,-2.13040669

>  <Name>
ligand

>  <RI>
0

>  <Rbt.Current_Directory>
/home/itssahil/PROJECTS/Mol_Feturizer/New_Systems/rnas/4LVY

>  <Rbt.Executable>
rbdock ($Id: //depot/dev/client3/rdock/2013.1/src/exe/rbdock.cxx#4 $)

>  <Rbt.Library>
libRbt.so (2013.1, Build901 2013/11/27)

>  <Rbt.Parameter_File>
/export/apps/rDock/src/rDock_2013.1_src/data/scripts/dock_solv.prm

>  <Rbt.Receptor>
prm/blind_docking_60.prm

>  <SCORE>
-17.8848

>  <SCORE.INTER>
-21.4417

>  <SCORE.INTER.CONST>
1

>  <SCORE.INTER.POLAR>
0

>  <SCORE.INTER.ROT>
4

>  <SCORE.INTER.SOLV>
12.3456

>  <SCORE.INTER.VDW>
-24.6763

>  <SCORE.INTER.norm>
-0.974621

>  <SCORE.INTRA>
3.42904

>  <SCORE.INTRA.DIHEDRAL>
6.16756

>  <SCORE.INTRA.DIHEDRAL.0>
6.18831

>  <SCORE.INTRA.POLAR>
0

>  <SCORE.INTRA.POLAR.0>
0

>  <SCORE.INTRA.REPUL>
0

>  <SCORE.INTRA.REPUL.0>
0

>  <SCORE.INTRA.SOLV>
0.00135289

>  <SCORE.INTRA.SOLV.lig_0>
-44.3465

>  <SCORE.INTRA.VDW>
0.34459

>  <SCORE.INTRA.VDW.0>
-0.778272

>  <SCORE.INTRA.norm>
0.155866

>  <SCORE.RESTR>
0.127787

>  <SCORE.RESTR.CAVITY>
0.127787

>  <SCORE.RESTR.norm>
0.00580849

>  <SCORE.SYSTEM>
0

>  <SCORE.SYSTEM.CONST>
0

>  <SCORE.SYSTEM.DIHEDRAL>
0

>  <SCORE.SYSTEM.SOLV>
0

>  <SCORE.SYSTEM.norm>
0

>  <SCORE.heavy>
22

>  <SCORE.norm>
-0.812946

>  <RMSD>
34.396

$$$$
ligand
 OpenBabel11021811503D
libRbt.so/2013.1/901 2013/11/27
 22 24  0  0  0  0  0  0  0  0999 V2000
   -5.6902  -29.4240   29.9608 C   0  0  0  0  0  0  0  0  0  0  0  0
   -6.5622  -30.2445   29.2145 C   0  0  0  0  0  0  0  0  0  0  0  0
   -6.1248  -30.7898   28.0105 C   0  0  0  0  0  0  0  0  0  0  0  0
   -4.8229  -30.5135   27.5579 C   0  0  0  0  0  0  0  0  0  0  0  0
   -3.9495  -29.6821   28.3016 C   0  0  0  0  0  0  0  0  0  0  0  0
   -4.3877  -29.1388   29.5015 C   0  0  0  0  0  0  0  0  0  0  0  0
   -6.1649  -28.7983   31.2864 C   0  0  0  0  0  0  0  0  0  0  0  0
   -7.0736  -27.5529   31.1336 C   0  0  0  0  0  0  0  0  0  0  0  0
   -7.8811  -27.2236   32.3838 C   0  0  0  0  0  0  0  0  0  0  0  0
   -9.2316  -27.5462   32.5477 C   0  0  0  0  0  0  0  0  0  0  0  0
   -9.5960  -27.1020   33.7790 N   0  0  0  0  0  0  0  0  0  0  0  0
   -8.5515  -26.4962   34.4485 C   0  0  0  0  0  0  0  0  0  0  0  0
   -7.4466  -26.5514   33.6062 C   0  0  0  0  0  0  0  0  0  0  0  0
   -6.2130  -25.9757   34.0953 C   0  0  0  0  0  0  0  0  0  0  0  0
   -5.0647  -26.0030   33.3088 O   0  0  0  0  0  0  0  0  0  0  0  0
   -6.1921  -25.3944   35.3561 N   0  0  0  0  0  0  0  0  0  0  0  0
   -7.2997  -25.3720   36.1530 C   0  0  0  0  0  0  0  0  0  0  0  0
   -8.4612  -25.8963   35.7313 N   0  0  0  0  0  0  0  0  0  0  0  0
   -7.2238  -24.7609   37.4839 N   0  0  0  0  0  0  0  0  0  0  0  0
   -4.3777  -31.1119   26.2499 C   0  0  0  0  0  0  0  0  0  0  0  0
   -5.1967  -31.6450   25.5036 O   0  0  0  0  0  0  0  0  0  0  0  0
   -2.9839  -31.0531   25.8976 N   0  0  0  0  0  0  0  0  0  0  0  0
  1  2  2  0  0  0  0
  1  6  1  0  0  0  0
  1  7  1  0  0  0  0
  2  3  1  0  0  0  0
  3  4  2  0  0  0  0
  4  5  1  0  0  0  0
  4 20  1  0  0  0  0
  5  6  2  0  0  0  0
  7  8  1  0  0  0  0
  8  9  1  0  0  0  0
  9 10  2  0  0  0  0
  9 13  1  0  0  0  0
 10 11  1  0  0  0  0
 11 12  1  0  0  0  0
 12 13  2  0  0  0  0
 12 18  1  0  0  0  0
 13 14  1  0  0  0  0
 14 15  1  0  0  0  0
 14 16  2  0  0  0  0
 16 17  1  0  0  0  0
 17 18  2  0  0  0  0
 17 19  1  0  0  0  0
 20 21  2  0  0  0  0
 20 22  1  0  0  0  0
M  END
>  <CHROM.1>
-78.32773811,11.37570625,161.42490215,-100.96179019,-6.37206490,-28.08052779
31.45004685,-1.27092097,0.16591663,0.97657965

>  <Name>
ligand

>  <RI>
0

>  <Rbt.Current_Directory>
/home/itssahil/PROJECTS/Mol_Feturizer/New_Systems/rnas/4LVY

>  <Rbt.Executable>
rbdock ($Id: //depot/dev/client3/rdock/2013.1/src/exe/rbdock.cxx#4 $)

>  <Rbt.Library>
libRbt.so (2013.1, Build901 2013/11/27)

>  <Rbt.Parameter_File>
/export/apps/rDock/src/rDock_2013.1_src/data/scripts/dock_solv.prm

>  <Rbt.Receptor>
prm/blind_docking_80.prm

>  <SCORE>
-20.7813

>  <SCORE.INTER>
-21.1365

>  <SCORE.INTER.CONST>
1

>  <SCORE.INTER.POLAR>
0

>  <SCORE.INTER.ROT>
4

>  <SCORE.INTER.SOLV>
9.31266

>  <SCORE.INTER.VDW>
-23.4619

>  <SCORE.INTER.norm>
-0.960752

>  <SCORE.INTRA>
0.35528

>  <SCORE.INTRA.DIHEDRAL>
1.2593

>  <SCORE.INTRA.DIHEDRAL.0>
6.18831

>  <SCORE.INTRA.POLAR>
0

>  <SCORE.INTRA.POLAR.0>
0

>  <SCORE.INTRA.REPUL>
0

>  <SCORE.INTRA.REPUL.0>
0

>  <SCORE.INTRA.SOLV>
0.216496

>  <SCORE.INTRA.SOLV.lig_0>
-44.3465

>  <SCORE.INTRA.VDW>
-0.382616

>  <SCORE.INTRA.VDW.0>
-0.778272

>  <SCORE.INTRA.norm>
0.0161491

>  <SCORE.RESTR>
0

>  <SCORE.RESTR.CAVITY>
0

>  <SCORE.RESTR.norm>
0

>  <SCORE.SYSTEM>
0

>  <SCORE.SYSTEM.CONST>
0

>  <SCORE.SYSTEM.DIHEDRAL>
0

>  <SCORE.SYSTEM.SOLV>
0

>  <SCORE.SYSTEM.norm>
0

>  <SCORE.heavy>
22

>  <SCORE.norm>
-0.944603

>  <RMSD>
34.416

$$$$
ligand
 OpenBabel11021811503D
libRbt.so/2013.1/901 2013/11/27
 22 24  0  0  0  0  0  0  0  0999 V2000
   -0.2833  -30.5839   26.2191 C   0  0  0  0  0  0  0  0  0  0  0  0
    0.6673  -29.6699   26.7206 C   0  0  0  0  0  0  0  0  0  0  0  0
    1.9682  -29.6957   26.2252 C   0  0  0  0  0  0  0  0  0  0  0  0
    2.3133  -30.6318   25.2348 C   0  0  0  0  0  0  0  0  0  0  0  0
    1.3622  -31.5563   24.7372 C   0  0  0  0  0  0  0  0  0  0  0  0
    0.0658  -31.5295   25.2329 C   0  0  0  0  0  0  0  0  0  0  0  0
   -1.7225  -30.5803   26.7695 C   0  0  0  0  0  0  0  0  0  0  0  0
   -2.8264  -30.8495   25.7165 C   0  0  0  0  0  0  0  0  0  0  0  0
   -4.2354  -30.8819   26.2971 C   0  0  0  0  0  0  0  0  0  0  0  0
   -5.2879  -31.6219   25.7497 C   0  0  0  0  0  0  0  0  0  0  0  0
   -6.3732  -31.4055   26.5380 N   0  0  0  0  0  0  0  0  0  0  0  0
   -6.0967  -30.5543   27.5892 C   0  0  0  0  0  0  0  0  0  0  0  0
   -4.7569  -30.1991   27.4789 C   0  0  0  0  0  0  0  0  0  0  0  0
   -4.2254  -29.3040   28.4831 C   0  0  0  0  0  0  0  0  0  0  0  0
   -2.8900  -28.9129   28.4396 O   0  0  0  0  0  0  0  0  0  0  0  0
   -5.0652  -28.8394   29.4866 N   0  0  0  0  0  0  0  0  0  0  0  0
   -6.3728  -29.2232   29.5610 C   0  0  0  0  0  0  0  0  0  0  0  0
   -6.8995  -30.0521   28.6461 N   0  0  0  0  0  0  0  0  0  0  0  0
   -7.2162  -28.7184   30.6493 N   0  0  0  0  0  0  0  0  0  0  0  0
    3.7285  -30.6412   24.7207 C   0  0  0  0  0  0  0  0  0  0  0  0
    3.9473  -30.5864   23.5119 O   0  0  0  0  0  0  0  0  0  0  0  0
    4.8104  -30.7217   25.6657 N   0  0  0  0  0  0  0  0  0  0  0  0
  1  2  2  0  0  0  0
  1  6  1  0  0  0  0
  1  7  1  0  0  0  0
  2  3  1  0  0  0  0
  3  4  2  0  0  0  0
  4  5  1  0  0  0  0
  4 20  1  0  0  0  0
  5  6  2  0  0  0  0
  7  8  1  0  0  0  0
  8  9  1  0  0  0  0
  9 10  2  0  0  0  0
  9 13  1  0  0  0  0
 10 11  1  0  0  0  0
 11 12  1  0  0  0  0
 12 13  2  0  0  0  0
 12 18  1  0  0  0  0
 13 14  1  0  0  0  0
 14 15  1  0  0  0  0
 14 16  2  0  0  0  0
 16 17  1  0  0  0  0
 17 18  2  0  0  0  0
 17 19  1  0  0  0  0
 20 21  2  0  0  0  0
 20 22  1  0  0  0  0
M  END
>  <CHROM.1>
142.54387946,-127.93996468,178.24407959,-151.82323776,-2.06655916,-30.28487416
26.82094205,0.35675346,-0.15050076,-2.18614881

>  <Name>
ligand

>  <RI>
0

>  <Rbt.Current_Directory>
/home/itssahil/PROJECTS/Mol_Feturizer/New_Systems/rnas/4LVY

>  <Rbt.Executable>
rbdock ($Id: //depot/dev/client3/rdock/2013.1/src/exe/rbdock.cxx#4 $)

>  <Rbt.Library>
libRbt.so (2013.1, Build901 2013/11/27)

>  <Rbt.Parameter_File>
/export/apps/rDock/src/rDock_2013.1_src/data/scripts/dock_solv.prm

>  <Rbt.Receptor>
prm/blind_docking_100.prm

>  <SCORE>
-20.9231

>  <SCORE.INTER>
-22.6018

>  <SCORE.INTER.CONST>
1

>  <SCORE.INTER.POLAR>
0

>  <SCORE.INTER.ROT>
4

>  <SCORE.INTER.SOLV>
12.0636

>  <SCORE.INTER.VDW>
-25.3557

>  <SCORE.INTER.norm>
-1.02735

>  <SCORE.INTRA>
1.65107

>  <SCORE.INTRA.DIHEDRAL>
0.00315818

>  <SCORE.INTRA.DIHEDRAL.0>
6.18831

>  <SCORE.INTRA.POLAR>
0

>  <SCORE.INTRA.POLAR.0>
0

>  <SCORE.INTRA.REPUL>
0

>  <SCORE.INTRA.REPUL.0>
0

>  <SCORE.INTRA.SOLV>
0.449324

>  <SCORE.INTRA.SOLV.lig_0>
-44.3465

>  <SCORE.INTRA.VDW>
1.42483

>  <SCORE.INTRA.VDW.0>
-0.778272

>  <SCORE.INTRA.norm>
0.0750487

>  <SCORE.RESTR>
0.0276241

>  <SCORE.RESTR.CAVITY>
0.0276241

>  <SCORE.RESTR.norm>
0.00125564

>  <SCORE.SYSTEM>
0

>  <SCORE.SYSTEM.CONST>
0

>  <SCORE.SYSTEM.DIHEDRAL>
0

>  <SCORE.SYSTEM.SOLV>
0

>  <SCORE.SYSTEM.norm>
0

>  <SCORE.heavy>
22

>  <SCORE.norm>
-0.951048

>  <RMSD>
34.444

$$$$
ligand
 OpenBabel11021811503D
libRbt.so/2013.1/901 2013/11/27
 22 24  0  0  0  0  0  0  0  0999 V2000
   -5.5762  -29.5417   29.9053 C   0  0  0  0  0  0  0  0  0  0  0  0
   -4.3548  -29.3477   29.2261 C   0  0  0  0  0  0  0  0  0  0  0  0
   -4.1768  -29.9106   27.9653 C   0  0  0  0  0  0  0  0  0  0  0  0
   -5.2156  -30.6633   27.3903 C   0  0  0  0  0  0  0  0  0  0  0  0
   -6.4388  -30.8668   28.0752 C   0  0  0  0  0  0  0  0  0  0  0  0
   -6.6142  -30.3053   29.3326 C   0  0  0  0  0  0  0  0  0  0  0  0
   -5.7826  -28.9405   31.3089 C   0  0  0  0  0  0  0  0  0  0  0  0
   -6.2558  -27.4655   31.3257 C   0  0  0  0  0  0  0  0  0  0  0  0
   -7.7707  -27.3049   31.2720 C   0  0  0  0  0  0  0  0  0  0  0  0
   -8.5709  -27.7948   30.2354 C   0  0  0  0  0  0  0  0  0  0  0  0
   -9.8538  -27.4665   30.5394 N   0  0  0  0  0  0  0  0  0  0  0  0
   -9.9508  -26.7788   31.7326 C   0  0  0  0  0  0  0  0  0  0  0  0
   -8.6592  -26.6548   32.2326 C   0  0  0  0  0  0  0  0  0  0  0  0
   -8.5020  -25.9643   33.4939 C   0  0  0  0  0  0  0  0  0  0  0  0
   -7.2386  -25.8106   34.0579 O   0  0  0  0  0  0  0  0  0  0  0  0
   -9.6264  -25.4557   34.1303 N   0  0  0  0  0  0  0  0  0  0  0  0
  -10.8772  -25.6100   33.6066 C   0  0  0  0  0  0  0  0  0  0  0  0
  -11.0601  -26.2448   32.4381 N   0  0  0  0  0  0  0  0  0  0  0  0
  -12.0361  -25.0693   34.3243 N   0  0  0  0  0  0  0  0  0  0  0  0
   -4.9941  -31.2652   26.0280 C   0  0  0  0  0  0  0  0  0  0  0  0
   -3.8786  -31.2320   25.5116 O   0  0  0  0  0  0  0  0  0  0  0  0
   -6.1077  -31.8691   25.3459 N   0  0  0  0  0  0  0  0  0  0  0  0
  1  2  2  0  0  0  0
  1  6  1  0  0  0  0
  1  7  1  0  0  0  0
  2  3  1  0  0  0  0
  3  4  2  0  0  0  0
  4  5  1  0  0  0  0
  4 20  1  0  0  0  0
  5  6  2  0  0  0  0
  7  8  1  0  0  0  0
  8  9  1  0  0  0  0
  9 10  2  0  0  0  0
  9 13  1  0  0  0  0
 10 11  1  0  0  0  0
 11 12  1  0  0  0  0
 12 13  2  0  0  0  0
 12 18  1  0  0  0  0
 13 14  1  0  0  0  0
 14 15  1  0  0  0  0
 14 16  2  0  0  0  0
 16 17  1  0  0  0  0
 17 18  2  0  0  0  0
 17 19  1  0  0  0  0
 20 21  2  0  0  0  0
 20 22  1  0  0  0  0
M  END
>  <CHROM.1>
84.67643429,8.64719769,88.04707067,-58.91612985,-7.44179008,-28.22364057
30.45754207,-1.01652697,-0.15012758,0.99910791

>  <Name>
ligand

>  <RI>
0

>  <Rbt.Current_Directory>
/home/itssahil/PROJECTS/Mol_Feturizer/New_Systems/rnas/4LVY

>  <Rbt.Executable>
rbdock ($Id: //depot/dev/client3/rdock/2013.1/src/exe/rbdock.cxx#4 $)

>  <Rbt.Library>
libRbt.so (2013.1, Build901 2013/11/27)

>  <Rbt.Parameter_File>
/export/apps/rDock/src/rDock_2013.1_src/data/scripts/dock_solv.prm

>  <Rbt.Receptor>
prm/blind_docking_80.prm

>  <SCORE>
-20.3645

>  <SCORE.INTER>
-21.2216

>  <SCORE.INTER.CONST>
1

>  <SCORE.INTER.POLAR>
0

>  <SCORE.INTER.ROT>
4

>  <SCORE.INTER.SOLV>
11.1891

>  <SCORE.INTER.VDW>
-24.1441

>  <SCORE.INTER.norm>
-0.964619

>  <SCORE.INTRA>
0.854619

>  <SCORE.INTRA.DIHEDRAL>
2.83255

>  <SCORE.INTRA.DIHEDRAL.0>
6.18831

>  <SCORE.INTRA.POLAR>
0

>  <SCORE.INTRA.POLAR.0>
0

>  <SCORE.INTRA.REPUL>
0

>  <SCORE.INTRA.REPUL.0>
0

>  <SCORE.INTRA.SOLV>
0.0501576

>  <SCORE.INTRA.SOLV.lig_0>
-44.3465

>  <SCORE.INTRA.VDW>
-0.586735

>  <SCORE.INTRA.VDW.0>
-0.778272

>  <SCORE.INTRA.norm>
0.0388463

>  <SCORE.RESTR>
0.00248637

>  <SCORE.RESTR.CAVITY>
0.00248637

>  <SCORE.RESTR.norm>
0.000113017

>  <SCORE.SYSTEM>
0

>  <SCORE.SYSTEM.CONST>
0

>  <SCORE.SYSTEM.DIHEDRAL>
0

>  <SCORE.SYSTEM.SOLV>
0

>  <SCORE.SYSTEM.norm>
0

>  <SCORE.heavy>
22

>  <SCORE.norm>
-0.92566

>  <RMSD>
34.517

$$$$
ligand
 OpenBabel11021811503D
libRbt.so/2013.1/901 2013/11/27
 22 24  0  0  0  0  0  0  0  0999 V2000
   -0.4705  -31.4135   25.4286 C   0  0  0  0  0  0  0  0  0  0  0  0
    0.1539  -30.3171   26.0599 C   0  0  0  0  0  0  0  0  0  0  0  0
    1.4967  -30.0541   25.8031 C   0  0  0  0  0  0  0  0  0  0  0  0
    2.2082  -30.8850   24.9202 C   0  0  0  0  0  0  0  0  0  0  0  0
    1.5851  -31.9918   24.2929 C   0  0  0  0  0  0  0  0  0  0  0  0
    0.2463  -32.2529   24.5508 C   0  0  0  0  0  0  0  0  0  0  0  0
   -1.9511  -31.7289   25.7159 C   0  0  0  0  0  0  0  0  0  0  0  0
   -2.9190  -30.5305   25.5523 C   0  0  0  0  0  0  0  0  0  0  0  0
   -4.2546  -30.7171   26.2629 C   0  0  0  0  0  0  0  0  0  0  0  0
   -5.3034  -31.4937   25.7612 C   0  0  0  0  0  0  0  0  0  0  0  0
   -6.3137  -31.4234   26.6669 N   0  0  0  0  0  0  0  0  0  0  0  0
   -5.9905  -30.6351   27.7533 C   0  0  0  0  0  0  0  0  0  0  0  0
   -4.6976  -30.1687   27.5427 C   0  0  0  0  0  0  0  0  0  0  0  0
   -4.1293  -29.3132   28.5612 C   0  0  0  0  0  0  0  0  0  0  0  0
   -2.8364  -28.8165   28.4203 O   0  0  0  0  0  0  0  0  0  0  0  0
   -4.8913  -28.9932   29.6770 N   0  0  0  0  0  0  0  0  0  0  0  0
   -6.1539  -29.4828   29.8465 C   0  0  0  0  0  0  0  0  0  0  0  0
   -6.7128  -30.2788   28.9215 N   0  0  0  0  0  0  0  0  0  0  0  0
   -6.9136  -29.1295   31.0501 N   0  0  0  0  0  0  0  0  0  0  0  0
    3.6606  -30.5808   24.6646 C   0  0  0  0  0  0  0  0  0  0  0  0
    4.0812  -30.4987   23.5121 O   0  0  0  0  0  0  0  0  0  0  0  0
    4.5399  -30.3963   25.7883 N   0  0  0  0  0  0  0  0  0  0  0  0
  1  2  2  0  0  0  0
  1  6  1  0  0  0  0
  1  7  1  0  0  0  0
  2  3  1  0  0  0  0
  3  4  2  0  0  0  0
  4  5  1  0  0  0  0
  4 20  1  0  0  0  0
  5  6  2  0  0  0  0
  7  8  1  0  0  0  0
  8  9  1  0  0  0  0
  9 10  2  0  0  0  0
  9 13  1  0  0  0  0
 10 11  1  0  0  0  0
 11 12  1  0  0  0  0
 12 13  2  0  0  0  0
 12 18  1  0  0  0  0
 13 14  1  0  0  0  0
 14 15  1  0  0  0  0
 14 16  2  0  0  0  0
 16 17  1  0  0  0  0
 17 18  2  0  0  0  0
 17 19  1  0  0  0  0
 20 21  2  0  0  0  0
 20 22  1  0  0  0  0
M  END
>  <CHROM.1>
51.44912263,-129.46353765,-160.85768740,-78.73438131,-2.07050575,-30.47376916
26.69734825,0.41284808,-0.17356386,-2.16995312

>  <Name>
ligand

>  <RI>
0

>  <Rbt.Current_Directory>
/home/itssahil/PROJECTS/Mol_Feturizer/New_Systems/rnas/4LVY

>  <Rbt.Executable>
rbdock ($Id: //depot/dev/client3/rdock/2013.1/src/exe/rbdock.cxx#4 $)

>  <Rbt.Library>
libRbt.so (2013.1, Build901 2013/11/27)

>  <Rbt.Parameter_File>
/export/apps/rDock/src/rDock_2013.1_src/data/scripts/dock_solv.prm

>  <Rbt.Receptor>
prm/blind_docking_60.prm

>  <SCORE>
-17.5737

>  <SCORE.INTER>
-17.9492

>  <SCORE.INTER.CONST>
1

>  <SCORE.INTER.POLAR>
0

>  <SCORE.INTER.ROT>
4

>  <SCORE.INTER.SOLV>
14.4357

>  <SCORE.INTER.VDW>
-23.0447

>  <SCORE.INTER.norm>
-0.815875

>  <SCORE.INTRA>
0.30101

>  <SCORE.INTRA.DIHEDRAL>
1.39221

>  <SCORE.INTRA.DIHEDRAL.0>
6.18831

>  <SCORE.INTRA.POLAR>
0

>  <SCORE.INTRA.POLAR.0>
0

>  <SCORE.INTRA.REPUL>
0

>  <SCORE.INTRA.REPUL.0>
0

>  <SCORE.INTRA.SOLV>
0.114964

>  <SCORE.INTRA.SOLV.lig_0>
-44.3465

>  <SCORE.INTRA.VDW>
-0.452578

>  <SCORE.INTRA.VDW.0>
-0.778272

>  <SCORE.INTRA.norm>
0.0136823

>  <SCORE.RESTR>
0.0745814

>  <SCORE.RESTR.CAVITY>
0.0745814

>  <SCORE.RESTR.norm>
0.00339007

>  <SCORE.SYSTEM>
0

>  <SCORE.SYSTEM.CONST>
0

>  <SCORE.SYSTEM.DIHEDRAL>
0

>  <SCORE.SYSTEM.SOLV>
0

>  <SCORE.SYSTEM.norm>
0

>  <SCORE.heavy>
22

>  <SCORE.norm>
-0.798802

>  <RMSD>
34.613

$$$$
ligand
 OpenBabel11021811503D
libRbt.so/2013.1/901 2013/11/27
 22 24  0  0  0  0  0  0  0  0999 V2000
   -6.9476  -28.4113   30.3123 C   0  0  0  0  0  0  0  0  0  0  0  0
   -6.8449  -27.0059   30.2418 C   0  0  0  0  0  0  0  0  0  0  0  0
   -6.4089  -26.2955   31.3570 C   0  0  0  0  0  0  0  0  0  0  0  0
   -6.0792  -26.9894   32.5343 C   0  0  0  0  0  0  0  0  0  0  0  0
   -6.1910  -28.3997   32.6094 C   0  0  0  0  0  0  0  0  0  0  0  0
   -6.6266  -29.1062   31.4966 C   0  0  0  0  0  0  0  0  0  0  0  0
   -7.4456  -29.2107   29.0928 C   0  0  0  0  0  0  0  0  0  0  0  0
   -6.8308  -30.6246   28.9420 C   0  0  0  0  0  0  0  0  0  0  0  0
   -5.8581  -30.7512   27.7752 C   0  0  0  0  0  0  0  0  0  0  0  0
   -6.1603  -31.4007   26.5745 C   0  0  0  0  0  0  0  0  0  0  0  0
   -5.0586  -31.3024   25.7855 N   0  0  0  0  0  0  0  0  0  0  0  0
   -4.0312  -30.6165   26.4020 C   0  0  0  0  0  0  0  0  0  0  0  0
   -4.4915  -30.2470   27.6610 C   0  0  0  0  0  0  0  0  0  0  0  0
   -3.5823  -29.5038   28.5055 C   0  0  0  0  0  0  0  0  0  0  0  0
   -3.9791  -29.0940   29.7754 O   0  0  0  0  0  0  0  0  0  0  0  0
   -2.3102  -29.2088   28.0334 N   0  0  0  0  0  0  0  0  0  0  0  0
   -1.9047  -29.5835   26.7854 C   0  0  0  0  0  0  0  0  0  0  0  0
   -2.7219  -30.2745   25.9752 N   0  0  0  0  0  0  0  0  0  0  0  0
   -0.5568  -29.2343   26.3251 N   0  0  0  0  0  0  0  0  0  0  0  0
   -5.6155  -26.1958   33.7269 C   0  0  0  0  0  0  0  0  0  0  0  0
   -4.4708  -25.7483   33.7643 O   0  0  0  0  0  0  0  0  0  0  0  0
   -6.5306  -25.9797   34.8160 N   0  0  0  0  0  0  0  0  0  0  0  0
  1  2  2  0  0  0  0
  1  6  1  0  0  0  0
  1  7  1  0  0  0  0
  2  3  1  0  0  0  0
  3  4  2  0  0  0  0
  4  5  1  0  0  0  0
  4 20  1  0  0  0  0
  5  6  2  0  0  0  0
  7  8  1  0  0  0  0
  8  9  1  0  0  0  0
  9 10  2  0  0  0  0
  9 13  1  0  0  0  0
 10 11  1  0  0  0  0
 11 12  1  0  0  0  0
 12 13  2  0  0  0  0
 12 18  1  0  0  0  0
 13 14  1  0  0  0  0
 14 15  1  0  0  0  0
 14 16  2  0  0  0  0
 16 17  1  0  0  0  0
 17 18  2  0  0  0  0
 17 19  1  0  0  0  0
 20 21  2  0  0  0  0
 20 22  1  0  0  0  0
M  END
>  <CHROM.1>
147.79381399,-76.71304328,-109.16022501,-105.01038667,-4.98109021,-28.85771312
29.48935452,1.91545075,0.27065003,0.95757726

>  <Name>
ligand

>  <RI>
0

>  <Rbt.Current_Directory>
/home/itssahil/PROJECTS/Mol_Feturizer/New_Systems/rnas/4LVY

>  <Rbt.Executable>
rbdock ($Id: //depot/dev/client3/rdock/2013.1/src/exe/rbdock.cxx#4 $)

>  <Rbt.Library>
libRbt.so (2013.1, Build901 2013/11/27)

>  <Rbt.Parameter_File>
/export/apps/rDock/src/rDock_2013.1_src/data/scripts/dock_solv.prm

>  <Rbt.Receptor>
prm/blind_docking_60.prm

>  <SCORE>
-21.0203

>  <SCORE.INTER>
-23.0759

>  <SCORE.INTER.CONST>
1

>  <SCORE.INTER.POLAR>
0

>  <SCORE.INTER.ROT>
4

>  <SCORE.INTER.SOLV>
16.5329

>  <SCORE.INTER.VDW>
-27.1616

>  <SCORE.INTER.norm>
-1.04891

>  <SCORE.INTRA>
2.04271

>  <SCORE.INTRA.DIHEDRAL>
5.54978

>  <SCORE.INTRA.DIHEDRAL.0>
6.18831

>  <SCORE.INTRA.POLAR>
0

>  <SCORE.INTRA.POLAR.0>
0

>  <SCORE.INTRA.REPUL>
0

>  <SCORE.INTRA.REPUL.0>
0

>  <SCORE.INTRA.SOLV>
0.579759

>  <SCORE.INTRA.SOLV.lig_0>
-44.3465

>  <SCORE.INTRA.VDW>
-1.02206

>  <SCORE.INTRA.VDW.0>
-0.778272

>  <SCORE.INTRA.norm>
0.0928507

>  <SCORE.RESTR>
0.0129158

>  <SCORE.RESTR.CAVITY>
0.0129158

>  <SCORE.RESTR.norm>
0.000587083

>  <SCORE.SYSTEM>
0

>  <SCORE.SYSTEM.CONST>
0

>  <SCORE.SYSTEM.DIHEDRAL>
0

>  <SCORE.SYSTEM.SOLV>
0

>  <SCORE.SYSTEM.norm>
0

>  <SCORE.heavy>
22

>  <SCORE.norm>
-0.955468

>  <RMSD>
34.893

$$$$
ligand
 OpenBabel11021811503D
libRbt.so/2013.1/901 2013/11/27
 22 24  0  0  0  0  0  0  0  0999 V2000
   -7.1387  -27.8247   30.6145 C   0  0  0  0  0  0  0  0  0  0  0  0
   -7.0627  -28.4206   31.8911 C   0  0  0  0  0  0  0  0  0  0  0  0
   -6.4136  -27.7473   32.9224 C   0  0  0  0  0  0  0  0  0  0  0  0
   -5.8441  -26.4861   32.6750 C   0  0  0  0  0  0  0  0  0  0  0  0
   -5.9115  -25.8907   31.3913 C   0  0  0  0  0  0  0  0  0  0  0  0
   -6.5585  -26.5640   30.3641 C   0  0  0  0  0  0  0  0  0  0  0  0
   -7.8380  -28.5645   29.4579 C   0  0  0  0  0  0  0  0  0  0  0  0
   -7.1847  -29.9091   29.0515 C   0  0  0  0  0  0  0  0  0  0  0  0
   -5.6789  -29.8198   28.8319 C   0  0  0  0  0  0  0  0  0  0  0  0
   -4.8016  -29.1626   29.6998 C   0  0  0  0  0  0  0  0  0  0  0  0
   -3.5544  -29.3018   29.1789 N   0  0  0  0  0  0  0  0  0  0  0  0
   -3.5551  -30.0224   28.0013 C   0  0  0  0  0  0  0  0  0  0  0  0
   -4.8759  -30.3725   27.7435 C   0  0  0  0  0  0  0  0  0  0  0  0
   -5.1338  -31.1457   26.5485 C   0  0  0  0  0  0  0  0  0  0  0  0
   -6.4314  -31.5383   26.2323 O   0  0  0  0  0  0  0  0  0  0  0  0
   -4.0713  -31.4868   25.7222 N   0  0  0  0  0  0  0  0  0  0  0  0
   -2.7884  -31.1295   26.0207 C   0  0  0  0  0  0  0  0  0  0  0  0
   -2.5126  -30.4117   27.1209 N   0  0  0  0  0  0  0  0  0  0  0  0
   -1.6974  -31.5273   25.1252 N   0  0  0  0  0  0  0  0  0  0  0  0
   -5.1434  -25.7825   33.8069 C   0  0  0  0  0  0  0  0  0  0  0  0
   -4.7797  -24.6150   33.6782 O   0  0  0  0  0  0  0  0  0  0  0  0
   -4.9045  -26.5015   35.0301 N   0  0  0  0  0  0  0  0  0  0  0  0
  1  2  2  0  0  0  0
  1  6  1  0  0  0  0
  1  7  1  0  0  0  0
  2  3  1  0  0  0  0
  3  4  2  0  0  0  0
  4  5  1  0  0  0  0
  4 20  1  0  0  0  0
  5  6  2  0  0  0  0
  7  8  1  0  0  0  0
  8  9  1  0  0  0  0
  9 10  2  0  0  0  0
  9 13  1  0  0  0  0
 10 11  1  0  0  0  0
 11 12  1  0  0  0  0
 12 13  2  0  0  0  0
 12 18  1  0  0  0  0
 13 14  1  0  0  0  0
 14 15  1  0  0  0  0
 14 16  2  0  0  0  0
 16 17  1  0  0  0  0
 17 18  2  0  0  0  0
 17 19  1  0  0  0  0
 20 21  2  0  0  0  0
 20 22  1  0  0  0  0
M  END
>  <CHROM.1>
-62.40161178,-170.98664614,-49.49312639,45.58907308,-5.15749180,-28.84866372
29.56058109,1.79313645,0.07903593,0.93080827

>  <Name>
ligand

>  <RI>
0

>  <Rbt.Current_Directory>
/home/itssahil/PROJECTS/Mol_Feturizer/New_Systems/rnas/4LVY

>  <Rbt.Executable>
rbdock ($Id: //depot/dev/client3/rdock/2013.1/src/exe/rbdock.cxx#4 $)

>  <Rbt.Library>
libRbt.so (2013.1, Build901 2013/11/27)

>  <Rbt.Parameter_File>
/export/apps/rDock/src/rDock_2013.1_src/data/scripts/dock_solv.prm

>  <Rbt.Receptor>
prm/blind_docking_100.prm

>  <SCORE>
-20.3922

>  <SCORE.INTER>
-20.2466

>  <SCORE.INTER.CONST>
1

>  <SCORE.INTER.POLAR>
0

>  <SCORE.INTER.ROT>
4

>  <SCORE.INTER.SOLV>
22.1166

>  <SCORE.INTER.VDW>
-27.1366

>  <SCORE.INTER.norm>
-0.9203

>  <SCORE.INTRA>
-0.145631

>  <SCORE.INTRA.DIHEDRAL>
0.458389

>  <SCORE.INTRA.DIHEDRAL.0>
6.18831

>  <SCORE.INTRA.POLAR>
0

>  <SCORE.INTRA.POLAR.0>
0

>  <SCORE.INTRA.REPUL>
0

>  <SCORE.INTRA.REPUL.0>
0

>  <SCORE.INTRA.SOLV>
0.0128856

>  <SCORE.INTRA.SOLV.lig_0>
-44.3465

>  <SCORE.INTRA.VDW>
-0.381269

>  <SCORE.INTRA.VDW.0>
-0.778272

>  <SCORE.INTRA.norm>
-0.00661961

>  <SCORE.RESTR>
0

>  <SCORE.RESTR.CAVITY>
0

>  <SCORE.RESTR.norm>
0

>  <SCORE.SYSTEM>
0

>  <SCORE.SYSTEM.CONST>
0

>  <SCORE.SYSTEM.DIHEDRAL>
0

>  <SCORE.SYSTEM.SOLV>
0

>  <SCORE.SYSTEM.norm>
0

>  <SCORE.heavy>
22

>  <SCORE.norm>
-0.926919

>  <RMSD>
34.985

$$$$
ligand
 OpenBabel11021811503D
libRbt.so/2013.1/901 2013/11/27
 22 24  0  0  0  0  0  0  0  0999 V2000
   -6.8961  -29.1649   30.0736 C   0  0  0  0  0  0  0  0  0  0  0  0
   -6.0241  -29.0268   31.1741 C   0  0  0  0  0  0  0  0  0  0  0  0
   -6.0657  -27.8633   31.9376 C   0  0  0  0  0  0  0  0  0  0  0  0
   -6.9745  -26.8455   31.5993 C   0  0  0  0  0  0  0  0  0  0  0  0
   -7.8440  -26.9789   30.4889 C   0  0  0  0  0  0  0  0  0  0  0  0
   -7.8005  -28.1394   29.7284 C   0  0  0  0  0  0  0  0  0  0  0  0
   -6.8503  -30.4386   29.2077 C   0  0  0  0  0  0  0  0  0  0  0  0
   -6.1480  -30.2729   27.8369 C   0  0  0  0  0  0  0  0  0  0  0  0
   -4.6567  -29.9755   27.9417 C   0  0  0  0  0  0  0  0  0  0  0  0
   -4.0929  -29.1484   28.9178 C   0  0  0  0  0  0  0  0  0  0  0  0
   -2.7529  -29.1316   28.6937 N   0  0  0  0  0  0  0  0  0  0  0  0
   -2.3921  -29.9099   27.6119 C   0  0  0  0  0  0  0  0  0  0  0  0
   -3.5626  -30.4645   27.1060 C   0  0  0  0  0  0  0  0  0  0  0  0
   -3.4392  -31.3335   25.9562 C   0  0  0  0  0  0  0  0  0  0  0  0
   -4.5684  -31.9301   25.4021 O   0  0  0  0  0  0  0  0  0  0  0  0
   -2.1817  -31.5607   25.4129 N   0  0  0  0  0  0  0  0  0  0  0  0
   -1.0580  -31.0021   25.9495 C   0  0  0  0  0  0  0  0  0  0  0  0
   -1.1353  -30.1906   27.0159 N   0  0  0  0  0  0  0  0  0  0  0  0
    0.2501  -31.2850   25.3501 N   0  0  0  0  0  0  0  0  0  0  0  0
   -6.9945  -25.5957   32.4388 C   0  0  0  0  0  0  0  0  0  0  0  0
   -6.4873  -24.5586   32.0154 O   0  0  0  0  0  0  0  0  0  0  0  0
   -7.6088  -25.6419   33.7390 N   0  0  0  0  0  0  0  0  0  0  0  0
  1  2  2  0  0  0  0
  1  6  1  0  0  0  0
  1  7  1  0  0  0  0
  2  3  1  0  0  0  0
  3  4  2  0  0  0  0
  4  5  1  0  0  0  0
  4 20  1  0  0  0  0
  5  6  2  0  0  0  0
  7  8  1  0  0  0  0
  8  9  1  0  0  0  0
  9 10  2  0  0  0  0
  9 13  1  0  0  0  0
 10 11  1  0  0  0  0
 11 12  1  0  0  0  0
 12 13  2  0  0  0  0
 12 18  1  0  0  0  0
 13 14  1  0  0  0  0
 14 15  1  0  0  0  0
 14 16  2  0  0  0  0
 16 17  1  0  0  0  0
 17 18  2  0  0  0  0
 17 19  1  0  0  0  0
 20 21  2  0  0  0  0
 20 22  1  0  0  0  0
M  END
>  <CHROM.1>
-103.87291376,104.30116964,65.70498533,-38.17900530,-4.75723232,-29.12078876
28.85094816,2.17936625,0.20162272,0.76652223

>  <Name>
ligand

>  <RI>
0

>  <Rbt.Current_Directory>
/home/itssahil/PROJECTS/Mol_Feturizer/New_Systems/rnas/4LVY

>  <Rbt.Executable>
rbdock ($Id: //depot/dev/client3/rdock/2013.1/src/exe/rbdock.cxx#4 $)

>  <Rbt.Library>
libRbt.so (2013.1, Build901 2013/11/27)

>  <Rbt.Parameter_File>
/export/apps/rDock/src/rDock_2013.1_src/data/scripts/dock_solv.prm

>  <Rbt.Receptor>
prm/blind_docking_60.prm

>  <SCORE>
-22.848

>  <SCORE.INTER>
-22.2801

>  <SCORE.INTER.CONST>
1

>  <SCORE.INTER.POLAR>
0

>  <SCORE.INTER.ROT>
4

>  <SCORE.INTER.SOLV>
15.3926

>  <SCORE.INTER.VDW>
-26.2509

>  <SCORE.INTER.norm>
-1.01273

>  <SCORE.INTRA>
-0.567888

>  <SCORE.INTRA.DIHEDRAL>
0.146879

>  <SCORE.INTRA.DIHEDRAL.0>
6.18831

>  <SCORE.INTRA.POLAR>
0

>  <SCORE.INTRA.POLAR.0>
0

>  <SCORE.INTRA.REPUL>
0

>  <SCORE.INTRA.REPUL.0>
0

>  <SCORE.INTRA.SOLV>
-0.00732056

>  <SCORE.INTRA.SOLV.lig_0>
-44.3465

>  <SCORE.INTRA.VDW>
-0.637668

>  <SCORE.INTRA.VDW.0>
-0.778272

>  <SCORE.INTRA.norm>
-0.0258131

>  <SCORE.RESTR>
0

>  <SCORE.RESTR.CAVITY>
0

>  <SCORE.RESTR.norm>
0

>  <SCORE.SYSTEM>
0

>  <SCORE.SYSTEM.CONST>
0

>  <SCORE.SYSTEM.DIHEDRAL>
0

>  <SCORE.SYSTEM.SOLV>
0

>  <SCORE.SYSTEM.norm>
0

>  <SCORE.heavy>
22

>  <SCORE.norm>
-1.03855

>  <RMSD>
35.116

$$$$
ligand
 OpenBabel11021811503D
libRbt.so/2013.1/901 2013/11/27
 22 24  0  0  0  0  0  0  0  0999 V2000
   -6.0330  -29.1466   30.6974 C   0  0  0  0  0  0  0  0  0  0  0  0
   -6.3624  -29.2766   32.0631 C   0  0  0  0  0  0  0  0  0  0  0  0
   -6.3128  -28.1562   32.8881 C   0  0  0  0  0  0  0  0  0  0  0  0
   -5.9349  -26.9148   32.3475 C   0  0  0  0  0  0  0  0  0  0  0  0
   -5.5949  -26.7847   30.9784 C   0  0  0  0  0  0  0  0  0  0  0  0
   -5.6442  -27.9032   30.1576 C   0  0  0  0  0  0  0  0  0  0  0  0
   -6.0655  -30.3803   29.7749 C   0  0  0  0  0  0  0  0  0  0  0  0
   -6.5695  -30.1078   28.3356 C   0  0  0  0  0  0  0  0  0  0  0  0
   -5.6843  -30.7087   27.2498 C   0  0  0  0  0  0  0  0  0  0  0  0
   -6.1650  -31.4914   26.1957 C   0  0  0  0  0  0  0  0  0  0  0  0
   -5.0905  -31.8351   25.4386 N   0  0  0  0  0  0  0  0  0  0  0  0
   -3.9109  -31.3186   25.9365 C   0  0  0  0  0  0  0  0  0  0  0  0
   -4.2373  -30.5977   27.0799 C   0  0  0  0  0  0  0  0  0  0  0  0
   -3.1529  -29.9510   27.7857 C   0  0  0  0  0  0  0  0  0  0  0  0
   -3.4075  -29.2056   28.9335 O   0  0  0  0  0  0  0  0  0  0  0  0
   -1.8576  -30.0869   27.3045 N   0  0  0  0  0  0  0  0  0  0  0  0
   -1.5852  -30.7968   26.1712 C   0  0  0  0  0  0  0  0  0  0  0  0
   -2.5667  -31.4103   25.4914 N   0  0  0  0  0  0  0  0  0  0  0  0
   -0.2026  -30.8982   25.6931 N   0  0  0  0  0  0  0  0  0  0  0  0
   -5.8847  -25.7207   33.2633 C   0  0  0  0  0  0  0  0  0  0  0  0
   -6.6874  -24.7998   33.1228 O   0  0  0  0  0  0  0  0  0  0  0  0
   -4.8815  -25.6772   34.2938 N   0  0  0  0  0  0  0  0  0  0  0  0
  1  2  2  0  0  0  0
  1  6  1  0  0  0  0
  1  7  1  0  0  0  0
  2  3  1  0  0  0  0
  3  4  2  0  0  0  0
  4  5  1  0  0  0  0
  4 20  1  0  0  0  0
  5  6  2  0  0  0  0
  7  8  1  0  0  0  0
  8  9  1  0  0  0  0
  9 10  2  0  0  0  0
  9 13  1  0  0  0  0
 10 11  1  0  0  0  0
 11 12  1  0  0  0  0
 12 13  2  0  0  0  0
 12 18  1  0  0  0  0
 13 14  1  0  0  0  0
 14 15  1  0  0  0  0
 14 16  2  0  0  0  0
 16 17  1  0  0  0  0
 17 18  2  0  0  0  0
 17 19  1  0  0  0  0
 20 21  2  0  0  0  0
 20 22  1  0  0  0  0
M  END
>  <CHROM.1>
143.18685710,-112.48672946,132.41537827,130.06295429,-4.68849299,-29.21294685
29.14441498,1.92414525,0.23775085,0.88256556

>  <Name>
ligand

>  <RI>
0

>  <Rbt.Current_Directory>
/home/itssahil/PROJECTS/Mol_Feturizer/New_Systems/rnas/4LVY

>  <Rbt.Executable>
rbdock ($Id: //depot/dev/client3/rdock/2013.1/src/exe/rbdock.cxx#4 $)

>  <Rbt.Library>
libRbt.so (2013.1, Build901 2013/11/27)

>  <Rbt.Parameter_File>
/export/apps/rDock/src/rDock_2013.1_src/data/scripts/dock_solv.prm

>  <Rbt.Receptor>
prm/blind_docking_80.prm

>  <SCORE>
-26.5693

>  <SCORE.INTER>
-29.1869

>  <SCORE.INTER.CONST>
1

>  <SCORE.INTER.POLAR>
0

>  <SCORE.INTER.ROT>
4

>  <SCORE.INTER.SOLV>
13.9674

>  <SCORE.INTER.VDW>
-30.3804

>  <SCORE.INTER.norm>
-1.32668

>  <SCORE.INTRA>
2.46741

>  <SCORE.INTRA.DIHEDRAL>
5.42537

>  <SCORE.INTRA.DIHEDRAL.0>
6.18831

>  <SCORE.INTRA.POLAR>
0

>  <SCORE.INTRA.POLAR.0>
0

>  <SCORE.INTRA.REPUL>
0

>  <SCORE.INTRA.REPUL.0>
0

>  <SCORE.INTRA.SOLV>
0.636606

>  <SCORE.INTRA.SOLV.lig_0>
-44.3465

>  <SCORE.INTRA.VDW>
-0.56358

>  <SCORE.INTRA.VDW.0>
-0.778272

>  <SCORE.INTRA.norm>
0.112155

>  <SCORE.RESTR>
0.15018

>  <SCORE.RESTR.CAVITY>
0.15018

>  <SCORE.RESTR.norm>
0.00682634

>  <SCORE.SYSTEM>
0

>  <SCORE.SYSTEM.CONST>
0

>  <SCORE.SYSTEM.DIHEDRAL>
0

>  <SCORE.SYSTEM.SOLV>
0

>  <SCORE.SYSTEM.norm>
0

>  <SCORE.heavy>
22

>  <SCORE.norm>
-1.20769

>  <RMSD>
35.146

$$$$
ligand
 OpenBabel11021811503D
libRbt.so/2013.1/901 2013/11/27
 22 24  0  0  0  0  0  0  0  0999 V2000
   -6.0705  -29.1400   30.6974 C   0  0  0  0  0  0  0  0  0  0  0  0
   -6.3385  -29.3275   32.0698 C   0  0  0  0  0  0  0  0  0  0  0  0
   -6.3180  -28.2302   32.9265 C   0  0  0  0  0  0  0  0  0  0  0  0
   -6.0302  -26.9546   32.4107 C   0  0  0  0  0  0  0  0  0  0  0  0
   -5.7516  -26.7663   31.0346 C   0  0  0  0  0  0  0  0  0  0  0  0
   -5.7718  -27.8618   30.1820 C   0  0  0  0  0  0  0  0  0  0  0  0
   -6.0716  -30.3465   29.7390 C   0  0  0  0  0  0  0  0  0  0  0  0
   -6.5393  -30.0350   28.2954 C   0  0  0  0  0  0  0  0  0  0  0  0
   -5.6669  -30.6662   27.2165 C   0  0  0  0  0  0  0  0  0  0  0  0
   -6.1631  -31.4575   26.1761 C   0  0  0  0  0  0  0  0  0  0  0  0
   -5.0964  -31.8295   25.4212 N   0  0  0  0  0  0  0  0  0  0  0  0
   -3.9074  -31.3237   25.9076 C   0  0  0  0  0  0  0  0  0  0  0  0
   -4.2190  -30.5803   27.0406 C   0  0  0  0  0  0  0  0  0  0  0  0
   -3.1225  -29.9397   27.7331 C   0  0  0  0  0  0  0  0  0  0  0  0
   -3.3619  -29.1728   28.8700 O   0  0  0  0  0  0  0  0  0  0  0  0
   -1.8309  -30.1031   27.2503 N   0  0  0  0  0  0  0  0  0  0  0  0
   -1.5732  -30.8345   26.1273 C   0  0  0  0  0  0  0  0  0  0  0  0
   -2.5662  -31.4431   25.4600 N   0  0  0  0  0  0  0  0  0  0  0  0
   -0.1938  -30.9647   25.6468 N   0  0  0  0  0  0  0  0  0  0  0  0
   -6.0095  -25.7864   33.3605 C   0  0  0  0  0  0  0  0  0  0  0  0
   -5.0581  -25.6266   34.1231 O   0  0  0  0  0  0  0  0  0  0  0  0
   -7.1204  -24.8721   33.3617 N   0  0  0  0  0  0  0  0  0  0  0  0
  1  2  2  0  0  0  0
  1  6  1  0  0  0  0
  1  7  1  0  0  0  0
  2  3  1  0  0  0  0
  3  4  2  0  0  0  0
  4  5  1  0  0  0  0
  4 20  1  0  0  0  0
  5  6  2  0  0  0  0
  7  8  1  0  0  0  0
  8  9  1  0  0  0  0
  9 10  2  0  0  0  0
  9 13  1  0  0  0  0
 10 11  1  0  0  0  0
 11 12  1  0  0  0  0
 12 13  2  0  0  0  0
 12 18  1  0  0  0  0
 13 14  1  0  0  0  0
 14 15  1  0  0  0  0
 14 16  2  0  0  0  0
 16 17  1  0  0  0  0
 17 18  2  0  0  0  0
 17 19  1  0  0  0  0
 20 21  2  0  0  0  0
 20 22  1  0  0  0  0
M  END
>  <CHROM.1>
147.86723428,75.52158960,135.70906191,127.43866332,-4.72022619,-29.22234889
29.14300739,1.93935022,0.21892144,0.89593012

>  <Name>
ligand

>  <RI>
0

>  <Rbt.Current_Directory>
/home/itssahil/PROJECTS/Mol_Feturizer/New_Systems/rnas/4LVY

>  <Rbt.Executable>
rbdock ($Id: //depot/dev/client3/rdock/2013.1/src/exe/rbdock.cxx#4 $)

>  <Rbt.Library>
libRbt.so (2013.1, Build901 2013/11/27)

>  <Rbt.Parameter_File>
/export/apps/rDock/src/rDock_2013.1_src/data/scripts/dock_solv.prm

>  <Rbt.Receptor>
prm/blind_docking_60.prm

>  <SCORE>
-26.6023

>  <SCORE.INTER>
-29.0393

>  <SCORE.INTER.CONST>
1

>  <SCORE.INTER.POLAR>
0

>  <SCORE.INTER.ROT>
4

>  <SCORE.INTER.SOLV>
13.2103

>  <SCORE.INTER.VDW>
-30.0296

>  <SCORE.INTER.norm>
-1.31997

>  <SCORE.INTRA>
2.24474

>  <SCORE.INTRA.DIHEDRAL>
5.10111

>  <SCORE.INTRA.DIHEDRAL.0>
6.18831

>  <SCORE.INTRA.POLAR>
0

>  <SCORE.INTRA.POLAR.0>
0

>  <SCORE.INTRA.REPUL>
0

>  <SCORE.INTRA.REPUL.0>
0

>  <SCORE.INTRA.SOLV>
0.567725

>  <SCORE.INTRA.SOLV.lig_0>
-44.3465

>  <SCORE.INTRA.VDW>
-0.589676

>  <SCORE.INTRA.VDW.0>
-0.778272

>  <SCORE.INTRA.norm>
0.102034

>  <SCORE.RESTR>
0.192262

>  <SCORE.RESTR.CAVITY>
0.192262

>  <SCORE.RESTR.norm>
0.0087392

>  <SCORE.SYSTEM>
0

>  <SCORE.SYSTEM.CONST>
0

>  <SCORE.SYSTEM.DIHEDRAL>
0

>  <SCORE.SYSTEM.SOLV>
0

>  <SCORE.SYSTEM.norm>
0

>  <SCORE.heavy>
22

>  <SCORE.norm>
-1.20919

>  <RMSD>
35.170

$$$$
ligand
 OpenBabel11021811503D
libRbt.so/2013.1/901 2013/11/27
 22 24  0  0  0  0  0  0  0  0999 V2000
   -6.0767  -29.1550   30.6982 C   0  0  0  0  0  0  0  0  0  0  0  0
   -5.8432  -27.8564   30.1986 C   0  0  0  0  0  0  0  0  0  0  0  0
   -5.8657  -26.7732   31.0729 C   0  0  0  0  0  0  0  0  0  0  0  0
   -6.1213  -26.9907   32.4380 C   0  0  0  0  0  0  0  0  0  0  0  0
   -6.3653  -28.2930   32.9394 C   0  0  0  0  0  0  0  0  0  0  0  0
   -6.3432  -29.3717   32.0659 C   0  0  0  0  0  0  0  0  0  0  0  0
   -6.0730  -30.3624   29.7409 C   0  0  0  0  0  0  0  0  0  0  0  0
   -6.5471  -30.0551   28.2984 C   0  0  0  0  0  0  0  0  0  0  0  0
   -5.6701  -30.6759   27.2173 C   0  0  0  0  0  0  0  0  0  0  0  0
   -6.1615  -31.4598   26.1690 C   0  0  0  0  0  0  0  0  0  0  0  0
   -5.0917  -31.8238   25.4145 N   0  0  0  0  0  0  0  0  0  0  0  0
   -3.9052  -31.3196   25.9087 C   0  0  0  0  0  0  0  0  0  0  0  0
   -4.2218  -30.5859   27.0467 C   0  0  0  0  0  0  0  0  0  0  0  0
   -3.1287  -29.9488   27.7478 C   0  0  0  0  0  0  0  0  0  0  0  0
   -3.3732  -29.1915   28.8901 O   0  0  0  0  0  0  0  0  0  0  0  0
   -1.8353  -30.1058   27.2678 N   0  0  0  0  0  0  0  0  0  0  0  0
   -1.5727  -30.8278   26.1398 C   0  0  0  0  0  0  0  0  0  0  0  0
   -2.5624  -31.4328   25.4644 N   0  0  0  0  0  0  0  0  0  0  0  0
   -0.1915  -30.9514   25.6627 N   0  0  0  0  0  0  0  0  0  0  0  0
   -6.1451  -25.8007   33.3603 C   0  0  0  0  0  0  0  0  0  0  0  0
   -6.9077  -25.7815   34.3247 O   0  0  0  0  0  0  0  0  0  0  0  0
   -5.2685  -24.6929   33.0877 N   0  0  0  0  0  0  0  0  0  0  0  0
  1  2  2  0  0  0  0
  1  6  1  0  0  0  0
  1  7  1  0  0  0  0
  2  3  1  0  0  0  0
  3  4  2  0  0  0  0
  4  5  1  0  0  0  0
  4 20  1  0  0  0  0
  5  6  2  0  0  0  0
  7  8  1  0  0  0  0
  8  9  1  0  0  0  0
  9 10  2  0  0  0  0
  9 13  1  0  0  0  0
 10 11  1  0  0  0  0
 11 12  1  0  0  0  0
 12 13  2  0  0  0  0
 12 18  1  0  0  0  0
 13 14  1  0  0  0  0
 14 15  1  0  0  0  0
 14 16  2  0  0  0  0
 16 17  1  0  0  0  0
 17 18  2  0  0  0  0
 17 19  1  0  0  0  0
 20 21  2  0  0  0  0
 20 22  1  0  0  0  0
M  END
>  <CHROM.1>
-30.90634643,146.33559384,135.42481550,128.17437385,-4.75383949,-29.23172196
29.14878244,1.95921595,0.28228140,0.87182465

>  <Name>
ligand

>  <RI>
0

>  <Rbt.Current_Directory>
/home/itssahil/PROJECTS/Mol_Feturizer/New_Systems/rnas/4LVY

>  <Rbt.Executable>
rbdock ($Id: //depot/dev/client3/rdock/2013.1/src/exe/rbdock.cxx#4 $)

>  <Rbt.Library>
libRbt.so (2013.1, Build901 2013/11/27)

>  <Rbt.Parameter_File>
/export/apps/rDock/src/rDock_2013.1_src/data/scripts/dock_solv.prm

>  <Rbt.Receptor>
prm/blind_docking_100.prm

>  <SCORE>
-26.02

>  <SCORE.INTER>
-28.69

>  <SCORE.INTER.CONST>
1

>  <SCORE.INTER.POLAR>
0

>  <SCORE.INTER.ROT>
4

>  <SCORE.INTER.SOLV>
13.8479

>  <SCORE.INTER.VDW>
-30.0093

>  <SCORE.INTER.norm>
-1.30409

>  <SCORE.INTRA>
2.47318

>  <SCORE.INTRA.DIHEDRAL>
5.23728

>  <SCORE.INTRA.DIHEDRAL.0>
6.18831

>  <SCORE.INTRA.POLAR>
0

>  <SCORE.INTRA.POLAR.0>
0

>  <SCORE.INTRA.REPUL>
0

>  <SCORE.INTRA.REPUL.0>
0

>  <SCORE.INTRA.SOLV>
0.577454

>  <SCORE.INTRA.SOLV.lig_0>
-44.3465

>  <SCORE.INTRA.VDW>
-0.434184

>  <SCORE.INTRA.VDW.0>
-0.778272

>  <SCORE.INTRA.norm>
0.112417

>  <SCORE.RESTR>
0.196817

>  <SCORE.RESTR.CAVITY>
0.196817

>  <SCORE.RESTR.norm>
0.00894621

>  <SCORE.SYSTEM>
0

>  <SCORE.SYSTEM.CONST>
0

>  <SCORE.SYSTEM.DIHEDRAL>
0

>  <SCORE.SYSTEM.SOLV>
0

>  <SCORE.SYSTEM.norm>
0

>  <SCORE.heavy>
22

>  <SCORE.norm>
-1.18273

>  <RMSD>
35.185

$$$$
ligand
 OpenBabel11021811503D
libRbt.so/2013.1/901 2013/11/27
 22 24  0  0  0  0  0  0  0  0999 V2000
   -7.5221  -28.5077   30.0626 C   0  0  0  0  0  0  0  0  0  0  0  0
   -6.5255  -28.7599   31.0289 C   0  0  0  0  0  0  0  0  0  0  0  0
   -6.4938  -27.9976   32.1935 C   0  0  0  0  0  0  0  0  0  0  0  0
   -7.4540  -26.9892   32.3870 C   0  0  0  0  0  0  0  0  0  0  0  0
   -8.4494  -26.7286   31.4133 C   0  0  0  0  0  0  0  0  0  0  0  0
   -8.4789  -27.4893   30.2525 C   0  0  0  0  0  0  0  0  0  0  0  0
   -7.5602  -29.3304   28.7604 C   0  0  0  0  0  0  0  0  0  0  0  0
   -6.7784  -30.6670   28.8079 C   0  0  0  0  0  0  0  0  0  0  0  0
   -5.8301  -30.8671   27.6314 C   0  0  0  0  0  0  0  0  0  0  0  0
   -6.1862  -31.5128   26.4434 C   0  0  0  0  0  0  0  0  0  0  0  0
   -5.0908  -31.4914   25.6399 N   0  0  0  0  0  0  0  0  0  0  0  0
   -4.0162  -30.8607   26.2345 C   0  0  0  0  0  0  0  0  0  0  0  0
   -4.4373  -30.4479   27.4938 C   0  0  0  0  0  0  0  0  0  0  0  0
   -3.4742  -29.7499   28.3170 C   0  0  0  0  0  0  0  0  0  0  0  0
   -3.8294  -29.3004   29.5859 O   0  0  0  0  0  0  0  0  0  0  0  0
   -2.1929  -29.5383   27.8257 N   0  0  0  0  0  0  0  0  0  0  0  0
   -1.8266  -29.9530   26.5781 C   0  0  0  0  0  0  0  0  0  0  0  0
   -2.6942  -30.6039   25.7874 N   0  0  0  0  0  0  0  0  0  0  0  0
   -0.4662  -29.6918   26.0969 N   0  0  0  0  0  0  0  0  0  0  0  0
   -7.3932  -26.1763   33.6530 C   0  0  0  0  0  0  0  0  0  0  0  0
   -8.3446  -26.1736   34.4320 O   0  0  0  0  0  0  0  0  0  0  0  0
   -6.2106  -25.4039   33.9265 N   0  0  0  0  0  0  0  0  0  0  0  0
  1  2  2  0  0  0  0
  1  6  1  0  0  0  0
  1  7  1  0  0  0  0
  2  3  1  0  0  0  0
  3  4  2  0  0  0  0
  4  5  1  0  0  0  0
  4 20  1  0  0  0  0
  5  6  2  0  0  0  0
  7  8  1  0  0  0  0
  8  9  1  0  0  0  0
  9 10  2  0  0  0  0
  9 13  1  0  0  0  0
 10 11  1  0  0  0  0
 11 12  1  0  0  0  0
 12 13  2  0  0  0  0
 12 18  1  0  0  0  0
 13 14  1  0  0  0  0
 14 15  1  0  0  0  0
 14 16  2  0  0  0  0
 16 17  1  0  0  0  0
 17 18  2  0  0  0  0
 17 19  1  0  0  0  0
 20 21  2  0  0  0  0
 20 22  1  0  0  0  0
M  END
>  <CHROM.1>
18.68831260,-119.83053186,-130.32063635,-91.40950684,-5.47494210,-29.00102674
29.31582889,2.11429155,0.15782674,0.93177189

>  <Name>
ligand

>  <RI>
0

>  <Rbt.Current_Directory>
/home/itssahil/PROJECTS/Mol_Feturizer/New_Systems/rnas/4LVY

>  <Rbt.Executable>
rbdock ($Id: //depot/dev/client3/rdock/2013.1/src/exe/rbdock.cxx#4 $)

>  <Rbt.Library>
libRbt.so (2013.1, Build901 2013/11/27)

>  <Rbt.Parameter_File>
/export/apps/rDock/src/rDock_2013.1_src/data/scripts/dock_solv.prm

>  <Rbt.Receptor>
prm/blind_docking_80.prm

>  <SCORE>
-18.6403

>  <SCORE.INTER>
-21.1936

>  <SCORE.INTER.CONST>
1

>  <SCORE.INTER.POLAR>
0

>  <SCORE.INTER.ROT>
4

>  <SCORE.INTER.SOLV>
13.4414

>  <SCORE.INTER.VDW>
-24.8762

>  <SCORE.INTER.norm>
-0.963347

>  <SCORE.INTRA>
2.5533

>  <SCORE.INTRA.DIHEDRAL>
5.6196

>  <SCORE.INTRA.DIHEDRAL.0>
6.18831

>  <SCORE.INTRA.POLAR>
0

>  <SCORE.INTRA.POLAR.0>
0

>  <SCORE.INTRA.REPUL>
0

>  <SCORE.INTRA.REPUL.0>
0

>  <SCORE.INTRA.SOLV>
0.321812

>  <SCORE.INTRA.SOLV.lig_0>
-44.3465

>  <SCORE.INTRA.VDW>
-0.417403

>  <SCORE.INTRA.VDW.0>
-0.778272

>  <SCORE.INTRA.norm>
0.116059

>  <SCORE.RESTR>
0

>  <SCORE.RESTR.CAVITY>
0

>  <SCORE.RESTR.norm>
0

>  <SCORE.SYSTEM>
0

>  <SCORE.SYSTEM.CONST>
0

>  <SCORE.SYSTEM.DIHEDRAL>
0

>  <SCORE.SYSTEM.SOLV>
0

>  <SCORE.SYSTEM.norm>
0

>  <SCORE.heavy>
22

>  <SCORE.norm>
-0.847288

>  <RMSD>
35.198

$$$$
ligand
 OpenBabel11021811503D
libRbt.so/2013.1/901 2013/11/27
 22 24  0  0  0  0  0  0  0  0999 V2000
   -6.1031  -29.2244   30.7324 C   0  0  0  0  0  0  0  0  0  0  0  0
   -6.3125  -29.3921   32.1176 C   0  0  0  0  0  0  0  0  0  0  0  0
   -6.2795  -28.2793   32.9536 C   0  0  0  0  0  0  0  0  0  0  0  0
   -6.0374  -27.0080   32.4047 C   0  0  0  0  0  0  0  0  0  0  0  0
   -5.8175  -26.8395   31.0154 C   0  0  0  0  0  0  0  0  0  0  0  0
   -5.8501  -27.9504   30.1835 C   0  0  0  0  0  0  0  0  0  0  0  0
   -6.1186  -30.4479   29.7960 C   0  0  0  0  0  0  0  0  0  0  0  0
   -6.6123  -30.1630   28.3555 C   0  0  0  0  0  0  0  0  0  0  0  0
   -5.7057  -30.7328   27.2706 C   0  0  0  0  0  0  0  0  0  0  0  0
   -6.1633  -31.4991   26.1944 C   0  0  0  0  0  0  0  0  0  0  0  0
   -5.0748  -31.8164   25.4458 N   0  0  0  0  0  0  0  0  0  0  0  0
   -3.9078  -31.2978   25.9706 C   0  0  0  0  0  0  0  0  0  0  0  0
   -4.2578  -30.6034   27.1233 C   0  0  0  0  0  0  0  0  0  0  0  0
   -3.1902  -29.9598   27.8571 C   0  0  0  0  0  0  0  0  0  0  0  0
   -3.4687  -29.2403   29.0159 O   0  0  0  0  0  0  0  0  0  0  0  0
   -1.8869  -30.0726   27.3917 N   0  0  0  0  0  0  0  0  0  0  0  0
   -1.5913  -30.7567   26.2484 C   0  0  0  0  0  0  0  0  0  0  0  0
   -2.5566  -31.3665   25.5427 N   0  0  0  0  0  0  0  0  0  0  0  0
   -0.2011  -30.8341   25.7880 N   0  0  0  0  0  0  0  0  0  0  0  0
   -6.0018  -25.8226   33.3325 C   0  0  0  0  0  0  0  0  0  0  0  0
   -5.0092  -25.6109   34.0268 O   0  0  0  0  0  0  0  0  0  0  0  0
   -7.1470  -24.9539   33.3940 N   0  0  0  0  0  0  0  0  0  0  0  0
  1  2  2  0  0  0  0
  1  6  1  0  0  0  0
  1  7  1  0  0  0  0
  2  3  1  0  0  0  0
  3  4  2  0  0  0  0
  4  5  1  0  0  0  0
  4 20  1  0  0  0  0
  5  6  2  0  0  0  0
  7  8  1  0  0  0  0
  8  9  1  0  0  0  0
  9 10  2  0  0  0  0
  9 13  1  0  0  0  0
 10 11  1  0  0  0  0
 11 12  1  0  0  0  0
 12 13  2  0  0  0  0
 12 18  1  0  0  0  0
 13 14  1  0  0  0  0
 14 15  1  0  0  0  0
 14 16  2  0  0  0  0
 16 17  1  0  0  0  0
 17 18  2  0  0  0  0
 17 19  1  0  0  0  0
 20 21  2  0  0  0  0
 20 22  1  0  0  0  0
M  END
>  <CHROM.1>
149.48610804,77.50216878,131.81174875,130.59208636,-4.74379439,-29.24909738
29.19406287,1.94063395,0.23194525,0.89173809

>  <Name>
ligand

>  <RI>
0

>  <Rbt.Current_Directory>
/home/itssahil/PROJECTS/Mol_Feturizer/New_Systems/rnas/4LVY

>  <Rbt.Executable>
rbdock ($Id: //depot/dev/client3/rdock/2013.1/src/exe/rbdock.cxx#4 $)

>  <Rbt.Library>
libRbt.so (2013.1, Build901 2013/11/27)

>  <Rbt.Parameter_File>
/export/apps/rDock/src/rDock_2013.1_src/data/scripts/dock_solv.prm

>  <Rbt.Receptor>
prm/blind_docking_80.prm

>  <SCORE>
-26.4079

>  <SCORE.INTER>
-29.0781

>  <SCORE.INTER.CONST>
1

>  <SCORE.INTER.POLAR>
0

>  <SCORE.INTER.ROT>
4

>  <SCORE.INTER.SOLV>
12.8683

>  <SCORE.INTER.VDW>
-29.9415

>  <SCORE.INTER.norm>
-1.32173

>  <SCORE.INTRA>
2.54075

>  <SCORE.INTRA.DIHEDRAL>
5.50974

>  <SCORE.INTRA.DIHEDRAL.0>
6.18831

>  <SCORE.INTRA.POLAR>
0

>  <SCORE.INTRA.POLAR.0>
0

>  <SCORE.INTRA.REPUL>
0

>  <SCORE.INTRA.REPUL.0>
0

>  <SCORE.INTRA.SOLV>
0.615773

>  <SCORE.INTRA.SOLV.lig_0>
-44.3465

>  <SCORE.INTRA.VDW>
-0.522007

>  <SCORE.INTRA.VDW.0>
-0.778272

>  <SCORE.INTRA.norm>
0.115489

>  <SCORE.RESTR>
0.129409

>  <SCORE.RESTR.CAVITY>
0.129409

>  <SCORE.RESTR.norm>
0.00588221

>  <SCORE.SYSTEM>
0

>  <SCORE.SYSTEM.CONST>
0

>  <SCORE.SYSTEM.DIHEDRAL>
0

>  <SCORE.SYSTEM.SOLV>
0

>  <SCORE.SYSTEM.norm>
0

>  <SCORE.heavy>
22

>  <SCORE.norm>
-1.20036

>  <RMSD>
35.202

$$$$
ligand
 OpenBabel11021811503D
libRbt.so/2013.1/901 2013/11/27
 22 24  0  0  0  0  0  0  0  0999 V2000
   -6.0669  -29.1802   30.7055 C   0  0  0  0  0  0  0  0  0  0  0  0
   -5.8847  -27.8710   30.2121 C   0  0  0  0  0  0  0  0  0  0  0  0
   -5.9003  -26.7979   31.0989 C   0  0  0  0  0  0  0  0  0  0  0  0
   -6.0979  -27.0359   32.4702 C   0  0  0  0  0  0  0  0  0  0  0  0
   -6.2905  -28.3490   32.9657 C   0  0  0  0  0  0  0  0  0  0  0  0
   -6.2754  -29.4177   32.0798 C   0  0  0  0  0  0  0  0  0  0  0  0
   -6.0703  -30.3771   29.7351 C   0  0  0  0  0  0  0  0  0  0  0  0
   -6.5321  -30.0490   28.2932 C   0  0  0  0  0  0  0  0  0  0  0  0
   -5.6608  -30.6756   27.2107 C   0  0  0  0  0  0  0  0  0  0  0  0
   -6.1583  -31.4611   26.1664 C   0  0  0  0  0  0  0  0  0  0  0  0
   -5.0924  -31.8304   25.4092 N   0  0  0  0  0  0  0  0  0  0  0  0
   -3.9026  -31.3285   25.8977 C   0  0  0  0  0  0  0  0  0  0  0  0
   -4.2129  -30.5905   27.0347 C   0  0  0  0  0  0  0  0  0  0  0  0
   -3.1154  -29.9547   27.7300 C   0  0  0  0  0  0  0  0  0  0  0  0
   -3.3535  -29.1934   28.8710 O   0  0  0  0  0  0  0  0  0  0  0  0
   -1.8242  -30.1171   27.2459 N   0  0  0  0  0  0  0  0  0  0  0  0
   -1.5677  -30.8431   26.1191 C   0  0  0  0  0  0  0  0  0  0  0  0
   -2.5617  -31.4471   25.4490 N   0  0  0  0  0  0  0  0  0  0  0  0
   -0.1887  -30.9723   25.6374 N   0  0  0  0  0  0  0  0  0  0  0  0
   -6.1155  -25.8566   33.4062 C   0  0  0  0  0  0  0  0  0  0  0  0
   -6.9185  -25.8180   34.3367 O   0  0  0  0  0  0  0  0  0  0  0  0
   -5.1850  -24.7814   33.1866 N   0  0  0  0  0  0  0  0  0  0  0  0
  1  2  2  0  0  0  0
  1  6  1  0  0  0  0
  1  7  1  0  0  0  0
  2  3  1  0  0  0  0
  3  4  2  0  0  0  0
  4  5  1  0  0  0  0
  4 20  1  0  0  0  0
  5  6  2  0  0  0  0
  7  8  1  0  0  0  0
  8  9  1  0  0  0  0
  9 10  2  0  0  0  0
  9 13  1  0  0  0  0
 10 11  1  0  0  0  0
 11 12  1  0  0  0  0
 12 13  2  0  0  0  0
 12 18  1  0  0  0  0
 13 14  1  0  0  0  0
 14 15  1  0  0  0  0
 14 16  2  0  0  0  0
 16 17  1  0  0  0  0
 17 18  2  0  0  0  0
 17 19  1  0  0  0  0
 20 21  2  0  0  0  0
 20 22  1  0  0  0  0
M  END
>  <CHROM.1>
-27.64477171,140.36404190,135.83093328,127.01194875,-4.74049946,-29.25394139
29.15332992,1.95542481,0.27630002,0.88272548

>  <Name>
ligand

>  <RI>
0

>  <Rbt.Current_Directory>
/home/itssahil/PROJECTS/Mol_Feturizer/New_Systems/rnas/4LVY

>  <Rbt.Executable>
rbdock ($Id: //depot/dev/client3/rdock/2013.1/src/exe/rbdock.cxx#4 $)

>  <Rbt.Library>
libRbt.so (2013.1, Build901 2013/11/27)

>  <Rbt.Parameter_File>
/export/apps/rDock/src/rDock_2013.1_src/data/scripts/dock_solv.prm

>  <Rbt.Receptor>
prm/blind_docking_100.prm

>  <SCORE>
-26.0496

>  <SCORE.INTER>
-28.6867

>  <SCORE.INTER.CONST>
1

>  <SCORE.INTER.POLAR>
0

>  <SCORE.INTER.ROT>
4

>  <SCORE.INTER.SOLV>
14.007

>  <SCORE.INTER.VDW>
-30.0602

>  <SCORE.INTER.norm>
-1.30394

>  <SCORE.INTRA>
2.4342

>  <SCORE.INTRA.DIHEDRAL>
5.19394

>  <SCORE.INTRA.DIHEDRAL.0>
6.18831

>  <SCORE.INTRA.POLAR>
0

>  <SCORE.INTRA.POLAR.0>
0

>  <SCORE.INTRA.REPUL>
0

>  <SCORE.INTRA.REPUL.0>
0

>  <SCORE.INTRA.SOLV>
0.5581

>  <SCORE.INTRA.SOLV.lig_0>
-44.3465

>  <SCORE.INTRA.VDW>
-0.441817

>  <SCORE.INTRA.VDW.0>
-0.778272

>  <SCORE.INTRA.norm>
0.110646

>  <SCORE.RESTR>
0.202926

>  <SCORE.RESTR.CAVITY>
0.202926

>  <SCORE.RESTR.norm>
0.0092239

>  <SCORE.SYSTEM>
0

>  <SCORE.SYSTEM.CONST>
0

>  <SCORE.SYSTEM.DIHEDRAL>
0

>  <SCORE.SYSTEM.SOLV>
0

>  <SCORE.SYSTEM.norm>
0

>  <SCORE.heavy>
22

>  <SCORE.norm>
-1.18407

>  <RMSD>
35.203

$$$$
ligand
 OpenBabel11021811503D
libRbt.so/2013.1/901 2013/11/27
 22 24  0  0  0  0  0  0  0  0999 V2000
   -6.0848  -29.1707   30.7099 C   0  0  0  0  0  0  0  0  0  0  0  0
   -6.3498  -29.3837   32.0793 C   0  0  0  0  0  0  0  0  0  0  0  0
   -6.3425  -28.3003   32.9536 C   0  0  0  0  0  0  0  0  0  0  0  0
   -6.0706  -27.0130   32.4585 C   0  0  0  0  0  0  0  0  0  0  0  0
   -5.7951  -26.7991   31.0855 C   0  0  0  0  0  0  0  0  0  0  0  0
   -5.8021  -27.8807   30.2153 C   0  0  0  0  0  0  0  0  0  0  0  0
   -6.0714  -30.3615   29.7322 C   0  0  0  0  0  0  0  0  0  0  0  0
   -6.5263  -30.0284   28.2893 C   0  0  0  0  0  0  0  0  0  0  0  0
   -5.6564  -30.6603   27.2088 C   0  0  0  0  0  0  0  0  0  0  0  0
   -6.1558  -31.4460   26.1656 C   0  0  0  0  0  0  0  0  0  0  0  0
   -5.0906  -31.8207   25.4100 N   0  0  0  0  0  0  0  0  0  0  0  0
   -3.8994  -31.3222   25.8986 C   0  0  0  0  0  0  0  0  0  0  0  0
   -4.2080  -30.5809   27.0339 C   0  0  0  0  0  0  0  0  0  0  0  0
   -3.1087  -29.9478   27.7290 C   0  0  0  0  0  0  0  0  0  0  0  0
   -3.3450  -29.1834   28.8682 O   0  0  0  0  0  0  0  0  0  0  0  0
   -1.8177  -30.1159   27.2463 N   0  0  0  0  0  0  0  0  0  0  0  0
   -1.5630  -30.8450   26.1211 C   0  0  0  0  0  0  0  0  0  0  0  0
   -2.5585  -31.4466   25.4513 N   0  0  0  0  0  0  0  0  0  0  0  0
   -0.1840  -30.9803   25.6409 N   0  0  0  0  0  0  0  0  0  0  0  0
   -6.0639  -25.8602   33.4271 C   0  0  0  0  0  0  0  0  0  0  0  0
   -6.9976  -25.0601   33.4420 O   0  0  0  0  0  0  0  0  0  0  0  0
   -4.9479  -25.7119   34.3229 N   0  0  0  0  0  0  0  0  0  0  0  0
  1  2  2  0  0  0  0
  1  6  1  0  0  0  0
  1  7  1  0  0  0  0
  2  3  1  0  0  0  0
  3  4  2  0  0  0  0
  4  5  1  0  0  0  0
  4 20  1  0  0  0  0
  5  6  2  0  0  0  0
  7  8  1  0  0  0  0
  8  9  1  0  0  0  0
  9 10  2  0  0  0  0
  9 13  1  0  0  0  0
 10 11  1  0  0  0  0
 11 12  1  0  0  0  0
 12 13  2  0  0  0  0
 12 18  1  0  0  0  0
 13 14  1  0  0  0  0
 14 15  1  0  0  0  0
 14 16  2  0  0  0  0
 16 17  1  0  0  0  0
 17 18  2  0  0  0  0
 17 19  1  0  0  0  0
 20 21  2  0  0  0  0
 20 22  1  0  0  0  0
M  END
>  <CHROM.1>
148.61878103,-105.69844526,136.81729969,126.70600667,-4.72558325,-29.24823769
29.15831986,1.94258476,0.21181280,0.90960000

>  <Name>
ligand

>  <RI>
0

>  <Rbt.Current_Directory>
/home/itssahil/PROJECTS/Mol_Feturizer/New_Systems/rnas/4LVY

>  <Rbt.Executable>
rbdock ($Id: //depot/dev/client3/rdock/2013.1/src/exe/rbdock.cxx#4 $)

>  <Rbt.Library>
libRbt.so (2013.1, Build901 2013/11/27)

>  <Rbt.Parameter_File>
/export/apps/rDock/src/rDock_2013.1_src/data/scripts/dock_solv.prm

>  <Rbt.Receptor>
prm/blind_docking_100.prm

>  <SCORE>
-26.6536

>  <SCORE.INTER>
-29.0034

>  <SCORE.INTER.CONST>
1

>  <SCORE.INTER.POLAR>
0

>  <SCORE.INTER.ROT>
4

>  <SCORE.INTER.SOLV>
13.9569

>  <SCORE.INTER.VDW>
-30.2545

>  <SCORE.INTER.norm>
-1.31833

>  <SCORE.INTRA>
2.15344

>  <SCORE.INTRA.DIHEDRAL>
4.92853

>  <SCORE.INTRA.DIHEDRAL.0>
6.18831

>  <SCORE.INTRA.POLAR>
0

>  <SCORE.INTRA.POLAR.0>
0

>  <SCORE.INTRA.REPUL>
0

>  <SCORE.INTRA.REPUL.0>
0

>  <SCORE.INTRA.SOLV>
0.554105

>  <SCORE.INTRA.SOLV.lig_0>
-44.3465

>  <SCORE.INTRA.VDW>
-0.587881

>  <SCORE.INTRA.VDW.0>
-0.778272

>  <SCORE.INTRA.norm>
0.0978835

>  <SCORE.RESTR>
0.196292

>  <SCORE.RESTR.CAVITY>
0.196292

>  <SCORE.RESTR.norm>
0.00892236

>  <SCORE.SYSTEM>
0

>  <SCORE.SYSTEM.CONST>
0

>  <SCORE.SYSTEM.DIHEDRAL>
0

>  <SCORE.SYSTEM.SOLV>
0

>  <SCORE.SYSTEM.norm>
0

>  <SCORE.heavy>
22

>  <SCORE.norm>
-1.21153

>  <RMSD>
35.203

$$$$
ligand
 OpenBabel11021811503D
libRbt.so/2013.1/901 2013/11/27
 22 24  0  0  0  0  0  0  0  0999 V2000
   -6.0823  -29.1969   30.7001 C   0  0  0  0  0  0  0  0  0  0  0  0
   -6.3482  -29.3701   32.0749 C   0  0  0  0  0  0  0  0  0  0  0  0
   -6.3422  -28.2616   32.9173 C   0  0  0  0  0  0  0  0  0  0  0  0
   -6.0708  -26.9892   32.3850 C   0  0  0  0  0  0  0  0  0  0  0  0
   -5.7943  -26.8152   31.0065 C   0  0  0  0  0  0  0  0  0  0  0  0
   -5.8001  -27.9218   30.1683 C   0  0  0  0  0  0  0  0  0  0  0  0
   -6.0675  -30.4157   29.7575 C   0  0  0  0  0  0  0  0  0  0  0  0
   -6.5711  -30.1367   28.3193 C   0  0  0  0  0  0  0  0  0  0  0  0
   -5.6854  -30.7324   27.2311 C   0  0  0  0  0  0  0  0  0  0  0  0
   -6.1659  -31.5092   26.1725 C   0  0  0  0  0  0  0  0  0  0  0  0
   -5.0911  -31.8496   25.4143 N   0  0  0  0  0  0  0  0  0  0  0  0
   -3.9115  -31.3365   25.9159 C   0  0  0  0  0  0  0  0  0  0  0  0
   -4.2383  -30.6215   27.0628 C   0  0  0  0  0  0  0  0  0  0  0  0
   -3.1540  -29.9792   27.7728 C   0  0  0  0  0  0  0  0  0  0  0  0
   -3.4090  -29.2397   28.9244 O   0  0  0  0  0  0  0  0  0  0  0  0
   -1.8584  -30.1134   27.2919 N   0  0  0  0  0  0  0  0  0  0  0  0
   -1.5857  -30.8175   26.1550 C   0  0  0  0  0  0  0  0  0  0  0  0
   -2.5670  -31.4267   25.4713 N   0  0  0  0  0  0  0  0  0  0  0  0
   -0.2027  -30.9172   25.6775 N   0  0  0  0  0  0  0  0  0  0  0  0
   -6.0655  -25.8086   33.3196 C   0  0  0  0  0  0  0  0  0  0  0  0
   -6.9902  -24.9984   33.2970 O   0  0  0  0  0  0  0  0  0  0  0  0
   -4.9612  -25.6462   34.2275 N   0  0  0  0  0  0  0  0  0  0  0  0
  1  2  2  0  0  0  0
  1  6  1  0  0  0  0
  1  7  1  0  0  0  0
  2  3  1  0  0  0  0
  3  4  2  0  0  0  0
  4  5  1  0  0  0  0
  4 20  1  0  0  0  0
  5  6  2  0  0  0  0
  7  8  1  0  0  0  0
  8  9  1  0  0  0  0
  9 10  2  0  0  0  0
  9 13  1  0  0  0  0
 10 11  1  0  0  0  0
 11 12  1  0  0  0  0
 12 13  2  0  0  0  0
 12 18  1  0  0  0  0
 13 14  1  0  0  0  0
 14 15  1  0  0  0  0
 14 16  2  0  0  0  0
 16 17  1  0  0  0  0
 17 18  2  0  0  0  0
 17 19  1  0  0  0  0
 20 21  2  0  0  0  0
 20 22  1  0  0  0  0
M  END
>  <CHROM.1>
146.46005949,-106.75215173,134.47310042,130.12711054,-4.74079858,-29.25619942
29.14804021,1.94228372,0.22776624,0.89169077

>  <Name>
ligand

>  <RI>
0

>  <Rbt.Current_Directory>
/home/itssahil/PROJECTS/Mol_Feturizer/New_Systems/rnas/4LVY

>  <Rbt.Executable>
rbdock ($Id: //depot/dev/client3/rdock/2013.1/src/exe/rbdock.cxx#4 $)

>  <Rbt.Library>
libRbt.so (2013.1, Build901 2013/11/27)

>  <Rbt.Parameter_File>
/export/apps/rDock/src/rDock_2013.1_src/data/scripts/dock_solv.prm

>  <Rbt.Receptor>
prm/blind_docking_80.prm

>  <SCORE>
-26.7146

>  <SCORE.INTER>
-29.2235

>  <SCORE.INTER.CONST>
1

>  <SCORE.INTER.POLAR>
0

>  <SCORE.INTER.ROT>
4

>  <SCORE.INTER.SOLV>
13.7334

>  <SCORE.INTER.VDW>
-30.3268

>  <SCORE.INTER.norm>
-1.32834

>  <SCORE.INTRA>
2.33998

>  <SCORE.INTRA.DIHEDRAL>
5.20112

>  <SCORE.INTRA.DIHEDRAL.0>
6.18831

>  <SCORE.INTRA.POLAR>
0

>  <SCORE.INTRA.POLAR.0>
0

>  <SCORE.INTRA.REPUL>
0

>  <SCORE.INTRA.REPUL.0>
0

>  <SCORE.INTRA.SOLV>
0.597063

>  <SCORE.INTRA.SOLV.lig_0>
-44.3465

>  <SCORE.INTRA.VDW>
-0.559107

>  <SCORE.INTRA.VDW.0>
-0.778272

>  <SCORE.INTRA.norm>
0.106363

>  <SCORE.RESTR>
0.16891

>  <SCORE.RESTR.CAVITY>
0.16891

>  <SCORE.RESTR.norm>
0.00767771

>  <SCORE.SYSTEM>
0

>  <SCORE.SYSTEM.CONST>
0

>  <SCORE.SYSTEM.DIHEDRAL>
0

>  <SCORE.SYSTEM.SOLV>
0

>  <SCORE.SYSTEM.norm>
0

>  <SCORE.heavy>
22

>  <SCORE.norm>
-1.2143

>  <RMSD>
35.206

$$$$
ligand
 OpenBabel11021811503D
libRbt.so/2013.1/901 2013/11/27
 22 24  0  0  0  0  0  0  0  0999 V2000
   -6.0644  -29.2631   30.6756 C   0  0  0  0  0  0  0  0  0  0  0  0
   -5.7795  -27.9693   30.1901 C   0  0  0  0  0  0  0  0  0  0  0  0
   -5.7589  -26.8957   31.0762 C   0  0  0  0  0  0  0  0  0  0  0  0
   -6.0229  -27.1178   32.4390 C   0  0  0  0  0  0  0  0  0  0  0  0
   -6.3185  -28.4148   32.9262 C   0  0  0  0  0  0  0  0  0  0  0  0
   -6.3392  -29.4839   32.0410 C   0  0  0  0  0  0  0  0  0  0  0  0
   -6.1087  -30.4591   29.7051 C   0  0  0  0  0  0  0  0  0  0  0  0
   -6.5623  -30.1159   28.2642 C   0  0  0  0  0  0  0  0  0  0  0  0
   -5.6674  -30.7061   27.1806 C   0  0  0  0  0  0  0  0  0  0  0  0
   -6.1402  -31.4674   26.1073 C   0  0  0  0  0  0  0  0  0  0  0  0
   -5.0583  -31.8075   25.3590 N   0  0  0  0  0  0  0  0  0  0  0  0
   -3.8814  -31.3091   25.8812 C   0  0  0  0  0  0  0  0  0  0  0  0
   -4.2174  -30.6044   27.0319 C   0  0  0  0  0  0  0  0  0  0  0  0
   -3.1375  -29.9785   27.7628 C   0  0  0  0  0  0  0  0  0  0  0  0
   -3.4016  -29.2500   28.9193 O   0  0  0  0  0  0  0  0  0  0  0  0
   -1.8369  -30.1172   27.2968 N   0  0  0  0  0  0  0  0  0  0  0  0
   -1.5550  -30.8106   26.1556 C   0  0  0  0  0  0  0  0  0  0  0  0
   -2.5321  -31.4046   25.4527 N   0  0  0  0  0  0  0  0  0  0  0  0
   -0.1669  -30.9156   25.6945 N   0  0  0  0  0  0  0  0  0  0  0  0
   -5.9993  -25.9380   33.3743 C   0  0  0  0  0  0  0  0  0  0  0  0
   -5.0840  -25.8106   34.1854 O   0  0  0  0  0  0  0  0  0  0  0  0
   -7.0654  -24.9743   33.3040 N   0  0  0  0  0  0  0  0  0  0  0  0
  1  2  2  0  0  0  0
  1  6  1  0  0  0  0
  1  7  1  0  0  0  0
  2  3  1  0  0  0  0
  3  4  2  0  0  0  0
  4  5  1  0  0  0  0
  4 20  1  0  0  0  0
  5  6  2  0  0  0  0
  7  8  1  0  0  0  0
  8  9  1  0  0  0  0
  9 10  2  0  0  0  0
  9 13  1  0  0  0  0
 10 11  1  0  0  0  0
 11 12  1  0  0  0  0
 12 13  2  0  0  0  0
 12 18  1  0  0  0  0
 13 14  1  0  0  0  0
 14 15  1  0  0  0  0
 14 16  2  0  0  0  0
 16 17  1  0  0  0  0
 17 18  2  0  0  0  0
 17 19  1  0  0  0  0
 20 21  2  0  0  0  0
 20 22  1  0  0  0  0
M  END
>  <CHROM.1>
-30.56349203,-108.73767326,132.56270989,127.97881828,-4.71705245,-29.29251715
29.14272090,1.94162506,0.21823107,0.91281647

>  <Name>
ligand

>  <RI>
0

>  <Rbt.Current_Directory>
/home/itssahil/PROJECTS/Mol_Feturizer/New_Systems/rnas/4LVY

>  <Rbt.Executable>
rbdock ($Id: //depot/dev/client3/rdock/2013.1/src/exe/rbdock.cxx#4 $)

>  <Rbt.Library>
libRbt.so (2013.1, Build901 2013/11/27)

>  <Rbt.Parameter_File>
/export/apps/rDock/src/rDock_2013.1_src/data/scripts/dock_solv.prm

>  <Rbt.Receptor>
prm/blind_docking_100.prm

>  <SCORE>
-26.6619

>  <SCORE.INTER>
-29.3596

>  <SCORE.INTER.CONST>
1

>  <SCORE.INTER.POLAR>
0

>  <SCORE.INTER.ROT>
4

>  <SCORE.INTER.SOLV>
13.132

>  <SCORE.INTER.VDW>
-30.2171

>  <SCORE.INTER.norm>
-1.33453

>  <SCORE.INTRA>
2.46668

>  <SCORE.INTRA.DIHEDRAL>
5.55547

>  <SCORE.INTRA.DIHEDRAL.0>
6.18831

>  <SCORE.INTRA.POLAR>
0

>  <SCORE.INTRA.POLAR.0>
0

>  <SCORE.INTRA.REPUL>
0

>  <SCORE.INTRA.REPUL.0>
0

>  <SCORE.INTRA.SOLV>
0.593663

>  <SCORE.INTRA.SOLV.lig_0>
-44.3465

>  <SCORE.INTRA.VDW>
-0.607883

>  <SCORE.INTRA.VDW.0>
-0.778272

>  <SCORE.INTRA.norm>
0.112122

>  <SCORE.RESTR>
0.23102

>  <SCORE.RESTR.CAVITY>
0.23102

>  <SCORE.RESTR.norm>
0.0105009

>  <SCORE.SYSTEM>
0

>  <SCORE.SYSTEM.CONST>
0

>  <SCORE.SYSTEM.DIHEDRAL>
0

>  <SCORE.SYSTEM.SOLV>
0

>  <SCORE.SYSTEM.norm>
0

>  <SCORE.heavy>
22

>  <SCORE.norm>
-1.2119

>  <RMSD>
35.228

$$$$
ligand
 OpenBabel11021811503D
libRbt.so/2013.1/901 2013/11/27
 22 24  0  0  0  0  0  0  0  0999 V2000
   -6.4872  -29.1218   30.6819 C   0  0  0  0  0  0  0  0  0  0  0  0
   -7.3176  -28.0731   30.2331 C   0  0  0  0  0  0  0  0  0  0  0  0
   -7.7621  -27.1165   31.1416 C   0  0  0  0  0  0  0  0  0  0  0  0
   -7.3774  -27.2112   32.4904 C   0  0  0  0  0  0  0  0  0  0  0  0
   -6.5513  -28.2689   32.9442 C   0  0  0  0  0  0  0  0  0  0  0  0
   -6.1097  -29.2223   32.0369 C   0  0  0  0  0  0  0  0  0  0  0  0
   -6.0012  -30.1986   29.6927 C   0  0  0  0  0  0  0  0  0  0  0  0
   -6.5514  -30.0589   28.2513 C   0  0  0  0  0  0  0  0  0  0  0  0
   -5.6622  -30.6950   27.1892 C   0  0  0  0  0  0  0  0  0  0  0  0
   -6.1399  -31.5063   26.1555 C   0  0  0  0  0  0  0  0  0  0  0  0
   -5.0623  -31.8766   25.4154 N   0  0  0  0  0  0  0  0  0  0  0  0
   -3.8835  -31.3507   25.9054 C   0  0  0  0  0  0  0  0  0  0  0  0
   -4.2138  -30.5952   27.0251 C   0  0  0  0  0  0  0  0  0  0  0  0
   -3.1309  -29.9327   27.7184 C   0  0  0  0  0  0  0  0  0  0  0  0
   -3.3893  -29.1529   28.8424 O   0  0  0  0  0  0  0  0  0  0  0  0
   -1.8332  -30.0881   27.2496 N   0  0  0  0  0  0  0  0  0  0  0  0
   -1.5571  -30.8320   26.1392 C   0  0  0  0  0  0  0  0  0  0  0  0
   -2.5370  -31.4610   25.4715 N   0  0  0  0  0  0  0  0  0  0  0  0
   -0.1720  -30.9531   25.6730 N   0  0  0  0  0  0  0  0  0  0  0  0
   -7.8769  -26.1661   33.4524 C   0  0  0  0  0  0  0  0  0  0  0  0
   -7.3543  -25.0534   33.4822 O   0  0  0  0  0  0  0  0  0  0  0  0
   -8.9652  -26.4964   34.3336 N   0  0  0  0  0  0  0  0  0  0  0  0
  1  2  2  0  0  0  0
  1  6  1  0  0  0  0
  1  7  1  0  0  0  0
  2  3  1  0  0  0  0
  3  4  2  0  0  0  0
  4  5  1  0  0  0  0
  4 20  1  0  0  0  0
  5  6  2  0  0  0  0
  7  8  1  0  0  0  0
  8  9  1  0  0  0  0
  9 10  2  0  0  0  0
  9 13  1  0  0  0  0
 10 11  1  0  0  0  0
 11 12  1  0  0  0  0
 12 13  2  0  0  0  0
 12 18  1  0  0  0  0
 13 14  1  0  0  0  0
 14 15  1  0  0  0  0
 14 16  2  0  0  0  0
 16 17  1  0  0  0  0
 17 18  2  0  0  0  0
 17 19  1  0  0  0  0
 20 21  2  0  0  0  0
 20 22  1  0  0  0  0
M  END
>  <CHROM.1>
-2.96864577,-77.82538736,155.14090488,134.45660799,-5.23256841,-29.31581326
29.15997765,2.11740181,0.14915619,0.92603394

>  <Name>
ligand

>  <RI>
0

>  <Rbt.Current_Directory>
/home/itssahil/PROJECTS/Mol_Feturizer/New_Systems/rnas/4LVY

>  <Rbt.Executable>
rbdock ($Id: //depot/dev/client3/rdock/2013.1/src/exe/rbdock.cxx#4 $)

>  <Rbt.Library>
libRbt.so (2013.1, Build901 2013/11/27)

>  <Rbt.Parameter_File>
/export/apps/rDock/src/rDock_2013.1_src/data/scripts/dock_solv.prm

>  <Rbt.Receptor>
prm/blind_docking_80.prm

>  <SCORE>
-25.223

>  <SCORE.INTER>
-26.8868

>  <SCORE.INTER.CONST>
1

>  <SCORE.INTER.POLAR>
0

>  <SCORE.INTER.ROT>
4

>  <SCORE.INTER.SOLV>
12.1297

>  <SCORE.INTER.VDW>
-28.2344

>  <SCORE.INTER.norm>
-1.22213

>  <SCORE.INTRA>
1.45293

>  <SCORE.INTRA.DIHEDRAL>
2.24505

>  <SCORE.INTRA.DIHEDRAL.0>
6.18831

>  <SCORE.INTRA.POLAR>
0

>  <SCORE.INTRA.POLAR.0>
0

>  <SCORE.INTRA.REPUL>
0

>  <SCORE.INTRA.REPUL.0>
0

>  <SCORE.INTRA.SOLV>
0.405617

>  <SCORE.INTRA.SOLV.lig_0>
-44.3465

>  <SCORE.INTRA.VDW>
0.127595

>  <SCORE.INTRA.VDW.0>
-0.778272

>  <SCORE.INTRA.norm>
0.0660422

>  <SCORE.RESTR>
0.210823

>  <SCORE.RESTR.CAVITY>
0.210823

>  <SCORE.RESTR.norm>
0.00958288

>  <SCORE.SYSTEM>
0

>  <SCORE.SYSTEM.CONST>
0

>  <SCORE.SYSTEM.DIHEDRAL>
0

>  <SCORE.SYSTEM.SOLV>
0

>  <SCORE.SYSTEM.norm>
0

>  <SCORE.heavy>
22

>  <SCORE.norm>
-1.1465

>  <RMSD>
35.473

$$$$
ligand
 OpenBabel11021811503D
libRbt.so/2013.1/901 2013/11/27
 22 24  0  0  0  0  0  0  0  0999 V2000
   -5.0883  -29.1951   29.1589 C   0  0  0  0  0  0  0  0  0  0  0  0
   -5.3495  -28.1393   30.0575 C   0  0  0  0  0  0  0  0  0  0  0  0
   -6.6676  -27.8167   30.3688 C   0  0  0  0  0  0  0  0  0  0  0  0
   -7.7159  -28.5472   29.7825 C   0  0  0  0  0  0  0  0  0  0  0  0
   -7.4553  -29.6014   28.8728 C   0  0  0  0  0  0  0  0  0  0  0  0
   -6.1403  -29.9210   28.5631 C   0  0  0  0  0  0  0  0  0  0  0  0
   -3.6357  -29.5530   28.7900 C   0  0  0  0  0  0  0  0  0  0  0  0
   -3.1746  -29.0608   27.3954 C   0  0  0  0  0  0  0  0  0  0  0  0
   -2.7104  -30.1801   26.4706 C   0  0  0  0  0  0  0  0  0  0  0  0
   -3.5781  -31.0268   25.7739 C   0  0  0  0  0  0  0  0  0  0  0  0
   -2.8027  -31.8826   25.0581 N   0  0  0  0  0  0  0  0  0  0  0  0
   -1.4546  -31.6486   25.2426 C   0  0  0  0  0  0  0  0  0  0  0  0
   -1.3480  -30.5802   26.1261 C   0  0  0  0  0  0  0  0  0  0  0  0
   -0.0146  -30.1416   26.4752 C   0  0  0  0  0  0  0  0  0  0  0  0
    0.1672  -29.0722   27.3479 O   0  0  0  0  0  0  0  0  0  0  0  0
    1.0783  -30.8030   25.9311 N   0  0  0  0  0  0  0  0  0  0  0  0
    0.9255  -31.8417   25.0591 C   0  0  0  0  0  0  0  0  0  0  0  0
   -0.2968  -32.2754   24.7134 N   0  0  0  0  0  0  0  0  0  0  0  0
    2.1107  -32.4982   24.4980 N   0  0  0  0  0  0  0  0  0  0  0  0
   -9.1319  -28.1737   30.1328 C   0  0  0  0  0  0  0  0  0  0  0  0
   -9.9992  -28.1531   29.2613 O   0  0  0  0  0  0  0  0  0  0  0  0
   -9.4448  -27.8377   31.4963 N   0  0  0  0  0  0  0  0  0  0  0  0
  1  2  2  0  0  0  0
  1  6  1  0  0  0  0
  1  7  1  0  0  0  0
  2  3  1  0  0  0  0
  3  4  2  0  0  0  0
  4  5  1  0  0  0  0
  4 20  1  0  0  0  0
  5  6  2  0  0  0  0
  7  8  1  0  0  0  0
  8  9  1  0  0  0  0
  9 10  2  0  0  0  0
  9 13  1  0  0  0  0
 10 11  1  0  0  0  0
 11 12  1  0  0  0  0
 12 13  2  0  0  0  0
 12 18  1  0  0  0  0
 13 14  1  0  0  0  0
 14 15  1  0  0  0  0
 14 16  2  0  0  0  0
 16 17  1  0  0  0  0
 17 18  2  0  0  0  0
 17 19  1  0  0  0  0
 20 21  2  0  0  0  0
 20 22  1  0  0  0  0
M  END
>  <CHROM.1>
-103.20463745,138.98118928,-121.42584295,78.32206616,-3.67967018,-29.90245821
27.55641909,-2.57056998,-0.08040296,-2.27655549

>  <Name>
ligand

>  <RI>
0

>  <Rbt.Current_Directory>
/home/itssahil/PROJECTS/Mol_Feturizer/New_Systems/rnas/4LVY

>  <Rbt.Executable>
rbdock ($Id: //depot/dev/client3/rdock/2013.1/src/exe/rbdock.cxx#4 $)

>  <Rbt.Library>
libRbt.so (2013.1, Build901 2013/11/27)

>  <Rbt.Parameter_File>
/export/apps/rDock/src/rDock_2013.1_src/data/scripts/dock_solv.prm

>  <Rbt.Receptor>
prm/blind_docking_80.prm

>  <SCORE>
-18.1558

>  <SCORE.INTER>
-20.7147

>  <SCORE.INTER.CONST>
1

>  <SCORE.INTER.POLAR>
0

>  <SCORE.INTER.ROT>
4

>  <SCORE.INTER.SOLV>
12.108

>  <SCORE.INTER.VDW>
-24.1124

>  <SCORE.INTER.norm>
-0.941576

>  <SCORE.INTRA>
2.52866

>  <SCORE.INTRA.DIHEDRAL>
6.07542

>  <SCORE.INTRA.DIHEDRAL.0>
6.18831

>  <SCORE.INTRA.POLAR>
0

>  <SCORE.INTRA.POLAR.0>
0

>  <SCORE.INTRA.REPUL>
0

>  <SCORE.INTRA.REPUL.0>
0

>  <SCORE.INTRA.SOLV>
0.112192

>  <SCORE.INTRA.SOLV.lig_0>
-44.3465

>  <SCORE.INTRA.VDW>
-0.56515

>  <SCORE.INTRA.VDW.0>
-0.778272

>  <SCORE.INTRA.norm>
0.114939

>  <SCORE.RESTR>
0.030202

>  <SCORE.RESTR.CAVITY>
0.030202

>  <SCORE.RESTR.norm>
0.00137282

>  <SCORE.SYSTEM>
0

>  <SCORE.SYSTEM.CONST>
0

>  <SCORE.SYSTEM.DIHEDRAL>
0

>  <SCORE.SYSTEM.SOLV>
0

>  <SCORE.SYSTEM.norm>
0

>  <SCORE.heavy>
22

>  <SCORE.norm>
-0.825265

>  <RMSD>
35.487

$$$$
ligand
 OpenBabel11021811503D
libRbt.so/2013.1/901 2013/11/27
 22 24  0  0  0  0  0  0  0  0999 V2000
   -6.6404  -29.4421   30.0096 C   0  0  0  0  0  0  0  0  0  0  0  0
   -7.8245  -28.8959   29.4709 C   0  0  0  0  0  0  0  0  0  0  0  0
   -8.6169  -28.0679   30.2614 C   0  0  0  0  0  0  0  0  0  0  0  0
   -8.2250  -27.7904   31.5827 C   0  0  0  0  0  0  0  0  0  0  0  0
   -7.0412  -28.3458   32.1279 C   0  0  0  0  0  0  0  0  0  0  0  0
   -6.2529  -29.1717   31.3383 C   0  0  0  0  0  0  0  0  0  0  0  0
   -5.7618  -30.3747   29.1538 C   0  0  0  0  0  0  0  0  0  0  0  0
   -6.0727  -30.3560   27.6363 C   0  0  0  0  0  0  0  0  0  0  0  0
   -4.9147  -30.8293   26.7653 C   0  0  0  0  0  0  0  0  0  0  0  0
   -5.0589  -31.7024   25.6828 C   0  0  0  0  0  0  0  0  0  0  0  0
   -3.8198  -31.8842   25.1558 N   0  0  0  0  0  0  0  0  0  0  0  0
   -2.8511  -31.1727   25.8352 C   0  0  0  0  0  0  0  0  0  0  0  0
   -3.4969  -30.4893   26.8596 C   0  0  0  0  0  0  0  0  0  0  0  0
   -2.6802  -29.6603   27.7187 C   0  0  0  0  0  0  0  0  0  0  0  0
   -3.2610  -28.9410   28.7595 O   0  0  0  0  0  0  0  0  0  0  0  0
   -1.3118  -29.5952   27.4925 N   0  0  0  0  0  0  0  0  0  0  0  0
   -0.7220  -30.2764   26.4674 C   0  0  0  0  0  0  0  0  0  0  0  0
   -1.4490  -31.0553   25.6511 N   0  0  0  0  0  0  0  0  0  0  0  0
    0.7251  -30.1630   26.2586 N   0  0  0  0  0  0  0  0  0  0  0  0
   -9.1033  -26.8962   32.4170 C   0  0  0  0  0  0  0  0  0  0  0  0
  -10.2781  -26.7156   32.1020 O   0  0  0  0  0  0  0  0  0  0  0  0
   -8.5416  -26.2573   33.5773 N   0  0  0  0  0  0  0  0  0  0  0  0
  1  2  2  0  0  0  0
  1  6  1  0  0  0  0
  1  7  1  0  0  0  0
  2  3  1  0  0  0  0
  3  4  2  0  0  0  0
  4  5  1  0  0  0  0
  4 20  1  0  0  0  0
  5  6  2  0  0  0  0
  7  8  1  0  0  0  0
  8  9  1  0  0  0  0
  9 10  2  0  0  0  0
  9 13  1  0  0  0  0
 10 11  1  0  0  0  0
 11 12  1  0  0  0  0
 12 13  2  0  0  0  0
 12 18  1  0  0  0  0
 13 14  1  0  0  0  0
 14 15  1  0  0  0  0
 14 16  2  0  0  0  0
 16 17  1  0  0  0  0
 17 18  2  0  0  0  0
 17 19  1  0  0  0  0
 20 21  2  0  0  0  0
 20 22  1  0  0  0  0
M  END
>  <CHROM.1>
14.77318716,19.48783023,157.83431555,136.02195277,-5.12253034,-29.43725019
28.74529429,2.37311247,0.10875285,0.94181602

>  <Name>
ligand

>  <RI>
0

>  <Rbt.Current_Directory>
/home/itssahil/PROJECTS/Mol_Feturizer/New_Systems/rnas/4LVY

>  <Rbt.Executable>
rbdock ($Id: //depot/dev/client3/rdock/2013.1/src/exe/rbdock.cxx#4 $)

>  <Rbt.Library>
libRbt.so (2013.1, Build901 2013/11/27)

>  <Rbt.Parameter_File>
/export/apps/rDock/src/rDock_2013.1_src/data/scripts/dock_solv.prm

>  <Rbt.Receptor>
prm/blind_docking_60.prm

>  <SCORE>
-20.8094

>  <SCORE.INTER>
-22.3028

>  <SCORE.INTER.CONST>
1

>  <SCORE.INTER.POLAR>
0

>  <SCORE.INTER.ROT>
4

>  <SCORE.INTER.SOLV>
13.6999

>  <SCORE.INTER.VDW>
-25.7018

>  <SCORE.INTER.norm>
-1.01376

>  <SCORE.INTRA>
1.49132

>  <SCORE.INTRA.DIHEDRAL>
1.76933

>  <SCORE.INTRA.DIHEDRAL.0>
6.18831

>  <SCORE.INTRA.POLAR>
0

>  <SCORE.INTRA.POLAR.0>
0

>  <SCORE.INTRA.REPUL>
0

>  <SCORE.INTRA.REPUL.0>
0

>  <SCORE.INTRA.SOLV>
0.418862

>  <SCORE.INTRA.SOLV.lig_0>
-44.3465

>  <SCORE.INTRA.VDW>
0.397229

>  <SCORE.INTRA.VDW.0>
-0.778272

>  <SCORE.INTRA.norm>
0.0677874

>  <SCORE.RESTR>
0.00202909

>  <SCORE.RESTR.CAVITY>
0.00202909

>  <SCORE.RESTR.norm>
9.22312e-05

>  <SCORE.SYSTEM>
0

>  <SCORE.SYSTEM.CONST>
0

>  <SCORE.SYSTEM.DIHEDRAL>
0

>  <SCORE.SYSTEM.SOLV>
0

>  <SCORE.SYSTEM.norm>
0

>  <SCORE.heavy>
22

>  <SCORE.norm>
-0.945883

>  <RMSD>
35.501

$$$$
ligand
 OpenBabel11021811503D
libRbt.so/2013.1/901 2013/11/27
 22 24  0  0  0  0  0  0  0  0999 V2000
   -6.3460  -29.5470   29.6666 C   0  0  0  0  0  0  0  0  0  0  0  0
   -7.5934  -28.9825   29.3261 C   0  0  0  0  0  0  0  0  0  0  0  0
   -8.2899  -28.2399   30.2758 C   0  0  0  0  0  0  0  0  0  0  0  0
   -7.7398  -28.0655   31.5577 C   0  0  0  0  0  0  0  0  0  0  0  0
   -6.4918  -28.6397   31.9039 C   0  0  0  0  0  0  0  0  0  0  0  0
   -5.7992  -29.3804   30.9558 C   0  0  0  0  0  0  0  0  0  0  0  0
   -5.5709  -30.3865   28.6329 C   0  0  0  0  0  0  0  0  0  0  0  0
   -4.5167  -29.6027   27.8117 C   0  0  0  0  0  0  0  0  0  0  0  0
   -3.7641  -30.4592   26.8000 C   0  0  0  0  0  0  0  0  0  0  0  0
   -4.3824  -31.3584   25.9258 C   0  0  0  0  0  0  0  0  0  0  0  0
   -3.3968  -31.9255   25.1822 N   0  0  0  0  0  0  0  0  0  0  0  0
   -2.1456  -31.4478   25.5175 C   0  0  0  0  0  0  0  0  0  0  0  0
   -2.3285  -30.5172   26.5344 C   0  0  0  0  0  0  0  0  0  0  0  0
   -1.1463  -29.8677   27.0567 C   0  0  0  0  0  0  0  0  0  0  0  0
   -1.2554  -28.9192   28.0699 O   0  0  0  0  0  0  0  0  0  0  0  0
    0.0959  -30.2056   26.5363 N   0  0  0  0  0  0  0  0  0  0  0  0
    0.2267  -31.1186   25.5303 C   0  0  0  0  0  0  0  0  0  0  0  0
   -0.8486  -31.7409   25.0222 N   0  0  0  0  0  0  0  0  0  0  0  0
    1.5587  -31.4305   25.0022 N   0  0  0  0  0  0  0  0  0  0  0  0
   -8.5168  -27.2624   32.5669 C   0  0  0  0  0  0  0  0  0  0  0  0
   -9.5981  -27.6736   32.9836 O   0  0  0  0  0  0  0  0  0  0  0  0
   -7.9749  -26.0106   33.0244 N   0  0  0  0  0  0  0  0  0  0  0  0
  1  2  2  0  0  0  0
  1  6  1  0  0  0  0
  1  7  1  0  0  0  0
  2  3  1  0  0  0  0
  3  4  2  0  0  0  0
  4  5  1  0  0  0  0
  4 20  1  0  0  0  0
  5  6  2  0  0  0  0
  7  8  1  0  0  0  0
  8  9  1  0  0  0  0
  9 10  2  0  0  0  0
  9 13  1  0  0  0  0
 10 11  1  0  0  0  0
 11 12  1  0  0  0  0
 12 13  2  0  0  0  0
 12 18  1  0  0  0  0
 13 14  1  0  0  0  0
 14 15  1  0  0  0  0
 14 16  2  0  0  0  0
 16 17  1  0  0  0  0
 17 18  2  0  0  0  0
 17 19  1  0  0  0  0
 20 21  2  0  0  0  0
 20 22  1  0  0  0  0
M  END
>  <CHROM.1>
94.37004589,65.49740648,179.86950317,46.77861825,-4.31698206,-29.65868197
28.45179344,2.39303740,0.15287495,0.92675601

>  <Name>
ligand

>  <RI>
0

>  <Rbt.Current_Directory>
/home/itssahil/PROJECTS/Mol_Feturizer/New_Systems/rnas/4LVY

>  <Rbt.Executable>
rbdock ($Id: //depot/dev/client3/rdock/2013.1/src/exe/rbdock.cxx#4 $)

>  <Rbt.Library>
libRbt.so (2013.1, Build901 2013/11/27)

>  <Rbt.Parameter_File>
/export/apps/rDock/src/rDock_2013.1_src/data/scripts/dock_solv.prm

>  <Rbt.Receptor>
prm/blind_docking_60.prm

>  <SCORE>
-19.9263

>  <SCORE.INTER>
-19.7156

>  <SCORE.INTER.CONST>
1

>  <SCORE.INTER.POLAR>
0

>  <SCORE.INTER.ROT>
4

>  <SCORE.INTER.SOLV>
11.4462

>  <SCORE.INTER.VDW>
-23.2258

>  <SCORE.INTER.norm>
-0.896163

>  <SCORE.INTRA>
-0.252443

>  <SCORE.INTRA.DIHEDRAL>
0.0903952

>  <SCORE.INTRA.DIHEDRAL.0>
6.18831

>  <SCORE.INTRA.POLAR>
0

>  <SCORE.INTRA.POLAR.0>
0

>  <SCORE.INTRA.REPUL>
0

>  <SCORE.INTRA.REPUL.0>
0

>  <SCORE.INTRA.SOLV>
-0.00078409

>  <SCORE.INTRA.SOLV.lig_0>
-44.3465

>  <SCORE.INTRA.VDW>
-0.297249

>  <SCORE.INTRA.VDW.0>
-0.778272

>  <SCORE.INTRA.norm>
-0.0114747

>  <SCORE.RESTR>
0.0417017

>  <SCORE.RESTR.CAVITY>
0.0417017

>  <SCORE.RESTR.norm>
0.00189553

>  <SCORE.SYSTEM>
0

>  <SCORE.SYSTEM.CONST>
0

>  <SCORE.SYSTEM.DIHEDRAL>
0

>  <SCORE.SYSTEM.SOLV>
0

>  <SCORE.SYSTEM.norm>
0

>  <SCORE.heavy>
22

>  <SCORE.norm>
-0.905742

>  <RMSD>
35.540

$$$$
ligand
 OpenBabel11021811503D
libRbt.so/2013.1/901 2013/11/27
 22 24  0  0  0  0  0  0  0  0999 V2000
   -6.4143  -29.5767   29.5923 C   0  0  0  0  0  0  0  0  0  0  0  0
   -5.9369  -29.1882   30.8618 C   0  0  0  0  0  0  0  0  0  0  0  0
   -6.7428  -28.4070   31.6857 C   0  0  0  0  0  0  0  0  0  0  0  0
   -8.0177  -28.0177   31.2392 C   0  0  0  0  0  0  0  0  0  0  0  0
   -8.4945  -28.3991   29.9609 C   0  0  0  0  0  0  0  0  0  0  0  0
   -7.6892  -29.1774   29.1406 C   0  0  0  0  0  0  0  0  0  0  0  0
   -5.5278  -30.4261   28.6612 C   0  0  0  0  0  0  0  0  0  0  0  0
   -4.5303  -29.6196   27.7927 C   0  0  0  0  0  0  0  0  0  0  0  0
   -3.7652  -30.4698   26.7849 C   0  0  0  0  0  0  0  0  0  0  0  0
   -4.3722  -31.3675   25.9014 C   0  0  0  0  0  0  0  0  0  0  0  0
   -3.3777  -31.9285   25.1651 N   0  0  0  0  0  0  0  0  0  0  0  0
   -2.1313  -31.4481   25.5142 C   0  0  0  0  0  0  0  0  0  0  0  0
   -2.3270  -30.5221   26.5329 C   0  0  0  0  0  0  0  0  0  0  0  0
   -1.1519  -29.8709   27.0690 C   0  0  0  0  0  0  0  0  0  0  0  0
   -1.2739  -28.9267   28.0848 O   0  0  0  0  0  0  0  0  0  0  0  0
    0.0963  -30.2028   26.5593 N   0  0  0  0  0  0  0  0  0  0  0  0
    0.2397  -31.1114   25.5511 C   0  0  0  0  0  0  0  0  0  0  0  0
   -0.8287  -31.7352   25.0302 N   0  0  0  0  0  0  0  0  0  0  0  0
    1.5777  -31.4169   25.0345 N   0  0  0  0  0  0  0  0  0  0  0  0
   -8.8661  -27.1686   32.1483 C   0  0  0  0  0  0  0  0  0  0  0  0
   -8.3651  -26.6230   33.1297 O   0  0  0  0  0  0  0  0  0  0  0  0
  -10.2654  -27.0160   31.8505 N   0  0  0  0  0  0  0  0  0  0  0  0
  1  2  2  0  0  0  0
  1  6  1  0  0  0  0
  1  7  1  0  0  0  0
  2  3  1  0  0  0  0
  3  4  2  0  0  0  0
  4  5  1  0  0  0  0
  4 20  1  0  0  0  0
  5  6  2  0  0  0  0
  7  8  1  0  0  0  0
  8  9  1  0  0  0  0
  9 10  2  0  0  0  0
  9 13  1  0  0  0  0
 10 11  1  0  0  0  0
 11 12  1  0  0  0  0
 12 13  2  0  0  0  0
 12 18  1  0  0  0  0
 13 14  1  0  0  0  0
 14 15  1  0  0  0  0
 14 16  2  0  0  0  0
 16 17  1  0  0  0  0
 17 18  2  0  0  0  0
 17 19  1  0  0  0  0
 20 21  2  0  0  0  0
 20 22  1  0  0  0  0
M  END
>  <CHROM.1>
-85.01182812,13.68134484,-174.28610164,50.33868074,-4.41362749,-29.64462726
28.33742891,2.43021067,0.10252142,0.93733396

>  <Name>
ligand

>  <RI>
0

>  <Rbt.Current_Directory>
/home/itssahil/PROJECTS/Mol_Feturizer/New_Systems/rnas/4LVY

>  <Rbt.Executable>
rbdock ($Id: //depot/dev/client3/rdock/2013.1/src/exe/rbdock.cxx#4 $)

>  <Rbt.Library>
libRbt.so (2013.1, Build901 2013/11/27)

>  <Rbt.Parameter_File>
/export/apps/rDock/src/rDock_2013.1_src/data/scripts/dock_solv.prm

>  <Rbt.Receptor>
prm/blind_docking_60.prm

>  <SCORE>
-19.9073

>  <SCORE.INTER>
-19.9386

>  <SCORE.INTER.CONST>
1

>  <SCORE.INTER.POLAR>
0

>  <SCORE.INTER.ROT>
4

>  <SCORE.INTER.SOLV>
12.1192

>  <SCORE.INTER.VDW>
-23.5988

>  <SCORE.INTER.norm>
-0.906299

>  <SCORE.INTRA>
-0.0166669

>  <SCORE.INTRA.DIHEDRAL>
0.0541621

>  <SCORE.INTRA.DIHEDRAL.0>
6.18831

>  <SCORE.INTRA.POLAR>
0

>  <SCORE.INTRA.POLAR.0>
0

>  <SCORE.INTRA.REPUL>
0

>  <SCORE.INTRA.REPUL.0>
0

>  <SCORE.INTRA.SOLV>
0.0215019

>  <SCORE.INTRA.SOLV.lig_0>
-44.3465

>  <SCORE.INTRA.VDW>
-0.0544989

>  <SCORE.INTRA.VDW.0>
-0.778272

>  <SCORE.INTRA.norm>
-0.000757587

>  <SCORE.RESTR>
0.0479898

>  <SCORE.RESTR.CAVITY>
0.0479898

>  <SCORE.RESTR.norm>
0.00218135

>  <SCORE.SYSTEM>
0

>  <SCORE.SYSTEM.CONST>
0

>  <SCORE.SYSTEM.DIHEDRAL>
0

>  <SCORE.SYSTEM.SOLV>
0

>  <SCORE.SYSTEM.norm>
0

>  <SCORE.heavy>
22

>  <SCORE.norm>
-0.904875

>  <RMSD>
35.547

$$$$
ligand
 OpenBabel11021811503D
libRbt.so/2013.1/901 2013/11/27
 22 24  0  0  0  0  0  0  0  0999 V2000
   -6.5121  -29.5170   30.2660 C   0  0  0  0  0  0  0  0  0  0  0  0
   -6.0719  -29.5341   31.6063 C   0  0  0  0  0  0  0  0  0  0  0  0
   -6.7417  -28.7670   32.5557 C   0  0  0  0  0  0  0  0  0  0  0  0
   -7.8442  -27.9880   32.1635 C   0  0  0  0  0  0  0  0  0  0  0  0
   -8.2814  -27.9626   30.8162 C   0  0  0  0  0  0  0  0  0  0  0  0
   -7.6118  -28.7276   29.8710 C   0  0  0  0  0  0  0  0  0  0  0  0
   -5.7708  -30.3463   29.1997 C   0  0  0  0  0  0  0  0  0  0  0  0
   -5.0874  -29.5166   28.0842 C   0  0  0  0  0  0  0  0  0  0  0  0
   -4.3055  -30.3588   27.0827 C   0  0  0  0  0  0  0  0  0  0  0  0
   -4.8930  -31.2844   26.2150 C   0  0  0  0  0  0  0  0  0  0  0  0
   -3.8880  -31.8277   25.4795 N   0  0  0  0  0  0  0  0  0  0  0  0
   -2.6532  -31.3086   25.8141 C   0  0  0  0  0  0  0  0  0  0  0  0
   -2.8680  -30.3749   26.8219 C   0  0  0  0  0  0  0  0  0  0  0  0
   -1.7080  -29.6846   27.3417 C   0  0  0  0  0  0  0  0  0  0  0  0
   -1.8496  -28.7307   28.3457 O   0  0  0  0  0  0  0  0  0  0  0  0
   -0.4543  -29.9889   26.8281 N   0  0  0  0  0  0  0  0  0  0  0  0
   -0.2922  -30.9065   25.8310 C   0  0  0  0  0  0  0  0  0  0  0  0
   -1.3462  -31.5662   25.3254 N   0  0  0  0  0  0  0  0  0  0  0  0
    1.0505  -31.1820   25.3097 N   0  0  0  0  0  0  0  0  0  0  0  0
   -8.5468  -27.1639   33.2097 C   0  0  0  0  0  0  0  0  0  0  0  0
   -9.5435  -27.6061   33.7781 O   0  0  0  0  0  0  0  0  0  0  0  0
   -8.0354  -25.8561   33.5229 N   0  0  0  0  0  0  0  0  0  0  0  0
  1  2  2  0  0  0  0
  1  6  1  0  0  0  0
  1  7  1  0  0  0  0
  2  3  1  0  0  0  0
  3  4  2  0  0  0  0
  4  5  1  0  0  0  0
  4 20  1  0  0  0  0
  5  6  2  0  0  0  0
  7  8  1  0  0  0  0
  8  9  1  0  0  0  0
  9 10  2  0  0  0  0
  9 13  1  0  0  0  0
 10 11  1  0  0  0  0
 11 12  1  0  0  0  0
 12 13  2  0  0  0  0
 12 18  1  0  0  0  0
 13 14  1  0  0  0  0
 14 15  1  0  0  0  0
 14 16  2  0  0  0  0
 16 17  1  0  0  0  0
 17 18  2  0  0  0  0
 17 19  1  0  0  0  0
 20 21  2  0  0  0  0
 20 22  1  0  0  0  0
M  END
>  <CHROM.1>
-115.79663553,-95.17024708,177.17485418,65.22242700,-4.65645186,-29.53962068
28.88666086,2.33994726,0.19036496,0.94096656

>  <Name>
ligand

>  <RI>
0

>  <Rbt.Current_Directory>
/home/itssahil/PROJECTS/Mol_Feturizer/New_Systems/rnas/4LVY

>  <Rbt.Executable>
rbdock ($Id: //depot/dev/client3/rdock/2013.1/src/exe/rbdock.cxx#4 $)

>  <Rbt.Library>
libRbt.so (2013.1, Build901 2013/11/27)

>  <Rbt.Parameter_File>
/export/apps/rDock/src/rDock_2013.1_src/data/scripts/dock_solv.prm

>  <Rbt.Receptor>
prm/blind_docking_80.prm

>  <SCORE>
-21.6214

>  <SCORE.INTER>
-21.2502

>  <SCORE.INTER.CONST>
1

>  <SCORE.INTER.POLAR>
0

>  <SCORE.INTER.ROT>
4

>  <SCORE.INTER.SOLV>
11.6717

>  <SCORE.INTER.VDW>
-24.324

>  <SCORE.INTER.norm>
-0.965917

>  <SCORE.INTRA>
-0.371279

>  <SCORE.INTRA.DIHEDRAL>
0.0228617

>  <SCORE.INTRA.DIHEDRAL.0>
6.18831

>  <SCORE.INTRA.POLAR>
0

>  <SCORE.INTRA.POLAR.0>
0

>  <SCORE.INTRA.REPUL>
0

>  <SCORE.INTRA.REPUL.0>
0

>  <SCORE.INTRA.SOLV>
0.0540906

>  <SCORE.INTRA.SOLV.lig_0>
-44.3465

>  <SCORE.INTRA.VDW>
-0.409755

>  <SCORE.INTRA.VDW.0>
-0.778272

>  <SCORE.INTRA.norm>
-0.0168763

>  <SCORE.RESTR>
0

>  <SCORE.RESTR.CAVITY>
0

>  <SCORE.RESTR.norm>
0

>  <SCORE.SYSTEM>
0

>  <SCORE.SYSTEM.CONST>
0

>  <SCORE.SYSTEM.DIHEDRAL>
0

>  <SCORE.SYSTEM.SOLV>
0

>  <SCORE.SYSTEM.norm>
0

>  <SCORE.heavy>
22

>  <SCORE.norm>
-0.982793

>  <RMSD>
35.569

$$$$
ligand
 OpenBabel11021811503D
libRbt.so/2013.1/901 2013/11/27
 22 24  0  0  0  0  0  0  0  0999 V2000
   -6.5695  -29.3161   30.5280 C   0  0  0  0  0  0  0  0  0  0  0  0
   -7.5720  -28.4312   30.0780 C   0  0  0  0  0  0  0  0  0  0  0  0
   -8.2234  -27.6121   30.9962 C   0  0  0  0  0  0  0  0  0  0  0  0
   -7.8725  -27.6806   32.3558 C   0  0  0  0  0  0  0  0  0  0  0  0
   -6.8727  -28.5754   32.8103 C   0  0  0  0  0  0  0  0  0  0  0  0
   -6.2249  -29.3919   31.8933 C   0  0  0  0  0  0  0  0  0  0  0  0
   -5.8517  -30.2421   29.5273 C   0  0  0  0  0  0  0  0  0  0  0  0
   -6.2850  -30.0702   28.0500 C   0  0  0  0  0  0  0  0  0  0  0  0
   -5.3152  -30.6869   27.0487 C   0  0  0  0  0  0  0  0  0  0  0  0
   -5.7060  -31.5169   25.9936 C   0  0  0  0  0  0  0  0  0  0  0  0
   -4.5753  -31.8608   25.3234 N   0  0  0  0  0  0  0  0  0  0  0  0
   -3.4438  -31.2993   25.8806 C   0  0  0  0  0  0  0  0  0  0  0  0
   -3.8627  -30.5473   26.9726 C   0  0  0  0  0  0  0  0  0  0  0  0
   -2.8431  -29.8508   27.7260 C   0  0  0  0  0  0  0  0  0  0  0  0
   -3.1913  -29.0725   28.8265 O   0  0  0  0  0  0  0  0  0  0  0  0
   -1.5153  -29.9723   27.3384 N   0  0  0  0  0  0  0  0  0  0  0  0
   -1.1512  -30.7143   26.2523 C   0  0  0  0  0  0  0  0  0  0  0  0
   -2.0707  -31.3741   25.5306 N   0  0  0  0  0  0  0  0  0  0  0  0
    0.2626  -30.7990   25.8724 N   0  0  0  0  0  0  0  0  0  0  0  0
   -8.5966  -26.7874   33.3279 C   0  0  0  0  0  0  0  0  0  0  0  0
   -8.0444  -25.7832   33.7737 O   0  0  0  0  0  0  0  0  0  0  0  0
   -9.9349  -27.1344   33.7259 N   0  0  0  0  0  0  0  0  0  0  0  0
  1  2  2  0  0  0  0
  1  6  1  0  0  0  0
  1  7  1  0  0  0  0
  2  3  1  0  0  0  0
  3  4  2  0  0  0  0
  4  5  1  0  0  0  0
  4 20  1  0  0  0  0
  5  6  2  0  0  0  0
  7  8  1  0  0  0  0
  8  9  1  0  0  0  0
  9 10  2  0  0  0  0
  9 13  1  0  0  0  0
 10 11  1  0  0  0  0
 11 12  1  0  0  0  0
 12 13  2  0  0  0  0
 12 18  1  0  0  0  0
 13 14  1  0  0  0  0
 14 15  1  0  0  0  0
 14 16  2  0  0  0  0
 16 17  1  0  0  0  0
 17 18  2  0  0  0  0
 17 19  1  0  0  0  0
 20 21  2  0  0  0  0
 20 22  1  0  0  0  0
M  END
>  <CHROM.1>
2.09677008,-104.00106886,163.63193948,131.87148012,-5.21138940,-29.46506629
29.08771424,2.23826964,0.11548417,0.98354156

>  <Name>
ligand

>  <RI>
0

>  <Rbt.Current_Directory>
/home/itssahil/PROJECTS/Mol_Feturizer/New_Systems/rnas/4LVY

>  <Rbt.Executable>
rbdock ($Id: //depot/dev/client3/rdock/2013.1/src/exe/rbdock.cxx#4 $)

>  <Rbt.Library>
libRbt.so (2013.1, Build901 2013/11/27)

>  <Rbt.Parameter_File>
/export/apps/rDock/src/rDock_2013.1_src/data/scripts/dock_solv.prm

>  <Rbt.Receptor>
prm/blind_docking_100.prm

>  <SCORE>
-24.7424

>  <SCORE.INTER>
-25.7297

>  <SCORE.INTER.CONST>
1

>  <SCORE.INTER.POLAR>
0

>  <SCORE.INTER.ROT>
4

>  <SCORE.INTER.SOLV>
11.6361

>  <SCORE.INTER.VDW>
-27.2985

>  <SCORE.INTER.norm>
-1.16953

>  <SCORE.INTRA>
0.791394

>  <SCORE.INTRA.DIHEDRAL>
1.03903

>  <SCORE.INTRA.DIHEDRAL.0>
6.18831

>  <SCORE.INTRA.POLAR>
0

>  <SCORE.INTRA.POLAR.0>
0

>  <SCORE.INTRA.REPUL>
0

>  <SCORE.INTRA.REPUL.0>
0

>  <SCORE.INTRA.SOLV>
0.364215

>  <SCORE.INTRA.SOLV.lig_0>
-44.3465

>  <SCORE.INTRA.VDW>
0.0897695

>  <SCORE.INTRA.VDW.0>
-0.778272

>  <SCORE.INTRA.norm>
0.0359725

>  <SCORE.RESTR>
0.195931

>  <SCORE.RESTR.CAVITY>
0.195931

>  <SCORE.RESTR.norm>
0.00890595

>  <SCORE.SYSTEM>
0

>  <SCORE.SYSTEM.CONST>
0

>  <SCORE.SYSTEM.DIHEDRAL>
0

>  <SCORE.SYSTEM.SOLV>
0

>  <SCORE.SYSTEM.norm>
0

>  <SCORE.heavy>
22

>  <SCORE.norm>
-1.12465

>  <RMSD>
35.622

$$$$
ligand
 OpenBabel11021811503D
libRbt.so/2013.1/901 2013/11/27
 22 24  0  0  0  0  0  0  0  0999 V2000
   -6.5187  -29.4938   30.2552 C   0  0  0  0  0  0  0  0  0  0  0  0
   -7.6112  -28.6924   29.8616 C   0  0  0  0  0  0  0  0  0  0  0  0
   -8.2941  -27.9489   30.8203 C   0  0  0  0  0  0  0  0  0  0  0  0
   -7.8850  -28.0094   32.1638 C   0  0  0  0  0  0  0  0  0  0  0  0
   -6.7942  -28.8210   32.5619 C   0  0  0  0  0  0  0  0  0  0  0  0
   -6.1150  -29.5622   31.6046 C   0  0  0  0  0  0  0  0  0  0  0  0
   -5.7636  -30.3366   29.2094 C   0  0  0  0  0  0  0  0  0  0  0  0
   -5.1207  -29.5260   28.0564 C   0  0  0  0  0  0  0  0  0  0  0  0
   -4.3406  -30.3806   27.0641 C   0  0  0  0  0  0  0  0  0  0  0  0
   -4.9309  -31.3096   26.2018 C   0  0  0  0  0  0  0  0  0  0  0  0
   -3.9268  -31.8645   25.4739 N   0  0  0  0  0  0  0  0  0  0  0  0
   -2.6900  -31.3501   25.8083 C   0  0  0  0  0  0  0  0  0  0  0  0
   -2.9024  -30.4072   26.8080 C   0  0  0  0  0  0  0  0  0  0  0  0
   -1.7400  -29.7197   27.3260 C   0  0  0  0  0  0  0  0  0  0  0  0
   -1.8791  -28.7571   28.3221 O   0  0  0  0  0  0  0  0  0  0  0  0
   -0.4866  -30.0354   26.8189 N   0  0  0  0  0  0  0  0  0  0  0  0
   -0.3268  -30.9618   25.8295 C   0  0  0  0  0  0  0  0  0  0  0  0
   -1.3830  -31.6193   25.3258 N   0  0  0  0  0  0  0  0  0  0  0  0
    1.0159  -31.2493   25.3147 N   0  0  0  0  0  0  0  0  0  0  0  0
   -8.6447  -27.1993   33.1806 C   0  0  0  0  0  0  0  0  0  0  0  0
   -8.3878  -26.0071   33.3379 O   0  0  0  0  0  0  0  0  0  0  0  0
   -9.6648  -27.8460   33.9625 N   0  0  0  0  0  0  0  0  0  0  0  0
  1  2  2  0  0  0  0
  1  6  1  0  0  0  0
  1  7  1  0  0  0  0
  2  3  1  0  0  0  0
  3  4  2  0  0  0  0
  4  5  1  0  0  0  0
  4 20  1  0  0  0  0
  5  6  2  0  0  0  0
  7  8  1  0  0  0  0
  8  9  1  0  0  0  0
  9 10  2  0  0  0  0
  9 13  1  0  0  0  0
 10 11  1  0  0  0  0
 11 12  1  0  0  0  0
 12 13  2  0  0  0  0
 12 18  1  0  0  0  0
 13 14  1  0  0  0  0
 14 15  1  0  0  0  0
 14 16  2  0  0  0  0
 16 17  1  0  0  0  0
 17 18  2  0  0  0  0
 17 19  1  0  0  0  0
 20 21  2  0  0  0  0
 20 22  1  0  0  0  0
M  END
>  <CHROM.1>
59.76793574,-82.63274923,178.01554498,67.62486888,-4.70092868,-29.57071956
28.87632062,2.34293214,0.18537237,0.94351389

>  <Name>
ligand

>  <RI>
0

>  <Rbt.Current_Directory>
/home/itssahil/PROJECTS/Mol_Feturizer/New_Systems/rnas/4LVY

>  <Rbt.Executable>
rbdock ($Id: //depot/dev/client3/rdock/2013.1/src/exe/rbdock.cxx#4 $)

>  <Rbt.Library>
libRbt.so (2013.1, Build901 2013/11/27)

>  <Rbt.Parameter_File>
/export/apps/rDock/src/rDock_2013.1_src/data/scripts/dock_solv.prm

>  <Rbt.Receptor>
prm/blind_docking_100.prm

>  <SCORE>
-21.4782

>  <SCORE.INTER>
-21.1053

>  <SCORE.INTER.CONST>
1

>  <SCORE.INTER.POLAR>
0

>  <SCORE.INTER.ROT>
4

>  <SCORE.INTER.SOLV>
12.133

>  <SCORE.INTER.VDW>
-24.3812

>  <SCORE.INTER.norm>
-0.959332

>  <SCORE.INTRA>
-0.372903

>  <SCORE.INTRA.DIHEDRAL>
0.0210298

>  <SCORE.INTRA.DIHEDRAL.0>
6.18831

>  <SCORE.INTRA.POLAR>
0

>  <SCORE.INTRA.POLAR.0>
0

>  <SCORE.INTRA.REPUL>
0

>  <SCORE.INTRA.REPUL.0>
0

>  <SCORE.INTRA.SOLV>
0.0624436

>  <SCORE.INTRA.SOLV.lig_0>
-44.3465

>  <SCORE.INTRA.VDW>
-0.41464

>  <SCORE.INTRA.VDW.0>
-0.778272

>  <SCORE.INTRA.norm>
-0.0169501

>  <SCORE.RESTR>
0

>  <SCORE.RESTR.CAVITY>
0

>  <SCORE.RESTR.norm>
0

>  <SCORE.SYSTEM>
0

>  <SCORE.SYSTEM.CONST>
0

>  <SCORE.SYSTEM.DIHEDRAL>
0

>  <SCORE.SYSTEM.SOLV>
0

>  <SCORE.SYSTEM.norm>
0

>  <SCORE.heavy>
22

>  <SCORE.norm>
-0.976282

>  <RMSD>
35.627

$$$$
ligand
 OpenBabel11021811503D
libRbt.so/2013.1/901 2013/11/27
 22 24  0  0  0  0  0  0  0  0999 V2000
   -6.9305  -28.5776   30.4131 C   0  0  0  0  0  0  0  0  0  0  0  0
   -6.6094  -28.9991   31.7207 C   0  0  0  0  0  0  0  0  0  0  0  0
   -7.3907  -28.5677   32.7892 C   0  0  0  0  0  0  0  0  0  0  0  0
   -8.4854  -27.7193   32.5482 C   0  0  0  0  0  0  0  0  0  0  0  0
   -8.8032  -27.2877   31.2369 C   0  0  0  0  0  0  0  0  0  0  0  0
   -8.0226  -27.7183   30.1728 C   0  0  0  0  0  0  0  0  0  0  0  0
   -6.0652  -29.0315   29.2216 C   0  0  0  0  0  0  0  0  0  0  0  0
   -6.5080  -30.3607   28.5604 C   0  0  0  0  0  0  0  0  0  0  0  0
   -5.6271  -30.7901   27.3928 C   0  0  0  0  0  0  0  0  0  0  0  0
   -6.1080  -31.4323   26.2477 C   0  0  0  0  0  0  0  0  0  0  0  0
   -5.0381  -31.6477   25.4384 N   0  0  0  0  0  0  0  0  0  0  0  0
   -3.8615  -31.1793   25.9883 C   0  0  0  0  0  0  0  0  0  0  0  0
   -4.1851  -30.6272   27.2228 C   0  0  0  0  0  0  0  0  0  0  0  0
   -3.1032  -30.0599   27.9974 C   0  0  0  0  0  0  0  0  0  0  0  0
   -3.3554  -29.4827   29.2389 O   0  0  0  0  0  0  0  0  0  0  0  0
   -1.8125  -30.1024   27.4872 N   0  0  0  0  0  0  0  0  0  0  0  0
   -1.5430  -30.6461   26.2648 C   0  0  0  0  0  0  0  0  0  0  0  0
   -2.5223  -31.1818   25.5193 N   0  0  0  0  0  0  0  0  0  0  0  0
   -0.1656  -30.6530   25.7615 N   0  0  0  0  0  0  0  0  0  0  0  0
   -9.3101  -27.2637   33.7227 C   0  0  0  0  0  0  0  0  0  0  0  0
  -10.3843  -27.8080   33.9718 O   0  0  0  0  0  0  0  0  0  0  0  0
   -8.8220  -26.1825   34.5368 N   0  0  0  0  0  0  0  0  0  0  0  0
  1  2  2  0  0  0  0
  1  6  1  0  0  0  0
  1  7  1  0  0  0  0
  2  3  1  0  0  0  0
  3  4  2  0  0  0  0
  4  5  1  0  0  0  0
  4 20  1  0  0  0  0
  5  6  2  0  0  0  0
  7  8  1  0  0  0  0
  8  9  1  0  0  0  0
  9 10  2  0  0  0  0
  9 13  1  0  0  0  0
 10 11  1  0  0  0  0
 11 12  1  0  0  0  0
 12 13  2  0  0  0  0
 12 18  1  0  0  0  0
 13 14  1  0  0  0  0
 14 15  1  0  0  0  0
 14 16  2  0  0  0  0
 16 17  1  0  0  0  0
 17 18  2  0  0  0  0
 17 19  1  0  0  0  0
 20 21  2  0  0  0  0
 20 22  1  0  0  0  0
M  END
>  <CHROM.1>
89.47805885,-100.56412172,-179.51866231,-144.32335438,-5.63881761,-29.42419660
29.25629291,2.25772179,0.07945142,1.04485396

>  <Name>
ligand

>  <RI>
0

>  <Rbt.Current_Directory>
/home/itssahil/PROJECTS/Mol_Feturizer/New_Systems/rnas/4LVY

>  <Rbt.Executable>
rbdock ($Id: //depot/dev/client3/rdock/2013.1/src/exe/rbdock.cxx#4 $)

>  <Rbt.Library>
libRbt.so (2013.1, Build901 2013/11/27)

>  <Rbt.Parameter_File>
/export/apps/rDock/src/rDock_2013.1_src/data/scripts/dock_solv.prm

>  <Rbt.Receptor>
prm/blind_docking_80.prm

>  <SCORE>
-24.6639

>  <SCORE.INTER>
-25.0714

>  <SCORE.INTER.CONST>
1

>  <SCORE.INTER.POLAR>
0

>  <SCORE.INTER.ROT>
4

>  <SCORE.INTER.SOLV>
12.2215

>  <SCORE.INTER.VDW>
-27.0548

>  <SCORE.INTER.norm>
-1.13961

>  <SCORE.INTRA>
0.40031

>  <SCORE.INTRA.DIHEDRAL>
0.101577

>  <SCORE.INTRA.DIHEDRAL.0>
6.18831

>  <SCORE.INTRA.POLAR>
0

>  <SCORE.INTRA.POLAR.0>
0

>  <SCORE.INTRA.REPUL>
0

>  <SCORE.INTRA.REPUL.0>
0

>  <SCORE.INTRA.SOLV>
0.406373

>  <SCORE.INTRA.SOLV.lig_0>
-44.3465

>  <SCORE.INTRA.VDW>
0.146335

>  <SCORE.INTRA.VDW.0>
-0.778272

>  <SCORE.INTRA.norm>
0.0181959

>  <SCORE.RESTR>
0.00716437

>  <SCORE.RESTR.CAVITY>
0.00716437

>  <SCORE.RESTR.norm>
0.000325653

>  <SCORE.SYSTEM>
0

>  <SCORE.SYSTEM.CONST>
0

>  <SCORE.SYSTEM.DIHEDRAL>
0

>  <SCORE.SYSTEM.SOLV>
0

>  <SCORE.SYSTEM.norm>
0

>  <SCORE.heavy>
22

>  <SCORE.norm>
-1.12109

>  <RMSD>
35.714

$$$$
