@<TRIPOS>MOLECULE
4LVY_rdock.pdb
 1913 2142 0 0 0
SMALL
GASTEIGER

@<TRIPOS>ATOM
      1  P         11.6180  -44.7900   25.7610 P.3     1  G1          0.1280
      2  C5'       13.7390  -43.9130   24.4580 C.3     1  G1          0.1795
      3  O5'       12.3320  -43.8600   24.6680 O.3     1  G1         -0.3259
      4  C4'       14.1190  -44.2270   23.0220 C.3     1  G1          0.1772
      5  O4'       13.5860  -45.5190   22.6100 O.3     1  G1         -0.3307
      6  C3'       13.6190  -43.2720   21.9490 C.3     1  G1          0.1860
      7  O3'       14.3750  -42.0810   21.8570 O.3     1  G1         -0.3112
      8  C2'       13.6900  -44.1240   20.6880 C.3     1  G1          0.2309
      9  O2'       15.0210  -44.1900   20.1980 O.3     1  G1         -0.2156
     10  C1'       13.2850  -45.4960   21.2270 C.3     1  G1          0.2408
     11  N1         9.4440  -45.9670   17.9150 N.ar    1  G1         -0.1709
     12  C2        10.7830  -45.7430   17.6820 C.ar    1  G1          0.2606
     13  N2        11.1690  -45.6330   16.3970 N.pl3   1  G1         -0.0859
     14  N3        11.6930  -45.6380   18.6410 N.ar    1  G1         -0.1918
     15  C4        11.1520  -45.7750   19.8670 C.ar    1  G1          0.1723
     16  C5         9.8310  -45.9940   20.2090 C.ar    1  G1          0.1748
     17  C6         8.8620  -46.0970   19.1740 C.ar    1  G1          0.3023
     18  O6         7.6420  -46.2990   19.2820 O.2     1  G1         -0.2633
     19  N7         9.6860  -46.0770   21.5930 N.ar    1  G1         -0.2173
     20  C8        10.8980  -45.9060   22.0500 C.ar    1  G1          0.1817
     21  N9        11.8360  -45.7260   21.0580 N.ar    1  G1         -0.2693
     22  OP1       12.5970  -45.2390   26.7870 O.3     1  G1         -0.1955
     23  OP2       10.3740  -44.1050   26.1970 O.co2   1  G1         -0.7863
     24  P         13.6430  -40.7180   21.4290 P.3     2  G2          0.2141
     25  C5'       14.4130  -41.0690   18.9370 C.3     2  G2          0.1812
     26  O5'       13.3530  -40.8970   19.8700 O.3     2  G2         -0.3114
     27  C4'       13.8830  -41.2050   17.5310 C.3     2  G2          0.1773
     28  O4'       13.1230  -42.4360   17.4100 O.3     2  G2         -0.3307
     29  C3'       12.9070  -40.1240   17.1020 C.3     2  G2          0.1860
     30  O3'       13.5460  -38.9430   16.6760 O.3     2  G2         -0.3112
     31  C2'       12.0920  -40.8140   16.0150 C.3     2  G2          0.2309
     32  O2'       12.7970  -40.8370   14.7830 O.3     2  G2         -0.2156
     33  C1'       12.0080  -42.2350   16.5650 C.3     2  G2          0.2408
     34  N1         6.9590  -42.9210   16.5620 N.ar    2  G2         -0.1709
     35  C2         7.8150  -42.7420   15.4960 C.ar    2  G2          0.2606
     36  N2         7.2490  -42.7540   14.2790 N.pl3   2  G2         -0.0859
     37  N3         9.1270  -42.5680   15.6120 N.ar    2  G2         -0.1918
     38  C4         9.5120  -42.5860   16.9090 C.ar    2  G2          0.1723
     39  C5         8.7400  -42.7520   18.0450 C.ar    2  G2          0.1748
     40  C6         7.3380  -42.9380   17.9050 C.ar    2  G2          0.3023
     41  O6         6.4890  -43.1050   18.7940 O.2     2  G2         -0.2633
     42  N7         9.5280  -42.7080   19.1900 N.ar    2  G2         -0.2173
     43  C8        10.7380  -42.5170   18.7410 C.ar    2  G2          0.1817
     44  N9        10.7950  -42.4340   17.3720 N.ar    2  G2         -0.2693
     45  OP1       14.6080  -39.5900   21.5920 O.2     2  G2         -0.5172
     46  OP2       12.3330  -40.7210   22.1340 O.co2   2  G2         -0.4373
     47  P         12.8550  -37.5250   16.9680 P.3     3  A3          0.2141
     48  C5'       11.6940  -37.5020   14.6340 C.3     3  A3          0.1812
     49  O5'       11.5560  -37.5460   16.0440 O.3     3  A3         -0.3114
     50  C4'       10.3880  -37.7550   13.9230 C.3     3  A3          0.1773
     51  O4'        9.8290  -39.0300   14.3270 O.3     3  A3         -0.3307
     52  C3'        9.2550  -36.7840   14.1900 C.3     3  A3          0.1860
     53  O3'        9.4000  -35.5380   13.5360 O.3     3  A3         -0.3112
     54  C2'        8.0540  -37.5840   13.7140 C.3     3  A3          0.2309
     55  O2'        8.0430  -37.6440   12.2980 O.3     3  A3         -0.2156
     56  C1'        8.4170  -38.9710   14.2310 C.3     3  A3          0.2408
     57  N1         4.0820  -40.2060   16.6390 N.ar    3  A3         -0.2040
     58  C2         4.3880  -40.0220   15.3420 C.ar    3  A3          0.2016
     59  N3         5.5590  -39.6960   14.7980 N.ar    3  A3         -0.2048
     60  C4         6.5030  -39.5520   15.7490 C.ar    3  A3          0.1692
     61  C5         6.3530  -39.6970   17.1150 C.ar    3  A3          0.1518
     62  C6         5.0610  -40.0430   17.5670 C.ar    3  A3          0.1919
     63  N6         4.7520  -40.2280   18.8500 N.pl3   3  A3         -0.1054
     64  N7         7.5600  -39.4610   17.7700 N.ar    3  A3         -0.2193
     65  C8         8.3990  -39.1800   16.7990 C.ar    3  A3          0.1816
     66  N9         7.8210  -39.2250   15.5550 N.ar    3  A3         -0.2693
     67  OP1       13.7960  -36.5150   16.4090 O.2     3  A3         -0.5172
     68  OP2       12.4210  -37.4720   18.3960 O.co2   3  A3         -0.4373
     69  P          8.7870  -34.2130   14.2090 P.3     4  G4          0.2141
     70  C5'        6.6740  -34.5280   12.6870 C.3     4  G4          0.1812
     71  O5'        7.2080  -34.3570   13.9910 O.3     4  G4         -0.3114
     72  C4'        5.2480  -35.0290   12.6950 C.3     4  G4          0.1773
     73  O4'        5.1380  -36.2930   13.3990 O.3     4  G4         -0.3307
     74  C3'        4.2110  -34.1520   13.3720 C.3     4  G4          0.1860
     75  O3'        3.8220  -33.0580   12.5640 O.3     4  G4         -0.3112
     76  C2'        3.0780  -35.1320   13.6180 C.3     4  G4          0.2309
     77  O2'        2.3770  -35.3670   12.4080 O.3     4  G4         -0.2156
     78  C1'        3.8520  -36.4030   13.9790 C.3     4  G4          0.2408
     79  N1         1.6040  -37.7620   18.3360 N.ar    4  G4         -0.1709
     80  C2         1.0980  -37.7300   17.0500 C.ar    4  G4          0.2606
     81  N2        -0.1810  -38.1270   16.9090 N.pl3   4  G4         -0.0859
     82  N3         1.7920  -37.3510   15.9860 N.ar    4  G4         -0.1918
     83  C4         3.0490  -36.9960   16.3180 C.ar    4  G4          0.1723
     84  C5         3.6520  -36.9860   17.5630 C.ar    4  G4          0.1748
     85  C6         2.8990  -37.4000   18.7020 C.ar    4  G4          0.3023
     86  O6         3.2440  -37.4630   19.8950 O.2     4  G4         -0.2633
     87  N7         4.9690  -36.5500   17.4620 N.ar    4  G4         -0.2173
     88  C8         5.1350  -36.3080   16.1890 C.ar    4  G4          0.1817
     89  N9         4.0080  -36.5620   15.4390 N.ar    4  G4         -0.2693
     90  OP1        9.2890  -33.0700   13.4020 O.2     4  G4         -0.5172
     91  OP2        9.0520  -34.2750   15.6730 O.co2   4  G4         -0.4373
     92  P          3.2430  -31.7180   13.2350 P.3     5  A5          0.2141
     93  C5'        0.8280  -32.3820   12.4350 C.3     5  A5          0.1812
     94  O5'        1.7080  -32.0430   13.4940 O.3     5  A5         -0.3114
     95  C4'       -0.4830  -32.8900   12.9820 C.3     5  A5          0.1773
     96  O4'       -0.2320  -34.0460   13.8140 O.3     5  A5         -0.3307
     97  C3'       -1.2400  -31.9210   13.8850 C.3     5  A5          0.1860
     98  O3'       -2.0750  -31.0520   13.1310 O.3     5  A5         -0.3112
     99  C2'       -2.0380  -32.8440   14.7970 C.3     5  A5          0.2309
    100  O2'       -3.2400  -33.2350   14.1560 O.3     5  A5         -0.2156
    101  C1'       -1.1310  -34.0760   14.8960 C.3     5  A5          0.2408
    102  N1        -1.0160  -35.4730   19.8870 N.ar    5  A5         -0.2040
    103  C2        -1.9990  -35.5000   18.9780 C.ar    5  A5          0.2016
    104  N3        -1.9670  -35.1190   17.7020 N.ar    5  A5         -0.2048
    105  C4        -0.7500  -34.6540   17.3690 C.ar    5  A5          0.1692
    106  C5         0.3590  -34.5640   18.1960 C.ar    5  A5          0.1518
    107  C6         0.2000  -35.0080   19.5250 C.ar    5  A5          0.1919
    108  N6         1.1760  -34.9870   20.4430 N.pl3   5  A5         -0.1054
    109  N7         1.4480  -34.0320   17.5130 N.ar    5  A5         -0.2193
    110  C8         0.9800  -33.8300   16.3030 C.ar    5  A5          0.1816
    111  N9        -0.3450  -34.1640   16.1470 N.ar    5  A5         -0.2693
    112  OP1        3.3790  -30.6400   12.2210 O.2     5  A5         -0.5172
    113  OP2        3.8720  -31.5430   14.5720 O.co2   5  A5         -0.4373
    114  P         -2.0700  -29.4560   13.3480 P.3     6  G6          0.2141
    115  C5'       -4.2580  -29.5800   14.7840 C.3     6  G6          0.1812
    116  O5'       -2.8830  -29.2540   14.6970 O.3     6  G6         -0.3114
    117  C4'       -4.6430  -29.7820   16.2210 C.3     6  G6          0.1773
    118  O4'       -3.9420  -30.9430   16.7250 O.3     6  G6         -0.3307
    119  C3'       -4.2310  -28.6610   17.1660 C.3     6  G6          0.1860
    120  O3'       -5.1360  -27.5650   17.1610 O.3     6  G6         -0.3112
    121  C2'       -4.1220  -29.3790   18.5060 C.3     6  G6          0.2309
    122  O2'       -5.4030  -29.5570   19.0900 O.3     6  G6         -0.2156
    123  C1'       -3.5900  -30.7510   18.0760 C.3     6  G6          0.2408
    124  N1         0.2780  -32.2220   21.1100 N.ar    6  G6         -0.1709
    125  C2        -1.0840  -32.3120   21.3060 C.ar    6  G6          0.2606
    126  N2        -1.4770  -32.8610   22.4680 N.pl3   6  G6         -0.0859
    127  N3        -1.9930  -31.8870   20.4280 N.ar    6  G6         -0.1918
    128  C4        -1.4320  -31.3630   19.3110 C.ar    6  G6          0.1723
    129  C5        -0.0840  -31.2280   19.0180 C.ar    6  G6          0.1748
    130  C6         0.8840  -31.6890   19.9720 C.ar    6  G6          0.3023
    131  O6         2.1270  -31.6620   19.9110 O.2     6  G6         -0.2633
    132  N7         0.0740  -30.6280   17.7680 N.ar    6  G6         -0.2173
    133  C8        -1.1480  -30.4220   17.3370 C.ar    6  G6          0.1817
    134  N9        -2.1170  -30.8530   18.2170 N.ar    6  G6         -0.2693
    135  OP1       -2.8860  -28.8910   12.2310 O.2     6  G6         -0.5172
    136  OP2       -0.6960  -28.9550   13.6180 O.co2   6  G6         -0.4373
    137  P         -4.6170  -26.0650   17.4450 P.3     7  U7          0.2141
    138  C5'       -5.8480  -26.0820   19.7660 C.3     7  U7          0.1812
    139  O5'       -4.6300  -25.9510   19.0410 O.3     7  U7         -0.3114
    140  C4'       -5.7790  -25.4450   21.1380 C.3     7  U7          0.1773
    141  O4'       -4.5830  -25.8920   21.8440 O.3     7  U7         -0.3307
    142  C3'       -5.6740  -23.9290   21.1980 C.3     7  U7          0.1860
    143  O3'       -6.8920  -23.2480   20.9510 O.3     7  U7         -0.3112
    144  C2'       -5.1400  -23.7200   22.6040 C.3     7  U7          0.2309
    145  O2'       -6.1620  -23.9750   23.5570 O.3     7  U7         -0.2156
    146  C1'       -4.1150  -24.8530   22.6790 C.3     7  U7          0.2420
    147  N1        -2.8110  -24.3720   22.1700 N.ar    7  U7         -0.2534
    148  C2        -2.1290  -23.5180   23.0220 C.ar    7  U7          0.3546
    149  O2        -2.5370  -23.2150   24.1270 O.2     7  U7         -0.2443
    150  N3        -0.9460  -23.0390   22.5430 N.ar    7  U7         -0.1530
    151  C4        -0.3940  -23.3050   21.3090 C.ar    7  U7          0.2846
    152  O4         0.6880  -22.7790   21.0400 O.2     7  U7         -0.2650
    153  C5        -1.1640  -24.1730   20.4680 C.ar    7  U7          0.0814
    154  C6        -2.3290  -24.6720   20.9110 C.ar    7  U7          0.0870
    155  OP1       -5.6550  -25.1180   16.9500 O.2     7  U7         -0.5172
    156  OP2       -3.2240  -25.8870   16.9750 O.co2   7  U7         -0.4373
    157  P         -6.8860  -21.7150   20.4460 P.3     8  A8          0.2141
    158  C5'       -6.9990  -20.8020   22.9050 C.3     8  A8          0.1812
    159  O5'       -6.2920  -20.8960   21.6790 O.3     8  A8         -0.3114
    160  C4'       -6.2700  -19.9130   23.8760 C.3     8  A8          0.1773
    161  O4'       -4.9650  -20.4750   24.1740 O.3     8  A8         -0.3307
    162  C3'       -5.9630  -18.5110   23.3820 C.3     8  A8          0.1860
    163  O3'       -7.0690  -17.6450   23.5330 O.3     8  A8         -0.3112
    164  C2'       -4.7660  -18.1190   24.2320 C.3     8  A8          0.2309
    165  O2'       -5.1980  -17.8080   25.5420 O.3     8  A8         -0.2156
    166  C1'       -4.0140  -19.4450   24.3080 C.3     8  A8          0.2408
    167  N1         0.7240  -18.3540   22.6000 N.ar    8  A8         -0.2040
    168  C2         0.0980  -18.0490   23.7460 C.ar    8  A8          0.2016
    169  N3        -1.1340  -18.3650   24.1270 N.ar    8  A8         -0.2048
    170  C4        -1.7550  -19.0830   23.1780 C.ar    8  A8          0.1692
    171  C5        -1.2430  -19.4770   21.9530 C.ar    8  A8          0.1518
    172  C6         0.0780  -19.0920   21.6630 C.ar    8  A8          0.1919
    173  N6         0.7080  -19.4040   20.5160 N.pl3   8  A8         -0.1054
    174  N7        -2.1750  -20.2140   21.2380 N.ar    8  A8         -0.2193
    175  C8        -3.2160  -20.2530   22.0280 C.ar    8  A8          0.1816
    176  N9        -3.0320  -19.5860   23.2170 N.ar    8  A8         -0.2693
    177  OP1       -8.3200  -21.3480   20.2690 O.3     8  A8         -0.4373
    178  OP2       -5.9130  -21.5010   19.3350 O.co2   8  A8         -0.5172
    179  P         -7.3630  -16.5090   22.4400 P.3     9  G9          0.2141
    180  C5'       -5.5010  -14.9200   21.5160 C.3     9  G9          0.1812
    181  O5'       -6.1330  -15.5160   22.6290 O.3     9  G9         -0.3114
    182  C4'       -4.0080  -14.9090   21.6860 C.3     9  G9          0.1773
    183  O4'       -3.5140  -16.2720   21.6250 O.3     9  G9         -0.3307
    184  C3'       -3.2360  -14.1920   20.5920 C.3     9  G9          0.1860
    185  O3'       -3.1830  -12.7910   20.7690 O.3     9  G9         -0.3112
    186  C2'       -1.8790  -14.8720   20.6420 C.3     9  G9          0.2309
    187  O2'       -1.1280  -14.4130   21.7530 O.3     9  G9         -0.2156
    188  C1'       -2.2950  -16.3120   20.9110 C.3     9  G9          0.2408
    189  N1        -0.2270  -18.1530   16.6400 N.ar    9  G9         -0.1709
    190  C2         0.3700  -17.4510   17.6610 C.ar    9  G9          0.2606
    191  N2         1.6850  -17.2130   17.5230 N.pl3   9  G9         -0.0859
    192  N3        -0.2740  -17.0130   18.7400 N.ar    9  G9         -0.1918
    193  C4        -1.5830  -17.3470   18.6970 C.ar    9  G9          0.1723
    194  C5        -2.2700  -18.0440   17.7260 C.ar    9  G9          0.1748
    195  C6        -1.5730  -18.5000   16.5830 C.ar    9  G9          0.3023
    196  O6        -2.0360  -19.1360   15.6240 O.2     9  G9         -0.2633
    197  N7        -3.6100  -18.1860   18.0550 N.ar    9  G9         -0.2173
    198  C8        -3.7130  -17.5830   19.2100 C.ar    9  G9          0.1817
    199  N9        -2.5240  -17.0510   19.6540 N.ar    9  G9         -0.2693
    200  OP1       -8.6100  -15.8200   22.8730 O.3     9  G9         -0.4373
    201  OP2       -7.2920  -17.0900   21.0750 O.co2   9  G9         -0.5172
    202  P         -3.2300  -11.8390   19.4730 P.3    10  A10         0.2141
    203  C5'       -0.6210  -11.7590   19.4930 C.3    10  A10         0.1812
    204  O5'       -1.8150  -12.0840   18.8000 O.3    10  A10        -0.3114
    205  C4'        0.5790  -12.0790   18.6470 C.3    10  A10         0.1773
    206  O4'        0.6410  -13.5060   18.3920 O.3    10  A10        -0.3307
    207  C3'        0.5610  -11.4570   17.2630 C.3    10  A10         0.1860
    208  O3'        1.0180  -10.1200   17.2930 O.3    10  A10        -0.3112
    209  C2'        1.4580  -12.3980   16.4660 C.3    10  A10         0.2309
    210  O2'        2.8160  -12.1440   16.7790 O.3    10  A10        -0.2156
    211  C1'        1.0840  -13.7430   17.0730 C.3    10  A10         0.2408
    212  N1        -0.3810  -16.2090   12.7860 N.ar   10  A10        -0.2040
    213  C2         0.7960  -15.6810   13.1560 C.ar   10  A10         0.2016
    214  N3         1.1180  -15.0470   14.2820 N.ar   10  A10        -0.2048
    215  C4         0.0530  -14.9740   15.0990 C.ar   10  A10         0.1692
    216  C5        -1.2130  -15.4630   14.8600 C.ar   10  A10         0.1518
    217  C6        -1.4230  -16.1180   13.6370 C.ar   10  A10         0.1919
    218  N6        -2.5950  -16.6320   13.2900 N.pl3  10  A10        -0.1054
    219  N7        -2.0560  -15.2120   15.9290 N.ar   10  A10        -0.2193
    220  C8        -1.2970  -14.5780   16.7860 C.ar   10  A10         0.1816
    221  N9        -0.0100  -14.3980   16.3430 N.ar   10  A10        -0.2693
    222  OP1       -3.2360  -10.4050   19.8970 O.3    10  A10        -0.4373
    223  OP2       -4.2720  -12.4090   18.5880 O.co2  10  A10        -0.5172
    224  P          0.3510   -9.0030   16.3530 P.3    11  U11         0.2141
    225  C5'        2.3490   -9.2320   14.6750 C.3    11  U11         0.1812
    226  O5'        0.9570   -9.3310   14.9190 O.3    11  U11        -0.3114
    227  C4'        2.6760   -9.7530   13.3040 C.3    11  U11         0.1773
    228  O4'        2.3740  -11.1710   13.2390 O.3    11  U11        -0.3307
    229  C3'        1.8520   -9.1590   12.1810 C.3    11  U11         0.1860
    230  O3'        2.2990   -7.8780   11.7830 O.3    11  U11        -0.3112
    231  C2'        1.9450  -10.2290   11.1030 C.3    11  U11         0.2309
    232  O2'        3.2040  -10.1760   10.4500 O.3    11  U11        -0.2156
    233  C1'        1.9010  -11.5000   11.9500 C.3    11  U11         0.2420
    234  N1         0.5290  -12.0400   12.0620 N.ar   11  U11        -0.2534
    235  C2         0.1350  -12.8350   11.0190 C.ar   11  U11         0.3546
    236  O2         0.8710  -13.0790   10.0780 O.2    11  U11        -0.2443
    237  N3        -1.1340  -13.3350   11.1230 N.ar   11  U11        -0.1530
    238  C4        -2.0250  -13.1140   12.1480 C.ar   11  U11         0.2846
    239  O4        -3.1380  -13.6410   12.0920 O.2    11  U11        -0.2650
    240  C5        -1.5420  -12.2670   13.1940 C.ar   11  U11         0.0814
    241  C6        -0.3040  -11.7720   13.1220 C.ar   11  U11         0.0870
    242  OP1        0.9220   -7.7270   16.8800 O.3    11  U11        -0.4373
    243  OP2       -1.1190   -9.1840   16.2110 O.co2  11  U11        -0.5172
    244  P          1.2280   -6.7830   11.3000 P.3    12  G12         0.2141
    245  C5'        1.8530   -7.3940    8.8400 C.3    12  G12         0.1812
    246  O5'        0.8510   -7.2780    9.8340 O.3    12  G12        -0.3114
    247  C4'        1.3790   -8.2090    7.6680 C.3    12  G12         0.1773
    248  O4'        1.0410   -9.5490    8.1010 O.3    12  G12        -0.3307
    249  C3'        0.1130   -7.7330    6.9800 C.3    12  G12         0.1860
    250  O3'        0.3210   -6.6280    6.1170 O.3    12  G12        -0.3112
    251  C2'       -0.3550   -8.9920    6.2610 C.3    12  G12         0.2309
    252  O2'        0.4160   -9.2010    5.0860 O.3    12  G12        -0.2156
    253  C1'        0.0220  -10.0710    7.2750 C.3    12  G12         0.2408
    254  N1        -4.2970  -12.7450    7.5290 N.ar   12  G12        -0.1709
    255  C2        -3.4310  -12.5730    6.4790 C.ar   12  G12         0.2606
    256  N2        -3.7670  -13.2080    5.3480 N.pl3  12  G12        -0.0859
    257  N3        -2.3290  -11.8420    6.5320 N.ar   12  G12        -0.1918
    258  C4        -2.1570  -11.2910    7.7480 C.ar   12  G12         0.1723
    259  C5        -2.9600  -11.3950    8.8660 C.ar   12  G12         0.1748
    260  C6        -4.1430  -12.1810    8.8000 C.ar   12  G12         0.3023
    261  O6        -4.9830  -12.4000    9.6930 O.2    12  G12        -0.2633
    262  N7        -2.4320  -10.6700    9.9200 N.ar   12  G12        -0.2173
    263  C8        -1.3390  -10.1410    9.4320 C.ar   12  G12         0.1817
    264  N9        -1.1160  -10.4810    8.1190 N.ar   12  G12        -0.2693
    265  OP1        1.9280   -5.4700   11.2280 O.2    12  G12        -0.5172
    266  OP2       -0.0050   -6.9150   12.1210 O.co2  12  G12        -0.4373
    267  P         -0.9180   -5.6890    5.7150 P.3    13  A13         0.2141
    268  C5'       -1.4020   -6.8790    3.4250 C.3    13  A13         0.1812
    269  O5'       -1.8100   -6.6030    4.7590 O.3    13  A13        -0.3114
    270  C4'       -2.3480   -7.8290    2.7290 C.3    13  A13         0.1773
    271  O4'       -2.4580   -9.0580    3.4910 O.3    13  A13        -0.3307
    272  C3'       -3.7910   -7.3630    2.5830 C.3    13  A13         0.1860
    273  O3'       -3.9920   -6.4480    1.5170 O.3    13  A13        -0.3112
    274  C2'       -4.5430   -8.6790    2.4250 C.3    13  A13         0.2309
    275  O2'       -4.3690   -9.2090    1.1200 O.3    13  A13        -0.2156
    276  C1'       -3.7760   -9.5650    3.4030 C.3    13  A13         0.2408
    277  N1        -7.5200  -11.2250    6.5400 N.ar   13  A13        -0.2040
    278  C2        -7.2590  -11.4760    5.2470 C.ar   13  A13         0.2016
    279  N3        -6.2700  -11.0140    4.4850 N.ar   13  A13        -0.2048
    280  C4        -5.4790  -10.1900    5.1940 C.ar   13  A13         0.1692
    281  C5        -5.6120   -9.8390    6.5300 C.ar   13  A13         0.1518
    282  C6        -6.6990  -10.3980    7.2280 C.ar   13  A13         0.1919
    283  N6        -6.9580  -10.1530    8.5190 N.pl3  13  A13        -0.1054
    284  N7        -4.5990   -8.9610    6.9190 N.ar   13  A13        -0.2193
    285  C8        -3.8880   -8.8080    5.8270 C.ar   13  A13         0.1816
    286  N9        -4.3650   -9.5230    4.7530 N.ar   13  A13        -0.2693
    287  OP1       -0.3890   -4.5270    4.9520 O.2    13  A13        -0.5172
    288  OP2       -1.7230   -5.4500    6.9390 O.co2  13  A13        -0.4373
    289  P         -4.9750   -5.1880    1.7160 P.3    14  U14         0.2141
    290  C5'       -6.7440   -6.5370    0.3220 C.3    14  U14         0.1812
    291  O5'       -6.4270   -5.8140    1.5040 O.3    14  U14        -0.3114
    292  C4'       -8.0240   -7.3260    0.4710 C.3    14  U14         0.1773
    293  O4'       -7.8470   -8.3870    1.4490 O.3    14  U14        -0.3307
    294  C3'       -9.2370   -6.5620    0.9830 C.3    14  U14         0.1860
    295  O3'       -9.8780   -5.7800   -0.0100 O.3    14  U14        -0.3112
    296  C2'      -10.1120   -7.6780    1.5270 C.3    14  U14         0.2309
    297  O2'      -10.7460   -8.3730    0.4650 O.3    14  U14        -0.2156
    298  C1'       -9.0610   -8.5980    2.1470 C.3    14  U14         0.2420
    299  N1        -8.8570   -8.2940    3.5860 N.ar   14  U14        -0.2534
    300  C2        -9.8180   -8.7500    4.4730 C.ar   14  U14         0.3546
    301  O2       -10.7950   -9.3920    4.1230 O.2    14  U14        -0.2443
    302  N3        -9.5930   -8.4390    5.7940 N.ar   14  U14        -0.1530
    303  C4        -8.5260   -7.7290    6.3050 C.ar   14  U14         0.2846
    304  O4        -8.4630   -7.5290    7.5200 O.2    14  U14        -0.2650
    305  C5        -7.5810   -7.2820    5.3270 C.ar   14  U14         0.0814
    306  C6        -7.7750   -7.5720    4.0350 C.ar   14  U14         0.0870
    307  OP1       -4.6760   -4.2080    0.6410 O.2    14  U14        -0.5172
    308  OP2       -4.8810   -4.7300    3.1250 O.co2  14  U14        -0.4373
    309  P        -10.6460   -4.4220    0.3900 P.3    15  U15         0.2141
    310  C5'      -12.9090   -5.7420    0.5230 C.3    15  U15         0.1812
    311  O5'      -11.9470   -4.9190    1.1660 O.3    15  U15        -0.3114
    312  C4'      -13.9060   -6.2960    1.5080 C.3    15  U15         0.1773
    313  O4'      -13.2210   -7.1270    2.4840 O.3    15  U15        -0.3307
    314  C3'      -14.6400   -5.2690    2.3570 C.3    15  U15         0.1860
    315  O3'      -15.7190   -4.6450    1.6780 O.3    15  U15        -0.3112
    316  C2'      -15.0570   -6.0840    3.5770 C.3    15  U15         0.2309
    317  O2'      -16.1860   -6.8970    3.2860 O.3    15  U15        -0.2156
    318  C1'      -13.8450   -7.0000    3.7470 C.3    15  U15         0.2420
    319  N1       -12.8640   -6.4510    4.7170 N.ar   15  U15        -0.2534
    320  C2       -13.1040   -6.6710    6.0610 C.ar   15  U15         0.3546
    321  O2       -14.0740   -7.2920    6.4540 O.2    15  U15        -0.2443
    322  N3       -12.1690   -6.1430    6.9200 N.ar   15  U15        -0.1530
    323  C4       -11.0400   -5.4280    6.5660 C.ar   15  U15         0.2846
    324  O4       -10.2800   -5.0100    7.4410 O.2    15  U15        -0.2650
    325  C5       -10.8630   -5.2340    5.1580 C.ar   15  U15         0.0814
    326  C6       -11.7590   -5.7410    4.3050 C.ar   15  U15         0.0870
    327  OP1      -11.0790   -3.7910   -0.8890 O.2    15  U15        -0.5172
    328  OP2       -9.7980   -3.6520    1.3370 O.co2  15  U15        -0.4373
    329  P        -16.0740   -3.1020    1.9740 P.3    16  C16         0.2141
    330  C5'      -18.0570   -3.9680    3.4530 C.3    16  C16         0.1812
    331  O5'      -16.8910   -3.1640    3.3430 O.3    16  C16        -0.3114
    332  C4'      -18.4400   -4.2260    4.8930 C.3    16  C16         0.1773
    333  O4'      -17.4170   -5.0160    5.5600 O.3    16  C16        -0.3307
    334  C3'      -18.5890   -3.0110    5.7890 C.3    16  C16         0.1860
    335  O3'      -19.7940   -2.2960    5.5880 O.3    16  C16        -0.3112
    336  C2'      -18.4530   -3.6230    7.1760 C.3    16  C16         0.2309
    337  O2'      -19.6420   -4.3150    7.5230 O.3    16  C16        -0.2156
    338  C1'      -17.3600   -4.6620    6.9290 C.3    16  C16         0.2420
    339  N1       -16.0110   -4.1280    7.2320 N.ar   16  C16        -0.2535
    340  C2       -15.5450   -4.1940    8.5500 C.ar   16  C16         0.3532
    341  O2       -16.2650   -4.6960    9.4330 O.2    16  C16        -0.2443
    342  N3       -14.3150   -3.7030    8.8280 N.ar   16  C16        -0.1739
    343  C4       -13.5630   -3.1660    7.8580 C.ar   16  C16         0.1759
    344  N4       -12.3530   -2.6910    8.1780 N.pl3  16  C16        -0.1070
    345  C5       -14.0170   -3.0880    6.5120 C.ar   16  C16         0.0566
    346  C6       -15.2340   -3.5740    6.2530 C.ar   16  C16         0.0850
    347  OP1      -16.9950   -2.6410    0.8960 O.2    16  C16        -0.5172
    348  OP2      -14.8100   -2.3570    2.2210 O.co2  16  C16        -0.4373
    349  P        -19.8800   -0.7640    6.0550 P.3    17  G17         0.2141
    350  C5'      -19.3920    0.0440    8.4840 C.3    17  G17         0.1812
    351  O5'      -20.0520   -0.8690    7.6280 O.3    17  G17        -0.3114
    352  C4'      -19.2100   -0.5470    9.8560 C.3    17  G17         0.1773
    353  O4'      -18.1420   -1.5310    9.8300 O.3    17  G17        -0.3307
    354  C3'      -18.7960    0.4370   10.9350 C.3    17  G17         0.1860
    355  O3'      -19.9080    1.1320   11.4710 O.3    17  G17        -0.3112
    356  C2'      -18.0900   -0.4610   11.9450 C.3    17  G17         0.2309
    357  O2'      -19.0380   -1.1630   12.7310 O.3    17  G17        -0.2156
    358  C1'      -17.3890   -1.4580   11.0220 C.3    17  G17         0.2408
    359  N1       -12.7810   -0.2780   12.8020 N.ar   17  G17        -0.1709
    360  C2       -13.8990   -0.7190   13.4760 C.ar   17  G17         0.2606
    361  N2       -13.7970   -0.8610   14.8100 N.pl3  17  G17        -0.0859
    362  N3       -15.0460   -1.0000   12.8850 N.ar   17  G17        -0.1918
    363  C4       -14.9940   -0.8010   11.5500 C.ar   17  G17         0.1723
    364  C5       -13.9370   -0.3680   10.7750 C.ar   17  G17         0.1748
    365  C6       -12.7020   -0.0660   11.4180 C.ar   17  G17         0.3023
    366  O6       -11.6440    0.3340   10.9010 O.2    17  G17        -0.2633
    367  N7       -14.3060   -0.2990    9.4320 N.ar   17  G17        -0.2173
    368  C8       -15.5530   -0.6890    9.4210 C.ar   17  G17         0.1817
    369  N9       -16.0300   -1.0020   10.6720 N.ar   17  G17        -0.2693
    370  OP1      -21.1150   -0.1590    5.4950 O.2    17  G17        -0.5172
    371  OP2      -18.5610   -0.1240    5.8170 O.co2  17  G17        -0.4373
    372  P        -19.8000    2.6880   11.8500 P.3    18  C18         0.2141
    373  C5'      -19.2570    2.0840   14.3450 C.3    18  C18         0.1812
    374  O5'      -18.8630    2.7130   13.1360 O.3    18  C18        -0.3114
    375  C4'      -18.1490    2.1420   15.3610 C.3    18  C18         0.1773
    376  O4'      -17.0220    1.3630   14.8770 O.3    18  C18        -0.3307
    377  C3'      -17.5640    3.5240   15.6290 C.3    18  C18         0.1860
    378  O3'      -18.3240    4.2940   16.5480 O.3    18  C18        -0.3112
    379  C2'      -16.1610    3.1990   16.1260 C.3    18  C18         0.2309
    380  O2'      -16.1890    2.8080   17.4960 O.3    18  C18        -0.2156
    381  C1'      -15.8120    1.9810   15.2660 C.3    18  C18         0.2420
    382  N1       -15.0670    2.3440   14.0320 N.ar   18  C18        -0.2535
    383  C2       -13.7180    2.6760   14.1270 C.ar   18  C18         0.3532
    384  O2       -13.1740    2.6810   15.2410 O.2    18  C18        -0.2443
    385  N3       -13.0350    2.9960   13.0030 N.ar   18  C18        -0.1739
    386  C4       -13.6540    2.9810   11.8210 C.ar   18  C18         0.1759
    387  N4       -12.9280    3.2950   10.7480 N.pl3  18  C18        -0.1070
    388  C5       -15.0310    2.6340   11.6890 C.ar   18  C18         0.0566
    389  C6       -15.6880    2.3250   12.8140 C.ar   18  C18         0.0850
    390  OP1      -21.1500    3.1330   12.2890 O.3    18  C18        -0.4373
    391  OP2      -19.0870    3.3890   10.7420 O.co2  18  C18        -0.5172
    392  P        -18.4470    5.8940   16.3690 P.3    19  G19         0.2141
    393  C5'      -16.5420    6.2410   18.1220 C.3    19  G19         0.1812
    394  O5'      -17.0220    6.4340   16.8060 O.3    19  G19        -0.3114
    395  C4'      -15.0930    6.6240   18.2160 C.3    19  G19         0.1773
    396  O4'      -14.2950    5.7700   17.3560 O.3    19  G19        -0.3307
    397  C3'      -14.7640    8.0210   17.7270 C.3    19  G19         0.1860
    398  O3'      -15.0780    9.0120   18.6720 O.3    19  G19        -0.3112
    399  C2'      -13.2770    7.9160   17.4290 C.3    19  G19         0.2309
    400  O2'      -12.5370    7.9140   18.6450 O.3    19  G19        -0.2156
    401  C1'      -13.2010    6.5130   16.8430 C.3    19  G19         0.2408
    402  N1       -10.6470    7.2400   12.4540 N.ar   19  G19        -0.1709
    403  C2       -10.2360    7.4590   13.7420 C.ar   19  G19         0.2606
    404  N2        -8.9830    7.9320   13.8710 N.pl3  19  G19        -0.0859
    405  N3       -10.9990    7.2480   14.8170 N.ar   19  G19        -0.1918
    406  C4       -12.2250    6.7920   14.4900 C.ar   19  G19         0.1723
    407  C5       -12.7330    6.5560   13.2270 C.ar   19  G19         0.1748
    408  C6       -11.9100    6.7870   12.0900 C.ar   19  G19         0.3023
    409  O6       -12.1930    6.6160   10.8960 O.2    19  G19        -0.2633
    410  N7       -14.0380    6.0890   13.3030 N.ar   19  G19        -0.2173
    411  C8       -14.2960    6.0540   14.5860 C.ar   19  G19         0.1817
    412  N9       -13.2500    6.4790   15.3640 N.ar   19  G19        -0.2693
    413  OP1      -19.4180    6.4170   17.3720 O.3    19  G19        -0.4373
    414  OP2      -18.6380    6.1470   14.9150 O.co2  19  G19        -0.5172
    415  P        -15.7130   10.3900   18.1710 P.3    20  U20         0.2141
    416  C5'      -13.3550   11.4840   18.1610 C.3    20  U20         0.1812
    417  O5'      -14.5010   11.0930   17.4280 O.3    20  U20        -0.3114
    418  C4'      -12.2510   11.9230   17.2450 C.3    20  U20         0.1773
    419  O4'      -11.8340   10.8050   16.4190 O.3    20  U20        -0.3307
    420  C3'      -12.6100   13.0060   16.2410 C.3    20  U20         0.1860
    421  O3'      -12.5600   14.3040   16.8140 O.3    20  U20        -0.3112
    422  C2'      -11.5540   12.8000   15.1690 C.3    20  U20         0.2309
    423  O2'      -10.3230   13.3070   15.6470 O.3    20  U20        -0.2156
    424  C1'      -11.4320   11.2760   15.1510 C.3    20  U20         0.2420
    425  N1       -12.2680   10.6330   14.1140 N.ar   20  U20        -0.2534
    426  C2       -11.7180   10.5140   12.8490 C.ar   20  U20         0.3546
    427  O2       -10.6020   10.9240   12.5670 O.2    20  U20        -0.2443
    428  N3       -12.5280    9.9000   11.9270 N.ar   20  U20        -0.1530
    429  C4       -13.7990    9.4090   12.1280 C.ar   20  U20         0.2846
    430  O4       -14.3960    8.8750   11.1900 O.2    20  U20        -0.2650
    431  C5       -14.2920    9.5670   13.4660 C.ar   20  U20         0.0814
    432  C6       -13.5260   10.1590   14.3890 C.ar   20  U20         0.0870
    433  OP1      -15.9680   11.1540   19.4300 O.3    20  U20        -0.4373
    434  OP2      -16.7910   10.0880   17.1880 O.co2  20  U20        -0.5172
    435  P        -13.6790   15.4190   16.4930 P.3    21  U21         0.2141
    436  C5'      -13.9470   16.2980   18.9670 C.3    21  U21         0.1812
    437  O5'      -14.4840   15.5740   17.8630 O.3    21  U21        -0.3114
    438  C4'      -14.7810   16.0860   20.2110 C.3    21  U21         0.1773
    439  O4'      -16.1460   16.5290   19.9530 O.3    21  U21        -0.3307
    440  C3'      -14.8880   14.6330   20.6610 C.3    21  U21         0.1860
    441  O3'      -15.0310   14.5770   22.0770 O.3    21  U21        -0.3112
    442  C2'      -16.1930   14.1830   20.0210 C.3    21  U21         0.2309
    443  O2'      -16.8090   13.0920   20.6600 O.3    21  U21        -0.2156
    444  C1'      -17.0380   15.4470   20.1340 C.3    21  U21         0.2420
    445  N1       -18.0830   15.5320   19.1030 N.ar   21  U21        -0.2534
    446  C2       -19.3910   15.5650   19.5380 C.ar   21  U21         0.3546
    447  O2       -19.6740   15.5480   20.7210 O.2    21  U21        -0.2443
    448  N3       -20.3350   15.6240   18.5410 N.ar   21  U21        -0.1530
    449  C4       -20.0920   15.6600   17.1780 C.ar   21  U21         0.2846
    450  O4       -21.0380   15.7260   16.3930 O.2    21  U21        -0.2650
    451  C5       -18.7120   15.6060   16.8090 C.ar   21  U21         0.0814
    452  C6       -17.7730   15.5380   17.7630 C.ar   21  U21         0.0870
    453  OP1      -14.6770   14.9370   15.5060 O.2    21  U21        -0.5172
    454  OP2      -12.9190   16.6790   16.3040 O.co2  21  U21        -0.4373
    455  P        -13.7460   14.4120   23.0210 P.3    22  A22         0.2141
    456  C5'      -13.6880   11.8790   22.2640 C.3    22  A22         0.1812
    457  O5'      -13.0080   13.1140   22.4530 O.3    22  A22        -0.3114
    458  C4'      -12.7250   10.7140   22.3210 C.3    22  A22         0.1773
    459  O4'      -11.9920   10.5950   21.0610 O.3    22  A22        -0.3307
    460  C3'      -11.6590   10.7910   23.4260 C.3    22  A22         0.1860
    461  O3'      -11.4130    9.4710   23.9110 O.3    22  A22        -0.3112
    462  C2'      -10.4270   11.2510   22.6520 C.3    22  A22         0.2309
    463  O2'       -9.1920   10.9500   23.2640 O.3    22  A22        -0.2156
    464  C1'      -10.6150   10.4760   21.3580 C.3    22  A22         0.2408
    465  N1        -8.9680    9.2510   16.6370 N.ar   22  A22        -0.2040
    466  C2        -9.8560    8.6710   17.4570 C.ar   22  A22         0.2016
    467  N3       -10.2480    9.0560   18.6770 N.ar   22  A22        -0.2048
    468  C4        -9.6080   10.1770   19.0570 C.ar   22  A22         0.1692
    469  C5        -8.6630   10.8740   18.3270 C.ar   22  A22         0.1518
    470  C6        -8.3450   10.3670   17.0500 C.ar   22  A22         0.1919
    471  N6        -7.4620   10.9350   16.2320 N.pl3  22  A22        -0.1054
    472  N7        -8.2190   11.9860   19.0360 N.ar   22  A22        -0.2193
    473  C8        -8.8870   11.9330   20.1610 C.ar   22  A22         0.1816
    474  N9        -9.7650   10.8790   20.2330 N.ar   22  A22        -0.2693
    475  OP1      -14.2590   14.1180   24.3860 O.3    22  A22        -0.4373
    476  OP2      -12.7970   15.5200   22.8080 O.co2  22  A22        -0.5172
    477  P        -11.3180    9.1650   25.4900 P.3    23  A23         0.2141
    478  C5'      -12.8030    7.0430   25.8450 C.3    23  A23         0.1812
    479  O5'      -11.5250    7.5860   25.5640 O.3    23  A23        -0.3114
    480  C4'      -13.3000    6.1160   24.7620 C.3    23  A23         0.1773
    481  O4'      -13.2480    6.7530   23.4540 O.3    23  A23        -0.3307
    482  C3'      -12.5430    4.8210   24.5420 C.3    23  A23         0.1860
    483  O3'      -12.7800    3.8450   25.5450 O.3    23  A23        -0.3112
    484  C2'      -13.0570    4.4000   23.1760 C.3    23  A23         0.2309
    485  O2'      -14.3800    3.9010   23.2990 O.3    23  A23        -0.2156
    486  C1'      -13.1170    5.7490   22.4570 C.3    23  A23         0.2408
    487  N1       -10.4110    4.4670   18.2210 N.ar   23  A23        -0.2040
    488  C2       -11.6070    4.0520   18.6900 C.ar   23  A23         0.2016
    489  N3       -12.2470    4.4220   19.8100 N.ar   23  A23        -0.2048
    490  C4       -11.5420    5.3510   20.4940 C.ar   23  A23         0.1692
    491  C5       -10.3100    5.8680   20.1420 C.ar   23  A23         0.1518
    492  C6        -9.7340    5.3960   18.9410 C.ar   23  A23         0.1919
    493  N6        -8.5490    5.8280   18.5030 N.pl3  23  A23        -0.1054
    494  N7        -9.8730    6.7980   21.0840 N.ar   23  A23        -0.2193
    495  C8       -10.8400    6.8200   21.9710 C.ar   23  A23         0.1816
    496  N9       -11.8870    5.9870   21.6680 N.ar   23  A23        -0.2693
    497  OP1      -12.5000    9.8130   26.1110 O.3    23  A23        -0.4373
    498  OP2       -9.9370    9.4850   25.9570 O.co2  23  A23        -0.5172
    499  P        -11.5660    2.9380   26.0840 P.3    24  G24         0.2141
    500  C5'      -11.9050    1.2030   24.1310 C.3    24  G24         0.1812
    501  O5'      -11.0680    2.1370   24.7940 O.3    24  G24        -0.3114
    502  C4'      -11.3480    0.8410   22.7720 C.3    24  G24         0.1773
    503  O4'      -11.2370    2.0370   21.9500 O.3    24  G24        -0.3307
    504  C3'       -9.9450    0.2490   22.7500 C.3    24  G24         0.1860
    505  O3'       -9.9200   -1.1390   23.0420 O.3    24  G24        -0.3112
    506  C2'       -9.4830    0.5680   21.3350 C.3    24  G24         0.2309
    507  O2'      -10.0860   -0.3270   20.4200 O.3    24  G24        -0.2156
    508  C1'      -10.0910    1.9540   21.1330 C.3    24  G24         0.2408
    509  N1        -5.8960    4.5980   19.9800 N.ar   24  G24        -0.1709
    510  C2        -6.5530    3.6390   19.2470 C.ar   24  G24         0.2606
    511  N2        -6.0230    3.3370   18.0450 N.pl3  24  G24        -0.0859
    512  N3        -7.6510    3.0170   19.6490 N.ar   24  G24        -0.1918
    513  C4        -8.0410    3.4400   20.8730 C.ar   24  G24         0.1723
    514  C5        -7.4680    4.3920   21.6830 C.ar   24  G24         0.1748
    515  C6        -6.2990    5.0530   21.2370 C.ar   24  G24         0.3023
    516  O6        -5.6560    5.9200   21.8290 O.2    24  G24        -0.2633
    517  N7        -8.1810    4.5330   22.8660 N.ar   24  G24        -0.2173
    518  C8        -9.1670    3.6880   22.7500 C.ar   24  G24         0.1817
    519  N9        -9.1480    3.0020   21.5660 N.ar   24  G24        -0.2693
    520  OP1      -12.1360    1.9410   27.0290 O.3    24  G24        -0.4373
    521  OP2      -10.4610    3.8430   26.5020 O.co2  24  G24        -0.5172
    522  P         -8.6990   -1.7650   23.8800 P.3    25  U25         0.2141
    523  C5'       -7.1790   -2.0920   21.7760 C.3    25  U25         0.1812
    524  O5'       -7.4140   -1.4350   23.0040 O.3    25  U25        -0.3114
    525  C4'       -5.9700   -1.5150   21.1080 C.3    25  U25         0.1773
    526  O4'       -6.1810   -0.0920   20.8750 O.3    25  U25        -0.3307
    527  C3'       -4.6910   -1.5510   21.9240 C.3    25  U25         0.1860
    528  O3'       -4.0510   -2.8150   21.9310 O.3    25  U25        -0.3112
    529  C2'       -3.8690   -0.4540   21.2760 C.3    25  U25         0.2309
    530  O2'       -3.3400   -0.8950   20.0320 O.3    25  U25        -0.2156
    531  C1'       -4.9550    0.5900   20.9990 C.3    25  U25         0.2420
    532  N1        -5.0440    1.5700   22.1090 N.ar   25  U25        -0.2534
    533  C2        -4.0470    2.4990   22.0750 C.ar   25  U25         0.3546
    534  O2        -3.2260    2.4810   21.1820 O.2    25  U25        -0.2443
    535  N3        -4.0580    3.4260   23.0810 N.ar   25  U25        -0.1530
    536  C4        -4.9630    3.4930   24.1190 C.ar   25  U25         0.2846
    537  O4        -4.8270    4.3990   24.9500 O.2    25  U25        -0.2650
    538  C5        -5.9760    2.4730   24.1040 C.ar   25  U25         0.0814
    539  C6        -5.9810    1.5610   23.1210 C.ar   25  U25         0.0870
    540  OP1       -8.9370   -3.2410   23.9220 O.2    25  U25        -0.5172
    541  OP2       -8.4640   -0.9740   25.1170 O.co2  25  U25        -0.4373
    542  P         -3.3430   -3.3360   23.2760 P.3    26  G26         0.2141
    543  C5'       -1.0790   -2.3970   22.3970 C.3    26  G26         0.1812
    544  O5'       -2.0630   -2.4130   23.4140 O.3    26  G26        -0.3114
    545  C4'        0.0190   -1.4340   22.7320 C.3    26  G26         0.1773
    546  O4'       -0.4540   -0.0660   22.5650 O.3    26  G26        -0.3307
    547  C3'        0.5110   -1.4620   24.1710 C.3    26  G26         0.1860
    548  O3'        1.3890   -2.5450   24.4610 O.3    26  G26        -0.3112
    549  C2'        1.1530   -0.0930   24.3010 C.3    26  G26         0.2309
    550  O2'        2.3850   -0.0690   23.6010 O.3    26  G26        -0.2156
    551  C1'        0.1450    0.7650   23.5320 C.3    26  G26         0.2408
    552  N1        -0.9330    3.9740   27.3110 N.ar   26  G26        -0.1709
    553  C2         0.2430    3.7720   26.6240 C.ar   26  G26         0.2606
    554  N2         1.2760    4.5390   27.0000 N.pl3  26  G26        -0.0859
    555  N3         0.3970    2.9010   25.6400 N.ar   26  G26        -0.1918
    556  C4        -0.7460    2.2290   25.4020 C.ar   26  G26         0.1723
    557  C5        -1.9730    2.3510   26.0280 C.ar   26  G26         0.1748
    558  C6        -2.1210    3.2900   27.0880 C.ar   26  G26         0.3023
    559  O6        -3.1270    3.5570   27.7730 O.2    26  G26        -0.2633
    560  N7        -2.8860    1.4640   25.4700 N.ar   26  G26        -0.2173
    561  C8        -2.2090    0.8320   24.5410 C.ar   26  G26         0.1817
    562  N9        -0.9070    1.2610   24.4420 N.ar   26  G26        -0.2693
    563  OP1       -2.8870   -4.7360   23.0260 O.2    26  G26        -0.5172
    564  OP2       -4.2530   -3.0360   24.4170 O.co2  26  G26        -0.4373
    565  P          1.5300   -3.0990   25.9750 P.3    27  U27         0.2141
    566  C5'        3.4150   -1.4170   26.6740 C.3    27  U27         0.1812
    567  O5'        2.0740   -1.8540   26.8040 O.3    27  U27        -0.3114
    568  C4'        3.7770   -0.3990   27.7230 C.3    27  U27         0.1773
    569  O4'        2.9110    0.7620   27.6150 O.3    27  U27        -0.3307
    570  C3'        3.6170   -0.8290   29.1720 C.3    27  U27         0.1860
    571  O3'        4.6690   -1.6470   29.6390 O.3    27  U27        -0.3112
    572  C2'        3.5280    0.5050   29.8930 C.3    27  U27         0.2309
    573  O2'        4.8100    1.0980   29.9920 O.3    27  U27        -0.2156
    574  C1'        2.7040    1.3190   28.9020 C.3    27  U27         0.2420
    575  N1         1.2580    1.2670   29.2210 N.ar   27  U27        -0.2534
    576  C2         0.8220    2.0290   30.2860 C.ar   27  U27         0.3546
    577  O2         1.5540    2.7300   30.9690 O.2    27  U27        -0.2443
    578  N3        -0.5240    1.9540   30.5300 N.ar   27  U27        -0.1530
    579  C4        -1.4600    1.2110   29.8500 C.ar   27  U27         0.2846
    580  O4        -2.6350    1.2710   30.2170 O.2    27  U27        -0.2650
    581  C5        -0.9330    0.4440   28.7600 C.ar   27  U27         0.0814
    582  C6         0.3770    0.4990   28.4890 C.ar   27  U27         0.0870
    583  OP1        2.5540   -4.1810   25.9450 O.2    27  U27        -0.5172
    584  OP2        0.1640   -3.4270   26.4660 O.co2  27  U27        -0.4373
    585  P          4.4260   -2.6080   30.9070 P.3    28  G28         0.2141
    586  C5'        5.1760   -0.9370   32.7620 C.3    28  G28         0.1812
    587  O5'        4.1180   -1.5970   32.0950 O.3    28  G28        -0.3114
    588  C4'        4.6940   -0.2350   33.9990 C.3    28  G28         0.1773
    589  O4'        3.6450    0.7020   33.6470 O.3    28  G28        -0.3307
    590  C3'        4.0490   -1.1070   35.0640 C.3    28  G28         0.1860
    591  O3'        4.9860   -1.8300   35.8470 O.3    28  G28        -0.3112
    592  C2'        3.2280   -0.0920   35.8460 C.3    28  G28         0.2309
    593  O2'        4.0670    0.7030   36.6690 O.3    28  G28        -0.2156
    594  C1'        2.7190    0.8000   34.7110 C.3    28  G28         0.2408
    595  N1        -2.2900    0.8590   35.5800 N.ar   28  G28        -0.1709
    596  C2        -1.2700    1.4250   36.3130 C.ar   28  G28         0.2606
    597  N2        -1.6260    2.1000   37.4270 N.pl3  28  G28        -0.0859
    598  N3         0.0050    1.3360   35.9730 N.ar   28  G28        -0.1918
    599  C4         0.1830    0.6320   34.8350 C.ar   28  G28         0.1723
    600  C5        -0.7680    0.0290   34.0360 C.ar   28  G28         0.1748
    601  C6        -2.1340    0.1310   34.4010 C.ar   28  G28         0.3023
    602  O6        -3.1200   -0.3320   33.8050 O.2    28  G28        -0.2633
    603  N7        -0.1780   -0.6000   32.9510 N.ar   28  G28        -0.2173
    604  C8         1.1000   -0.3700   33.1080 C.ar   28  G28         0.1817
    605  N9         1.3870    0.3740   34.2260 N.ar   28  G28        -0.2693
    606  OP1        5.7350   -3.2560   31.1850 O.3    28  G28        -0.4373
    607  OP2        3.2210   -3.4450   30.6720 O.co2  28  G28        -0.5172
    608  P          4.6530   -3.3290   36.3370 P.3    29  U29         0.2141
    609  C5'        4.1540   -2.3170   38.7040 C.3    29  U29         0.1812
    610  O5'        3.7120   -3.0980   37.6030 O.3    29  U29        -0.3114
    611  C4'        3.0190   -2.0000   39.6430 C.3    29  U29         0.1773
    612  O4'        2.1000   -1.0780   38.9980 O.3    29  U29        -0.3307
    613  C3'        2.1330   -3.1720   40.0360 C.3    29  U29         0.1860
    614  O3'        2.6900   -3.9990   41.0370 O.3    29  U29        -0.3112
    615  C2'        0.8460   -2.4700   40.4480 C.3    29  U29         0.2309
    616  O2'        0.9890   -1.8620   41.7260 O.3    29  U29        -0.2156
    617  C1'        0.7750   -1.3650   39.4010 C.3    29  U29         0.2420
    618  N1        -0.0080   -1.8050   38.2210 N.ar   29  U29        -0.2534
    619  C2        -1.3830   -1.6970   38.3140 C.ar   29  U29         0.3546
    620  O2        -1.9440   -1.2500   39.2940 O.2    29  U29        -0.2443
    621  N3        -2.0780   -2.1290   37.2160 N.ar   29  U29        -0.1530
    622  C4        -1.5400   -2.6610   36.0600 C.ar   29  U29         0.2846
    623  O4        -2.2960   -3.0090   35.1580 O.2    29  U29        -0.2650
    624  C5        -0.1120   -2.7560   36.0390 C.ar   29  U29         0.0814
    625  C6         0.5860   -2.3430   37.1000 C.ar   29  U29         0.0870
    626  OP1        5.9320   -3.9370   36.7870 O.3    29  U29        -0.4373
    627  OP2        3.8330   -4.0590   35.3320 O.co2  29  U29        -0.5172
    628  P          2.2670   -5.5480   41.1210 P.3    30  G30         0.2141
    629  C5'        0.3060   -4.9030   42.6980 C.3    30  G30         0.1812
    630  O5'        0.7260   -5.4960   41.4850 O.3    30  G30        -0.3114
    631  C4'       -1.1850   -4.8890   42.7770 C.3    30  G30         0.1773
    632  O4'       -1.7150   -4.0290   41.7390 O.3    30  G30        -0.3307
    633  C3'       -1.8590   -6.2230   42.5120 C.3    30  G30         0.1860
    634  O3'       -1.7910   -7.1070   43.6270 O.3    30  G30        -0.3112
    635  C2'       -3.2630   -5.7840   42.1210 C.3    30  G30         0.2309
    636  O2'       -3.9970   -5.3660   43.2700 O.3    30  G30        -0.2156
    637  C1'       -2.9540   -4.5350   41.2950 C.3    30  G30         0.2408
    638  N1        -5.6930   -5.5460   37.2270 N.ar   30  G30        -0.1709
    639  C2        -6.0750   -5.2560   38.5230 C.ar   30  G30         0.2606
    640  N2        -7.3920   -5.2350   38.7760 N.pl3  30  G30        -0.0859
    641  N3        -5.2260   -4.9970   39.5000 N.ar   30  G30        -0.1918
    642  C4        -3.9550   -5.0630   39.0680 C.ar   30  G30         0.1723
    643  C5        -3.4590   -5.3420   37.8060 C.ar   30  G30         0.1748
    644  C6        -4.3780   -5.6040   36.7600 C.ar   30  G30         0.3023
    645  O6        -4.1470   -5.8560   35.5680 O.2    30  G30        -0.2633
    646  N7        -2.0730   -5.3060   37.8070 N.ar   30  G30        -0.2173
    647  C8        -1.7660   -5.0090   39.0480 C.ar   30  G30         0.1817
    648  N9        -2.8680   -4.8410   39.8540 N.ar   30  G30        -0.2693
    649  OP1        3.0020   -6.0990   42.2860 O.3    30  G30        -0.4373
    650  OP2        2.3020   -6.2200   39.7980 O.co2  30  G30        -0.5172
    651  P         -1.9840   -8.7080   43.4480 P.3    31  U31         0.2141
    652  C5'       -4.5240   -8.4430   44.0500 C.3    31  U31         0.1812
    653  O5'       -3.5350   -8.8760   43.1300 O.3    31  U31        -0.3114
    654  C4'       -5.9070   -8.5980   43.4760 C.3    31  U31         0.1773
    655  O4'       -6.0690   -7.7310   42.3250 O.3    31  U31        -0.3307
    656  C3'       -6.2460   -9.9840   42.9560 C.3    31  U31         0.1860
    657  O3'       -6.6770  -10.8320   44.0040 O.3    31  U31        -0.3112
    658  C2'       -7.3260   -9.7080   41.9220 C.3    31  U31         0.2309
    659  O2'       -8.5830   -9.5130   42.5540 O.3    31  U31        -0.2156
    660  C1'       -6.8690   -8.3650   41.3530 C.3    31  U31         0.2420
    661  N1        -6.0720   -8.5110   40.1140 N.ar   31  U31        -0.2534
    662  C2        -6.7640   -8.6590   38.9340 C.ar   31  U31         0.3546
    663  O2        -7.9800   -8.7060   38.8860 O.2    31  U31        -0.2443
    664  N3        -5.9770   -8.7610   37.8190 N.ar   31  U31        -0.1530
    665  C4        -4.6000   -8.7350   37.7640 C.ar   31  U31         0.2846
    666  O4        -4.0320   -8.8470   36.6750 O.2    31  U31        -0.2650
    667  C5        -3.9520   -8.5770   39.0330 C.ar   31  U31         0.0814
    668  C6        -4.7010   -8.4720   40.1330 C.ar   31  U31         0.0870
    669  OP1       -1.7000   -9.3260   44.7740 O.3    31  U31        -0.4373
    670  OP2       -1.2410   -9.1590   42.2390 O.co2  31  U31        -0.5172
    671  P         -6.7010  -12.4200   43.8130 P.3    32  G32         0.2141
    672  C5'       -7.9280  -13.6530   41.8740 C.3    32  G32         0.1812
    673  O5'       -7.9600  -12.6600   42.8740 O.3    32  G32        -0.3114
    674  C4'       -8.9230  -13.3550   40.7910 C.3    32  G32         0.1773
    675  O4'       -8.5520  -12.1230   40.1270 O.3    32  G32        -0.3307
    676  C3'       -8.9770  -14.3840   39.6770 C.3    32  G32         0.1860
    677  O3'       -9.8040  -15.4810   40.0090 O.3    32  G32        -0.3112
    678  C2'       -9.4550  -13.5690   38.4810 C.3    32  G32         0.2309
    679  O2'      -10.8550  -13.3510   38.5270 O.3    32  G32        -0.2156
    680  C1'       -8.7690  -12.2350   38.7380 C.3    32  G32         0.2408
    681  N1        -6.3620  -12.0500   34.2630 N.ar   32  G32        -0.1709
    682  C2        -7.7090  -12.1560   34.5230 C.ar   32  G32         0.2606
    683  N2        -8.5270  -12.2300   33.4620 N.pl3  32  G32        -0.0859
    684  N3        -8.2220  -12.2080   35.7460 N.ar   32  G32        -0.1918
    685  C4        -7.2620  -12.1270   36.6980 C.ar   32  G32         0.1723
    686  C5        -5.8950  -12.0220   36.5460 C.ar   32  G32         0.1748
    687  C6        -5.3560  -11.9740   35.2380 C.ar   32  G32         0.3023
    688  O6        -4.1610  -11.8610   34.9250 O.2    32  G32        -0.2633
    689  N7        -5.2530  -11.9640   37.7790 N.ar   32  G32        -0.2173
    690  C8        -6.2320  -12.0420   38.6420 C.ar   32  G32         0.1817
    691  N9        -7.4690  -12.1400   38.0570 N.ar   32  G32        -0.2693
    692  OP1       -7.0460  -12.9960   45.1420 O.3    32  G32        -0.4373
    693  OP2       -5.4770  -12.8180   43.0660 O.co2  32  G32        -0.5172
    694  P         -9.5100  -16.9420   39.4060 P.3    33  A33         0.2141
    695  C5'      -11.2920  -16.5550   37.5140 C.3    33  A33         0.1812
    696  O5'       -9.9460  -16.7930   37.8830 O.3    33  A33        -0.3114
    697  C4'      -11.4180  -16.4560   36.0150 C.3    33  A33         0.1773
    698  O4'      -10.6510  -15.3280   35.5300 O.3    33  A33        -0.3307
    699  C3'      -10.8650  -17.6340   35.2290 C.3    33  A33         0.1860
    700  O3'      -11.7790  -18.7010   35.1600 O.3    33  A33        -0.3112
    701  C2'      -10.5770  -17.0180   33.8720 C.3    33  A33         0.2309
    702  O2'      -11.7870  -16.8370   33.1610 O.3    33  A33        -0.2156
    703  C1'      -10.0800  -15.6370   34.2800 C.3    33  A33         0.2408
    704  N1        -5.5690  -15.1910   31.8240 N.ar   33  A33        -0.2040
    705  C2        -6.8320  -15.2770   31.3810 C.ar   33  A33         0.2016
    706  N3        -7.9610  -15.4120   32.0790 N.ar   33  A33        -0.2048
    707  C4        -7.7060  -15.4410   33.3970 C.ar   33  A33         0.1692
    708  C5        -6.4720  -15.3740   34.0090 C.ar   33  A33         0.1518
    709  C6        -5.3550  -15.2400   33.1630 C.ar   33  A33         0.1919
    710  N6        -4.1050  -15.1650   33.6250 N.pl3  33  A33        -0.1054
    711  N7        -6.5990  -15.4640   35.3930 N.ar   33  A33        -0.2193
    712  C8        -7.8900  -15.5740   35.5860 C.ar   33  A33         0.1816
    713  N9        -8.6130  -15.5690   34.4180 N.ar   33  A33        -0.2693
    714  OP1      -10.4210  -17.8880   40.0960 O.3    33  A33        -0.4373
    715  OP2       -8.0390  -17.1820   39.3890 O.co2  33  A33        -0.5172
    716  P        -11.2590  -20.2120   35.0750 P.3    34  A34         0.2141
    717  C5'      -11.9650  -20.2150   32.5610 C.3    34  A34         0.1812
    718  O5'      -10.9500  -20.4140   33.5230 O.3    34  A34        -0.3114
    719  C4'      -11.3970  -20.0600   31.1770 C.3    34  A34         0.1773
    720  O4'      -10.5670  -18.8730   31.1010 O.3    34  A34        -0.3307
    721  C3'      -10.4790  -21.1760   30.7130 C.3    34  A34         0.1860
    722  O3'      -11.2010  -22.3210   30.2850 O.3    34  A34        -0.3112
    723  C2'       -9.6750  -20.4950   29.6150 C.3    34  A34         0.2309
    724  O2'      -10.4660  -20.3650   28.4500 O.3    34  A34        -0.2156
    725  C1'       -9.4940  -19.0990   30.2070 C.3    34  A34         0.2408
    726  N1        -4.4420  -17.9860   30.0170 N.ar   34  A34        -0.2040
    727  C2        -5.3810  -18.0470   29.0510 C.ar   34  A34         0.2016
    728  N3        -6.6770  -18.3550   29.1700 N.ar   34  A34        -0.2048
    729  C4        -7.0040  -18.6030   30.4540 C.ar   34  A34         0.1692
    730  C5        -6.1510  -18.5800   31.5440 C.ar   34  A34         0.1518
    731  C6        -4.8050  -18.2490   31.2940 C.ar   34  A34         0.1919
    732  N6        -3.8790  -18.1800   32.2570 N.pl3  34  A34        -0.1054
    733  N7        -6.8310  -18.9050   32.7120 N.ar   34  A34        -0.2193
    734  C8        -8.0640  -19.1160   32.3100 C.ar   34  A34         0.1816
    735  N9        -8.2320  -18.9590   30.9580 N.ar   34  A34        -0.2693
    736  OP1      -12.4430  -21.0200   35.4610 O.2    34  A34        -0.5172
    737  OP2       -9.9650  -20.3790   35.7920 O.co2  34  A34        -0.4373
    738  P        -10.4750  -23.7470   30.1710 P.3    35  U35         0.2141
    739  C5'       -8.1590  -24.0020   28.9680 C.3    35  U35         0.1812
    740  O5'       -9.4940  -23.5330   28.9400 O.3    35  U35        -0.3114
    741  C4'       -7.3140  -23.2630   27.9600 C.3    35  U35         0.1773
    742  O4'       -6.9050  -21.9920   28.5110 O.3    35  U35        -0.3307
    743  C3'       -6.0150  -23.9430   27.5780 C.3    35  U35         0.1860
    744  O3'       -6.2140  -24.9170   26.5720 O.3    35  U35        -0.3112
    745  C2'       -5.1510  -22.7770   27.1240 C.3    35  U35         0.2309
    746  O2'       -5.4940  -22.3940   25.8020 O.3    35  U35        -0.2156
    747  C1'       -5.6030  -21.6720   28.0750 C.3    35  U35         0.2420
    748  N1        -4.7240  -21.5520   29.2640 N.ar   35  U35        -0.2534
    749  C2        -3.4740  -21.0120   29.0860 C.ar   35  U35         0.3546
    750  O2        -3.0570  -20.6310   28.0090 O.2    35  U35        -0.2443
    751  N3        -2.7090  -20.9490   30.2190 N.ar   35  U35        -0.1530
    752  C4        -3.0670  -21.3460   31.4880 C.ar   35  U35         0.2846
    753  O4        -2.2540  -21.2090   32.3980 O.2    35  U35        -0.2650
    754  C5        -4.3830  -21.8960   31.6020 C.ar   35  U35         0.0814
    755  C6        -5.1420  -21.9750   30.5050 C.ar   35  U35         0.0870
    756  OP1      -11.4910  -24.7330   29.7270 O.2    35  U35        -0.5172
    757  OP2       -9.6890  -24.0330   31.4020 O.co2  35  U35        -0.4373
    758  P         -5.9960  -26.4780   26.8870 P.3    36  G36         0.2141
    759  C5'       -5.6120  -28.4150   25.1380 C.3    36  G36         0.1812
    760  O5'       -5.5740  -27.0320   25.4660 O.3    36  G36        -0.3114
    761  C4'       -5.3900  -28.5400   23.6580 C.3    36  G36         0.1773
    762  O4'       -4.0250  -28.1630   23.3390 O.3    36  G36        -0.3307
    763  C3'       -5.6490  -29.8940   22.9880 C.3    36  G36         0.1860
    764  O3'       -6.5410  -29.6980   21.8900 O.3    36  G36        -0.3112
    765  C2'       -4.2630  -30.3140   22.4610 C.3    36  G36         0.2309
    766  O2'       -4.2890  -31.0300   21.2390 O.3    36  G36        -0.2156
    767  C1'       -3.5610  -28.9720   22.2860 C.3    36  G36         0.2408
    768  N1         0.6680  -27.7150   19.8120 N.ar   36  G36        -0.1709
    769  C2        -0.6550  -27.5280   19.4620 C.ar   36  G36         0.2606
    770  N2        -0.9020  -26.9250   18.2830 N.pl3  36  G36        -0.0859
    771  N3        -1.6680  -27.9150   20.2160 N.ar   36  G36        -0.1918
    772  C4        -1.2620  -28.5070   21.3620 C.ar   36  G36         0.1723
    773  C5         0.0270  -28.7410   21.8050 C.ar   36  G36         0.1748
    774  C6         1.1180  -28.3300   20.9830 C.ar   36  G36         0.3023
    775  O6         2.3370  -28.4380   21.1840 O.2    36  G36        -0.2633
    776  N7         0.0010  -29.3810   23.0410 N.ar   36  G36        -0.2173
    777  C8        -1.2720  -29.5250   23.3170 C.ar   36  G36         0.1817
    778  N9        -2.0950  -29.0150   22.3350 N.ar   36  G36        -0.2693
    779  OP1       -7.3100  -27.0490   27.2580 O.2    36  G36        -0.5172
    780  OP2       -4.8020  -26.6550   27.7520 O.co2  36  G36        -0.4373
    781  P         -8.1190  -29.9790   22.0650 P.3    37  G37         0.2141
    782  C5'       -9.4040  -32.1960   22.6410 C.3    37  G37         0.1812
    783  O5'       -8.1770  -31.4870   22.5740 O.3    37  G37        -0.3114
    784  C4'       -9.2680  -33.4640   23.4500 C.3    37  G37         0.1773
    785  O4'       -8.2150  -34.2980   22.9000 O.3    37  G37        -0.3307
    786  C3'       -8.8750  -33.2900   24.9120 C.3    37  G37         0.1860
    787  O3'       -9.9780  -32.9540   25.7360 O.3    37  G37        -0.3112
    788  C2'       -8.2620  -34.6380   25.2550 C.3    37  G37         0.2309
    789  O2'       -9.2840  -35.5900   25.5040 O.3    37  G37        -0.2156
    790  C1'       -7.5640  -35.0000   23.9420 C.3    37  G37         0.2408
    791  N1        -3.0380  -35.6060   26.2280 N.ar   37  G37        -0.1709
    792  C2        -4.2610  -36.1660   26.5300 C.ar   37  G37         0.2606
    793  N2        -4.3050  -36.9980   27.5860 N.pl3  37  G37        -0.0859
    794  N3        -5.3700  -35.9310   25.8470 N.ar   37  G37        -0.1918
    795  C4        -5.1690  -35.0690   24.8240 C.ar   37  G37         0.1723
    796  C5        -3.9950  -34.4530   24.4320 C.ar   37  G37         0.1748
    797  C6        -2.8010  -34.7240   25.1660 C.ar   37  G37         0.3023
    798  O6        -1.6600  -34.2700   24.9690 O.2    37  G37        -0.2633
    799  N7        -4.2150  -33.6300   23.3250 N.ar   37  G37        -0.2173
    800  C8        -5.4910  -33.7720   23.0750 C.ar   37  G37         0.1817
    801  N9        -6.1320  -34.6230   23.9460 N.ar   37  G37        -0.2693
    802  OP1       -8.7170  -29.9240   20.7090 O.2    37  G37        -0.5172
    803  OP2       -8.6780  -29.1160   23.1440 O.co2  37  G37        -0.4373
    804  P         -9.7680  -32.0640   27.0570 P.3    38  G38         0.2141
    805  C5'       -9.8280  -34.0620   28.7570 C.3    38  G38         0.1812
    806  O5'       -9.0700  -33.0600   28.0920 O.3    38  G38        -0.3114
    807  C4'       -9.0390  -34.7140   29.8630 C.3    38  G38         0.1773
    808  O4'       -7.9270  -35.4530   29.2970 O.3    38  G38        -0.3307
    809  C3'       -8.3810  -33.7730   30.8610 C.3    38  G38         0.1860
    810  O3'       -9.2650  -33.3050   31.8630 O.3    38  G38        -0.3112
    811  C2'       -7.2490  -34.6260   31.4120 C.3    38  G38         0.2309
    812  O2'       -7.7610  -35.5830   32.3180 O.3    38  G38        -0.2156
    813  C1'       -6.8060  -35.3660   30.1550 C.3    38  G38         0.2408
    814  N1        -1.8990  -33.9730   30.0370 N.ar   38  G38        -0.1709
    815  C2        -2.5540  -34.7400   30.9690 C.ar   38  G38         0.2606
    816  N2        -1.8030  -35.1930   31.9910 N.pl3  38  G38        -0.0859
    817  N3        -3.8410  -35.0340   30.9010 N.ar   38  G38        -0.1918
    818  C4        -4.4220  -34.5070   29.8100 C.ar   38  G38         0.1723
    819  C5        -3.8540  -33.7260   28.8210 C.ar   38  G38         0.1748
    820  C6        -2.4770  -33.4100   28.9020 C.ar   38  G38         0.3023
    821  O6        -1.8000  -32.7380   28.1140 O.2    38  G38        -0.2633
    822  N7        -4.7890  -33.3620   27.8630 N.ar   38  G38        -0.2173
    823  C8        -5.8880  -33.9230   28.2770 C.ar   38  G38         0.1817
    824  N9        -5.7410  -34.6310   29.4480 N.ar   38  G38        -0.2693
    825  OP1      -11.1330  -31.7680   27.5760 O.3    38  G38        -0.4373
    826  OP2       -8.8170  -30.9680   26.7250 O.co2  38  G38        -0.5172
    827  P         -9.1090  -31.8140   32.4460 P.3    39  A39         0.2141
    828  C5'       -7.8060  -32.5960   34.5900 C.3    39  A39         0.1812
    829  O5'       -7.8080  -31.8770   33.3700 O.3    39  A39        -0.3114
    830  C4'       -6.4190  -32.7170   35.1840 C.3    39  A39         0.1773
    831  O4'       -5.5090  -33.3680   34.2530 O.3    39  A39        -0.3307
    832  C3'       -5.6910  -31.4320   35.5410 C.3    39  A39         0.1860
    833  O3'       -6.1640  -30.8200   36.7280 O.3    39  A39        -0.3112
    834  C2'       -4.2490  -31.9110   35.6430 C.3    39  A39         0.2309
    835  O2'       -4.0380  -32.6340   36.8460 O.3    39  A39        -0.2156
    836  C1'       -4.1910  -32.9120   34.4880 C.3    39  A39         0.2408
    837  N1        -0.0030  -31.1250   32.1000 N.ar   39  A39        -0.2040
    838  C2        -0.1830  -31.6900   33.3060 C.ar   39  A39         0.2016
    839  N3        -1.3120  -32.1360   33.8650 N.ar   39  A39        -0.2048
    840  C4        -2.3570  -31.9450   33.0390 C.ar   39  A39         0.1692
    841  C5        -2.3310  -31.3730   31.7810 C.ar   39  A39         0.1518
    842  C6        -1.0820  -30.9440   31.2970 C.ar   39  A39         0.1919
    843  N6        -0.9170  -30.3740   30.0910 N.pl3  39  A39        -0.1054
    844  N7        -3.6050  -31.3410   31.2300 N.ar   39  A39        -0.2193
    845  C8        -4.3650  -31.8810   32.1530 C.ar   39  A39         0.1816
    846  N9        -3.6690  -32.2800   33.2650 N.ar   39  A39        -0.2693
    847  OP1      -10.3280  -31.5820   33.2630 O.3    39  A39        -0.4373
    848  OP2       -8.7480  -30.8720   31.3490 O.co2  39  A39        -0.5172
    849  P         -6.3050  -29.2240   36.8150 P.3    40  U40         0.2141
    850  C5'       -3.9150  -29.0650   37.8480 C.3    40  U40         0.1812
    851  O5'       -4.7970  -28.6990   36.8020 O.3    40  U40        -0.3114
    852  C4'       -2.4780  -28.7480   37.5300 C.3    40  U40         0.1773
    853  O4'       -2.0390  -29.4440   36.3280 O.3    40  U40        -0.3307
    854  C3'       -2.1390  -27.3030   37.2330 C.3    40  U40         0.1860
    855  O3'       -2.1240  -26.4800   38.3860 O.3    40  U40        -0.3112
    856  C2'       -0.7800  -27.4450   36.5640 C.3    40  U40         0.2309
    857  O2'        0.2060  -27.7700   37.5350 O.3    40  U40        -0.2156
    858  C1'       -1.0090  -28.6950   35.7130 C.3    40  U40         0.2420
    859  N1        -1.4130  -28.3560   34.3300 N.ar   40  U40        -0.2534
    860  C2        -0.4040  -27.9700   33.4930 C.ar   40  U40         0.3546
    861  O2         0.7470  -27.9110   33.8840 O.2    40  U40        -0.2443
    862  N3        -0.7920  -27.6570   32.2070 N.ar   40  U40        -0.1530
    863  C4        -2.0810  -27.7090   31.7020 C.ar   40  U40         0.2846
    864  O4        -2.3000  -27.4150   30.5170 O.2    40  U40        -0.2650
    865  C5        -3.0730  -28.1230   32.6450 C.ar   40  U40         0.0814
    866  C6        -2.7120  -28.4270   33.8990 C.ar   40  U40         0.0870
    867  OP1       -6.8970  -28.9520   38.1500 O.3    40  U40        -0.4373
    868  OP2       -6.9640  -28.7080   35.5850 O.co2  40  U40        -0.5172
    869  P         -2.5230  -24.9240   38.2610 P.3    41  G41         0.2141
    870  C5'       -0.0380  -24.2020   37.8500 C.3    41  G41         0.1812
    871  O5'       -1.3680  -24.2980   37.3680 O.3    41  G41        -0.3114
    872  C4'        0.8860  -23.7000   36.7760 C.3    41  G41         0.1773
    873  O4'        0.8360  -24.5730   35.6170 O.3    41  G41        -0.3307
    874  C3'        0.5590  -22.3310   36.2020 C.3    41  G41         0.1860
    875  O3'        0.9780  -21.2830   37.0590 O.3    41  G41        -0.3112
    876  C2'        1.2860  -22.3610   34.8650 C.3    41  G41         0.2309
    877  O2'        2.6710  -22.1560   35.0700 O.3    41  G41        -0.2156
    878  C1'        1.0900  -23.8250   34.4470 C.3    41  G41         0.2408
    879  N1        -0.4640  -23.7520   29.5870 N.ar   41  G41        -0.1709
    880  C2         0.7850  -23.4780   30.1030 C.ar   41  G41         0.2606
    881  N2         1.7370  -23.1370   29.2190 N.pl3  41  G41        -0.0859
    882  N3         1.0750  -23.5240   31.4020 N.ar   41  G41        -0.1918
    883  C4        -0.0020  -23.8740   32.1410 C.ar   41  G41         0.1723
    884  C5        -1.2880  -24.1620   31.7190 C.ar   41  G41         0.1748
    885  C6        -1.5860  -24.1080   30.3430 C.ar   41  G41         0.3023
    886  O6        -2.6810  -24.3390   29.8140 O.2    41  G41        -0.2633
    887  N7        -2.1130  -24.4840   32.7790 N.ar   41  G41        -0.2173
    888  C8        -1.3310  -24.3750   33.8160 C.ar   41  G41         0.1817
    889  N9        -0.0390  -24.0110   33.5090 N.ar   41  G41        -0.2693
    890  OP1       -2.4520  -24.3430   39.6260 O.3    41  G41        -0.4373
    891  OP2       -3.7460  -24.8260   37.4280 O.co2  41  G41        -0.5172
    892  P          0.6790  -19.7500   36.6860 P.3    42  U42         0.2141
    893  C5'        3.2600  -19.4400   36.2650 C.3    42  U42         0.1812
    894  O5'        1.9230  -19.3300   35.7980 O.3    42  U42        -0.3114
    895  C4'        4.1960  -18.7990   35.2750 C.3    42  U42         0.1773
    896  O4'        4.0210  -19.4560   33.9830 O.3    42  U42        -0.3307
    897  C3'        3.9250  -17.3140   35.0430 C.3    42  U42         0.1860
    898  O3'        5.1400  -16.6230   34.7780 O.3    42  U42        -0.3112
    899  C2'        3.0700  -17.3190   33.7840 C.3    42  U42         0.2309
    900  O2'        3.0930  -16.1180   33.0460 O.3    42  U42        -0.2156
    901  C1'        3.6690  -18.4920   33.0080 C.3    42  U42         0.2420
    902  N1         2.7020  -19.0580   32.0500 N.ar   42  U42        -0.2534
    903  C2         3.0390  -19.0880   30.7050 C.ar   42  U42         0.3546
    904  O2         4.1290  -18.7540   30.3030 O.2    42  U42        -0.2443
    905  N3         2.0660  -19.5460   29.8490 N.ar   42  U42        -0.1530
    906  C4         0.8000  -19.9640   30.2270 C.ar   42  U42         0.2846
    907  O4         0.0160  -20.3640   29.3740 O.2    42  U42        -0.2650
    908  C5         0.5130  -19.8820   31.6320 C.ar   42  U42         0.0814
    909  C6         1.4460  -19.4260   32.4730 C.ar   42  U42         0.0870
    910  OP1        0.7010  -18.9670   37.9520 O.3    42  U42        -0.4373
    911  OP2       -0.4970  -19.6910   35.7640 O.co2  42  U42        -0.5172
    912  P          5.7660  -15.6580   35.8960 P.3    43  C43         0.2141
    913  C5'        5.9970  -13.4470   34.4720 C.3    43  C43         0.1812
    914  O5'        6.6120  -14.5980   35.0550 O.3    43  C43        -0.3114
    915  C4'        6.6310  -13.0920   33.1450 C.3    43  C43         0.1773
    916  O4'        8.0730  -13.2700   33.2510 O.3    43  C43        -0.3307
    917  C3'        6.1850  -13.9550   31.9640 C.3    43  C43         0.1860
    918  O3'        6.2430  -13.1920   30.7560 O.3    43  C43        -0.3112
    919  C2'        7.2670  -15.0300   31.9310 C.3    43  C43         0.2309
    920  O2'        7.4100  -15.6990   30.6980 O.3    43  C43        -0.2156
    921  C1'        8.5080  -14.2160   32.2920 C.3    43  C43         0.2420
    922  N1         9.6020  -15.0170   32.8680 N.ar   43  C43        -0.2535
    923  C2        10.9160  -14.7610   32.4550 C.ar   43  C43         0.3532
    924  O2        11.1130  -13.8440   31.6410 O.2    43  C43        -0.2443
    925  N3        11.9270  -15.5080   32.9730 N.ar   43  C43        -0.1739
    926  C4        11.6700  -16.4860   33.8600 C.ar   43  C43         0.1759
    927  N4        12.6900  -17.2050   34.3520 N.pl3  43  C43        -0.1070
    928  C5        10.3420  -16.7730   34.2870 C.ar   43  C43         0.0566
    929  C6         9.3540  -16.0250   33.7670 C.ar   43  C43         0.0850
    930  OP1        6.6950  -16.4970   36.7000 O.3    43  C43        -0.4373
    931  OP2        4.6580  -14.9370   36.5760 O.co2  43  C43        -0.5172
    932  P          4.9790  -12.3250   30.2500 P.3    44  G44         0.2141
    933  C5'        4.9680  -13.4890   27.9040 C.3    44  G44         0.1812
    934  O5'        4.3010  -13.2430   29.1340 O.3    44  G44        -0.3114
    935  C4'        4.1490  -14.3390   26.9630 C.3    44  G44         0.1773
    936  O4'        3.9860  -15.6780   27.4940 O.3    44  G44        -0.3307
    937  C3'        2.7250  -13.8740   26.6990 C.3    44  G44         0.1860
    938  O3'        2.6660  -12.8480   25.7370 O.3    44  G44        -0.3112
    939  C2'        2.0490  -15.1490   26.2360 C.3    44  G44         0.2309
    940  O2'        2.3860  -15.4190   24.8860 O.3    44  G44        -0.2156
    941  C1'        2.7180  -16.1830   27.1420 C.3    44  G44         0.2408
    942  N1        -1.6880  -17.5430   29.2180 N.ar   44  G44        -0.1709
    943  C2        -1.3170  -17.5500   27.8890 C.ar   44  G44         0.2606
    944  N2        -2.2340  -17.9730   27.0050 N.pl3  44  G44        -0.0859
    945  N3        -0.1300  -17.1680   27.4640 N.ar   44  G44        -0.1918
    946  C4         0.6630  -16.7830   28.4880 C.ar   44  G44         0.1723
    947  C5         0.3970  -16.7420   29.8360 C.ar   44  G44         0.1748
    948  C6        -0.8790  -17.1500   30.2790 C.ar   44  G44         0.3023
    949  O6        -1.2960  -17.1650   31.4400 O.2    44  G44        -0.2633
    950  N7         1.4910  -16.2740   30.5610 N.ar   44  G44        -0.2173
    951  C8         2.3930  -16.0490   29.6530 C.ar   44  G44         0.1817
    952  N9         1.9560  -16.3450   28.3860 N.ar   44  G44        -0.2693
    953  OP1        5.5140  -11.1210   29.5600 O.2    44  G44        -0.5172
    954  OP2        4.0230  -12.1460   31.3730 O.co2  44  G44        -0.4373
    955  P          1.6850  -11.5990   25.9470 P.3    45  U45         0.2141
    956  C5'       -0.2950  -12.7450   24.6640 C.3    45  U45         0.1812
    957  O5'        0.2250  -12.2350   25.8820 O.3    45  U45        -0.3114
    958  C4'       -1.6900  -13.2870   24.8330 C.3    45  U45         0.1773
    959  O4'       -1.6810  -14.4460   25.7150 O.3    45  U45        -0.3307
    960  C3'       -2.6990  -12.3580   25.4840 C.3    45  U45         0.1860
    961  O3'       -3.1890  -11.3480   24.6230 O.3    45  U45        -0.3112
    962  C2'       -3.7650  -13.3380   25.9620 C.3    45  U45         0.2309
    963  O2'       -4.5430  -13.8030   24.8710 O.3    45  U45        -0.2156
    964  C1'       -2.8960  -14.4960   26.4450 C.3    45  U45         0.2420
    965  N1        -2.6050  -14.3670   27.8910 N.ar   45  U45        -0.2534
    966  C2        -3.6240  -14.7320   28.7500 C.ar   45  U45         0.3546
    967  O2        -4.6950  -15.1530   28.3430 O.2    45  U45        -0.2443
    968  N3        -3.3400  -14.5940   30.0860 N.ar   45  U45        -0.1530
    969  C4        -2.1570  -14.1240   30.6230 C.ar   45  U45         0.2846
    970  O4        -2.0310  -14.0500   31.8450 O.2    45  U45        -0.2650
    971  C5        -1.1580  -13.7670   29.6650 C.ar   45  U45         0.0814
    972  C6        -1.4140  -13.8870   28.3630 C.ar   45  U45         0.0870
    973  OP1        1.8910  -10.7250   24.7600 O.2    45  U45        -0.5172
    974  OP2        1.8940  -11.0620   27.3250 O.co2  45  U45        -0.4373
    975  P         -3.6240   -9.9230   25.2350 P.3    46  C46         0.2141
    976  C5'       -6.0840  -10.8450   25.1760 C.3    46  C46         0.1812
    977  O5'       -5.0370  -10.2150   25.8990 O.3    46  C46        -0.3114
    978  C4'       -7.1970  -11.2580   26.1070 C.3    46  C46         0.1773
    979  O4'       -6.7170  -12.2790   27.0220 O.3    46  C46        -0.3307
    980  C3'       -7.7330  -10.1650   27.0280 C.3    46  C46         0.1860
    981  O3'       -8.6610   -9.3100   26.3900 O.3    46  C46        -0.3112
    982  C2'       -8.3220  -10.9690   28.1810 C.3    46  C46         0.2309
    983  O2'       -9.5750  -11.5370   27.8220 O.3    46  C46        -0.2156
    984  C1'       -7.3150  -12.1100   28.2950 C.3    46  C46         0.2420
    985  N1        -6.2560  -11.8240   29.2910 N.ar   46  C46        -0.2535
    986  C2        -6.5530  -11.9800   30.6490 C.ar   46  C46         0.3532
    987  O2        -7.6850  -12.3630   30.9700 O.2    46  C46        -0.2443
    988  N3        -5.5920  -11.7420   31.5670 N.ar   46  C46        -0.1739
    989  C4        -4.3750  -11.3300   31.1880 C.ar   46  C46         0.1759
    990  N4        -3.4540  -11.0790   32.1350 N.pl3  46  C46        -0.1070
    991  C5        -4.0520  -11.1500   29.8090 C.ar   46  C46         0.0566
    992  C6        -5.0110  -11.4090   28.9090 C.ar   46  C46         0.0850
    993  OP1       -3.7950   -8.9900   24.0910 O.2    46  C46        -0.5172
    994  OP2       -2.6960   -9.5530   26.3370 O.co2  46  C46        -0.4373
    995  P         -8.8940   -7.8060   26.9240 P.3    47  A47         0.2141
    996  C5'      -11.0940   -8.5180   28.1580 C.3    47  A47         0.1812
    997  O5'       -9.7720   -7.9940   28.2400 O.3    47  A47        -0.3114
    998  C4'      -11.7120   -8.6300   29.5230 C.3    47  A47         0.1773
    999  O4'      -10.9700   -9.6000   30.3120 O.3    47  A47        -0.3307
   1000  C3'      -11.6550   -7.3600   30.3510 C.3    47  A47         0.1860
   1001  O3'      -12.7070   -6.4750   30.0220 O.3    47  A47        -0.3112
   1002  C2'      -11.7150   -7.8870   31.7780 C.3    47  A47         0.2309
   1003  O2'      -13.0410   -8.2640   32.1000 O.3    47  A47        -0.2156
   1004  C1'      -10.8890   -9.1650   31.6520 C.3    47  A47         0.2408
   1005  N1        -7.3410   -8.9610   35.3840 N.ar   47  A47        -0.2040
   1006  C2        -8.6650   -9.1530   35.4190 C.ar   47  A47         0.2016
   1007  N3        -9.5260   -9.1860   34.4040 N.ar   47  A47        -0.2048
   1008  C4        -8.8990   -8.9900   33.2330 C.ar   47  A47         0.1692
   1009  C5        -7.5550   -8.7880   33.0330 C.ar   47  A47         0.1518
   1010  C6        -6.7470   -8.7660   34.1850 C.ar   47  A47         0.1919
   1011  N6        -5.4290   -8.5780   34.1540 N.pl3  47  A47        -0.1054
   1012  N7        -7.2700   -8.6260   31.6770 N.ar   47  A47        -0.2193
   1013  C8        -8.4370   -8.7320   31.0960 C.ar   47  A47         0.1816
   1014  N9        -9.4640   -8.9590   31.9790 N.ar   47  A47        -0.2693
   1015  OP1       -9.7980   -7.1530   25.9440 O.2    47  A47        -0.5172
   1016  OP2       -7.5690   -7.2000   27.2550 O.co2  47  A47        -0.4373
   1017  P        -12.5520   -4.8980   30.2280 P.3    48  C48         0.2141
   1018  C5'      -13.6850   -4.8950   32.5790 C.3    48  C48         0.1812
   1019  O5'      -12.5170   -4.7360   31.8040 O.3    48  C48        -0.3114
   1020  C4'      -13.3300   -4.8580   34.0330 C.3    48  C48         0.1773
   1021  O4'      -12.3430   -5.8850   34.2960 O.3    48  C48        -0.3307
   1022  C3'      -12.6540   -3.5840   34.5070 C.3    48  C48         0.1860
   1023  O3'      -13.5580   -2.5130   34.7370 O.3    48  C48        -0.3112
   1024  C2'      -11.9130   -4.0600   35.7480 C.3    48  C48         0.2309
   1025  O2'      -12.8180   -4.2310   36.8230 O.3    48  C48        -0.2156
   1026  C1'      -11.4570   -5.4510   35.3040 C.3    48  C48         0.2420
   1027  N1       -10.0670   -5.4470   34.7800 N.ar   48  C48        -0.2535
   1028  C2        -9.0500   -5.5190   35.7280 C.ar   48  C48         0.3532
   1029  O2        -9.3690   -5.5990   36.9300 O.2    48  C48        -0.2443
   1030  N3        -7.7590   -5.5040   35.3170 N.ar   48  C48        -0.1739
   1031  C4        -7.4670   -5.4280   34.0160 C.ar   48  C48         0.1759
   1032  N4        -6.1730   -5.4180   33.6730 N.pl3  48  C48        -0.1070
   1033  C5        -8.4890   -5.3340   33.0250 C.ar   48  C48         0.0566
   1034  C6        -9.7630   -5.3440   33.4520 C.ar   48  C48         0.0850
   1035  OP1      -13.8410   -4.3430   29.7320 O.2    48  C48        -0.5172
   1036  OP2      -11.2330   -4.4110   29.7430 O.co2  48  C48        -0.4373
   1037  P        -13.0320   -0.9900   34.6600 P.3    49  A49         0.2141
   1038  C5'      -12.9240   -0.8690   37.2710 C.3    49  A49         0.1812
   1039  O5'      -12.2490   -0.7940   36.0290 O.3    49  A49        -0.3114
   1040  C4'      -11.9650   -0.7360   38.4250 C.3    49  A49         0.1773
   1041  O4'      -11.0680   -1.8790   38.4440 O.3    49  A49        -0.3307
   1042  C3'      -11.0290    0.4620   38.3910 C.3    49  A49         0.1860
   1043  O3'      -11.6400    1.6680   38.8280 O.3    49  A49        -0.3112
   1044  C2'       -9.8850   -0.0050   39.2810 C.3    49  A49         0.2309
   1045  O2'      -10.2890    0.0230   40.6380 O.3    49  A49        -0.2156
   1046  C1'       -9.7860   -1.4730   38.8720 C.3    49  A49         0.2408
   1047  N1        -4.8570   -2.1680   37.4280 N.ar   49  A49        -0.2040
   1048  C2        -5.4180   -1.9630   38.6310 C.ar   49  A49         0.2016
   1049  N3        -6.6990   -1.7940   38.9350 N.ar   49  A49        -0.2048
   1050  C4        -7.4690   -1.8340   37.8350 C.ar   49  A49         0.1692
   1051  C5        -7.0440   -2.0280   36.5360 C.ar   49  A49         0.1518
   1052  C6        -5.6630   -2.2090   36.3360 C.ar   49  A49         0.1919
   1053  N6        -5.1210   -2.4070   35.1300 N.pl3  49  A49        -0.1054
   1054  N7        -8.1170   -2.0010   35.6540 N.ar   49  A49        -0.2193
   1055  C8        -9.1550   -1.8000   36.4270 C.ar   49  A49         0.1816
   1056  N9        -8.8390   -1.6880   37.7550 N.ar   49  A49        -0.2693
   1057  OP1      -14.2020   -0.0780   34.6260 O.3    49  A49        -0.4373
   1058  OP2      -12.0370   -0.8950   33.5560 O.co2  49  A49        -0.5172
   1059  P        -11.3350    3.0560   38.0710 P.3    50  C50         0.2141
   1060  C5'       -9.6250    3.6260   39.9810 C.3    50  C50         0.1812
   1061  O5'       -9.8900    3.4720   38.5960 O.3    50  C50        -0.3114
   1062  C4'       -8.1420    3.6350   40.2480 C.3    50  C50         0.1773
   1063  O4'       -7.5930    2.3120   39.9620 O.3    50  C50        -0.3307
   1064  C3'       -7.3140    4.5530   39.3670 C.3    50  C50         0.1860
   1065  O3'       -7.3730    5.9240   39.7240 O.3    50  C50        -0.3112
   1066  C2'       -5.9300    3.9400   39.4920 C.3    50  C50         0.2309
   1067  O2'       -5.3800    4.2330   40.7670 O.3    50  C50        -0.2156
   1068  C1'       -6.2840    2.4500   39.4480 C.3    50  C50         0.2420
   1069  N1        -6.2430    1.9470   38.0550 N.ar   50  C50        -0.2535
   1070  C2        -4.9850    1.5770   37.5830 C.ar   50  C50         0.3532
   1071  O2        -4.0260    1.6780   38.3630 O.2    50  C50        -0.2443
   1072  N3        -4.8480    1.1250   36.3200 N.ar   50  C50        -0.1739
   1073  C4        -5.9110    1.0440   35.5160 C.ar   50  C50         0.1759
   1074  N4        -5.7230    0.5820   34.2710 N.pl3  50  C50        -0.1070
   1075  C5        -7.2120    1.4180   35.9730 C.ar   50  C50         0.0566
   1076  C6        -7.3310    1.8690   37.2330 C.ar   50  C50         0.0850
   1077  OP1      -12.3370    4.0210   38.5950 O.3    50  C50        -0.4373
   1078  OP2      -11.1880    2.8650   36.6030 O.co2  50  C50        -0.5172
   1079  P         -7.1460    7.0580   38.6030 P.3    51  A51         0.2141
   1080  C5'       -4.6350    7.2630   39.3190 C.3    51  A51         0.1812
   1081  O5'       -5.5880    7.0120   38.2970 O.3    51  A51        -0.3114
   1082  C4'       -3.2360    7.0620   38.8020 C.3    51  A51         0.1773
   1083  O4'       -3.0360    5.6740   38.4200 O.3    51  A51        -0.3307
   1084  C3'       -2.9000    7.8310   37.5440 C.3    51  A51         0.1860
   1085  O3'       -2.5910    9.1840   37.8110 O.3    51  A51        -0.3112
   1086  C2'       -1.7460    7.0300   36.9610 C.3    51  A51         0.2309
   1087  O2'       -0.5380    7.3010   37.6610 O.3    51  A51        -0.2156
   1088  C1'       -2.1840    5.6070   37.2930 C.3    51  A51         0.2408
   1089  N1        -1.7030    3.1870   32.7860 N.ar   51  A51        -0.2040
   1090  C2        -0.8060    3.7040   33.6440 C.ar   51  A51         0.2016
   1091  N3        -1.0220    4.3230   34.8070 N.ar   51  A51        -0.2048
   1092  C4        -2.3370    4.4000   35.0680 C.ar   51  A51         0.1692
   1093  C5        -3.3780    3.9270   34.2870 C.ar   51  A51         0.1518
   1094  C6        -3.0240    3.2920   33.0780 C.ar   51  A51         0.1919
   1095  N6        -3.9080    2.7850   32.2140 N.pl3  51  A51        -0.1054
   1096  N7        -4.5980    4.2020   34.8850 N.ar   51  A51        -0.2193
   1097  C8        -4.2680    4.8210   35.9990 C.ar   51  A51         0.1816
   1098  N9        -2.9140    4.9740   36.1710 N.ar   51  A51        -0.2693
   1099  OP1       -7.4510    8.3640   39.2700 O.3    51  A51        -0.4373
   1100  OP2       -7.8230    6.6760   37.3360 O.co2  51  A51        -0.5172
   1101  P         -2.7820   10.2940   36.6660 P.3    52  A52         0.2141
   1102  C5'       -0.2160   10.1960   36.2430 C.3    52  A52         0.1812
   1103  O5'       -1.5260   10.0630   35.7200 O.3    52  A52        -0.3114
   1104  C4'        0.8210    9.7560   35.2490 C.3    52  A52         0.1773
   1105  O4'        0.7050    8.3300   35.0040 O.3    52  A52        -0.3307
   1106  C3'        0.7160   10.3640   33.8670 C.3    52  A52         0.1860
   1107  O3'        1.2250   11.6860   33.8120 O.3    52  A52        -0.3112
   1108  C2'        1.4830    9.3620   33.0190 C.3    52  A52         0.2309
   1109  O2'        2.8810    9.5180   33.2010 O.3    52  A52        -0.2156
   1110  C1'        1.0550    8.0490   33.6630 C.3    52  A52         0.2408
   1111  N1        -0.6980    5.1720   29.7690 N.ar   52  A52        -0.2040
   1112  C2         0.5480    5.5300   30.1250 C.ar   52  A52         0.2016
   1113  N3         0.9360    6.2850   31.1540 N.ar   52  A52        -0.2048
   1114  C4        -0.1280    6.6980   31.8690 C.ar   52  A52         0.1692
   1115  C5        -1.4600    6.4170   31.6320 C.ar   52  A52         0.1518
   1116  C6        -1.7420    5.6120   30.5190 C.ar   52  A52         0.1919
   1117  N6        -2.9860    5.2770   30.1790 N.pl3  52  A52        -0.1054
   1118  N7        -2.2800    7.0120   32.5810 N.ar   52  A52        -0.2193
   1119  C8        -1.4380    7.6390   33.3630 C.ar   52  A52         0.1816
   1120  N9        -0.1260    7.4850   32.9910 N.ar   52  A52        -0.2693
   1121  OP1       -2.6070   11.6100   37.3450 O.3    52  A52        -0.4373
   1122  OP2       -4.0210    9.9920   35.8990 O.co2  52  A52        -0.5172
   1123  P          0.6230   12.7590   32.7740 P.3    53  C53         0.2141
   1124  C5'        2.3720   11.8610   31.0740 C.3    53  C53         0.1812
   1125  O5'        1.0170   12.1470   31.3620 O.3    53  C53        -0.3114
   1126  C4'        2.5220   11.1070   29.7850 C.3    53  C53         0.1773
   1127  O4'        1.9400    9.7820   29.8630 O.3    53  C53        -0.3307
   1128  C3'        1.8440   11.7230   28.5860 C.3    53  C53         0.1860
   1129  O3'        2.5700   12.8440   28.1210 O.3    53  C53        -0.3112
   1130  C2'        1.7780   10.5490   27.6130 C.3    53  C53         0.2309
   1131  O2'        3.0330   10.3500   26.9860 O.3    53  C53        -0.2156
   1132  C1'        1.5310    9.3740   28.5720 C.3    53  C53         0.2420
   1133  N1         0.1050    8.9730   28.6120 N.ar   53  C53        -0.2535
   1134  C2        -0.3010    7.9430   27.7640 C.ar   53  C53         0.3532
   1135  O2         0.5390    7.3960   27.0350 O.2    53  C53        -0.2443
   1136  N3        -1.5980    7.5580   27.7670 N.ar   53  C53        -0.1739
   1137  C4        -2.4710    8.1660   28.5690 C.ar   53  C53         0.1759
   1138  N4        -3.7310    7.7400   28.5250 N.pl3  53  C53        -0.1070
   1139  C5        -2.0880    9.2230   29.4440 C.ar   53  C53         0.0566
   1140  C6        -0.8000    9.5920   29.4310 C.ar   53  C53         0.0850
   1141  OP1        1.3970   14.0120   32.9970 O.3    53  C53        -0.4373
   1142  OP2       -0.8640   12.8040   32.8650 O.co2  53  C53        -0.5172
   1143  P          1.9020   13.8990   27.1230 P.3    54  G54         0.2141
   1144  C5'        1.1800   13.3110   24.7190 C.3    54  G54         0.1812
   1145  O5'        2.1540   13.2070   25.7260 O.3    54  G54        -0.3114
   1146  C4'        1.1560   12.0890   23.8520 C.3    54  G54         0.1773
   1147  O4'        0.7440   10.9340   24.6250 O.3    54  G54        -0.3307
   1148  C3'        0.1440   12.1720   22.7360 C.3    54  G54         0.1860
   1149  O3'        0.6400   12.9140   21.6450 O.3    54  G54        -0.3112
   1150  C2'       -0.1640   10.7090   22.4460 C.3    54  G54         0.2309
   1151  O2'        0.8650   10.1010   21.6710 O.3    54  G54        -0.2156
   1152  C1'       -0.1230   10.1280   23.8570 C.3    54  G54         0.2408
   1153  N1        -4.8140    8.2570   23.8730 N.ar   54  G54        -0.1709
   1154  C2        -3.7560    7.9780   23.0250 C.ar   54  G54         0.2606
   1155  N2        -3.9690    7.0690   22.0590 N.pl3  54  G54        -0.0859
   1156  N3        -2.5620    8.5420   23.1190 N.ar   54  G54        -0.1918
   1157  C4        -2.5290    9.4170   24.1470 C.ar   54  G54         0.1723
   1158  C5        -3.5190    9.7750   25.0450 C.ar   54  G54         0.1748
   1159  C6        -4.7900    9.1640   24.9280 C.ar   54  G54         0.3023
   1160  O6        -5.7930    9.3480   25.6290 O.2    54  G54        -0.2633
   1161  N7        -3.0640   10.7310   25.9470 N.ar   54  G54        -0.2173
   1162  C8        -1.8240   10.9280   25.5870 C.ar   54  G54         0.1817
   1163  N9        -1.4440   10.1620   24.5060 N.ar   54  G54        -0.2693
   1164  OP1        2.7090   15.1510   27.1950 O.2    54  G54        -0.5172
   1165  OP2        0.4300   13.9800   27.3230 O.co2  54  G54        -0.4373
   1166  P         -0.1210   14.2460   21.1750 P.3    55  A55         0.2141
   1167  C5'       -0.1950   12.5710   19.1860 C.3    55  A55         0.1812
   1168  O5'       -0.3950   13.9020   19.6510 O.3    55  A55        -0.3114
   1169  C4'       -1.1930   12.2250   18.1170 C.3    55  A55         0.1773
   1170  O4'       -2.0790   11.1690   18.5950 O.3    55  A55        -0.3307
   1171  C3'       -2.0940   13.3920   17.7040 C.3    55  A55         0.1860
   1172  O3'       -2.3060   13.3660   16.2960 O.3    55  A55        -0.3112
   1173  C2'       -3.4000   13.0860   18.4300 C.3    55  A55         0.2309
   1174  O2'       -4.5630   13.6430   17.8470 O.3    55  A55        -0.2156
   1175  C1'       -3.4150   11.5660   18.3850 C.3    55  A55         0.2408
   1176  N1        -6.9070    7.9260   19.2890 N.ar   55  A55        -0.2040
   1177  C2        -6.1600    8.1980   18.2020 C.ar   55  A55         0.2016
   1178  N3        -5.2540    9.1680   18.0380 N.ar   55  A55        -0.2048
   1179  C4        -5.1450    9.9100   19.1580 C.ar   55  A55         0.1692
   1180  C5        -5.8340    9.7440   20.3480 C.ar   55  A55         0.1518
   1181  C6        -6.7600    8.6970   20.3990 C.ar   55  A55         0.1919
   1182  N6        -7.4840    8.4470   21.4930 N.pl3  55  A55        -0.1054
   1183  N7        -5.4580   10.6970   21.2870 N.ar   55  A55        -0.2193
   1184  C8        -4.5570   11.4120   20.6590 C.ar   55  A55         0.1816
   1185  N9        -4.3020   10.9670   19.3810 N.ar   55  A55        -0.2693
   1186  OP1        0.8410   15.3780   21.3030 O.2    55  A55        -0.5172
   1187  OP2       -1.4470   14.3630   21.8460 O.co2  55  A55        -0.4373
   1188  P         -1.2760   14.1240   15.3230 P.3    56  A56         0.2141
   1189  C5'       -3.1660   15.7260   14.4010 C.3    56  A56         0.1812
   1190  O5'       -2.1960   14.7060   14.1500 O.3    56  A56        -0.3114
   1191  C4'       -4.4390   15.4870   13.6190 C.3    56  A56         0.1773
   1192  O4'       -4.1030   15.2790   12.2170 O.3    56  A56        -0.3307
   1193  C3'       -5.2280   14.2490   14.0410 C.3    56  A56         0.1860
   1194  O3'       -6.6130   14.4480   13.7330 O.3    56  A56        -0.3112
   1195  C2'       -4.6760   13.1990   13.0850 C.3    56  A56         0.2309
   1196  O2'       -5.4720   12.0460   12.9300 O.3    56  A56        -0.2156
   1197  C1'       -4.5860   14.0200   11.8030 C.3    56  A56         0.2408
   1198  N1        -4.1960   12.2920    6.9580 N.ar   56  A56        -0.2040
   1199  C2        -5.2400   12.7430    7.6750 C.ar   56  A56         0.2016
   1200  N3        -5.2710   13.1790    8.9350 N.ar   56  A56        -0.2048
   1201  C4        -4.0440   13.1240    9.4900 C.ar   56  A56         0.1692
   1202  C5        -2.8790   12.6820    8.8850 C.ar   56  A56         0.1518
   1203  C6        -2.9710   12.2520    7.5480 C.ar   56  A56         0.1919
   1204  N6        -1.9290   11.7870    6.8400 N.pl3  56  A56        -0.1054
   1205  N7        -1.8110   12.7640    9.7690 N.ar   56  A56        -0.2193
   1206  C8        -2.3360   13.2520   10.8680 C.ar   56  A56         0.1816
   1207  N9        -3.6860   13.4850   10.7770 N.ar   56  A56        -0.2693
   1208  OP1       -0.3810   13.0600   14.7700 O.2    56  A56        -0.5172
   1209  OP2       -0.7260   15.3150   16.0330 O.co2  56  A56        -0.4373
   1210  P         -7.5720   15.3580   14.6510 P.3    57  G57         0.2141
   1211  C5'       -8.2170   17.2850   13.0030 C.3    57  G57         0.1812
   1212  O5'       -7.3990   16.8310   14.0750 O.3    57  G57        -0.3114
   1213  C4'       -7.5040   17.1840   11.6750 C.3    57  G57         0.1773
   1214  O4'       -7.4350   15.7980   11.2470 O.3    57  G57        -0.3307
   1215  C3'       -8.1840   17.8880   10.5160 C.3    57  G57         0.1860
   1216  O3'       -7.9310   19.2760   10.5090 O.3    57  G57        -0.3112
   1217  C2'       -7.6460   17.1360    9.3040 C.3    57  G57         0.2309
   1218  O2'       -6.3070   17.5250    9.0200 O.3    57  G57        -0.2156
   1219  C1'       -7.6080   15.7150    9.8440 C.3    57  G57         0.2408
   1220  N1       -10.4440   13.0360    6.5070 N.ar   57  G57        -0.1709
   1221  C2        -9.2300   13.6680    6.3060 C.ar   57  G57         0.2606
   1222  N2        -8.6980   13.5720    5.0700 N.pl3  57  G57        -0.0859
   1223  N3        -8.5830   14.3450    7.2470 N.ar   57  G57        -0.1918
   1224  C4        -9.2500   14.3510    8.4190 C.ar   57  G57         0.1723
   1225  C5       -10.4570   13.7520    8.7240 C.ar   57  G57         0.1748
   1226  C6       -11.1480   13.0300    7.7210 C.ar   57  G57         0.3023
   1227  O6       -12.2390   12.4380    7.8260 O.2    57  G57        -0.2633
   1228  N7       -10.8070   13.9930   10.0480 N.ar   57  G57        -0.2173
   1229  C8        -9.8280   14.7120   10.5190 C.ar   57  G57         0.1817
   1230  N9        -8.8530   14.9670    9.5840 N.ar   57  G57        -0.2693
   1231  OP1       -7.0890   15.3240   16.0570 O.3    57  G57        -0.4373
   1232  OP2       -8.9630   14.9400   14.3390 O.co2  57  G57        -0.5172
   1233  P         -8.9370   20.2530    9.7360 P.3    58  C58         0.2141
   1234  C5'       -9.9590   19.7670    7.3680 C.3    58  C58         0.1812
   1235  O5'       -8.8640   19.6700    8.2580 O.3    58  C58        -0.3114
   1236  C4'       -9.6930   18.9800    6.1180 C.3    58  C58         0.1773
   1237  O4'       -9.7550   17.5610    6.4140 O.3    58  C58        -0.3307
   1238  C3'      -10.7110   19.1660    5.0120 C.3    58  C58         0.1860
   1239  O3'      -10.4590   20.3360    4.2600 O.3    58  C58        -0.3112
   1240  C2'      -10.5630   17.8850    4.2140 C.3    58  C58         0.2309
   1241  O2'       -9.3950   17.9390    3.4040 O.3    58  C58        -0.2156
   1242  C1'      -10.3180   16.8700    5.3270 C.3    58  C58         0.2420
   1243  N1       -11.5680   16.2190    5.7880 N.ar   58  C58        -0.2535
   1244  C2       -12.1530   15.2690    4.9490 C.ar   58  C58         0.3532
   1245  O2       -11.6110   15.0210    3.8580 O.2    58  C58        -0.2443
   1246  N3       -13.2910   14.6440    5.3490 N.ar   58  C58        -0.1739
   1247  C4       -13.8280   14.9410    6.5430 C.ar   58  C58         0.1759
   1248  N4       -14.9490   14.2960    6.8880 N.pl3  58  C58        -0.1070
   1249  C5       -13.2420   15.9030    7.4220 C.ar   58  C58         0.0566
   1250  C6       -12.1150   16.5170    7.0080 C.ar   58  C58         0.0850
   1251  OP1       -8.3160   21.5900    9.7420 O.2    58  C58        -0.5172
   1252  OP2      -10.3230   20.1000   10.2670 O.co2  58  C58        -0.4373
   1253  P        -11.6760   21.2370    3.7290 P.3    59  G59         0.2141
   1254  C5'      -11.6220   20.0230    1.4260 C.3    59  G59         0.1812
   1255  O5'      -12.3270   20.3230    2.6160 O.3    59  G59        -0.3114
   1256  C4'      -12.4170   19.0770    0.5710 C.3    59  G59         0.1773
   1257  O4'      -12.5350   17.7990    1.2330 O.3    59  G59        -0.3307
   1258  C3'      -13.8520   19.4780    0.2910 C.3    59  G59         0.1860
   1259  O3'      -13.9300   20.4400   -0.7450 O.3    59  G59        -0.3112
   1260  C2'      -14.4940   18.1480   -0.0730 C.3    59  G59         0.2309
   1261  O2'      -14.2580   17.8290   -1.4310 O.3    59  G59        -0.2156
   1262  C1'      -13.7200   17.1610    0.8210 C.3    59  G59         0.2408
   1263  N1       -17.5060   14.3350    2.2980 N.ar   59  G59        -0.1709
   1264  C2       -16.8500   14.3790    1.0930 C.ar   59  G59         0.2606
   1265  N2       -17.2850   13.5620    0.1140 N.pl3  59  G59        -0.0859
   1266  N3       -15.8330   15.1880    0.8640 N.ar   59  G59        -0.1918
   1267  C4       -15.5380   15.9370    1.9440 C.ar   59  G59         0.1723
   1268  C5       -16.1220   15.9820    3.1810 C.ar   59  G59         0.1748
   1269  C6       -17.2150   15.1150    3.4150 C.ar   59  G59         0.3023
   1270  O6       -17.8780   14.9990    4.4490 O.2    59  G59        -0.2633
   1271  N7       -15.4950   16.9240    3.9930 N.ar   59  G59        -0.2173
   1272  C8       -14.5560   17.4340    3.2380 C.ar   59  G59         0.1817
   1273  N9       -14.5290   16.8430    1.9990 N.ar   59  G59        -0.2693
   1274  OP1      -11.0710   22.4260    3.0810 O.2    59  G59        -0.5172
   1275  OP2      -12.6660   21.4090    4.8180 O.co2  59  G59        -0.4373
   1276  P        -14.8400   21.7520   -0.5760 P.3    60  A60         0.2141
   1277  C5'      -17.3450   21.9230    0.1900 C.3    60  A60         0.1812
   1278  O5'      -16.2780   21.1260   -0.2970 O.3    60  A60        -0.3114
   1279  C4'      -18.6260   21.5160   -0.4800 C.3    60  A60         0.1773
   1280  O4'      -18.5230   21.8050   -1.8900 O.3    60  A60        -0.3307
   1281  C3'      -18.9690   20.0270   -0.4350 C.3    60  A60         0.1860
   1282  O3'      -19.6220   19.6660    0.7650 O.3    60  A60        -0.3112
   1283  C2'      -19.8640   19.8580   -1.6450 C.3    60  A60         0.2309
   1284  O2'      -21.1670   20.3460   -1.3460 O.3    60  A60        -0.2156
   1285  C1'      -19.2300   20.8380   -2.6260 C.3    60  A60         0.2408
   1286  N1       -18.9090   17.8880   -6.7600 N.ar   60  A60        -0.2040
   1287  C2       -19.9420   18.2490   -5.9910 C.ar   60  A60         0.2016
   1288  N3       -19.9360   19.0180   -4.9100 N.ar   60  A60        -0.2048
   1289  C4       -18.6890   19.4340   -4.6330 C.ar   60  A60         0.1692
   1290  C5       -17.5240   19.1470   -5.3110 C.ar   60  A60         0.1518
   1291  C6       -17.6640   18.3310   -6.4510 C.ar   60  A60         0.1919
   1292  N6       -16.6500   17.9520   -7.2380 N.pl3  60  A60        -0.1054
   1293  N7       -16.4370   19.7810   -4.7110 N.ar   60  A60        -0.2193
   1294  C8       -16.9560   20.4110   -3.6920 C.ar   60  A60         0.1816
   1295  N9       -18.3130   20.2200   -3.5880 N.ar   60  A60        -0.2693
   1296  OP1      -14.8720   22.4170   -1.9040 O.2    60  A60        -0.5172
   1297  OP2      -14.4510   22.5520    0.6010 O.co2  60  A60        -0.4373
   1298  P        -19.1260   18.4080    1.6270 P.3    61  G61         0.2141
   1299  C5'      -21.0830   16.9850    0.6350 C.3    61  G61         0.1812
   1300  O5'      -19.6860   17.1570    0.8270 O.3    61  G61        -0.3114
   1301  C4'      -21.3420   16.1420   -0.5700 C.3    61  G61         0.1773
   1302  O4'      -20.7020   16.7350   -1.7250 O.3    61  G61        -0.3307
   1303  C3'      -20.7560   14.7410   -0.5000 C.3    61  G61         0.1860
   1304  O3'      -21.6250   13.8690    0.2130 O.3    61  G61        -0.3112
   1305  C2'      -20.5430   14.3740   -1.9650 C.3    61  G61         0.2309
   1306  O2'      -21.7450   13.9390   -2.5790 O.3    61  G61        -0.2156
   1307  C1'      -20.1910   15.7330   -2.5750 C.3    61  G61         0.2408
   1308  N1       -16.1830   15.3960   -5.6910 N.ar   61  G61        -0.1709
   1309  C2       -17.4700   14.9690   -5.9010 C.ar   61  G61         0.2606
   1310  N2       -17.6940   14.3990   -7.0960 N.pl3  61  G61        -0.0859
   1311  N3       -18.4440   15.0920   -5.0070 N.ar   61  G61        -0.1918
   1312  C4       -18.0050   15.6970   -3.8790 C.ar   61  G61         0.1723
   1313  C5       -16.7410   16.1470   -3.5800 C.ar   61  G61         0.1748
   1314  C6       -15.7100   16.0000   -4.5460 C.ar   61  G61         0.3023
   1315  O6       -14.5210   16.3470   -4.4640 O.2    61  G61        -0.2633
   1316  N7       -16.6910   16.6980   -2.3060 N.ar   61  G61        -0.2173
   1317  C8       -17.9060   16.5770   -1.8480 C.ar   61  G61         0.1817
   1318  N9       -18.7480   15.9630   -2.7480 N.ar   61  G61        -0.2693
   1319  OP1      -19.8720   18.5370    2.9110 O.3    61  G61        -0.4373
   1320  OP2      -17.6330   18.3190    1.6170 O.co2  61  G61        -0.5172
   1321  P        -21.0790   12.5370    0.9390 P.3    62  A62         0.2141
   1322  C5'      -22.0440   10.9730   -0.9240 C.3    62  A62         0.1812
   1323  O5'      -20.9150   11.4900   -0.2390 O.3    62  A62        -0.3114
   1324  C4'      -21.6160   10.1120   -2.0780 C.3    62  A62         0.1773
   1325  O4'      -20.9910   10.9370   -3.0950 O.3    62  A62        -0.3307
   1326  C3'      -20.5630    9.0780   -1.7490 C.3    62  A62         0.1860
   1327  O3'      -21.1230    7.9100   -1.1740 O.3    62  A62        -0.3112
   1328  C2'      -19.8670    8.8440   -3.0840 C.3    62  A62         0.2309
   1329  O2'      -20.6170    7.9520   -3.8910 O.3    62  A62        -0.2156
   1330  C1'      -19.9300   10.2380   -3.7080 C.3    62  A62         0.2408
   1331  N1       -15.4600   11.8620   -5.7070 N.ar   62  A62        -0.2040
   1332  C2       -16.4460   11.1030   -6.2350 C.ar   62  A62         0.2016
   1333  N3       -17.5910   10.7060   -5.6590 N.ar   62  A62        -0.2048
   1334  C4       -17.6760   11.1860   -4.3920 C.ar   62  A62         0.1692
   1335  C5       -16.7520   11.9720   -3.7260 C.ar   62  A62         0.1518
   1336  C6       -15.5890   12.3230   -4.4340 C.ar   62  A62         0.1919
   1337  N6       -14.6290   13.0790   -3.8810 N.pl3  62  A62        -0.1054
   1338  N7       -17.1690   12.2700   -2.4330 N.ar   62  A62        -0.2193
   1339  C8       -18.3290   11.6750   -2.3460 C.ar   62  A62         0.1816
   1340  N9       -18.6910   11.0040   -3.4860 N.ar   62  A62        -0.2693
   1341  OP1      -22.1970   12.0890    1.8230 O.3    62  A62        -0.4373
   1342  OP2      -19.7150   12.7500    1.4770 O.co2  62  A62        -0.5172
   1343  P        -20.2670    7.0950   -0.1050 P.3    63  G63         0.2141
   1344  C5'      -17.6840    6.7800   -0.2820 C.3    63  G63         0.1812
   1345  O5'      -18.9400    6.7960   -0.9270 O.3    63  G63        -0.3114
   1346  C4'      -16.7160    7.7330   -0.9400 C.3    63  G63         0.1773
   1347  O4'      -17.1650    9.1030   -0.7630 O.3    63  G63        -0.3307
   1348  C3'      -15.3210    7.7080   -0.3440 C.3    63  G63         0.1860
   1349  O3'      -14.5380    6.6870   -0.9310 O.3    63  G63        -0.3112
   1350  C2'      -14.8030    9.1170   -0.5940 C.3    63  G63         0.2309
   1351  O2'      -14.3550    9.2620   -1.9270 O.3    63  G63        -0.2156
   1352  C1'      -16.0790    9.9360   -0.4350 C.3    63  G63         0.2408
   1353  N1       -14.3900   12.7640    3.4320 N.ar   63  G63        -0.1709
   1354  C2       -13.8550   12.5970    2.1660 C.ar   63  G63         0.2606
   1355  N2       -12.7240   13.2700    1.8880 N.pl3  63  G63        -0.0859
   1356  N3       -14.3810   11.8330    1.2310 N.ar   63  G63        -0.1918
   1357  C4       -15.5010   11.2300    1.6740 C.ar   63  G63         0.1723
   1358  C5       -16.1180   11.3050    2.9050 C.ar   63  G63         0.1748
   1359  C6       -15.5500   12.1370    3.9090 C.ar   63  G63         0.3023
   1360  O6       -15.9630   12.3450    5.0640 O.2    63  G63        -0.2633
   1361  N7       -17.2650   10.5280    2.9320 N.ar   63  G63        -0.2173
   1362  C8       -17.3150    9.9790    1.7580 C.ar   63  G63         0.1817
   1363  N9       -16.2780   10.3710    0.9500 N.ar   63  G63        -0.2693
   1364  OP1      -20.9520    5.8030    0.1640 O.2    63  G63        -0.5172
   1365  OP2      -19.9620    7.9970    1.0290 O.co2  63  G63        -0.4373
   1366  P        -13.4410    5.9140   -0.0560 P.3    64  C64         0.2141
   1367  C5'      -11.7010    7.5820   -1.0370 C.3    64  C64         0.1812
   1368  O5'      -12.3030    6.9990    0.1020 O.3    64  C64        -0.3114
   1369  C4'      -10.6550    8.5640   -0.6110 C.3    64  C64         0.1773
   1370  O4'      -11.2770    9.7450   -0.0370 O.3    64  C64        -0.3307
   1371  C3'       -9.7290    8.0730    0.4880 C.3    64  C64         0.1860
   1372  O3'       -8.7230    7.2080   -0.0120 O.3    64  C64        -0.3112
   1373  C2'       -9.2020    9.3760    1.0630 C.3    64  C64         0.2309
   1374  O2'       -8.2260    9.9140    0.1890 O.3    64  C64        -0.2156
   1375  C1'      -10.4510   10.2640    0.9870 C.3    64  C64         0.2420
   1376  N1       -11.2170   10.2880    2.2610 N.ar   64  C64        -0.2535
   1377  C2       -10.8470   11.2140    3.2360 C.ar   64  C64         0.3532
   1378  O2        -9.9010   11.9740    3.0200 O.2    64  C64        -0.2443
   1379  N3       -11.5240   11.2620    4.4040 N.ar   64  C64        -0.1739
   1380  C4       -12.5440   10.4400    4.6240 C.ar   64  C64         0.1759
   1381  N4       -13.1720   10.5660    5.8020 N.pl3  64  C64        -0.1070
   1382  C5       -12.9510    9.4750    3.6570 C.ar   64  C64         0.0566
   1383  C6       -12.2650    9.4330    2.5020 C.ar   64  C64         0.0850
   1384  OP1      -12.9240    4.7890   -0.8790 O.2    64  C64        -0.5172
   1385  OP2      -13.9670    5.6930    1.3150 O.co2  64  C64        -0.4373
   1386  P         -7.8390    6.3050    0.9760 P.3    65  G65         0.2141
   1387  C5'       -6.6050    7.2090    3.0990 C.3    65  G65         0.1812
   1388  O5'       -6.9580    7.3790    1.7400 O.3    65  G65        -0.3114
   1389  C4'       -6.2960    8.5430    3.7160 C.3    65  G65         0.1773
   1390  O4'       -7.5280    9.2890    3.8840 O.3    65  G65        -0.3307
   1391  C3'       -5.6850    8.5210    5.1090 C.3    65  G65         0.1860
   1392  O3'       -4.2830    8.3010    5.0910 O.3    65  G65        -0.3112
   1393  C2'       -6.0700    9.8860    5.6570 C.3    65  G65         0.2309
   1394  O2'       -5.2300   10.8880    5.1030 O.3    65  G65        -0.2156
   1395  C1'       -7.4630   10.0680    5.0560 C.3    65  G65         0.2408
   1396  N1        -9.6940   10.5980    9.6370 N.ar   65  G65        -0.1709
   1397  C2        -8.5460   11.1960    9.1520 C.ar   65  G65         0.2606
   1398  N2        -7.9150   12.0560    9.9710 N.pl3  65  G65        -0.0859
   1399  N3        -8.0610   10.9790    7.9370 N.ar   65  G65        -0.1918
   1400  C4        -8.8140   10.1040    7.2400 C.ar   65  G65         0.1723
   1401  C5        -9.9680    9.4500    7.6430 C.ar   65  G65         0.1748
   1402  C6       -10.4900    9.6980    8.9410 C.ar   65  G65         0.3023
   1403  O6       -11.5050    9.2010    9.4650 O.2    65  G65        -0.2633
   1404  N7       -10.4460    8.6160    6.6420 N.ar   65  G65        -0.2173
   1405  C8        -9.5860    8.7750    5.6640 C.ar   65  G65         0.1817
   1406  N9        -8.5580    9.6500    5.9620 N.ar   65  G65        -0.2693
   1407  OP1       -6.9230    5.4930    0.1290 O.2    65  G65        -0.5172
   1408  OP2       -8.7360    5.6000    1.9300 O.co2  65  G65        -0.4373
   1409  P         -3.6610    7.0300    5.8610 P.3    66  C66         0.2141
   1410  C5'       -2.9180    8.5790    7.8200 C.3    66  C66         0.1812
   1411  O5'       -3.6970    7.4810    7.3790 O.3    66  C66        -0.3114
   1412  C4'       -3.4170    9.1270    9.1260 C.3    66  C66         0.1773
   1413  O4'       -4.7620    9.6570    8.9730 O.3    66  C66        -0.3307
   1414  C3'       -3.5500    8.1170   10.2540 C.3    66  C66         0.1860
   1415  O3'       -2.3150    7.8490   10.8820 O.3    66  C66        -0.3112
   1416  C2'       -4.5560    8.7880   11.1750 C.3    66  C66         0.2309
   1417  O2'       -3.9360    9.8300   11.9120 O.3    66  C66        -0.2156
   1418  C1'       -5.5020    9.4270   10.1590 C.3    66  C66         0.2420
   1419  N1        -6.6450    8.5410    9.8520 N.ar   66  C66        -0.2535
   1420  C2        -7.6950    8.4940   10.7710 C.ar   66  C66         0.3532
   1421  O2        -7.6210    9.1840   11.7930 O.2    66  C66        -0.2443
   1422  N3        -8.7600    7.7070   10.5110 N.ar   66  C66        -0.1739
   1423  C4        -8.8000    6.9890    9.3900 C.ar   66  C66         0.1759
   1424  N4        -9.8740    6.2170    9.1820 N.pl3  66  C66        -0.1070
   1425  C5        -7.7380    7.0150    8.4350 C.ar   66  C66         0.0566
   1426  C6        -6.6910    7.7970    8.7090 C.ar   66  C66         0.0850
   1427  OP1       -2.2340    6.9230    5.4510 O.2    66  C66        -0.5172
   1428  OP2       -4.5800    5.8840    5.6650 O.co2  66  C66        -0.4373
   1429  P         -2.0590    6.4020   11.5230 P.3    67  G67         0.2141
   1430  C5'       -2.9690    7.2720   13.8440 C.3    67  G67         0.1812
   1431  O5'       -3.0720    6.3590   12.7500 O.3    67  G67        -0.3114
   1432  C4'       -3.8350    6.8080   14.9920 C.3    67  G67         0.1773
   1433  O4'       -5.2110    6.7210   14.5220 O.3    67  G67        -0.3307
   1434  C3'       -3.4850    5.4220   15.5370 C.3    67  G67         0.1860
   1435  O3'       -3.7950    5.3570   16.9320 O.3    67  G67        -0.3112
   1436  C2'       -4.4370    4.5170   14.7660 C.3    67  G67         0.2309
   1437  O2'       -4.7250    3.2790   15.3790 O.3    67  G67        -0.2156
   1438  C1'       -5.6800    5.3980   14.6610 C.3    67  G67         0.2408
   1439  N1       -10.2530    3.8200   13.1540 N.ar   67  G67        -0.1709
   1440  C2        -9.7840    4.0650   14.4210 C.ar   67  G67         0.2606
   1441  N2       -10.6550    3.8400   15.4210 N.pl3  67  G67        -0.0859
   1442  N3        -8.5600    4.4880   14.6860 N.ar   67  G67        -0.1918
   1443  C4        -7.8220    4.6340   13.5660 C.ar   67  G67         0.1723
   1444  C5        -8.1870    4.4180   12.2510 C.ar   67  G67         0.1748
   1445  C6        -9.5080    3.9780   11.9780 C.ar   67  G67         0.3023
   1446  O6       -10.0140    3.7230   10.8740 O.2    67  G67        -0.2633
   1447  N7        -7.1350    4.6990   11.3810 N.ar   67  G67        -0.2173
   1448  C8        -6.1660    5.0800   12.1780 C.ar   67  G67         0.1817
   1449  N9        -6.5220    5.0680   13.5110 N.ar   67  G67        -0.2693
   1450  OP1       -0.6460    6.4090   12.0080 O.3    67  G67        -0.4373
   1451  OP2       -2.5520    5.3570   10.6170 O.co2  67  G67        -0.5172
   1452  P         -2.6290    5.4820   18.0360 P.3    68  G68         0.2141
   1453  C5'       -2.1850    2.8640   17.8920 C.3    68  G68         0.1812
   1454  O5'       -1.6980    4.2030   17.7530 O.3    68  G68        -0.3114
   1455  C4'       -1.3560    1.8910   17.0750 C.3    68  G68         0.1773
   1456  O4'       -0.0450    1.7170   17.6540 O.3    68  G68        -0.3307
   1457  C3'       -1.8850    0.4690   16.9200 C.3    68  G68         0.1860
   1458  O3'       -2.8420    0.3910   15.8840 O.3    68  G68        -0.3112
   1459  C2'       -0.6280   -0.3530   16.6060 C.3    68  G68         0.2309
   1460  O2'       -0.4520   -0.5240   15.2060 O.3    68  G68        -0.2156
   1461  C1'        0.5080    0.5180   17.1620 C.3    68  G68         0.2408
   1462  N1         5.1430   -1.1470   18.2110 N.ar   68  G68        -0.1709
   1463  C2         4.6770   -0.4470   17.1210 C.ar   68  G68         0.2606
   1464  N2         5.5840   -0.1610   16.1670 N.pl3  68  G68        -0.0859
   1465  N3         3.4160   -0.0590   16.9840 N.ar   68  G68        -0.1918
   1466  C4         2.6550   -0.4380   18.0350 C.ar   68  G68         0.1723
   1467  C5         3.0190   -1.1380   19.1690 C.ar   68  G68         0.1748
   1468  C6         4.3770   -1.5500   19.3090 C.ar   68  G68         0.3023
   1469  O6         4.9050   -2.1810   20.2380 O.2    68  G68        -0.2633
   1470  N7         1.9180   -1.3220   20.0030 N.ar   68  G68        -0.2173
   1471  C8         0.9260   -0.7490   19.3730 C.ar   68  G68         0.1817
   1472  N9         1.3130   -0.1820   18.1810 N.ar   68  G68        -0.2693
   1473  OP1       -3.2850    5.2920   19.3660 O.3    68  G68        -0.4373
   1474  OP2       -1.8200    6.6990   17.7780 O.co2  68  G68        -0.5172
   1475  P         -3.7190   -0.9250   15.6510 P.3    69  U69         0.2141
   1476  C5'       -5.4510    0.0740   17.3490 C.3    69  U69         0.1812
   1477  O5'       -5.1840   -0.4540   16.0570 O.3    69  U69        -0.3114
   1478  C4'       -6.9310    0.2030   17.5370 C.3    69  U69         0.1773
   1479  O4'       -7.4150    1.2650   16.6800 O.3    69  U69        -0.3307
   1480  C3'       -7.7170   -1.0260   17.1140 C.3    69  U69         0.1860
   1481  O3'       -7.8120   -1.9590   18.1800 O.3    69  U69        -0.3112
   1482  C2'       -9.0600   -0.4410   16.6940 C.3    69  U69         0.2309
   1483  O2'       -9.8560   -0.1680   17.8420 O.3    69  U69        -0.2156
   1484  C1'       -8.6370    0.9020   16.0950 C.3    69  U69         0.2420
   1485  N1        -8.4470    0.8690   14.6230 N.ar   69  U69        -0.2534
   1486  C2        -9.5370    0.6410   13.8060 C.ar   69  U69         0.3546
   1487  O2       -10.6690    0.4350   14.2290 O.2    69  U69        -0.2443
   1488  N3        -9.2560    0.6500   12.4530 N.ar   69  U69        -0.1530
   1489  C4        -8.0260    0.8540   11.8490 C.ar   69  U69         0.2846
   1490  O4        -7.9420    0.8200   10.6120 O.2    69  U69        -0.2650
   1491  C5        -6.9510    1.0980   12.7680 C.ar   69  U69         0.0814
   1492  C6        -7.1940    1.0990   14.0910 C.ar   69  U69         0.0870
   1493  OP1       -3.3260   -1.9880   16.6110 O.3    69  U69        -0.4373
   1494  OP2       -3.7590   -1.1990   14.1870 O.co2  69  U69        -0.5172
   1495  P         -7.8010   -3.5410   17.9250 P.3    70  G70         0.2141
   1496  C5'      -10.2060   -3.7160   18.9350 C.3    70  G70         0.1812
   1497  O5'       -9.3380   -3.9290   17.8340 O.3    70  G70        -0.3114
   1498  C4'      -11.6170   -4.0930   18.5710 C.3    70  G70         0.1773
   1499  O4'      -12.1620   -3.1160   17.6430 O.3    70  G70        -0.3307
   1500  C3'      -11.7660   -5.4130   17.8430 C.3    70  G70         0.1860
   1501  O3'      -11.7510   -6.5260   18.7190 O.3    70  G70        -0.3112
   1502  C2'      -13.0810   -5.2260   17.1050 C.3    70  G70         0.2309
   1503  O2'      -14.1710   -5.3330   18.0070 O.3    70  G70        -0.2156
   1504  C1'      -12.9750   -3.7660   16.6960 C.3    70  G70         0.2408
   1505  N1       -13.6580   -3.9630   11.6890 N.ar   70  G70        -0.1709
   1506  C2       -14.5400   -4.2590   12.7060 C.ar   70  G70         0.2606
   1507  N2       -15.7740   -4.6580   12.3410 N.pl3  70  G70        -0.0859
   1508  N3       -14.2340   -4.1710   13.9880 N.ar   70  G70        -0.1918
   1509  C4       -12.9610   -3.7700   14.1640 C.ar   70  G70         0.1723
   1510  C5       -12.0000   -3.4520   13.2250 C.ar   70  G70         0.1748
   1511  C6       -12.3380   -3.5380   11.8520 C.ar   70  G70         0.3023
   1512  O6       -11.6220   -3.2960   10.8690 O.2    70  G70        -0.2633
   1513  N7       -10.8090   -3.0740   13.8340 N.ar   70  G70        -0.2173
   1514  C8       -11.0660   -3.1730   15.1120 C.ar   70  G70         0.1817
   1515  N9       -12.3500   -3.5910   15.3710 N.ar   70  G70        -0.2693
   1516  OP1       -7.2650   -4.1360   19.1700 O.3    70  G70        -0.4373
   1517  OP2       -7.1550   -3.8180   16.6120 O.co2  70  G70        -0.5172
   1518  P        -11.2230   -7.9600   18.2140 P.3    71  A71         0.2141
   1519  C5'      -13.6670   -8.6880   17.6060 C.3    71  A71         0.1812
   1520  O5'      -12.3310   -8.4420   17.1850 O.3    71  A71        -0.3114
   1521  C4'      -14.5630   -8.9200   16.4180 C.3    71  A71         0.1773
   1522  O4'      -14.5430   -7.7430   15.5750 O.3    71  A71        -0.3307
   1523  C3'      -14.1350  -10.0490   15.4920 C.3    71  A71         0.1860
   1524  O3'      -14.5850  -11.3190   15.9280 O.3    71  A71        -0.3112
   1525  C2'      -14.7220   -9.6320   14.1530 C.3    71  A71         0.2309
   1526  O2'      -16.1070   -9.9340   14.1080 O.3    71  A71        -0.2156
   1527  C1'      -14.5680   -8.1170   14.2150 C.3    71  A71         0.2408
   1528  N1       -12.2600   -6.6640    9.8140 N.ar   71  A71        -0.2040
   1529  C2       -13.4900   -7.1450   10.0820 C.ar   71  A71         0.2016
   1530  N3       -14.0230   -7.5180   11.2490 N.ar   71  A71        -0.2048
   1531  C4       -13.1380   -7.3490   12.2440 C.ar   71  A71         0.1692
   1532  C5       -11.8400   -6.8680   12.1330 C.ar   71  A71         0.1518
   1533  C6       -11.3900   -6.5090   10.8420 C.ar   71  A71         0.1919
   1534  N6       -10.1660   -6.0260   10.5810 N.pl3  71  A71        -0.1054
   1535  N7       -11.2230   -6.8350   13.3820 N.ar   71  A71        -0.2193
   1536  C8       -12.1500   -7.2860   14.1990 C.ar   71  A71         0.1816
   1537  N9       -13.3310   -7.6230   13.5770 N.ar   71  A71        -0.2693
   1538  OP1      -11.2350   -8.8280   19.4230 O.3    71  A71        -0.4373
   1539  OP2       -9.9610   -7.7910   17.4540 O.co2  71  A71        -0.5172
   1540  P        -13.8450  -12.6530   15.4230 P.3    72  A72         0.2141
   1541  C5'      -15.7390  -13.0770   13.6600 C.3    72  A72         0.1812
   1542  O5'      -14.3660  -12.8630   13.9390 O.3    72  A72        -0.3114
   1543  C4'      -15.9930  -13.0270   12.1750 C.3    72  A72         0.1773
   1544  O4'      -15.7300  -11.6870   11.6790 O.3    72  A72        -0.3307
   1545  C3'      -15.0920  -13.9080   11.3290 C.3    72  A72         0.1860
   1546  O3'      -15.5120  -15.2620   11.3010 O.3    72  A72        -0.3112
   1547  C2'      -15.1300  -13.2210    9.9710 C.3    72  A72         0.2309
   1548  O2'      -16.3450  -13.5170    9.3040 O.3    72  A72        -0.2156
   1549  C1'      -15.1660  -11.7540   10.3870 C.3    72  A72         0.2408
   1550  N1       -11.3760   -9.3160    7.8220 N.ar   72  A72        -0.2040
   1551  C2       -12.5610   -9.8020    7.4220 C.ar   72  A72         0.2016
   1552  N3       -13.5000  -10.4220    8.1300 N.ar   72  A72        -0.2048
   1553  C4       -13.1250  -10.5460    9.4140 C.ar   72  A72         0.1692
   1554  C5       -11.9370  -10.0980    9.9770 C.ar   72  A72         0.1518
   1555  C6       -11.0220   -9.4570    9.1230 C.ar   72  A72         0.1919
   1556  N6        -9.8400   -8.9830    9.5360 N.pl3  72  A72        -0.1054
   1557  N7       -11.8840  -10.4020   11.3320 N.ar   72  A72        -0.2193
   1558  C8       -13.0240  -11.0160   11.5530 C.ar   72  A72         0.1816
   1559  N9       -13.8220  -11.1440   10.4400 N.ar   72  A72        -0.2693
   1560  OP1      -14.3160  -13.7880   16.2620 O.3    72  A72        -0.4373
   1561  OP2      -12.3960  -12.3350   15.3080 O.co2  72  A72        -0.5172
   1562  P        -14.4210  -16.4420   11.3200 P.3    73  U73         0.2141
   1563  C5'      -14.7450  -16.5200    8.7310 C.3    73  U73         0.1812
   1564  O5'      -13.8590  -16.4520    9.8340 O.3    73  U73        -0.3114
   1565  C4'      -14.0440  -16.1650    7.4470 C.3    73  U73         0.1773
   1566  O4'      -13.7320  -14.7480    7.4230 O.3    73  U73        -0.3307
   1567  C3'      -12.6990  -16.8300    7.2150 C.3    73  U73         0.1860
   1568  O3'      -12.8030  -18.1770    6.7870 O.3    73  U73        -0.3112
   1569  C2'      -12.0500  -15.9000    6.1950 C.3    73  U73         0.2309
   1570  O2'      -12.5760  -16.1290    4.8960 O.3    73  U73        -0.2156
   1571  C1'      -12.5470  -14.5370    6.6800 C.3    73  U73         0.2420
   1572  N1       -11.5480  -13.8580    7.5370 N.ar   73  U73        -0.2534
   1573  C2       -10.5500  -13.1760    6.8670 C.ar   73  U73         0.3546
   1574  O2       -10.4930  -13.1210    5.6480 O.2    73  U73        -0.2443
   1575  N3        -9.6270  -12.5510    7.6680 N.ar   73  U73        -0.1530
   1576  C4        -9.6080  -12.5540    9.0450 C.ar   73  U73         0.2846
   1577  O4        -8.7090  -11.9440    9.6160 O.2    73  U73        -0.2650
   1578  C5       -10.6660  -13.2880    9.6760 C.ar   73  U73         0.0814
   1579  C6       -11.5840  -13.9050    8.9150 C.ar   73  U73         0.0870
   1580  OP1      -15.1580  -17.7110   11.5610 O.2    73  U73        -0.5172
   1581  OP2      -13.2900  -16.0410   12.2030 O.co2  73  U73        -0.4373
   1582  P        -11.6730  -19.2430    7.2060 P.3    74  C74         0.2141
   1583  C5'      -10.4730  -18.8770    4.8990 C.3    74  C74         0.1812
   1584  O5'      -10.4150  -18.8250    6.3160 O.3    74  C74        -0.3114
   1585  C4'       -9.2840  -18.1960    4.2630 C.3    74  C74         0.1773
   1586  O4'       -9.2600  -16.7830    4.6080 O.3    74  C74        -0.3307
   1587  C3'       -7.9070  -18.6920    4.6770 C.3    74  C74         0.1860
   1588  O3'       -7.5440  -19.9090    4.0470 O.3    74  C74        -0.3112
   1589  C2'       -7.0120  -17.5130    4.3000 C.3    74  C74         0.2309
   1590  O2'       -6.7370  -17.5110    2.9060 O.3    74  C74        -0.2156
   1591  C1'       -7.9210  -16.3210    4.6250 C.3    74  C74         0.2420
   1592  N1        -7.6180  -15.7500    5.9590 N.ar   74  C74        -0.2535
   1593  C2        -6.5790  -14.8160    6.0480 C.ar   74  C74         0.3532
   1594  O2        -5.9650  -14.4830    5.0190 O.2    74  C74        -0.2443
   1595  N3        -6.2750  -14.2910    7.2580 N.ar   74  C74        -0.1739
   1596  C4        -6.9520  -14.6720    8.3470 C.ar   74  C74         0.1759
   1597  N4        -6.6100  -14.1180    9.5140 N.pl3  74  C74        -0.1070
   1598  C5        -8.0060  -15.6290    8.2900 C.ar   74  C74         0.0566
   1599  C6        -8.3000  -16.1370    7.0840 C.ar   74  C74         0.0850
   1600  OP1      -12.1500  -20.5900    6.7940 O.2    74  C74        -0.5172
   1601  OP2      -11.3140  -19.0170    8.6340 O.co2  74  C74        -0.4373
   1602  P         -6.5150  -20.9330    4.7520 P.3    75  A75         0.2141
   1603  C5'       -4.6080  -19.9540    3.2570 C.3    75  A75         0.1812
   1604  O5'       -5.0960  -20.2340    4.5600 O.3    75  A75        -0.3114
   1605  C4'       -3.3690  -19.1010    3.2970 C.3    75  A75         0.1773
   1606  O4'       -3.7050  -17.7550    3.7230 O.3    75  A75        -0.3307
   1607  C3'       -2.3010  -19.5440    4.2840 C.3    75  A75         0.1860
   1608  O3'       -1.5010  -20.6050    3.7920 O.3    75  A75        -0.3112
   1609  C2'       -1.5320  -18.2590    4.5290 C.3    75  A75         0.2309
   1610  O2'       -0.6740  -17.9820    3.4330 O.3    75  A75        -0.2156
   1611  C1'       -2.6650  -17.2300    4.5250 C.3    75  A75         0.2408
   1612  N1        -2.0520  -14.7860    9.0790 N.ar   75  A75        -0.2040
   1613  C2        -1.3120  -14.7730    7.9550 C.ar   75  A75         0.2016
   1614  N3        -1.5240  -15.4300    6.8060 N.ar   75  A75        -0.2048
   1615  C4        -2.6490  -16.1760    6.8660 C.ar   75  A75         0.1692
   1616  C5        -3.5060  -16.2810    7.9480 C.ar   75  A75         0.1518
   1617  C6        -3.1800  -15.5440    9.1000 C.ar   75  A75         0.1919
   1618  N6        -3.9370  -15.5780   10.2010 N.pl3  75  A75        -0.1054
   1619  N7        -4.5690  -17.1330    7.6690 N.ar   75  A75        -0.2193
   1620  C8        -4.3360  -17.5250    6.4390 C.ar   75  A75         0.1816
   1621  N9        -3.1940  -16.9850    5.8850 N.ar   75  A75        -0.2693
   1622  OP1       -6.5290  -22.1750    3.9330 O.2    75  A75        -0.5172
   1623  OP2       -6.8130  -21.0450    6.2060 O.co2  75  A75        -0.4373
   1624  P         -0.8960  -21.7030    4.7990 P.3    76  U76         0.2141
   1625  C5'        1.3650  -20.3960    4.9260 C.3    76  U76         0.1812
   1626  O5'        0.2230  -20.9000    5.5980 O.3    76  U76        -0.3114
   1627  C4'        2.1730  -19.4990    5.8230 C.3    76  U76         0.1773
   1628  O4'        1.4080  -18.3030    6.1480 O.3    76  U76        -0.3307
   1629  C3'        2.5240  -20.0660    7.1850 C.3    76  U76         0.1860
   1630  O3'        3.5740  -21.0150    7.1680 O.3    76  U76        -0.3112
   1631  C2'        2.8190  -18.8070    7.9810 C.3    76  U76         0.2309
   1632  O2'        4.0720  -18.2580    7.6030 O.3    76  U76        -0.2156
   1633  C1'        1.7110  -17.8860    7.4670 C.3    76  U76         0.2420
   1634  N1         0.4970  -18.0230    8.3090 N.ar   76  U76        -0.2534
   1635  C2         0.4850  -17.3180    9.5000 C.ar   76  U76         0.3546
   1636  O2         1.3990  -16.5770    9.8400 O.2    76  U76        -0.2443
   1637  N3        -0.6470  -17.5060   10.2670 N.ar   76  U76        -0.1530
   1638  C4        -1.7360  -18.3060    9.9700 C.ar   76  U76         0.2846
   1639  O4        -2.6740  -18.3660   10.7620 O.2    76  U76        -0.2650
   1640  C5        -1.6440  -19.0190    8.7290 C.ar   76  U76         0.0814
   1641  C6        -0.5520  -18.8560    7.9720 C.ar   76  U76         0.0870
   1642  OP1       -0.1920  -22.7190    3.9720 O.2    76  U76        -0.5172
   1643  OP2       -1.9660  -22.1310    5.7470 O.co2  76  U76        -0.4373
   1644  P          3.4780  -22.3090    8.1160 P.3    77  U77         0.2141
   1645  C5'        4.8670  -20.9820    9.8910 C.3    77  U77         0.1812
   1646  O5'        3.6960  -21.7090    9.5680 O.3    77  U77        -0.3114
   1647  C4'        4.6840  -20.2420   11.1890 C.3    77  U77         0.1773
   1648  O4'        3.5050  -19.4010   11.1110 O.3    77  U77        -0.3307
   1649  C3'        4.4230  -21.0890   12.4210 C.3    77  U77         0.1860
   1650  O3'        5.5860  -21.7010   12.9390 O.3    77  U77        -0.3112
   1651  C2'        3.7890  -20.0780   13.3700 C.3    77  U77         0.2309
   1652  O2'        4.7820  -19.2250   13.9200 O.3    77  U77        -0.2156
   1653  C1'        2.9380  -19.2580   12.3950 C.3    77  U77         0.2420
   1654  N1         1.5350  -19.7240   12.3590 N.ar   77  U77        -0.2534
   1655  C2         0.7300  -19.3470   13.4190 C.ar   77  U77         0.3546
   1656  O2         1.1290  -18.6550   14.3450 O.2    77  U77        -0.2443
   1657  N3        -0.5610  -19.8140   13.3580 N.ar   77  U77        -0.1530
   1658  C4        -1.1220  -20.5910   12.3730 C.ar   77  U77         0.2846
   1659  O4        -2.3140  -20.9280   12.4730 O.2    77  U77        -0.2650
   1660  C5        -0.2190  -20.9370   11.3150 C.ar   77  U77         0.0814
   1661  C6         1.0430  -20.5010   11.3420 C.ar   77  U77         0.0870
   1662  OP1        4.6400  -23.1800    7.8010 O.2    77  U77        -0.5172
   1663  OP2        2.0960  -22.8630    8.1000 O.co2  77  U77        -0.4373
   1664  P          5.4950  -23.1760   13.5690 P.3    78  G78         0.2141
   1665  C5'        5.3140  -22.1900   15.9790 C.3    78  G78         0.1812
   1666  O5'        4.7340  -22.9650   14.9510 O.3    78  G78        -0.3114
   1667  C4'        4.3060  -21.8870   17.0550 C.3    78  G78         0.1773
   1668  O4'        3.2220  -21.0810   16.5120 O.3    78  G78        -0.3307
   1669  C3'        3.5960  -23.0830   17.6720 C.3    78  G78         0.1860
   1670  O3'        4.3990  -23.7520   18.6330 O.3    78  G78        -0.3112
   1671  C2'        2.3540  -22.4320   18.2670 C.3    78  G78         0.2309
   1672  O2'        2.6950  -21.7420   19.4600 O.3    78  G78        -0.2156
   1673  C1'        2.0250  -21.3860   17.1910 C.3    78  G78         0.2408
   1674  N1        -2.8740  -22.3160   16.5640 N.ar   78  G78        -0.1709
   1675  C2        -2.1950  -21.7660   17.6300 C.ar   78  G78         0.2606
   1676  N2        -2.9210  -21.4050   18.7040 N.pl3  78  G78        -0.0859
   1677  N3        -0.8870  -21.5670   17.6400 N.ar   78  G78        -0.1918
   1678  C4        -0.3060  -21.9860   16.4950 C.ar   78  G78         0.1723
   1679  C5        -0.8800  -22.5510   15.3740 C.ar   78  G78         0.1748
   1680  C6        -2.2890  -22.7440   15.3640 C.ar   78  G78         0.3023
   1681  O6        -2.9910  -23.2330   14.4670 O.2    78  G78        -0.2633
   1682  N7         0.0930  -22.8280   14.4160 N.ar   78  G78        -0.2173
   1683  C8         1.2200  -22.4310   14.9670 C.ar   78  G78         0.1817
   1684  N9         1.0370  -21.9050   16.2270 N.ar   78  G78        -0.2693
   1685  OP1        6.8940  -23.5650   13.8920 O.3    78  G78        -0.4373
   1686  OP2        4.5830  -24.0280   12.7540 O.co2  78  G78        -0.5172
   1687  P          4.3270  -25.3490   18.8500 P.3    79  C79         0.2141
   1688  C5'        3.2870  -24.8270   21.2000 C.3    79  C79         0.1812
   1689  O5'        4.2870  -25.4830   20.4310 O.3    79  C79        -0.3114
   1690  C4'        3.6650  -24.8690   22.6550 C.3    79  C79         0.1773
   1691  O4'        2.5510  -24.3910   23.4690 O.3    79  C79        -0.3307
   1692  C3'        4.0050  -26.2760   23.1730 C.3    79  C79         0.1860
   1693  O3'        5.0680  -26.1990   24.1250 O.3    79  C79        -0.3112
   1694  C2'        2.7200  -26.6720   23.8840 C.3    79  C79         0.2309
   1695  O2'        2.8360  -27.7130   24.8370 O.3    79  C79        -0.2156
   1696  C1'        2.3310  -25.3320   24.4960 C.3    79  C79         0.2420
   1697  N1         0.9730  -25.2780   25.0570 N.ar   79  C79        -0.2535
   1698  C2         0.7700  -24.4830   26.1920 C.ar   79  C79         0.3532
   1699  O2         1.6860  -23.7610   26.6110 O.2    79  C79        -0.2443
   1700  N3        -0.4400  -24.4860   26.7880 N.ar   79  C79        -0.1739
   1701  C4        -1.4190  -25.2560   26.3220 C.ar   79  C79         0.1759
   1702  N4        -2.5890  -25.2160   26.9590 N.pl3  79  C79        -0.1070
   1703  C5        -1.2380  -26.0990   25.1900 C.ar   79  C79         0.0566
   1704  C6        -0.0300  -26.0860   24.6090 C.ar   79  C79         0.0850
   1705  OP1        5.6420  -25.8780   18.4130 O.3    79  C79        -0.4373
   1706  OP2        3.0760  -25.9990   18.3720 O.co2  79  C79        -0.5172
   1707  P          6.3090  -27.2270   24.0380 P.3    80  A80         0.2141
   1708  C5'        7.8880  -26.2470   25.8950 C.3    80  A80         0.1812
   1709  O5'        6.9180  -27.2070   25.5080 O.3    80  A80        -0.3114
   1710  C4'        7.9010  -26.0970   27.3940 C.3    80  A80         0.1773
   1711  O4'        6.8040  -25.2350   27.7990 O.3    80  A80        -0.3307
   1712  C3'        7.6780  -27.3890   28.1710 C.3    80  A80         0.1860
   1713  O3'        8.8750  -28.1290   28.3440 O.3    80  A80        -0.3112
   1714  C2'        7.0750  -26.8910   29.4770 C.3    80  A80         0.2309
   1715  O2'        8.0970  -26.3680   30.3080 O.3    80  A80        -0.2156
   1716  C1'        6.2230  -25.7210   28.9880 C.3    80  A80         0.2408
   1717  N1         1.4930  -26.7440   30.7880 N.ar   80  A80        -0.2040
   1718  C2         2.6350  -26.3980   31.3970 C.ar   80  A80         0.2016
   1719  N3         3.8330  -26.1530   30.8750 N.ar   80  A80        -0.2048
   1720  C4         3.7980  -26.2950   29.5420 C.ar   80  A80         0.1692
   1721  C5         2.7060  -26.6410   28.7660 C.ar   80  A80         0.1518
   1722  C6         1.4910  -26.8780   29.4420 C.ar   80  A80         0.1919
   1723  N6         0.3440  -27.2210   28.8390 N.pl3  80  A80        -0.1054
   1724  N7         3.0600  -26.6910   27.4220 N.ar   80  A80        -0.2193
   1725  C8         4.3290  -26.3570   27.4200 C.ar   80  A80         0.1816
   1726  N9         4.8380  -26.1150   28.6690 N.ar   80  A80        -0.2693
   1727  OP1        7.3580  -26.6530   23.1560 O.2    80  A80        -0.5172
   1728  OP2        5.7420  -28.5830   23.8010 O.co2  80  A80        -0.4373
   1729  P          8.8610  -29.7400   28.3290 P.3    81  U81         0.2141
   1730  C5'        8.9780  -29.7430   30.9480 C.3    81  U81         0.1812
   1731  O5'        8.2930  -30.1140   29.7650 O.3    81  U81        -0.3114
   1732  C4'        8.3260  -30.3760   32.1480 C.3    81  U81         0.1773
   1733  O4'        7.1200  -29.6390   32.4940 O.3    81  U81        -0.3307
   1734  C3'        7.8540  -31.8060   31.9390 C.3    81  U81         0.1860
   1735  O3'        8.9020  -32.7420   32.1320 O.3    81  U81        -0.3112
   1736  C2'        6.7080  -31.9320   32.9400 C.3    81  U81         0.2309
   1737  O2'        7.2220  -32.0820   34.2570 O.3    81  U81        -0.2156
   1738  C1'        6.0950  -30.5360   32.8620 C.3    81  U81         0.2420
   1739  N1         4.9890  -30.3990   31.8800 N.ar   81  U81        -0.2534
   1740  C2         3.7000  -30.6480   32.3170 C.ar   81  U81         0.3546
   1741  O2         3.4590  -31.0240   33.4530 O.2    81  U81        -0.2443
   1742  N3         2.7100  -30.4640   31.3770 N.ar   81  U81        -0.1530
   1743  C4         2.8880  -30.0320   30.0680 C.ar   81  U81         0.2846
   1744  O4         1.9090  -29.9050   29.3310 O.2    81  U81        -0.2650
   1745  C5         4.2440  -29.7790   29.6900 C.ar   81  U81         0.0814
   1746  C6         5.2180  -29.9590   30.5960 C.ar   81  U81         0.0870
   1747  OP1       10.2880  -30.1650   28.2640 O.3    81  U81        -0.4373
   1748  OP2        7.8830  -30.2410   27.3220 O.co2  81  U81        -0.5172
   1749  P          8.9540  -34.1080   31.2920 P.3    82  C82         0.2141
   1750  C5'        6.7720  -35.5530   31.2860 C.3    82  C82         0.1812
   1751  O5'        7.8540  -34.9990   32.0100 O.3    82  C82        -0.3114
   1752  C4'        5.6120  -35.8310   32.2050 C.3    82  C82         0.1773
   1753  O4'        4.8540  -34.6110   32.4290 O.3    82  C82        -0.3307
   1754  C3'        4.5920  -36.8240   31.6830 C.3    82  C82         0.1860
   1755  O3'        4.9880  -38.1650   31.9410 O.3    82  C82        -0.3112
   1756  C2'        3.3290  -36.4220   32.4300 C.3    82  C82         0.2309
   1757  O2'        3.3790  -36.9060   33.7590 O.3    82  C82        -0.2156
   1758  C1'        3.4770  -34.9030   32.4760 C.3    82  C82         0.2420
   1759  N1         2.8230  -34.2560   31.3150 N.ar   82  C82        -0.2535
   1760  C2         1.4340  -34.1450   31.3080 C.ar   82  C82         0.3532
   1761  O2         0.7980  -34.5790   32.2910 O.2    82  C82        -0.2443
   1762  N3         0.8360  -33.5590   30.2280 N.ar   82  C82        -0.1739
   1763  C4         1.5630  -33.1060   29.2040 C.ar   82  C82         0.1759
   1764  N4         0.9240  -32.5400   28.1690 N.pl3  82  C82        -0.1070
   1765  C5         2.9820  -33.2030   29.1950 C.ar   82  C82         0.0566
   1766  C6         3.5580  -33.7860   30.2590 C.ar   82  C82         0.0850
   1767  OP1       10.3010  -34.6890   31.5600 O.3    82  C82        -0.4373
   1768  OP2        8.5470  -33.9180   29.8730 O.co2  82  C82        -0.5172
   1769  P          5.0720  -39.2410   30.7540 P.3    83  C83         0.2141
   1770  C5'        2.8150  -40.3360   31.4410 C.3    83  C83         0.1812
   1771  O5'        3.5550  -39.6200   30.4670 O.3    83  C83        -0.3114
   1772  C4'        1.3280  -40.1890   31.2610 C.3    83  C83         0.1773
   1773  O4'        0.9270  -38.7960   31.3700 O.3    83  C83        -0.3307
   1774  C3'        0.7470  -40.6140   29.9250 C.3    83  C83         0.1860
   1775  O3'        0.6690  -42.0190   29.7580 O.3    83  C83        -0.3112
   1776  C2'       -0.6070  -39.9280   29.9650 C.3    83  C83         0.2309
   1777  O2'       -1.4540  -40.5880   30.8920 O.3    83  C83        -0.2156
   1778  C1'       -0.2190  -38.5780   30.5690 C.3    83  C83         0.2420
   1779  N1         0.1070  -37.6180   29.4910 N.ar   83  C83        -0.2535
   1780  C2        -0.9640  -37.0500   28.7980 C.ar   83  C83         0.3532
   1781  O2        -2.1170  -37.3230   29.1520 O.2    83  C83        -0.2443
   1782  N3        -0.7250  -36.2110   27.7700 N.ar   83  C83        -0.1739
   1783  C4         0.5280  -35.9370   27.4210 C.ar   83  C83         0.1759
   1784  N4         0.7290  -35.1000   26.3980 N.pl3  83  C83        -0.1070
   1785  C5         1.6390  -36.5240   28.0920 C.ar   83  C83         0.0566
   1786  C6         1.3870  -37.3650   29.1030 C.ar   83  C83         0.0850
   1787  OP1        5.7200  -40.4450   31.3480 O.3    83  C83        -0.4373
   1788  OP2        5.6510  -38.5730   29.5560 O.co2  83  C83        -0.5172
   1789  P          0.8780  -42.6770   28.3000 P.3    84  G84         0.2141
   1790  C5'       -1.7200  -42.6520   27.9650 C.3    84  G84         0.1812
   1791  O5'       -0.4360  -42.2600   27.5030 O.3    84  G84        -0.3114
   1792  C4'       -2.8120  -41.9090   27.2450 C.3    84  G84         0.1773
   1793  O4'       -2.5970  -40.4760   27.3470 O.3    84  G84        -0.3307
   1794  C3'       -2.8930  -42.1580   25.7520 C.3    84  G84         0.1860
   1795  O3'       -3.5900  -43.3400   25.4530 O.3    84  G84        -0.3112
   1796  C2'       -3.6060  -40.9170   25.2420 C.3    84  G84         0.2309
   1797  O2'       -5.0040  -41.0490   25.4480 O.3    84  G84        -0.2156
   1798  C1'       -3.0570  -39.8390   26.1790 C.3    84  G84         0.2408
   1799  N1        -1.6830  -36.6240   22.5310 N.ar   84  G84        -0.1709
   1800  C2        -2.9320  -37.1270   22.8270 C.ar   84  G84         0.2606
   1801  N2        -3.9510  -36.7260   22.0460 N.pl3  84  G84        -0.0859
   1802  N3        -3.1590  -37.9760   23.8200 N.ar   84  G84        -0.1918
   1803  C4        -2.0200  -38.2720   24.5000 C.ar   84  G84         0.1723
   1804  C5        -0.7310  -37.8260   24.2870 C.ar   84  G84         0.1748
   1805  C6        -0.5040  -36.9180   23.2210 C.ar   84  G84         0.3023
   1806  O6         0.5670  -36.4100   22.8820 O.2    84  G84        -0.2633
   1807  N7         0.1540  -38.3670   25.2130 N.ar   84  G84        -0.2173
   1808  C8        -0.6070  -39.1340   25.9550 C.ar   84  G84         0.1817
   1809  N9        -1.9280  -39.1170   25.5740 N.ar   84  G84        -0.2693
   1810  OP1        0.8770  -44.1480   28.5210 O.3    84  G84        -0.4373
   1811  OP2        2.0350  -42.0360   27.6380 O.co2  84  G84        -0.5172
   1812  P         -3.1460  -44.2170   24.1930 P.3    85  C85         0.2141
   1813  C5'       -4.9450  -42.9240   22.7540 C.3    85  C85         0.1812
   1814  O5'       -3.6190  -43.3940   22.9180 O.3    85  C85        -0.3114
   1815  C4'       -4.9990  -42.0370   21.5420 C.3    85  C85         0.1773
   1816  O4'       -4.3430  -40.7740   21.8350 O.3    85  C85        -0.3307
   1817  C3'       -4.2350  -42.5710   20.3450 C.3    85  C85         0.1860
   1818  O3'       -4.9580  -43.5570   19.6290 O.3    85  C85        -0.3112
   1819  C2'       -3.9200  -41.3050   19.5540 C.3    85  C85         0.2309
   1820  O2'       -5.0520  -40.8650   18.8190 O.3    85  C85        -0.2156
   1821  C1'       -3.6760  -40.3010   20.6810 C.3    85  C85         0.2420
   1822  N1        -2.2380  -40.1170   20.9830 N.ar   85  C85        -0.2535
   1823  C2        -1.4920  -39.3380   20.0970 C.ar   85  C85         0.3532
   1824  O2        -2.0570  -38.8420   19.1080 O.2    85  C85        -0.2443
   1825  N3        -0.1780  -39.1380   20.3290 N.ar   85  C85        -0.1739
   1826  C4         0.4000  -39.6870   21.4020 C.ar   85  C85         0.1759
   1827  N4         1.7010  -39.4420   21.5850 N.pl3  85  C85        -0.1070
   1828  C5        -0.3300  -40.4900   22.3300 C.ar   85  C85         0.0566
   1829  C6        -1.6380  -40.6830   22.0830 C.ar   85  C85         0.0850
   1830  OP1       -3.9030  -45.4890   24.3010 O.3    85  C85        -0.4373
   1831  OP2       -1.6680  -44.1160   24.0560 O.co2  85  C85        -0.5172
   1832  P         -4.1840  -44.6810   18.7770 P.3    86  U86         0.2141
   1833  C5'       -4.2430  -43.3310   16.5270 C.3    86  U86         0.1812
   1834  O5'       -3.4820  -43.8510   17.6070 O.3    86  U86        -0.3114
   1835  C4'       -3.3610  -42.7260   15.4640 C.3    86  U86         0.1773
   1836  O4'       -2.6600  -41.5790   16.0040 O.3    86  U86        -0.3307
   1837  C3'       -2.2490  -43.6100   14.9320 C.3    86  U86         0.1860
   1838  O3'       -2.6990  -44.5580   13.9790 O.3    86  U86        -0.3112
   1839  C2'       -1.2560  -42.5980   14.3830 C.3    86  U86         0.2309
   1840  O2'       -1.6980  -42.0890   13.1350 O.3    86  U86        -0.2156
   1841  C1'       -1.3860  -41.4720   15.4040 C.3    86  U86         0.2420
   1842  N1        -0.3490  -41.5110   16.4640 N.ar   86  U86        -0.2534
   1843  C2         0.8810  -40.9760   16.1420 C.ar   86  U86         0.3546
   1844  O2         1.1330  -40.5170   15.0410 O.2    86  U86        -0.2443
   1845  N3         1.8080  -41.0000   17.1550 N.ar   86  U86        -0.1530
   1846  C4         1.6330  -41.4940   18.4370 C.ar   86  U86         0.2846
   1847  O4         2.5800  -41.4320   19.2260 O.2    86  U86        -0.2650
   1848  C5         0.3270  -42.0250   18.7050 C.ar   86  U86         0.0814
   1849  C6        -0.5960  -42.0070   17.7290 C.ar   86  U86         0.0870
   1850  OP1       -5.2510  -45.5510   18.2260 O.2    86  U86        -0.5172
   1851  OP2       -3.1050  -45.3080   19.5820 O.co2  86  U86        -0.4373
   1852  P         -1.9950  -46.0020   13.8870 P.3    87  C87         0.2141
   1853  C5'       -0.6350  -45.1440   11.8210 C.3    87  C87         0.1812
   1854  O5'       -0.6280  -45.6910   13.1280 O.3    87  C87        -0.3114
   1855  C4'        0.7080  -44.5730   11.4540 C.3    87  C87         0.1773
   1856  O4'        1.0380  -43.4890   12.3570 O.3    87  C87        -0.3307
   1857  C3'        1.8950  -45.5150   11.5670 C.3    87  C87         0.1860
   1858  O3'        2.0230  -46.3820   10.4560 O.3    87  C87        -0.3112
   1859  C2'        3.0630  -44.5510   11.7170 C.3    87  C87         0.2309
   1860  O2'        3.4080  -43.9900   10.4600 O.3    87  C87        -0.2156
   1861  C1'        2.4330  -43.4540   12.5750 C.3    87  C87         0.2420
   1862  N1         2.7060  -43.6420   14.0240 N.ar   87  C87        -0.2535
   1863  C2         3.9370  -43.1880   14.4920 C.ar   87  C87         0.3532
   1864  O2         4.7090  -42.6790   13.6730 O.2    87  C87        -0.2443
   1865  N3         4.2480  -43.3220   15.8020 N.ar   87  C87        -0.1739
   1866  C4         3.3740  -43.8980   16.6400 C.ar   87  C87         0.1759
   1867  N4         3.7300  -44.0060   17.9230 N.pl3  87  C87        -0.1070
   1868  C5         2.1050  -44.3810   16.2000 C.ar   87  C87         0.0566
   1869  C6         1.8190  -44.2270   14.8930 C.ar   87  C87         0.0850
   1870  OP1       -2.8820  -46.8590   13.0590 O.2    87  C87        -0.5172
   1871  OP2       -1.6430  -46.4750   15.2520 O.co2  87  C87        -0.4373
   1872  P          2.7360  -47.8130   10.6220 P.3    88  C88         0.2141
   1873  C5'        5.1160  -47.0100    9.8930 C.3    88  C88         0.1812
   1874  O5'        4.2560  -47.4510   10.9230 O.3    88  C88        -0.3114
   1875  C4'        6.4990  -46.7090   10.4120 C.3    88  C88         0.1773
   1876  O4'        6.4340  -45.6950   11.4450 O.3    88  C88        -0.3307
   1877  C3'        7.2420  -47.8450   11.0940 C.3    88  C88         0.1860
   1878  O3'        7.7820  -48.8010   10.2070 O.3    88  C88        -0.3112
   1879  C2'        8.2970  -47.0990   11.8960 C.3    88  C88         0.2309
   1880  O2'        9.3450  -46.6550   11.0500 O.3    88  C88        -0.2156
   1881  C1'        7.5020  -45.8780   12.3580 C.3    88  C88         0.2420
   1882  N1         6.9580  -46.0750   13.7220 N.ar   88  C88        -0.2535
   1883  C2         7.8360  -45.9440   14.8100 C.ar   88  C88         0.3532
   1884  O2         9.0310  -45.6660   14.6120 O.2    88  C88        -0.2443
   1885  N3         7.3640  -46.1210   16.0660 N.ar   88  C88        -0.1739
   1886  C4         6.0810  -46.4250   16.2540 C.ar   88  C88         0.1759
   1887  N4         5.6760  -46.5900   17.5140 N.pl3  88  C88        -0.1070
   1888  C5         5.1650  -46.5750   15.1690 C.ar   88  C88         0.0566
   1889  C6         5.6440  -46.3970   13.9310 C.ar   88  C88         0.0850
   1890  OP1        2.6650  -48.4950    9.3000 O.2    88  C88        -0.5172
   1891  OP2        2.1860  -48.4880   11.8250 O.co2  88  C88        -0.4373
   1892  P          7.9590  -50.3180   10.7000 P.3    89  A89         0.2141
   1893  C5'       10.4380  -50.0680   11.5150 C.3    89  A89         0.1813
   1894  O5'        9.0680  -50.2380   11.8470 O.3    89  A89        -0.3114
   1895  C4'       11.2970  -49.8550   12.7370 C.3    89  A89         0.1801
   1896  O4'       10.7360  -48.7910   13.5470 O.3    89  A89        -0.3306
   1897  C3'       11.4070  -51.0260   13.7050 C.3    89  A89         0.2161
   1898  O3'       12.3240  -52.0200   13.2880 O.3    89  A89        -0.2175
   1899  C2'       11.7880  -50.3340   15.0110 C.3    89  A89         0.2337
   1900  O2'       13.1560  -49.9510   15.0190 O.3    89  A89        -0.2155
   1901  C1'       10.9510  -49.0650   14.9170 C.3    89  A89         0.2409
   1902  N1         8.4770  -49.3180   19.3880 N.ar   89  A89        -0.2040
   1903  C2         9.7760  -49.1350   19.0780 C.ar   89  A89         0.2016
   1904  N3        10.3550  -49.0760   17.8760 N.ar   89  A89        -0.2048
   1905  C4         9.4320  -49.2460   16.9140 C.ar   89  A89         0.1692
   1906  C5         8.0700  -49.4450   17.0610 C.ar   89  A89         0.1518
   1907  C6         7.5790  -49.4820   18.3800 C.ar   89  A89         0.1919
   1908  N6         6.2860  -49.6740   18.6700 N.pl3  89  A89        -0.1054
   1909  N7         7.4430  -49.5630   15.8200 N.ar   89  A89        -0.2193
   1910  C8         8.4270  -49.4430   14.9620 C.ar   89  A89         0.1816
   1911  N9         9.6440  -49.2430   15.5640 N.ar   89  A89        -0.2693
   1912  OP1        8.5450  -51.0910    9.5720 O.2    89  A89        -0.5172
   1913  OP2        6.6770  -50.7550   11.3110 O.co2  89  A89        -0.4373
@<TRIPOS>BOND
     1  1292  1291    1
     2  1310  1309    1
     3  1286  1291   ar
     4  1286  1287   ar
     5  1291  1290   ar
     6  1332  1331   ar
     7  1332  1333   ar
     8  1287  1288   ar
     9  1309  1308   ar
    10  1309  1311   ar
    11  1331  1336   ar
    12  1308  1314   ar
    13  1333  1334   ar
    14  1290  1293   ar
    15  1290  1289   ar
    16  1311  1312   ar
    17  1288  1289   ar
    18  1293  1294   ar
    19  1289  1295   ar
    20  1314  1315    2
    21  1314  1313   ar
    22  1336  1337    1
    23  1336  1335   ar
    24  1334  1335   ar
    25  1334  1340   ar
    26  1329  1328    1
    27  1312  1313   ar
    28  1312  1318   ar
    29  1335  1338   ar
    30  1330  1340    1
    31  1330  1325    1
    32  1330  1328    1
    33  1294  1295   ar
    34  1295  1285    1
    35  1313  1316   ar
    36  1340  1339   ar
    37  1325  1324    1
    38  1328  1326    1
    39  1318  1307    1
    40  1318  1317   ar
    41  1285  1280    1
    42  1285  1283    1
    43  1306  1305    1
    44  1307  1305    1
    45  1307  1302    1
    46  1338  1339   ar
    47  1316  1317   ar
    48  1324  1326    1
    49  1324  1322    1
    50  1305  1303    1
    51  1351  1350    1
    52  1296  1276    2
    53  1280  1279    1
    54  1326  1327    1
    55  1302  1301    1
    56  1283  1284    1
    57  1283  1281    1
    58  1261  1260    1
    59  1327  1343    1
    60  1367  1369    1
    61  1367  1368    1
    62  1346  1347    1
    63  1346  1348    1
    64  1346  1344    1
    65  1349  1348    1
    66  1349  1366    1
    67  1345  1344    1
    68  1345  1343    1
    69  1322  1323    1
    70   327   309    2
    71  1384  1366    2
    72  1347  1352    1
    73  1259  1276    1
    74  1259  1258    1
    75  1369  1370    1
    76  1369  1371    1
    77  1350  1352    1
    78  1350  1348    1
    79  1276  1278    1
    80  1276  1297    1
    81  1301  1303    1
    82  1301  1299    1
    83  1303  1304    1
    84  1279  1281    1
    85  1279  1277    1
    86  1281  1282    1
    87  1352  1363    1
    88  1278  1277    1
    89  1323  1321    1
    90  1343  1364    2
    91  1343  1365    1
    92  1260  1258    1
    93  1260  1262    1
    94  1366  1368    1
    95  1366  1385    1
    96  1370  1375    1
    97  1372  1371    1
    98  1372  1386    1
    99   295   309    1
   100   295   294    1
   101  1265  1264    1
   102  1407  1386    2
   103  1374  1373    1
   104  1304  1321    1
   105  1258  1256    1
   106   290   292    1
   107   290   291    1
   108   309   311    1
   109   309   328    1
   110   297   296    1
   111   292   294    1
   112   292   293    1
   113  1371  1373    1
   114   310   311    1
   115   310   312    1
   116  1256  1257    1
   117  1256  1254    1
   118  1299  1300    1
   119   307   289    2
   120  1282  1298    1
   121  1262  1257    1
   122  1262  1273    1
   123  1300  1298    1
   124  1266  1264   ar
   125  1266  1267   ar
   126   347   329    2
   127  1321  1342    2
   128  1321  1341    1
   129  1363  1357   ar
   130  1363  1362   ar
   131  1386  1388    1
   132  1386  1408    1
   133   294   296    1
   134  1375  1373    1
   135  1375  1376    1
   136  1264  1263   ar
   137   275   274    1
   138  1356  1357   ar
   139  1356  1354   ar
   140  1254  1255    1
   141   293   298    1
   142   291   289    1
   143   312   314    1
   144   312   313    1
   145   273   289    1
   146   273   272    1
   147   296   298    1
   148  1320  1298    2
   149  1298  1319    1
   150  1357  1358   ar
   151   315   329    1
   152   315   314    1
   153   289   308    1
   154  1388  1387    1
   155  1362  1361   ar
   156  1355  1354    1
   157  1267  1273   ar
   158  1267  1268   ar
   159   329   348    1
   160   329   331    1
   161  1273  1272   ar
   162   298   299    1
   163  1354  1353   ar
   164  1376  1383   ar
   165  1376  1377   ar
   166  1263  1269   ar
   167   314   316    1
   168   274   272    1
   169   274   276    1
   170   313   318    1
   171  1383  1382   ar
   172   272   270    1
   173  1255  1253    1
   174   270   268    1
   175   270   271    1
   176  1358  1361   ar
   177  1358  1359   ar
   178  1590  1589    1
   179  1378  1377    2
   180  1274  1253    2
   181  1387  1389    1
   182  1268  1269   ar
   183  1268  1271   ar
   184  1377  1379   ar
   185  1272  1271   ar
   186  1603  1605    1
   187  1603  1604    1
   188   317   316    1
   189  1605  1606    1
   190  1605  1607    1
   191   331   330    1
   192   276   271    1
   193   276   286    1
   194  1241  1240    1
   195  1269  1270    2
   196   268   269    1
   197  1353  1359   ar
   198  1610  1609    1
   199   330   332    1
   200   316   318    1
   201   299   306   ar
   202   299   300   ar
   203  1382  1380   ar
   204  1389  1390    1
   205  1389  1391    1
   206  1606  1611    1
   207  1253  1239    1
   208  1253  1275    1
   209   318   319    1
   210  1608  1607    1
   211  1608  1624    1
   212  1245  1244    2
   213  1390  1395    1
   214  1359  1360    2
   215  1622  1602    2
   216  1642  1624    2
   217   306   305   ar
   218  1588  1587    1
   219  1588  1602    1
   220   301   300    2
   221  1240  1238    1
   222  1240  1242    1
   223  1239  1238    1
   224  1585  1586    1
   225  1585  1587    1
   226  1585  1583    1
   227  1607  1609    1
   228  1589  1591    1
   229  1589  1587    1
   230   326   319   ar
   231   326   325   ar
   232  1379  1380   ar
   233   300   302   ar
   234   279   280   ar
   235   279   278   ar
   236  1611  1609    1
   237  1611  1621    1
   238  1604  1602    1
   239  1586  1591    1
   240  1380  1381    1
   241  1591  1592    1
   242   319   320   ar
   243  1602  1623    1
   244   286   280   ar
   245   286   285   ar
   246   269   267    1
   247  1624  1626    1
   248  1624  1643    1
   249   332   333    1
   250   332   334    1
   251  1570  1569    1
   252  1583  1584    1
   253  1625  1626    1
   254  1625  1627    1
   255  1244  1246   ar
   256  1244  1243   ar
   257   287   267    2
   258  1238  1236    1
   259  1594  1593    2
   260  1395  1393    1
   261  1395  1406    1
   262  1222  1221    1
   263   252   251    1
   264  1392  1391    1
   265  1392  1409    1
   266  1394  1393    1
   267  1391  1393    1
   268   325   323   ar
   269   280   281   ar
   270   278   277   ar
   271  1242  1243    1
   272  1242  1237    1
   273   305   303   ar
   274   256   255    1
   275  1246  1247   ar
   276  1427  1409    2
   277   370   349    2
   278   333   338    1
   279   335   334    1
   280   335   349    1
   281  1574  1573    2
   282  1405  1406   ar
   283  1405  1404   ar
   284  1428  1409    1
   285   267   250    1
   286   267   288    1
   287  1243  1250   ar
   288   334   336    1
   289   302   303   ar
   290   371   349    1
   291  1627  1628    1
   292  1627  1629    1
   293   285   284   ar
   294  1409  1411    1
   295  1621  1620   ar
   296  1621  1615   ar
   297  1592  1593   ar
   298  1592  1599   ar
   299  1406  1400   ar
   300  1593  1595   ar
   301   349   351    1
   302   320   321    2
   303   320   322   ar
   304   250   249    1
   305  1236  1237    1
   306  1236  1234    1
   307  1628  1633    1
   308  1569  1571    1
   309  1569  1567    1
   310   346   345   ar
   311   346   339   ar
   312   251   249    1
   313   251   253    1
   314   303   304    2
   315  1221  1220   ar
   316  1221  1223   ar
   317  1584  1582    1
   318  1620  1619   ar
   319   255   257   ar
   320   255   254   ar
   321  1220  1226   ar
   322   345   343   ar
   323   281   284   ar
   324   281   282   ar
   325   257   258   ar
   326   277   282   ar
   327  1247  1248    1
   328  1247  1249   ar
   329   323   322   ar
   330   323   324    2
   331  1404  1401   ar
   332  1571  1566    1
   333  1571  1572    1
   334  1568  1582    1
   335  1568  1567    1
   336  1600  1582    2
   337  1614  1615   ar
   338  1614  1613   ar
   339  1204  1203    1
   340  1615  1616   ar
   341  1573  1572   ar
   342  1573  1575   ar
   343   338   336    1
   344   338   339    1
   345  1198  1203   ar
   346  1198  1199   ar
   347   249   247    1
   348  1250  1249   ar
   349  1599  1598   ar
   350  1630  1629    1
   351  1630  1644    1
   352   336   337    1
   353  1629  1631    1
   354  1582  1601    1
   355  1567  1565    1
   356   282   283    1
   357   339   340   ar
   358  1400  1401   ar
   359  1400  1399   ar
   360  1223  1224   ar
   361  1595  1596   ar
   362   253   248    1
   363   253   264    1
   364  1234  1235    1
   365  1411  1410    1
   366  1551  1550   ar
   367  1551  1552   ar
   368  1566  1565    1
   369  1565  1563    1
   370  1633  1631    1
   371  1633  1634    1
   372   254   260   ar
   373  1572  1579   ar
   374  1203  1202   ar
   375  1632  1631    1
   376   351   350    1
   377  1401  1402   ar
   378   247   248    1
   379   247   245    1
   380  1575  1576   ar
   381  1619  1616   ar
   382  1199  1200   ar
   383  1226  1227    2
   384  1226  1225   ar
   385   258   264   ar
   386   258   259   ar
   387  1662  1644    2
   388  1410  1412    1
   389  1550  1555   ar
   390   343   344    1
   391   343   342   ar
   392  1399  1397   ar
   393  1616  1617   ar
   394  1613  1612   ar
   395  1641  1634   ar
   396  1641  1640   ar
   397  1663  1644    1
   398  1644  1646    1
   399   264   263   ar
   400  1552  1553   ar
   401  1235  1233    1
   402  1598  1596   ar
   403  1634  1635   ar
   404  1596  1597    1
   405  1224  1225   ar
   406  1224  1230   ar
   407  1425  1426   ar
   408  1425  1423   ar
   409   350   352    1
   410   340   342   ar
   411   340   341    2
   412  1426  1419   ar
   413  1225  1228   ar
   414  1640  1638   ar
   415  1563  1564    1
   416   260   259   ar
   417   260   261    2
   418   245   246    1
   419   259   262   ar
   420  1202  1201   ar
   421  1202  1205   ar
   422  1579  1578   ar
   423  1200  1201   ar
   424  1402  1403    2
   425  1402  1396   ar
   426  1413  1412    1
   427  1413  1418    1
   428  1218  1217    1
   429  1576  1577    2
   430  1576  1578   ar
   431  1612  1617   ar
   432  1617  1618    1
   433  1555  1556    1
   434  1555  1554   ar
   435  1412  1414    1
   436  1397  1396   ar
   437  1397  1398    1
   438  1424  1423    1
   439  1890  1872    2
   440  1548  1547    1
   441  1217  1219    1
   442  1217  1215    1
   443  1423  1422   ar
   444  1553  1554   ar
   445  1553  1559   ar
   446   368   367   ar
   447   368   369   ar
   448   263   262   ar
   449   367   364   ar
   450  1201  1207   ar
   451  1635  1636    2
   452  1635  1637   ar
   453  1646  1645    1
   454  1912  1892    2
   455  1230  1219    1
   456  1230  1229   ar
   457  1233  1251    2
   458  1233  1252    1
   459  1233  1216    1
   460  1205  1206   ar
   461  1528  1529   ar
   462  1528  1533   ar
   463   353   352    1
   464   353   358    1
   465  1564  1562    1
   466   246   244    1
   467  1219  1214    1
   468  1419  1418    1
   469  1419  1420   ar
   470   352   354    1
   471  1645  1647    1
   472  1873  1875    1
   473  1873  1874    1
   474  1638  1637   ar
   475  1638  1639    2
   476  1547  1549    1
   477  1547  1545    1
   478  1554  1557   ar
   479  1228  1229   ar
   480   236   235    2
   481  1529  1530   ar
   482  1418  1416    1
   483  1878  1892    1
   484  1878  1877    1
   485  1414  1415    1
   486  1414  1416    1
   487  1549  1559    1
   488  1549  1544    1
   489  1875  1877    1
   490  1875  1876    1
   491  1559  1558   ar
   492   232   231    1
   493  1858  1872    1
   494  1858  1857    1
   495  1860  1859    1
   496  1216  1215    1
   497  1422  1420   ar
   498  1215  1213    1
   499  1534  1533    1
   500  1490  1489    2
   501  1451  1429    2
   502  1872  1874    1
   503  1872  1891    1
   504   369   358    1
   505   369   363   ar
   506  1892  1913    1
   507  1892  1894    1
   508   391   372    2
   509   387   386    1
   510  1420  1421    2
   511   364   365   ar
   512   364   363   ar
   513  1207  1206   ar
   514  1207  1197    1
   515  1533  1532   ar
   516  1512  1511    2
   517  1446  1445    2
   518  1415  1429    1
   519   409   408    2
   520   366   365    2
   521   354   355    1
   522   354   356    1
   523   235   237   ar
   524   235   234   ar
   525   358   356    1
   526  1880  1879    1
   527  1877  1879    1
   528   231   233    1
   529   231   229    1
   530  1648  1647    1
   531  1648  1653    1
   532   237   238   ar
   533  1416  1417    1
   534  1647  1649    1
   535   430   429    2
   536   265   244    2
   537  1214  1213    1
   538  1530  1531   ar
   539   244   230    1
   540   244   266    1
   541  1546  1562    1
   542  1546  1545    1
   543  1660  1661   ar
   544  1660  1658   ar
   545  1562  1580    2
   546  1562  1581    1
   547  1545  1543    1
   548  1557  1558   ar
   549  1661  1654   ar
   550  1447  1448   ar
   551  1447  1444   ar
   552   365   359   ar
   553  1876  1881    1
   554  1855  1857    1
   555  1855  1853    1
   556  1855  1856    1
   557   355   372    1
   558  1893  1894    1
   559  1893  1895    1
   560  1429  1450    1
   561  1429  1431    1
   562   363   362   ar
   563  1857  1859    1
   564  1213  1211    1
   565  1544  1543    1
   566   388   386   ar
   567   388   389   ar
   568  1505  1511   ar
   569  1505  1506   ar
   570  1859  1861    1
   571   230   229    1
   572  1197  1192    1
   573  1197  1195    1
   574   386   385   ar
   575  1853  1854    1
   576  1489  1488   ar
   577  1489  1491   ar
   578   372   390    1
   579   372   374    1
   580  1511  1510   ar
   581  1879  1881    1
   582   428   429   ar
   583   428   426   ar
   584   356   357    1
   585   233   234    1
   586   233   228    1
   587  1445  1444   ar
   588  1445  1439   ar
   589   234   241   ar
   590   408   402   ar
   591   408   407   ar
   592   239   238    2
   593   429   431   ar
   594  1532  1531   ar
   595  1532  1535   ar
   596   238   240   ar
   597  1543  1541    1
   598  1448  1449   ar
   599   229   227    1
   600  1192  1191    1
   601   112    92    2
   602   135   114    2
   603  1531  1537   ar
   604  1444  1443   ar
   605    55    54    1
   606  1507  1506    1
   607  1856  1861    1
   608  1881  1882    1
   609  1654  1653    1
   610  1654  1655   ar
   611  1658  1659    2
   612  1658  1657   ar
   613  1653  1651    1
   614    77    76    1
   615  1649  1650    1
   616  1649  1651    1
   617    93    95    1
   618    93    94    1
   619  1488  1486   ar
   620   402   403   ar
   621    75    92    1
   622    75    74    1
   623   427   426    2
   624  1861  1862    1
   625    70    72    1
   626    70    71    1
   627    72    74    1
   628    72    73    1
   629  1506  1508   ar
   630  1895  1896    1
   631  1895  1897    1
   632  1431  1430    1
   633  1686  1664    2
   634  1491  1492   ar
   635   212   213   ar
   636   212   217   ar
   637   359   360   ar
   638   389   382   ar
   639   426   425   ar
   640   362   360   ar
   641  1196  1195    1
   642  1650  1664    1
   643    95    96    1
   644    95    97    1
   645   385   383   ar
   646  1211  1212    1
   647  1870  1852    2
   648  1195  1193    1
   649   241   240   ar
   650  1854  1852    1
   651    98   114    1
   652    98    97    1
   653  1840  1839    1
   654   374   373    1
   655  1439  1440   ar
   656   213   214   ar
   657  1510  1513   ar
   658  1510  1509   ar
   659   407   410   ar
   660   407   406   ar
   661    92    94    1
   662    92   113    1
   663   228   227    1
   664  1898  1897    1
   665   218   217    1
   666   410   411   ar
   667   227   225    1
   668   114   136    1
   669   114   116    1
   670  1657  1655   ar
   671  1651  1652    1
   672    74    76    1
   673  1535  1536   ar
   674    73    78    1
   675    90    69    2
   676  1655  1656    2
   677   431   432   ar
   678   360   361    1
   679  1449  1443   ar
   680  1449  1438    1
   681    53    52    1
   682    53    69    1
   683  1896  1901    1
   684  1443  1442   ar
   685  1664  1685    1
   686  1664  1666    1
   687  1537  1536   ar
   688  1537  1527    1
   689    76    78    1
   690  1191  1193    1
   691  1191  1189    1
   692   217   216   ar
   693  1541  1542    1
   694  1864  1863    2
   695  1897  1899    1
   696    54    52    1
   697    54    56    1
   698  1882  1889   ar
   699  1882  1883   ar
   700  1194  1193    1
   701  1194  1210    1
   702   403   404    1
   703   403   405   ar
   704  1486  1487    2
   705  1486  1485   ar
   706    96   101    1
   707  1513  1514   ar
   708  1430  1432    1
   709    97    99    1
   710  1852  1838    1
   711  1852  1871    1
   712    50    52    1
   713    50    51    1
   714    50    48    1
   715  1889  1888   ar
   716  1542  1540    1
   717    78    89    1
   718  1838  1837    1
   719  1508  1509   ar
   720    71    69    1
   721  1862  1863   ar
   722  1862  1869   ar
   723   382   383   ar
   724   382   381    1
   725  1212  1210    1
   726  1492  1485   ar
   727  1526  1525    1
   728   425   432   ar
   729   425   424    1
   730   383   384    2
   731  1190  1189    1
   732  1190  1188    1
   733  1525  1527    1
   734  1525  1523    1
   735   100    99    1
   736  1509  1515   ar
   737  1494  1475    2
   738    69    91    1
   739  1527  1522    1
   740    56    51    1
   741    56    66    1
   742    36    35    1
   743   214   215   ar
   744  1232  1210    2
   745   373   375    1
   746  1839  1837    1
   747  1839  1841    1
   748  1682  1683   ar
   749  1682  1679   ar
   750  1440  1442   ar
   751  1440  1441    1
   752  1681  1680    2
   753   406   405   ar
   754   406   412   ar
   755  1863  1865   ar
   756  1433  1438    1
   757  1433  1432    1
   758   411   412   ar
   759  1884  1883    2
   760  1485  1484    1
   761    48    49    1
   762  1210  1231    1
   763  1438  1436    1
   764   225   226    1
   765   116   115    1
   766  1436  1437    1
   767  1436  1434    1
   768  1208  1188    2
   769    32    31    1
   770   115   117    1
   771    99   101    1
   772    59    58   ar
   773    59    60   ar
   774  1883  1885   ar
   775   216   215   ar
   776   216   219   ar
   777   376   381    1
   778   376   375    1
   779  1869  1868   ar
   780   101   111    1
   781   414   392    2
   782  1901  1899    1
   783  1901  1911    1
   784   226   224    1
   785  1837  1835    1
   786  1666  1665    1
   787  1910  1911   ar
   788  1910  1909   ar
   789  1683  1684   ar
   790  1432  1434    1
   791  1899  1900    1
   792  1844  1843    2
   793   215   221   ar
   794  1514  1515   ar
   795   424   422    1
   796   424   419    1
   797  1888  1886   ar
   798   422   423    1
   799   422   420    1
   800  1460  1459    1
   801   381   379    1
   802  1561  1540    2
   803  1188  1209    1
   804  1188  1172    1
   805    58    57   ar
   806   375   377    1
   807   412   401    1
   808  1680  1679   ar
   809  1680  1674   ar
   810  1515  1504    1
   811  1679  1678   ar
   812  1841  1836    1
   813  1841  1842    1
   814  1540  1524    1
   815  1540  1560    1
   816    89    88   ar
   817    89    83   ar
   818  1835  1836    1
   819  1835  1833    1
   820  1523  1524    1
   821  1523  1521    1
   822    35    37   ar
   823    35    34   ar
   824   453   435    2
   825  1434  1435    1
   826    66    60   ar
   827    66    65   ar
   828  1911  1905   ar
   829  1522  1521    1
   830    37    38   ar
   831   196   195    2
   832   377   379    1
   833   377   378    1
   834  1475  1458    1
   835  1475  1477    1
   836  1475  1493    1
   837    60    61   ar
   838  1865  1866   ar
   839  1909  1906   ar
   840  1458  1457    1
   841   219   220   ar
   842  1665  1667    1
   843    82    83   ar
   844    82    80   ar
   845    31    33    1
   846    31    29    1
   847    49    47    1
   848  1477  1476    1
   849  1885  1886   ar
   850  1484  1479    1
   851  1484  1482    1
   852   379   380    1
   853  1843  1842   ar
   854  1843  1845   ar
   855   111   110   ar
   856   111   105   ar
   857  1464  1463    1
   858    88    87   ar
   859  1868  1866   ar
   860   243   224    2
   861   117   118    1
   862   117   119    1
   863  1684  1678   ar
   864  1684  1673    1
   865   471   470    1
   866   420   421    1
   867   420   418    1
   868  1886  1887    1
   869  1172  1171    1
   870   110   109   ar
   871   454   435    1
   872    83    84   ar
   873   221   220   ar
   874   221   211    1
   875   224   242    1
   876   224   208    1
   877   392   378    1
   878   392   394    1
   879   392   413    1
   880   450   449    2
   881    13    12    1
   882    67    47    2
   883  1521  1519    1
   884   419   418    1
   885  1842  1849   ar
   886   209   210    1
   887   209   211    1
   888   209   207    1
   889   435   421    1
   890   435   437    1
   891  1678  1677   ar
   892  1668  1667    1
   893  1668  1673    1
   894  1833  1834    1
   895    34    40   ar
   896  1674  1675   ar
   897    33    44    1
   898    33    28    1
   899   195   189   ar
   900   195   194   ar
   901  1459  1457    1
   902  1459  1461    1
   903  1517  1495    2
   904   465   470   ar
   905   465   466   ar
   906    57    62   ar
   907   189   190   ar
   908  1866  1867    1
   909    30    47    1
   910    30    29    1
   911  1479  1478    1
   912  1482  1480    1
   913  1482  1483    1
   914  1504  1502    1
   915  1504  1499    1
   916   118   123    1
   917    65    64   ar
   918   394   393    1
   919   451   449   ar
   920   451   452   ar
   921   401   396    1
   922   401   399    1
   923    38    44   ar
   924    38    39   ar
   925    81    80    1
   926  1905  1906   ar
   927  1905  1904   ar
   928  1457  1455    1
   929  1435  1452    1
   930   155   137    2
   931    47    68    1
   932   156   137    1
   933  1465  1463   ar
   934  1465  1466   ar
   935   470   469   ar
   936    80    79   ar
   937  1667  1669    1
   938  1906  1907   ar
   939   211   206    1
   940  1455  1456    1
   941  1455  1453    1
   942    29    27    1
   943  1502  1500    1
   944  1502  1503    1
   945  1480  1478    1
   946  1480  1481    1
   947    61    62   ar
   948    61    64   ar
   949  1463  1462   ar
   950  1845  1846   ar
   951   120   119    1
   952   120   137    1
   953  1461  1456    1
   954  1461  1472    1
   955   119   121    1
   956   449   448   ar
   957  1520  1519    1
   958  1520  1518    1
   959   434   415    2
   960  1673  1671    1
   961   418   416    1
   962   207   208    1
   963   207   205    1
   964   133   132   ar
   965   133   134   ar
   966  1476  1478    1
   967   396   395    1
   968   105   104   ar
   969   105   106   ar
   970    44    43   ar
   971    28    27    1
   972   417   416    1
   973   417   415    1
   974   399   397    1
   975   399   400    1
   976   137   139    1
   977  1539  1518    2
   978   466   467   ar
   979    87    84   ar
   980   109   106   ar
   981   191   190    1
   982    27    25    1
   983    84    85   ar
   984    62    63    1
   985  1834  1832    1
   986  1675  1677   ar
   987  1675  1676    1
   988  1499  1498    1
   989   190   192   ar
   990  1669  1671    1
   991  1669  1670    1
   992    12    11   ar
   993    12    14   ar
   994   104   103   ar
   995  1171  1169    1
   996  1171  1173    1
   997   194   197   ar
   998   194   193   ar
   999   397   395    1
  1000   397   398    1
  1001  1849  1848   ar
  1002  1454  1453    1
  1003  1454  1452    1
  1004   452   445   ar
  1005   132   129   ar
  1006  1474  1452    2
  1007  1497  1495    1
  1008  1497  1496    1
  1009  1500  1498    1
  1010  1500  1501    1
  1011  1174  1173    1
  1012   437   436    1
  1013  1904  1903   ar
  1014    40    39   ar
  1015    40    41    2
  1016    11    17   ar
  1017  1495  1481    1
  1018  1495  1516    1
  1019  1466  1472   ar
  1020  1466  1467   ar
  1021  1452  1473    1
  1022  1178  1177   ar
  1023  1178  1179   ar
  1024   511   510    1
  1025    39    42   ar
  1026   197   198   ar
  1027   123   134    1
  1028   123   121    1
  1029  1169  1170    1
  1030  1169  1167    1
  1031   393   395    1
  1032   415   398    1
  1033   415   433    1
  1034  1472  1471   ar
  1035   106   107   ar
  1036  1177  1176   ar
  1037  1462  1468   ar
  1038  1518  1501    1
  1039  1518  1538    1
  1040   134   128   ar
  1041   487   488   ar
  1042   487   492   ar
  1043  1850  1832    2
  1044  1671  1672    1
  1045   770   769    1
  1046   469   472   ar
  1047   469   468   ar
  1048    79    85   ar
  1049  1706  1687    2
  1050  1907  1908    1
  1051  1907  1902   ar
  1052  1175  1173    1
  1053  1175  1170    1
  1054  1175  1185    1
  1055   206   205    1
  1056  1705  1687    1
  1057  1846  1848   ar
  1058  1846  1847    2
  1059   493   492    1
  1060   121   122    1
  1061   448   446   ar
  1062  1498  1496    1
  1063   223   202    2
  1064  1670  1687    1
  1065    14    15   ar
  1066   205   203    1
  1067   467   468   ar
  1068   488   489   ar
  1069   193   192   ar
  1070   193   199   ar
  1071    85    86    2
  1072    43    42   ar
  1073  1832  1851    1
  1074  1832  1818    1
  1075   204   202    1
  1076   204   203    1
  1077  1820  1819    1
  1078  1687  1689    1
  1079    25    26    1
  1080   492   491   ar
  1081   436   438    1
  1082   103   102   ar
  1083   129   128   ar
  1084   129   130   ar
  1085   472   473   ar
  1086   139   138    1
  1087   468   474   ar
  1088  1903  1902   ar
  1089   445   446   ar
  1090   445   444    1
  1091  1824  1823    2
  1092  1179  1185   ar
  1093  1179  1180   ar
  1094  1467  1468   ar
  1095  1467  1470   ar
  1096    17    18    2
  1097    17    16   ar
  1098  1167  1168    1
  1099   198   199   ar
  1100   510   512   ar
  1101   510   509   ar
  1102  1176  1181   ar
  1103  1468  1469    2
  1104   128   127   ar
  1105   178   157    2
  1106  1471  1470   ar
  1107  1185  1184   ar
  1108   769   768   ar
  1109   769   771   ar
  1110   202   222    1
  1111   202   185    1
  1112   107   102   ar
  1113   107   108    1
  1114   446   447    2
  1115  1819  1817    1
  1116  1819  1821    1
  1117  1818  1817    1
  1118   512   513   ar
  1119  1168  1166    1
  1120   199   188    1
  1121   138   140    1
  1122   489   490   ar
  1123   768   774   ar
  1124    15    16   ar
  1125    15    21   ar
  1126    26    24    1
  1127   131   130    2
  1128   439   444    1
  1129   439   438    1
  1130   130   124   ar
  1131   509   515   ar
  1132   442   444    1
  1133   442   443    1
  1134   442   440    1
  1135   530   529    1
  1136  1823  1825   ar
  1137  1823  1822   ar
  1138   491   490   ar
  1139   491   494   ar
  1140   473   474   ar
  1141     9     8    1
  1142    16    19   ar
  1143   438   440    1
  1144   771   772   ar
  1145   474   464    1
  1146   177   157    1
  1147  1825  1826   ar
  1148  1817  1815    1
  1149  1180  1181   ar
  1150  1180  1183   ar
  1151  1181  1182    1
  1152   507   506    1
  1153   127   125   ar
  1154  1689  1688    1
  1155   157   143    1
  1156   157   159    1
  1157   153   154   ar
  1158   153   151   ar
  1159   490   496   ar
  1160   173   172    1
  1161   184   186    1
  1162   184   185    1
  1163   184   182    1
  1164   186   188    1
  1165   186   187    1
  1166  1184  1183   ar
  1167   440   441    1
  1168  1821  1822    1
  1169  1821  1816    1
  1170     8    10    1
  1171     8     6    1
  1172   802   781    2
  1173   513   519   ar
  1174   513   514   ar
  1175   526   531    1
  1176   526   525    1
  1177   154   147   ar
  1178   188   183    1
  1179   143   142    1
  1180   774   775    2
  1181   774   773   ar
  1182  1822  1829   ar
  1183   531   529    1
  1184   531   532    1
  1185   152   151    2
  1186    21    10    1
  1187    21    20   ar
  1188   459   464    1
  1189   459   458    1
  1190   201   179    2
  1191   494   495   ar
  1192   525   523    1
  1193   525   527    1
  1194   124   125   ar
  1195   508   506    1
  1196   508   519    1
  1197   508   503    1
  1198   140   142    1
  1199   140   141    1
  1200  1166  1186    2
  1201  1166  1149    1
  1202  1166  1187    1
  1203   534   533    2
  1204   142   144    1
  1205  1688  1690    1
  1206    10     5    1
  1207   515   514   ar
  1208   515   516    2
  1209   174   171   ar
  1210   174   175   ar
  1211   766   765    1
  1212   529   527    1
  1213   125   126    1
  1214   151   150   ar
  1215   506   504    1
  1216   464   462    1
  1217   772   773   ar
  1218   772   778   ar
  1219  1826  1827    1
  1220  1826  1828   ar
  1221    24    45    2
  1222    24     7    1
  1223    24    46    1
  1224   180   182    1
  1225   180   181    1
  1226  1815  1816    1
  1227  1815  1813    1
  1228   519   518   ar
  1229    19    20   ar
  1230   183   182    1
  1231  1149  1148    1
  1232   172   171   ar
  1233   172   167   ar
  1234   496   495   ar
  1235   496   486    1
  1236  1151  1150    1
  1237   159   158    1
  1238   514   517   ar
  1239   523   524    1
  1240   773   776   ar
  1241   141   146    1
  1242     7     6    1
  1243   764   781    1
  1244   764   763    1
  1245   527   528    1
  1246   528   542    1
  1247     6     4    1
  1248   503   502    1
  1249   171   170   ar
  1250   175   176   ar
  1251  1801  1800    1
  1252  1155  1154    1
  1253   781   783    1
  1254   781   803    1
  1255   533   532   ar
  1256   533   535   ar
  1257   441   455    1
  1258  1829  1828   ar
  1259   532   539   ar
  1260   147   146    1
  1261   147   148   ar
  1262   456   458    1
  1263   456   457    1
  1264   767   778    1
  1265   767   765    1
  1266   767   762    1
  1267   458   460    1
  1268   778   777   ar
  1269   543   545    1
  1270   543   544    1
  1271   179   181    1
  1272   179   200    1
  1273   179   163    1
  1274  1150  1148    1
  1275  1150  1152    1
  1276   457   455    1
  1277   486   484    1
  1278   486   481    1
  1279   765   763    1
  1280  1799  1800   ar
  1281  1799  1805   ar
  1282   150   148   ar
  1283   546   545    1
  1284   546   551    1
  1285   783   782    1
  1286   167   168   ar
  1287   144   146    1
  1288   144   145    1
  1289     5     4    1
  1290   782   784    1
  1291   462   463    1
  1292   462   460    1
  1293  1690  1692    1
  1294  1690  1691    1
  1295   545   547    1
  1296  1148  1146    1
  1297   518   517   ar
  1298   504   502    1
  1299   504   505    1
  1300  1813  1814    1
  1301   502   500    1
  1302   476   455    2
  1303  1800  1802   ar
  1304  1806  1805    2
  1305   785   784    1
  1306   785   790    1
  1307   158   160    1
  1308  1814  1812    1
  1309   763   761    1
  1310   524   522    1
  1311   455   475    1
  1312     4     2    1
  1313   148   149    2
  1314  1154  1156   ar
  1315  1154  1153   ar
  1316   563   542    2
  1317   776   777   ar
  1318   505   522    1
  1319   800   799   ar
  1320   800   801   ar
  1321   535   536   ar
  1322  1156  1157   ar
  1323   539   538   ar
  1324  1727  1707    2
  1325  1692  1694    1
  1326  1692  1693    1
  1327   484   485    1
  1328   484   482    1
  1329   170   176   ar
  1330   170   169   ar
  1331   176   166    1
  1332  1805  1804   ar
  1333   542   544    1
  1334   542   564    1
  1335   799   796   ar
  1336   762   761    1
  1337   162   163    1
  1338   162   160    1
  1339   162   164    1
  1340   460   461    1
  1341   784   786    1
  1342   481   480    1
  1343  1691  1696    1
  1344   551   549    1
  1345   551   562    1
  1346   550   549    1
  1347   761   759    1
  1348   168   169   ar
  1349  1728  1707    1
  1350  1802  1803   ar
  1351  1146  1147    1
  1352  1146  1144    1
  1353  1152  1163    1
  1354  1152  1147    1
  1355  1153  1159   ar
  1356   160   161    1
  1357   522   540    2
  1358   522   541    1
  1359  1694  1696    1
  1360  1694  1695    1
  1361   461   477    1
  1362   790   801    1
  1363   790   788    1
  1364   801   795   ar
  1365  1707  1693    1
  1366  1707  1709    1
  1367  1831  1812    2
  1368   993   975    2
  1369   538   536   ar
  1370   536   537    2
  1371   500   501    1
  1372  1157  1163   ar
  1373  1157  1158   ar
  1374   547   549    1
  1375   547   548    1
  1376   161   166    1
  1377  1812  1830    1
  1378  1812  1795    1
  1379   164   166    1
  1380   164   165    1
  1381  1804  1803   ar
  1382  1804  1807   ar
  1383   796   795   ar
  1384   796   797   ar
  1385   562   561   ar
  1386   562   556   ar
  1387     2     3    1
  1388   548   565    1
  1389  1696  1697    1
  1390  1803  1809   ar
  1391  1163  1162   ar
  1392   561   560   ar
  1393   482   480    1
  1394   482   483    1
  1395  1704  1697   ar
  1396  1704  1703   ar
  1397   961   975    1
  1398   961   960    1
  1399   956   958    1
  1400   956   957    1
  1401     3     1    1
  1402  1144  1145    1
  1403   973   955    2
  1404   480   478    1
  1405   501   499    1
  1406   795   794   ar
  1407   958   960    1
  1408   958   959    1
  1409   963   962    1
  1410   940   939    1
  1411   786   788    1
  1412   786   787    1
  1413  1159  1158   ar
  1414  1159  1160    2
  1415   798   797    2
  1416  1158  1161   ar
  1417  1697  1698   ar
  1418   759   760    1
  1419   797   791   ar
  1420   976   977    1
  1421   976   978    1
  1422  1703  1701   ar
  1423  1807  1808   ar
  1424   975   977    1
  1425   975   994    1
  1426  1796  1797    1
  1427  1796  1794    1
  1428  1796  1798    1
  1429   788   789    1
  1430   556   555   ar
  1431   556   557   ar
  1432  1795  1794    1
  1433   760   758    1
  1434   560   557   ar
  1435   960   962    1
  1436   477   479    1
  1437   477   498    2
  1438   477   497    1
  1439  1709  1708    1
  1440   483   499    1
  1441   479   478    1
  1442  1809  1808   ar
  1443  1809  1798    1
  1444  1162  1161   ar
  1445   555   553   ar
  1446   959   964    1
  1447  1145  1143    1
  1448   787   804    1
  1449   938   955    1
  1450   938   937    1
  1451  1794  1792    1
  1452     1    23    1
  1453     1    22    1
  1454   746   745    1
  1455   794   792   ar
  1456   957   955    1
  1457  1708  1710    1
  1458  1015   995    2
  1459   583   565    2
  1460   955   974    1
  1461   962   964    1
  1462   565   584    1
  1463   565   567    1
  1464   557   558   ar
  1465   499   521    2
  1466   499   520    1
  1467   978   979    1
  1468   978   980    1
  1469  1798  1793    1
  1470  1698  1699    2
  1471  1698  1700   ar
  1472   791   792   ar
  1473   939   937    1
  1474   939   941    1
  1475  1701  1700   ar
  1476  1701  1702    1
  1477   981   995    1
  1478   981   980    1
  1479  1784  1783    1
  1480   964   965    1
  1481   792   793    1
  1482   744   758    1
  1483   744   743    1
  1484   553   554    1
  1485   553   552   ar
  1486   566   567    1
  1487   566   568    1
  1488   937   935    1
  1489   826   804    2
  1490   758   779    2
  1491   758   780    1
  1492   995  1016    1
  1493   995   997    1
  1494   935   936    1
  1495   935   933    1
  1496  1131  1130    1
  1497   944   943    1
  1498   979   984    1
  1499   980   982    1
  1500  1135  1134    2
  1501   804   825    1
  1502   804   806    1
  1503   558   552   ar
  1504   558   559    2
  1505  1143  1164    2
  1506  1143  1165    1
  1507  1143  1129    1
  1508   745   743    1
  1509   745   747    1
  1510   941   936    1
  1511   941   952    1
  1512  1792  1793    1
  1513  1792  1790    1
  1514  1748  1729    2
  1515  1710  1711    1
  1516  1710  1712    1
  1517  1725  1724   ar
  1518  1725  1726   ar
  1519  1783  1782   ar
  1520  1783  1785   ar
  1521  1724  1721   ar
  1522   945   943   ar
  1523   945   946   ar
  1524  1791  1790    1
  1525  1791  1789    1
  1526   743   741    1
  1527  1130  1132    1
  1528  1130  1128    1
  1529   569   568    1
  1530   569   574    1
  1531  1811  1789    2
  1532   568   570    1
  1533  1134  1136   ar
  1534  1134  1133   ar
  1535  1136  1137   ar
  1536  1782  1780   ar
  1537  1711  1716    1
  1538   983   982    1
  1539   822   823   ar
  1540   822   819   ar
  1541   943   942   ar
  1542   965   972   ar
  1543   965   966   ar
  1544   933   934    1
  1545   741   742    1
  1546   741   739    1
  1547   750   749    2
  1548   747   742    1
  1549   747   748    1
  1550   806   805    1
  1551  1785  1786   ar
  1552   821   820    2
  1553  1129  1128    1
  1554   996   997    1
  1555   996   998    1
  1556  1764  1763    1
  1557  1712  1713    1
  1558  1712  1714    1
  1559   982   984    1
  1560  1747  1729    1
  1561   823   824   ar
  1562   984   985    1
  1563  1789  1810    1
  1564  1789  1775    1
  1565  1729  1713    1
  1566  1729  1731    1
  1567   967   966    2
  1568   972   971   ar
  1569   952   946   ar
  1570   952   951   ar
  1571   724   723    1
  1572   946   947   ar
  1573   582   581   ar
  1574   582   575   ar
  1575  1138  1137    1
  1576  1137  1139   ar
  1577  1132  1133    1
  1578  1132  1127    1
  1579  1128  1126    1
  1580  1133  1140   ar
  1581  1726  1716    1
  1582  1726  1720   ar
  1583   966   968   ar
  1584   805   807    1
  1585   581   579   ar
  1586  1721  1722   ar
  1587  1721  1720   ar
  1588  1780  1781    2
  1589  1780  1779   ar
  1590   819   820   ar
  1591   819   818   ar
  1592  1723  1722    1
  1593   820   814   ar
  1594   574   575    1
  1595   574   572    1
  1596   992   985   ar
  1597   992   991   ar
  1598   740   739    1
  1599   740   738    1
  1600  1716  1714    1
  1601   727   728   ar
  1602   727   726   ar
  1603   749   748   ar
  1604   749   751   ar
  1605  1786  1779   ar
  1606   934   932    1
  1607   728   729   ar
  1608   570   571    1
  1609   570   572    1
  1610  1765  1763   ar
  1611  1765  1766   ar
  1612  1763  1762   ar
  1613   942   948   ar
  1614   881   880    1
  1615   575   576   ar
  1616   748   755   ar
  1617   985   986   ar
  1618   808   807    1
  1619   808   813    1
  1620  1744  1743    2
  1621   907   906    2
  1622  1140  1139   ar
  1623  1722  1717   ar
  1624   824   818   ar
  1625   824   813    1
  1626  1714  1715    1
  1627  1779  1778    1
  1628   998   999    1
  1629   998  1000    1
  1630  1720  1719   ar
  1631  1788  1769    2
  1632   953   932    2
  1633   879   880   ar
  1634   879   885   ar
  1635   723   725    1
  1636   723   721    1
  1637   571   585    1
  1638   951   950   ar
  1639   971   969   ar
  1640  1745  1743   ar
  1641  1745  1746   ar
  1642   756   738    2
  1643  1035  1017    2
  1644  1036  1017    1
  1645  1775  1774    1
  1646  1731  1730    1
  1647  1111  1112   ar
  1648  1111  1116   ar
  1649  1126  1127    1
  1650  1126  1124    1
  1651   991   989   ar
  1652   818   817   ar
  1653   886   885    2
  1654   947   948   ar
  1655   947   950   ar
  1656   905   906   ar
  1657   905   903   ar
  1658   579   580    2
  1659   579   578   ar
  1660   807   809    1
  1661  1768  1749    2
  1662   572   573    1
  1663  1774  1776    1
  1664  1774  1772    1
  1665  1776  1778    1
  1666  1776  1777    1
  1667   726   731   ar
  1668  1001  1017    1
  1669  1001  1000    1
  1670   814   815   ar
  1671  1743  1742   ar
  1672   968   969   ar
  1673   843   842    1
  1674   880   882   ar
  1675  1112  1113   ar
  1676   813   811    1
  1677   738   722    1
  1678   738   757    1
  1679  1117  1116    1
  1680   725   735    1
  1681   725   720    1
  1682   751   752   ar
  1683   906   908   ar
  1684  1017  1019    1
  1685  1762  1760   ar
  1686   932   918    1
  1687   932   954    1
  1688  1766  1759   ar
  1689   948   949    2
  1690   722   721    1
  1691   576   578   ar
  1692   576   577    2
  1693   904   903    2
  1694   999  1004    1
  1695   885   884   ar
  1696  1000  1002    1
  1697   729   735   ar
  1698   729   730   ar
  1699  1771  1769    1
  1700  1771  1770    1
  1701   755   754   ar
  1702   864   863    2
  1703  1116  1115   ar
  1704  1778  1773    1
  1705  1746  1739   ar
  1706   969   970    2
  1707   986   987    2
  1708   986   988   ar
  1709   607   585    2
  1710   920   919    1
  1711   903   902   ar
  1712   721   719    1
  1713  1769  1787    1
  1714  1769  1755    1
  1715   918   917    1
  1716  1717  1718   ar
  1717   809   811    1
  1718   809   810    1
  1719  1719  1718   ar
  1720   817   815   ar
  1721   585   606    1
  1722   585   587    1
  1723  1730  1732    1
  1724   735   734   ar
  1725   815   816    1
  1726  1124  1125    1
  1727  1013  1012   ar
  1728  1013  1014   ar
  1729   720   719    1
  1730  1113  1114   ar
  1731   719   717    1
  1732   989   988   ar
  1733   989   990    1
  1734   844   841   ar
  1735   844   845   ar
  1736  1772  1773    1
  1737  1772  1770    1
  1738  1750  1751    1
  1739  1750  1752    1
  1740  1749  1767    1
  1741  1749  1751    1
  1742  1749  1735    1
  1743   731   730   ar
  1744   731   732    1
  1745   842   841   ar
  1746   842   837   ar
  1747  1760  1759   ar
  1748  1760  1761    2
  1749  1759  1758    1
  1750   848   827    2
  1751  1125  1123    1
  1752  1742  1740   ar
  1753   705   704   ar
  1754   705   706   ar
  1755   882   883   ar
  1756   811   812    1
  1757   752   754   ar
  1758   752   753    2
  1759   730   733   ar
  1760  1115  1114   ar
  1761  1115  1118   ar
  1762   908   909   ar
  1763   924   923    2
  1764  1004  1002    1
  1765  1004  1014    1
  1766  1012  1009   ar
  1767  1754  1755    1
  1768  1754  1752    1
  1769  1754  1756    1
  1770   863   862   ar
  1771   863   865   ar
  1772   884   883   ar
  1773   884   887   ar
  1774  1002  1003    1
  1775   841   840   ar
  1776  1019  1018    1
  1777   704   709   ar
  1778   810   827    1
  1779  1114  1120   ar
  1780  1739  1740   ar
  1781  1739  1738    1
  1782   919   917    1
  1783   919   921    1
  1784  1734  1735    1
  1785  1734  1732    1
  1786  1734  1736    1
  1787   917   915    1
  1788  1014  1008   ar
  1789   902   909   ar
  1790   902   901    1
  1791   706   707   ar
  1792   587   586    1
  1793   837   838   ar
  1794   883   889   ar
  1795  1732  1733    1
  1796   845   846   ar
  1797  1752  1753    1
  1798   862   860   ar
  1799  1095  1094    1
  1800   921   922    1
  1801   921   916    1
  1802   734   733   ar
  1803  1740  1741    2
  1804  1753  1758    1
  1805  1756  1758    1
  1806  1756  1757    1
  1807   827   847    1
  1808   827   829    1
  1809   923   922   ar
  1810   923   925   ar
  1811  1733  1738    1
  1812   717   718    1
  1813  1018  1020    1
  1814  1118  1119   ar
  1815   865   866   ar
  1816   586   588    1
  1817  1123  1142    2
  1818  1123  1141    1
  1819  1123  1107    1
  1820   887   888   ar
  1821  1089  1094   ar
  1822  1089  1090   ar
  1823  1738  1736    1
  1824   922   929   ar
  1825  1736  1737    1
  1826   603   604   ar
  1827   603   600   ar
  1828   925   926   ar
  1829  1120  1119   ar
  1830  1120  1110    1
  1831   901   899    1
  1832   901   896    1
  1833  1108  1109    1
  1834  1108  1110    1
  1835  1108  1106    1
  1836  1033  1034   ar
  1837  1033  1031   ar
  1838  1009  1008   ar
  1839  1009  1010   ar
  1840   840   846   ar
  1841   840   839   ar
  1842   900   899    1
  1843  1094  1093   ar
  1844   604   605   ar
  1845   915   916    1
  1846   915   913    1
  1847   702   701    1
  1848   709   710    1
  1849   709   708   ar
  1850  1008  1007   ar
  1851   846   836    1
  1852   838   839   ar
  1853   829   828    1
  1854   707   708   ar
  1855   707   713   ar
  1856  1034  1027   ar
  1857   683   682    1
  1858   860   861    2
  1859   860   859   ar
  1860   889   888   ar
  1861   889   878    1
  1862   718   716    1
  1863  1058  1037    2
  1864  1090  1091   ar
  1865   589   588    1
  1866   589   594    1
  1867  1110  1105    1
  1868  1032  1031    1
  1869   929   928   ar
  1870   899   897    1
  1871   602   601    2
  1872  1107  1106    1
  1873   926   928   ar
  1874   926   927    1
  1875  1106  1104    1
  1876   701   703    1
  1877   701   699    1
  1878   866   859   ar
  1879   896   895    1
  1880   588   590    1
  1881   708   711   ar
  1882  1031  1030   ar
  1883  1020  1021    1
  1884  1020  1022    1
  1885   600   601   ar
  1886   600   599   ar
  1887  1011  1010    1
  1888  1010  1005   ar
  1889   605   594    1
  1890   605   599   ar
  1891   831   836    1
  1892   831   830    1
  1893   681   682   ar
  1894   681   687   ar
  1895  1074  1073    1
  1896   703   713    1
  1897   703   698    1
  1898  1093  1096   ar
  1899  1093  1092   ar
  1900  1021  1026    1
  1901   859   858    1
  1902   601   595   ar
  1903  1007  1006   ar
  1904   713   712   ar
  1905   878   876    1
  1906   878   873    1
  1907   913   914    1
  1908   836   834    1
  1909  1022  1023    1
  1910  1022  1024    1
  1911   682   684   ar
  1912   828   830    1
  1913  1057  1037    1
  1914  1037  1023    1
  1915  1037  1039    1
  1916   594   592    1
  1917   898   897    1
  1918   898   912    1
  1919  1027  1026    1
  1920  1027  1028   ar
  1921  1091  1092   ar
  1922   599   598   ar
  1923   876   877    1
  1924   876   874    1
  1925  1096  1097   ar
  1926   688   687    2
  1927  1105  1104    1
  1928   897   895    1
  1929   914   912    1
  1930   590   592    1
  1931   590   591    1
  1932  1092  1098   ar
  1933   716   700    1
  1934   716   736    2
  1935   716   737    1
  1936  1053  1052    1
  1937   623   622    2
  1938   700   699    1
  1939   830   832    1
  1940   699   697    1
  1941   687   686   ar
  1942  1104  1102    1
  1943   895   893    1
  1944  1026  1024    1
  1945  1030  1028   ar
  1946   627   608    2
  1947  1005  1006   ar
  1948   711   712   ar
  1949  1073  1075   ar
  1950  1073  1072   ar
  1951   698   697    1
  1952   832   834    1
  1953   832   833    1
  1954   645   644    2
  1955   595   596   ar
  1956   868   849    2
  1957   873   872    1
  1958   834   835    1
  1959  1054  1055   ar
  1960  1054  1051   ar
  1961   858   853    1
  1962   858   856    1
  1963  1103  1102    1
  1964  1103  1101    1
  1965  1028  1029    2
  1966   684   685   ar
  1967  1024  1025    1
  1968   911   892    2
  1969   894   893    1
  1970   894   892    1
  1971   592   593    1
  1972   591   608    1
  1973   912   931    2
  1974   912   930    1
  1975  1122  1101    2
  1976  1075  1076   ar
  1977   598   596   ar
  1978  1097  1098   ar
  1979   697   695    1
  1980  1039  1038    1
  1981   624   622   ar
  1982   624   625   ar
  1983   622   621   ar
  1984  1098  1088    1
  1985   874   872    1
  1986   874   875    1
  1987   596   597    1
  1988  1072  1070   ar
  1989   853   852    1
  1990  1052  1051   ar
  1991  1052  1047   ar
  1992   608   626    1
  1993   608   610    1
  1994  1055  1056   ar
  1995  1051  1050   ar
  1996   686   685   ar
  1997   686   689   ar
  1998   856   854    1
  1999   856   857    1
  2000  1078  1059    2
  2001  1101  1121    1
  2002  1101  1085    1
  2003   666   665    2
  2004   892   875    1
  2005   892   910    1
  2006   685   691   ar
  2007   833   849    1
  2008   644   638   ar
  2009   644   643   ar
  2010   872   870    1
  2011   851   849    1
  2012   851   850    1
  2013   849   867    1
  2014  1086  1088    1
  2015  1086  1084    1
  2016  1086  1087    1
  2017   625   618   ar
  2018   621   619   ar
  2019   638   639   ar
  2020  1076  1069   ar
  2021   854   852    1
  2022   854   855    1
  2023  1038  1040    1
  2024  1088  1083    1
  2025  1100  1079    2
  2026   871   870    1
  2027   871   869    1
  2028  1047  1048   ar
  2029   891   869    2
  2030   695   696    1
  2031   852   850    1
  2032  1084  1085    1
  2033  1084  1082    1
  2034  1070  1069   ar
  2035  1070  1071    2
  2036   610   609    1
  2037  1056  1050   ar
  2038  1056  1046    1
  2039   665   664   ar
  2040   665   667   ar
  2041   689   690   ar
  2042   643   646   ar
  2043   643   642   ar
  2044   646   647   ar
  2045   664   662   ar
  2046  1050  1049   ar
  2047   696   694    1
  2048  1069  1068    1
  2049   691   690   ar
  2050   691   680    1
  2051  1059  1077    1
  2052  1059  1061    1
  2053  1059  1043    1
  2054   618   619   ar
  2055   618   617    1
  2056   869   855    1
  2057   869   890    1
  2058  1081  1079    1
  2059  1081  1080    1
  2060   619   620    2
  2061  1042  1040    1
  2062  1042  1043    1
  2063  1042  1044    1
  2064  1083  1082    1
  2065  1040  1041    1
  2066  1041  1046    1
  2067   678   679    1
  2068   678   680    1
  2069   678   676    1
  2070   639   640    1
  2071   639   641   ar
  2072  1061  1060    1
  2073  1079  1099    1
  2074  1079  1065    1
  2075  1048  1049   ar
  2076   609   611    1
  2077   680   675    1
  2078  1082  1080    1
  2079  1046  1044    1
  2080   663   662    2
  2081   662   661   ar
  2082   612   617    1
  2083   612   611    1
  2084   667   668   ar
  2085   647   648   ar
  2086   642   641   ar
  2087   642   648   ar
  2088  1044  1045    1
  2089  1064  1066    1
  2090  1064  1065    1
  2091  1064  1062    1
  2092   715   694    2
  2093   617   615    1
  2094   694   677    1
  2095   694   714    1
  2096  1068  1066    1
  2097  1068  1063    1
  2098  1066  1067    1
  2099   611   613    1
  2100   676   677    1
  2101   676   674    1
  2102   650   628    2
  2103   648   637    1
  2104  1063  1062    1
  2105  1060  1062    1
  2106   613   615    1
  2107   613   614    1
  2108   661   668   ar
  2109   661   660    1
  2110   675   674    1
  2111   615   616    1
  2112   674   672    1
  2113   614   628    1
  2114   628   630    1
  2115   628   649    1
  2116   637   632    1
  2117   637   635    1
  2118   660   658    1
  2119   660   655    1
  2120   630   629    1
  2121   632   631    1
  2122   672   673    1
  2123   658   659    1
  2124   658   656    1
  2125   635   633    1
  2126   635   636    1
  2127   670   651    2
  2128   655   654    1
  2129   633   631    1
  2130   633   634    1
  2131   629   631    1
  2132   673   671    1
  2133   656   654    1
  2134   656   657    1
  2135   693   671    2
  2136   653   651    1
  2137   653   652    1
  2138   651   634    1
  2139   651   669    1
  2140   654   652    1
  2141   671   657    1
  2142   671   692    1
