ligand
  PyMOL2.2          3D                             0

 24 26  0  0  0  0  0  0  0  0999 V2000
    6.7700  -11.0900   -9.6930 N   0  0  0  0  0  0  0  0  0  0  0  0
    8.0840  -11.5930   -9.3260 C   0  0  0  0  0  0  0  0  0  0  0  0
   13.2060   -7.1620  -12.5660 O   0  0  0  0  0  0  0  0  0  0  0  0
   12.0030   -6.4920  -12.3880 C   0  0  0  0  0  0  0  0  0  0  0  0
    8.2080   -4.5910  -11.8950 N   0  0  0  0  0  0  0  0  0  0  0  0
   11.9460   -4.9890  -12.3200 C   0  0  0  0  0  0  0  0  0  0  0  0
    8.1990   -6.8360  -11.9690 N   0  0  0  0  0  0  0  0  0  0  0  0
   10.7150   -4.2730  -12.1650 C   0  0  0  0  0  0  0  0  0  0  0  0
    5.9860   -5.6990  -11.6750 N   0  0  0  0  0  0  0  0  0  0  0  0
    9.5170   -5.0650  -12.0600 C   0  0  0  0  0  0  0  0  0  0  0  0
   13.2900  -11.4680  -11.8110 N   0  0  0  0  0  0  0  0  0  0  0  0
    9.5590   -6.5020  -12.1080 C   0  0  0  0  0  0  0  0  0  0  0  0
   10.8600   -7.2040  -12.2820 C   0  0  0  0  0  0  0  0  0  0  0  0
    7.4100   -5.6970  -11.8480 C   0  0  0  0  0  0  0  0  0  0  0  0
   10.8830   -8.7200  -12.3400 C   0  0  0  0  0  0  0  0  0  0  0  0
   12.2710   -9.3490  -12.2830 C   0  0  0  0  0  0  0  0  0  0  0  0
   13.3370   -8.3650  -11.8940 C   0  0  0  0  0  0  0  0  0  0  0  0
   12.2600  -10.5520  -11.3520 C   0  0  0  0  0  0  0  0  0  0  0  0
    7.6700   -8.2120  -12.0330 C   0  0  0  0  0  0  0  0  0  0  0  0
   12.9830  -12.7990  -11.3050 C   0  0  0  0  0  0  0  0  0  0  0  0
   13.2530  -11.4740  -13.2650 C   0  0  0  0  0  0  0  0  0  0  0  0
    7.4710   -8.9070  -10.6750 C   0  0  0  0  0  0  0  0  0  0  0  0
    6.8550  -10.2960  -10.9270 C   0  0  0  0  0  0  0  0  0  0  0  0
    5.8780  -12.2320   -9.8590 C   0  0  0  0  0  0  0  0  0  0  0  0
  1 23  1  0  0  0  0
  1 24  1  0  0  0  0
  1  2  1  0  0  0  0
  3  4  1  0  0  0  0
  3 17  1  0  0  0  0
  4  6  4  0  0  0  0
  4 13  4  0  0  0  0
  5 10  4  0  0  0  0
  5 14  4  0  0  0  0
  6  8  4  0  0  0  0
  7 12  4  0  0  0  0
  7 14  4  0  0  0  0
  7 19  1  0  0  0  0
  8 10  4  0  0  0  0
  9 14  1  0  0  0  0
 10 12  4  0  0  0  0
 11 18  1  0  0  0  0
 11 20  1  0  0  0  0
 11 21  1  0  0  0  0
 12 13  4  0  0  0  0
 13 15  1  0  0  0  0
 15 16  1  0  0  0  0
 16 17  1  0  0  0  0
 16 18  1  0  0  0  0
 19 22  1  0  0  0  0
 22 23  1  0  0  0  0
M  END
$$$$
