ligand
 OpenBabel11021811493D
libRbt.so/2013.1/901 2013/11/27
 24 26  0  0  0  0  0  0  0  0999 V2000
    7.0967  -11.0221   -9.7701 N   0  0  0  0  0  0  0  0  0  0  0  0
    8.3086  -11.5998   -9.2117 C   0  0  0  0  0  0  0  0  0  0  0  0
   13.2944   -6.4813  -12.6605 O   0  0  0  0  0  0  0  0  0  0  0  0
   12.0404   -5.9327  -12.4272 C   0  0  0  0  0  0  0  0  0  0  0  0
    8.1023   -4.4111  -11.7677 N   0  0  0  0  0  0  0  0  0  0  0  0
   11.8477   -4.4449  -12.2994 C   0  0  0  0  0  0  0  0  0  0  0  0
    8.2973   -6.6431  -11.9286 N   0  0  0  0  0  0  0  0  0  0  0  0
   10.5610   -3.8523  -12.0866 C   0  0  0  0  0  0  0  0  0  0  0  0
    5.9984   -5.7278  -11.5365 N   0  0  0  0  0  0  0  0  0  0  0  0
    9.4441   -4.7553  -11.9831 C   0  0  0  0  0  0  0  0  0  0  0  0
   12.7898  -11.1427  -12.4309 N   0  0  0  0  0  0  0  0  0  0  0  0
    9.6165   -6.1796  -12.0879 C   0  0  0  0  0  0  0  0  0  0  0  0
   10.9710   -6.7510  -12.3209 C   0  0  0  0  0  0  0  0  0  0  0  0
    7.4108   -5.5874  -11.7442 C   0  0  0  0  0  0  0  0  0  0  0  0
   11.1314   -8.2552  -12.4383 C   0  0  0  0  0  0  0  0  0  0  0  0
   12.5723   -8.7544  -12.4398 C   0  0  1  0  0  0  0  0  0  0  0  0
   13.5540   -7.6906  -12.0392 C   0  0  0  0  0  0  0  0  0  0  0  0
   12.6979   -9.9864  -11.5563 C   0  0  0  0  0  0  0  0  0  0  0  0
    7.8952   -8.0590  -12.0330 C   0  0  0  0  0  0  0  0  0  0  0  0
   14.1558  -11.2386  -12.9275 C   0  0  0  0  0  0  0  0  0  0  0  0
   12.4719  -12.3184  -11.6357 C   0  0  0  0  0  0  0  0  0  0  0  0
    7.8244   -8.8255  -10.7010 C   0  0  0  0  0  0  0  0  0  0  0  0
    7.4067  -10.2777  -10.9991 C   0  0  0  0  0  0  0  0  0  0  0  0
    6.1567  -12.1064  -10.0312 C   0  0  0  0  0  0  0  0  0  0  0  0
  1 23  1  0  0  0  0
  1 24  1  0  0  0  0
  1  2  1  0  0  0  0
  3  4  1  0  0  0  0
  3 17  1  0  0  0  0
  4  6  2  0  0  0  0
  4 13  1  0  0  0  0
  5 10  1  0  0  0  0
  5 14  2  0  0  0  0
  6  8  1  0  0  0  0
  7 12  1  0  0  0  0
  7 14  1  0  0  0  0
  7 19  1  0  0  0  0
  8 10  2  0  0  0  0
  9 14  1  0  0  0  0
 10 12  1  0  0  0  0
 11 18  1  0  0  0  0
 11 20  1  0  0  0  0
 11 21  1  0  0  0  0
 12 13  2  0  0  0  0
 13 15  1  0  0  0  0
 15 16  1  0  0  0  0
 16 17  1  0  0  0  0
 16 18  1  1  0  0  0
 19 22  1  0  0  0  0
 22 23  1  0  0  0  0
M  END
>  <CHROM.1>
-86.37690336,94.86583850,79.65597014,104.08643894,-179.44074935,-170.47015182
10.07461348,-8.15132084,-11.68656360,1.32269375,-0.25630603,2.95641468

>  <Name>
ligand

>  <RI>
0

>  <Rbt.Current_Directory>
/home/itssahil/PROJECTS/Mol_Feturizer/New_Systems/rnas/3TZR

>  <Rbt.Executable>
rbdock ($Id: //depot/dev/client3/rdock/2013.1/src/exe/rbdock.cxx#4 $)

>  <Rbt.Library>
libRbt.so (2013.1, Build901 2013/11/27)

>  <Rbt.Parameter_File>
/export/apps/rDock/src/rDock_2013.1_src/data/scripts/dock_solv.prm

>  <Rbt.Receptor>
prm/pocket_docking_2.prm

>  <SCORE>
-34.8185

>  <SCORE.INTER>
-25.323

>  <SCORE.INTER.CONST>
1

>  <SCORE.INTER.POLAR>
0

>  <SCORE.INTER.ROT>
6

>  <SCORE.INTER.SOLV>
20.764

>  <SCORE.INTER.VDW>
-31.4033

>  <SCORE.INTER.norm>
-1.05512

>  <SCORE.INTRA>
-9.55129

>  <SCORE.INTRA.DIHEDRAL>
2.58197

>  <SCORE.INTRA.DIHEDRAL.0>
4.94008

>  <SCORE.INTRA.POLAR>
0

>  <SCORE.INTRA.POLAR.0>
0

>  <SCORE.INTRA.REPUL>
0

>  <SCORE.INTRA.REPUL.0>
0

>  <SCORE.INTRA.SOLV>
-0.0747914

>  <SCORE.INTRA.SOLV.lig_0>
-31.4704

>  <SCORE.INTRA.VDW>
-10.8049

>  <SCORE.INTRA.VDW.0>
10.2807

>  <SCORE.INTRA.norm>
-0.397971

>  <SCORE.RESTR>
0.0557817

>  <SCORE.RESTR.CAVITY>
0.0557817

>  <SCORE.RESTR.norm>
0.00232424

>  <SCORE.SYSTEM>
0

>  <SCORE.SYSTEM.CONST>
0

>  <SCORE.SYSTEM.DIHEDRAL>
0

>  <SCORE.SYSTEM.SOLV>
0

>  <SCORE.SYSTEM.norm>
0

>  <SCORE.heavy>
24

>  <SCORE.norm>
-1.45077

>  <RMSD>
0.535

$$$$
ligand
 OpenBabel11021811493D
libRbt.so/2013.1/901 2013/11/27
 24 26  0  0  0  0  0  0  0  0999 V2000
    6.8624  -11.0041   -9.8674 N   0  0  0  0  0  0  0  0  0  0  0  0
    8.0928  -11.6499   -9.4393 C   0  0  0  0  0  0  0  0  0  0  0  0
   13.4461   -7.0182  -12.8429 O   0  0  0  0  0  0  0  0  0  0  0  0
   12.2608   -6.3603  -12.5430 C   0  0  0  0  0  0  0  0  0  0  0  0
    8.5159   -4.4911  -11.6824 N   0  0  0  0  0  0  0  0  0  0  0  0
   12.2205   -4.8676  -12.3504 C   0  0  0  0  0  0  0  0  0  0  0  0
    8.4838   -6.7226  -11.9373 N   0  0  0  0  0  0  0  0  0  0  0  0
   11.0063   -4.1618  -12.0681 C   0  0  0  0  0  0  0  0  0  0  0  0
    6.3006   -5.6048  -11.4267 N   0  0  0  0  0  0  0  0  0  0  0  0
    9.8095   -4.9551  -11.9595 C   0  0  0  0  0  0  0  0  0  0  0  0
   12.8759  -11.5866  -12.7504 N   0  0  0  0  0  0  0  0  0  0  0  0
    9.8365   -6.3836  -12.1260 C   0  0  0  0  0  0  0  0  0  0  0  0
   11.1196   -7.0741  -12.4301 C   0  0  0  0  0  0  0  0  0  0  0  0
    7.7125   -5.5942  -11.6798 C   0  0  0  0  0  0  0  0  0  0  0  0
   11.1265   -8.5805  -12.6119 C   0  0  0  0  0  0  0  0  0  0  0  0
   12.5101   -9.2174  -12.6851 C   0  0  1  0  0  0  0  0  0  0  0  0
   13.6047   -8.2724  -12.2791 C   0  0  0  0  0  0  0  0  0  0  0  0
   12.5415  -10.4921  -11.8555 C   0  0  0  0  0  0  0  0  0  0  0  0
    7.9404   -8.0868  -12.0823 C   0  0  0  0  0  0  0  0  0  0  0  0
   14.3155  -11.8026  -12.6978 C   0  0  0  0  0  0  0  0  0  0  0  0
   12.1829  -12.7715  -12.2693 C   0  0  0  0  0  0  0  0  0  0  0  0
    7.8459   -8.9019  -10.7810 C   0  0  0  0  0  0  0  0  0  0  0  0
    7.0985  -10.2141  -11.0841 C   0  0  0  0  0  0  0  0  0  0  0  0
    5.8623  -12.0410  -10.0955 C   0  0  0  0  0  0  0  0  0  0  0  0
  1 23  1  0  0  0  0
  1 24  1  0  0  0  0
  1  2  1  0  0  0  0
  3  4  1  0  0  0  0
  3 17  1  0  0  0  0
  4  6  2  0  0  0  0
  4 13  1  0  0  0  0
  5 10  1  0  0  0  0
  5 14  2  0  0  0  0
  6  8  1  0  0  0  0
  7 12  1  0  0  0  0
  7 14  1  0  0  0  0
  7 19  1  0  0  0  0
  8 10  2  0  0  0  0
  9 14  1  0  0  0  0
 10 12  1  0  0  0  0
 11 18  1  0  0  0  0
 11 20  1  0  0  0  0
 11 21  1  0  0  0  0
 12 13  2  0  0  0  0
 13 15  1  0  0  0  0
 15 16  1  0  0  0  0
 16 17  1  0  0  0  0
 16 18  1  1  0  0  0
 19 22  1  0  0  0  0
 22 23  1  0  0  0  0
M  END
>  <CHROM.1>
-75.39844433,94.46823670,94.38556643,120.16111040,172.82967737,-175.11910133
10.14344657,-8.39346419,-11.79437303,2.54966631,0.28921573,-0.13195803

>  <Name>
ligand

>  <RI>
0

>  <Rbt.Current_Directory>
/home/itssahil/PROJECTS/Mol_Feturizer/New_Systems/rnas/3TZR

>  <Rbt.Executable>
rbdock ($Id: //depot/dev/client3/rdock/2013.1/src/exe/rbdock.cxx#4 $)

>  <Rbt.Library>
libRbt.so (2013.1, Build901 2013/11/27)

>  <Rbt.Parameter_File>
/export/apps/rDock/src/rDock_2013.1_src/data/scripts/dock_solv.prm

>  <Rbt.Receptor>
prm/pocket_docking_2.prm

>  <SCORE>
-33.3343

>  <SCORE.INTER>
-24.3666

>  <SCORE.INTER.CONST>
1

>  <SCORE.INTER.POLAR>
0

>  <SCORE.INTER.ROT>
6

>  <SCORE.INTER.SOLV>
20.7389

>  <SCORE.INTER.VDW>
-30.7573

>  <SCORE.INTER.norm>
-1.01527

>  <SCORE.INTRA>
-9.11236

>  <SCORE.INTRA.DIHEDRAL>
3.67315

>  <SCORE.INTRA.DIHEDRAL.0>
4.94008

>  <SCORE.INTRA.POLAR>
0

>  <SCORE.INTRA.POLAR.0>
0

>  <SCORE.INTRA.REPUL>
0

>  <SCORE.INTRA.REPUL.0>
0

>  <SCORE.INTRA.SOLV>
-0.0708794

>  <SCORE.INTRA.SOLV.lig_0>
-31.4704

>  <SCORE.INTRA.VDW>
-10.9135

>  <SCORE.INTRA.VDW.0>
10.2807

>  <SCORE.INTRA.norm>
-0.379682

>  <SCORE.RESTR>
0.144635

>  <SCORE.RESTR.CAVITY>
0.144635

>  <SCORE.RESTR.norm>
0.00602644

>  <SCORE.SYSTEM>
0

>  <SCORE.SYSTEM.CONST>
0

>  <SCORE.SYSTEM.DIHEDRAL>
0

>  <SCORE.SYSTEM.SOLV>
0

>  <SCORE.SYSTEM.norm>
0

>  <SCORE.heavy>
24

>  <SCORE.norm>
-1.38893

>  <RMSD>
0.538

$$$$
ligand
 OpenBabel11021811493D
libRbt.so/2013.1/901 2013/11/27
 24 26  0  0  0  0  0  0  0  0999 V2000
    6.9230  -10.7645  -10.0352 N   0  0  0  0  0  0  0  0  0  0  0  0
    8.1275  -11.4226   -9.5552 C   0  0  0  0  0  0  0  0  0  0  0  0
   13.5938   -7.3656  -12.7017 O   0  0  0  0  0  0  0  0  0  0  0  0
   12.4733   -6.5740  -12.4880 C   0  0  0  0  0  0  0  0  0  0  0  0
    8.9149   -4.2843  -11.8930 N   0  0  0  0  0  0  0  0  0  0  0  0
   12.5860   -5.0796  -12.3427 C   0  0  0  0  0  0  0  0  0  0  0  0
    8.6529   -6.5072  -12.0824 N   0  0  0  0  0  0  0  0  0  0  0  0
   11.4429   -4.2381  -12.1495 C   0  0  0  0  0  0  0  0  0  0  0  0
    6.5810   -5.1441  -11.7275 N   0  0  0  0  0  0  0  0  0  0  0  0
   10.1628   -4.8941  -12.0839 C   0  0  0  0  0  0  0  0  0  0  0  0
   13.3096  -11.6179  -12.0502 N   0  0  0  0  0  0  0  0  0  0  0  0
   10.0425   -6.3222  -12.2058 C   0  0  0  0  0  0  0  0  0  0  0  0
   11.2568   -7.1568  -12.4173 C   0  0  0  0  0  0  0  0  0  0  0  0
    7.9970   -5.2941  -11.9020 C   0  0  0  0  0  0  0  0  0  0  0  0
   11.1088   -8.6608  -12.5532 C   0  0  0  0  0  0  0  0  0  0  0  0
   12.4167   -9.4446  -12.5304 C   0  0  1  0  0  0  0  0  0  0  0  0
   13.5852   -8.6085  -12.0927 C   0  0  0  0  0  0  0  0  0  0  0  0
   12.2658  -10.6848  -11.6625 C   0  0  0  0  0  0  0  0  0  0  0  0
    7.9723   -7.8096  -12.2164 C   0  0  0  0  0  0  0  0  0  0  0  0
   13.5184  -12.5574  -10.9567 C   0  0  0  0  0  0  0  0  0  0  0  0
   12.8426  -12.3309  -13.2288 C   0  0  0  0  0  0  0  0  0  0  0  0
    7.7455   -8.5748  -10.9012 C   0  0  0  0  0  0  0  0  0  0  0  0
    7.2179   -9.9808  -11.2432 C   0  0  0  0  0  0  0  0  0  0  0  0
    5.9216  -11.7909  -10.3017 C   0  0  0  0  0  0  0  0  0  0  0  0
  1 23  1  0  0  0  0
  1 24  1  0  0  0  0
  1  2  1  0  0  0  0
  3  4  1  0  0  0  0
  3 17  1  0  0  0  0
  4  6  2  0  0  0  0
  4 13  1  0  0  0  0
  5 10  1  0  0  0  0
  5 14  2  0  0  0  0
  6  8  1  0  0  0  0
  7 12  1  0  0  0  0
  7 14  1  0  0  0  0
  7 19  1  0  0  0  0
  8 10  2  0  0  0  0
  9 14  1  0  0  0  0
 10 12  1  0  0  0  0
 11 18  1  0  0  0  0
 11 20  1  0  0  0  0
 11 21  1  0  0  0  0
 12 13  2  0  0  0  0
 13 15  1  0  0  0  0
 15 16  1  0  0  0  0
 16 17  1  0  0  0  0
 16 18  1  1  0  0  0
 19 22  1  0  0  0  0
 22 23  1  0  0  0  0
M  END
>  <CHROM.1>
-85.17878321,93.37688892,159.01833968,159.52438680,-171.93434949,-177.75414567
10.26437516,-8.36145525,-11.78033051,0.99817590,-0.23200892,2.97574809

>  <Name>
ligand

>  <RI>
0

>  <Rbt.Current_Directory>
/home/itssahil/PROJECTS/Mol_Feturizer/New_Systems/rnas/3TZR

>  <Rbt.Executable>
rbdock ($Id: //depot/dev/client3/rdock/2013.1/src/exe/rbdock.cxx#4 $)

>  <Rbt.Library>
libRbt.so (2013.1, Build901 2013/11/27)

>  <Rbt.Parameter_File>
/export/apps/rDock/src/rDock_2013.1_src/data/scripts/dock_solv.prm

>  <Rbt.Receptor>
prm/pocket_docking_2.prm

>  <SCORE>
-34.6129

>  <SCORE.INTER>
-23.6573

>  <SCORE.INTER.CONST>
1

>  <SCORE.INTER.POLAR>
0

>  <SCORE.INTER.ROT>
6

>  <SCORE.INTER.SOLV>
21.5905

>  <SCORE.INTER.VDW>
-30.5684

>  <SCORE.INTER.norm>
-0.985722

>  <SCORE.INTRA>
-10.9588

>  <SCORE.INTRA.DIHEDRAL>
-0.307946

>  <SCORE.INTRA.DIHEDRAL.0>
4.94008

>  <SCORE.INTRA.POLAR>
0

>  <SCORE.INTRA.POLAR.0>
0

>  <SCORE.INTRA.REPUL>
0

>  <SCORE.INTRA.REPUL.0>
0

>  <SCORE.INTRA.SOLV>
-0.0589676

>  <SCORE.INTRA.SOLV.lig_0>
-31.4704

>  <SCORE.INTRA.VDW>
-10.7753

>  <SCORE.INTRA.VDW.0>
10.2807

>  <SCORE.INTRA.norm>
-0.456616

>  <SCORE.RESTR>
0.00325516

>  <SCORE.RESTR.CAVITY>
0.00325516

>  <SCORE.RESTR.norm>
0.000135632

>  <SCORE.SYSTEM>
0

>  <SCORE.SYSTEM.CONST>
0

>  <SCORE.SYSTEM.DIHEDRAL>
0

>  <SCORE.SYSTEM.SOLV>
0

>  <SCORE.SYSTEM.norm>
0

>  <SCORE.heavy>
24

>  <SCORE.norm>
-1.4422

>  <RMSD>
0.573

$$$$
ligand
 OpenBabel11021811493D
libRbt.so/2013.1/901 2013/11/27
 24 26  0  0  0  0  0  0  0  0999 V2000
    7.2733  -11.0688   -9.6848 N   0  0  0  0  0  0  0  0  0  0  0  0
    8.5382  -11.7504   -9.4612 C   0  0  0  0  0  0  0  0  0  0  0  0
   13.3720   -6.5188  -12.8000 O   0  0  0  0  0  0  0  0  0  0  0  0
   12.1258   -5.9727  -12.5236 C   0  0  0  0  0  0  0  0  0  0  0  0
    8.2098   -4.4588  -11.7288 N   0  0  0  0  0  0  0  0  0  0  0  0
   11.9344   -4.4852  -12.3910 C   0  0  0  0  0  0  0  0  0  0  0  0
    8.4040   -6.6905  -11.8938 N   0  0  0  0  0  0  0  0  0  0  0  0
   10.6546   -3.8951  -12.1340 C   0  0  0  0  0  0  0  0  0  0  0  0
    6.1182   -5.7796  -11.4226 N   0  0  0  0  0  0  0  0  0  0  0  0
    9.5441   -4.8003  -11.9905 C   0  0  0  0  0  0  0  0  0  0  0  0
   13.0029  -11.1673  -12.5493 N   0  0  0  0  0  0  0  0  0  0  0  0
    9.7157   -6.2243  -12.0996 C   0  0  0  0  0  0  0  0  0  0  0  0
   11.0626   -6.7932  -12.3791 C   0  0  0  0  0  0  0  0  0  0  0  0
    7.5221   -5.6364  -11.6797 C   0  0  0  0  0  0  0  0  0  0  0  0
   11.2221   -8.2972  -12.5003 C   0  0  0  0  0  0  0  0  0  0  0  0
   12.6631   -8.7933  -12.5516 C   0  0  1  0  0  0  0  0  0  0  0  0
   13.6559   -7.7268  -12.1867 C   0  0  0  0  0  0  0  0  0  0  0  0
   12.8222  -10.0238  -11.6715 C   0  0  0  0  0  0  0  0  0  0  0  0
    8.0016   -8.1074  -11.9824 C   0  0  0  0  0  0  0  0  0  0  0  0
   14.4245  -11.3125  -12.8315 C   0  0  0  0  0  0  0  0  0  0  0  0
   12.5195  -12.3423  -11.8414 C   0  0  0  0  0  0  0  0  0  0  0  0
    7.8512   -8.8368  -10.6362 C   0  0  0  0  0  0  0  0  0  0  0  0
    7.3390  -10.2629  -10.9122 C   0  0  0  0  0  0  0  0  0  0  0  0
    6.2239  -12.0782   -9.7701 C   0  0  0  0  0  0  0  0  0  0  0  0
  1 23  1  0  0  0  0
  1 24  1  0  0  0  0
  1  2  1  0  0  0  0
  3  4  1  0  0  0  0
  3 17  1  0  0  0  0
  4  6  2  0  0  0  0
  4 13  1  0  0  0  0
  5 10  1  0  0  0  0
  5 14  2  0  0  0  0
  6  8  1  0  0  0  0
  7 12  1  0  0  0  0
  7 14  1  0  0  0  0
  7 19  1  0  0  0  0
  8 10  2  0  0  0  0
  9 14  1  0  0  0  0
 10 12  1  0  0  0  0
 11 18  1  0  0  0  0
 11 20  1  0  0  0  0
 11 21  1  0  0  0  0
 12 13  2  0  0  0  0
 13 15  1  0  0  0  0
 15 16  1  0  0  0  0
 16 17  1  0  0  0  0
 16 18  1  1  0  0  0
 19 22  1  0  0  0  0
 22 23  1  0  0  0  0
M  END
>  <CHROM.1>
-89.20801927,100.36332736,88.44721203,108.95727249,176.24572439,175.24064971
10.18199051,-8.19215934,-11.71008133,0.88443527,-0.28073690,2.95439584

>  <Name>
ligand

>  <RI>
0

>  <Rbt.Current_Directory>
/home/itssahil/PROJECTS/Mol_Feturizer/New_Systems/rnas/3TZR

>  <Rbt.Executable>
rbdock ($Id: //depot/dev/client3/rdock/2013.1/src/exe/rbdock.cxx#4 $)

>  <Rbt.Library>
libRbt.so (2013.1, Build901 2013/11/27)

>  <Rbt.Parameter_File>
/export/apps/rDock/src/rDock_2013.1_src/data/scripts/dock_solv.prm

>  <Rbt.Receptor>
prm/pocket_docking_4.prm

>  <SCORE>
-35.0676

>  <SCORE.INTER>
-25.5282

>  <SCORE.INTER.CONST>
1

>  <SCORE.INTER.POLAR>
0

>  <SCORE.INTER.ROT>
6

>  <SCORE.INTER.SOLV>
20.1843

>  <SCORE.INTER.VDW>
-31.3469

>  <SCORE.INTER.norm>
-1.06367

>  <SCORE.INTRA>
-9.53942

>  <SCORE.INTRA.DIHEDRAL>
3.49202

>  <SCORE.INTRA.DIHEDRAL.0>
4.94008

>  <SCORE.INTRA.POLAR>
0

>  <SCORE.INTRA.POLAR.0>
0

>  <SCORE.INTRA.REPUL>
0

>  <SCORE.INTRA.REPUL.0>
0

>  <SCORE.INTRA.SOLV>
0.0498264

>  <SCORE.INTRA.SOLV.lig_0>
-31.4704

>  <SCORE.INTRA.VDW>
-11.3103

>  <SCORE.INTRA.VDW.0>
10.2807

>  <SCORE.INTRA.norm>
-0.397476

>  <SCORE.RESTR>
0

>  <SCORE.RESTR.CAVITY>
0

>  <SCORE.RESTR.norm>
0

>  <SCORE.SYSTEM>
0

>  <SCORE.SYSTEM.CONST>
0

>  <SCORE.SYSTEM.DIHEDRAL>
0

>  <SCORE.SYSTEM.SOLV>
0

>  <SCORE.SYSTEM.norm>
0

>  <SCORE.heavy>
24

>  <SCORE.norm>
-1.46115

>  <RMSD>
0.584

$$$$
ligand
 OpenBabel11021811493D
libRbt.so/2013.1/901 2013/11/27
 24 26  0  0  0  0  0  0  0  0999 V2000
    7.1283  -10.8695   -9.9957 N   0  0  0  0  0  0  0  0  0  0  0  0
    8.3303  -11.6000   -9.6271 C   0  0  0  0  0  0  0  0  0  0  0  0
   13.5894   -7.3945  -12.7332 O   0  0  0  0  0  0  0  0  0  0  0  0
   12.4774   -6.5988  -12.4919 C   0  0  0  0  0  0  0  0  0  0  0  0
    8.9432   -4.2961  -11.8098 N   0  0  0  0  0  0  0  0  0  0  0  0
   12.5995   -5.1052  -12.3465 C   0  0  0  0  0  0  0  0  0  0  0  0
    8.6678   -6.5175  -11.9971 N   0  0  0  0  0  0  0  0  0  0  0  0
   11.4647   -4.2595  -12.1251 C   0  0  0  0  0  0  0  0  0  0  0  0
    6.6104   -5.1468  -11.5914 N   0  0  0  0  0  0  0  0  0  0  0  0
   10.1838   -4.9104  -12.0308 C   0  0  0  0  0  0  0  0  0  0  0  0
   13.3218  -11.6349  -12.0629 N   0  0  0  0  0  0  0  0  0  0  0  0
   10.0549   -6.3379  -12.1525 C   0  0  0  0  0  0  0  0  0  0  0  0
   11.2605   -7.1769  -12.3939 C   0  0  0  0  0  0  0  0  0  0  0  0
    8.0212   -5.3021  -11.7991 C   0  0  0  0  0  0  0  0  0  0  0  0
   11.1033   -8.6800  -12.5291 C   0  0  0  0  0  0  0  0  0  0  0  0
   12.4082   -9.4691  -12.5382 C   0  0  1  0  0  0  0  0  0  0  0  0
   13.5899   -8.6385  -12.1264 C   0  0  0  0  0  0  0  0  0  0  0  0
   12.2725  -10.7103  -11.6693 C   0  0  0  0  0  0  0  0  0  0  0  0
    7.9790   -7.8168  -12.1175 C   0  0  0  0  0  0  0  0  0  0  0  0
   13.5817  -12.5389  -10.9507 C   0  0  0  0  0  0  0  0  0  0  0  0
   12.8329  -12.3896  -13.2062 C   0  0  0  0  0  0  0  0  0  0  0  0
    7.9649   -8.6777  -10.8426 C   0  0  0  0  0  0  0  0  0  0  0  0
    7.3743  -10.0559  -11.1948 C   0  0  0  0  0  0  0  0  0  0  0  0
    6.0616  -11.8380  -10.2230 C   0  0  0  0  0  0  0  0  0  0  0  0
  1 23  1  0  0  0  0
  1 24  1  0  0  0  0
  1  2  1  0  0  0  0
  3  4  1  0  0  0  0
  3 17  1  0  0  0  0
  4  6  2  0  0  0  0
  4 13  1  0  0  0  0
  5 10  1  0  0  0  0
  5 14  2  0  0  0  0
  6  8  1  0  0  0  0
  7 12  1  0  0  0  0
  7 14  1  0  0  0  0
  7 19  1  0  0  0  0
  8 10  2  0  0  0  0
  9 14  1  0  0  0  0
 10 12  1  0  0  0  0
 11 18  1  0  0  0  0
 11 20  1  0  0  0  0
 11 21  1  0  0  0  0
 12 13  2  0  0  0  0
 13 15  1  0  0  0  0
 15 16  1  0  0  0  0
 16 17  1  0  0  0  0
 16 18  1  1  0  0  0
 19 22  1  0  0  0  0
 22 23  1  0  0  0  0
M  END
>  <CHROM.1>
-86.40061819,84.62171378,156.78961333,160.75889489,-172.80284256,-171.06331525
10.31477590,-8.39825092,-11.74909128,1.08834394,-0.24490148,2.97997257

>  <Name>
ligand

>  <RI>
0

>  <Rbt.Current_Directory>
/home/itssahil/PROJECTS/Mol_Feturizer/New_Systems/rnas/3TZR

>  <Rbt.Executable>
rbdock ($Id: //depot/dev/client3/rdock/2013.1/src/exe/rbdock.cxx#4 $)

>  <Rbt.Library>
libRbt.so (2013.1, Build901 2013/11/27)

>  <Rbt.Parameter_File>
/export/apps/rDock/src/rDock_2013.1_src/data/scripts/dock_solv.prm

>  <Rbt.Receptor>
prm/pocket_docking_2.prm

>  <SCORE>
-34.5669

>  <SCORE.INTER>
-23.4803

>  <SCORE.INTER.CONST>
1

>  <SCORE.INTER.POLAR>
0

>  <SCORE.INTER.ROT>
6

>  <SCORE.INTER.SOLV>
21.22

>  <SCORE.INTER.VDW>
-30.3268

>  <SCORE.INTER.norm>
-0.978344

>  <SCORE.INTRA>
-11.1079

>  <SCORE.INTRA.DIHEDRAL>
-0.0279484

>  <SCORE.INTRA.DIHEDRAL.0>
4.94008

>  <SCORE.INTRA.POLAR>
0

>  <SCORE.INTRA.POLAR.0>
0

>  <SCORE.INTRA.REPUL>
0

>  <SCORE.INTRA.REPUL.0>
0

>  <SCORE.INTRA.SOLV>
-0.20869

>  <SCORE.INTRA.SOLV.lig_0>
-31.4704

>  <SCORE.INTRA.VDW>
-10.9896

>  <SCORE.INTRA.VDW.0>
10.2807

>  <SCORE.INTRA.norm>
-0.46283

>  <SCORE.RESTR>
0.0212536

>  <SCORE.RESTR.CAVITY>
0.0212536

>  <SCORE.RESTR.norm>
0.000885568

>  <SCORE.SYSTEM>
0

>  <SCORE.SYSTEM.CONST>
0

>  <SCORE.SYSTEM.DIHEDRAL>
0

>  <SCORE.SYSTEM.SOLV>
0

>  <SCORE.SYSTEM.norm>
0

>  <SCORE.heavy>
24

>  <SCORE.norm>
-1.44029

>  <RMSD>
0.594

$$$$
ligand
 OpenBabel11021811493D
libRbt.so/2013.1/901 2013/11/27
 24 26  0  0  0  0  0  0  0  0999 V2000
    6.5823  -10.7068  -10.1920 N   0  0  0  0  0  0  0  0  0  0  0  0
    7.6802  -11.4815   -9.6364 C   0  0  0  0  0  0  0  0  0  0  0  0
   13.5994   -7.3693  -12.6527 O   0  0  0  0  0  0  0  0  0  0  0  0
   12.4685   -6.5880  -12.4562 C   0  0  0  0  0  0  0  0  0  0  0  0
    8.8808   -4.3299  -11.9194 N   0  0  0  0  0  0  0  0  0  0  0  0
   12.5675   -5.0954  -12.2854 C   0  0  0  0  0  0  0  0  0  0  0  0
    8.6385   -6.5512  -12.1491 N   0  0  0  0  0  0  0  0  0  0  0  0
   11.4144   -4.2640  -12.1093 C   0  0  0  0  0  0  0  0  0  0  0  0
    6.5492   -5.2065  -11.8276 N   0  0  0  0  0  0  0  0  0  0  0  0
   10.1372   -4.9289  -12.0869 C   0  0  0  0  0  0  0  0  0  0  0  0
   13.3512  -11.6157  -12.0430 N   0  0  0  0  0  0  0  0  0  0  0  0
   10.0296   -6.3557  -12.2335 C   0  0  0  0  0  0  0  0  0  0  0  0
   11.2544   -7.1794  -12.4260 C   0  0  0  0  0  0  0  0  0  0  0  0
    7.9701   -5.3450  -11.9675 C   0  0  0  0  0  0  0  0  0  0  0  0
   11.1200   -8.6820  -12.5885 C   0  0  0  0  0  0  0  0  0  0  0  0
   12.4320   -9.4579  -12.5436 C   0  0  1  0  0  0  0  0  0  0  0  0
   13.5831   -8.6214  -12.0630 C   0  0  0  0  0  0  0  0  0  0  0  0
   12.2668  -10.7122  -11.6988 C   0  0  0  0  0  0  0  0  0  0  0  0
    7.9702   -7.8555  -12.3205 C   0  0  0  0  0  0  0  0  0  0  0  0
   13.5816  -12.5105  -10.9169 C   0  0  0  0  0  0  0  0  0  0  0  0
   12.9281  -12.3841  -13.2032 C   0  0  0  0  0  0  0  0  0  0  0  0
    7.6041   -8.5864  -11.0172 C   0  0  0  0  0  0  0  0  0  0  0  0
    7.0305   -9.9687  -11.3814 C   0  0  0  0  0  0  0  0  0  0  0  0
    5.4981  -11.6266  -10.5175 C   0  0  0  0  0  0  0  0  0  0  0  0
  1 23  1  0  0  0  0
  1 24  1  0  0  0  0
  1  2  1  0  0  0  0
  3  4  1  0  0  0  0
  3 17  1  0  0  0  0
  4  6  2  0  0  0  0
  4 13  1  0  0  0  0
  5 10  1  0  0  0  0
  5 14  2  0  0  0  0
  6  8  1  0  0  0  0
  7 12  1  0  0  0  0
  7 14  1  0  0  0  0
  7 19  1  0  0  0  0
  8 10  2  0  0  0  0
  9 14  1  0  0  0  0
 10 12  1  0  0  0  0
 11 18  1  0  0  0  0
 11 20  1  0  0  0  0
 11 21  1  0  0  0  0
 12 13  2  0  0  0  0
 13 15  1  0  0  0  0
 15 16  1  0  0  0  0
 16 17  1  0  0  0  0
 16 18  1  1  0  0  0
 19 22  1  0  0  0  0
 22 23  1  0  0  0  0
M  END
>  <CHROM.1>
-88.51219903,98.48486962,155.53815907,161.28951234,-175.25845184,-176.76173110
10.19774721,-8.37338763,-11.82000890,2.45796356,0.20251953,-0.15345076

>  <Name>
ligand

>  <RI>
0

>  <Rbt.Current_Directory>
/home/itssahil/PROJECTS/Mol_Feturizer/New_Systems/rnas/3TZR

>  <Rbt.Executable>
rbdock ($Id: //depot/dev/client3/rdock/2013.1/src/exe/rbdock.cxx#4 $)

>  <Rbt.Library>
libRbt.so (2013.1, Build901 2013/11/27)

>  <Rbt.Parameter_File>
/export/apps/rDock/src/rDock_2013.1_src/data/scripts/dock_solv.prm

>  <Rbt.Receptor>
prm/pocket_docking_2.prm

>  <SCORE>
-34.3359

>  <SCORE.INTER>
-23.2997

>  <SCORE.INTER.CONST>
1

>  <SCORE.INTER.POLAR>
0

>  <SCORE.INTER.ROT>
6

>  <SCORE.INTER.SOLV>
21.8348

>  <SCORE.INTER.VDW>
-30.4114

>  <SCORE.INTER.norm>
-0.970822

>  <SCORE.INTRA>
-11.0362

>  <SCORE.INTRA.DIHEDRAL>
-0.244686

>  <SCORE.INTRA.DIHEDRAL.0>
4.94008

>  <SCORE.INTRA.POLAR>
0

>  <SCORE.INTRA.POLAR.0>
0

>  <SCORE.INTRA.REPUL>
0

>  <SCORE.INTRA.REPUL.0>
0

>  <SCORE.INTRA.SOLV>
0.0416641

>  <SCORE.INTRA.SOLV.lig_0>
-31.4704

>  <SCORE.INTRA.VDW>
-10.9347

>  <SCORE.INTRA.VDW.0>
10.2807

>  <SCORE.INTRA.norm>
-0.459841

>  <SCORE.RESTR>
0

>  <SCORE.RESTR.CAVITY>
0

>  <SCORE.RESTR.norm>
0

>  <SCORE.SYSTEM>
0

>  <SCORE.SYSTEM.CONST>
0

>  <SCORE.SYSTEM.DIHEDRAL>
0

>  <SCORE.SYSTEM.SOLV>
0

>  <SCORE.SYSTEM.norm>
0

>  <SCORE.heavy>
24

>  <SCORE.norm>
-1.43066

>  <RMSD>
0.602

$$$$
ligand
 OpenBabel11021811493D
libRbt.so/2013.1/901 2013/11/27
 24 26  0  0  0  0  0  0  0  0999 V2000
    7.0180  -10.7884  -10.0462 N   0  0  0  0  0  0  0  0  0  0  0  0
    8.2276  -11.4789   -9.6286 C   0  0  0  0  0  0  0  0  0  0  0  0
   13.6044   -7.4035  -12.6867 O   0  0  0  0  0  0  0  0  0  0  0  0
   12.4939   -6.5980  -12.4730 C   0  0  0  0  0  0  0  0  0  0  0  0
    8.9643   -4.2643  -11.8773 N   0  0  0  0  0  0  0  0  0  0  0  0
   12.6246   -5.1045  -12.3333 C   0  0  0  0  0  0  0  0  0  0  0  0
    8.6756   -6.4845  -12.0581 N   0  0  0  0  0  0  0  0  0  0  0  0
   11.4921   -4.2488  -12.1402 C   0  0  0  0  0  0  0  0  0  0  0  0
    6.6209   -5.0958  -11.7029 N   0  0  0  0  0  0  0  0  0  0  0  0
   10.2044   -4.8894  -12.0691 C   0  0  0  0  0  0  0  0  0  0  0  0
   13.3156  -11.6198  -11.9685 N   0  0  0  0  0  0  0  0  0  0  0  0
   10.0670   -6.3165  -12.1856 C   0  0  0  0  0  0  0  0  0  0  0  0
   11.2707   -7.1661  -12.3972 C   0  0  0  0  0  0  0  0  0  0  0  0
    8.0345   -5.2631  -11.8804 C   0  0  0  0  0  0  0  0  0  0  0  0
   11.1046   -8.6686  -12.5274 C   0  0  0  0  0  0  0  0  0  0  0  0
   12.4032   -9.4678  -12.5050 C   0  0  1  0  0  0  0  0  0  0  0  0
   13.5826   -8.6441  -12.0732 C   0  0  0  0  0  0  0  0  0  0  0  0
   12.2398  -10.7030  -11.6323 C   0  0  0  0  0  0  0  0  0  0  0  0
    7.9793   -7.7792  -12.1858 C   0  0  0  0  0  0  0  0  0  0  0  0
   13.5203  -12.5234  -10.8444 C   0  0  0  0  0  0  0  0  0  0  0  0
   12.8956  -12.3764  -13.1375 C   0  0  0  0  0  0  0  0  0  0  0  0
    7.9202   -8.6268  -10.9032 C   0  0  0  0  0  0  0  0  0  0  0  0
    7.2797   -9.9843  -11.2484 C   0  0  0  0  0  0  0  0  0  0  0  0
    5.9872  -11.7902  -10.2937 C   0  0  0  0  0  0  0  0  0  0  0  0
  1 23  1  0  0  0  0
  1 24  1  0  0  0  0
  1  2  1  0  0  0  0
  3  4  1  0  0  0  0
  3 17  1  0  0  0  0
  4  6  2  0  0  0  0
  4 13  1  0  0  0  0
  5 10  1  0  0  0  0
  5 14  2  0  0  0  0
  6  8  1  0  0  0  0
  7 12  1  0  0  0  0
  7 14  1  0  0  0  0
  7 19  1  0  0  0  0
  8 10  2  0  0  0  0
  9 14  1  0  0  0  0
 10 12  1  0  0  0  0
 11 18  1  0  0  0  0
 11 20  1  0  0  0  0
 11 21  1  0  0  0  0
 12 13  2  0  0  0  0
 13 15  1  0  0  0  0
 15 16  1  0  0  0  0
 16 17  1  0  0  0  0
 16 18  1  1  0  0  0
 19 22  1  0  0  0  0
 22 23  1  0  0  0  0
M  END
>  <CHROM.1>
-82.00966205,85.18071613,157.55194991,162.56923213,-174.88795283,-172.28685892
10.30089645,-8.36924387,-11.75816652,1.06476381,-0.22632689,2.97332416

>  <Name>
ligand

>  <RI>
0

>  <Rbt.Current_Directory>
/home/itssahil/PROJECTS/Mol_Feturizer/New_Systems/rnas/3TZR

>  <Rbt.Executable>
rbdock ($Id: //depot/dev/client3/rdock/2013.1/src/exe/rbdock.cxx#4 $)

>  <Rbt.Library>
libRbt.so (2013.1, Build901 2013/11/27)

>  <Rbt.Parameter_File>
/export/apps/rDock/src/rDock_2013.1_src/data/scripts/dock_solv.prm

>  <Rbt.Receptor>
prm/pocket_docking_2.prm

>  <SCORE>
-34.5763

>  <SCORE.INTER>
-23.3869

>  <SCORE.INTER.CONST>
1

>  <SCORE.INTER.POLAR>
0

>  <SCORE.INTER.ROT>
6

>  <SCORE.INTER.SOLV>
21.5179

>  <SCORE.INTER.VDW>
-30.3639

>  <SCORE.INTER.norm>
-0.974456

>  <SCORE.INTRA>
-11.1954

>  <SCORE.INTRA.DIHEDRAL>
-0.704937

>  <SCORE.INTRA.DIHEDRAL.0>
4.94008

>  <SCORE.INTRA.POLAR>
0

>  <SCORE.INTRA.POLAR.0>
0

>  <SCORE.INTRA.REPUL>
0

>  <SCORE.INTRA.REPUL.0>
0

>  <SCORE.INTRA.SOLV>
-0.193552

>  <SCORE.INTRA.SOLV.lig_0>
-31.4704

>  <SCORE.INTRA.VDW>
-10.7462

>  <SCORE.INTRA.VDW.0>
10.2807

>  <SCORE.INTRA.norm>
-0.466475

>  <SCORE.RESTR>
0.00599121

>  <SCORE.RESTR.CAVITY>
0.00599121

>  <SCORE.RESTR.norm>
0.000249634

>  <SCORE.SYSTEM>
0

>  <SCORE.SYSTEM.CONST>
0

>  <SCORE.SYSTEM.DIHEDRAL>
0

>  <SCORE.SYSTEM.SOLV>
0

>  <SCORE.SYSTEM.norm>
0

>  <SCORE.heavy>
24

>  <SCORE.norm>
-1.44068

>  <RMSD>
0.605

$$$$
ligand
 OpenBabel11021811493D
libRbt.so/2013.1/901 2013/11/27
 24 26  0  0  0  0  0  0  0  0999 V2000
    6.8107  -10.9719   -9.8316 N   0  0  0  0  0  0  0  0  0  0  0  0
    7.9558  -11.5431   -9.1410 C   0  0  0  0  0  0  0  0  0  0  0  0
   13.4238   -6.3824  -12.7901 O   0  0  0  0  0  0  0  0  0  0  0  0
   12.1418   -5.8904  -12.5849 C   0  0  0  0  0  0  0  0  0  0  0  0
    8.1263   -4.5489  -12.0059 N   0  0  0  0  0  0  0  0  0  0  0  0
   11.8722   -4.4107  -12.5164 C   0  0  0  0  0  0  0  0  0  0  0  0
    8.4364   -6.7724  -12.0786 N   0  0  0  0  0  0  0  0  0  0  0  0
   10.5554   -3.8772  -12.3335 C   0  0  0  0  0  0  0  0  0  0  0  0
    6.0909   -5.9620  -11.7344 N   0  0  0  0  0  0  0  0  0  0  0  0
    9.4855   -4.8318  -12.2007 C   0  0  0  0  0  0  0  0  0  0  0  0
   12.3695  -11.0160  -12.1826 N   0  0  0  0  0  0  0  0  0  0  0  0
    9.7312   -6.2482  -12.2489 C   0  0  0  0  0  0  0  0  0  0  0  0
   11.1149   -6.7579  -12.4524 C   0  0  0  0  0  0  0  0  0  0  0  0
    7.4957   -5.7573  -11.9401 C   0  0  0  0  0  0  0  0  0  0  0  0
   11.3528   -8.2553  -12.5101 C   0  0  0  0  0  0  0  0  0  0  0  0
   12.8174   -8.6794  -12.4847 C   0  0  1  0  0  0  0  0  0  0  0  0
   13.7404   -7.5519  -12.1207 C   0  0  0  0  0  0  0  0  0  0  0  0
   12.9994   -9.8682  -11.5530 C   0  0  0  0  0  0  0  0  0  0  0  0
    8.1080   -8.2101  -12.1297 C   0  0  0  0  0  0  0  0  0  0  0  0
   13.3397  -11.6481  -13.0663 C   0  0  0  0  0  0  0  0  0  0  0  0
   11.9910  -11.9409  -11.1258 C   0  0  0  0  0  0  0  0  0  0  0  0
    7.6356   -8.8274  -10.8021 C   0  0  0  0  0  0  0  0  0  0  0  0
    7.2439  -10.2942  -11.0618 C   0  0  0  0  0  0  0  0  0  0  0  0
    5.8736  -12.0507  -10.1237 C   0  0  0  0  0  0  0  0  0  0  0  0
  1 23  1  0  0  0  0
  1 24  1  0  0  0  0
  1  2  1  0  0  0  0
  3  4  1  0  0  0  0
  3 17  1  0  0  0  0
  4  6  2  0  0  0  0
  4 13  1  0  0  0  0
  5 10  1  0  0  0  0
  5 14  2  0  0  0  0
  6  8  1  0  0  0  0
  7 12  1  0  0  0  0
  7 14  1  0  0  0  0
  7 19  1  0  0  0  0
  8 10  2  0  0  0  0
  9 14  1  0  0  0  0
 10 12  1  0  0  0  0
 11 18  1  0  0  0  0
 11 20  1  0  0  0  0
 11 21  1  0  0  0  0
 12 13  2  0  0  0  0
 13 15  1  0  0  0  0
 15 16  1  0  0  0  0
 16 17  1  0  0  0  0
 16 18  1  1  0  0  0
 19 22  1  0  0  0  0
 22 23  1  0  0  0  0
M  END
>  <CHROM.1>
-87.66540472,113.25231991,86.97022674,69.98854623,176.00517465,178.54904543
10.02561065,-8.15986328,-11.76200687,2.29024249,-0.23450774,2.93142297

>  <Name>
ligand

>  <RI>
0

>  <Rbt.Current_Directory>
/home/itssahil/PROJECTS/Mol_Feturizer/New_Systems/rnas/3TZR

>  <Rbt.Executable>
rbdock ($Id: //depot/dev/client3/rdock/2013.1/src/exe/rbdock.cxx#4 $)

>  <Rbt.Library>
libRbt.so (2013.1, Build901 2013/11/27)

>  <Rbt.Parameter_File>
/export/apps/rDock/src/rDock_2013.1_src/data/scripts/dock_solv.prm

>  <Rbt.Receptor>
prm/pocket_docking_7.prm

>  <SCORE>
-36.5296

>  <SCORE.INTER>
-25.1716

>  <SCORE.INTER.CONST>
1

>  <SCORE.INTER.POLAR>
0

>  <SCORE.INTER.ROT>
6

>  <SCORE.INTER.SOLV>
20.3306

>  <SCORE.INTER.VDW>
-31.1579

>  <SCORE.INTER.norm>
-1.04882

>  <SCORE.INTRA>
-11.358

>  <SCORE.INTRA.DIHEDRAL>
-1.18881

>  <SCORE.INTRA.DIHEDRAL.0>
4.94008

>  <SCORE.INTRA.POLAR>
0

>  <SCORE.INTRA.POLAR.0>
0

>  <SCORE.INTRA.REPUL>
0

>  <SCORE.INTRA.REPUL.0>
0

>  <SCORE.INTRA.SOLV>
0.465336

>  <SCORE.INTRA.SOLV.lig_0>
-31.4704

>  <SCORE.INTRA.VDW>
-10.9963

>  <SCORE.INTRA.VDW.0>
10.2807

>  <SCORE.INTRA.norm>
-0.473252

>  <SCORE.RESTR>
0

>  <SCORE.RESTR.CAVITY>
0

>  <SCORE.RESTR.norm>
0

>  <SCORE.SYSTEM>
0

>  <SCORE.SYSTEM.CONST>
0

>  <SCORE.SYSTEM.DIHEDRAL>
0

>  <SCORE.SYSTEM.SOLV>
0

>  <SCORE.SYSTEM.norm>
0

>  <SCORE.heavy>
24

>  <SCORE.norm>
-1.52207

>  <RMSD>
0.619

$$$$
ligand
 OpenBabel11021811493D
libRbt.so/2013.1/901 2013/11/27
 24 26  0  0  0  0  0  0  0  0999 V2000
    6.4052  -10.6693  -10.2298 N   0  0  0  0  0  0  0  0  0  0  0  0
    7.3561  -11.5953   -9.6361 C   0  0  0  0  0  0  0  0  0  0  0  0
   13.6057   -7.3738  -12.6061 O   0  0  0  0  0  0  0  0  0  0  0  0
   12.4699   -6.5991  -12.4125 C   0  0  0  0  0  0  0  0  0  0  0  0
    8.8682   -4.3610  -11.8858 N   0  0  0  0  0  0  0  0  0  0  0  0
   12.5607   -5.1069  -12.2332 C   0  0  0  0  0  0  0  0  0  0  0  0
    8.6380   -6.5822  -12.1288 N   0  0  0  0  0  0  0  0  0  0  0  0
   11.4025   -4.2820  -12.0598 C   0  0  0  0  0  0  0  0  0  0  0  0
    6.5403   -5.2493  -11.8130 N   0  0  0  0  0  0  0  0  0  0  0  0
   10.1285   -4.9530  -12.0487 C   0  0  0  0  0  0  0  0  0  0  0  0
   13.3511  -11.6407  -12.0493 N   0  0  0  0  0  0  0  0  0  0  0  0
   10.0287   -6.3796  -12.2036 C   0  0  0  0  0  0  0  0  0  0  0  0
   11.2586   -7.1964  -12.3929 C   0  0  0  0  0  0  0  0  0  0  0  0
    7.9627   -5.3802  -11.9449 C   0  0  0  0  0  0  0  0  0  0  0  0
   11.1323   -8.6987  -12.5641 C   0  0  0  0  0  0  0  0  0  0  0  0
   12.4478   -9.4686  -12.5152 C   0  0  1  0  0  0  0  0  0  0  0  0
   13.5919   -8.6291  -12.0231 C   0  0  0  0  0  0  0  0  0  0  0  0
   12.2835  -10.7281  -11.6781 C   0  0  0  0  0  0  0  0  0  0  0  0
    7.9771   -7.8888  -12.3112 C   0  0  0  0  0  0  0  0  0  0  0  0
   13.5664  -12.5712  -10.9495 C   0  0  0  0  0  0  0  0  0  0  0  0
   12.9132  -12.3682  -13.2303 C   0  0  0  0  0  0  0  0  0  0  0  0
    7.5991   -8.6246  -11.0141 C   0  0  0  0  0  0  0  0  0  0  0  0
    7.0065   -9.9957  -11.3897 C   0  0  0  0  0  0  0  0  0  0  0  0
    5.2173  -11.4238  -10.6133 C   0  0  0  0  0  0  0  0  0  0  0  0
  1 23  1  0  0  0  0
  1 24  1  0  0  0  0
  1  2  1  0  0  0  0
  3  4  1  0  0  0  0
  3 17  1  0  0  0  0
  4  6  2  0  0  0  0
  4 13  1  0  0  0  0
  5 10  1  0  0  0  0
  5 14  2  0  0  0  0
  6  8  1  0  0  0  0
  7 12  1  0  0  0  0
  7 14  1  0  0  0  0
  7 19  1  0  0  0  0
  8 10  2  0  0  0  0
  9 14  1  0  0  0  0
 10 12  1  0  0  0  0
 11 18  1  0  0  0  0
 11 20  1  0  0  0  0
 11 21  1  0  0  0  0
 12 13  2  0  0  0  0
 13 15  1  0  0  0  0
 15 16  1  0  0  0  0
 16 17  1  0  0  0  0
 16 18  1  1  0  0  0
 19 22  1  0  0  0  0
 22 23  1  0  0  0  0
M  END
>  <CHROM.1>
-95.70382000,98.82526217,157.07870813,159.61581385,-176.49578727,-170.10959480
10.16056026,-8.38705619,-11.80898322,2.67072485,0.19545166,-0.14185617

>  <Name>
ligand

>  <RI>
0

>  <Rbt.Current_Directory>
/home/itssahil/PROJECTS/Mol_Feturizer/New_Systems/rnas/3TZR

>  <Rbt.Executable>
rbdock ($Id: //depot/dev/client3/rdock/2013.1/src/exe/rbdock.cxx#4 $)

>  <Rbt.Library>
libRbt.so (2013.1, Build901 2013/11/27)

>  <Rbt.Parameter_File>
/export/apps/rDock/src/rDock_2013.1_src/data/scripts/dock_solv.prm

>  <Rbt.Receptor>
prm/pocket_docking_2.prm

>  <SCORE>
-33.8746

>  <SCORE.INTER>
-23.1891

>  <SCORE.INTER.CONST>
1

>  <SCORE.INTER.POLAR>
0

>  <SCORE.INTER.ROT>
6

>  <SCORE.INTER.SOLV>
21.8434

>  <SCORE.INTER.VDW>
-30.3405

>  <SCORE.INTER.norm>
-0.966214

>  <SCORE.INTRA>
-10.6912

>  <SCORE.INTRA.DIHEDRAL>
0.585703

>  <SCORE.INTRA.DIHEDRAL.0>
4.94008

>  <SCORE.INTRA.POLAR>
0

>  <SCORE.INTRA.POLAR.0>
0

>  <SCORE.INTRA.REPUL>
0

>  <SCORE.INTRA.REPUL.0>
0

>  <SCORE.INTRA.SOLV>
0.0430911

>  <SCORE.INTRA.SOLV.lig_0>
-31.4704

>  <SCORE.INTRA.VDW>
-11.0056

>  <SCORE.INTRA.VDW.0>
10.2807

>  <SCORE.INTRA.norm>
-0.445467

>  <SCORE.RESTR>
0.00573027

>  <SCORE.RESTR.CAVITY>
0.00573027

>  <SCORE.RESTR.norm>
0.000238761

>  <SCORE.SYSTEM>
0

>  <SCORE.SYSTEM.CONST>
0

>  <SCORE.SYSTEM.DIHEDRAL>
0

>  <SCORE.SYSTEM.SOLV>
0

>  <SCORE.SYSTEM.norm>
0

>  <SCORE.heavy>
24

>  <SCORE.norm>
-1.41144

>  <RMSD>
0.631

$$$$
ligand
 OpenBabel11021811493D
libRbt.so/2013.1/901 2013/11/27
 24 26  0  0  0  0  0  0  0  0999 V2000
    7.5103  -11.0650   -9.5913 N   0  0  0  0  0  0  0  0  0  0  0  0
    8.7177  -11.8232   -9.3058 C   0  0  0  0  0  0  0  0  0  0  0  0
   13.3458   -6.4139  -12.6999 O   0  0  0  0  0  0  0  0  0  0  0  0
   12.0677   -5.9040  -12.5148 C   0  0  0  0  0  0  0  0  0  0  0  0
    8.0628   -4.5080  -11.9939 N   0  0  0  0  0  0  0  0  0  0  0  0
   11.8131   -4.4204  -12.4835 C   0  0  0  0  0  0  0  0  0  0  0  0
    8.3503   -6.7357  -12.0112 N   0  0  0  0  0  0  0  0  0  0  0  0
   10.5008   -3.8693  -12.3220 C   0  0  0  0  0  0  0  0  0  0  0  0
    6.0113   -5.8933  -11.7017 N   0  0  0  0  0  0  0  0  0  0  0  0
    9.4202   -4.8093  -12.1731 C   0  0  0  0  0  0  0  0  0  0  0  0
   12.5459  -11.0774  -12.1095 N   0  0  0  0  0  0  0  0  0  0  0  0
    9.6515   -6.2290  -12.1857 C   0  0  0  0  0  0  0  0  0  0  0  0
   11.0311   -6.7575  -12.3680 C   0  0  0  0  0  0  0  0  0  0  0  0
    7.4194   -5.7080  -11.9031 C   0  0  0  0  0  0  0  0  0  0  0  0
   11.2539   -8.2582  -12.3883 C   0  0  0  0  0  0  0  0  0  0  0  0
   12.7138   -8.6966  -12.3433 C   0  0  1  0  0  0  0  0  0  0  0  0
   13.6462   -7.5700  -12.0006 C   0  0  0  0  0  0  0  0  0  0  0  0
   12.8777   -9.8643  -11.3822 C   0  0  0  0  0  0  0  0  0  0  0  0
    8.0074   -8.1708  -12.0299 C   0  0  0  0  0  0  0  0  0  0  0  0
   13.7502  -11.5648  -12.7683 C   0  0  0  0  0  0  0  0  0  0  0  0
   12.0860  -12.0573  -11.1380 C   0  0  0  0  0  0  0  0  0  0  0  0
    8.0372   -8.8749  -10.6624 C   0  0  0  0  0  0  0  0  0  0  0  0
    7.6475  -10.3507  -10.8686 C   0  0  0  0  0  0  0  0  0  0  0  0
    6.3879  -11.9959   -9.6235 C   0  0  0  0  0  0  0  0  0  0  0  0
  1 23  1  0  0  0  0
  1 24  1  0  0  0  0
  1  2  1  0  0  0  0
  3  4  1  0  0  0  0
  3 17  1  0  0  0  0
  4  6  2  0  0  0  0
  4 13  1  0  0  0  0
  5 10  1  0  0  0  0
  5 14  2  0  0  0  0
  6  8  1  0  0  0  0
  7 12  1  0  0  0  0
  7 14  1  0  0  0  0
  7 19  1  0  0  0  0
  8 10  2  0  0  0  0
  9 14  1  0  0  0  0
 10 12  1  0  0  0  0
 11 18  1  0  0  0  0
 11 20  1  0  0  0  0
 11 21  1  0  0  0  0
 12 13  2  0  0  0  0
 13 15  1  0  0  0  0
 15 16  1  0  0  0  0
 16 17  1  0  0  0  0
 16 18  1  1  0  0  0
 19 22  1  0  0  0  0
 22 23  1  0  0  0  0
M  END
>  <CHROM.1>
-98.85763133,91.16950103,87.78775061,83.83862978,179.61437340,-173.87827792
10.12576812,-8.17501982,-11.65705635,1.62950174,-0.24037677,2.89327734

>  <Name>
ligand

>  <RI>
144

>  <Rbt.Current_Directory>
/home/itssahil/PROJECTS/Mol_Feturizer/New_Systems/rnas/3TZR

>  <Rbt.Executable>
rbdock ($Id: //depot/dev/client3/rdock/2013.1/src/exe/rbdock.cxx#4 $)

>  <Rbt.Library>
libRbt.so (2013.1, Build901 2013/11/27)

>  <Rbt.Parameter_File>
/export/apps/rDock/src/rDock_2013.1_src/data/scripts/dock_solv.prm

>  <Rbt.Receptor>
prm/pocket_docking_8.prm

>  <SCORE>
-36.2022

>  <SCORE.INTER>
-24.9034

>  <SCORE.INTER.CONST>
1

>  <SCORE.INTER.POLAR>
0

>  <SCORE.INTER.ROT>
6

>  <SCORE.INTER.SOLV>
20.106

>  <SCORE.INTER.VDW>
-30.9042

>  <SCORE.INTER.norm>
-1.03764

>  <SCORE.INTRA>
-11.2989

>  <SCORE.INTRA.DIHEDRAL>
1.08204

>  <SCORE.INTRA.DIHEDRAL.0>
4.94008

>  <SCORE.INTRA.POLAR>
0

>  <SCORE.INTRA.POLAR.0>
0

>  <SCORE.INTRA.REPUL>
0

>  <SCORE.INTRA.REPUL.0>
0

>  <SCORE.INTRA.SOLV>
-0.138074

>  <SCORE.INTRA.SOLV.lig_0>
-31.4704

>  <SCORE.INTRA.VDW>
-11.7709

>  <SCORE.INTRA.VDW.0>
10.2807

>  <SCORE.INTRA.norm>
-0.470787

>  <SCORE.RESTR>
0

>  <SCORE.RESTR.CAVITY>
0

>  <SCORE.RESTR.norm>
0

>  <SCORE.SYSTEM>
0

>  <SCORE.SYSTEM.CONST>
0

>  <SCORE.SYSTEM.DIHEDRAL>
0

>  <SCORE.SYSTEM.SOLV>
0

>  <SCORE.SYSTEM.norm>
0

>  <SCORE.heavy>
24

>  <SCORE.norm>
-1.50843

>  <RMSD>
0.639

$$$$
ligand
 OpenBabel11021811493D
libRbt.so/2013.1/901 2013/11/27
 24 26  0  0  0  0  0  0  0  0999 V2000
    7.2879  -11.0092   -9.5793 N   0  0  0  0  0  0  0  0  0  0  0  0
    8.4813  -11.6153   -9.0111 C   0  0  0  0  0  0  0  0  0  0  0  0
   13.3034   -6.3880  -12.6851 O   0  0  0  0  0  0  0  0  0  0  0  0
   12.0279   -5.8765  -12.4869 C   0  0  0  0  0  0  0  0  0  0  0  0
    8.0303   -4.4751  -11.9264 N   0  0  0  0  0  0  0  0  0  0  0  0
   11.7770   -4.3926  -12.4431 C   0  0  0  0  0  0  0  0  0  0  0  0
    8.3124   -6.7033  -11.9618 N   0  0  0  0  0  0  0  0  0  0  0  0
   10.4672   -3.8396  -12.2679 C   0  0  0  0  0  0  0  0  0  0  0  0
    5.9777   -5.8577  -11.6289 N   0  0  0  0  0  0  0  0  0  0  0  0
    9.3856   -4.7783  -12.1178 C   0  0  0  0  0  0  0  0  0  0  0  0
   12.4491  -11.0485  -12.1072 N   0  0  0  0  0  0  0  0  0  0  0  0
    9.6135   -6.1983  -12.1423 C   0  0  0  0  0  0  0  0  0  0  0  0
   10.9904   -6.7287  -12.3386 C   0  0  0  0  0  0  0  0  0  0  0  0
    7.3847   -5.6742  -11.8395 C   0  0  0  0  0  0  0  0  0  0  0  0
   11.2095   -8.2297  -12.3712 C   0  0  0  0  0  0  0  0  0  0  0  0
   12.6686   -8.6717  -12.3402 C   0  0  1  0  0  0  0  0  0  0  0  0
   13.6062   -7.5498  -11.9963 C   0  0  0  0  0  0  0  0  0  0  0  0
   12.8369   -9.8467  -11.3888 C   0  0  0  0  0  0  0  0  0  0  0  0
    7.9659   -8.1374  -11.9882 C   0  0  0  0  0  0  0  0  0  0  0  0
   13.6406  -11.6308  -12.7097 C   0  0  0  0  0  0  0  0  0  0  0  0
   11.8856  -11.9746  -11.1375 C   0  0  0  0  0  0  0  0  0  0  0  0
    7.9283   -8.8332  -10.6167 C   0  0  0  0  0  0  0  0  0  0  0  0
    7.6144  -10.3248  -10.8384 C   0  0  0  0  0  0  0  0  0  0  0  0
    6.3014  -12.0626   -9.7901 C   0  0  0  0  0  0  0  0  0  0  0  0
  1 23  1  0  0  0  0
  1 24  1  0  0  0  0
  1  2  1  0  0  0  0
  3  4  1  0  0  0  0
  3 17  1  0  0  0  0
  4  6  2  0  0  0  0
  4 13  1  0  0  0  0
  5 10  1  0  0  0  0
  5 14  2  0  0  0  0
  6  8  1  0  0  0  0
  7 12  1  0  0  0  0
  7 14  1  0  0  0  0
  7 19  1  0  0  0  0
  8 10  2  0  0  0  0
  9 14  1  0  0  0  0
 10 12  1  0  0  0  0
 11 18  1  0  0  0  0
 11 20  1  0  0  0  0
 11 21  1  0  0  0  0
 12 13  2  0  0  0  0
 13 15  1  0  0  0  0
 15 16  1  0  0  0  0
 16 17  1  0  0  0  0
 16 18  1  1  0  0  0
 19 22  1  0  0  0  0
 22 23  1  0  0  0  0
M  END
>  <CHROM.1>
-93.35858603,94.41198324,92.88074131,81.75739655,-177.54171318,-168.29662066
10.05206409,-8.14273827,-11.62168616,1.74496915,-0.24584195,2.90153070

>  <Name>
ligand

>  <RI>
144

>  <Rbt.Current_Directory>
/home/itssahil/PROJECTS/Mol_Feturizer/New_Systems/rnas/3TZR

>  <Rbt.Executable>
rbdock ($Id: //depot/dev/client3/rdock/2013.1/src/exe/rbdock.cxx#4 $)

>  <Rbt.Library>
libRbt.so (2013.1, Build901 2013/11/27)

>  <Rbt.Parameter_File>
/export/apps/rDock/src/rDock_2013.1_src/data/scripts/dock_solv.prm

>  <Rbt.Receptor>
prm/pocket_docking_8.prm

>  <SCORE>
-35.8986

>  <SCORE.INTER>
-24.6434

>  <SCORE.INTER.CONST>
1

>  <SCORE.INTER.POLAR>
0

>  <SCORE.INTER.ROT>
6

>  <SCORE.INTER.SOLV>
20.2535

>  <SCORE.INTER.VDW>
-30.7801

>  <SCORE.INTER.norm>
-1.02681

>  <SCORE.INTRA>
-11.2552

>  <SCORE.INTRA.DIHEDRAL>
1.19898

>  <SCORE.INTRA.DIHEDRAL.0>
4.94008

>  <SCORE.INTRA.POLAR>
0

>  <SCORE.INTRA.POLAR.0>
0

>  <SCORE.INTRA.REPUL>
0

>  <SCORE.INTRA.REPUL.0>
0

>  <SCORE.INTRA.SOLV>
-0.0734106

>  <SCORE.INTRA.SOLV.lig_0>
-31.4704

>  <SCORE.INTRA.VDW>
-11.818

>  <SCORE.INTRA.VDW.0>
10.2807

>  <SCORE.INTRA.norm>
-0.468968

>  <SCORE.RESTR>
0

>  <SCORE.RESTR.CAVITY>
0

>  <SCORE.RESTR.norm>
0

>  <SCORE.SYSTEM>
0

>  <SCORE.SYSTEM.CONST>
0

>  <SCORE.SYSTEM.DIHEDRAL>
0

>  <SCORE.SYSTEM.SOLV>
0

>  <SCORE.SYSTEM.norm>
0

>  <SCORE.heavy>
24

>  <SCORE.norm>
-1.49578

>  <RMSD>
0.639

$$$$
ligand
 OpenBabel11021811493D
libRbt.so/2013.1/901 2013/11/27
 24 26  0  0  0  0  0  0  0  0999 V2000
    7.4941  -11.0754   -9.6402 N   0  0  0  0  0  0  0  0  0  0  0  0
    8.7270  -11.8177   -9.4319 C   0  0  0  0  0  0  0  0  0  0  0  0
   13.3610   -6.3852  -12.7272 O   0  0  0  0  0  0  0  0  0  0  0  0
   12.0808   -5.8832  -12.5353 C   0  0  0  0  0  0  0  0  0  0  0  0
    8.0701   -4.5114  -11.9953 N   0  0  0  0  0  0  0  0  0  0  0  0
   11.8191   -4.4012  -12.4897 C   0  0  0  0  0  0  0  0  0  0  0  0
    8.3682   -6.7375  -12.0341 N   0  0  0  0  0  0  0  0  0  0  0  0
   10.5044   -3.8579  -12.3210 C   0  0  0  0  0  0  0  0  0  0  0  0
    6.0256   -5.9092  -11.7131 N   0  0  0  0  0  0  0  0  0  0  0  0
    9.4286   -4.8045  -12.1794 C   0  0  0  0  0  0  0  0  0  0  0  0
   12.4218  -11.0360  -12.1232 N   0  0  0  0  0  0  0  0  0  0  0  0
    9.6667   -6.2229  -12.2058 C   0  0  0  0  0  0  0  0  0  0  0  0
   11.0485   -6.7431  -12.3951 C   0  0  0  0  0  0  0  0  0  0  0  0
    7.4325   -5.7153  -11.9149 C   0  0  0  0  0  0  0  0  0  0  0  0
   11.2784   -8.2424  -12.4299 C   0  0  0  0  0  0  0  0  0  0  0  0
   12.7404   -8.6742  -12.3912 C   0  0  1  0  0  0  0  0  0  0  0  0
   13.6680   -7.5465  -12.0393 C   0  0  0  0  0  0  0  0  0  0  0  0
   12.9114   -9.8501  -11.4415 C   0  0  0  0  0  0  0  0  0  0  0  0
    8.0321   -8.1739  -12.0658 C   0  0  0  0  0  0  0  0  0  0  0  0
   13.4903  -11.5597  -12.9634 C   0  0  0  0  0  0  0  0  0  0  0  0
   12.0736  -12.0135  -11.1040 C   0  0  0  0  0  0  0  0  0  0  0  0
    8.0301   -8.8822  -10.7001 C   0  0  0  0  0  0  0  0  0  0  0  0
    7.5548  -10.3325  -10.9070 C   0  0  0  0  0  0  0  0  0  0  0  0
    6.3873  -12.0254   -9.6363 C   0  0  0  0  0  0  0  0  0  0  0  0
  1 23  1  0  0  0  0
  1 24  1  0  0  0  0
  1  2  1  0  0  0  0
  3  4  1  0  0  0  0
  3 17  1  0  0  0  0
  4  6  2  0  0  0  0
  4 13  1  0  0  0  0
  5 10  1  0  0  0  0
  5 14  2  0  0  0  0
  6  8  1  0  0  0  0
  7 12  1  0  0  0  0
  7 14  1  0  0  0  0
  7 19  1  0  0  0  0
  8 10  2  0  0  0  0
  9 14  1  0  0  0  0
 10 12  1  0  0  0  0
 11 18  1  0  0  0  0
 11 20  1  0  0  0  0
 11 21  1  0  0  0  0
 12 13  2  0  0  0  0
 13 15  1  0  0  0  0
 15 16  1  0  0  0  0
 16 17  1  0  0  0  0
 16 18  1  1  0  0  0
 19 22  1  0  0  0  0
 22 23  1  0  0  0  0
M  END
>  <CHROM.1>
-94.65191493,92.76027892,83.98418054,76.66548722,175.62292731,-178.70756177
10.11420226,-8.16598804,-11.69238845,1.72449390,-0.24243431,2.90289285

>  <Name>
ligand

>  <RI>
0

>  <Rbt.Current_Directory>
/home/itssahil/PROJECTS/Mol_Feturizer/New_Systems/rnas/3TZR

>  <Rbt.Executable>
rbdock ($Id: //depot/dev/client3/rdock/2013.1/src/exe/rbdock.cxx#4 $)

>  <Rbt.Library>
libRbt.so (2013.1, Build901 2013/11/27)

>  <Rbt.Parameter_File>
/export/apps/rDock/src/rDock_2013.1_src/data/scripts/dock_solv.prm

>  <Rbt.Receptor>
prm/pocket_docking_3.prm

>  <SCORE>
-36.6486

>  <SCORE.INTER>
-25.0045

>  <SCORE.INTER.CONST>
1

>  <SCORE.INTER.POLAR>
0

>  <SCORE.INTER.ROT>
6

>  <SCORE.INTER.SOLV>
20.1634

>  <SCORE.INTER.VDW>
-30.9908

>  <SCORE.INTER.norm>
-1.04185

>  <SCORE.INTRA>
-11.6441

>  <SCORE.INTRA.DIHEDRAL>
-0.286841

>  <SCORE.INTRA.DIHEDRAL.0>
4.94008

>  <SCORE.INTRA.POLAR>
0

>  <SCORE.INTRA.POLAR.0>
0

>  <SCORE.INTRA.REPUL>
0

>  <SCORE.INTRA.REPUL.0>
0

>  <SCORE.INTRA.SOLV>
-0.0773178

>  <SCORE.INTRA.SOLV.lig_0>
-31.4704

>  <SCORE.INTRA.VDW>
-11.4621

>  <SCORE.INTRA.VDW.0>
10.2807

>  <SCORE.INTRA.norm>
-0.485172

>  <SCORE.RESTR>
0

>  <SCORE.RESTR.CAVITY>
0

>  <SCORE.RESTR.norm>
0

>  <SCORE.SYSTEM>
0

>  <SCORE.SYSTEM.CONST>
0

>  <SCORE.SYSTEM.DIHEDRAL>
0

>  <SCORE.SYSTEM.SOLV>
0

>  <SCORE.SYSTEM.norm>
0

>  <SCORE.heavy>
24

>  <SCORE.norm>
-1.52703

>  <RMSD>
0.647

$$$$
ligand
 OpenBabel11021811493D
libRbt.so/2013.1/901 2013/11/27
 24 26  0  0  0  0  0  0  0  0999 V2000
    7.1810  -11.0103   -9.6832 N   0  0  0  0  0  0  0  0  0  0  0  0
    8.3499  -11.6847   -9.1418 C   0  0  0  0  0  0  0  0  0  0  0  0
   13.4217   -6.4175  -12.8461 O   0  0  0  0  0  0  0  0  0  0  0  0
   12.1692   -5.8931  -12.5562 C   0  0  0  0  0  0  0  0  0  0  0  0
    8.2362   -4.4473  -11.7198 N   0  0  0  0  0  0  0  0  0  0  0  0
   11.9542   -4.4094  -12.4175 C   0  0  0  0  0  0  0  0  0  0  0  0
    8.4661   -6.6750  -11.8931 N   0  0  0  0  0  0  0  0  0  0  0  0
   10.6672   -3.8416  -12.1466 C   0  0  0  0  0  0  0  0  0  0  0  0
    6.1700   -5.8039  -11.3975 N   0  0  0  0  0  0  0  0  0  0  0  0
    9.5734   -4.7657  -11.9951 C   0  0  0  0  0  0  0  0  0  0  0  0
   13.1382  -11.0713  -12.6052 N   0  0  0  0  0  0  0  0  0  0  0  0
    9.7679   -6.1863  -12.1100 C   0  0  0  0  0  0  0  0  0  0  0  0
   11.1213   -6.7317  -12.4040 C   0  0  0  0  0  0  0  0  0  0  0  0
    7.5688   -5.6365  -11.6675 C   0  0  0  0  0  0  0  0  0  0  0  0
   11.3048   -8.2325  -12.5310 C   0  0  0  0  0  0  0  0  0  0  0  0
   12.7534   -8.7042  -12.5974 C   0  0  1  0  0  0  0  0  0  0  0  0
   13.7316   -7.6223  -12.2390 C   0  0  0  0  0  0  0  0  0  0  0  0
   12.9415   -9.9343  -11.7225 C   0  0  0  0  0  0  0  0  0  0  0  0
    8.0867   -8.0982  -11.9819 C   0  0  0  0  0  0  0  0  0  0  0  0
   14.5616  -11.1939  -12.8898 C   0  0  0  0  0  0  0  0  0  0  0  0
   12.6735  -12.2564  -11.9015 C   0  0  0  0  0  0  0  0  0  0  0  0
    7.8201   -8.7960  -10.6370 C   0  0  0  0  0  0  0  0  0  0  0  0
    7.5350  -10.2845  -10.9114 C   0  0  0  0  0  0  0  0  0  0  0  0
    6.1561  -12.0159   -9.9396 C   0  0  0  0  0  0  0  0  0  0  0  0
  1 23  1  0  0  0  0
  1 24  1  0  0  0  0
  1  2  1  0  0  0  0
  3  4  1  0  0  0  0
  3 17  1  0  0  0  0
  4  6  2  0  0  0  0
  4 13  1  0  0  0  0
  5 10  1  0  0  0  0
  5 14  2  0  0  0  0
  6  8  1  0  0  0  0
  7 12  1  0  0  0  0
  7 14  1  0  0  0  0
  7 19  1  0  0  0  0
  8 10  2  0  0  0  0
  9 14  1  0  0  0  0
 10 12  1  0  0  0  0
 11 18  1  0  0  0  0
 11 20  1  0  0  0  0
 11 21  1  0  0  0  0
 12 13  2  0  0  0  0
 13 15  1  0  0  0  0
 15 16  1  0  0  0  0
 16 17  1  0  0  0  0
 16 18  1  1  0  0  0
 19 22  1  0  0  0  0
 22 23  1  0  0  0  0
M  END
>  <CHROM.1>
-96.85542331,106.39560202,88.81921732,109.18016508,-176.17657630,-176.22316796
10.22970788,-8.13681013,-11.72289878,-2.98237009,0.28697334,-0.18830635

>  <Name>
ligand

>  <RI>
0

>  <Rbt.Current_Directory>
/home/itssahil/PROJECTS/Mol_Feturizer/New_Systems/rnas/3TZR

>  <Rbt.Executable>
rbdock ($Id: //depot/dev/client3/rdock/2013.1/src/exe/rbdock.cxx#4 $)

>  <Rbt.Library>
libRbt.so (2013.1, Build901 2013/11/27)

>  <Rbt.Parameter_File>
/export/apps/rDock/src/rDock_2013.1_src/data/scripts/dock_solv.prm

>  <Rbt.Receptor>
prm/pocket_docking_7.prm

>  <SCORE>
-35.2836

>  <SCORE.INTER>
-25.9058

>  <SCORE.INTER.CONST>
1

>  <SCORE.INTER.POLAR>
0

>  <SCORE.INTER.ROT>
6

>  <SCORE.INTER.SOLV>
20.1378

>  <SCORE.INTER.VDW>
-31.5831

>  <SCORE.INTER.norm>
-1.07941

>  <SCORE.INTRA>
-9.37777

>  <SCORE.INTRA.DIHEDRAL>
3.95046

>  <SCORE.INTRA.DIHEDRAL.0>
4.94008

>  <SCORE.INTRA.POLAR>
0

>  <SCORE.INTRA.POLAR.0>
0

>  <SCORE.INTRA.REPUL>
0

>  <SCORE.INTRA.REPUL.0>
0

>  <SCORE.INTRA.SOLV>
0.142409

>  <SCORE.INTRA.SOLV.lig_0>
-31.4704

>  <SCORE.INTRA.VDW>
-11.4242

>  <SCORE.INTRA.VDW.0>
10.2807

>  <SCORE.INTRA.norm>
-0.39074

>  <SCORE.RESTR>
0

>  <SCORE.RESTR.CAVITY>
0

>  <SCORE.RESTR.norm>
0

>  <SCORE.SYSTEM>
0

>  <SCORE.SYSTEM.CONST>
0

>  <SCORE.SYSTEM.DIHEDRAL>
0

>  <SCORE.SYSTEM.SOLV>
0

>  <SCORE.SYSTEM.norm>
0

>  <SCORE.heavy>
24

>  <SCORE.norm>
-1.47015

>  <RMSD>
0.652

$$$$
ligand
 OpenBabel11021811493D
libRbt.so/2013.1/901 2013/11/27
 24 26  0  0  0  0  0  0  0  0999 V2000
    7.1445  -10.7816  -10.0035 N   0  0  0  0  0  0  0  0  0  0  0  0
    8.3551  -11.4875   -9.6157 C   0  0  0  0  0  0  0  0  0  0  0  0
   13.7143   -7.3390  -12.6884 O   0  0  0  0  0  0  0  0  0  0  0  0
   12.5899   -6.5503  -12.4849 C   0  0  0  0  0  0  0  0  0  0  0  0
    9.0201   -4.2709  -11.9193 N   0  0  0  0  0  0  0  0  0  0  0  0
   12.6949   -5.0534  -12.3617 C   0  0  0  0  0  0  0  0  0  0  0  0
    8.7697   -6.4976  -12.0757 N   0  0  0  0  0  0  0  0  0  0  0  0
   11.5476   -4.2151  -12.1794 C   0  0  0  0  0  0  0  0  0  0  0  0
    6.6911   -5.1404  -11.7383 N   0  0  0  0  0  0  0  0  0  0  0  0
   10.2710   -4.8768  -12.1026 C   0  0  0  0  0  0  0  0  0  0  0  0
   13.4194  -11.6048  -12.0103 N   0  0  0  0  0  0  0  0  0  0  0  0
   10.1582   -6.3072  -12.2035 C   0  0  0  0  0  0  0  0  0  0  0  0
   11.3766   -7.1384  -12.4042 C   0  0  0  0  0  0  0  0  0  0  0  0
    8.1075   -5.2855  -11.9123 C   0  0  0  0  0  0  0  0  0  0  0  0
   11.2364   -8.6449  -12.5180 C   0  0  0  0  0  0  0  0  0  0  0  0
   12.5484   -9.4214  -12.4853 C   0  0  1  0  0  0  0  0  0  0  0  0
   13.7129   -8.5729  -12.0612 C   0  0  0  0  0  0  0  0  0  0  0  0
   12.4050  -10.6496  -11.5991 C   0  0  0  0  0  0  0  0  0  0  0  0
    8.0958   -7.8054  -12.1898 C   0  0  0  0  0  0  0  0  0  0  0  0
   13.6375  -12.5451  -10.9194 C   0  0  0  0  0  0  0  0  0  0  0  0
   12.9078  -12.3117  -13.1740 C   0  0  0  0  0  0  0  0  0  0  0  0
    8.0930   -8.6608  -10.9112 C   0  0  0  0  0  0  0  0  0  0  0  0
    7.3828   -9.9922  -11.2202 C   0  0  0  0  0  0  0  0  0  0  0  0
    6.0912  -11.7690  -10.2113 C   0  0  0  0  0  0  0  0  0  0  0  0
  1 23  1  0  0  0  0
  1 24  1  0  0  0  0
  1  2  1  0  0  0  0
  3  4  1  0  0  0  0
  3 17  1  0  0  0  0
  4  6  2  0  0  0  0
  4 13  1  0  0  0  0
  5 10  1  0  0  0  0
  5 14  2  0  0  0  0
  6  8  1  0  0  0  0
  7 12  1  0  0  0  0
  7 14  1  0  0  0  0
  7 19  1  0  0  0  0
  8 10  2  0  0  0  0
  9 14  1  0  0  0  0
 10 12  1  0  0  0  0
 11 18  1  0  0  0  0
 11 20  1  0  0  0  0
 11 21  1  0  0  0  0
 12 13  2  0  0  0  0
 13 15  1  0  0  0  0
 15 16  1  0  0  0  0
 16 17  1  0  0  0  0
 16 18  1  1  0  0  0
 19 22  1  0  0  0  0
 22 23  1  0  0  0  0
M  END
>  <CHROM.1>
-80.28128174,83.11613400,159.63548446,157.28688656,-178.70254433,-170.88700242
10.40348920,-8.35422576,-11.76542339,1.07802125,-0.22950048,2.96664738

>  <Name>
ligand

>  <RI>
0

>  <Rbt.Current_Directory>
/home/itssahil/PROJECTS/Mol_Feturizer/New_Systems/rnas/3TZR

>  <Rbt.Executable>
rbdock ($Id: //depot/dev/client3/rdock/2013.1/src/exe/rbdock.cxx#4 $)

>  <Rbt.Library>
libRbt.so (2013.1, Build901 2013/11/27)

>  <Rbt.Parameter_File>
/export/apps/rDock/src/rDock_2013.1_src/data/scripts/dock_solv.prm

>  <Rbt.Receptor>
prm/pocket_docking_4.prm

>  <SCORE>
-34.828

>  <SCORE.INTER>
-23.9634

>  <SCORE.INTER.CONST>
1

>  <SCORE.INTER.POLAR>
0

>  <SCORE.INTER.ROT>
6

>  <SCORE.INTER.SOLV>
21.2912

>  <SCORE.INTER.VDW>
-30.6726

>  <SCORE.INTER.norm>
-0.998473

>  <SCORE.INTRA>
-10.8646

>  <SCORE.INTRA.DIHEDRAL>
-0.315617

>  <SCORE.INTRA.DIHEDRAL.0>
4.94008

>  <SCORE.INTRA.POLAR>
0

>  <SCORE.INTRA.POLAR.0>
0

>  <SCORE.INTRA.REPUL>
0

>  <SCORE.INTRA.REPUL.0>
0

>  <SCORE.INTRA.SOLV>
-0.246846

>  <SCORE.INTRA.SOLV.lig_0>
-31.4704

>  <SCORE.INTRA.VDW>
-10.5834

>  <SCORE.INTRA.VDW.0>
10.2807

>  <SCORE.INTRA.norm>
-0.452694

>  <SCORE.RESTR>
0

>  <SCORE.RESTR.CAVITY>
0

>  <SCORE.RESTR.norm>
0

>  <SCORE.SYSTEM>
0

>  <SCORE.SYSTEM.CONST>
0

>  <SCORE.SYSTEM.DIHEDRAL>
0

>  <SCORE.SYSTEM.SOLV>
0

>  <SCORE.SYSTEM.norm>
0

>  <SCORE.heavy>
24

>  <SCORE.norm>
-1.45117

>  <RMSD>
0.654

$$$$
ligand
 OpenBabel11021811493D
libRbt.so/2013.1/901 2013/11/27
 24 26  0  0  0  0  0  0  0  0999 V2000
    7.3959  -11.0665   -9.5684 N   0  0  0  0  0  0  0  0  0  0  0  0
    8.6121  -11.7786   -9.2106 C   0  0  0  0  0  0  0  0  0  0  0  0
   13.3077   -6.3677  -12.7433 O   0  0  0  0  0  0  0  0  0  0  0  0
   12.0240   -5.8773  -12.5444 C   0  0  0  0  0  0  0  0  0  0  0  0
    8.0042   -4.5423  -11.9809 N   0  0  0  0  0  0  0  0  0  0  0  0
   11.7475   -4.3977  -12.5082 C   0  0  0  0  0  0  0  0  0  0  0  0
    8.3248   -6.7654  -12.0046 N   0  0  0  0  0  0  0  0  0  0  0  0
   10.4288   -3.8666  -12.3325 C   0  0  0  0  0  0  0  0  0  0  0  0
    5.9767   -5.9586  -11.6701 N   0  0  0  0  0  0  0  0  0  0  0  0
    9.3640   -4.8230  -12.1742 C   0  0  0  0  0  0  0  0  0  0  0  0
   12.3500  -11.0088  -12.0632 N   0  0  0  0  0  0  0  0  0  0  0  0
    9.6165   -6.2389  -12.1915 C   0  0  0  0  0  0  0  0  0  0  0  0
   11.0018   -6.7465  -12.3885 C   0  0  0  0  0  0  0  0  0  0  0  0
    7.3797   -5.7519  -11.8855 C   0  0  0  0  0  0  0  0  0  0  0  0
   11.2469   -8.2436  -12.4135 C   0  0  0  0  0  0  0  0  0  0  0  0
   12.7136   -8.6601  -12.3839 C   0  0  1  0  0  0  0  0  0  0  0  0
   13.6324   -7.5202  -12.0489 C   0  0  0  0  0  0  0  0  0  0  0  0
   12.9047   -9.8266  -11.4264 C   0  0  0  0  0  0  0  0  0  0  0  0
    8.0033   -8.2054  -12.0221 C   0  0  0  0  0  0  0  0  0  0  0  0
   13.3945  -11.6364  -12.8613 C   0  0  0  0  0  0  0  0  0  0  0  0
   11.9259  -11.9153  -11.0078 C   0  0  0  0  0  0  0  0  0  0  0  0
    7.9733   -8.8923  -10.6459 C   0  0  0  0  0  0  0  0  0  0  0  0
    7.5738  -10.3660  -10.8483 C   0  0  0  0  0  0  0  0  0  0  0  0
    6.3085  -12.0358   -9.6424 C   0  0  0  0  0  0  0  0  0  0  0  0
  1 23  1  0  0  0  0
  1 24  1  0  0  0  0
  1  2  1  0  0  0  0
  3  4  1  0  0  0  0
  3 17  1  0  0  0  0
  4  6  2  0  0  0  0
  4 13  1  0  0  0  0
  5 10  1  0  0  0  0
  5 14  2  0  0  0  0
  6  8  1  0  0  0  0
  7 12  1  0  0  0  0
  7 14  1  0  0  0  0
  7 19  1  0  0  0  0
  8 10  2  0  0  0  0
  9 14  1  0  0  0  0
 10 12  1  0  0  0  0
 11 18  1  0  0  0  0
 11 20  1  0  0  0  0
 11 21  1  0  0  0  0
 12 13  2  0  0  0  0
 13 15  1  0  0  0  0
 15 16  1  0  0  0  0
 16 17  1  0  0  0  0
 16 18  1  1  0  0  0
 19 22  1  0  0  0  0
 22 23  1  0  0  0  0
M  END
>  <CHROM.1>
-95.94189654,94.75202923,88.76887307,73.38291622,177.94101612,-174.56171360
10.05504436,-8.16919243,-11.65629250,1.80376868,-0.24551779,2.89171467

>  <Name>
ligand

>  <RI>
0

>  <Rbt.Current_Directory>
/home/itssahil/PROJECTS/Mol_Feturizer/New_Systems/rnas/3TZR

>  <Rbt.Executable>
rbdock ($Id: //depot/dev/client3/rdock/2013.1/src/exe/rbdock.cxx#4 $)

>  <Rbt.Library>
libRbt.so (2013.1, Build901 2013/11/27)

>  <Rbt.Parameter_File>
/export/apps/rDock/src/rDock_2013.1_src/data/scripts/dock_solv.prm

>  <Rbt.Receptor>
prm/pocket_docking_6.prm

>  <SCORE>
-36.7292

>  <SCORE.INTER>
-24.9367

>  <SCORE.INTER.CONST>
1

>  <SCORE.INTER.POLAR>
0

>  <SCORE.INTER.ROT>
6

>  <SCORE.INTER.SOLV>
19.9294

>  <SCORE.INTER.VDW>
-30.8676

>  <SCORE.INTER.norm>
-1.03903

>  <SCORE.INTRA>
-11.7925

>  <SCORE.INTRA.DIHEDRAL>
-0.176284

>  <SCORE.INTRA.DIHEDRAL.0>
4.94008

>  <SCORE.INTRA.POLAR>
0

>  <SCORE.INTRA.POLAR.0>
0

>  <SCORE.INTRA.REPUL>
0

>  <SCORE.INTRA.REPUL.0>
0

>  <SCORE.INTRA.SOLV>
-0.0567565

>  <SCORE.INTRA.SOLV.lig_0>
-31.4704

>  <SCORE.INTRA.VDW>
-11.676

>  <SCORE.INTRA.VDW.0>
10.2807

>  <SCORE.INTRA.norm>
-0.491356

>  <SCORE.RESTR>
0

>  <SCORE.RESTR.CAVITY>
0

>  <SCORE.RESTR.norm>
0

>  <SCORE.SYSTEM>
0

>  <SCORE.SYSTEM.CONST>
0

>  <SCORE.SYSTEM.DIHEDRAL>
0

>  <SCORE.SYSTEM.SOLV>
0

>  <SCORE.SYSTEM.norm>
0

>  <SCORE.heavy>
24

>  <SCORE.norm>
-1.53038

>  <RMSD>
0.658

$$$$
ligand
 OpenBabel11021811493D
libRbt.so/2013.1/901 2013/11/27
 24 26  0  0  0  0  0  0  0  0999 V2000
    7.3420  -11.0083   -9.5490 N   0  0  0  0  0  0  0  0  0  0  0  0
    8.4577  -11.6854   -8.9078 C   0  0  0  0  0  0  0  0  0  0  0  0
   13.3108   -6.3879  -12.7684 O   0  0  0  0  0  0  0  0  0  0  0  0
   12.0348   -5.8808  -12.5620 C   0  0  0  0  0  0  0  0  0  0  0  0
    8.0362   -4.4938  -11.9736 N   0  0  0  0  0  0  0  0  0  0  0  0
   11.7764   -4.3978  -12.5333 C   0  0  0  0  0  0  0  0  0  0  0  0
    8.3300   -6.7207  -11.9853 N   0  0  0  0  0  0  0  0  0  0  0  0
   10.4657   -3.8496  -12.3500 C   0  0  0  0  0  0  0  0  0  0  0  0
    5.9946   -5.8836  -11.6364 N   0  0  0  0  0  0  0  0  0  0  0  0
    9.3909   -4.7921  -12.1765 C   0  0  0  0  0  0  0  0  0  0  0  0
   12.3004  -11.0119  -12.0484 N   0  0  0  0  0  0  0  0  0  0  0  0
    9.6262   -6.2111  -12.1865 C   0  0  0  0  0  0  0  0  0  0  0  0
   11.0037   -6.7366  -12.3919 C   0  0  0  0  0  0  0  0  0  0  0  0
    7.3981   -5.6952  -11.8650 C   0  0  0  0  0  0  0  0  0  0  0  0
   11.2305   -8.2367  -12.4090 C   0  0  0  0  0  0  0  0  0  0  0  0
   12.6923   -8.6706  -12.3890 C   0  0  1  0  0  0  0  0  0  0  0  0
   13.6276   -7.5397  -12.0692 C   0  0  0  0  0  0  0  0  0  0  0  0
   12.8776   -9.8331  -11.4255 C   0  0  0  0  0  0  0  0  0  0  0  0
    7.9910   -8.1569  -11.9907 C   0  0  0  0  0  0  0  0  0  0  0  0
   13.3128  -11.6298  -12.8940 C   0  0  0  0  0  0  0  0  0  0  0  0
   11.9229  -11.9281  -10.9837 C   0  0  0  0  0  0  0  0  0  0  0  0
    7.7898   -8.7932  -10.6046 C   0  0  0  0  0  0  0  0  0  0  0  0
    7.7943  -10.3246  -10.7690 C   0  0  0  0  0  0  0  0  0  0  0  0
    6.3195  -12.0043   -9.8487 C   0  0  0  0  0  0  0  0  0  0  0  0
  1 23  1  0  0  0  0
  1 24  1  0  0  0  0
  1  2  1  0  0  0  0
  3  4  1  0  0  0  0
  3 17  1  0  0  0  0
  4  6  2  0  0  0  0
  4 13  1  0  0  0  0
  5 10  1  0  0  0  0
  5 14  2  0  0  0  0
  6  8  1  0  0  0  0
  7 12  1  0  0  0  0
  7 14  1  0  0  0  0
  7 19  1  0  0  0  0
  8 10  2  0  0  0  0
  9 14  1  0  0  0  0
 10 12  1  0  0  0  0
 11 18  1  0  0  0  0
 11 20  1  0  0  0  0
 11 21  1  0  0  0  0
 12 13  2  0  0  0  0
 13 15  1  0  0  0  0
 15 16  1  0  0  0  0
 16 17  1  0  0  0  0
 16 18  1  1  0  0  0
 19 22  1  0  0  0  0
 22 23  1  0  0  0  0
M  END
>  <CHROM.1>
-109.38982894,102.16024636,86.57973464,73.24442315,-166.13914846,-168.53621811
10.04569546,-8.14323445,-11.64525624,1.80571388,-0.25563547,2.88895393

>  <Name>
ligand

>  <RI>
0

>  <Rbt.Current_Directory>
/home/itssahil/PROJECTS/Mol_Feturizer/New_Systems/rnas/3TZR

>  <Rbt.Executable>
rbdock ($Id: //depot/dev/client3/rdock/2013.1/src/exe/rbdock.cxx#4 $)

>  <Rbt.Library>
libRbt.so (2013.1, Build901 2013/11/27)

>  <Rbt.Parameter_File>
/export/apps/rDock/src/rDock_2013.1_src/data/scripts/dock_solv.prm

>  <Rbt.Receptor>
prm/pocket_docking_7.prm

>  <SCORE>
-36.4043

>  <SCORE.INTER>
-25.3849

>  <SCORE.INTER.CONST>
1

>  <SCORE.INTER.POLAR>
0

>  <SCORE.INTER.ROT>
6

>  <SCORE.INTER.SOLV>
20.15

>  <SCORE.INTER.VDW>
-31.2399

>  <SCORE.INTER.norm>
-1.0577

>  <SCORE.INTRA>
-11.0194

>  <SCORE.INTRA.DIHEDRAL>
1.36347

>  <SCORE.INTRA.DIHEDRAL.0>
4.94008

>  <SCORE.INTRA.POLAR>
0

>  <SCORE.INTRA.POLAR.0>
0

>  <SCORE.INTRA.REPUL>
0

>  <SCORE.INTRA.REPUL.0>
0

>  <SCORE.INTRA.SOLV>
0.0824571

>  <SCORE.INTRA.SOLV.lig_0>
-31.4704

>  <SCORE.INTRA.VDW>
-11.7424

>  <SCORE.INTRA.VDW.0>
10.2807

>  <SCORE.INTRA.norm>
-0.459142

>  <SCORE.RESTR>
0

>  <SCORE.RESTR.CAVITY>
0

>  <SCORE.RESTR.norm>
0

>  <SCORE.SYSTEM>
0

>  <SCORE.SYSTEM.CONST>
0

>  <SCORE.SYSTEM.DIHEDRAL>
0

>  <SCORE.SYSTEM.SOLV>
0

>  <SCORE.SYSTEM.norm>
0

>  <SCORE.heavy>
24

>  <SCORE.norm>
-1.51685

>  <RMSD>
0.661

$$$$
ligand
 OpenBabel11021811493D
libRbt.so/2013.1/901 2013/11/27
 24 26  0  0  0  0  0  0  0  0999 V2000
    7.5578  -11.1113   -9.5612 N   0  0  0  0  0  0  0  0  0  0  0  0
    8.7852  -11.8809   -9.4368 C   0  0  0  0  0  0  0  0  0  0  0  0
   13.3758   -6.4652  -12.7923 O   0  0  0  0  0  0  0  0  0  0  0  0
   12.1244   -5.9365  -12.5054 C   0  0  0  0  0  0  0  0  0  0  0  0
    8.1945   -4.4781  -11.6758 N   0  0  0  0  0  0  0  0  0  0  0  0
   11.9111   -4.4512  -12.3814 C   0  0  0  0  0  0  0  0  0  0  0  0
    8.4218   -6.7077  -11.8266 N   0  0  0  0  0  0  0  0  0  0  0  0
   10.6253   -3.8793  -12.1138 C   0  0  0  0  0  0  0  0  0  0  0  0
    6.1276   -5.8292  -11.3354 N   0  0  0  0  0  0  0  0  0  0  0  0
    9.5309   -4.8008  -11.9506 C   0  0  0  0  0  0  0  0  0  0  0  0
   13.0830  -11.1168  -12.5031 N   0  0  0  0  0  0  0  0  0  0  0  0
    9.7237   -6.2226  -12.0512 C   0  0  0  0  0  0  0  0  0  0  0  0
   11.0759   -6.7724  -12.3423 C   0  0  0  0  0  0  0  0  0  0  0  0
    7.5261   -5.6660  -11.6100 C   0  0  0  0  0  0  0  0  0  0  0  0
   11.2577   -8.2746  -12.4543 C   0  0  0  0  0  0  0  0  0  0  0  0
   12.7057   -8.7485  -12.5188 C   0  0  1  0  0  0  0  0  0  0  0  0
   13.6857   -7.6639  -12.1735 C   0  0  0  0  0  0  0  0  0  0  0  0
   12.8942   -9.9697  -11.6317 C   0  0  0  0  0  0  0  0  0  0  0  0
    8.0408   -8.1314  -11.9001 C   0  0  0  0  0  0  0  0  0  0  0  0
   14.5002  -11.2266  -12.8212 C   0  0  0  0  0  0  0  0  0  0  0  0
   12.6502  -12.2971  -11.7716 C   0  0  0  0  0  0  0  0  0  0  0  0
    8.1542   -8.9145  -10.5808 C   0  0  0  0  0  0  0  0  0  0  0  0
    7.5739  -10.3239  -10.8022 C   0  0  0  0  0  0  0  0  0  0  0  0
    6.4352  -12.0423   -9.5398 C   0  0  0  0  0  0  0  0  0  0  0  0
  1 23  1  0  0  0  0
  1 24  1  0  0  0  0
  1  2  1  0  0  0  0
  3  4  1  0  0  0  0
  3 17  1  0  0  0  0
  4  6  2  0  0  0  0
  4 13  1  0  0  0  0
  5 10  1  0  0  0  0
  5 14  2  0  0  0  0
  6  8  1  0  0  0  0
  7 12  1  0  0  0  0
  7 14  1  0  0  0  0
  7 19  1  0  0  0  0
  8 10  2  0  0  0  0
  9 14  1  0  0  0  0
 10 12  1  0  0  0  0
 11 18  1  0  0  0  0
 11 20  1  0  0  0  0
 11 21  1  0  0  0  0
 12 13  2  0  0  0  0
 13 15  1  0  0  0  0
 15 16  1  0  0  0  0
 16 17  1  0  0  0  0
 16 18  1  1  0  0  0
 19 22  1  0  0  0  0
 22 23  1  0  0  0  0
M  END
>  <CHROM.1>
-91.63367176,90.16898737,87.38279317,108.96767129,173.78120433,-176.03554428
10.25957875,-8.18754953,-11.65312719,1.12677752,-0.29272787,2.93684442

>  <Name>
ligand

>  <RI>
0

>  <Rbt.Current_Directory>
/home/itssahil/PROJECTS/Mol_Feturizer/New_Systems/rnas/3TZR

>  <Rbt.Executable>
rbdock ($Id: //depot/dev/client3/rdock/2013.1/src/exe/rbdock.cxx#4 $)

>  <Rbt.Library>
libRbt.so (2013.1, Build901 2013/11/27)

>  <Rbt.Parameter_File>
/export/apps/rDock/src/rDock_2013.1_src/data/scripts/dock_solv.prm

>  <Rbt.Receptor>
prm/pocket_docking_7.prm

>  <SCORE>
-35.1545

>  <SCORE.INTER>
-25.4884

>  <SCORE.INTER.CONST>
1

>  <SCORE.INTER.POLAR>
0

>  <SCORE.INTER.ROT>
6

>  <SCORE.INTER.SOLV>
19.8557

>  <SCORE.INTER.VDW>
-31.2108

>  <SCORE.INTER.norm>
-1.06202

>  <SCORE.INTRA>
-9.66611

>  <SCORE.INTRA.DIHEDRAL>
3.65632

>  <SCORE.INTRA.DIHEDRAL.0>
4.94008

>  <SCORE.INTRA.POLAR>
0

>  <SCORE.INTRA.POLAR.0>
0

>  <SCORE.INTRA.REPUL>
0

>  <SCORE.INTRA.REPUL.0>
0

>  <SCORE.INTRA.SOLV>
-0.164824

>  <SCORE.INTRA.SOLV.lig_0>
-31.4704

>  <SCORE.INTRA.VDW>
-11.4119

>  <SCORE.INTRA.VDW.0>
10.2807

>  <SCORE.INTRA.norm>
-0.402755

>  <SCORE.RESTR>
0

>  <SCORE.RESTR.CAVITY>
0

>  <SCORE.RESTR.norm>
0

>  <SCORE.SYSTEM>
0

>  <SCORE.SYSTEM.CONST>
0

>  <SCORE.SYSTEM.DIHEDRAL>
0

>  <SCORE.SYSTEM.SOLV>
0

>  <SCORE.SYSTEM.norm>
0

>  <SCORE.heavy>
24

>  <SCORE.norm>
-1.46477

>  <RMSD>
0.662

$$$$
ligand
 OpenBabel11021811493D
libRbt.so/2013.1/901 2013/11/27
 24 26  0  0  0  0  0  0  0  0999 V2000
    7.0294  -11.0198   -9.7594 N   0  0  0  0  0  0  0  0  0  0  0  0
    8.2114  -11.5289   -9.0827 C   0  0  0  0  0  0  0  0  0  0  0  0
   13.3673   -6.3155  -12.8064 O   0  0  0  0  0  0  0  0  0  0  0  0
   12.0975   -5.8223  -12.5377 C   0  0  0  0  0  0  0  0  0  0  0  0
    8.1165   -4.4744  -11.7674 N   0  0  0  0  0  0  0  0  0  0  0  0
   11.8435   -4.3444  -12.4031 C   0  0  0  0  0  0  0  0  0  0  0  0
    8.4044   -6.6957  -11.9360 N   0  0  0  0  0  0  0  0  0  0  0  0
   10.5385   -3.8086  -12.1539 C   0  0  0  0  0  0  0  0  0  0  0  0
    6.0794   -5.8818  -11.4791 N   0  0  0  0  0  0  0  0  0  0  0  0
    9.4656   -4.7596  -12.0203 C   0  0  0  0  0  0  0  0  0  0  0  0
   13.1131  -10.9889  -12.5689 N   0  0  0  0  0  0  0  0  0  0  0  0
    9.6971   -6.1749  -12.1314 C   0  0  0  0  0  0  0  0  0  0  0  0
   11.0683   -6.6866  -12.4025 C   0  0  0  0  0  0  0  0  0  0  0  0
    7.4780   -5.6798  -11.7258 C   0  0  0  0  0  0  0  0  0  0  0  0
   11.2910   -8.1824  -12.5259 C   0  0  0  0  0  0  0  0  0  0  0  0
   12.7518   -8.6181  -12.5680 C   0  0  1  0  0  0  0  0  0  0  0  0
   13.6968   -7.5122  -12.1937 C   0  0  0  0  0  0  0  0  0  0  0  0
   12.9556   -9.8432  -11.6896 C   0  0  0  0  0  0  0  0  0  0  0  0
    8.0619   -8.1279  -12.0306 C   0  0  0  0  0  0  0  0  0  0  0  0
   14.5324  -11.1695  -12.8422 C   0  0  0  0  0  0  0  0  0  0  0  0
   12.5953  -12.1528  -11.8669 C   0  0  0  0  0  0  0  0  0  0  0  0
    7.7480   -8.8217  -10.6939 C   0  0  0  0  0  0  0  0  0  0  0  0
    7.4131  -10.2975  -10.9807 C   0  0  0  0  0  0  0  0  0  0  0  0
    6.1599  -12.1505  -10.0645 C   0  0  0  0  0  0  0  0  0  0  0  0
  1 23  1  0  0  0  0
  1 24  1  0  0  0  0
  1  2  1  0  0  0  0
  3  4  1  0  0  0  0
  3 17  1  0  0  0  0
  4  6  2  0  0  0  0
  4 13  1  0  0  0  0
  5 10  1  0  0  0  0
  5 14  2  0  0  0  0
  6  8  1  0  0  0  0
  7 12  1  0  0  0  0
  7 14  1  0  0  0  0
  7 19  1  0  0  0  0
  8 10  2  0  0  0  0
  9 14  1  0  0  0  0
 10 12  1  0  0  0  0
 11 18  1  0  0  0  0
 11 20  1  0  0  0  0
 11 21  1  0  0  0  0
 12 13  2  0  0  0  0
 13 15  1  0  0  0  0
 15 16  1  0  0  0  0
 16 17  1  0  0  0  0
 16 18  1  1  0  0  0
 19 22  1  0  0  0  0
 22 23  1  0  0  0  0
M  END
>  <CHROM.1>
-86.23414775,108.19658222,91.71058830,105.73476005,179.91580128,-176.94975467
10.16258853,-8.10907131,-11.73488242,-2.81814302,0.26764287,-0.18905070

>  <Name>
ligand

>  <RI>
144

>  <Rbt.Current_Directory>
/home/itssahil/PROJECTS/Mol_Feturizer/New_Systems/rnas/3TZR

>  <Rbt.Executable>
rbdock ($Id: //depot/dev/client3/rdock/2013.1/src/exe/rbdock.cxx#4 $)

>  <Rbt.Library>
libRbt.so (2013.1, Build901 2013/11/27)

>  <Rbt.Parameter_File>
/export/apps/rDock/src/rDock_2013.1_src/data/scripts/dock_solv.prm

>  <Rbt.Receptor>
prm/pocket_docking_8.prm

>  <SCORE>
-35.6115

>  <SCORE.INTER>
-26.0393

>  <SCORE.INTER.CONST>
1

>  <SCORE.INTER.POLAR>
0

>  <SCORE.INTER.ROT>
6

>  <SCORE.INTER.SOLV>
20.0859

>  <SCORE.INTER.VDW>
-31.6549

>  <SCORE.INTER.norm>
-1.08497

>  <SCORE.INTRA>
-9.57215

>  <SCORE.INTRA.DIHEDRAL>
3.1057

>  <SCORE.INTRA.DIHEDRAL.0>
4.94008

>  <SCORE.INTRA.POLAR>
0

>  <SCORE.INTRA.POLAR.0>
0

>  <SCORE.INTRA.REPUL>
0

>  <SCORE.INTRA.REPUL.0>
0

>  <SCORE.INTRA.SOLV>
0.238271

>  <SCORE.INTRA.SOLV.lig_0>
-31.4704

>  <SCORE.INTRA.VDW>
-11.2441

>  <SCORE.INTRA.VDW.0>
10.2807

>  <SCORE.INTRA.norm>
-0.39884

>  <SCORE.RESTR>
0

>  <SCORE.RESTR.CAVITY>
0

>  <SCORE.RESTR.norm>
0

>  <SCORE.SYSTEM>
0

>  <SCORE.SYSTEM.CONST>
0

>  <SCORE.SYSTEM.DIHEDRAL>
0

>  <SCORE.SYSTEM.SOLV>
0

>  <SCORE.SYSTEM.norm>
0

>  <SCORE.heavy>
24

>  <SCORE.norm>
-1.48381

>  <RMSD>
0.664

$$$$
ligand
 OpenBabel11021811493D
libRbt.so/2013.1/901 2013/11/27
 24 26  0  0  0  0  0  0  0  0999 V2000
    7.4777  -10.8847   -9.9330 N   0  0  0  0  0  0  0  0  0  0  0  0
    8.7192  -11.6268   -9.7839 C   0  0  0  0  0  0  0  0  0  0  0  0
   13.6026   -7.3307  -12.3436 O   0  0  0  0  0  0  0  0  0  0  0  0
   12.4692   -6.5342  -12.2498 C   0  0  0  0  0  0  0  0  0  0  0  0
    8.8751   -4.2349  -12.0175 N   0  0  0  0  0  0  0  0  0  0  0  0
   12.5677   -5.0322  -12.2182 C   0  0  0  0  0  0  0  0  0  0  0  0
    8.6329   -6.4679  -12.0426 N   0  0  0  0  0  0  0  0  0  0  0  0
   11.4126   -4.1877  -12.1499 C   0  0  0  0  0  0  0  0  0  0  0  0
    6.5397   -5.0986  -11.9012 N   0  0  0  0  0  0  0  0  0  0  0  0
   10.1337   -4.8472  -12.0966 C   0  0  0  0  0  0  0  0  0  0  0  0
   13.4213  -11.4065  -11.2089 N   0  0  0  0  0  0  0  0  0  0  0  0
   10.0262   -6.2816  -12.1105 C   0  0  0  0  0  0  0  0  0  0  0  0
   11.2533   -7.1199  -12.1940 C   0  0  0  0  0  0  0  0  0  0  0  0
    7.9633   -5.2499  -11.9921 C   0  0  0  0  0  0  0  0  0  0  0  0
   11.1191   -8.6311  -12.2173 C   0  0  0  0  0  0  0  0  0  0  0  0
   12.4277   -9.3996  -12.0669 C   0  0  1  0  0  0  0  0  0  0  0  0
   13.5687   -8.5216  -11.6390 C   0  0  0  0  0  0  0  0  0  0  0  0
   12.2386  -10.5684  -11.1119 C   0  0  0  0  0  0  0  0  0  0  0  0
    7.9658   -7.7825  -12.1066 C   0  0  0  0  0  0  0  0  0  0  0  0
   13.3896  -12.3773  -10.1234 C   0  0  0  0  0  0  0  0  0  0  0  0
   13.3638  -12.0969  -12.4879 C   0  0  0  0  0  0  0  0  0  0  0  0
    8.0246   -8.6167  -10.8153 C   0  0  0  0  0  0  0  0  0  0  0  0
    7.5304  -10.0401  -11.1348 C   0  0  0  0  0  0  0  0  0  0  0  0
    6.3824  -11.8448  -10.0087 C   0  0  0  0  0  0  0  0  0  0  0  0
  1 23  1  0  0  0  0
  1 24  1  0  0  0  0
  1  2  1  0  0  0  0
  3  4  1  0  0  0  0
  3 17  1  0  0  0  0
  4  6  2  0  0  0  0
  4 13  1  0  0  0  0
  5 10  1  0  0  0  0
  5 14  2  0  0  0  0
  6  8  1  0  0  0  0
  7 12  1  0  0  0  0
  7 14  1  0  0  0  0
  7 19  1  0  0  0  0
  8 10  2  0  0  0  0
  9 14  1  0  0  0  0
 10 12  1  0  0  0  0
 11 18  1  0  0  0  0
 11 20  1  0  0  0  0
 11 21  1  0  0  0  0
 12 13  2  0  0  0  0
 13 15  1  0  0  0  0
 15 16  1  0  0  0  0
 16 17  1  0  0  0  0
 16 18  1  1  0  0  0
 19 22  1  0  0  0  0
 22 23  1  0  0  0  0
M  END
>  <CHROM.1>
-93.10984882,77.03268941,168.80971095,169.04890680,-169.27039863,-176.56693327
10.37444941,-8.32312957,-11.54820794,1.14460248,-0.15475145,2.90235348

>  <Name>
ligand

>  <RI>
144

>  <Rbt.Current_Directory>
/home/itssahil/PROJECTS/Mol_Feturizer/New_Systems/rnas/3TZR

>  <Rbt.Executable>
rbdock ($Id: //depot/dev/client3/rdock/2013.1/src/exe/rbdock.cxx#4 $)

>  <Rbt.Library>
libRbt.so (2013.1, Build901 2013/11/27)

>  <Rbt.Parameter_File>
/export/apps/rDock/src/rDock_2013.1_src/data/scripts/dock_solv.prm

>  <Rbt.Receptor>
prm/blind_docking_60.prm

>  <SCORE>
-32.0769

>  <SCORE.INTER>
-21.1908

>  <SCORE.INTER.CONST>
1

>  <SCORE.INTER.POLAR>
0

>  <SCORE.INTER.ROT>
6

>  <SCORE.INTER.SOLV>
21.8939

>  <SCORE.INTER.VDW>
-29.0252

>  <SCORE.INTER.norm>
-0.882951

>  <SCORE.INTRA>
-10.9204

>  <SCORE.INTRA.DIHEDRAL>
-1.05194

>  <SCORE.INTRA.DIHEDRAL.0>
4.94008

>  <SCORE.INTRA.POLAR>
0

>  <SCORE.INTRA.POLAR.0>
0

>  <SCORE.INTRA.REPUL>
0

>  <SCORE.INTRA.REPUL.0>
0

>  <SCORE.INTRA.SOLV>
-0.31214

>  <SCORE.INTRA.SOLV.lig_0>
-31.4704

>  <SCORE.INTRA.VDW>
-10.2383

>  <SCORE.INTRA.VDW.0>
10.2807

>  <SCORE.INTRA.norm>
-0.455015

>  <SCORE.RESTR>
0.03429

>  <SCORE.RESTR.CAVITY>
0.03429

>  <SCORE.RESTR.norm>
0.00142875

>  <SCORE.SYSTEM>
0

>  <SCORE.SYSTEM.CONST>
0

>  <SCORE.SYSTEM.DIHEDRAL>
0

>  <SCORE.SYSTEM.SOLV>
0

>  <SCORE.SYSTEM.norm>
0

>  <SCORE.heavy>
24

>  <SCORE.norm>
-1.33654

>  <RMSD>
0.670

$$$$
ligand
 OpenBabel11021811493D
libRbt.so/2013.1/901 2013/11/27
 24 26  0  0  0  0  0  0  0  0999 V2000
    7.4391  -11.0798   -9.5740 N   0  0  0  0  0  0  0  0  0  0  0  0
    8.6360  -11.8604   -9.3049 C   0  0  0  0  0  0  0  0  0  0  0  0
   13.4767   -6.7596  -13.0319 O   0  0  0  0  0  0  0  0  0  0  0  0
   12.2723   -6.1634  -12.6831 C   0  0  0  0  0  0  0  0  0  0  0  0
    8.4749   -4.4918  -11.6608 N   0  0  0  0  0  0  0  0  0  0  0  0
   12.1506   -4.6697  -12.5381 C   0  0  0  0  0  0  0  0  0  0  0  0
    8.5666   -6.7291  -11.8391 N   0  0  0  0  0  0  0  0  0  0  0  0
   10.9134   -4.0282  -12.2067 C   0  0  0  0  0  0  0  0  0  0  0  0
    6.3516   -5.7263  -11.2351 N   0  0  0  0  0  0  0  0  0  0  0  0
    9.7765   -4.8873  -11.9999 C   0  0  0  0  0  0  0  0  0  0  0  0
   13.1542  -11.3564  -12.7583 N   0  0  0  0  0  0  0  0  0  0  0  0
    9.8824   -6.3168  -12.1202 C   0  0  0  0  0  0  0  0  0  0  0  0
   11.1861   -6.9398  -12.4779 C   0  0  0  0  0  0  0  0  0  0  0  0
    7.7431   -5.6403  -11.5731 C   0  0  0  0  0  0  0  0  0  0  0  0
   11.2759   -8.4487  -12.6097 C   0  0  0  0  0  0  0  0  0  0  0  0
   12.6898   -9.0036  -12.7450 C   0  0  1  0  0  0  0  0  0  0  0  0
   13.7453   -7.9803  -12.4373 C   0  0  0  0  0  0  0  0  0  0  0  0
   12.8485  -10.2427  -11.8769 C   0  0  0  0  0  0  0  0  0  0  0  0
    8.1015   -8.1279  -11.9056 C   0  0  0  0  0  0  0  0  0  0  0  0
   14.5782  -11.6464  -12.6588 C   0  0  0  0  0  0  0  0  0  0  0  0
   12.3856  -12.5020  -12.2976 C   0  0  0  0  0  0  0  0  0  0  0  0
    8.0231   -8.8628  -10.5564 C   0  0  0  0  0  0  0  0  0  0  0  0
    7.5971  -10.3190  -10.8216 C   0  0  0  0  0  0  0  0  0  0  0  0
    6.3082  -11.9975   -9.6535 C   0  0  0  0  0  0  0  0  0  0  0  0
  1 23  1  0  0  0  0
  1 24  1  0  0  0  0
  1  2  1  0  0  0  0
  3  4  1  0  0  0  0
  3 17  1  0  0  0  0
  4  6  2  0  0  0  0
  4 13  1  0  0  0  0
  5 10  1  0  0  0  0
  5 14  2  0  0  0  0
  6  8  1  0  0  0  0
  7 12  1  0  0  0  0
  7 14  1  0  0  0  0
  7 19  1  0  0  0  0
  8 10  2  0  0  0  0
  9 14  1  0  0  0  0
 10 12  1  0  0  0  0
 11 18  1  0  0  0  0
 11 20  1  0  0  0  0
 11 21  1  0  0  0  0
 12 13  2  0  0  0  0
 13 15  1  0  0  0  0
 15 16  1  0  0  0  0
 16 17  1  0  0  0  0
 16 18  1  1  0  0  0
 19 22  1  0  0  0  0
 22 23  1  0  0  0  0
M  END
>  <CHROM.1>
-97.84447883,99.32141057,103.29181627,118.32088680,-176.97251259,-177.45254264
10.31932216,-8.30752955,-11.74887268,0.84471742,-0.33513465,2.95835908

>  <Name>
ligand

>  <RI>
0

>  <Rbt.Current_Directory>
/home/itssahil/PROJECTS/Mol_Feturizer/New_Systems/rnas/3TZR

>  <Rbt.Executable>
rbdock ($Id: //depot/dev/client3/rdock/2013.1/src/exe/rbdock.cxx#4 $)

>  <Rbt.Library>
libRbt.so (2013.1, Build901 2013/11/27)

>  <Rbt.Parameter_File>
/export/apps/rDock/src/rDock_2013.1_src/data/scripts/dock_solv.prm

>  <Rbt.Receptor>
prm/pocket_docking_7.prm

>  <SCORE>
-34.7613

>  <SCORE.INTER>
-25.5031

>  <SCORE.INTER.CONST>
1

>  <SCORE.INTER.POLAR>
0

>  <SCORE.INTER.ROT>
6

>  <SCORE.INTER.SOLV>
20.1438

>  <SCORE.INTER.VDW>
-31.3167

>  <SCORE.INTER.norm>
-1.06263

>  <SCORE.INTRA>
-9.25819

>  <SCORE.INTRA.DIHEDRAL>
5.24274

>  <SCORE.INTRA.DIHEDRAL.0>
4.94008

>  <SCORE.INTRA.POLAR>
0

>  <SCORE.INTRA.POLAR.0>
0

>  <SCORE.INTRA.REPUL>
0

>  <SCORE.INTRA.REPUL.0>
0

>  <SCORE.INTRA.SOLV>
0.00692779

>  <SCORE.INTRA.SOLV.lig_0>
-31.4704

>  <SCORE.INTRA.VDW>
-11.883

>  <SCORE.INTRA.VDW.0>
10.2807

>  <SCORE.INTRA.norm>
-0.385758

>  <SCORE.RESTR>
0

>  <SCORE.RESTR.CAVITY>
0

>  <SCORE.RESTR.norm>
0

>  <SCORE.SYSTEM>
0

>  <SCORE.SYSTEM.CONST>
0

>  <SCORE.SYSTEM.DIHEDRAL>
0

>  <SCORE.SYSTEM.SOLV>
0

>  <SCORE.SYSTEM.norm>
0

>  <SCORE.heavy>
24

>  <SCORE.norm>
-1.44839

>  <RMSD>
0.682

$$$$
ligand
 OpenBabel11021811493D
libRbt.so/2013.1/901 2013/11/27
 24 26  0  0  0  0  0  0  0  0999 V2000
    6.9833  -11.0143   -9.8346 N   0  0  0  0  0  0  0  0  0  0  0  0
    8.1411  -11.6672   -9.2451 C   0  0  0  0  0  0  0  0  0  0  0  0
   13.5864   -6.7226  -12.9397 O   0  0  0  0  0  0  0  0  0  0  0  0
   12.3715   -6.1394  -12.6056 C   0  0  0  0  0  0  0  0  0  0  0  0
    8.5436   -4.5058  -11.6375 N   0  0  0  0  0  0  0  0  0  0  0  0
   12.2447   -4.6524  -12.4067 C   0  0  0  0  0  0  0  0  0  0  0  0
    8.6417   -6.7345  -11.8994 N   0  0  0  0  0  0  0  0  0  0  0  0
   10.9976   -4.0232  -12.0892 C   0  0  0  0  0  0  0  0  0  0  0  0
    6.4086   -5.7541  -11.3260 N   0  0  0  0  0  0  0  0  0  0  0  0
    9.8552   -4.8888  -11.9511 C   0  0  0  0  0  0  0  0  0  0  0  0
   13.3057  -11.3165  -12.8471 N   0  0  0  0  0  0  0  0  0  0  0  0
    9.9654   -6.3126  -12.1234 C   0  0  0  0  0  0  0  0  0  0  0  0
   11.2798   -6.9223  -12.4644 C   0  0  0  0  0  0  0  0  0  0  0  0
    7.8098   -5.6562  -11.6171 C   0  0  0  0  0  0  0  0  0  0  0  0
   11.3743   -8.4251  -12.6517 C   0  0  0  0  0  0  0  0  0  0  0  0
   12.7919   -8.9755  -12.7645 C   0  0  1  0  0  0  0  0  0  0  0  0
   13.8370   -7.9657  -12.3848 C   0  0  0  0  0  0  0  0  0  0  0  0
   12.9241  -10.2474  -11.9406 C   0  0  0  0  0  0  0  0  0  0  0  0
    8.1794   -8.1293  -12.0345 C   0  0  0  0  0  0  0  0  0  0  0  0
   14.7032  -11.6494  -12.6061 C   0  0  0  0  0  0  0  0  0  0  0  0
   12.4672  -12.4658  -12.5449 C   0  0  0  0  0  0  0  0  0  0  0  0
    7.7846   -8.8245  -10.7201 C   0  0  0  0  0  0  0  0  0  0  0  0
    7.3760  -10.2742  -11.0423 C   0  0  0  0  0  0  0  0  0  0  0  0
    5.9924  -12.0397  -10.1412 C   0  0  0  0  0  0  0  0  0  0  0  0
  1 23  1  0  0  0  0
  1 24  1  0  0  0  0
  1  2  1  0  0  0  0
  3  4  1  0  0  0  0
  3 17  1  0  0  0  0
  4  6  2  0  0  0  0
  4 13  1  0  0  0  0
  5 10  1  0  0  0  0
  5 14  2  0  0  0  0
  6  8  1  0  0  0  0
  7 12  1  0  0  0  0
  7 14  1  0  0  0  0
  7 19  1  0  0  0  0
  8 10  2  0  0  0  0
  9 14  1  0  0  0  0
 10 12  1  0  0  0  0
 11 18  1  0  0  0  0
 11 20  1  0  0  0  0
 11 21  1  0  0  0  0
 12 13  2  0  0  0  0
 13 15  1  0  0  0  0
 15 16  1  0  0  0  0
 16 17  1  0  0  0  0
 16 18  1  1  0  0  0
 19 22  1  0  0  0  0
 22 23  1  0  0  0  0
M  END
>  <CHROM.1>
-89.82771871,111.29253483,107.29444141,120.37784051,-178.14843215,179.93071158
10.31360693,-8.28685798,-11.80588773,-3.13164883,0.29985031,-0.13646186

>  <Name>
ligand

>  <RI>
0

>  <Rbt.Current_Directory>
/home/itssahil/PROJECTS/Mol_Feturizer/New_Systems/rnas/3TZR

>  <Rbt.Executable>
rbdock ($Id: //depot/dev/client3/rdock/2013.1/src/exe/rbdock.cxx#4 $)

>  <Rbt.Library>
libRbt.so (2013.1, Build901 2013/11/27)

>  <Rbt.Parameter_File>
/export/apps/rDock/src/rDock_2013.1_src/data/scripts/dock_solv.prm

>  <Rbt.Receptor>
prm/pocket_docking_5.prm

>  <SCORE>
-34.8234

>  <SCORE.INTER>
-25.7574

>  <SCORE.INTER.CONST>
1

>  <SCORE.INTER.POLAR>
0

>  <SCORE.INTER.ROT>
6

>  <SCORE.INTER.SOLV>
20.2285

>  <SCORE.INTER.VDW>
-31.5144

>  <SCORE.INTER.norm>
-1.07323

>  <SCORE.INTRA>
-9.066

>  <SCORE.INTRA.DIHEDRAL>
4.8485

>  <SCORE.INTRA.DIHEDRAL.0>
4.94008

>  <SCORE.INTRA.POLAR>
0

>  <SCORE.INTRA.POLAR.0>
0

>  <SCORE.INTRA.REPUL>
0

>  <SCORE.INTRA.REPUL.0>
0

>  <SCORE.INTRA.SOLV>
0.306336

>  <SCORE.INTRA.SOLV.lig_0>
-31.4704

>  <SCORE.INTRA.VDW>
-11.6434

>  <SCORE.INTRA.VDW.0>
10.2807

>  <SCORE.INTRA.norm>
-0.37775

>  <SCORE.RESTR>
0

>  <SCORE.RESTR.CAVITY>
0

>  <SCORE.RESTR.norm>
0

>  <SCORE.SYSTEM>
0

>  <SCORE.SYSTEM.CONST>
0

>  <SCORE.SYSTEM.DIHEDRAL>
0

>  <SCORE.SYSTEM.SOLV>
0

>  <SCORE.SYSTEM.norm>
0

>  <SCORE.heavy>
24

>  <SCORE.norm>
-1.45098

>  <RMSD>
0.700

$$$$
ligand
 OpenBabel11021811493D
libRbt.so/2013.1/901 2013/11/27
 24 26  0  0  0  0  0  0  0  0999 V2000
    7.1725  -11.0368   -9.8999 N   0  0  0  0  0  0  0  0  0  0  0  0
    8.4410  -11.6580   -9.5545 C   0  0  0  0  0  0  0  0  0  0  0  0
   13.2640   -6.1822  -12.7705 O   0  0  0  0  0  0  0  0  0  0  0  0
   11.9762   -5.7175  -12.5390 C   0  0  0  0  0  0  0  0  0  0  0  0
    7.9453   -4.4585  -11.8869 N   0  0  0  0  0  0  0  0  0  0  0  0
   11.6871   -4.2463  -12.4018 C   0  0  0  0  0  0  0  0  0  0  0  0
    8.2849   -6.6720  -12.0624 N   0  0  0  0  0  0  0  0  0  0  0  0
   10.3640   -3.7396  -12.1907 C   0  0  0  0  0  0  0  0  0  0  0  0
    5.9300   -5.9100  -11.6743 N   0  0  0  0  0  0  0  0  0  0  0  0
    9.3074   -4.7137  -12.0985 C   0  0  0  0  0  0  0  0  0  0  0  0
   13.0543  -10.8691  -12.5755 N   0  0  0  0  0  0  0  0  0  0  0  0
    9.5719   -6.1230  -12.2124 C   0  0  0  0  0  0  0  0  0  0  0  0
   10.9615   -6.6040  -12.4433 C   0  0  0  0  0  0  0  0  0  0  0  0
    7.3312   -5.6771  -11.8746 C   0  0  0  0  0  0  0  0  0  0  0  0
   11.2194   -8.0938  -12.5704 C   0  0  0  0  0  0  0  0  0  0  0  0
   12.6895   -8.4988  -12.5689 C   0  0  1  0  0  0  0  0  0  0  0  0
   13.5987   -7.3767  -12.1564 C   0  0  0  0  0  0  0  0  0  0  0  0
   12.8909   -9.7264  -11.6933 C   0  0  0  0  0  0  0  0  0  0  0  0
    7.9756   -8.1101  -12.1785 C   0  0  0  0  0  0  0  0  0  0  0  0
   14.4736  -11.0348  -12.8581 C   0  0  0  0  0  0  0  0  0  0  0  0
   12.5530  -12.0393  -11.8721 C   0  0  0  0  0  0  0  0  0  0  0  0
    7.4073   -8.7681  -10.9093 C   0  0  0  0  0  0  0  0  0  0  0  0
    7.2992  -10.2845  -11.1563 C   0  0  0  0  0  0  0  0  0  0  0  0
    6.1686  -12.0890  -10.0122 C   0  0  0  0  0  0  0  0  0  0  0  0
  1 23  1  0  0  0  0
  1 24  1  0  0  0  0
  1  2  1  0  0  0  0
  3  4  1  0  0  0  0
  3 17  1  0  0  0  0
  4  6  2  0  0  0  0
  4 13  1  0  0  0  0
  5 10  1  0  0  0  0
  5 14  2  0  0  0  0
  6  8  1  0  0  0  0
  7 12  1  0  0  0  0
  7 14  1  0  0  0  0
  7 19  1  0  0  0  0
  8 10  2  0  0  0  0
  9 14  1  0  0  0  0
 10 12  1  0  0  0  0
 11 18  1  0  0  0  0
 11 20  1  0  0  0  0
 11 21  1  0  0  0  0
 12 13  2  0  0  0  0
 13 15  1  0  0  0  0
 15 16  1  0  0  0  0
 16 17  1  0  0  0  0
 16 18  1  1  0  0  0
 19 22  1  0  0  0  0
 22 23  1  0  0  0  0
M  END
>  <CHROM.1>
-102.74563582,118.03804419,90.88641632,103.81110443,-173.52702290,162.19802999
10.07664518,-8.04971939,-11.81625997,-2.92102434,0.23582871,-0.18957847

>  <Name>
ligand

>  <RI>
144

>  <Rbt.Current_Directory>
/home/itssahil/PROJECTS/Mol_Feturizer/New_Systems/rnas/3TZR

>  <Rbt.Executable>
rbdock ($Id: //depot/dev/client3/rdock/2013.1/src/exe/rbdock.cxx#4 $)

>  <Rbt.Library>
libRbt.so (2013.1, Build901 2013/11/27)

>  <Rbt.Parameter_File>
/export/apps/rDock/src/rDock_2013.1_src/data/scripts/dock_solv.prm

>  <Rbt.Receptor>
prm/blind_docking_60.prm

>  <SCORE>
-33.7113

>  <SCORE.INTER>
-25.1932

>  <SCORE.INTER.CONST>
1

>  <SCORE.INTER.POLAR>
0

>  <SCORE.INTER.ROT>
6

>  <SCORE.INTER.SOLV>
20.2519

>  <SCORE.INTER.VDW>
-31.1461

>  <SCORE.INTER.norm>
-1.04972

>  <SCORE.INTRA>
-8.80392

>  <SCORE.INTRA.DIHEDRAL>
5.02139

>  <SCORE.INTRA.DIHEDRAL.0>
4.94008

>  <SCORE.INTRA.POLAR>
0

>  <SCORE.INTRA.POLAR.0>
0

>  <SCORE.INTRA.REPUL>
0

>  <SCORE.INTRA.REPUL.0>
0

>  <SCORE.INTRA.SOLV>
0.452782

>  <SCORE.INTRA.SOLV.lig_0>
-31.4704

>  <SCORE.INTRA.VDW>
-11.541

>  <SCORE.INTRA.VDW.0>
10.2807

>  <SCORE.INTRA.norm>
-0.36683

>  <SCORE.RESTR>
0.285819

>  <SCORE.RESTR.CAVITY>
0.285819

>  <SCORE.RESTR.norm>
0.0119091

>  <SCORE.SYSTEM>
0

>  <SCORE.SYSTEM.CONST>
0

>  <SCORE.SYSTEM.DIHEDRAL>
0

>  <SCORE.SYSTEM.SOLV>
0

>  <SCORE.SYSTEM.norm>
0

>  <SCORE.heavy>
24

>  <SCORE.norm>
-1.40464

>  <RMSD>
0.716

$$$$
ligand
 OpenBabel11021811493D
libRbt.so/2013.1/901 2013/11/27
 24 26  0  0  0  0  0  0  0  0999 V2000
    6.8600  -10.6521  -10.0859 N   0  0  0  0  0  0  0  0  0  0  0  0
    8.0087  -11.3394   -9.5181 C   0  0  0  0  0  0  0  0  0  0  0  0
   13.7765   -7.4138  -12.6635 O   0  0  0  0  0  0  0  0  0  0  0  0
   12.6654   -6.6069  -12.4581 C   0  0  0  0  0  0  0  0  0  0  0  0
    9.1345   -4.2681  -11.8908 N   0  0  0  0  0  0  0  0  0  0  0  0
   12.7984   -5.1152  -12.3031 C   0  0  0  0  0  0  0  0  0  0  0  0
    8.8420   -6.4858  -12.0956 N   0  0  0  0  0  0  0  0  0  0  0  0
   11.6657   -4.2579  -12.1183 C   0  0  0  0  0  0  0  0  0  0  0  0
    6.7865   -5.0942  -11.7567 N   0  0  0  0  0  0  0  0  0  0  0  0
   10.3754   -4.8952  -12.0709 C   0  0  0  0  0  0  0  0  0  0  0  0
   13.4309  -11.6594  -12.0292 N   0  0  0  0  0  0  0  0  0  0  0  0
   10.2355   -6.3208  -12.2021 C   0  0  0  0  0  0  0  0  0  0  0  0
   11.4397   -7.1721  -12.4045 C   0  0  0  0  0  0  0  0  0  0  0  0
    8.2020   -5.2641  -11.9159 C   0  0  0  0  0  0  0  0  0  0  0  0
   11.2711   -8.6729  -12.5505 C   0  0  0  0  0  0  0  0  0  0  0  0
   12.5670   -9.4761  -12.5172 C   0  0  1  0  0  0  0  0  0  0  0  0
   13.7425   -8.6598  -12.0616 C   0  0  0  0  0  0  0  0  0  0  0  0
   12.3879  -10.7186  -11.6581 C   0  0  0  0  0  0  0  0  0  0  0  0
    8.1439   -7.7772  -12.2447 C   0  0  0  0  0  0  0  0  0  0  0  0
   13.6505  -12.5691  -10.9129 C   0  0  0  0  0  0  0  0  0  0  0  0
   12.9563  -12.4044  -13.1847 C   0  0  0  0  0  0  0  0  0  0  0  0
    7.8929   -8.5472  -10.9367 C   0  0  0  0  0  0  0  0  0  0  0  0
    7.2565   -9.9051  -11.2881 C   0  0  0  0  0  0  0  0  0  0  0  0
    5.8422  -11.6502  -10.3948 C   0  0  0  0  0  0  0  0  0  0  0  0
  1 23  1  0  0  0  0
  1 24  1  0  0  0  0
  1  2  1  0  0  0  0
  3  4  1  0  0  0  0
  3 17  1  0  0  0  0
  4  6  2  0  0  0  0
  4 13  1  0  0  0  0
  5 10  1  0  0  0  0
  5 14  2  0  0  0  0
  6  8  1  0  0  0  0
  7 12  1  0  0  0  0
  7 14  1  0  0  0  0
  7 19  1  0  0  0  0
  8 10  2  0  0  0  0
  9 14  1  0  0  0  0
 10 12  1  0  0  0  0
 11 18  1  0  0  0  0
 11 20  1  0  0  0  0
 11 21  1  0  0  0  0
 12 13  2  0  0  0  0
 13 15  1  0  0  0  0
 15 16  1  0  0  0  0
 16 17  1  0  0  0  0
 16 18  1  1  0  0  0
 19 22  1  0  0  0  0
 22 23  1  0  0  0  0
M  END
>  <CHROM.1>
-81.54436794,93.27788892,156.55514783,160.11489630,-175.83217792,-174.32832292
10.39658736,-8.35295686,-11.77821141,2.24822905,0.22155997,-0.15750592

>  <Name>
ligand

>  <RI>
0

>  <Rbt.Current_Directory>
/home/itssahil/PROJECTS/Mol_Feturizer/New_Systems/rnas/3TZR

>  <Rbt.Executable>
rbdock ($Id: //depot/dev/client3/rdock/2013.1/src/exe/rbdock.cxx#4 $)

>  <Rbt.Library>
libRbt.so (2013.1, Build901 2013/11/27)

>  <Rbt.Parameter_File>
/export/apps/rDock/src/rDock_2013.1_src/data/scripts/dock_solv.prm

>  <Rbt.Receptor>
prm/pocket_docking_4.prm

>  <SCORE>
-34.9007

>  <SCORE.INTER>
-23.8961

>  <SCORE.INTER.CONST>
1

>  <SCORE.INTER.POLAR>
0

>  <SCORE.INTER.ROT>
6

>  <SCORE.INTER.SOLV>
21.5062

>  <SCORE.INTER.VDW>
-30.6995

>  <SCORE.INTER.norm>
-0.99567

>  <SCORE.INTRA>
-11.0046

>  <SCORE.INTRA.DIHEDRAL>
-0.522891

>  <SCORE.INTRA.DIHEDRAL.0>
4.94008

>  <SCORE.INTRA.POLAR>
0

>  <SCORE.INTRA.POLAR.0>
0

>  <SCORE.INTRA.REPUL>
0

>  <SCORE.INTRA.REPUL.0>
0

>  <SCORE.INTRA.SOLV>
-0.0583626

>  <SCORE.INTRA.SOLV.lig_0>
-31.4704

>  <SCORE.INTRA.VDW>
-10.714

>  <SCORE.INTRA.VDW.0>
10.2807

>  <SCORE.INTRA.norm>
-0.458527

>  <SCORE.RESTR>
0

>  <SCORE.RESTR.CAVITY>
0

>  <SCORE.RESTR.norm>
0

>  <SCORE.SYSTEM>
0

>  <SCORE.SYSTEM.CONST>
0

>  <SCORE.SYSTEM.DIHEDRAL>
0

>  <SCORE.SYSTEM.SOLV>
0

>  <SCORE.SYSTEM.norm>
0

>  <SCORE.heavy>
24

>  <SCORE.norm>
-1.4542

>  <RMSD>
0.717

$$$$
ligand
 OpenBabel11021811493D
libRbt.so/2013.1/901 2013/11/27
 24 26  0  0  0  0  0  0  0  0999 V2000
    7.1351  -11.0055   -9.6664 N   0  0  0  0  0  0  0  0  0  0  0  0
    8.2745  -11.6797   -9.0650 C   0  0  0  0  0  0  0  0  0  0  0  0
   13.3901   -6.4023  -12.9946 O   0  0  0  0  0  0  0  0  0  0  0  0
   12.1533   -5.8809  -12.6394 C   0  0  0  0  0  0  0  0  0  0  0  0
    8.2655   -4.4431  -11.6019 N   0  0  0  0  0  0  0  0  0  0  0  0
   11.9498   -4.4000  -12.4596 C   0  0  0  0  0  0  0  0  0  0  0  0
    8.4796   -6.6671  -11.8328 N   0  0  0  0  0  0  0  0  0  0  0  0
   10.6778   -3.8347  -12.1209 C   0  0  0  0  0  0  0  0  0  0  0  0
    6.2103   -5.8008  -11.2194 N   0  0  0  0  0  0  0  0  0  0  0  0
    9.5883   -4.7590  -11.9419 C   0  0  0  0  0  0  0  0  0  0  0  0
   13.2614  -11.0284  -12.8378 N   0  0  0  0  0  0  0  0  0  0  0  0
    9.7725   -6.1773  -12.0956 C   0  0  0  0  0  0  0  0  0  0  0  0
   11.1099   -6.7198  -12.4597 C   0  0  0  0  0  0  0  0  0  0  0  0
    7.5967   -5.6313  -11.5463 C   0  0  0  0  0  0  0  0  0  0  0  0
   11.2823   -8.2180  -12.6268 C   0  0  0  0  0  0  0  0  0  0  0  0
   12.7250   -8.6920  -12.7663 C   0  0  1  0  0  0  0  0  0  0  0  0
   13.7217   -7.6207  -12.4275 C   0  0  0  0  0  0  0  0  0  0  0  0
   12.9464   -9.9413  -11.9270 C   0  0  0  0  0  0  0  0  0  0  0  0
    8.0916   -8.0870  -11.9357 C   0  0  0  0  0  0  0  0  0  0  0  0
   14.7073  -11.2031  -12.8656 C   0  0  0  0  0  0  0  0  0  0  0  0
   12.6306  -12.2311  -12.3173 C   0  0  0  0  0  0  0  0  0  0  0  0
    7.7652   -8.7809  -10.6020 C   0  0  0  0  0  0  0  0  0  0  0  0
    7.5518  -10.2815  -10.8758 C   0  0  0  0  0  0  0  0  0  0  0  0
    6.1242  -12.0110   -9.9736 C   0  0  0  0  0  0  0  0  0  0  0  0
  1 23  1  0  0  0  0
  1 24  1  0  0  0  0
  1  2  1  0  0  0  0
  3  4  1  0  0  0  0
  3 17  1  0  0  0  0
  4  6  2  0  0  0  0
  4 13  1  0  0  0  0
  5 10  1  0  0  0  0
  5 14  2  0  0  0  0
  6  8  1  0  0  0  0
  7 12  1  0  0  0  0
  7 14  1  0  0  0  0
  7 19  1  0  0  0  0
  8 10  2  0  0  0  0
  9 14  1  0  0  0  0
 10 12  1  0  0  0  0
 11 18  1  0  0  0  0
 11 20  1  0  0  0  0
 11 21  1  0  0  0  0
 12 13  2  0  0  0  0
 13 15  1  0  0  0  0
 15 16  1  0  0  0  0
 16 17  1  0  0  0  0
 16 18  1  1  0  0  0
 19 22  1  0  0  0  0
 22 23  1  0  0  0  0
M  END
>  <CHROM.1>
-99.28152927,111.36182174,98.72986061,115.95752074,-173.21092955,-175.71458235
10.23205156,-8.12780425,-11.76158238,-3.02347242,0.32085631,-0.16921731

>  <Name>
ligand

>  <RI>
0

>  <Rbt.Current_Directory>
/home/itssahil/PROJECTS/Mol_Feturizer/New_Systems/rnas/3TZR

>  <Rbt.Executable>
rbdock ($Id: //depot/dev/client3/rdock/2013.1/src/exe/rbdock.cxx#4 $)

>  <Rbt.Library>
libRbt.so (2013.1, Build901 2013/11/27)

>  <Rbt.Parameter_File>
/export/apps/rDock/src/rDock_2013.1_src/data/scripts/dock_solv.prm

>  <Rbt.Receptor>
prm/blind_docking_100.prm

>  <SCORE>
-34.7758

>  <SCORE.INTER>
-25.7814

>  <SCORE.INTER.CONST>
1

>  <SCORE.INTER.POLAR>
0

>  <SCORE.INTER.ROT>
6

>  <SCORE.INTER.SOLV>
20.447

>  <SCORE.INTER.VDW>
-31.6032

>  <SCORE.INTER.norm>
-1.07422

>  <SCORE.INTRA>
-8.99446

>  <SCORE.INTRA.DIHEDRAL>
5.15758

>  <SCORE.INTRA.DIHEDRAL.0>
4.94008

>  <SCORE.INTRA.POLAR>
0

>  <SCORE.INTRA.POLAR.0>
0

>  <SCORE.INTRA.REPUL>
0

>  <SCORE.INTRA.REPUL.0>
0

>  <SCORE.INTRA.SOLV>
0.247922

>  <SCORE.INTRA.SOLV.lig_0>
-31.4704

>  <SCORE.INTRA.VDW>
-11.6972

>  <SCORE.INTRA.VDW.0>
10.2807

>  <SCORE.INTRA.norm>
-0.374769

>  <SCORE.RESTR>
0

>  <SCORE.RESTR.CAVITY>
0

>  <SCORE.RESTR.norm>
0

>  <SCORE.SYSTEM>
0

>  <SCORE.SYSTEM.CONST>
0

>  <SCORE.SYSTEM.DIHEDRAL>
0

>  <SCORE.SYSTEM.SOLV>
0

>  <SCORE.SYSTEM.norm>
0

>  <SCORE.heavy>
24

>  <SCORE.norm>
-1.44899

>  <RMSD>
0.731

$$$$
ligand
 OpenBabel11021811493D
libRbt.so/2013.1/901 2013/11/27
 24 26  0  0  0  0  0  0  0  0999 V2000
    6.8959  -11.0217   -9.8197 N   0  0  0  0  0  0  0  0  0  0  0  0
    8.0277  -11.6754   -9.1826 C   0  0  0  0  0  0  0  0  0  0  0  0
   13.7282   -6.9158  -12.9360 O   0  0  0  0  0  0  0  0  0  0  0  0
   12.5209   -6.3121  -12.6109 C   0  0  0  0  0  0  0  0  0  0  0  0
    8.7143   -4.6146  -11.6688 N   0  0  0  0  0  0  0  0  0  0  0  0
   12.4144   -4.8213  -12.4293 C   0  0  0  0  0  0  0  0  0  0  0  0
    8.7820   -6.8473  -11.9050 N   0  0  0  0  0  0  0  0  0  0  0  0
   11.1756   -4.1712  -12.1214 C   0  0  0  0  0  0  0  0  0  0  0  0
    6.5618   -5.8295  -11.3471 N   0  0  0  0  0  0  0  0  0  0  0  0
   10.0210   -5.0193  -11.9756 C   0  0  0  0  0  0  0  0  0  0  0  0
   13.3820  -11.5044  -12.7917 N   0  0  0  0  0  0  0  0  0  0  0  0
   10.1118   -6.4464  -12.1313 C   0  0  0  0  0  0  0  0  0  0  0  0
   11.4182   -7.0781  -12.4628 C   0  0  0  0  0  0  0  0  0  0  0  0
    7.9647   -5.7544  -11.6366 C   0  0  0  0  0  0  0  0  0  0  0  0
   11.4922   -8.5841  -12.6327 C   0  0  0  0  0  0  0  0  0  0  0  0
   12.9022   -9.1553  -12.7365 C   0  0  1  0  0  0  0  0  0  0  0  0
   13.9605   -8.1558  -12.3665 C   0  0  0  0  0  0  0  0  0  0  0  0
   13.0154  -10.4194  -11.8978 C   0  0  0  0  0  0  0  0  0  0  0  0
    8.3006   -8.2370  -12.0249 C   0  0  0  0  0  0  0  0  0  0  0  0
   14.7726  -11.8586  -12.5417 C   0  0  0  0  0  0  0  0  0  0  0  0
   12.5227  -12.6360  -12.4807 C   0  0  0  0  0  0  0  0  0  0  0  0
    7.8184   -8.8844  -10.7153 C   0  0  0  0  0  0  0  0  0  0  0  0
    7.3330  -10.3118  -11.0302 C   0  0  0  0  0  0  0  0  0  0  0  0
    5.9020  -12.0418  -10.1343 C   0  0  0  0  0  0  0  0  0  0  0  0
  1 23  1  0  0  0  0
  1 24  1  0  0  0  0
  1  2  1  0  0  0  0
  3  4  1  0  0  0  0
  3 17  1  0  0  0  0
  4  6  2  0  0  0  0
  4 13  1  0  0  0  0
  5 10  1  0  0  0  0
  5 14  2  0  0  0  0
  6  8  1  0  0  0  0
  7 12  1  0  0  0  0
  7 14  1  0  0  0  0
  7 19  1  0  0  0  0
  8 10  2  0  0  0  0
  9 14  1  0  0  0  0
 10 12  1  0  0  0  0
 11 18  1  0  0  0  0
 11 20  1  0  0  0  0
 11 21  1  0  0  0  0
 12 13  2  0  0  0  0
 13 15  1  0  0  0  0
 15 16  1  0  0  0  0
 16 17  1  0  0  0  0
 16 18  1  1  0  0  0
 19 22  1  0  0  0  0
 22 23  1  0  0  0  0
M  END
>  <CHROM.1>
-86.86917895,114.63883779,107.53302560,120.30517439,179.01221421,178.02437631
10.40018320,-8.41049377,-11.79445284,-3.09562638,0.29609714,-0.13779860

>  <Name>
ligand

>  <RI>
144

>  <Rbt.Current_Directory>
/home/itssahil/PROJECTS/Mol_Feturizer/New_Systems/rnas/3TZR

>  <Rbt.Executable>
rbdock ($Id: //depot/dev/client3/rdock/2013.1/src/exe/rbdock.cxx#4 $)

>  <Rbt.Library>
libRbt.so (2013.1, Build901 2013/11/27)

>  <Rbt.Parameter_File>
/export/apps/rDock/src/rDock_2013.1_src/data/scripts/dock_solv.prm

>  <Rbt.Receptor>
prm/pocket_docking_8.prm

>  <SCORE>
-34.8191

>  <SCORE.INTER>
-25.9062

>  <SCORE.INTER.CONST>
1

>  <SCORE.INTER.POLAR>
0

>  <SCORE.INTER.ROT>
6

>  <SCORE.INTER.SOLV>
19.5724

>  <SCORE.INTER.VDW>
-31.3949

>  <SCORE.INTER.norm>
-1.07942

>  <SCORE.INTRA>
-8.9129

>  <SCORE.INTRA.DIHEDRAL>
4.65798

>  <SCORE.INTRA.DIHEDRAL.0>
4.94008

>  <SCORE.INTRA.POLAR>
0

>  <SCORE.INTRA.POLAR.0>
0

>  <SCORE.INTRA.REPUL>
0

>  <SCORE.INTRA.REPUL.0>
0

>  <SCORE.INTRA.SOLV>
0.442455

>  <SCORE.INTRA.SOLV.lig_0>
-31.4704

>  <SCORE.INTRA.VDW>
-11.4631

>  <SCORE.INTRA.VDW.0>
10.2807

>  <SCORE.INTRA.norm>
-0.371371

>  <SCORE.RESTR>
0

>  <SCORE.RESTR.CAVITY>
0

>  <SCORE.RESTR.norm>
0

>  <SCORE.SYSTEM>
0

>  <SCORE.SYSTEM.CONST>
0

>  <SCORE.SYSTEM.DIHEDRAL>
0

>  <SCORE.SYSTEM.SOLV>
0

>  <SCORE.SYSTEM.norm>
0

>  <SCORE.heavy>
24

>  <SCORE.norm>
-1.45079

>  <RMSD>
0.732

$$$$
ligand
 OpenBabel11021811493D
libRbt.so/2013.1/901 2013/11/27
 24 26  0  0  0  0  0  0  0  0999 V2000
    7.5580  -11.1467   -9.5892 N   0  0  0  0  0  0  0  0  0  0  0  0
    8.7612  -11.9429   -9.4079 C   0  0  0  0  0  0  0  0  0  0  0  0
   13.6951   -6.9877  -12.9054 O   0  0  0  0  0  0  0  0  0  0  0  0
   12.5003   -6.3548  -12.5898 C   0  0  0  0  0  0  0  0  0  0  0  0
    8.7290   -4.5680  -11.6711 N   0  0  0  0  0  0  0  0  0  0  0  0
   12.4187   -4.8575  -12.4548 C   0  0  0  0  0  0  0  0  0  0  0  0
    8.7597   -6.8080  -11.8366 N   0  0  0  0  0  0  0  0  0  0  0  0
   11.1929   -4.1785  -12.1576 C   0  0  0  0  0  0  0  0  0  0  0  0
    6.5606   -5.7379  -11.2932 N   0  0  0  0  0  0  0  0  0  0  0  0
   10.0265   -5.0030  -11.9754 C   0  0  0  0  0  0  0  0  0  0  0  0
   13.2843  -11.5622  -12.6113 N   0  0  0  0  0  0  0  0  0  0  0  0
   10.0937   -6.4356  -12.0864 C   0  0  0  0  0  0  0  0  0  0  0  0
   11.3871   -7.0982  -12.4084 C   0  0  0  0  0  0  0  0  0  0  0  0
    7.9620   -5.6942  -11.5965 C   0  0  0  0  0  0  0  0  0  0  0  0
   11.4360   -8.6097  -12.5308 C   0  0  0  0  0  0  0  0  0  0  0  0
   12.8361   -9.2063  -12.6280 C   0  0  1  0  0  0  0  0  0  0  0  0
   13.9130   -8.2126  -12.2986 C   0  0  0  0  0  0  0  0  0  0  0  0
   12.9367  -10.4448  -11.7504 C   0  0  0  0  0  0  0  0  0  0  0  0
    8.2557   -8.1929  -11.9083 C   0  0  0  0  0  0  0  0  0  0  0  0
   14.7252  -11.7652  -12.5452 C   0  0  0  0  0  0  0  0  0  0  0  0
   12.5979  -12.7381  -12.0996 C   0  0  0  0  0  0  0  0  0  0  0  0
    8.2536   -8.9649  -10.5775 C   0  0  0  0  0  0  0  0  0  0  0  0
    7.6499  -10.3597  -10.8272 C   0  0  0  0  0  0  0  0  0  0  0  0
    6.4158  -12.0532   -9.6221 C   0  0  0  0  0  0  0  0  0  0  0  0
  1 23  1  0  0  0  0
  1 24  1  0  0  0  0
  1  2  1  0  0  0  0
  3  4  1  0  0  0  0
  3 17  1  0  0  0  0
  4  6  2  0  0  0  0
  4 13  1  0  0  0  0
  5 10  1  0  0  0  0
  5 14  2  0  0  0  0
  6  8  1  0  0  0  0
  7 12  1  0  0  0  0
  7 14  1  0  0  0  0
  7 19  1  0  0  0  0
  8 10  2  0  0  0  0
  9 14  1  0  0  0  0
 10 12  1  0  0  0  0
 11 18  1  0  0  0  0
 11 20  1  0  0  0  0
 11 21  1  0  0  0  0
 12 13  2  0  0  0  0
 13 15  1  0  0  0  0
 15 16  1  0  0  0  0
 16 17  1  0  0  0  0
 16 18  1  1  0  0  0
 19 22  1  0  0  0  0
 22 23  1  0  0  0  0
M  END
>  <CHROM.1>
-91.45057973,93.50873364,96.98203832,120.54936037,177.81985970,-177.59225530
10.49906427,-8.43839345,-11.69860926,0.92013898,-0.31450765,2.96041865

>  <Name>
ligand

>  <RI>
144

>  <Rbt.Current_Directory>
/home/itssahil/PROJECTS/Mol_Feturizer/New_Systems/rnas/3TZR

>  <Rbt.Executable>
rbdock ($Id: //depot/dev/client3/rdock/2013.1/src/exe/rbdock.cxx#4 $)

>  <Rbt.Library>
libRbt.so (2013.1, Build901 2013/11/27)

>  <Rbt.Parameter_File>
/export/apps/rDock/src/rDock_2013.1_src/data/scripts/dock_solv.prm

>  <Rbt.Receptor>
prm/pocket_docking_8.prm

>  <SCORE>
-35.1243

>  <SCORE.INTER>
-25.6527

>  <SCORE.INTER.CONST>
1

>  <SCORE.INTER.POLAR>
0

>  <SCORE.INTER.ROT>
6

>  <SCORE.INTER.SOLV>
19.4714

>  <SCORE.INTER.VDW>
-31.1923

>  <SCORE.INTER.norm>
-1.06886

>  <SCORE.INTRA>
-9.47158

>  <SCORE.INTRA.DIHEDRAL>
4.51005

>  <SCORE.INTRA.DIHEDRAL.0>
4.94008

>  <SCORE.INTRA.POLAR>
0

>  <SCORE.INTRA.POLAR.0>
0

>  <SCORE.INTRA.REPUL>
0

>  <SCORE.INTRA.REPUL.0>
0

>  <SCORE.INTRA.SOLV>
-0.100506

>  <SCORE.INTRA.SOLV.lig_0>
-31.4704

>  <SCORE.INTRA.VDW>
-11.6763

>  <SCORE.INTRA.VDW.0>
10.2807

>  <SCORE.INTRA.norm>
-0.394649

>  <SCORE.RESTR>
0

>  <SCORE.RESTR.CAVITY>
0

>  <SCORE.RESTR.norm>
0

>  <SCORE.SYSTEM>
0

>  <SCORE.SYSTEM.CONST>
0

>  <SCORE.SYSTEM.DIHEDRAL>
0

>  <SCORE.SYSTEM.SOLV>
0

>  <SCORE.SYSTEM.norm>
0

>  <SCORE.heavy>
24

>  <SCORE.norm>
-1.46351

>  <RMSD>
0.734

$$$$
ligand
 OpenBabel11021811493D
libRbt.so/2013.1/901 2013/11/27
 24 26  0  0  0  0  0  0  0  0999 V2000
    7.4869  -11.1349   -9.5162 N   0  0  0  0  0  0  0  0  0  0  0  0
    8.6926  -11.9153   -9.2890 C   0  0  0  0  0  0  0  0  0  0  0  0
   13.6006   -7.4869  -13.0890 O   0  0  0  0  0  0  0  0  0  0  0  0
   12.4839   -6.7449  -12.7279 C   0  0  0  0  0  0  0  0  0  0  0  0
    8.9366   -4.6132  -11.6641 N   0  0  0  0  0  0  0  0  0  0  0  0
   12.5467   -5.2459  -12.6015 C   0  0  0  0  0  0  0  0  0  0  0  0
    8.7534   -6.8470  -11.8130 N   0  0  0  0  0  0  0  0  0  0  0  0
   11.4027   -4.4552  -12.2579 C   0  0  0  0  0  0  0  0  0  0  0  0
    6.6878   -5.5758  -11.1853 N   0  0  0  0  0  0  0  0  0  0  0  0
   10.1742   -5.1676  -12.0198 C   0  0  0  0  0  0  0  0  0  0  0  0
   13.4513  -11.8252  -12.5104 N   0  0  0  0  0  0  0  0  0  0  0  0
   10.1040   -6.6006  -12.1222 C   0  0  0  0  0  0  0  0  0  0  0  0
   11.3157   -7.3813  -12.4936 C   0  0  0  0  0  0  0  0  0  0  0  0
    8.0728   -5.6633  -11.5481 C   0  0  0  0  0  0  0  0  0  0  0  0
   11.2196   -8.8914  -12.6060 C   0  0  0  0  0  0  0  0  0  0  0  0
   12.5532   -9.6154  -12.7578 C   0  0  1  0  0  0  0  0  0  0  0  0
   13.7304   -8.7242  -12.4823 C   0  0  0  0  0  0  0  0  0  0  0  0
   12.5767  -10.8544  -11.8755 C   0  0  0  0  0  0  0  0  0  0  0  0
    8.1211   -8.1796  -11.8523 C   0  0  0  0  0  0  0  0  0  0  0  0
   14.1328  -12.5829  -11.4696 C   0  0  0  0  0  0  0  0  0  0  0  0
   12.6153  -12.7160  -13.2997 C   0  0  0  0  0  0  0  0  0  0  0  0
    8.0336   -8.9094  -10.5008 C   0  0  0  0  0  0  0  0  0  0  0  0
    7.6056  -10.3655  -10.7630 C   0  0  0  0  0  0  0  0  0  0  0  0
    6.3555  -12.0539   -9.5673 C   0  0  0  0  0  0  0  0  0  0  0  0
  1 23  1  0  0  0  0
  1 24  1  0  0  0  0
  1  2  1  0  0  0  0
  3  4  1  0  0  0  0
  3 17  1  0  0  0  0
  4  6  2  0  0  0  0
  4 13  1  0  0  0  0
  5 10  1  0  0  0  0
  5 14  2  0  0  0  0
  6  8  1  0  0  0  0
  7 12  1  0  0  0  0
  7 14  1  0  0  0  0
  7 19  1  0  0  0  0
  8 10  2  0  0  0  0
  9 14  1  0  0  0  0
 10 12  1  0  0  0  0
 11 18  1  0  0  0  0
 11 20  1  0  0  0  0
 11 21  1  0  0  0  0
 12 13  2  0  0  0  0
 13 15  1  0  0  0  0
 15 16  1  0  0  0  0
 16 17  1  0  0  0  0
 16 18  1  1  0  0  0
 19 22  1  0  0  0  0
 22 23  1  0  0  0  0
M  END
>  <CHROM.1>
-98.00503003,96.82722111,146.01688232,151.07504899,-169.29555780,-179.54903934
10.43845826,-8.63064237,-11.72354611,0.95348692,-0.35725296,2.95764073

>  <Name>
ligand

>  <RI>
0

>  <Rbt.Current_Directory>
/home/itssahil/PROJECTS/Mol_Feturizer/New_Systems/rnas/3TZR

>  <Rbt.Executable>
rbdock ($Id: //depot/dev/client3/rdock/2013.1/src/exe/rbdock.cxx#4 $)

>  <Rbt.Library>
libRbt.so (2013.1, Build901 2013/11/27)

>  <Rbt.Parameter_File>
/export/apps/rDock/src/rDock_2013.1_src/data/scripts/dock_solv.prm

>  <Rbt.Receptor>
prm/blind_docking_80.prm

>  <SCORE>
-34.3333

>  <SCORE.INTER>
-23.8949

>  <SCORE.INTER.CONST>
1

>  <SCORE.INTER.POLAR>
0

>  <SCORE.INTER.ROT>
6

>  <SCORE.INTER.SOLV>
19.7021

>  <SCORE.INTER.VDW>
-30.0973

>  <SCORE.INTER.norm>
-0.995622

>  <SCORE.INTRA>
-10.4389

>  <SCORE.INTRA.DIHEDRAL>
2.51997

>  <SCORE.INTRA.DIHEDRAL.0>
4.94008

>  <SCORE.INTRA.POLAR>
0

>  <SCORE.INTRA.POLAR.0>
0

>  <SCORE.INTRA.REPUL>
0

>  <SCORE.INTRA.REPUL.0>
0

>  <SCORE.INTRA.SOLV>
-0.00879283

>  <SCORE.INTRA.SOLV.lig_0>
-31.4704

>  <SCORE.INTRA.VDW>
-11.6945

>  <SCORE.INTRA.VDW.0>
10.2807

>  <SCORE.INTRA.norm>
-0.434956

>  <SCORE.RESTR>
0.000559309

>  <SCORE.RESTR.CAVITY>
0.000559309

>  <SCORE.RESTR.norm>
2.33045e-05

>  <SCORE.SYSTEM>
0

>  <SCORE.SYSTEM.CONST>
0

>  <SCORE.SYSTEM.DIHEDRAL>
0

>  <SCORE.SYSTEM.SOLV>
0

>  <SCORE.SYSTEM.norm>
0

>  <SCORE.heavy>
24

>  <SCORE.norm>
-1.43055

>  <RMSD>
0.748

$$$$
ligand
 OpenBabel11021811493D
libRbt.so/2013.1/901 2013/11/27
 24 26  0  0  0  0  0  0  0  0999 V2000
    7.6010  -11.0964  -10.5391 N   0  0  0  0  0  0  0  0  0  0  0  0
    6.5820  -12.1105  -10.7568 C   0  0  0  0  0  0  0  0  0  0  0  0
   13.5622   -7.5457  -12.7259 O   0  0  0  0  0  0  0  0  0  0  0  0
   12.4920   -6.6941  -12.4873 C   0  0  0  0  0  0  0  0  0  0  0  0
    9.0788   -4.2133  -11.8127 N   0  0  0  0  0  0  0  0  0  0  0  0
   12.6894   -5.2080  -12.3473 C   0  0  0  0  0  0  0  0  0  0  0  0
    8.6916   -6.4186  -11.9920 N   0  0  0  0  0  0  0  0  0  0  0  0
   11.5989   -4.3052  -12.1287 C   0  0  0  0  0  0  0  0  0  0  0  0
    6.7061   -4.9443  -11.5908 N   0  0  0  0  0  0  0  0  0  0  0  0
   10.2867   -4.8903  -12.0318 C   0  0  0  0  0  0  0  0  0  0  0  0
   13.1788  -11.6972  -11.9231 N   0  0  0  0  0  0  0  0  0  0  0  0
   10.0859   -6.3098  -12.1483 C   0  0  0  0  0  0  0  0  0  0  0  0
   11.2475   -7.2096  -12.3869 C   0  0  0  0  0  0  0  0  0  0  0  0
    8.1072   -5.1714  -11.7983 C   0  0  0  0  0  0  0  0  0  0  0  0
   11.0145   -8.7032  -12.5167 C   0  0  0  0  0  0  0  0  0  0  0  0
   12.2778   -9.5573  -12.5233 C   0  0  1  0  0  0  0  0  0  0  0  0
   13.5002   -8.7860  -12.1147 C   0  0  0  0  0  0  0  0  0  0  0  0
   12.0800  -10.7870  -11.6499 C   0  0  0  0  0  0  0  0  0  0  0  0
    7.9379   -7.6819  -12.1076 C   0  0  0  0  0  0  0  0  0  0  0  0
   13.3939  -12.5277  -10.7459 C   0  0  0  0  0  0  0  0  0  0  0  0
   12.7859  -12.5311  -13.0482 C   0  0  0  0  0  0  0  0  0  0  0  0
    8.2715   -8.7491  -11.0510 C   0  0  0  0  0  0  0  0  0  0  0  0
    7.1411   -9.7953  -11.0451 C   0  0  0  0  0  0  0  0  0  0  0  0
    7.8839  -11.0382   -9.1094 C   0  0  0  0  0  0  0  0  0  0  0  0
  1 23  1  0  0  0  0
  1 24  1  0  0  0  0
  1  2  1  0  0  0  0
  3  4  1  0  0  0  0
  3 17  1  0  0  0  0
  4  6  2  0  0  0  0
  4 13  1  0  0  0  0
  5 10  1  0  0  0  0
  5 14  2  0  0  0  0
  6  8  1  0  0  0  0
  7 12  1  0  0  0  0
  7 14  1  0  0  0  0
  7 19  1  0  0  0  0
  8 10  2  0  0  0  0
  9 14  1  0  0  0  0
 10 12  1  0  0  0  0
 11 18  1  0  0  0  0
 11 20  1  0  0  0  0
 11 21  1  0  0  0  0
 12 13  2  0  0  0  0
 13 15  1  0  0  0  0
 15 16  1  0  0  0  0
 16 17  1  0  0  0  0
 16 18  1  1  0  0  0
 19 22  1  0  0  0  0
 22 23  1  0  0  0  0
M  END
>  <CHROM.1>
-170.43594914,64.02087260,153.62623856,167.66567115,163.26828349,155.43556270
10.32772119,-8.39808448,-11.74919593,1.19887614,-0.23225028,2.98761997

>  <Name>
ligand

>  <RI>
0

>  <Rbt.Current_Directory>
/home/itssahil/PROJECTS/Mol_Feturizer/New_Systems/rnas/3TZR

>  <Rbt.Executable>
rbdock ($Id: //depot/dev/client3/rdock/2013.1/src/exe/rbdock.cxx#4 $)

>  <Rbt.Library>
libRbt.so (2013.1, Build901 2013/11/27)

>  <Rbt.Parameter_File>
/export/apps/rDock/src/rDock_2013.1_src/data/scripts/dock_solv.prm

>  <Rbt.Receptor>
prm/pocket_docking_2.prm

>  <SCORE>
-31.6863

>  <SCORE.INTER>
-22.2712

>  <SCORE.INTER.CONST>
1

>  <SCORE.INTER.POLAR>
0

>  <SCORE.INTER.ROT>
6

>  <SCORE.INTER.SOLV>
21.5815

>  <SCORE.INTER.VDW>
-29.6413

>  <SCORE.INTER.norm>
-0.927968

>  <SCORE.INTRA>
-9.4365

>  <SCORE.INTRA.DIHEDRAL>
1.03214

>  <SCORE.INTRA.DIHEDRAL.0>
4.94008

>  <SCORE.INTRA.POLAR>
0

>  <SCORE.INTRA.POLAR.0>
0

>  <SCORE.INTRA.REPUL>
0

>  <SCORE.INTRA.REPUL.0>
0

>  <SCORE.INTRA.SOLV>
-0.476522

>  <SCORE.INTRA.SOLV.lig_0>
-31.4704

>  <SCORE.INTRA.VDW>
-9.71431

>  <SCORE.INTRA.VDW.0>
10.2807

>  <SCORE.INTRA.norm>
-0.393187

>  <SCORE.RESTR>
0.0214774

>  <SCORE.RESTR.CAVITY>
0.0214774

>  <SCORE.RESTR.norm>
0.000894892

>  <SCORE.SYSTEM>
0

>  <SCORE.SYSTEM.CONST>
0

>  <SCORE.SYSTEM.DIHEDRAL>
0

>  <SCORE.SYSTEM.SOLV>
0

>  <SCORE.SYSTEM.norm>
0

>  <SCORE.heavy>
24

>  <SCORE.norm>
-1.32026

>  <RMSD>
0.750

$$$$
ligand
 OpenBabel11021811493D
libRbt.so/2013.1/901 2013/11/27
 24 26  0  0  0  0  0  0  0  0999 V2000
    7.1801  -10.9129   -9.7193 N   0  0  0  0  0  0  0  0  0  0  0  0
    8.3372  -11.5154   -9.0772 C   0  0  0  0  0  0  0  0  0  0  0  0
   13.2638   -6.1967  -12.7887 O   0  0  0  0  0  0  0  0  0  0  0  0
   11.9649   -5.7289  -12.6406 C   0  0  0  0  0  0  0  0  0  0  0  0
    7.9035   -4.4656  -12.2315 N   0  0  0  0  0  0  0  0  0  0  0  0
   11.6578   -4.2549  -12.6462 C   0  0  0  0  0  0  0  0  0  0  0  0
    8.2692   -6.6816  -12.1953 N   0  0  0  0  0  0  0  0  0  0  0  0
   10.3238   -3.7475  -12.5233 C   0  0  0  0  0  0  0  0  0  0  0  0
    5.8960   -5.9166  -11.9517 N   0  0  0  0  0  0  0  0  0  0  0  0
    9.2741   -4.7222  -12.3765 C   0  0  0  0  0  0  0  0  0  0  0  0
   12.3088  -10.8249  -12.0030 N   0  0  0  0  0  0  0  0  0  0  0  0
    9.5553   -6.1326  -12.3541 C   0  0  0  0  0  0  0  0  0  0  0  0
   10.9561   -6.6155  -12.4968 C   0  0  0  0  0  0  0  0  0  0  0  0
    7.3007   -5.6856  -12.1283 C   0  0  0  0  0  0  0  0  0  0  0  0
   11.2318   -8.1074  -12.4805 C   0  0  0  0  0  0  0  0  0  0  0  0
   12.7049   -8.4926  -12.3963 C   0  0  1  0  0  0  0  0  0  0  0  0
   13.5897   -7.3268  -12.0588 C   0  0  0  0  0  0  0  0  0  0  0  0
   12.8893   -9.6337  -11.4074 C   0  0  0  0  0  0  0  0  0  0  0  0
    7.9774   -8.1280  -12.1904 C   0  0  0  0  0  0  0  0  0  0  0  0
   13.3152  -11.4573  -12.8452 C   0  0  0  0  0  0  0  0  0  0  0  0
   11.9417  -11.7213  -10.9180 C   0  0  0  0  0  0  0  0  0  0  0  0
    7.8887   -8.7792  -10.7994 C   0  0  0  0  0  0  0  0  0  0  0  0
    7.5738  -10.2756  -10.9840 C   0  0  0  0  0  0  0  0  0  0  0  0
    6.1886  -11.9595   -9.9404 C   0  0  0  0  0  0  0  0  0  0  0  0
  1 23  1  0  0  0  0
  1 24  1  0  0  0  0
  1  2  1  0  0  0  0
  3  4  1  0  0  0  0
  3 17  1  0  0  0  0
  4  6  2  0  0  0  0
  4 13  1  0  0  0  0
  5 10  1  0  0  0  0
  5 14  2  0  0  0  0
  6  8  1  0  0  0  0
  7 12  1  0  0  0  0
  7 14  1  0  0  0  0
  7 19  1  0  0  0  0
  8 10  2  0  0  0  0
  9 14  1  0  0  0  0
 10 12  1  0  0  0  0
 11 18  1  0  0  0  0
 11 20  1  0  0  0  0
 11 21  1  0  0  0  0
 12 13  2  0  0  0  0
 13 15  1  0  0  0  0
 15 16  1  0  0  0  0
 16 17  1  0  0  0  0
 16 18  1  1  0  0  0
 19 22  1  0  0  0  0
 22 23  1  0  0  0  0
M  END
>  <CHROM.1>
-93.80233462,95.98823743,86.09832081,70.15287637,179.72412945,-167.40980190
9.98308178,-8.03405164,-11.76045855,1.89683729,-0.20944581,2.86861066

>  <Name>
ligand

>  <RI>
0

>  <Rbt.Current_Directory>
/home/itssahil/PROJECTS/Mol_Feturizer/New_Systems/rnas/3TZR

>  <Rbt.Executable>
rbdock ($Id: //depot/dev/client3/rdock/2013.1/src/exe/rbdock.cxx#4 $)

>  <Rbt.Library>
libRbt.so (2013.1, Build901 2013/11/27)

>  <Rbt.Parameter_File>
/export/apps/rDock/src/rDock_2013.1_src/data/scripts/dock_solv.prm

>  <Rbt.Receptor>
prm/pocket_docking_5.prm

>  <SCORE>
-36.9707

>  <SCORE.INTER>
-25.3694

>  <SCORE.INTER.CONST>
1

>  <SCORE.INTER.POLAR>
0

>  <SCORE.INTER.ROT>
6

>  <SCORE.INTER.SOLV>
20.8854

>  <SCORE.INTER.VDW>
-31.4747

>  <SCORE.INTER.norm>
-1.05706

>  <SCORE.INTRA>
-11.6013

>  <SCORE.INTRA.DIHEDRAL>
-0.266627

>  <SCORE.INTRA.DIHEDRAL.0>
4.94008

>  <SCORE.INTRA.POLAR>
0

>  <SCORE.INTRA.POLAR.0>
0

>  <SCORE.INTRA.REPUL>
0

>  <SCORE.INTRA.REPUL.0>
0

>  <SCORE.INTRA.SOLV>
-0.0304591

>  <SCORE.INTRA.SOLV.lig_0>
-31.4704

>  <SCORE.INTRA.VDW>
-11.4528

>  <SCORE.INTRA.VDW.0>
10.2807

>  <SCORE.INTRA.norm>
-0.483389

>  <SCORE.RESTR>
0

>  <SCORE.RESTR.CAVITY>
0

>  <SCORE.RESTR.norm>
0

>  <SCORE.SYSTEM>
0

>  <SCORE.SYSTEM.CONST>
0

>  <SCORE.SYSTEM.DIHEDRAL>
0

>  <SCORE.SYSTEM.SOLV>
0

>  <SCORE.SYSTEM.norm>
0

>  <SCORE.heavy>
24

>  <SCORE.norm>
-1.54045

>  <RMSD>
0.751

$$$$
ligand
 OpenBabel11021811493D
libRbt.so/2013.1/901 2013/11/27
 24 26  0  0  0  0  0  0  0  0999 V2000
    7.4232  -11.0166   -9.5524 N   0  0  0  0  0  0  0  0  0  0  0  0
    8.3265  -11.9863   -8.9540 C   0  0  0  0  0  0  0  0  0  0  0  0
   13.3662   -6.3541  -12.9310 O   0  0  0  0  0  0  0  0  0  0  0  0
   12.1156   -5.8447  -12.6077 C   0  0  0  0  0  0  0  0  0  0  0  0
    8.1895   -4.4470  -11.6640 N   0  0  0  0  0  0  0  0  0  0  0  0
   11.8832   -4.3629  -12.4769 C   0  0  0  0  0  0  0  0  0  0  0  0
    8.4466   -6.6728  -11.8226 N   0  0  0  0  0  0  0  0  0  0  0  0
   10.5971   -3.8108  -12.1719 C   0  0  0  0  0  0  0  0  0  0  0  0
    6.1543   -5.8297  -11.2647 N   0  0  0  0  0  0  0  0  0  0  0  0
    9.5221   -4.7490  -11.9775 C   0  0  0  0  0  0  0  0  0  0  0  0
   13.1575  -11.0089  -12.6360 N   0  0  0  0  0  0  0  0  0  0  0  0
    9.7337   -6.1677  -12.0845 C   0  0  0  0  0  0  0  0  0  0  0  0
   11.0853   -6.6967  -12.4149 C   0  0  0  0  0  0  0  0  0  0  0  0
    7.5416   -5.6450  -11.5795 C   0  0  0  0  0  0  0  0  0  0  0  0
   11.2868   -8.1959  -12.5328 C   0  0  0  0  0  0  0  0  0  0  0  0
   12.7394   -8.6474  -12.6395 C   0  0  1  0  0  0  0  0  0  0  0  0
   13.7122   -7.5480  -12.3221 C   0  0  0  0  0  0  0  0  0  0  0  0
   12.9723   -9.8657  -11.7588 C   0  0  0  0  0  0  0  0  0  0  0  0
    8.0855   -8.1021  -11.8857 C   0  0  0  0  0  0  0  0  0  0  0  0
   14.5832  -11.1734  -12.8854 C   0  0  0  0  0  0  0  0  0  0  0  0
   12.6411  -12.1791  -11.9436 C   0  0  0  0  0  0  0  0  0  0  0  0
    7.6915   -8.7438  -10.5442 C   0  0  0  0  0  0  0  0  0  0  0  0
    8.1297  -10.2202  -10.5658 C   0  0  0  0  0  0  0  0  0  0  0  0
    6.3019  -11.7430  -10.1375 C   0  0  0  0  0  0  0  0  0  0  0  0
  1 23  1  0  0  0  0
  1 24  1  0  0  0  0
  1  2  1  0  0  0  0
  3  4  1  0  0  0  0
  3 17  1  0  0  0  0
  4  6  2  0  0  0  0
  4 13  1  0  0  0  0
  5 10  1  0  0  0  0
  5 14  2  0  0  0  0
  6  8  1  0  0  0  0
  7 12  1  0  0  0  0
  7 14  1  0  0  0  0
  7 19  1  0  0  0  0
  8 10  2  0  0  0  0
  9 14  1  0  0  0  0
 10 12  1  0  0  0  0
 11 18  1  0  0  0  0
 11 20  1  0  0  0  0
 11 21  1  0  0  0  0
 12 13  2  0  0  0  0
 13 15  1  0  0  0  0
 15 16  1  0  0  0  0
 16 17  1  0  0  0  0
 16 18  1  1  0  0  0
 19 22  1  0  0  0  0
 22 23  1  0  0  0  0
M  END
>  <CHROM.1>
-141.47993922,114.06616723,92.91888943,109.14085696,-147.67433337,-161.04955799
10.24627879,-8.10747499,-11.69843387,2.94034485,0.31125431,-0.20323387

>  <Name>
ligand

>  <RI>
144

>  <Rbt.Current_Directory>
/home/itssahil/PROJECTS/Mol_Feturizer/New_Systems/rnas/3TZR

>  <Rbt.Executable>
rbdock ($Id: //depot/dev/client3/rdock/2013.1/src/exe/rbdock.cxx#4 $)

>  <Rbt.Library>
libRbt.so (2013.1, Build901 2013/11/27)

>  <Rbt.Parameter_File>
/export/apps/rDock/src/rDock_2013.1_src/data/scripts/dock_solv.prm

>  <Rbt.Receptor>
prm/pocket_docking_8.prm

>  <SCORE>
-33.5505

>  <SCORE.INTER>
-26.3009

>  <SCORE.INTER.CONST>
1

>  <SCORE.INTER.POLAR>
0

>  <SCORE.INTER.ROT>
6

>  <SCORE.INTER.SOLV>
19.8276

>  <SCORE.INTER.VDW>
-31.7431

>  <SCORE.INTER.norm>
-1.09587

>  <SCORE.INTRA>
-7.24965

>  <SCORE.INTRA.DIHEDRAL>
8.49842

>  <SCORE.INTRA.DIHEDRAL.0>
4.94008

>  <SCORE.INTRA.POLAR>
0

>  <SCORE.INTRA.POLAR.0>
0

>  <SCORE.INTRA.REPUL>
0

>  <SCORE.INTRA.REPUL.0>
0

>  <SCORE.INTRA.SOLV>
0.29593

>  <SCORE.INTRA.SOLV.lig_0>
-31.4704

>  <SCORE.INTRA.VDW>
-11.6468

>  <SCORE.INTRA.VDW.0>
10.2807

>  <SCORE.INTRA.norm>
-0.302069

>  <SCORE.RESTR>
0

>  <SCORE.RESTR.CAVITY>
0

>  <SCORE.RESTR.norm>
0

>  <SCORE.SYSTEM>
0

>  <SCORE.SYSTEM.CONST>
0

>  <SCORE.SYSTEM.DIHEDRAL>
0

>  <SCORE.SYSTEM.SOLV>
0

>  <SCORE.SYSTEM.norm>
0

>  <SCORE.heavy>
24

>  <SCORE.norm>
-1.39794

>  <RMSD>
0.754

$$$$
ligand
 OpenBabel11021811493D
libRbt.so/2013.1/901 2013/11/27
 24 26  0  0  0  0  0  0  0  0999 V2000
    7.3347  -11.0532   -9.4383 N   0  0  0  0  0  0  0  0  0  0  0  0
    8.4807  -11.7299   -8.8525 C   0  0  0  0  0  0  0  0  0  0  0  0
   13.4359   -6.3954  -13.0473 O   0  0  0  0  0  0  0  0  0  0  0  0
   12.1821   -5.9060  -12.7062 C   0  0  0  0  0  0  0  0  0  0  0  0
    8.2485   -4.5722  -11.7030 N   0  0  0  0  0  0  0  0  0  0  0  0
   11.9217   -4.4272  -12.5965 C   0  0  0  0  0  0  0  0  0  0  0  0
    8.5486   -6.7948  -11.8278 N   0  0  0  0  0  0  0  0  0  0  0  0
   10.6310   -3.8962  -12.2737 C   0  0  0  0  0  0  0  0  0  0  0  0
    6.2515   -5.9889  -11.2356 N   0  0  0  0  0  0  0  0  0  0  0  0
    9.5802   -4.8525  -12.0397 C   0  0  0  0  0  0  0  0  0  0  0  0
   13.1205  -11.0791  -12.6433 N   0  0  0  0  0  0  0  0  0  0  0  0
    9.8191   -6.2683  -12.1262 C   0  0  0  0  0  0  0  0  0  0  0  0
   11.1741   -6.7753  -12.4762 C   0  0  0  0  0  0  0  0  0  0  0  0
    7.6277   -5.7816  -11.5834 C   0  0  0  0  0  0  0  0  0  0  0  0
   11.4043   -8.2720  -12.5721 C   0  0  0  0  0  0  0  0  0  0  0  0
   12.8634   -8.6955  -12.7020 C   0  0  1  0  0  0  0  0  0  0  0  0
   13.8196   -7.5708  -12.4251 C   0  0  0  0  0  0  0  0  0  0  0  0
   13.1403   -9.8926  -11.8052 C   0  0  0  0  0  0  0  0  0  0  0  0
    8.2162   -8.2322  -11.8580 C   0  0  0  0  0  0  0  0  0  0  0  0
   14.4710  -11.6211  -12.7083 C   0  0  0  0  0  0  0  0  0  0  0  0
   12.2330  -12.0442  -12.0136 C   0  0  0  0  0  0  0  0  0  0  0  0
    7.8688   -8.8586  -10.4964 C   0  0  0  0  0  0  0  0  0  0  0  0
    7.7236  -10.3802  -10.6858 C   0  0  0  0  0  0  0  0  0  0  0  0
    6.2942  -12.0474   -9.6756 C   0  0  0  0  0  0  0  0  0  0  0  0
  1 23  1  0  0  0  0
  1 24  1  0  0  0  0
  1  2  1  0  0  0  0
  3  4  1  0  0  0  0
  3 17  1  0  0  0  0
  4  6  2  0  0  0  0
  4 13  1  0  0  0  0
  5 10  1  0  0  0  0
  5 14  2  0  0  0  0
  6  8  1  0  0  0  0
  7 12  1  0  0  0  0
  7 14  1  0  0  0  0
  7 19  1  0  0  0  0
  8 10  2  0  0  0  0
  9 14  1  0  0  0  0
 10 12  1  0  0  0  0
 11 18  1  0  0  0  0
 11 20  1  0  0  0  0
 11 21  1  0  0  0  0
 12 13  2  0  0  0  0
 13 15  1  0  0  0  0
 15 16  1  0  0  0  0
 16 17  1  0  0  0  0
 16 18  1  1  0  0  0
 19 22  1  0  0  0  0
 22 23  1  0  0  0  0
M  END
>  <CHROM.1>
-103.73741637,113.86616087,112.08526095,100.29351137,-173.05308967,-177.59635559
10.27253290,-8.19579622,-11.69982100,-2.50868875,0.32868301,-0.21779706

>  <Name>
ligand

>  <RI>
0

>  <Rbt.Current_Directory>
/home/itssahil/PROJECTS/Mol_Feturizer/New_Systems/rnas/3TZR

>  <Rbt.Executable>
rbdock ($Id: //depot/dev/client3/rdock/2013.1/src/exe/rbdock.cxx#4 $)

>  <Rbt.Library>
libRbt.so (2013.1, Build901 2013/11/27)

>  <Rbt.Parameter_File>
/export/apps/rDock/src/rDock_2013.1_src/data/scripts/dock_solv.prm

>  <Rbt.Receptor>
prm/blind_docking_80.prm

>  <SCORE>
-34.6137

>  <SCORE.INTER>
-25.1571

>  <SCORE.INTER.CONST>
1

>  <SCORE.INTER.POLAR>
0

>  <SCORE.INTER.ROT>
6

>  <SCORE.INTER.SOLV>
19.252

>  <SCORE.INTER.VDW>
-30.7887

>  <SCORE.INTER.norm>
-1.04821

>  <SCORE.INTRA>
-9.45655

>  <SCORE.INTRA.DIHEDRAL>
4.71071

>  <SCORE.INTRA.DIHEDRAL.0>
4.94008

>  <SCORE.INTRA.POLAR>
0

>  <SCORE.INTRA.POLAR.0>
0

>  <SCORE.INTRA.REPUL>
0

>  <SCORE.INTRA.REPUL.0>
0

>  <SCORE.INTRA.SOLV>
0.319849

>  <SCORE.INTRA.SOLV.lig_0>
-31.4704

>  <SCORE.INTRA.VDW>
-11.9718

>  <SCORE.INTRA.VDW.0>
10.2807

>  <SCORE.INTRA.norm>
-0.394023

>  <SCORE.RESTR>
0

>  <SCORE.RESTR.CAVITY>
0

>  <SCORE.RESTR.norm>
0

>  <SCORE.SYSTEM>
0

>  <SCORE.SYSTEM.CONST>
0

>  <SCORE.SYSTEM.DIHEDRAL>
0

>  <SCORE.SYSTEM.SOLV>
0

>  <SCORE.SYSTEM.norm>
0

>  <SCORE.heavy>
24

>  <SCORE.norm>
-1.44224

>  <RMSD>
0.758

$$$$
ligand
 OpenBabel11021811493D
libRbt.so/2013.1/901 2013/11/27
 24 26  0  0  0  0  0  0  0  0999 V2000
    7.3590  -10.9931   -9.4163 N   0  0  0  0  0  0  0  0  0  0  0  0
    8.4148  -11.6797   -8.6896 C   0  0  0  0  0  0  0  0  0  0  0  0
   13.4230   -6.3511  -12.9757 O   0  0  0  0  0  0  0  0  0  0  0  0
   12.1639   -5.8569  -12.6622 C   0  0  0  0  0  0  0  0  0  0  0  0
    8.2148   -4.5090  -11.7422 N   0  0  0  0  0  0  0  0  0  0  0  0
   11.9013   -4.3766  -12.5810 C   0  0  0  0  0  0  0  0  0  0  0  0
    8.5175   -6.7332  -11.8255 N   0  0  0  0  0  0  0  0  0  0  0  0
   10.6056   -3.8411  -12.2870 C   0  0  0  0  0  0  0  0  0  0  0  0
    6.2113   -5.9190  -11.2824 N   0  0  0  0  0  0  0  0  0  0  0  0
    9.5516   -4.7940  -12.0536 C   0  0  0  0  0  0  0  0  0  0  0  0
   12.2952  -10.9355  -12.1498 N   0  0  0  0  0  0  0  0  0  0  0  0
    9.7923   -6.2109  -12.1129 C   0  0  0  0  0  0  0  0  0  0  0  0
   11.1527   -6.7228  -12.4335 C   0  0  0  0  0  0  0  0  0  0  0  0
    7.5926   -5.7166  -11.6123 C   0  0  0  0  0  0  0  0  0  0  0  0
   11.3849   -8.2207  -12.5010 C   0  0  0  0  0  0  0  0  0  0  0  0
   12.8460   -8.6455  -12.6013 C   0  0  1  0  0  0  0  0  0  0  0  0
   13.7974   -7.5158  -12.3282 C   0  0  0  0  0  0  0  0  0  0  0  0
   13.1094   -9.8275  -11.6807 C   0  0  0  0  0  0  0  0  0  0  0  0
    8.1860   -8.1710  -11.8371 C   0  0  0  0  0  0  0  0  0  0  0  0
   13.0897  -11.7334  -13.0739 C   0  0  0  0  0  0  0  0  0  0  0  0
   11.9377  -11.7369  -10.9899 C   0  0  0  0  0  0  0  0  0  0  0  0
    7.8801   -8.7894  -10.4621 C   0  0  0  0  0  0  0  0  0  0  0  0
    7.9100  -10.3229  -10.6028 C   0  0  0  0  0  0  0  0  0  0  0  0
    6.3492  -11.9783   -9.7864 C   0  0  0  0  0  0  0  0  0  0  0  0
  1 23  1  0  0  0  0
  1 24  1  0  0  0  0
  1  2  1  0  0  0  0
  3  4  1  0  0  0  0
  3 17  1  0  0  0  0
  4  6  2  0  0  0  0
  4 13  1  0  0  0  0
  5 10  1  0  0  0  0
  5 14  2  0  0  0  0
  6  8  1  0  0  0  0
  7 12  1  0  0  0  0
  7 14  1  0  0  0  0
  7 19  1  0  0  0  0
  8 10  2  0  0  0  0
  9 14  1  0  0  0  0
 10 12  1  0  0  0  0
 11 18  1  0  0  0  0
 11 20  1  0  0  0  0
 11 21  1  0  0  0  0
 12 13  2  0  0  0  0
 13 15  1  0  0  0  0
 15 16  1  0  0  0  0
 16 17  1  0  0  0  0
 16 18  1  1  0  0  0
 19 22  1  0  0  0  0
 22 23  1  0  0  0  0
M  END
>  <CHROM.1>
-110.82281239,111.20850632,92.59904340,63.05536197,-165.88958154,-168.14754736
10.15257656,-8.13054122,-11.62060758,2.05375754,-0.31873745,2.90759536

>  <Name>
ligand

>  <RI>
0

>  <Rbt.Current_Directory>
/home/itssahil/PROJECTS/Mol_Feturizer/New_Systems/rnas/3TZR

>  <Rbt.Executable>
rbdock ($Id: //depot/dev/client3/rdock/2013.1/src/exe/rbdock.cxx#4 $)

>  <Rbt.Library>
libRbt.so (2013.1, Build901 2013/11/27)

>  <Rbt.Parameter_File>
/export/apps/rDock/src/rDock_2013.1_src/data/scripts/dock_solv.prm

>  <Rbt.Receptor>
prm/blind_docking_80.prm

>  <SCORE>
-36.4279

>  <SCORE.INTER>
-25.5464

>  <SCORE.INTER.CONST>
1

>  <SCORE.INTER.POLAR>
0

>  <SCORE.INTER.ROT>
6

>  <SCORE.INTER.SOLV>
19.5069

>  <SCORE.INTER.VDW>
-31.1332

>  <SCORE.INTER.norm>
-1.06443

>  <SCORE.INTRA>
-10.8815

>  <SCORE.INTRA.DIHEDRAL>
1.25532

>  <SCORE.INTRA.DIHEDRAL.0>
4.94008

>  <SCORE.INTRA.POLAR>
0

>  <SCORE.INTRA.POLAR.0>
0

>  <SCORE.INTRA.REPUL>
0

>  <SCORE.INTRA.REPUL.0>
0

>  <SCORE.INTRA.SOLV>
0.271895

>  <SCORE.INTRA.SOLV.lig_0>
-31.4704

>  <SCORE.INTRA.VDW>
-11.6451

>  <SCORE.INTRA.VDW.0>
10.2807

>  <SCORE.INTRA.norm>
-0.453395

>  <SCORE.RESTR>
0

>  <SCORE.RESTR.CAVITY>
0

>  <SCORE.RESTR.norm>
0

>  <SCORE.SYSTEM>
0

>  <SCORE.SYSTEM.CONST>
0

>  <SCORE.SYSTEM.DIHEDRAL>
0

>  <SCORE.SYSTEM.SOLV>
0

>  <SCORE.SYSTEM.norm>
0

>  <SCORE.heavy>
24

>  <SCORE.norm>
-1.51783

>  <RMSD>
0.760

$$$$
ligand
 OpenBabel11021811493D
libRbt.so/2013.1/901 2013/11/27
 24 26  0  0  0  0  0  0  0  0999 V2000
    6.9588  -11.0893   -9.6591 N   0  0  0  0  0  0  0  0  0  0  0  0
    8.0456  -11.6893   -8.9020 C   0  0  0  0  0  0  0  0  0  0  0  0
   13.7994   -7.2979  -12.9890 O   0  0  0  0  0  0  0  0  0  0  0  0
   12.6196   -6.6397  -12.6684 C   0  0  0  0  0  0  0  0  0  0  0  0
    8.8912   -4.7729  -11.7342 N   0  0  0  0  0  0  0  0  0  0  0  0
   12.5709   -5.1411  -12.5315 C   0  0  0  0  0  0  0  0  0  0  0  0
    8.8729   -7.0128  -11.9023 N   0  0  0  0  0  0  0  0  0  0  0  0
   11.3612   -4.4361  -12.2291 C   0  0  0  0  0  0  0  0  0  0  0  0
    6.6994   -5.8960  -11.3498 N   0  0  0  0  0  0  0  0  0  0  0  0
   10.1779   -5.2355  -12.0437 C   0  0  0  0  0  0  0  0  0  0  0  0
   13.6817  -11.7593  -12.5861 N   0  0  0  0  0  0  0  0  0  0  0  0
   10.2137   -6.6690  -12.1565 C   0  0  0  0  0  0  0  0  0  0  0  0
   11.4913   -7.3591  -12.4838 C   0  0  0  0  0  0  0  0  0  0  0  0
    8.1003   -5.8823  -11.6581 C   0  0  0  0  0  0  0  0  0  0  0  0
   11.5071   -8.8712  -12.6081 C   0  0  0  0  0  0  0  0  0  0  0  0
   12.8935   -9.4978  -12.7109 C   0  0  1  0  0  0  0  0  0  0  0  0
   13.9929   -8.5279  -12.3843 C   0  0  0  0  0  0  0  0  0  0  0  0
   12.9705  -10.7392  -11.8350 C   0  0  0  0  0  0  0  0  0  0  0  0
    8.3388   -8.3864  -11.9737 C   0  0  0  0  0  0  0  0  0  0  0  0
   14.3927  -12.6140  -11.6450 C   0  0  0  0  0  0  0  0  0  0  0  0
   12.6902  -12.5411  -13.3082 C   0  0  0  0  0  0  0  0  0  0  0  0
    7.9722   -9.0237  -10.6223 C   0  0  0  0  0  0  0  0  0  0  0  0
    7.4771  -10.4590  -10.8816 C   0  0  0  0  0  0  0  0  0  0  0  0
    5.9929  -12.1364   -9.9723 C   0  0  0  0  0  0  0  0  0  0  0  0
  1 23  1  0  0  0  0
  1 24  1  0  0  0  0
  1  2  1  0  0  0  0
  3  4  1  0  0  0  0
  3 17  1  0  0  0  0
  4  6  2  0  0  0  0
  4 13  1  0  0  0  0
  5 10  1  0  0  0  0
  5 14  2  0  0  0  0
  6  8  1  0  0  0  0
  7 12  1  0  0  0  0
  7 14  1  0  0  0  0
  7 19  1  0  0  0  0
  8 10  2  0  0  0  0
  9 14  1  0  0  0  0
 10 12  1  0  0  0  0
 11 18  1  0  0  0  0
 11 20  1  0  0  0  0
 11 21  1  0  0  0  0
 12 13  2  0  0  0  0
 13 15  1  0  0  0  0
 15 16  1  0  0  0  0
 16 17  1  0  0  0  0
 16 18  1  1  0  0  0
 19 22  1  0  0  0  0
 22 23  1  0  0  0  0
M  END
>  <CHROM.1>
-85.21490314,109.16600471,149.60823507,137.96912529,-178.28546625,-173.41552629
10.47922414,-8.63374597,-11.75892428,3.03428458,0.31561233,-0.16858221

>  <Name>
ligand

>  <RI>
0

>  <Rbt.Current_Directory>
/home/itssahil/PROJECTS/Mol_Feturizer/New_Systems/rnas/3TZR

>  <Rbt.Executable>
rbdock ($Id: //depot/dev/client3/rdock/2013.1/src/exe/rbdock.cxx#4 $)

>  <Rbt.Library>
libRbt.so (2013.1, Build901 2013/11/27)

>  <Rbt.Parameter_File>
/export/apps/rDock/src/rDock_2013.1_src/data/scripts/dock_solv.prm

>  <Rbt.Receptor>
prm/blind_docking_100.prm

>  <SCORE>
-34.3304

>  <SCORE.INTER>
-24.8068

>  <SCORE.INTER.CONST>
1

>  <SCORE.INTER.POLAR>
0

>  <SCORE.INTER.ROT>
6

>  <SCORE.INTER.SOLV>
18.6661

>  <SCORE.INTER.VDW>
-30.3599

>  <SCORE.INTER.norm>
-1.03362

>  <SCORE.INTRA>
-9.52365

>  <SCORE.INTRA.DIHEDRAL>
2.86217

>  <SCORE.INTRA.DIHEDRAL.0>
4.94008

>  <SCORE.INTRA.POLAR>
0

>  <SCORE.INTRA.POLAR.0>
0

>  <SCORE.INTRA.REPUL>
0

>  <SCORE.INTRA.REPUL.0>
0

>  <SCORE.INTRA.SOLV>
0.252807

>  <SCORE.INTRA.SOLV.lig_0>
-31.4704

>  <SCORE.INTRA.VDW>
-11.0811

>  <SCORE.INTRA.VDW.0>
10.2807

>  <SCORE.INTRA.norm>
-0.396819

>  <SCORE.RESTR>
0

>  <SCORE.RESTR.CAVITY>
0

>  <SCORE.RESTR.norm>
0

>  <SCORE.SYSTEM>
0

>  <SCORE.SYSTEM.CONST>
0

>  <SCORE.SYSTEM.DIHEDRAL>
0

>  <SCORE.SYSTEM.SOLV>
0

>  <SCORE.SYSTEM.norm>
0

>  <SCORE.heavy>
24

>  <SCORE.norm>
-1.43043

>  <RMSD>
0.762

$$$$
ligand
 OpenBabel11021811493D
libRbt.so/2013.1/901 2013/11/27
 24 26  0  0  0  0  0  0  0  0999 V2000
    7.5633  -11.1910   -9.5331 N   0  0  0  0  0  0  0  0  0  0  0  0
    8.8004  -11.9480   -9.4297 C   0  0  0  0  0  0  0  0  0  0  0  0
   13.5900   -7.4550  -13.1292 O   0  0  0  0  0  0  0  0  0  0  0  0
   12.4670   -6.7247  -12.7641 C   0  0  0  0  0  0  0  0  0  0  0  0
    8.9017   -4.6306  -11.6861 N   0  0  0  0  0  0  0  0  0  0  0  0
   12.5125   -5.2245  -12.6456 C   0  0  0  0  0  0  0  0  0  0  0  0
    8.7444   -6.8672  -11.8225 N   0  0  0  0  0  0  0  0  0  0  0  0
   11.3614   -4.4459  -12.2980 C   0  0  0  0  0  0  0  0  0  0  0  0
    6.6680   -5.6179  -11.1866 N   0  0  0  0  0  0  0  0  0  0  0  0
   10.1433   -5.1718  -12.0477 C   0  0  0  0  0  0  0  0  0  0  0  0
   13.4742  -11.8030  -12.5421 N   0  0  0  0  0  0  0  0  0  0  0  0
   10.0898   -6.6061  -12.1424 C   0  0  0  0  0  0  0  0  0  0  0  0
   11.3083   -7.3740  -12.5183 C   0  0  0  0  0  0  0  0  0  0  0  0
    8.0515   -5.6904  -11.5587 C   0  0  0  0  0  0  0  0  0  0  0  0
   11.2297   -8.8857  -12.6224 C   0  0  0  0  0  0  0  0  0  0  0  0
   12.5708   -9.5943  -12.7799 C   0  0  1  0  0  0  0  0  0  0  0  0
   13.7390   -8.6875  -12.5172 C   0  0  0  0  0  0  0  0  0  0  0  0
   12.6156  -10.8283  -11.8915 C   0  0  0  0  0  0  0  0  0  0  0  0
    8.1281   -8.2076  -11.8506 C   0  0  0  0  0  0  0  0  0  0  0  0
   14.1810  -12.5548  -11.5140 C   0  0  0  0  0  0  0  0  0  0  0  0
   12.6189  -12.6982  -13.3055 C   0  0  0  0  0  0  0  0  0  0  0  0
    8.2228   -9.0058  -10.5389 C   0  0  0  0  0  0  0  0  0  0  0  0
    7.5633  -10.3802  -10.7591 C   0  0  0  0  0  0  0  0  0  0  0  0
    6.4521  -12.1356   -9.5235 C   0  0  0  0  0  0  0  0  0  0  0  0
  1 23  1  0  0  0  0
  1 24  1  0  0  0  0
  1  2  1  0  0  0  0
  3  4  1  0  0  0  0
  3 17  1  0  0  0  0
  4  6  2  0  0  0  0
  4 13  1  0  0  0  0
  5 10  1  0  0  0  0
  5 14  2  0  0  0  0
  6  8  1  0  0  0  0
  7 12  1  0  0  0  0
  7 14  1  0  0  0  0
  7 19  1  0  0  0  0
  8 10  2  0  0  0  0
  9 14  1  0  0  0  0
 10 12  1  0  0  0  0
 11 18  1  0  0  0  0
 11 20  1  0  0  0  0
 11 21  1  0  0  0  0
 12 13  2  0  0  0  0
 13 15  1  0  0  0  0
 15 16  1  0  0  0  0
 16 17  1  0  0  0  0
 16 18  1  1  0  0  0
 19 22  1  0  0  0  0
 22 23  1  0  0  0  0
M  END
>  <CHROM.1>
-87.42708122,89.17683945,145.99582642,149.85404612,-178.67081727,-177.74825856
10.45490189,-8.63850515,-11.74837531,0.99192122,-0.35829590,2.95373382

>  <Name>
ligand

>  <RI>
0

>  <Rbt.Current_Directory>
/home/itssahil/PROJECTS/Mol_Feturizer/New_Systems/rnas/3TZR

>  <Rbt.Executable>
rbdock ($Id: //depot/dev/client3/rdock/2013.1/src/exe/rbdock.cxx#4 $)

>  <Rbt.Library>
libRbt.so (2013.1, Build901 2013/11/27)

>  <Rbt.Parameter_File>
/export/apps/rDock/src/rDock_2013.1_src/data/scripts/dock_solv.prm

>  <Rbt.Receptor>
prm/blind_docking_80.prm

>  <SCORE>
-34.6573

>  <SCORE.INTER>
-23.91

>  <SCORE.INTER.CONST>
1

>  <SCORE.INTER.POLAR>
0

>  <SCORE.INTER.ROT>
6

>  <SCORE.INTER.SOLV>
19.609

>  <SCORE.INTER.VDW>
-30.0763

>  <SCORE.INTER.norm>
-0.996251

>  <SCORE.INTRA>
-10.7472

>  <SCORE.INTRA.DIHEDRAL>
1.64047

>  <SCORE.INTRA.DIHEDRAL.0>
4.94008

>  <SCORE.INTRA.POLAR>
0

>  <SCORE.INTRA.POLAR.0>
0

>  <SCORE.INTRA.REPUL>
0

>  <SCORE.INTRA.REPUL.0>
0

>  <SCORE.INTRA.SOLV>
-0.150656

>  <SCORE.INTRA.SOLV.lig_0>
-31.4704

>  <SCORE.INTRA.VDW>
-11.4921

>  <SCORE.INTRA.VDW.0>
10.2807

>  <SCORE.INTRA.norm>
-0.447802

>  <SCORE.RESTR>
0

>  <SCORE.RESTR.CAVITY>
0

>  <SCORE.RESTR.norm>
0

>  <SCORE.SYSTEM>
0

>  <SCORE.SYSTEM.CONST>
0

>  <SCORE.SYSTEM.DIHEDRAL>
0

>  <SCORE.SYSTEM.SOLV>
0

>  <SCORE.SYSTEM.norm>
0

>  <SCORE.heavy>
24

>  <SCORE.norm>
-1.44405

>  <RMSD>
0.763

$$$$
ligand
 OpenBabel11021811493D
libRbt.so/2013.1/901 2013/11/27
 24 26  0  0  0  0  0  0  0  0999 V2000
    7.3555  -11.0475  -10.8675 N   0  0  0  0  0  0  0  0  0  0  0  0
    6.3903  -11.9704  -11.4426 C   0  0  0  0  0  0  0  0  0  0  0  0
   13.3753   -6.4624  -13.0050 O   0  0  0  0  0  0  0  0  0  0  0  0
   12.1327   -5.9159  -12.7134 C   0  0  0  0  0  0  0  0  0  0  0  0
    8.2286   -4.4060  -11.8550 N   0  0  0  0  0  0  0  0  0  0  0  0
   11.9193   -4.4258  -12.6860 C   0  0  0  0  0  0  0  0  0  0  0  0
    8.4575   -6.6405  -11.8580 N   0  0  0  0  0  0  0  0  0  0  0  0
   10.6415   -3.8375  -12.4154 C   0  0  0  0  0  0  0  0  0  0  0  0
    6.1785   -5.7314  -11.3518 N   0  0  0  0  0  0  0  0  0  0  0  0
    9.5559   -4.7460  -12.1517 C   0  0  0  0  0  0  0  0  0  0  0  0
   13.0122  -11.0958  -12.3772 N   0  0  0  0  0  0  0  0  0  0  0  0
    9.7495   -6.1713  -12.1596 C   0  0  0  0  0  0  0  0  0  0  0  0
   11.0929   -6.7392  -12.4573 C   0  0  0  0  0  0  0  0  0  0  0  0
    7.5664   -5.5868  -11.6841 C   0  0  0  0  0  0  0  0  0  0  0  0
   11.2753   -8.2454  -12.4706 C   0  0  0  0  0  0  0  0  0  0  0  0
   12.7217   -8.7216  -12.5510 C   0  0  1  0  0  0  0  0  0  0  0  0
   13.7095   -7.6150  -12.3152 C   0  0  0  0  0  0  0  0  0  0  0  0
   12.9437   -9.8780  -11.5879 C   0  0  0  0  0  0  0  0  0  0  0  0
    8.0785   -8.0661  -11.8194 C   0  0  0  0  0  0  0  0  0  0  0  0
   14.3950  -11.3051  -12.7843 C   0  0  0  0  0  0  0  0  0  0  0  0
   12.5785  -12.1929  -11.5264 C   0  0  0  0  0  0  0  0  0  0  0  0
    7.7526   -8.6253  -10.4238 C   0  0  0  0  0  0  0  0  0  0  0  0
    6.7171   -9.7543  -10.5837 C   0  0  0  0  0  0  0  0  0  0  0  0
    7.8911  -11.6511   -9.6525 C   0  0  0  0  0  0  0  0  0  0  0  0
  1 23  1  0  0  0  0
  1 24  1  0  0  0  0
  1  2  1  0  0  0  0
  3  4  1  0  0  0  0
  3 17  1  0  0  0  0
  4  6  2  0  0  0  0
  4 13  1  0  0  0  0
  5 10  1  0  0  0  0
  5 14  2  0  0  0  0
  6  8  1  0  0  0  0
  7 12  1  0  0  0  0
  7 14  1  0  0  0  0
  7 19  1  0  0  0  0
  8 10  2  0  0  0  0
  9 14  1  0  0  0  0
 10 12  1  0  0  0  0
 11 18  1  0  0  0  0
 11 20  1  0  0  0  0
 11 21  1  0  0  0  0
 12 13  2  0  0  0  0
 13 15  1  0  0  0  0
 15 16  1  0  0  0  0
 16 17  1  0  0  0  0
 16 18  1  1  0  0  0
 19 22  1  0  0  0  0
 22 23  1  0  0  0  0
M  END
>  <CHROM.1>
-161.08285381,111.06738344,88.46340153,105.02121921,150.07588479,85.78743057
10.15920006,-8.09944428,-11.84283298,2.78390071,0.23047621,-0.15200712

>  <Name>
ligand

>  <RI>
0

>  <Rbt.Current_Directory>
/home/itssahil/PROJECTS/Mol_Feturizer/New_Systems/rnas/3TZR

>  <Rbt.Executable>
rbdock ($Id: //depot/dev/client3/rdock/2013.1/src/exe/rbdock.cxx#4 $)

>  <Rbt.Library>
libRbt.so (2013.1, Build901 2013/11/27)

>  <Rbt.Parameter_File>
/export/apps/rDock/src/rDock_2013.1_src/data/scripts/dock_solv.prm

>  <Rbt.Receptor>
prm/pocket_docking_3.prm

>  <SCORE>
-31.4543

>  <SCORE.INTER>
-24.6137

>  <SCORE.INTER.CONST>
1

>  <SCORE.INTER.POLAR>
0

>  <SCORE.INTER.ROT>
6

>  <SCORE.INTER.SOLV>
19.5526

>  <SCORE.INTER.VDW>
-30.5266

>  <SCORE.INTER.norm>
-1.02557

>  <SCORE.INTRA>
-6.84062

>  <SCORE.INTRA.DIHEDRAL>
7.26988

>  <SCORE.INTRA.DIHEDRAL.0>
4.94008

>  <SCORE.INTRA.POLAR>
0

>  <SCORE.INTRA.POLAR.0>
0

>  <SCORE.INTRA.REPUL>
0

>  <SCORE.INTRA.REPUL.0>
0

>  <SCORE.INTRA.SOLV>
0.937752

>  <SCORE.INTRA.SOLV.lig_0>
-31.4704

>  <SCORE.INTRA.VDW>
-10.9444

>  <SCORE.INTRA.VDW.0>
10.2807

>  <SCORE.INTRA.norm>
-0.285026

>  <SCORE.RESTR>
0

>  <SCORE.RESTR.CAVITY>
0

>  <SCORE.RESTR.norm>
0

>  <SCORE.SYSTEM>
0

>  <SCORE.SYSTEM.CONST>
0

>  <SCORE.SYSTEM.DIHEDRAL>
0

>  <SCORE.SYSTEM.SOLV>
0

>  <SCORE.SYSTEM.norm>
0

>  <SCORE.heavy>
24

>  <SCORE.norm>
-1.31059

>  <RMSD>
0.764

$$$$
ligand
 OpenBabel11021811493D
libRbt.so/2013.1/901 2013/11/27
 24 26  0  0  0  0  0  0  0  0999 V2000
    7.4151  -11.0081   -9.4882 N   0  0  0  0  0  0  0  0  0  0  0  0
    8.4341  -11.6697   -8.6892 C   0  0  0  0  0  0  0  0  0  0  0  0
   13.4011   -6.3218  -12.9067 O   0  0  0  0  0  0  0  0  0  0  0  0
   12.1377   -5.8254  -12.6150 C   0  0  0  0  0  0  0  0  0  0  0  0
    8.1756   -4.4707  -11.7635 N   0  0  0  0  0  0  0  0  0  0  0  0
   11.8759   -4.3446  -12.5402 C   0  0  0  0  0  0  0  0  0  0  0  0
    8.4764   -6.6954  -11.8390 N   0  0  0  0  0  0  0  0  0  0  0  0
   10.5762   -3.8068  -12.2687 C   0  0  0  0  0  0  0  0  0  0  0  0
    6.1625   -5.8771  -11.3359 N   0  0  0  0  0  0  0  0  0  0  0  0
    9.5170   -4.7580  -12.0520 C   0  0  0  0  0  0  0  0  0  0  0  0
   12.2702  -10.9102  -12.1074 N   0  0  0  0  0  0  0  0  0  0  0  0
    9.7566   -6.1753  -12.1054 C   0  0  0  0  0  0  0  0  0  0  0  0
   11.1215   -6.6896  -12.4024 C   0  0  0  0  0  0  0  0  0  0  0  0
    7.5495   -5.6772  -11.6426 C   0  0  0  0  0  0  0  0  0  0  0  0
   11.3526   -8.1879  -12.4641 C   0  0  0  0  0  0  0  0  0  0  0  0
   12.8146   -8.6149  -12.5392 C   0  0  1  0  0  0  0  0  0  0  0  0
   13.7628   -7.4862  -12.2515 C   0  0  0  0  0  0  0  0  0  0  0  0
   13.0606   -9.7961  -11.6128 C   0  0  0  0  0  0  0  0  0  0  0  0
    8.1431   -8.1327  -11.8544 C   0  0  0  0  0  0  0  0  0  0  0  0
   13.0751  -11.6588  -13.0633 C   0  0  0  0  0  0  0  0  0  0  0  0
   11.9461  -11.7555  -10.9690 C   0  0  0  0  0  0  0  0  0  0  0  0
    7.9004   -8.7693  -10.4750 C   0  0  0  0  0  0  0  0  0  0  0  0
    8.0342  -10.2972  -10.6160 C   0  0  0  0  0  0  0  0  0  0  0  0
    6.4754  -12.0219   -9.9535 C   0  0  0  0  0  0  0  0  0  0  0  0
  1 23  1  0  0  0  0
  1 24  1  0  0  0  0
  1  2  1  0  0  0  0
  3  4  1  0  0  0  0
  3 17  1  0  0  0  0
  4  6  2  0  0  0  0
  4 13  1  0  0  0  0
  5 10  1  0  0  0  0
  5 14  2  0  0  0  0
  6  8  1  0  0  0  0
  7 12  1  0  0  0  0
  7 14  1  0  0  0  0
  7 19  1  0  0  0  0
  8 10  2  0  0  0  0
  9 14  1  0  0  0  0
 10 12  1  0  0  0  0
 11 18  1  0  0  0  0
 11 20  1  0  0  0  0
 11 21  1  0  0  0  0
 12 13  2  0  0  0  0
 13 15  1  0  0  0  0
 15 16  1  0  0  0  0
 16 17  1  0  0  0  0
 16 18  1  1  0  0  0
 19 22  1  0  0  0  0
 22 23  1  0  0  0  0
M  END
>  <CHROM.1>
-112.47362249,107.48871954,89.59615708,64.00012730,-161.41105965,-161.89867076
10.14358633,-8.10487986,-11.61582695,1.94260184,-0.30315604,2.90877981

>  <Name>
ligand

>  <RI>
144

>  <Rbt.Current_Directory>
/home/itssahil/PROJECTS/Mol_Feturizer/New_Systems/rnas/3TZR

>  <Rbt.Executable>
rbdock ($Id: //depot/dev/client3/rdock/2013.1/src/exe/rbdock.cxx#4 $)

>  <Rbt.Library>
libRbt.so (2013.1, Build901 2013/11/27)

>  <Rbt.Parameter_File>
/export/apps/rDock/src/rDock_2013.1_src/data/scripts/dock_solv.prm

>  <Rbt.Receptor>
prm/blind_docking_60.prm

>  <SCORE>
-36.209

>  <SCORE.INTER>
-25.7447

>  <SCORE.INTER.CONST>
1

>  <SCORE.INTER.POLAR>
0

>  <SCORE.INTER.ROT>
6

>  <SCORE.INTER.SOLV>
19.5463

>  <SCORE.INTER.VDW>
-31.2786

>  <SCORE.INTER.norm>
-1.07269

>  <SCORE.INTRA>
-10.4644

>  <SCORE.INTRA.DIHEDRAL>
2.27553

>  <SCORE.INTRA.DIHEDRAL.0>
4.94008

>  <SCORE.INTRA.POLAR>
0

>  <SCORE.INTRA.POLAR.0>
0

>  <SCORE.INTRA.REPUL>
0

>  <SCORE.INTRA.REPUL.0>
0

>  <SCORE.INTRA.SOLV>
0.229939

>  <SCORE.INTRA.SOLV.lig_0>
-31.4704

>  <SCORE.INTRA.VDW>
-11.7171

>  <SCORE.INTRA.VDW.0>
10.2807

>  <SCORE.INTRA.norm>
-0.436015

>  <SCORE.RESTR>
0

>  <SCORE.RESTR.CAVITY>
0

>  <SCORE.RESTR.norm>
0

>  <SCORE.SYSTEM>
0

>  <SCORE.SYSTEM.CONST>
0

>  <SCORE.SYSTEM.DIHEDRAL>
0

>  <SCORE.SYSTEM.SOLV>
0

>  <SCORE.SYSTEM.norm>
0

>  <SCORE.heavy>
24

>  <SCORE.norm>
-1.50871

>  <RMSD>
0.766

$$$$
ligand
 OpenBabel11021811493D
libRbt.so/2013.1/901 2013/11/27
 24 26  0  0  0  0  0  0  0  0999 V2000
    7.2747  -10.8960   -9.5666 N   0  0  0  0  0  0  0  0  0  0  0  0
    8.0954  -11.5177   -8.5399 C   0  0  0  0  0  0  0  0  0  0  0  0
   13.2511   -6.3470  -13.0056 O   0  0  0  0  0  0  0  0  0  0  0  0
   12.0139   -5.8247  -12.6530 C   0  0  0  0  0  0  0  0  0  0  0  0
    8.1272   -4.3889  -11.6085 N   0  0  0  0  0  0  0  0  0  0  0  0
   11.7841   -4.3387  -12.5764 C   0  0  0  0  0  0  0  0  0  0  0  0
    8.3822   -6.6194  -11.6819 N   0  0  0  0  0  0  0  0  0  0  0  0
   10.5104   -3.7744  -12.2424 C   0  0  0  0  0  0  0  0  0  0  0  0
    6.1132   -5.7538  -11.0663 N   0  0  0  0  0  0  0  0  0  0  0  0
    9.4464   -4.7037  -11.9637 C   0  0  0  0  0  0  0  0  0  0  0  0
   13.0181  -10.9927  -12.4988 N   0  0  0  0  0  0  0  0  0  0  0  0
    9.6564   -6.1256  -12.0182 C   0  0  0  0  0  0  0  0  0  0  0  0
   10.9942   -6.6679  -12.3813 C   0  0  0  0  0  0  0  0  0  0  0  0
    7.4859   -5.5824  -11.4459 C   0  0  0  0  0  0  0  0  0  0  0  0
   11.1938   -8.1707  -12.4430 C   0  0  0  0  0  0  0  0  0  0  0  0
   12.6417   -8.6259  -12.5902 C   0  0  1  0  0  0  0  0  0  0  0  0
   13.6245   -7.5136  -12.3608 C   0  0  0  0  0  0  0  0  0  0  0  0
   12.9134   -9.8052  -11.6684 C   0  0  0  0  0  0  0  0  0  0  0  0
    8.0218   -8.0502  -11.6686 C   0  0  0  0  0  0  0  0  0  0  0  0
   14.4075  -11.1492  -12.9075 C   0  0  0  0  0  0  0  0  0  0  0  0
   12.6129  -12.1301  -11.6879 C   0  0  0  0  0  0  0  0  0  0  0  0
    8.3723   -8.8078  -10.3763 C   0  0  0  0  0  0  0  0  0  0  0  0
    8.1248  -10.3095  -10.6124 C   0  0  0  0  0  0  0  0  0  0  0  0
    6.3873  -11.9151  -10.1158 C   0  0  0  0  0  0  0  0  0  0  0  0
  1 23  1  0  0  0  0
  1 24  1  0  0  0  0
  1  2  1  0  0  0  0
  3  4  1  0  0  0  0
  3 17  1  0  0  0  0
  4  6  2  0  0  0  0
  4 13  1  0  0  0  0
  5 10  1  0  0  0  0
  5 14  2  0  0  0  0
  6  8  1  0  0  0  0
  7 12  1  0  0  0  0
  7 14  1  0  0  0  0
  7 19  1  0  0  0  0
  8 10  2  0  0  0  0
  9 14  1  0  0  0  0
 10 12  1  0  0  0  0
 11 18  1  0  0  0  0
 11 20  1  0  0  0  0
 11 21  1  0  0  0  0
 12 13  2  0  0  0  0
 13 15  1  0  0  0  0
 15 16  1  0  0  0  0
 16 17  1  0  0  0  0
 16 18  1  1  0  0  0
 19 22  1  0  0  0  0
 22 23  1  0  0  0  0
M  END
>  <CHROM.1>
-95.84776104,84.25665295,89.27110614,107.18847853,-171.67286777,-128.23274733
10.19565110,-8.06511081,-11.62550739,1.14117274,-0.33408372,2.92214989

>  <Name>
ligand

>  <RI>
144

>  <Rbt.Current_Directory>
/home/itssahil/PROJECTS/Mol_Feturizer/New_Systems/rnas/3TZR

>  <Rbt.Executable>
rbdock ($Id: //depot/dev/client3/rdock/2013.1/src/exe/rbdock.cxx#4 $)

>  <Rbt.Library>
libRbt.so (2013.1, Build901 2013/11/27)

>  <Rbt.Parameter_File>
/export/apps/rDock/src/rDock_2013.1_src/data/scripts/dock_solv.prm

>  <Rbt.Receptor>
prm/pocket_docking_8.prm

>  <SCORE>
-33.0095

>  <SCORE.INTER>
-25.9245

>  <SCORE.INTER.CONST>
1

>  <SCORE.INTER.POLAR>
0

>  <SCORE.INTER.ROT>
6

>  <SCORE.INTER.SOLV>
20.4391

>  <SCORE.INTER.VDW>
-31.696

>  <SCORE.INTER.norm>
-1.08019

>  <SCORE.INTRA>
-7.08495

>  <SCORE.INTRA.DIHEDRAL>
9.20221

>  <SCORE.INTRA.DIHEDRAL.0>
4.94008

>  <SCORE.INTRA.POLAR>
0

>  <SCORE.INTRA.POLAR.0>
0

>  <SCORE.INTRA.REPUL>
0

>  <SCORE.INTRA.REPUL.0>
0

>  <SCORE.INTRA.SOLV>
-0.218948

>  <SCORE.INTRA.SOLV.lig_0>
-31.4704

>  <SCORE.INTRA.VDW>
-11.5766

>  <SCORE.INTRA.VDW.0>
10.2807

>  <SCORE.INTRA.norm>
-0.295206

>  <SCORE.RESTR>
0

>  <SCORE.RESTR.CAVITY>
0

>  <SCORE.RESTR.norm>
0

>  <SCORE.SYSTEM>
0

>  <SCORE.SYSTEM.CONST>
0

>  <SCORE.SYSTEM.DIHEDRAL>
0

>  <SCORE.SYSTEM.SOLV>
0

>  <SCORE.SYSTEM.norm>
0

>  <SCORE.heavy>
24

>  <SCORE.norm>
-1.37539

>  <RMSD>
0.771

$$$$
ligand
 OpenBabel11021811493D
libRbt.so/2013.1/901 2013/11/27
 24 26  0  0  0  0  0  0  0  0999 V2000
    7.4617  -11.1154  -10.5926 N   0  0  0  0  0  0  0  0  0  0  0  0
    6.4995  -12.0978  -11.0652 C   0  0  0  0  0  0  0  0  0  0  0  0
   13.4764   -6.7202  -13.1692 O   0  0  0  0  0  0  0  0  0  0  0  0
   12.2864   -6.1085  -12.7984 C   0  0  0  0  0  0  0  0  0  0  0  0
    8.5313   -4.3900  -11.7009 N   0  0  0  0  0  0  0  0  0  0  0  0
   12.1760   -4.6108  -12.6903 C   0  0  0  0  0  0  0  0  0  0  0  0
    8.6074   -6.6317  -11.8209 N   0  0  0  0  0  0  0  0  0  0  0  0
   10.9529   -3.9540  -12.3371 C   0  0  0  0  0  0  0  0  0  0  0  0
    6.4174   -5.6013  -11.1738 N   0  0  0  0  0  0  0  0  0  0  0  0
    9.8195   -4.8013  -12.0705 C   0  0  0  0  0  0  0  0  0  0  0  0
   13.3172  -11.2654  -12.7399 N   0  0  0  0  0  0  0  0  0  0  0  0
    9.9153   -6.2340  -12.1551 C   0  0  0  0  0  0  0  0  0  0  0  0
   11.2041   -6.8733  -12.5374 C   0  0  0  0  0  0  0  0  0  0  0  0
    7.7976   -5.5318  -11.5584 C   0  0  0  0  0  0  0  0  0  0  0  0
   11.2830   -8.3857  -12.6307 C   0  0  0  0  0  0  0  0  0  0  0  0
   12.6894   -8.9515  -12.7961 C   0  0  1  0  0  0  0  0  0  0  0  0
   13.7587   -7.9258  -12.5504 C   0  0  0  0  0  0  0  0  0  0  0  0
   12.8705  -10.1674  -11.9000 C   0  0  0  0  0  0  0  0  0  0  0  0
    8.1343   -8.0293  -11.8343 C   0  0  0  0  0  0  0  0  0  0  0  0
   14.7727  -11.2433  -12.7933 C   0  0  0  0  0  0  0  0  0  0  0  0
   12.8665  -12.5013  -12.1197 C   0  0  0  0  0  0  0  0  0  0  0  0
    7.9220   -8.6681  -10.4509 C   0  0  0  0  0  0  0  0  0  0  0  0
    6.8593   -9.7747  -10.5860 C   0  0  0  0  0  0  0  0  0  0  0  0
    7.8914  -11.5091   -9.2555 C   0  0  0  0  0  0  0  0  0  0  0  0
  1 23  1  0  0  0  0
  1 24  1  0  0  0  0
  1  2  1  0  0  0  0
  3  4  1  0  0  0  0
  3 17  1  0  0  0  0
  4  6  2  0  0  0  0
  4 13  1  0  0  0  0
  5 10  1  0  0  0  0
  5 14  2  0  0  0  0
  6  8  1  0  0  0  0
  7 12  1  0  0  0  0
  7 14  1  0  0  0  0
  7 19  1  0  0  0  0
  8 10  2  0  0  0  0
  9 14  1  0  0  0  0
 10 12  1  0  0  0  0
 11 18  1  0  0  0  0
 11 20  1  0  0  0  0
 11 21  1  0  0  0  0
 12 13  2  0  0  0  0
 13 15  1  0  0  0  0
 15 16  1  0  0  0  0
 16 17  1  0  0  0  0
 16 18  1  1  0  0  0
 19 22  1  0  0  0  0
 22 23  1  0  0  0  0
M  END
>  <CHROM.1>
-165.14701064,106.92465177,89.37678805,125.77582663,153.53782915,103.17925061
10.31543847,-8.19357122,-11.86843928,2.77198576,0.29719638,-0.13974774

>  <Name>
ligand

>  <RI>
0

>  <Rbt.Current_Directory>
/home/itssahil/PROJECTS/Mol_Feturizer/New_Systems/rnas/3TZR

>  <Rbt.Executable>
rbdock ($Id: //depot/dev/client3/rdock/2013.1/src/exe/rbdock.cxx#4 $)

>  <Rbt.Library>
libRbt.so (2013.1, Build901 2013/11/27)

>  <Rbt.Parameter_File>
/export/apps/rDock/src/rDock_2013.1_src/data/scripts/dock_solv.prm

>  <Rbt.Receptor>
prm/blind_docking_100.prm

>  <SCORE>
-30.551

>  <SCORE.INTER>
-25.1078

>  <SCORE.INTER.CONST>
1

>  <SCORE.INTER.POLAR>
0

>  <SCORE.INTER.ROT>
6

>  <SCORE.INTER.SOLV>
20.3496

>  <SCORE.INTER.VDW>
-31.1217

>  <SCORE.INTER.norm>
-1.04616

>  <SCORE.INTRA>
-5.44592

>  <SCORE.INTRA.DIHEDRAL>
9.68246

>  <SCORE.INTRA.DIHEDRAL.0>
4.94008

>  <SCORE.INTRA.POLAR>
0

>  <SCORE.INTRA.POLAR.0>
0

>  <SCORE.INTRA.REPUL>
0

>  <SCORE.INTRA.REPUL.0>
0

>  <SCORE.INTRA.SOLV>
0.71695

>  <SCORE.INTRA.SOLV.lig_0>
-31.4704

>  <SCORE.INTRA.VDW>
-10.6456

>  <SCORE.INTRA.VDW.0>
10.2807

>  <SCORE.INTRA.norm>
-0.226913

>  <SCORE.RESTR>
0.00272259

>  <SCORE.RESTR.CAVITY>
0.00272259

>  <SCORE.RESTR.norm>
0.000113441

>  <SCORE.SYSTEM>
0

>  <SCORE.SYSTEM.CONST>
0

>  <SCORE.SYSTEM.DIHEDRAL>
0

>  <SCORE.SYSTEM.SOLV>
0

>  <SCORE.SYSTEM.norm>
0

>  <SCORE.heavy>
24

>  <SCORE.norm>
-1.27296

>  <RMSD>
0.773

$$$$
ligand
 OpenBabel11021811493D
libRbt.so/2013.1/901 2013/11/27
 24 26  0  0  0  0  0  0  0  0999 V2000
    7.4134  -11.0014  -10.9164 N   0  0  0  0  0  0  0  0  0  0  0  0
    6.5488  -12.0492  -11.4348 C   0  0  0  0  0  0  0  0  0  0  0  0
   13.3143   -6.4236  -12.9352 O   0  0  0  0  0  0  0  0  0  0  0  0
   12.0462   -5.8897  -12.7489 C   0  0  0  0  0  0  0  0  0  0  0  0
    8.0696   -4.4224  -12.2076 N   0  0  0  0  0  0  0  0  0  0  0  0
   11.8008   -4.4065  -12.8321 C   0  0  0  0  0  0  0  0  0  0  0  0
    8.3444   -6.6462  -12.0499 N   0  0  0  0  0  0  0  0  0  0  0  0
   10.4979   -3.8331  -12.6716 C   0  0  0  0  0  0  0  0  0  0  0  0
    6.0222   -5.7618  -11.7306 N   0  0  0  0  0  0  0  0  0  0  0  0
    9.4183   -4.7487  -12.4080 C   0  0  0  0  0  0  0  0  0  0  0  0
   12.6870  -11.0301  -11.9797 N   0  0  0  0  0  0  0  0  0  0  0  0
    9.6414   -6.1664  -12.3107 C   0  0  0  0  0  0  0  0  0  0  0  0
   11.0108   -6.7196  -12.4961 C   0  0  0  0  0  0  0  0  0  0  0  0
    7.4234   -5.6054  -11.9954 C   0  0  0  0  0  0  0  0  0  0  0  0
   11.2248   -8.2186  -12.3994 C   0  0  0  0  0  0  0  0  0  0  0  0
   12.6830   -8.6637  -12.3687 C   0  0  1  0  0  0  0  0  0  0  0  0
   13.6329   -7.5204  -12.1531 C   0  0  0  0  0  0  0  0  0  0  0  0
   12.8743   -9.7492  -11.3203 C   0  0  0  0  0  0  0  0  0  0  0  0
    7.9934   -8.0750  -11.9375 C   0  0  0  0  0  0  0  0  0  0  0  0
   13.9273  -11.3876  -12.6548 C   0  0  0  0  0  0  0  0  0  0  0  0
   12.3871  -12.0121  -10.9495 C   0  0  0  0  0  0  0  0  0  0  0  0
    7.5597   -8.5405  -10.5368 C   0  0  0  0  0  0  0  0  0  0  0  0
    6.6439   -9.7686  -10.6962 C   0  0  0  0  0  0  0  0  0  0  0  0
    8.0117  -11.4805   -9.6754 C   0  0  0  0  0  0  0  0  0  0  0  0
  1 23  1  0  0  0  0
  1 24  1  0  0  0  0
  1  2  1  0  0  0  0
  3  4  1  0  0  0  0
  3 17  1  0  0  0  0
  4  6  2  0  0  0  0
  4 13  1  0  0  0  0
  5 10  1  0  0  0  0
  5 14  2  0  0  0  0
  6  8  1  0  0  0  0
  7 12  1  0  0  0  0
  7 14  1  0  0  0  0
  7 19  1  0  0  0  0
  8 10  2  0  0  0  0
  9 14  1  0  0  0  0
 10 12  1  0  0  0  0
 11 18  1  0  0  0  0
 11 20  1  0  0  0  0
 11 21  1  0  0  0  0
 12 13  2  0  0  0  0
 13 15  1  0  0  0  0
 15 16  1  0  0  0  0
 16 17  1  0  0  0  0
 16 18  1  1  0  0  0
 19 22  1  0  0  0  0
 22 23  1  0  0  0  0
M  END
>  <CHROM.1>
-163.79687994,112.85956889,81.59085749,91.41379463,154.00514883,80.35304433
10.05393843,-8.06867168,-11.86213780,1.20114856,-0.17618319,2.93154231

>  <Name>
ligand

>  <RI>
0

>  <Rbt.Current_Directory>
/home/itssahil/PROJECTS/Mol_Feturizer/New_Systems/rnas/3TZR

>  <Rbt.Executable>
rbdock ($Id: //depot/dev/client3/rdock/2013.1/src/exe/rbdock.cxx#4 $)

>  <Rbt.Library>
libRbt.so (2013.1, Build901 2013/11/27)

>  <Rbt.Parameter_File>
/export/apps/rDock/src/rDock_2013.1_src/data/scripts/dock_solv.prm

>  <Rbt.Receptor>
prm/pocket_docking_2.prm

>  <SCORE>
-32.5116

>  <SCORE.INTER>
-24.3192

>  <SCORE.INTER.CONST>
1

>  <SCORE.INTER.POLAR>
0

>  <SCORE.INTER.ROT>
6

>  <SCORE.INTER.SOLV>
19.9876

>  <SCORE.INTER.VDW>
-30.4753

>  <SCORE.INTER.norm>
-1.0133

>  <SCORE.INTRA>
-8.19242

>  <SCORE.INTRA.DIHEDRAL>
3.78409

>  <SCORE.INTRA.DIHEDRAL.0>
4.94008

>  <SCORE.INTRA.POLAR>
0

>  <SCORE.INTRA.POLAR.0>
0

>  <SCORE.INTRA.REPUL>
0

>  <SCORE.INTRA.REPUL.0>
0

>  <SCORE.INTRA.SOLV>
0.928965

>  <SCORE.INTRA.SOLV.lig_0>
-31.4704

>  <SCORE.INTRA.VDW>
-10.5489

>  <SCORE.INTRA.VDW.0>
10.2807

>  <SCORE.INTRA.norm>
-0.341351

>  <SCORE.RESTR>
0

>  <SCORE.RESTR.CAVITY>
0

>  <SCORE.RESTR.norm>
0

>  <SCORE.SYSTEM>
0

>  <SCORE.SYSTEM.CONST>
0

>  <SCORE.SYSTEM.DIHEDRAL>
0

>  <SCORE.SYSTEM.SOLV>
0

>  <SCORE.SYSTEM.norm>
0

>  <SCORE.heavy>
24

>  <SCORE.norm>
-1.35465

>  <RMSD>
0.774

$$$$
ligand
 OpenBabel11021811493D
libRbt.so/2013.1/901 2013/11/27
 24 26  0  0  0  0  0  0  0  0999 V2000
    7.5034  -10.9938   -9.3833 N   0  0  0  0  0  0  0  0  0  0  0  0
    8.5446  -11.7987   -8.7651 C   0  0  0  0  0  0  0  0  0  0  0  0
   13.3657   -6.3751  -12.9875 O   0  0  0  0  0  0  0  0  0  0  0  0
   12.1083   -5.8692  -12.6862 C   0  0  0  0  0  0  0  0  0  0  0  0
    8.1635   -4.4859  -11.8006 N   0  0  0  0  0  0  0  0  0  0  0  0
   11.8520   -4.3864  -12.6352 C   0  0  0  0  0  0  0  0  0  0  0  0
    8.4566   -6.7126  -11.8389 N   0  0  0  0  0  0  0  0  0  0  0  0
   10.5582   -3.8395  -12.3544 C   0  0  0  0  0  0  0  0  0  0  0  0
    6.1530   -5.8776  -11.3164 N   0  0  0  0  0  0  0  0  0  0  0  0
    9.4996   -4.7830  -12.1038 C   0  0  0  0  0  0  0  0  0  0  0  0
   12.2005  -10.9303  -12.0595 N   0  0  0  0  0  0  0  0  0  0  0  0
    9.7342   -6.2018  -12.1343 C   0  0  0  0  0  0  0  0  0  0  0  0
   11.0929   -6.7260  -12.4421 C   0  0  0  0  0  0  0  0  0  0  0  0
    7.5358   -5.6879  -11.6477 C   0  0  0  0  0  0  0  0  0  0  0  0
   11.3186   -8.2259  -12.4792 C   0  0  0  0  0  0  0  0  0  0  0  0
   12.7780   -8.6590  -12.5683 C   0  0  1  0  0  0  0  0  0  0  0  0
   13.7339   -7.5282  -12.3162 C   0  0  0  0  0  0  0  0  0  0  0  0
   13.0345   -9.8234  -11.6237 C   0  0  0  0  0  0  0  0  0  0  0  0
    8.1188   -8.1490  -11.8223 C   0  0  0  0  0  0  0  0  0  0  0  0
   12.9601  -11.7360  -13.0059 C   0  0  0  0  0  0  0  0  0  0  0  0
   11.8794  -11.7246  -10.8841 C   0  0  0  0  0  0  0  0  0  0  0  0
    7.9671   -8.7757  -10.4255 C   0  0  0  0  0  0  0  0  0  0  0  0
    8.0286  -10.3077  -10.5724 C   0  0  0  0  0  0  0  0  0  0  0  0
    6.3940  -11.8757   -9.7282 C   0  0  0  0  0  0  0  0  0  0  0  0
  1 23  1  0  0  0  0
  1 24  1  0  0  0  0
  1  2  1  0  0  0  0
  3  4  1  0  0  0  0
  3 17  1  0  0  0  0
  4  6  2  0  0  0  0
  4 13  1  0  0  0  0
  5 10  1  0  0  0  0
  5 14  2  0  0  0  0
  6  8  1  0  0  0  0
  7 12  1  0  0  0  0
  7 14  1  0  0  0  0
  7 19  1  0  0  0  0
  8 10  2  0  0  0  0
  9 14  1  0  0  0  0
 10 12  1  0  0  0  0
 11 18  1  0  0  0  0
 11 20  1  0  0  0  0
 11 21  1  0  0  0  0
 12 13  2  0  0  0  0
 13 15  1  0  0  0  0
 15 16  1  0  0  0  0
 16 17  1  0  0  0  0
 16 18  1  1  0  0  0
 19 22  1  0  0  0  0
 22 23  1  0  0  0  0
M  END
>  <CHROM.1>
-118.05618526,104.44203997,90.80822169,62.17653933,-163.71321045,-163.06318257
10.12456647,-8.12620566,-11.61412630,1.91915973,-0.31509724,2.88898508

>  <Name>
ligand

>  <RI>
144

>  <Rbt.Current_Directory>
/home/itssahil/PROJECTS/Mol_Feturizer/New_Systems/rnas/3TZR

>  <Rbt.Executable>
rbdock ($Id: //depot/dev/client3/rdock/2013.1/src/exe/rbdock.cxx#4 $)

>  <Rbt.Library>
libRbt.so (2013.1, Build901 2013/11/27)

>  <Rbt.Parameter_File>
/export/apps/rDock/src/rDock_2013.1_src/data/scripts/dock_solv.prm

>  <Rbt.Receptor>
prm/pocket_docking_8.prm

>  <SCORE>
-36.5429

>  <SCORE.INTER>
-25.8671

>  <SCORE.INTER.CONST>
1

>  <SCORE.INTER.POLAR>
0

>  <SCORE.INTER.ROT>
6

>  <SCORE.INTER.SOLV>
19.5105

>  <SCORE.INTER.VDW>
-31.3483

>  <SCORE.INTER.norm>
-1.0778

>  <SCORE.INTRA>
-10.6757

>  <SCORE.INTRA.DIHEDRAL>
2.01923

>  <SCORE.INTRA.DIHEDRAL.0>
4.94008

>  <SCORE.INTRA.POLAR>
0

>  <SCORE.INTRA.POLAR.0>
0

>  <SCORE.INTRA.REPUL>
0

>  <SCORE.INTRA.REPUL.0>
0

>  <SCORE.INTRA.SOLV>
0.202032

>  <SCORE.INTRA.SOLV.lig_0>
-31.4704

>  <SCORE.INTRA.VDW>
-11.7864

>  <SCORE.INTRA.VDW.0>
10.2807

>  <SCORE.INTRA.norm>
-0.444822

>  <SCORE.RESTR>
0

>  <SCORE.RESTR.CAVITY>
0

>  <SCORE.RESTR.norm>
0

>  <SCORE.SYSTEM>
0

>  <SCORE.SYSTEM.CONST>
0

>  <SCORE.SYSTEM.DIHEDRAL>
0

>  <SCORE.SYSTEM.SOLV>
0

>  <SCORE.SYSTEM.norm>
0

>  <SCORE.heavy>
24

>  <SCORE.norm>
-1.52262

>  <RMSD>
0.775

$$$$
ligand
 OpenBabel11021811493D
libRbt.so/2013.1/901 2013/11/27
 24 26  0  0  0  0  0  0  0  0999 V2000
    7.5063  -11.0344   -9.6810 N   0  0  0  0  0  0  0  0  0  0  0  0
    8.7116  -11.8000   -9.4064 C   0  0  0  0  0  0  0  0  0  0  0  0
   13.2221   -6.1480  -12.7684 O   0  0  0  0  0  0  0  0  0  0  0  0
   11.9141   -5.7053  -12.6232 C   0  0  0  0  0  0  0  0  0  0  0  0
    7.8282   -4.5206  -12.2228 N   0  0  0  0  0  0  0  0  0  0  0  0
   11.5785   -4.2376  -12.6310 C   0  0  0  0  0  0  0  0  0  0  0  0
    8.2368   -6.7291  -12.1834 N   0  0  0  0  0  0  0  0  0  0  0  0
   10.2347   -3.7561  -12.5111 C   0  0  0  0  0  0  0  0  0  0  0  0
    5.8488   -6.0100  -11.9449 N   0  0  0  0  0  0  0  0  0  0  0  0
    9.2038   -4.7507  -12.3650 C   0  0  0  0  0  0  0  0  0  0  0  0
   12.4647  -10.8142  -12.0261 N   0  0  0  0  0  0  0  0  0  0  0  0
    9.5122   -6.1554  -12.3405 C   0  0  0  0  0  0  0  0  0  0  0  0
   10.9224   -6.6112  -12.4802 C   0  0  0  0  0  0  0  0  0  0  0  0
    7.2490   -5.7520  -12.1192 C   0  0  0  0  0  0  0  0  0  0  0  0
   11.2269   -8.0975  -12.4617 C   0  0  0  0  0  0  0  0  0  0  0  0
   12.7071   -8.4539  -12.3745 C   0  0  1  0  0  0  0  0  0  0  0  0
   13.5685   -7.2708  -12.0367 C   0  0  0  0  0  0  0  0  0  0  0  0
   12.9119   -9.5901  -11.3840 C   0  0  0  0  0  0  0  0  0  0  0  0
    7.9730   -8.1808  -12.1774 C   0  0  0  0  0  0  0  0  0  0  0  0
   13.5693  -11.3571  -12.8051 C   0  0  0  0  0  0  0  0  0  0  0  0
   12.0975  -11.7500  -10.9749 C   0  0  0  0  0  0  0  0  0  0  0  0
    7.8805   -8.8296  -10.7855 C   0  0  0  0  0  0  0  0  0  0  0  0
    7.6280  -10.3378  -10.9695 C   0  0  0  0  0  0  0  0  0  0  0  0
    6.3752  -11.9553   -9.6820 C   0  0  0  0  0  0  0  0  0  0  0  0
  1 23  1  0  0  0  0
  1 24  1  0  0  0  0
  1  2  1  0  0  0  0
  3  4  1  0  0  0  0
  3 17  1  0  0  0  0
  4  6  2  0  0  0  0
  4 13  1  0  0  0  0
  5 10  1  0  0  0  0
  5 14  2  0  0  0  0
  6  8  1  0  0  0  0
  7 12  1  0  0  0  0
  7 14  1  0  0  0  0
  7 19  1  0  0  0  0
  8 10  2  0  0  0  0
  9 14  1  0  0  0  0
 10 12  1  0  0  0  0
 11 18  1  0  0  0  0
 11 20  1  0  0  0  0
 11 21  1  0  0  0  0
 12 13  2  0  0  0  0
 13 15  1  0  0  0  0
 15 16  1  0  0  0  0
 16 17  1  0  0  0  0
 16 18  1  1  0  0  0
 19 22  1  0  0  0  0
 22 23  1  0  0  0  0
M  END
>  <CHROM.1>
-105.17657964,96.57485553,86.01647646,75.13630061,-179.03969613,-179.16895604
10.02601888,-8.05822142,-11.75274901,1.71742677,-0.20469686,2.86286318

>  <Name>
ligand

>  <RI>
0

>  <Rbt.Current_Directory>
/home/itssahil/PROJECTS/Mol_Feturizer/New_Systems/rnas/3TZR

>  <Rbt.Executable>
rbdock ($Id: //depot/dev/client3/rdock/2013.1/src/exe/rbdock.cxx#4 $)

>  <Rbt.Library>
libRbt.so (2013.1, Build901 2013/11/27)

>  <Rbt.Parameter_File>
/export/apps/rDock/src/rDock_2013.1_src/data/scripts/dock_solv.prm

>  <Rbt.Receptor>
prm/pocket_docking_3.prm

>  <SCORE>
-36.6312

>  <SCORE.INTER>
-25.0362

>  <SCORE.INTER.CONST>
1

>  <SCORE.INTER.POLAR>
0

>  <SCORE.INTER.ROT>
6

>  <SCORE.INTER.SOLV>
20.3005

>  <SCORE.INTER.VDW>
-31.0577

>  <SCORE.INTER.norm>
-1.04318

>  <SCORE.INTRA>
-11.5949

>  <SCORE.INTRA.DIHEDRAL>
0.176933

>  <SCORE.INTRA.DIHEDRAL.0>
4.94008

>  <SCORE.INTRA.POLAR>
0

>  <SCORE.INTRA.POLAR.0>
0

>  <SCORE.INTRA.REPUL>
0

>  <SCORE.INTRA.REPUL.0>
0

>  <SCORE.INTRA.SOLV>
-0.011914

>  <SCORE.INTRA.SOLV.lig_0>
-31.4704

>  <SCORE.INTRA.VDW>
-11.6774

>  <SCORE.INTRA.VDW.0>
10.2807

>  <SCORE.INTRA.norm>
-0.483122

>  <SCORE.RESTR>
0

>  <SCORE.RESTR.CAVITY>
0

>  <SCORE.RESTR.norm>
0

>  <SCORE.SYSTEM>
0

>  <SCORE.SYSTEM.CONST>
0

>  <SCORE.SYSTEM.DIHEDRAL>
0

>  <SCORE.SYSTEM.SOLV>
0

>  <SCORE.SYSTEM.norm>
0

>  <SCORE.heavy>
24

>  <SCORE.norm>
-1.5263

>  <RMSD>
0.777

$$$$
ligand
 OpenBabel11021811493D
libRbt.so/2013.1/901 2013/11/27
 24 26  0  0  0  0  0  0  0  0999 V2000
    7.5578  -10.8984   -9.5595 N   0  0  0  0  0  0  0  0  0  0  0  0
    8.5255  -11.7958   -8.9492 C   0  0  0  0  0  0  0  0  0  0  0  0
   13.2195   -6.1893  -12.7036 O   0  0  0  0  0  0  0  0  0  0  0  0
   11.9165   -5.7309  -12.5621 C   0  0  0  0  0  0  0  0  0  0  0  0
    7.8439   -4.4968  -12.1755 N   0  0  0  0  0  0  0  0  0  0  0  0
   11.6001   -4.2589  -12.5577 C   0  0  0  0  0  0  0  0  0  0  0  0
    8.2235   -6.7107  -12.1551 N   0  0  0  0  0  0  0  0  0  0  0  0
   10.2619   -3.7611  -12.4414 C   0  0  0  0  0  0  0  0  0  0  0  0
    5.8436   -5.9628  -11.9243 N   0  0  0  0  0  0  0  0  0  0  0  0
    9.2172   -4.7435  -12.3114 C   0  0  0  0  0  0  0  0  0  0  0  0
   12.7104  -10.8783  -12.1008 N   0  0  0  0  0  0  0  0  0  0  0  0
    9.5072   -6.1523  -12.2987 C   0  0  0  0  0  0  0  0  0  0  0  0
   10.9122   -6.6251  -12.4341 C   0  0  0  0  0  0  0  0  0  0  0  0
    7.2481   -5.7214  -12.0875 C   0  0  0  0  0  0  0  0  0  0  0  0
   11.1972   -8.1153  -12.4282 C   0  0  0  0  0  0  0  0  0  0  0  0
   12.6720   -8.4919  -12.3353 C   0  0  1  0  0  0  0  0  0  0  0  0
   13.5467   -7.3235  -11.9807 C   0  0  0  0  0  0  0  0  0  0  0  0
   12.8557   -9.6403  -11.3547 C   0  0  0  0  0  0  0  0  0  0  0  0
    7.9408   -8.1589  -12.1648 C   0  0  0  0  0  0  0  0  0  0  0  0
   13.9898  -11.1971  -12.7200 C   0  0  0  0  0  0  0  0  0  0  0  0
   12.3498  -11.9203  -11.1523 C   0  0  0  0  0  0  0  0  0  0  0  0
    7.4738   -8.7498  -10.8234 C   0  0  0  0  0  0  0  0  0  0  0  0
    8.2017  -10.0893  -10.6041 C   0  0  0  0  0  0  0  0  0  0  0  0
    6.4744  -11.7061  -10.1083 C   0  0  0  0  0  0  0  0  0  0  0  0
  1 23  1  0  0  0  0
  1 24  1  0  0  0  0
  1  2  1  0  0  0  0
  3  4  1  0  0  0  0
  3 17  1  0  0  0  0
  4  6  2  0  0  0  0
  4 13  1  0  0  0  0
  5 10  1  0  0  0  0
  5 14  2  0  0  0  0
  6  8  1  0  0  0  0
  7 12  1  0  0  0  0
  7 14  1  0  0  0  0
  7 19  1  0  0  0  0
  8 10  2  0  0  0  0
  9 14  1  0  0  0  0
 10 12  1  0  0  0  0
 11 18  1  0  0  0  0
 11 20  1  0  0  0  0
 11 21  1  0  0  0  0
 12 13  2  0  0  0  0
 13 15  1  0  0  0  0
 15 16  1  0  0  0  0
 16 17  1  0  0  0  0
 16 18  1  1  0  0  0
 19 22  1  0  0  0  0
 22 23  1  0  0  0  0
M  END
>  <CHROM.1>
-153.92959287,111.73982299,83.79237555,88.69614826,-137.00381039,-164.03570164
10.06692540,-8.03477263,-11.71123259,1.39563761,-0.21358745,2.85646408

>  <Name>
ligand

>  <RI>
0

>  <Rbt.Current_Directory>
/home/itssahil/PROJECTS/Mol_Feturizer/New_Systems/rnas/3TZR

>  <Rbt.Executable>
rbdock ($Id: //depot/dev/client3/rdock/2013.1/src/exe/rbdock.cxx#4 $)

>  <Rbt.Library>
libRbt.so (2013.1, Build901 2013/11/27)

>  <Rbt.Parameter_File>
/export/apps/rDock/src/rDock_2013.1_src/data/scripts/dock_solv.prm

>  <Rbt.Receptor>
prm/blind_docking_80.prm

>  <SCORE>
-34.3204

>  <SCORE.INTER>
-26.1192

>  <SCORE.INTER.CONST>
1

>  <SCORE.INTER.POLAR>
0

>  <SCORE.INTER.ROT>
6

>  <SCORE.INTER.SOLV>
20.2758

>  <SCORE.INTER.VDW>
-31.7714

>  <SCORE.INTER.norm>
-1.0883

>  <SCORE.INTRA>
-8.20114

>  <SCORE.INTRA.DIHEDRAL>
5.89773

>  <SCORE.INTRA.DIHEDRAL.0>
4.94008

>  <SCORE.INTRA.POLAR>
0

>  <SCORE.INTRA.POLAR.0>
0

>  <SCORE.INTRA.REPUL>
0

>  <SCORE.INTRA.REPUL.0>
0

>  <SCORE.INTRA.SOLV>
0.257363

>  <SCORE.INTRA.SOLV.lig_0>
-31.4704

>  <SCORE.INTRA.VDW>
-11.2787

>  <SCORE.INTRA.VDW.0>
10.2807

>  <SCORE.INTRA.norm>
-0.341714

>  <SCORE.RESTR>
0

>  <SCORE.RESTR.CAVITY>
0

>  <SCORE.RESTR.norm>
0

>  <SCORE.SYSTEM>
0

>  <SCORE.SYSTEM.CONST>
0

>  <SCORE.SYSTEM.DIHEDRAL>
0

>  <SCORE.SYSTEM.SOLV>
0

>  <SCORE.SYSTEM.norm>
0

>  <SCORE.heavy>
24

>  <SCORE.norm>
-1.43002

>  <RMSD>
0.778

$$$$
ligand
 OpenBabel11021811493D
libRbt.so/2013.1/901 2013/11/27
 24 26  0  0  0  0  0  0  0  0999 V2000
    7.5070  -10.8494  -10.8483 N   0  0  0  0  0  0  0  0  0  0  0  0
    6.6341  -11.9113  -11.3222 C   0  0  0  0  0  0  0  0  0  0  0  0
   13.6934   -7.0374  -12.8315 O   0  0  0  0  0  0  0  0  0  0  0  0
   12.5112   -6.3467  -12.6010 C   0  0  0  0  0  0  0  0  0  0  0  0
    8.7755   -4.3850  -11.9264 N   0  0  0  0  0  0  0  0  0  0  0  0
   12.4625   -4.8424  -12.6391 C   0  0  0  0  0  0  0  0  0  0  0  0
    8.7567   -6.6293  -11.8340 N   0  0  0  0  0  0  0  0  0  0  0  0
   11.2505   -4.1073  -12.4325 C   0  0  0  0  0  0  0  0  0  0  0  0
    6.5789   -5.4564  -11.4363 N   0  0  0  0  0  0  0  0  0  0  0  0
   10.0647   -4.8801  -12.1675 C   0  0  0  0  0  0  0  0  0  0  0  0
   12.4317  -11.5384  -11.9701 N   0  0  0  0  0  0  0  0  0  0  0  0
   10.1002   -6.3170  -12.1130 C   0  0  0  0  0  0  0  0  0  0  0  0
   11.3804   -7.0401  -12.3455 C   0  0  0  0  0  0  0  0  0  0  0  0
    7.9827   -5.4783  -11.7301 C   0  0  0  0  0  0  0  0  0  0  0  0
   11.3960   -8.5564  -12.2936 C   0  0  0  0  0  0  0  0  0  0  0  0
   12.7828   -9.1904  -12.3094 C   0  0  1  0  0  0  0  0  0  0  0  0
   13.8798   -8.1890  -12.0864 C   0  0  0  0  0  0  0  0  0  0  0  0
   12.8499  -10.3219  -11.2949 C   0  0  0  0  0  0  0  0  0  0  0  0
    8.2220   -8.0020  -11.7511 C   0  0  0  0  0  0  0  0  0  0  0  0
   13.5835  -12.1022  -12.6611 C   0  0  0  0  0  0  0  0  0  0  0  0
   11.9670  -12.4662  -10.9510 C   0  0  0  0  0  0  0  0  0  0  0  0
    7.6377   -8.4020  -10.3853 C   0  0  0  0  0  0  0  0  0  0  0  0
    6.7296   -9.6296  -10.5873 C   0  0  0  0  0  0  0  0  0  0  0  0
    8.1767  -11.3187   -9.6405 C   0  0  0  0  0  0  0  0  0  0  0  0
  1 23  1  0  0  0  0
  1 24  1  0  0  0  0
  1  2  1  0  0  0  0
  3  4  1  0  0  0  0
  3 17  1  0  0  0  0
  4  6  2  0  0  0  0
  4 13  1  0  0  0  0
  5 10  1  0  0  0  0
  5 14  2  0  0  0  0
  6  8  1  0  0  0  0
  7 12  1  0  0  0  0
  7 14  1  0  0  0  0
  7 19  1  0  0  0  0
  8 10  2  0  0  0  0
  9 14  1  0  0  0  0
 10 12  1  0  0  0  0
 11 18  1  0  0  0  0
 11 20  1  0  0  0  0
 11 21  1  0  0  0  0
 12 13  2  0  0  0  0
 13 15  1  0  0  0  0
 15 16  1  0  0  0  0
 16 17  1  0  0  0  0
 16 18  1  1  0  0  0
 19 22  1  0  0  0  0
 22 23  1  0  0  0  0
M  END
>  <CHROM.1>
-167.43090204,118.35640270,84.37504468,89.25592711,161.43469998,72.81850948
10.29480612,-8.27223578,-11.73087949,1.31577094,-0.22174072,2.98573963

>  <Name>
ligand

>  <RI>
0

>  <Rbt.Current_Directory>
/home/itssahil/PROJECTS/Mol_Feturizer/New_Systems/rnas/3TZR

>  <Rbt.Executable>
rbdock ($Id: //depot/dev/client3/rdock/2013.1/src/exe/rbdock.cxx#4 $)

>  <Rbt.Library>
libRbt.so (2013.1, Build901 2013/11/27)

>  <Rbt.Parameter_File>
/export/apps/rDock/src/rDock_2013.1_src/data/scripts/dock_solv.prm

>  <Rbt.Receptor>
prm/pocket_docking_4.prm

>  <SCORE>
-32.2977

>  <SCORE.INTER>
-23.1455

>  <SCORE.INTER.CONST>
1

>  <SCORE.INTER.POLAR>
0

>  <SCORE.INTER.ROT>
6

>  <SCORE.INTER.SOLV>
19.631

>  <SCORE.INTER.VDW>
-29.574

>  <SCORE.INTER.norm>
-0.964395

>  <SCORE.INTRA>
-9.18046

>  <SCORE.INTRA.DIHEDRAL>
1.65671

>  <SCORE.INTRA.DIHEDRAL.0>
4.94008

>  <SCORE.INTRA.POLAR>
0

>  <SCORE.INTRA.POLAR.0>
0

>  <SCORE.INTRA.REPUL>
0

>  <SCORE.INTRA.REPUL.0>
0

>  <SCORE.INTRA.SOLV>
0.975065

>  <SCORE.INTRA.SOLV.lig_0>
-31.4704

>  <SCORE.INTRA.VDW>
-10.4963

>  <SCORE.INTRA.VDW.0>
10.2807

>  <SCORE.INTRA.norm>
-0.382519

>  <SCORE.RESTR>
0.0282087

>  <SCORE.RESTR.CAVITY>
0.0282087

>  <SCORE.RESTR.norm>
0.00117536

>  <SCORE.SYSTEM>
0

>  <SCORE.SYSTEM.CONST>
0

>  <SCORE.SYSTEM.DIHEDRAL>
0

>  <SCORE.SYSTEM.SOLV>
0

>  <SCORE.SYSTEM.norm>
0

>  <SCORE.heavy>
24

>  <SCORE.norm>
-1.34574

>  <RMSD>
0.779

$$$$
ligand
 OpenBabel11021811493D
libRbt.so/2013.1/901 2013/11/27
 24 26  0  0  0  0  0  0  0  0999 V2000
    7.3468  -10.9196   -9.8925 N   0  0  0  0  0  0  0  0  0  0  0  0
    8.5223  -11.6969   -9.5343 C   0  0  0  0  0  0  0  0  0  0  0  0
   13.8127   -7.3542  -12.9353 O   0  0  0  0  0  0  0  0  0  0  0  0
   12.6905   -6.5922  -12.6384 C   0  0  0  0  0  0  0  0  0  0  0  0
    9.1267   -4.3955  -11.7830 N   0  0  0  0  0  0  0  0  0  0  0  0
   12.7786   -5.0979  -12.4768 C   0  0  0  0  0  0  0  0  0  0  0  0
    8.9032   -6.6209  -11.9907 N   0  0  0  0  0  0  0  0  0  0  0  0
   11.6316   -4.2863  -12.1983 C   0  0  0  0  0  0  0  0  0  0  0  0
    6.8280   -5.3120  -11.4837 N   0  0  0  0  0  0  0  0  0  0  0  0
   10.3732   -4.9729  -12.0621 C   0  0  0  0  0  0  0  0  0  0  0  0
   13.4893  -11.7129  -12.4835 N   0  0  0  0  0  0  0  0  0  0  0  0
   10.2776   -6.4016  -12.1989 C   0  0  0  0  0  0  0  0  0  0  0  0
   11.4944   -7.2044  -12.5001 C   0  0  0  0  0  0  0  0  0  0  0  0
    8.2329   -5.4262  -11.7499 C   0  0  0  0  0  0  0  0  0  0  0  0
   11.3719   -8.7093  -12.6503 C   0  0  0  0  0  0  0  0  0  0  0  0
   12.6959   -9.4625  -12.7228 C   0  0  1  0  0  0  0  0  0  0  0  0
   13.8707   -8.6056  -12.3467 C   0  0  0  0  0  0  0  0  0  0  0  0
   12.6284  -10.7182  -11.8670 C   0  0  0  0  0  0  0  0  0  0  0  0
    8.2449   -7.9367  -12.1021 C   0  0  0  0  0  0  0  0  0  0  0  0
   14.0330  -12.5663  -11.4356 C   0  0  0  0  0  0  0  0  0  0  0  0
   12.6667  -12.5043  -13.3849 C   0  0  0  0  0  0  0  0  0  0  0  0
    8.0829   -8.7082  -10.7810 C   0  0  0  0  0  0  0  0  0  0  0  0
    7.6058  -10.1356  -11.1085 C   0  0  0  0  0  0  0  0  0  0  0  0
    6.2345  -11.8431  -10.0853 C   0  0  0  0  0  0  0  0  0  0  0  0
  1 23  1  0  0  0  0
  1 24  1  0  0  0  0
  1  2  1  0  0  0  0
  3  4  1  0  0  0  0
  3 17  1  0  0  0  0
  4  6  2  0  0  0  0
  4 13  1  0  0  0  0
  5 10  1  0  0  0  0
  5 14  2  0  0  0  0
  6  8  1  0  0  0  0
  7 12  1  0  0  0  0
  7 14  1  0  0  0  0
  7 19  1  0  0  0  0
  8 10  2  0  0  0  0
  9 14  1  0  0  0  0
 10 12  1  0  0  0  0
 11 18  1  0  0  0  0
 11 20  1  0  0  0  0
 11 21  1  0  0  0  0
 12 13  2  0  0  0  0
 13 15  1  0  0  0  0
 15 16  1  0  0  0  0
 16 17  1  0  0  0  0
 16 18  1  1  0  0  0
 19 22  1  0  0  0  0
 22 23  1  0  0  0  0
M  END
>  <CHROM.1>
-94.17977403,95.07694418,149.14736605,149.22881005,-170.52475149,-176.55056662
10.52782678,-8.44915965,-11.82764497,1.02506344,-0.29360932,2.99416722

>  <Name>
ligand

>  <RI>
0

>  <Rbt.Current_Directory>
/home/itssahil/PROJECTS/Mol_Feturizer/New_Systems/rnas/3TZR

>  <Rbt.Executable>
rbdock ($Id: //depot/dev/client3/rdock/2013.1/src/exe/rbdock.cxx#4 $)

>  <Rbt.Library>
libRbt.so (2013.1, Build901 2013/11/27)

>  <Rbt.Parameter_File>
/export/apps/rDock/src/rDock_2013.1_src/data/scripts/dock_solv.prm

>  <Rbt.Receptor>
prm/blind_docking_100.prm

>  <SCORE>
-34.4542

>  <SCORE.INTER>
-24.0458

>  <SCORE.INTER.CONST>
1

>  <SCORE.INTER.POLAR>
0

>  <SCORE.INTER.ROT>
6

>  <SCORE.INTER.SOLV>
20.3058

>  <SCORE.INTER.VDW>
-30.3991

>  <SCORE.INTER.norm>
-1.00191

>  <SCORE.INTRA>
-10.4084

>  <SCORE.INTRA.DIHEDRAL>
2.30274

>  <SCORE.INTRA.DIHEDRAL.0>
4.94008

>  <SCORE.INTRA.POLAR>
0

>  <SCORE.INTRA.POLAR.0>
0

>  <SCORE.INTRA.REPUL>
0

>  <SCORE.INTRA.REPUL.0>
0

>  <SCORE.INTRA.SOLV>
-0.0443326

>  <SCORE.INTRA.SOLV.lig_0>
-31.4704

>  <SCORE.INTRA.VDW>
-11.5376

>  <SCORE.INTRA.VDW.0>
10.2807

>  <SCORE.INTRA.norm>
-0.433684

>  <SCORE.RESTR>
0

>  <SCORE.RESTR.CAVITY>
0

>  <SCORE.RESTR.norm>
0

>  <SCORE.SYSTEM>
0

>  <SCORE.SYSTEM.CONST>
0

>  <SCORE.SYSTEM.DIHEDRAL>
0

>  <SCORE.SYSTEM.SOLV>
0

>  <SCORE.SYSTEM.norm>
0

>  <SCORE.heavy>
24

>  <SCORE.norm>
-1.43559

>  <RMSD>
0.784

$$$$
ligand
 OpenBabel11021811493D
libRbt.so/2013.1/901 2013/11/27
 24 26  0  0  0  0  0  0  0  0999 V2000
    7.4845  -10.9826  -10.7997 N   0  0  0  0  0  0  0  0  0  0  0  0
    6.5618  -12.0084  -11.2587 C   0  0  0  0  0  0  0  0  0  0  0  0
   13.3803   -6.4692  -12.9290 O   0  0  0  0  0  0  0  0  0  0  0  0
   12.1220   -5.9135  -12.7401 C   0  0  0  0  0  0  0  0  0  0  0  0
    8.1725   -4.3781  -12.1901 N   0  0  0  0  0  0  0  0  0  0  0  0
   11.9017   -4.4264  -12.8239 C   0  0  0  0  0  0  0  0  0  0  0  0
    8.4096   -6.6061  -12.0311 N   0  0  0  0  0  0  0  0  0  0  0  0
   10.6093   -3.8307  -12.6607 C   0  0  0  0  0  0  0  0  0  0  0  0
    6.1037   -5.6820  -11.7069 N   0  0  0  0  0  0  0  0  0  0  0  0
    9.5148   -4.7276  -12.3935 C   0  0  0  0  0  0  0  0  0  0  0  0
   12.3775  -11.0226  -11.8755 N   0  0  0  0  0  0  0  0  0  0  0  0
    9.7140   -6.1487  -12.2956 C   0  0  0  0  0  0  0  0  0  0  0  0
   11.0733   -6.7254  -12.4839 C   0  0  0  0  0  0  0  0  0  0  0  0
    7.5066   -5.5498  -11.9752 C   0  0  0  0  0  0  0  0  0  0  0  0
   11.2618   -8.2277  -12.3865 C   0  0  0  0  0  0  0  0  0  0  0  0
   12.7123   -8.6976  -12.3590 C   0  0  1  0  0  0  0  0  0  0  0  0
   13.6821   -7.5705  -12.1468 C   0  0  0  0  0  0  0  0  0  0  0  0
   12.8877   -9.7854  -11.3102 C   0  0  0  0  0  0  0  0  0  0  0  0
    8.0346   -8.0287  -11.9167 C   0  0  0  0  0  0  0  0  0  0  0  0
   13.4417  -11.6516  -12.6460 C   0  0  0  0  0  0  0  0  0  0  0  0
   11.9967  -11.8848  -10.7678 C   0  0  0  0  0  0  0  0  0  0  0  0
    7.7371   -8.5207  -10.4897 C   0  0  0  0  0  0  0  0  0  0  0  0
    6.7707   -9.7165  -10.5809 C   0  0  0  0  0  0  0  0  0  0  0  0
    8.1124  -11.4553   -9.5710 C   0  0  0  0  0  0  0  0  0  0  0  0
  1 23  1  0  0  0  0
  1 24  1  0  0  0  0
  1  2  1  0  0  0  0
  3  4  1  0  0  0  0
  3 17  1  0  0  0  0
  4  6  2  0  0  0  0
  4 13  1  0  0  0  0
  5 10  1  0  0  0  0
  5 14  2  0  0  0  0
  6  8  1  0  0  0  0
  7 12  1  0  0  0  0
  7 14  1  0  0  0  0
  7 19  1  0  0  0  0
  8 10  2  0  0  0  0
  9 14  1  0  0  0  0
 10 12  1  0  0  0  0
 11 18  1  0  0  0  0
 11 20  1  0  0  0  0
 11 21  1  0  0  0  0
 12 13  2  0  0  0  0
 13 15  1  0  0  0  0
 15 16  1  0  0  0  0
 16 17  1  0  0  0  0
 16 18  1  1  0  0  0
 19 22  1  0  0  0  0
 22 23  1  0  0  0  0
M  END
>  <CHROM.1>
-163.68691000,106.79140522,85.76824561,78.31810402,153.66366287,85.18947998
10.06498988,-8.06462811,-11.81538332,1.65079047,-0.18995311,2.92413889

>  <Name>
ligand

>  <RI>
0

>  <Rbt.Current_Directory>
/home/itssahil/PROJECTS/Mol_Feturizer/New_Systems/rnas/3TZR

>  <Rbt.Executable>
rbdock ($Id: //depot/dev/client3/rdock/2013.1/src/exe/rbdock.cxx#4 $)

>  <Rbt.Library>
libRbt.so (2013.1, Build901 2013/11/27)

>  <Rbt.Parameter_File>
/export/apps/rDock/src/rDock_2013.1_src/data/scripts/dock_solv.prm

>  <Rbt.Receptor>
prm/pocket_docking_7.prm

>  <SCORE>
-33.2298

>  <SCORE.INTER>
-24.2698

>  <SCORE.INTER.CONST>
1

>  <SCORE.INTER.POLAR>
0

>  <SCORE.INTER.ROT>
6

>  <SCORE.INTER.SOLV>
20.1518

>  <SCORE.INTER.VDW>
-30.4971

>  <SCORE.INTER.norm>
-1.01124

>  <SCORE.INTRA>
-8.96002

>  <SCORE.INTRA.DIHEDRAL>
3.10982

>  <SCORE.INTRA.DIHEDRAL.0>
4.94008

>  <SCORE.INTRA.POLAR>
0

>  <SCORE.INTRA.POLAR.0>
0

>  <SCORE.INTRA.REPUL>
0

>  <SCORE.INTRA.REPUL.0>
0

>  <SCORE.INTRA.SOLV>
0.78841

>  <SCORE.INTRA.SOLV.lig_0>
-31.4704

>  <SCORE.INTRA.VDW>
-10.9091

>  <SCORE.INTRA.VDW.0>
10.2807

>  <SCORE.INTRA.norm>
-0.373334

>  <SCORE.RESTR>
0

>  <SCORE.RESTR.CAVITY>
0

>  <SCORE.RESTR.norm>
0

>  <SCORE.SYSTEM>
0

>  <SCORE.SYSTEM.CONST>
0

>  <SCORE.SYSTEM.DIHEDRAL>
0

>  <SCORE.SYSTEM.SOLV>
0

>  <SCORE.SYSTEM.norm>
0

>  <SCORE.heavy>
24

>  <SCORE.norm>
-1.38458

>  <RMSD>
0.784

$$$$
ligand
 OpenBabel11021811493D
libRbt.so/2013.1/901 2013/11/27
 24 26  0  0  0  0  0  0  0  0999 V2000
    7.4347  -10.7397  -10.6854 N   0  0  0  0  0  0  0  0  0  0  0  0
    6.1879  -11.4760  -10.8182 C   0  0  0  0  0  0  0  0  0  0  0  0
   13.7919   -6.9551  -12.5401 O   0  0  0  0  0  0  0  0  0  0  0  0
   12.5547   -6.3345  -12.4302 C   0  0  0  0  0  0  0  0  0  0  0  0
    8.6645   -4.5885  -12.1532 N   0  0  0  0  0  0  0  0  0  0  0  0
   12.4341   -4.8355  -12.3566 C   0  0  0  0  0  0  0  0  0  0  0  0
    8.7493   -6.8314  -12.2413 N   0  0  0  0  0  0  0  0  0  0  0  0
   11.1685   -4.1698  -12.2710 C   0  0  0  0  0  0  0  0  0  0  0  0
    6.4792   -5.7849  -12.0731 N   0  0  0  0  0  0  0  0  0  0  0  0
    9.9988   -5.0092  -12.2426 C   0  0  0  0  0  0  0  0  0  0  0  0
   12.2110  -11.4564  -12.1007 N   0  0  0  0  0  0  0  0  0  0  0  0
   10.1007   -6.4430  -12.2968 C   0  0  0  0  0  0  0  0  0  0  0  0
   11.4367   -7.0918  -12.3970 C   0  0  0  0  0  0  0  0  0  0  0  0
    7.9098   -5.7254  -12.1607 C   0  0  0  0  0  0  0  0  0  0  0  0
   11.5234   -8.6051  -12.4628 C   0  0  0  0  0  0  0  0  0  0  0  0
   12.9294   -9.1795  -12.3268 C   0  0  1  0  0  0  0  0  0  0  0  0
   13.9304   -8.1577  -11.8689 C   0  0  0  0  0  0  0  0  0  0  0  0
   12.9110  -10.3899  -11.4055 C   0  0  0  0  0  0  0  0  0  0  0  0
    8.2801   -8.2266  -12.3452 C   0  0  0  0  0  0  0  0  0  0  0  0
   13.1006  -12.0092  -13.1131 C   0  0  0  0  0  0  0  0  0  0  0  0
   11.8876  -12.4794  -11.1187 C   0  0  0  0  0  0  0  0  0  0  0  0
    6.9184   -8.5160  -11.6905 C   0  0  0  0  0  0  0  0  0  0  0  0
    7.1620   -9.3235  -10.4017 C   0  0  0  0  0  0  0  0  0  0  0  0
    8.2116  -11.3538   -9.6146 C   0  0  0  0  0  0  0  0  0  0  0  0
  1 23  1  0  0  0  0
  1 24  1  0  0  0  0
  1  2  1  0  0  0  0
  3  4  1  0  0  0  0
  3 17  1  0  0  0  0
  4  6  2  0  0  0  0
  4 13  1  0  0  0  0
  5 10  1  0  0  0  0
  5 14  2  0  0  0  0
  6  8  1  0  0  0  0
  7 12  1  0  0  0  0
  7 14  1  0  0  0  0
  7 19  1  0  0  0  0
  8 10  2  0  0  0  0
  9 14  1  0  0  0  0
 10 12  1  0  0  0  0
 11 18  1  0  0  0  0
 11 20  1  0  0  0  0
 11 21  1  0  0  0  0
 12 13  2  0  0  0  0
 13 15  1  0  0  0  0
 15 16  1  0  0  0  0
 16 17  1  0  0  0  0
 16 18  1  1  0  0  0
 19 22  1  0  0  0  0
 22 23  1  0  0  0  0
M  END
>  <CHROM.1>
-85.00728550,155.11526838,75.82578957,69.54620736,-107.04956261,-78.04720872
10.23386268,-8.29590814,-11.85514192,0.94628317,-0.17068269,2.97120903

>  <Name>
ligand

>  <RI>
144

>  <Rbt.Current_Directory>
/home/itssahil/PROJECTS/Mol_Feturizer/New_Systems/rnas/3TZR

>  <Rbt.Executable>
rbdock ($Id: //depot/dev/client3/rdock/2013.1/src/exe/rbdock.cxx#4 $)

>  <Rbt.Library>
libRbt.so (2013.1, Build901 2013/11/27)

>  <Rbt.Parameter_File>
/export/apps/rDock/src/rDock_2013.1_src/data/scripts/dock_solv.prm

>  <Rbt.Receptor>
prm/pocket_docking_8.prm

>  <SCORE>
-28.7141

>  <SCORE.INTER>
-22.1823

>  <SCORE.INTER.CONST>
1

>  <SCORE.INTER.POLAR>
0

>  <SCORE.INTER.ROT>
6

>  <SCORE.INTER.SOLV>
20.5367

>  <SCORE.INTER.VDW>
-29.2338

>  <SCORE.INTER.norm>
-0.924263

>  <SCORE.INTRA>
-6.53178

>  <SCORE.INTRA.DIHEDRAL>
3.80306

>  <SCORE.INTRA.DIHEDRAL.0>
4.94008

>  <SCORE.INTRA.POLAR>
0

>  <SCORE.INTRA.POLAR.0>
0

>  <SCORE.INTRA.REPUL>
0

>  <SCORE.INTRA.REPUL.0>
0

>  <SCORE.INTRA.SOLV>
1.86673

>  <SCORE.INTRA.SOLV.lig_0>
-31.4704

>  <SCORE.INTRA.VDW>
-9.36668

>  <SCORE.INTRA.VDW.0>
10.2807

>  <SCORE.INTRA.norm>
-0.272157

>  <SCORE.RESTR>
0

>  <SCORE.RESTR.CAVITY>
0

>  <SCORE.RESTR.norm>
0

>  <SCORE.SYSTEM>
0

>  <SCORE.SYSTEM.CONST>
0

>  <SCORE.SYSTEM.DIHEDRAL>
0

>  <SCORE.SYSTEM.SOLV>
0

>  <SCORE.SYSTEM.norm>
0

>  <SCORE.heavy>
24

>  <SCORE.norm>
-1.19642

>  <RMSD>
0.786

$$$$
ligand
 OpenBabel11021811493D
libRbt.so/2013.1/901 2013/11/27
 24 26  0  0  0  0  0  0  0  0999 V2000
    7.4816  -10.9588   -9.4731 N   0  0  0  0  0  0  0  0  0  0  0  0
    8.4275  -11.8963   -8.8894 C   0  0  0  0  0  0  0  0  0  0  0  0
   13.4117   -6.3852  -12.9819 O   0  0  0  0  0  0  0  0  0  0  0  0
   12.1640   -5.8749  -12.6494 C   0  0  0  0  0  0  0  0  0  0  0  0
    8.2458   -4.4734  -11.6789 N   0  0  0  0  0  0  0  0  0  0  0  0
   11.9373   -4.3937  -12.5021 C   0  0  0  0  0  0  0  0  0  0  0  0
    8.4944   -6.6983  -11.8618 N   0  0  0  0  0  0  0  0  0  0  0  0
   10.6541   -3.8404  -12.1873 C   0  0  0  0  0  0  0  0  0  0  0  0
    6.2069   -5.8531  -11.2880 N   0  0  0  0  0  0  0  0  0  0  0  0
    9.5763   -4.7768  -11.9997 C   0  0  0  0  0  0  0  0  0  0  0  0
   13.1319  -11.0511  -12.7336 N   0  0  0  0  0  0  0  0  0  0  0  0
    9.7826   -6.1950  -12.1223 C   0  0  0  0  0  0  0  0  0  0  0  0
   11.1312   -6.7252  -12.4624 C   0  0  0  0  0  0  0  0  0  0  0  0
    7.5938   -5.6700  -11.6051 C   0  0  0  0  0  0  0  0  0  0  0  0
   11.3270   -8.2238  -12.5969 C   0  0  0  0  0  0  0  0  0  0  0  0
   12.7777   -8.6793  -12.7129 C   0  0  1  0  0  0  0  0  0  0  0  0
   13.7554   -7.5867  -12.3868 C   0  0  0  0  0  0  0  0  0  0  0  0
   13.0089   -9.9077  -11.8459 C   0  0  0  0  0  0  0  0  0  0  0  0
    8.1280   -8.1256  -11.9391 C   0  0  0  0  0  0  0  0  0  0  0  0
   14.5124  -11.5148  -12.7007 C   0  0  0  0  0  0  0  0  0  0  0  0
   12.2511  -12.0928  -12.2290 C   0  0  0  0  0  0  0  0  0  0  0  0
    7.6294   -8.7516  -10.6252 C   0  0  0  0  0  0  0  0  0  0  0  0
    8.1151  -10.2122  -10.5692 C   0  0  0  0  0  0  0  0  0  0  0  0
    6.3274  -11.7151   -9.9457 C   0  0  0  0  0  0  0  0  0  0  0  0
  1 23  1  0  0  0  0
  1 24  1  0  0  0  0
  1  2  1  0  0  0  0
  3  4  1  0  0  0  0
  3 17  1  0  0  0  0
  4  6  2  0  0  0  0
  4 13  1  0  0  0  0
  5 10  1  0  0  0  0
  5 14  2  0  0  0  0
  6  8  1  0  0  0  0
  7 12  1  0  0  0  0
  7 14  1  0  0  0  0
  7 19  1  0  0  0  0
  8 10  2  0  0  0  0
  9 14  1  0  0  0  0
 10 12  1  0  0  0  0
 11 18  1  0  0  0  0
 11 20  1  0  0  0  0
 11 21  1  0  0  0  0
 12 13  2  0  0  0  0
 13 15  1  0  0  0  0
 15 16  1  0  0  0  0
 16 17  1  0  0  0  0
 16 18  1  1  0  0  0
 19 22  1  0  0  0  0
 22 23  1  0  0  0  0
M  END
>  <CHROM.1>
-143.74720792,118.70164353,110.63503603,106.81653065,-144.96823546,-169.49742394
10.25969454,-8.13208531,-11.72384646,-3.10622767,0.32623590,-0.20393183

>  <Name>
ligand

>  <RI>
0

>  <Rbt.Current_Directory>
/home/itssahil/PROJECTS/Mol_Feturizer/New_Systems/rnas/3TZR

>  <Rbt.Executable>
rbdock ($Id: //depot/dev/client3/rdock/2013.1/src/exe/rbdock.cxx#4 $)

>  <Rbt.Library>
libRbt.so (2013.1, Build901 2013/11/27)

>  <Rbt.Parameter_File>
/export/apps/rDock/src/rDock_2013.1_src/data/scripts/dock_solv.prm

>  <Rbt.Receptor>
prm/pocket_docking_7.prm

>  <SCORE>
-33.2575

>  <SCORE.INTER>
-25.8362

>  <SCORE.INTER.CONST>
1

>  <SCORE.INTER.POLAR>
0

>  <SCORE.INTER.ROT>
6

>  <SCORE.INTER.SOLV>
19.8243

>  <SCORE.INTER.VDW>
-31.4322

>  <SCORE.INTER.norm>
-1.07651

>  <SCORE.INTRA>
-7.4213

>  <SCORE.INTRA.DIHEDRAL>
8.58591

>  <SCORE.INTRA.DIHEDRAL.0>
4.94008

>  <SCORE.INTRA.POLAR>
0

>  <SCORE.INTRA.POLAR.0>
0

>  <SCORE.INTRA.REPUL>
0

>  <SCORE.INTRA.REPUL.0>
0

>  <SCORE.INTRA.SOLV>
0.378194

>  <SCORE.INTRA.SOLV.lig_0>
-31.4704

>  <SCORE.INTRA.VDW>
-11.9034

>  <SCORE.INTRA.VDW.0>
10.2807

>  <SCORE.INTRA.norm>
-0.309221

>  <SCORE.RESTR>
0

>  <SCORE.RESTR.CAVITY>
0

>  <SCORE.RESTR.norm>
0

>  <SCORE.SYSTEM>
0

>  <SCORE.SYSTEM.CONST>
0

>  <SCORE.SYSTEM.DIHEDRAL>
0

>  <SCORE.SYSTEM.SOLV>
0

>  <SCORE.SYSTEM.norm>
0

>  <SCORE.heavy>
24

>  <SCORE.norm>
-1.38573

>  <RMSD>
0.787

$$$$
ligand
 OpenBabel11021811493D
libRbt.so/2013.1/901 2013/11/27
 24 26  0  0  0  0  0  0  0  0999 V2000
    7.4244  -10.9713   -9.5000 N   0  0  0  0  0  0  0  0  0  0  0  0
    8.5189  -11.6751   -8.8511 C   0  0  0  0  0  0  0  0  0  0  0  0
   13.8135   -7.3759  -12.9810 O   0  0  0  0  0  0  0  0  0  0  0  0
   12.6739   -6.6473  -12.6678 C   0  0  0  0  0  0  0  0  0  0  0  0
    9.0600   -4.5594  -11.7515 N   0  0  0  0  0  0  0  0  0  0  0  0
   12.7072   -5.1453  -12.5678 C   0  0  0  0  0  0  0  0  0  0  0  0
    8.9195   -6.7984  -11.8637 N   0  0  0  0  0  0  0  0  0  0  0  0
   11.5399   -4.3688  -12.2737 C   0  0  0  0  0  0  0  0  0  0  0  0
    6.8144   -5.5526  -11.3225 N   0  0  0  0  0  0  0  0  0  0  0  0
   10.3170   -5.0983  -12.0594 C   0  0  0  0  0  0  0  0  0  0  0  0
   13.5714  -11.7731  -12.4146 N   0  0  0  0  0  0  0  0  0  0  0  0
   10.2745   -6.5340  -12.1367 C   0  0  0  0  0  0  0  0  0  0  0  0
   11.5101   -7.2998  -12.4567 C   0  0  0  0  0  0  0  0  0  0  0  0
    8.2111   -5.6222  -11.6417 C   0  0  0  0  0  0  0  0  0  0  0  0
   11.4434   -8.8132  -12.5434 C   0  0  0  0  0  0  0  0  0  0  0  0
   12.7931   -9.5161  -12.6413 C   0  0  1  0  0  0  0  0  0  0  0  0
   13.9459   -8.5994  -12.3474 C   0  0  0  0  0  0  0  0  0  0  0  0
   12.8110  -10.7381  -11.7355 C   0  0  0  0  0  0  0  0  0  0  0  0
    8.3116   -8.1425  -11.8969 C   0  0  0  0  0  0  0  0  0  0  0  0
   14.1376  -12.6638  -11.4106 C   0  0  0  0  0  0  0  0  0  0  0  0
   12.6465  -12.5107  -13.2608 C   0  0  0  0  0  0  0  0  0  0  0  0
    8.0563   -8.7861  -10.5230 C   0  0  0  0  0  0  0  0  0  0  0  0
    7.8998  -10.3055  -10.7211 C   0  0  0  0  0  0  0  0  0  0  0  0
    6.3769  -11.9410   -9.7997 C   0  0  0  0  0  0  0  0  0  0  0  0
  1 23  1  0  0  0  0
  1 24  1  0  0  0  0
  1  2  1  0  0  0  0
  3  4  1  0  0  0  0
  3 17  1  0  0  0  0
  4  6  2  0  0  0  0
  4 13  1  0  0  0  0
  5 10  1  0  0  0  0
  5 14  2  0  0  0  0
  6  8  1  0  0  0  0
  7 12  1  0  0  0  0
  7 14  1  0  0  0  0
  7 19  1  0  0  0  0
  8 10  2  0  0  0  0
  9 14  1  0  0  0  0
 10 12  1  0  0  0  0
 11 18  1  0  0  0  0
 11 20  1  0  0  0  0
 11 21  1  0  0  0  0
 12 13  2  0  0  0  0
 13 15  1  0  0  0  0
 15 16  1  0  0  0  0
 16 17  1  0  0  0  0
 16 18  1  1  0  0  0
 19 22  1  0  0  0  0
 22 23  1  0  0  0  0
M  END
>  <CHROM.1>
-104.25507710,103.14349866,153.69475057,143.33787977,-160.53123349,-170.13431327
10.56551203,-8.54169950,-11.69450687,0.91891744,-0.33904394,2.94673524

>  <Name>
ligand

>  <RI>
0

>  <Rbt.Current_Directory>
/home/itssahil/PROJECTS/Mol_Feturizer/New_Systems/rnas/3TZR

>  <Rbt.Executable>
rbdock ($Id: //depot/dev/client3/rdock/2013.1/src/exe/rbdock.cxx#4 $)

>  <Rbt.Library>
libRbt.so (2013.1, Build901 2013/11/27)

>  <Rbt.Parameter_File>
/export/apps/rDock/src/rDock_2013.1_src/data/scripts/dock_solv.prm

>  <Rbt.Receptor>
prm/blind_docking_100.prm

>  <SCORE>
-33.7793

>  <SCORE.INTER>
-24.6651

>  <SCORE.INTER.CONST>
1

>  <SCORE.INTER.POLAR>
0

>  <SCORE.INTER.ROT>
6

>  <SCORE.INTER.SOLV>
19.5009

>  <SCORE.INTER.VDW>
-30.5437

>  <SCORE.INTER.norm>
-1.02771

>  <SCORE.INTRA>
-9.11418

>  <SCORE.INTRA.DIHEDRAL>
4.61919

>  <SCORE.INTRA.DIHEDRAL.0>
4.94008

>  <SCORE.INTRA.POLAR>
0

>  <SCORE.INTRA.POLAR.0>
0

>  <SCORE.INTRA.REPUL>
0

>  <SCORE.INTRA.REPUL.0>
0

>  <SCORE.INTRA.SOLV>
0.0988999

>  <SCORE.INTRA.SOLV.lig_0>
-31.4704

>  <SCORE.INTRA.VDW>
-11.4732

>  <SCORE.INTRA.VDW.0>
10.2807

>  <SCORE.INTRA.norm>
-0.379758

>  <SCORE.RESTR>
0

>  <SCORE.RESTR.CAVITY>
0

>  <SCORE.RESTR.norm>
0

>  <SCORE.SYSTEM>
0

>  <SCORE.SYSTEM.CONST>
0

>  <SCORE.SYSTEM.DIHEDRAL>
0

>  <SCORE.SYSTEM.SOLV>
0

>  <SCORE.SYSTEM.norm>
0

>  <SCORE.heavy>
24

>  <SCORE.norm>
-1.40747

>  <RMSD>
0.800

$$$$
ligand
 OpenBabel11021811493D
libRbt.so/2013.1/901 2013/11/27
 24 26  0  0  0  0  0  0  0  0999 V2000
    7.7834  -11.4039  -10.1243 N   0  0  0  0  0  0  0  0  0  0  0  0
    6.8074  -12.4509  -10.3803 C   0  0  0  0  0  0  0  0  0  0  0  0
   13.6008   -7.0359  -13.0320 O   0  0  0  0  0  0  0  0  0  0  0  0
   12.4268   -6.3918  -12.6652 C   0  0  0  0  0  0  0  0  0  0  0  0
    8.7150   -4.5654  -11.5946 N   0  0  0  0  0  0  0  0  0  0  0  0
   12.3825   -4.9008  -12.4601 C   0  0  0  0  0  0  0  0  0  0  0  0
    8.6907   -6.7954  -11.8634 N   0  0  0  0  0  0  0  0  0  0  0  0
   11.1782   -4.2090  -12.1090 C   0  0  0  0  0  0  0  0  0  0  0  0
    6.5270   -5.7026  -11.2301 N   0  0  0  0  0  0  0  0  0  0  0  0
    9.9965   -5.0148  -11.9430 C   0  0  0  0  0  0  0  0  0  0  0  0
   13.3857  -11.5418  -12.8675 N   0  0  0  0  0  0  0  0  0  0  0  0
   10.0283   -6.4418  -12.1209 C   0  0  0  0  0  0  0  0  0  0  0  0
   11.3000   -7.1176  -12.4972 C   0  0  0  0  0  0  0  0  0  0  0  0
    7.9234   -5.6764  -11.5574 C   0  0  0  0  0  0  0  0  0  0  0  0
   11.3116   -8.6226  -12.6898 C   0  0  0  0  0  0  0  0  0  0  0  0
   12.6955   -9.2452  -12.8406 C   0  0  1  0  0  0  0  0  0  0  0  0
   13.8009   -8.2922  -12.4863 C   0  0  0  0  0  0  0  0  0  0  0  0
   12.7829  -10.5250  -12.0229 C   0  0  0  0  0  0  0  0  0  0  0  0
    8.1534   -8.1639  -11.9891 C   0  0  0  0  0  0  0  0  0  0  0  0
   14.8242  -11.5389  -12.6385 C   0  0  0  0  0  0  0  0  0  0  0  0
   12.8274  -12.8254  -12.4723 C   0  0  0  0  0  0  0  0  0  0  0  0
    8.4703   -9.1083  -10.8167 C   0  0  0  0  0  0  0  0  0  0  0  0
    7.3234  -10.1289  -10.6928 C   0  0  0  0  0  0  0  0  0  0  0  0
    7.9713  -11.3028   -8.6814 C   0  0  0  0  0  0  0  0  0  0  0  0
  1 23  1  0  0  0  0
  1 24  1  0  0  0  0
  1  2  1  0  0  0  0
  3  4  1  0  0  0  0
  3 17  1  0  0  0  0
  4  6  2  0  0  0  0
  4 13  1  0  0  0  0
  5 10  1  0  0  0  0
  5 14  2  0  0  0  0
  6  8  1  0  0  0  0
  7 12  1  0  0  0  0
  7 14  1  0  0  0  0
  7 19  1  0  0  0  0
  8 10  2  0  0  0  0
  9 14  1  0  0  0  0
 10 12  1  0  0  0  0
 11 18  1  0  0  0  0
 11 20  1  0  0  0  0
 11 21  1  0  0  0  0
 12 13  2  0  0  0  0
 13 15  1  0  0  0  0
 15 16  1  0  0  0  0
 16 17  1  0  0  0  0
 16 18  1  1  0  0  0
 19 22  1  0  0  0  0
 22 23  1  0  0  0  0
M  END
>  <CHROM.1>
-163.26738241,78.86835094,92.81509387,133.50929387,150.17291983,151.54602986
10.45618006,-8.43995918,-11.80268156,2.45679644,0.33367432,-0.14779764

>  <Name>
ligand

>  <RI>
0

>  <Rbt.Current_Directory>
/home/itssahil/PROJECTS/Mol_Feturizer/New_Systems/rnas/3TZR

>  <Rbt.Executable>
rbdock ($Id: //depot/dev/client3/rdock/2013.1/src/exe/rbdock.cxx#4 $)

>  <Rbt.Library>
libRbt.so (2013.1, Build901 2013/11/27)

>  <Rbt.Parameter_File>
/export/apps/rDock/src/rDock_2013.1_src/data/scripts/dock_solv.prm

>  <Rbt.Receptor>
prm/pocket_docking_7.prm

>  <SCORE>
-32.1225

>  <SCORE.INTER>
-25.2959

>  <SCORE.INTER.CONST>
1

>  <SCORE.INTER.POLAR>
0

>  <SCORE.INTER.ROT>
6

>  <SCORE.INTER.SOLV>
20.2195

>  <SCORE.INTER.VDW>
-31.2037

>  <SCORE.INTER.norm>
-1.05399

>  <SCORE.INTRA>
-6.82664

>  <SCORE.INTRA.DIHEDRAL>
8.00973

>  <SCORE.INTRA.DIHEDRAL.0>
4.94008

>  <SCORE.INTRA.POLAR>
0

>  <SCORE.INTRA.POLAR.0>
0

>  <SCORE.INTRA.REPUL>
0

>  <SCORE.INTRA.REPUL.0>
0

>  <SCORE.INTRA.SOLV>
-0.151588

>  <SCORE.INTRA.SOLV.lig_0>
-31.4704

>  <SCORE.INTRA.VDW>
-10.7557

>  <SCORE.INTRA.VDW.0>
10.2807

>  <SCORE.INTRA.norm>
-0.284443

>  <SCORE.RESTR>
0

>  <SCORE.RESTR.CAVITY>
0

>  <SCORE.RESTR.norm>
0

>  <SCORE.SYSTEM>
0

>  <SCORE.SYSTEM.CONST>
0

>  <SCORE.SYSTEM.DIHEDRAL>
0

>  <SCORE.SYSTEM.SOLV>
0

>  <SCORE.SYSTEM.norm>
0

>  <SCORE.heavy>
24

>  <SCORE.norm>
-1.33844

>  <RMSD>
0.800

$$$$
ligand
 OpenBabel11021811493D
libRbt.so/2013.1/901 2013/11/27
 24 26  0  0  0  0  0  0  0  0999 V2000
    6.9472  -10.9260   -9.8187 N   0  0  0  0  0  0  0  0  0  0  0  0
    8.0933  -11.4643   -9.1038 C   0  0  0  0  0  0  0  0  0  0  0  0
   13.1897   -5.9913  -12.8029 O   0  0  0  0  0  0  0  0  0  0  0  0
   11.8807   -5.5676  -12.6163 C   0  0  0  0  0  0  0  0  0  0  0  0
    7.7923   -4.4406  -12.0932 N   0  0  0  0  0  0  0  0  0  0  0  0
   11.5303   -4.1041  -12.5683 C   0  0  0  0  0  0  0  0  0  0  0  0
    8.2238   -6.6446  -12.1360 N   0  0  0  0  0  0  0  0  0  0  0  0
   10.1846   -3.6412  -12.4049 C   0  0  0  0  0  0  0  0  0  0  0  0
    5.8341   -5.9594  -11.8248 N   0  0  0  0  0  0  0  0  0  0  0  0
    9.1669   -4.6511  -12.2711 C   0  0  0  0  0  0  0  0  0  0  0  0
   12.4859  -10.6861  -12.1978 N   0  0  0  0  0  0  0  0  0  0  0  0
    9.4899   -6.0525  -12.2998 C   0  0  0  0  0  0  0  0  0  0  0  0
   10.9013   -6.4883  -12.4835 C   0  0  0  0  0  0  0  0  0  0  0  0
    7.2278   -5.6808  -12.0190 C   0  0  0  0  0  0  0  0  0  0  0  0
   11.2210   -7.9710  -12.5208 C   0  0  0  0  0  0  0  0  0  0  0  0
   12.7061   -8.3143  -12.4758 C   0  0  1  0  0  0  0  0  0  0  0  0
   13.5625   -7.1339  -12.1163 C   0  0  0  0  0  0  0  0  0  0  0  0
   12.9428   -9.4805  -11.5281 C   0  0  0  0  0  0  0  0  0  0  0  0
    7.9747   -8.0986  -12.1730 C   0  0  0  0  0  0  0  0  0  0  0  0
   13.5753  -11.2007  -13.0164 C   0  0  0  0  0  0  0  0  0  0  0  0
   12.1443  -11.6550  -11.1682 C   0  0  0  0  0  0  0  0  0  0  0  0
    7.5317   -8.7270  -10.8405 C   0  0  0  0  0  0  0  0  0  0  0  0
    7.3858  -10.2465  -11.0460 C   0  0  0  0  0  0  0  0  0  0  0  0
    6.0419  -12.0293  -10.1194 C   0  0  0  0  0  0  0  0  0  0  0  0
  1 23  1  0  0  0  0
  1 24  1  0  0  0  0
  1  2  1  0  0  0  0
  3  4  1  0  0  0  0
  3 17  1  0  0  0  0
  4  6  2  0  0  0  0
  4 13  1  0  0  0  0
  5 10  1  0  0  0  0
  5 14  2  0  0  0  0
  6  8  1  0  0  0  0
  7 12  1  0  0  0  0
  7 14  1  0  0  0  0
  7 19  1  0  0  0  0
  8 10  2  0  0  0  0
  9 14  1  0  0  0  0
 10 12  1  0  0  0  0
 11 18  1  0  0  0  0
 11 20  1  0  0  0  0
 11 21  1  0  0  0  0
 12 13  2  0  0  0  0
 13 15  1  0  0  0  0
 15 16  1  0  0  0  0
 16 17  1  0  0  0  0
 16 18  1  1  0  0  0
 19 22  1  0  0  0  0
 22 23  1  0  0  0  0
M  END
>  <CHROM.1>
-96.31502649,112.86147544,86.32191079,74.73966338,-177.26825415,-179.30998787
9.92440499,-7.94560834,-11.78637748,2.17625747,-0.21747474,2.90332397

>  <Name>
ligand

>  <RI>
0

>  <Rbt.Current_Directory>
/home/itssahil/PROJECTS/Mol_Feturizer/New_Systems/rnas/3TZR

>  <Rbt.Executable>
rbdock ($Id: //depot/dev/client3/rdock/2013.1/src/exe/rbdock.cxx#4 $)

>  <Rbt.Library>
libRbt.so (2013.1, Build901 2013/11/27)

>  <Rbt.Parameter_File>
/export/apps/rDock/src/rDock_2013.1_src/data/scripts/dock_solv.prm

>  <Rbt.Receptor>
prm/pocket_docking_5.prm

>  <SCORE>
-37.1194

>  <SCORE.INTER>
-25.8573

>  <SCORE.INTER.CONST>
1

>  <SCORE.INTER.POLAR>
0

>  <SCORE.INTER.ROT>
6

>  <SCORE.INTER.SOLV>
20.729

>  <SCORE.INTER.VDW>
-31.7478

>  <SCORE.INTER.norm>
-1.07739

>  <SCORE.INTRA>
-11.2622

>  <SCORE.INTRA.DIHEDRAL>
-0.352091

>  <SCORE.INTRA.DIHEDRAL.0>
4.94008

>  <SCORE.INTRA.POLAR>
0

>  <SCORE.INTRA.POLAR.0>
0

>  <SCORE.INTRA.REPUL>
0

>  <SCORE.INTRA.REPUL.0>
0

>  <SCORE.INTRA.SOLV>
0.358974

>  <SCORE.INTRA.SOLV.lig_0>
-31.4704

>  <SCORE.INTRA.VDW>
-11.2656

>  <SCORE.INTRA.VDW.0>
10.2807

>  <SCORE.INTRA.norm>
-0.469258

>  <SCORE.RESTR>
0

>  <SCORE.RESTR.CAVITY>
0

>  <SCORE.RESTR.norm>
0

>  <SCORE.SYSTEM>
0

>  <SCORE.SYSTEM.CONST>
0

>  <SCORE.SYSTEM.DIHEDRAL>
0

>  <SCORE.SYSTEM.SOLV>
0

>  <SCORE.SYSTEM.norm>
0

>  <SCORE.heavy>
24

>  <SCORE.norm>
-1.54664

>  <RMSD>
0.802

$$$$
ligand
 OpenBabel11021811493D
libRbt.so/2013.1/901 2013/11/27
 24 26  0  0  0  0  0  0  0  0999 V2000
    7.0405  -11.0822   -9.7163 N   0  0  0  0  0  0  0  0  0  0  0  0
    8.1823  -11.6956   -9.0572 C   0  0  0  0  0  0  0  0  0  0  0  0
   13.7828   -7.2092  -12.9726 O   0  0  0  0  0  0  0  0  0  0  0  0
   12.6068   -6.5517  -12.6373 C   0  0  0  0  0  0  0  0  0  0  0  0
    8.8890   -4.6850  -11.6615 N   0  0  0  0  0  0  0  0  0  0  0  0
   12.5669   -5.0564  -12.4658 C   0  0  0  0  0  0  0  0  0  0  0  0
    8.8576   -6.9202  -11.8812 N   0  0  0  0  0  0  0  0  0  0  0  0
   11.3612   -4.3514  -12.1477 C   0  0  0  0  0  0  0  0  0  0  0  0
    6.6904   -5.8037  -11.3038 N   0  0  0  0  0  0  0  0  0  0  0  0
   10.1731   -5.1479  -11.9811 C   0  0  0  0  0  0  0  0  0  0  0  0
   13.4785  -11.7276  -12.7339 N   0  0  0  0  0  0  0  0  0  0  0  0
   10.2005   -6.5786  -12.1270 C   0  0  0  0  0  0  0  0  0  0  0  0
   11.4742   -7.2684  -12.4698 C   0  0  0  0  0  0  0  0  0  0  0  0
    8.0915   -5.7912  -11.6112 C   0  0  0  0  0  0  0  0  0  0  0  0
   11.4811   -8.7773  -12.6289 C   0  0  0  0  0  0  0  0  0  0  0  0
   12.8639   -9.4096  -12.7458 C   0  0  1  0  0  0  0  0  0  0  0  0
   13.9688   -8.4540  -12.3964 C   0  0  0  0  0  0  0  0  0  0  0  0
   12.9331  -10.6713  -11.8988 C   0  0  0  0  0  0  0  0  0  0  0  0
    8.3154   -8.2887  -11.9846 C   0  0  0  0  0  0  0  0  0  0  0  0
   14.5793  -12.3594  -12.0190 C   0  0  0  0  0  0  0  0  0  0  0  0
   12.4182  -12.6972  -12.9601 C   0  0  0  0  0  0  0  0  0  0  0  0
    8.0241   -8.9867  -10.6449 C   0  0  0  0  0  0  0  0  0  0  0  0
    7.4695  -10.3926  -10.9414 C   0  0  0  0  0  0  0  0  0  0  0  0
    6.0706  -12.1309  -10.0114 C   0  0  0  0  0  0  0  0  0  0  0  0
  1 23  1  0  0  0  0
  1 24  1  0  0  0  0
  1  2  1  0  0  0  0
  3  4  1  0  0  0  0
  3 17  1  0  0  0  0
  4  6  2  0  0  0  0
  4 13  1  0  0  0  0
  5 10  1  0  0  0  0
  5 14  2  0  0  0  0
  6  8  1  0  0  0  0
  7 12  1  0  0  0  0
  7 14  1  0  0  0  0
  7 19  1  0  0  0  0
  8 10  2  0  0  0  0
  9 14  1  0  0  0  0
 10 12  1  0  0  0  0
 11 18  1  0  0  0  0
 11 20  1  0  0  0  0
 11 21  1  0  0  0  0
 12 13  2  0  0  0  0
 13 15  1  0  0  0  0
 15 16  1  0  0  0  0
 16 17  1  0  0  0  0
 16 18  1  1  0  0  0
 19 22  1  0  0  0  0
 22 23  1  0  0  0  0
M  END
>  <CHROM.1>
-82.46206757,105.62477410,129.23563223,130.59023516,-179.98786323,-174.43690036
10.47175479,-8.56674680,-11.76839717,2.95607557,0.31485877,-0.14521858

>  <Name>
ligand

>  <RI>
0

>  <Rbt.Current_Directory>
/home/itssahil/PROJECTS/Mol_Feturizer/New_Systems/rnas/3TZR

>  <Rbt.Executable>
rbdock ($Id: //depot/dev/client3/rdock/2013.1/src/exe/rbdock.cxx#4 $)

>  <Rbt.Library>
libRbt.so (2013.1, Build901 2013/11/27)

>  <Rbt.Parameter_File>
/export/apps/rDock/src/rDock_2013.1_src/data/scripts/dock_solv.prm

>  <Rbt.Receptor>
prm/pocket_docking_6.prm

>  <SCORE>
-34.5305

>  <SCORE.INTER>
-25.3428

>  <SCORE.INTER.CONST>
1

>  <SCORE.INTER.POLAR>
0

>  <SCORE.INTER.ROT>
6

>  <SCORE.INTER.SOLV>
19.1066

>  <SCORE.INTER.VDW>
-30.864

>  <SCORE.INTER.norm>
-1.05595

>  <SCORE.INTRA>
-9.18779

>  <SCORE.INTRA.DIHEDRAL>
4.33064

>  <SCORE.INTRA.DIHEDRAL.0>
4.94008

>  <SCORE.INTRA.POLAR>
0

>  <SCORE.INTRA.POLAR.0>
0

>  <SCORE.INTRA.REPUL>
0

>  <SCORE.INTRA.REPUL.0>
0

>  <SCORE.INTRA.SOLV>
0.164796

>  <SCORE.INTRA.SOLV.lig_0>
-31.4704

>  <SCORE.INTRA.VDW>
-11.4355

>  <SCORE.INTRA.VDW.0>
10.2807

>  <SCORE.INTRA.norm>
-0.382825

>  <SCORE.RESTR>
0

>  <SCORE.RESTR.CAVITY>
0

>  <SCORE.RESTR.norm>
0

>  <SCORE.SYSTEM>
0

>  <SCORE.SYSTEM.CONST>
0

>  <SCORE.SYSTEM.DIHEDRAL>
0

>  <SCORE.SYSTEM.SOLV>
0

>  <SCORE.SYSTEM.norm>
0

>  <SCORE.heavy>
24

>  <SCORE.norm>
-1.43877

>  <RMSD>
0.803

$$$$
ligand
 OpenBabel11021811493D
libRbt.so/2013.1/901 2013/11/27
 24 26  0  0  0  0  0  0  0  0999 V2000
    7.3859  -10.8141  -10.9459 N   0  0  0  0  0  0  0  0  0  0  0  0
    6.4842  -11.8567  -11.4088 C   0  0  0  0  0  0  0  0  0  0  0  0
   13.5800   -7.6337  -12.7390 O   0  0  0  0  0  0  0  0  0  0  0  0
   12.5026   -6.7840  -12.5267 C   0  0  0  0  0  0  0  0  0  0  0  0
    9.0683   -4.3150  -11.9196 N   0  0  0  0  0  0  0  0  0  0  0  0
   12.6780   -5.2890  -12.4968 C   0  0  0  0  0  0  0  0  0  0  0  0
    8.7146   -6.5332  -11.9326 N   0  0  0  0  0  0  0  0  0  0  0  0
   11.5789   -4.3900  -12.3074 C   0  0  0  0  0  0  0  0  0  0  0  0
    6.7166   -5.0652  -11.5728 N   0  0  0  0  0  0  0  0  0  0  0  0
   10.2807   -4.9870  -12.1288 C   0  0  0  0  0  0  0  0  0  0  0  0
   13.2856  -11.7315  -11.6477 N   0  0  0  0  0  0  0  0  0  0  0  0
   10.1015   -6.4142  -12.1399 C   0  0  0  0  0  0  0  0  0  0  0  0
   11.2709   -7.3104  -12.3516 C   0  0  0  0  0  0  0  0  0  0  0  0
    8.1146   -5.2847  -11.8079 C   0  0  0  0  0  0  0  0  0  0  0  0
   11.0605   -8.8129  -12.3697 C   0  0  0  0  0  0  0  0  0  0  0  0
   12.3378   -9.6457  -12.3565 C   0  0  1  0  0  0  0  0  0  0  0  0
   13.5582   -8.8289  -12.0412 C   0  0  0  0  0  0  0  0  0  0  0  0
   12.1882  -10.8140  -11.3938 C   0  0  0  0  0  0  0  0  0  0  0  0
    7.9802   -7.8130  -11.9363 C   0  0  0  0  0  0  0  0  0  0  0  0
   13.4713  -12.5667  -10.4688 C   0  0  0  0  0  0  0  0  0  0  0  0
   12.9093  -12.5595  -12.7827 C   0  0  0  0  0  0  0  0  0  0  0  0
    7.6010   -8.3610  -10.5497 C   0  0  0  0  0  0  0  0  0  0  0  0
    6.6507   -9.5574  -10.7445 C   0  0  0  0  0  0  0  0  0  0  0  0
    8.0057  -11.2690   -9.7064 C   0  0  0  0  0  0  0  0  0  0  0  0
  1 23  1  0  0  0  0
  1 24  1  0  0  0  0
  1  2  1  0  0  0  0
  3  4  1  0  0  0  0
  3 17  1  0  0  0  0
  4  6  2  0  0  0  0
  4 13  1  0  0  0  0
  5 10  1  0  0  0  0
  5 14  2  0  0  0  0
  6  8  1  0  0  0  0
  7 12  1  0  0  0  0
  7 14  1  0  0  0  0
  7 19  1  0  0  0  0
  8 10  2  0  0  0  0
  9 14  1  0  0  0  0
 10 12  1  0  0  0  0
 11 18  1  0  0  0  0
 11 20  1  0  0  0  0
 11 21  1  0  0  0  0
 12 13  2  0  0  0  0
 13 15  1  0  0  0  0
 15 16  1  0  0  0  0
 16 17  1  0  0  0  0
 16 18  1  1  0  0  0
 19 22  1  0  0  0  0
 22 23  1  0  0  0  0
M  END
>  <CHROM.1>
-167.75494509,102.68748761,159.04186479,167.03527014,170.70106990,86.12252815
10.29953207,-8.42286300,-11.73620724,0.98930164,-0.18698974,2.98414804

>  <Name>
ligand

>  <RI>
0

>  <Rbt.Current_Directory>
/home/itssahil/PROJECTS/Mol_Feturizer/New_Systems/rnas/3TZR

>  <Rbt.Executable>
rbdock ($Id: //depot/dev/client3/rdock/2013.1/src/exe/rbdock.cxx#4 $)

>  <Rbt.Library>
libRbt.so (2013.1, Build901 2013/11/27)

>  <Rbt.Parameter_File>
/export/apps/rDock/src/rDock_2013.1_src/data/scripts/dock_solv.prm

>  <Rbt.Receptor>
prm/pocket_docking_2.prm

>  <SCORE>
-31.2948

>  <SCORE.INTER>
-21.5226

>  <SCORE.INTER.CONST>
1

>  <SCORE.INTER.POLAR>
0

>  <SCORE.INTER.ROT>
6

>  <SCORE.INTER.SOLV>
20.492

>  <SCORE.INTER.VDW>
-28.7791

>  <SCORE.INTER.norm>
-0.896774

>  <SCORE.INTRA>
-9.77227

>  <SCORE.INTRA.DIHEDRAL>
0.497906

>  <SCORE.INTRA.DIHEDRAL.0>
4.94008

>  <SCORE.INTRA.POLAR>
0

>  <SCORE.INTRA.POLAR.0>
0

>  <SCORE.INTRA.REPUL>
0

>  <SCORE.INTRA.REPUL.0>
0

>  <SCORE.INTRA.SOLV>
0.444525

>  <SCORE.INTRA.SOLV.lig_0>
-31.4704

>  <SCORE.INTRA.VDW>
-10.2435

>  <SCORE.INTRA.VDW.0>
10.2807

>  <SCORE.INTRA.norm>
-0.407178

>  <SCORE.RESTR>
0

>  <SCORE.RESTR.CAVITY>
0

>  <SCORE.RESTR.norm>
0

>  <SCORE.SYSTEM>
0

>  <SCORE.SYSTEM.CONST>
0

>  <SCORE.SYSTEM.DIHEDRAL>
0

>  <SCORE.SYSTEM.SOLV>
0

>  <SCORE.SYSTEM.norm>
0

>  <SCORE.heavy>
24

>  <SCORE.norm>
-1.30395

>  <RMSD>
0.806

$$$$
ligand
 OpenBabel11021811493D
libRbt.so/2013.1/901 2013/11/27
 24 26  0  0  0  0  0  0  0  0999 V2000
    6.7195  -10.9282   -9.9369 N   0  0  0  0  0  0  0  0  0  0  0  0
    7.8803  -11.5476   -9.3177 C   0  0  0  0  0  0  0  0  0  0  0  0
   13.1827   -5.9532  -12.7533 O   0  0  0  0  0  0  0  0  0  0  0  0
   11.8680   -5.5434  -12.5763 C   0  0  0  0  0  0  0  0  0  0  0  0
    7.7641   -4.4592  -12.0846 N   0  0  0  0  0  0  0  0  0  0  0  0
   11.5031   -4.0837  -12.5213 C   0  0  0  0  0  0  0  0  0  0  0  0
    8.2170   -6.6586  -12.1388 N   0  0  0  0  0  0  0  0  0  0  0  0
   10.1514   -3.6348  -12.3676 C   0  0  0  0  0  0  0  0  0  0  0  0
    5.8181   -5.9984  -11.8459 N   0  0  0  0  0  0  0  0  0  0  0  0
    9.1423   -4.6553  -12.2508 C   0  0  0  0  0  0  0  0  0  0  0  0
   12.5462  -10.6622  -12.1995 N   0  0  0  0  0  0  0  0  0  0  0  0
    9.4789   -6.0533  -12.2863 C   0  0  0  0  0  0  0  0  0  0  0  0
   10.8961   -6.4743  -12.4594 C   0  0  0  0  0  0  0  0  0  0  0  0
    7.2108   -5.7052  -12.0247 C   0  0  0  0  0  0  0  0  0  0  0  0
   11.2304   -7.9536  -12.5041 C   0  0  0  0  0  0  0  0  0  0  0  0
   12.7183   -8.2830  -12.4472 C   0  0  1  0  0  0  0  0  0  0  0  0
   13.5598   -7.0971  -12.0712 C   0  0  0  0  0  0  0  0  0  0  0  0
   12.9570   -9.4537  -11.5056 C   0  0  0  0  0  0  0  0  0  0  0  0
    7.9823   -8.1145  -12.1886 C   0  0  0  0  0  0  0  0  0  0  0  0
   13.6527  -11.1158  -13.0312 C   0  0  0  0  0  0  0  0  0  0  0  0
   12.2465  -11.6653  -11.1898 C   0  0  0  0  0  0  0  0  0  0  0  0
    7.4784   -8.7474  -10.8800 C   0  0  0  0  0  0  0  0  0  0  0  0
    7.1141  -10.2173  -11.1614 C   0  0  0  0  0  0  0  0  0  0  0  0
    5.7461  -11.9759  -10.2237 C   0  0  0  0  0  0  0  0  0  0  0  0
  1 23  1  0  0  0  0
  1 24  1  0  0  0  0
  1  2  1  0  0  0  0
  3  4  1  0  0  0  0
  3 17  1  0  0  0  0
  4  6  2  0  0  0  0
  4 13  1  0  0  0  0
  5 10  1  0  0  0  0
  5 14  2  0  0  0  0
  6  8  1  0  0  0  0
  7 12  1  0  0  0  0
  7 14  1  0  0  0  0
  7 19  1  0  0  0  0
  8 10  2  0  0  0  0
  9 14  1  0  0  0  0
 10 12  1  0  0  0  0
 11 18  1  0  0  0  0
 11 20  1  0  0  0  0
 11 21  1  0  0  0  0
 12 13  2  0  0  0  0
 13 15  1  0  0  0  0
 15 16  1  0  0  0  0
 16 17  1  0  0  0  0
 16 18  1  1  0  0  0
 19 22  1  0  0  0  0
 22 23  1  0  0  0  0
M  END
>  <CHROM.1>
-90.70199195,115.21409094,84.31043737,76.00140094,172.67922594,175.60037572
9.88258150,-7.93811367,-11.80210430,-2.38069643,0.19877011,-0.22007725

>  <Name>
ligand

>  <RI>
0

>  <Rbt.Current_Directory>
/home/itssahil/PROJECTS/Mol_Feturizer/New_Systems/rnas/3TZR

>  <Rbt.Executable>
rbdock ($Id: //depot/dev/client3/rdock/2013.1/src/exe/rbdock.cxx#4 $)

>  <Rbt.Library>
libRbt.so (2013.1, Build901 2013/11/27)

>  <Rbt.Parameter_File>
/export/apps/rDock/src/rDock_2013.1_src/data/scripts/dock_solv.prm

>  <Rbt.Receptor>
prm/pocket_docking_2.prm

>  <SCORE>
-36.8459

>  <SCORE.INTER>
-25.9605

>  <SCORE.INTER.CONST>
1

>  <SCORE.INTER.POLAR>
0

>  <SCORE.INTER.ROT>
6

>  <SCORE.INTER.SOLV>
20.6544

>  <SCORE.INTER.VDW>
-31.7918

>  <SCORE.INTER.norm>
-1.08169

>  <SCORE.INTRA>
-10.8854

>  <SCORE.INTRA.DIHEDRAL>
-0.470386

>  <SCORE.INTRA.DIHEDRAL.0>
4.94008

>  <SCORE.INTRA.POLAR>
0

>  <SCORE.INTRA.POLAR.0>
0

>  <SCORE.INTRA.REPUL>
0

>  <SCORE.INTRA.REPUL.0>
0

>  <SCORE.INTRA.SOLV>
0.56473

>  <SCORE.INTRA.SOLV.lig_0>
-31.4704

>  <SCORE.INTRA.VDW>
-10.9326

>  <SCORE.INTRA.VDW.0>
10.2807

>  <SCORE.INTRA.norm>
-0.45356

>  <SCORE.RESTR>
0

>  <SCORE.RESTR.CAVITY>
0

>  <SCORE.RESTR.norm>
0

>  <SCORE.SYSTEM>
0

>  <SCORE.SYSTEM.CONST>
0

>  <SCORE.SYSTEM.DIHEDRAL>
0

>  <SCORE.SYSTEM.SOLV>
0

>  <SCORE.SYSTEM.norm>
0

>  <SCORE.heavy>
24

>  <SCORE.norm>
-1.53525

>  <RMSD>
0.808

$$$$
ligand
 OpenBabel11021811493D
libRbt.so/2013.1/901 2013/11/27
 24 26  0  0  0  0  0  0  0  0999 V2000
    6.7354  -10.8812   -9.9576 N   0  0  0  0  0  0  0  0  0  0  0  0
    7.8813  -11.4938   -9.3051 C   0  0  0  0  0  0  0  0  0  0  0  0
   13.2356   -5.9512  -12.7376 O   0  0  0  0  0  0  0  0  0  0  0  0
   11.9213   -5.5346  -12.5735 C   0  0  0  0  0  0  0  0  0  0  0  0
    7.8185   -4.4291  -12.1222 N   0  0  0  0  0  0  0  0  0  0  0  0
   11.5634   -4.0730  -12.5227 C   0  0  0  0  0  0  0  0  0  0  0  0
    8.2606   -6.6309  -12.1711 N   0  0  0  0  0  0  0  0  0  0  0  0
   10.2127   -3.6171  -12.3823 C   0  0  0  0  0  0  0  0  0  0  0  0
    5.8624   -5.9583  -11.9017 N   0  0  0  0  0  0  0  0  0  0  0  0
    9.1972   -4.6324  -12.2749 C   0  0  0  0  0  0  0  0  0  0  0  0
   12.5810  -10.6579  -12.1923 N   0  0  0  0  0  0  0  0  0  0  0  0
    9.5270   -6.0321  -12.3065 C   0  0  0  0  0  0  0  0  0  0  0  0
   10.9436   -6.4604  -12.4657 C   0  0  0  0  0  0  0  0  0  0  0  0
    7.2583   -5.6723  -12.0671 C   0  0  0  0  0  0  0  0  0  0  0  0
   11.2708   -7.9414  -12.5065 C   0  0  0  0  0  0  0  0  0  0  0  0
   12.7563   -8.2785  -12.4351 C   0  0  1  0  0  0  0  0  0  0  0  0
   13.6002   -7.0967  -12.0514 C   0  0  0  0  0  0  0  0  0  0  0  0
   12.9799   -9.4499  -11.4907 C   0  0  0  0  0  0  0  0  0  0  0  0
    8.0190   -8.0856  -12.2225 C   0  0  0  0  0  0  0  0  0  0  0  0
   13.6848  -11.0842  -13.0418 C   0  0  0  0  0  0  0  0  0  0  0  0
   12.3103  -11.6763  -11.1898 C   0  0  0  0  0  0  0  0  0  0  0  0
    7.5745   -8.7286  -10.8974 C   0  0  0  0  0  0  0  0  0  0  0  0
    7.1581  -10.1842  -11.1806 C   0  0  0  0  0  0  0  0  0  0  0  0
    5.7683  -11.9318  -10.2547 C   0  0  0  0  0  0  0  0  0  0  0  0
  1 23  1  0  0  0  0
  1 24  1  0  0  0  0
  1  2  1  0  0  0  0
  3  4  1  0  0  0  0
  3 17  1  0  0  0  0
  4  6  2  0  0  0  0
  4 13  1  0  0  0  0
  5 10  1  0  0  0  0
  5 14  2  0  0  0  0
  6  8  1  0  0  0  0
  7 12  1  0  0  0  0
  7 14  1  0  0  0  0
  7 19  1  0  0  0  0
  8 10  2  0  0  0  0
  9 14  1  0  0  0  0
 10 12  1  0  0  0  0
 11 18  1  0  0  0  0
 11 20  1  0  0  0  0
 11 21  1  0  0  0  0
 12 13  2  0  0  0  0
 13 15  1  0  0  0  0
 15 16  1  0  0  0  0
 16 17  1  0  0  0  0
 16 18  1  1  0  0  0
 19 22  1  0  0  0  0
 22 23  1  0  0  0  0
M  END
>  <CHROM.1>
-88.24792385,111.94075564,82.35194571,76.50573129,171.24883576,179.18130947
9.92609195,-7.91716628,-11.81368326,-2.38552830,0.19397304,-0.22192008

>  <Name>
ligand

>  <RI>
0

>  <Rbt.Current_Directory>
/home/itssahil/PROJECTS/Mol_Feturizer/New_Systems/rnas/3TZR

>  <Rbt.Executable>
rbdock ($Id: //depot/dev/client3/rdock/2013.1/src/exe/rbdock.cxx#4 $)

>  <Rbt.Library>
libRbt.so (2013.1, Build901 2013/11/27)

>  <Rbt.Parameter_File>
/export/apps/rDock/src/rDock_2013.1_src/data/scripts/dock_solv.prm

>  <Rbt.Receptor>
prm/pocket_docking_5.prm

>  <SCORE>
-36.8766

>  <SCORE.INTER>
-26.011

>  <SCORE.INTER.CONST>
1

>  <SCORE.INTER.POLAR>
0

>  <SCORE.INTER.ROT>
6

>  <SCORE.INTER.SOLV>
20.8466

>  <SCORE.INTER.VDW>
-31.8895

>  <SCORE.INTER.norm>
-1.08379

>  <SCORE.INTRA>
-10.8657

>  <SCORE.INTRA.DIHEDRAL>
-0.653539

>  <SCORE.INTRA.DIHEDRAL.0>
4.94008

>  <SCORE.INTRA.POLAR>
0

>  <SCORE.INTRA.POLAR.0>
0

>  <SCORE.INTRA.REPUL>
0

>  <SCORE.INTRA.REPUL.0>
0

>  <SCORE.INTRA.SOLV>
0.490271

>  <SCORE.INTRA.SOLV.lig_0>
-31.4704

>  <SCORE.INTRA.VDW>
-10.784

>  <SCORE.INTRA.VDW.0>
10.2807

>  <SCORE.INTRA.norm>
-0.452735

>  <SCORE.RESTR>
0

>  <SCORE.RESTR.CAVITY>
0

>  <SCORE.RESTR.norm>
0

>  <SCORE.SYSTEM>
0

>  <SCORE.SYSTEM.CONST>
0

>  <SCORE.SYSTEM.DIHEDRAL>
0

>  <SCORE.SYSTEM.SOLV>
0

>  <SCORE.SYSTEM.norm>
0

>  <SCORE.heavy>
24

>  <SCORE.norm>
-1.53653

>  <RMSD>
0.813

$$$$
ligand
 OpenBabel11021811493D
libRbt.so/2013.1/901 2013/11/27
 24 26  0  0  0  0  0  0  0  0999 V2000
    6.7651  -10.8936   -9.9481 N   0  0  0  0  0  0  0  0  0  0  0  0
    7.8546  -11.5382   -9.2326 C   0  0  0  0  0  0  0  0  0  0  0  0
   13.2186   -6.0024  -12.8294 O   0  0  0  0  0  0  0  0  0  0  0  0
   11.9034   -5.5840  -12.6773 C   0  0  0  0  0  0  0  0  0  0  0  0
    7.7983   -4.4743  -12.2588 N   0  0  0  0  0  0  0  0  0  0  0  0
   11.5435   -4.1221  -12.6596 C   0  0  0  0  0  0  0  0  0  0  0  0
    8.2434   -6.6760  -12.2580 N   0  0  0  0  0  0  0  0  0  0  0  0
   10.1919   -3.6651  -12.5321 C   0  0  0  0  0  0  0  0  0  0  0  0
    5.8437   -6.0009  -12.0084 N   0  0  0  0  0  0  0  0  0  0  0  0
    9.1775   -4.6791  -12.4042 C   0  0  0  0  0  0  0  0  0  0  0  0
   12.6042  -10.7006  -12.1941 N   0  0  0  0  0  0  0  0  0  0  0  0
    9.5092   -6.0787  -12.4042 C   0  0  0  0  0  0  0  0  0  0  0  0
   10.9268   -6.5085  -12.5509 C   0  0  0  0  0  0  0  0  0  0  0  0
    7.2396   -5.7167  -12.1773 C   0  0  0  0  0  0  0  0  0  0  0  0
   11.2559   -7.9897  -12.5583 C   0  0  0  0  0  0  0  0  0  0  0  0
   12.7417   -8.3230  -12.4764 C   0  0  1  0  0  0  0  0  0  0  0  0
   13.5833   -7.1320  -12.1174 C   0  0  0  0  0  0  0  0  0  0  0  0
   12.9649   -9.4730  -11.5059 C   0  0  0  0  0  0  0  0  0  0  0  0
    8.0037   -8.1319  -12.2777 C   0  0  0  0  0  0  0  0  0  0  0  0
   13.7608  -11.1638  -12.9487 C   0  0  0  0  0  0  0  0  0  0  0  0
   12.2529  -11.6827  -11.1804 C   0  0  0  0  0  0  0  0  0  0  0  0
    7.5517   -8.7450  -10.9410 C   0  0  0  0  0  0  0  0  0  0  0  0
    7.2699  -10.2425  -11.1653 C   0  0  0  0  0  0  0  0  0  0  0  0
    5.7683  -11.9098  -10.2661 C   0  0  0  0  0  0  0  0  0  0  0  0
  1 23  1  0  0  0  0
  1 24  1  0  0  0  0
  1  2  1  0  0  0  0
  3  4  1  0  0  0  0
  3 17  1  0  0  0  0
  4  6  2  0  0  0  0
  4 13  1  0  0  0  0
  5 10  1  0  0  0  0
  5 14  2  0  0  0  0
  6  8  1  0  0  0  0
  7 12  1  0  0  0  0
  7 14  1  0  0  0  0
  7 19  1  0  0  0  0
  8 10  2  0  0  0  0
  9 14  1  0  0  0  0
 10 12  1  0  0  0  0
 11 18  1  0  0  0  0
 11 20  1  0  0  0  0
 11 21  1  0  0  0  0
 12 13  2  0  0  0  0
 13 15  1  0  0  0  0
 15 16  1  0  0  0  0
 16 17  1  0  0  0  0
 16 18  1  1  0  0  0
 19 22  1  0  0  0  0
 22 23  1  0  0  0  0
M  END
>  <CHROM.1>
-96.13593336,112.18231733,85.64024690,78.05980162,176.68493095,-177.10252849
9.92050458,-7.95638260,-11.86518308,-2.36230002,0.19168854,-0.24623983

>  <Name>
ligand

>  <RI>
0

>  <Rbt.Current_Directory>
/home/itssahil/PROJECTS/Mol_Feturizer/New_Systems/rnas/3TZR

>  <Rbt.Executable>
rbdock ($Id: //depot/dev/client3/rdock/2013.1/src/exe/rbdock.cxx#4 $)

>  <Rbt.Library>
libRbt.so (2013.1, Build901 2013/11/27)

>  <Rbt.Parameter_File>
/export/apps/rDock/src/rDock_2013.1_src/data/scripts/dock_solv.prm

>  <Rbt.Receptor>
prm/pocket_docking_6.prm

>  <SCORE>
-36.852

>  <SCORE.INTER>
-25.8843

>  <SCORE.INTER.CONST>
1

>  <SCORE.INTER.POLAR>
0

>  <SCORE.INTER.ROT>
6

>  <SCORE.INTER.SOLV>
21.0348

>  <SCORE.INTER.VDW>
-31.8678

>  <SCORE.INTER.norm>
-1.07851

>  <SCORE.INTRA>
-10.9677

>  <SCORE.INTRA.DIHEDRAL>
-0.0243756

>  <SCORE.INTRA.DIHEDRAL.0>
4.94008

>  <SCORE.INTRA.POLAR>
0

>  <SCORE.INTRA.POLAR.0>
0

>  <SCORE.INTRA.REPUL>
0

>  <SCORE.INTRA.REPUL.0>
0

>  <SCORE.INTRA.SOLV>
0.416852

>  <SCORE.INTRA.SOLV.lig_0>
-31.4704

>  <SCORE.INTRA.VDW>
-11.1639

>  <SCORE.INTRA.VDW.0>
10.2807

>  <SCORE.INTRA.norm>
-0.456988

>  <SCORE.RESTR>
0

>  <SCORE.RESTR.CAVITY>
0

>  <SCORE.RESTR.norm>
0

>  <SCORE.SYSTEM>
0

>  <SCORE.SYSTEM.CONST>
0

>  <SCORE.SYSTEM.DIHEDRAL>
0

>  <SCORE.SYSTEM.SOLV>
0

>  <SCORE.SYSTEM.norm>
0

>  <SCORE.heavy>
24

>  <SCORE.norm>
-1.5355

>  <RMSD>
0.814

$$$$
ligand
 OpenBabel11021811493D
libRbt.so/2013.1/901 2013/11/27
 24 26  0  0  0  0  0  0  0  0999 V2000
    7.2726  -10.9216   -9.6788 N   0  0  0  0  0  0  0  0  0  0  0  0
    8.3394  -11.4901   -8.8706 C   0  0  0  0  0  0  0  0  0  0  0  0
   13.2588   -6.1180  -12.8443 O   0  0  0  0  0  0  0  0  0  0  0  0
   11.9541   -5.6702  -12.6861 C   0  0  0  0  0  0  0  0  0  0  0  0
    7.8771   -4.4705  -12.2419 N   0  0  0  0  0  0  0  0  0  0  0  0
   11.6211   -4.2021  -12.7128 C   0  0  0  0  0  0  0  0  0  0  0  0
    8.2822   -6.6789  -12.1727 N   0  0  0  0  0  0  0  0  0  0  0  0
   10.2802   -3.7158  -12.5800 C   0  0  0  0  0  0  0  0  0  0  0  0
    5.8995   -5.9510  -11.9090 N   0  0  0  0  0  0  0  0  0  0  0  0
    9.2498   -4.7058  -12.4017 C   0  0  0  0  0  0  0  0  0  0  0  0
   12.3473  -10.7349  -11.9410 N   0  0  0  0  0  0  0  0  0  0  0  0
    9.5561   -6.1106  -12.3589 C   0  0  0  0  0  0  0  0  0  0  0  0
   10.9630   -6.5715  -12.5130 C   0  0  0  0  0  0  0  0  0  0  0  0
    7.2973   -5.6988  -12.1093 C   0  0  0  0  0  0  0  0  0  0  0  0
   11.2651   -8.0579  -12.4748 C   0  0  0  0  0  0  0  0  0  0  0  0
   12.7458   -8.4159  -12.4047 C   0  0  1  0  0  0  0  0  0  0  0  0
   13.6145   -7.2293  -12.0997 C   0  0  0  0  0  0  0  0  0  0  0  0
   12.9638   -9.5362  -11.3989 C   0  0  0  0  0  0  0  0  0  0  0  0
    8.0159   -8.1298  -12.1388 C   0  0  0  0  0  0  0  0  0  0  0  0
   13.3006  -11.3815  -12.8327 C   0  0  0  0  0  0  0  0  0  0  0  0
   12.0450  -11.6146  -10.8229 C   0  0  0  0  0  0  0  0  0  0  0  0
    7.8643   -8.7409  -10.7351 C   0  0  0  0  0  0  0  0  0  0  0  0
    7.8297  -10.2744  -10.8752 C   0  0  0  0  0  0  0  0  0  0  0  0
    6.3544  -11.9965  -10.0379 C   0  0  0  0  0  0  0  0  0  0  0  0
  1 23  1  0  0  0  0
  1 24  1  0  0  0  0
  1  2  1  0  0  0  0
  3  4  1  0  0  0  0
  3 17  1  0  0  0  0
  4  6  2  0  0  0  0
  4 13  1  0  0  0  0
  5 10  1  0  0  0  0
  5 14  2  0  0  0  0
  6  8  1  0  0  0  0
  7 12  1  0  0  0  0
  7 14  1  0  0  0  0
  7 19  1  0  0  0  0
  8 10  2  0  0  0  0
  9 14  1  0  0  0  0
 10 12  1  0  0  0  0
 11 18  1  0  0  0  0
 11 20  1  0  0  0  0
 11 21  1  0  0  0  0
 12 13  2  0  0  0  0
 13 15  1  0  0  0  0
 15 16  1  0  0  0  0
 16 17  1  0  0  0  0
 16 18  1  1  0  0  0
 19 22  1  0  0  0  0
 22 23  1  0  0  0  0
M  END
>  <CHROM.1>
-102.81059133,99.90648180,84.98268061,67.82713660,-170.63894146,-161.97965041
10.01460580,-7.99752049,-11.74551530,1.87946492,-0.21278610,2.85194150

>  <Name>
ligand

>  <RI>
144

>  <Rbt.Current_Directory>
/home/itssahil/PROJECTS/Mol_Feturizer/New_Systems/rnas/3TZR

>  <Rbt.Executable>
rbdock ($Id: //depot/dev/client3/rdock/2013.1/src/exe/rbdock.cxx#4 $)

>  <Rbt.Library>
libRbt.so (2013.1, Build901 2013/11/27)

>  <Rbt.Parameter_File>
/export/apps/rDock/src/rDock_2013.1_src/data/scripts/dock_solv.prm

>  <Rbt.Receptor>
prm/blind_docking_60.prm

>  <SCORE>
-36.5507

>  <SCORE.INTER>
-25.5496

>  <SCORE.INTER.CONST>
1

>  <SCORE.INTER.POLAR>
0

>  <SCORE.INTER.ROT>
6

>  <SCORE.INTER.SOLV>
20.5721

>  <SCORE.INTER.VDW>
-31.4904

>  <SCORE.INTER.norm>
-1.06456

>  <SCORE.INTRA>
-11.0468

>  <SCORE.INTRA.DIHEDRAL>
0.915575

>  <SCORE.INTRA.DIHEDRAL.0>
4.94008

>  <SCORE.INTRA.POLAR>
0

>  <SCORE.INTRA.POLAR.0>
0

>  <SCORE.INTRA.REPUL>
0

>  <SCORE.INTRA.REPUL.0>
0

>  <SCORE.INTRA.SOLV>
0.057483

>  <SCORE.INTRA.SOLV.lig_0>
-31.4704

>  <SCORE.INTRA.VDW>
-11.5333

>  <SCORE.INTRA.VDW.0>
10.2807

>  <SCORE.INTRA.norm>
-0.460282

>  <SCORE.RESTR>
0.0455688

>  <SCORE.RESTR.CAVITY>
0.0455688

>  <SCORE.RESTR.norm>
0.0018987

>  <SCORE.SYSTEM>
0

>  <SCORE.SYSTEM.CONST>
0

>  <SCORE.SYSTEM.DIHEDRAL>
0

>  <SCORE.SYSTEM.SOLV>
0

>  <SCORE.SYSTEM.norm>
0

>  <SCORE.heavy>
24

>  <SCORE.norm>
-1.52295

>  <RMSD>
0.816

$$$$
ligand
 OpenBabel11021811493D
libRbt.so/2013.1/901 2013/11/27
 24 26  0  0  0  0  0  0  0  0999 V2000
    7.8633  -10.8236  -10.5120 N   0  0  0  0  0  0  0  0  0  0  0  0
    6.5140  -11.3525  -10.3935 C   0  0  0  0  0  0  0  0  0  0  0  0
   13.7258   -7.1816  -12.7671 O   0  0  0  0  0  0  0  0  0  0  0  0
   12.5611   -6.4779  -12.4912 C   0  0  0  0  0  0  0  0  0  0  0  0
    8.8749   -4.4663  -11.7016 N   0  0  0  0  0  0  0  0  0  0  0  0
   12.5691   -4.9806  -12.3339 C   0  0  0  0  0  0  0  0  0  0  0  0
    8.7703   -6.7009  -11.9044 N   0  0  0  0  0  0  0  0  0  0  0  0
   11.3772   -4.2286  -12.0769 C   0  0  0  0  0  0  0  0  0  0  0  0
    6.6222   -5.4998  -11.4358 N   0  0  0  0  0  0  0  0  0  0  0  0
   10.1540   -4.9792  -11.9584 C   0  0  0  0  0  0  0  0  0  0  0  0
   13.4910  -11.6072  -12.3902 N   0  0  0  0  0  0  0  0  0  0  0  0
   10.1347   -6.4113  -12.0913 C   0  0  0  0  0  0  0  0  0  0  0  0
   11.3962   -7.1509  -12.3698 C   0  0  0  0  0  0  0  0  0  0  0  0
    8.0353   -5.5418  -11.6789 C   0  0  0  0  0  0  0  0  0  0  0  0
   11.3542   -8.6605  -12.5162 C   0  0  0  0  0  0  0  0  0  0  0  0
   12.7164   -9.3443  -12.5646 C   0  0  1  0  0  0  0  0  0  0  0  0
   13.8391   -8.4266  -12.1729 C   0  0  0  0  0  0  0  0  0  0  0  0
   12.7001  -10.5993  -11.7051 C   0  0  0  0  0  0  0  0  0  0  0  0
    8.1829   -8.0494  -12.0213 C   0  0  0  0  0  0  0  0  0  0  0  0
   14.0961  -12.4772  -11.3908 C   0  0  0  0  0  0  0  0  0  0  0  0
   12.5858  -12.3770  -13.2291 C   0  0  0  0  0  0  0  0  0  0  0  0
    7.2118   -8.4467  -10.8961 C   0  0  0  0  0  0  0  0  0  0  0  0
    7.9233   -9.4563   -9.9759 C   0  0  0  0  0  0  0  0  0  0  0  0
    8.7642  -11.7150   -9.7902 C   0  0  0  0  0  0  0  0  0  0  0  0
  1 23  1  0  0  0  0
  1 24  1  0  0  0  0
  1  2  1  0  0  0  0
  3  4  1  0  0  0  0
  3 17  1  0  0  0  0
  4  6  2  0  0  0  0
  4 13  1  0  0  0  0
  5 10  1  0  0  0  0
  5 14  2  0  0  0  0
  6  8  1  0  0  0  0
  7 12  1  0  0  0  0
  7 14  1  0  0  0  0
  7 19  1  0  0  0  0
  8 10  2  0  0  0  0
  9 14  1  0  0  0  0
 10 12  1  0  0  0  0
 11 18  1  0  0  0  0
 11 20  1  0  0  0  0
 11 21  1  0  0  0  0
 12 13  2  0  0  0  0
 13 15  1  0  0  0  0
 15 16  1  0  0  0  0
 16 17  1  0  0  0  0
 16 18  1  1  0  0  0
 19 22  1  0  0  0  0
 22 23  1  0  0  0  0
M  END
>  <CHROM.1>
-71.87753848,134.21299125,149.66225805,142.34139064,-105.75164308,-82.29118079
10.47311235,-8.35217057,-11.74570942,0.82279008,-0.26655049,2.99844151

>  <Name>
ligand

>  <RI>
0

>  <Rbt.Current_Directory>
/home/itssahil/PROJECTS/Mol_Feturizer/New_Systems/rnas/3TZR

>  <Rbt.Executable>
rbdock ($Id: //depot/dev/client3/rdock/2013.1/src/exe/rbdock.cxx#4 $)

>  <Rbt.Library>
libRbt.so (2013.1, Build901 2013/11/27)

>  <Rbt.Parameter_File>
/export/apps/rDock/src/rDock_2013.1_src/data/scripts/dock_solv.prm

>  <Rbt.Receptor>
prm/blind_docking_80.prm

>  <SCORE>
-28.7491

>  <SCORE.INTER>
-22.7726

>  <SCORE.INTER.CONST>
1

>  <SCORE.INTER.POLAR>
0

>  <SCORE.INTER.ROT>
6

>  <SCORE.INTER.SOLV>
19.5435

>  <SCORE.INTER.VDW>
-29.2962

>  <SCORE.INTER.norm>
-0.948859

>  <SCORE.INTRA>
-6.00628

>  <SCORE.INTRA.DIHEDRAL>
7.80413

>  <SCORE.INTRA.DIHEDRAL.0>
4.94008

>  <SCORE.INTRA.POLAR>
0

>  <SCORE.INTRA.POLAR.0>
0

>  <SCORE.INTRA.REPUL>
0

>  <SCORE.INTRA.REPUL.0>
0

>  <SCORE.INTRA.SOLV>
1.11335

>  <SCORE.INTRA.SOLV.lig_0>
-31.4704

>  <SCORE.INTRA.VDW>
-10.465

>  <SCORE.INTRA.VDW.0>
10.2807

>  <SCORE.INTRA.norm>
-0.250261

>  <SCORE.RESTR>
0.0298125

>  <SCORE.RESTR.CAVITY>
0.0298125

>  <SCORE.RESTR.norm>
0.00124219

>  <SCORE.SYSTEM>
0

>  <SCORE.SYSTEM.CONST>
0

>  <SCORE.SYSTEM.DIHEDRAL>
0

>  <SCORE.SYSTEM.SOLV>
0

>  <SCORE.SYSTEM.norm>
0

>  <SCORE.heavy>
24

>  <SCORE.norm>
-1.19788

>  <RMSD>
0.816

$$$$
ligand
 OpenBabel11021811493D
libRbt.so/2013.1/901 2013/11/27
 24 26  0  0  0  0  0  0  0  0999 V2000
    7.0925  -10.8820   -9.7626 N   0  0  0  0  0  0  0  0  0  0  0  0
    8.1695  -11.3961   -8.9319 C   0  0  0  0  0  0  0  0  0  0  0  0
   13.2344   -6.0582  -12.8305 O   0  0  0  0  0  0  0  0  0  0  0  0
   11.9257   -5.6185  -12.6823 C   0  0  0  0  0  0  0  0  0  0  0  0
    7.8379   -4.4438  -12.2719 N   0  0  0  0  0  0  0  0  0  0  0  0
   11.5858   -4.1518  -12.6952 C   0  0  0  0  0  0  0  0  0  0  0  0
    8.2530   -6.6509  -12.2247 N   0  0  0  0  0  0  0  0  0  0  0  0
   10.2411   -3.6736  -12.5723 C   0  0  0  0  0  0  0  0  0  0  0  0
    5.8638   -5.9376  -11.9804 N   0  0  0  0  0  0  0  0  0  0  0  0
    9.2136   -4.6706  -12.4182 C   0  0  0  0  0  0  0  0  0  0  0  0
   12.3850  -10.7024  -12.0188 N   0  0  0  0  0  0  0  0  0  0  0  0
    9.5262   -6.0743  -12.3889 C   0  0  0  0  0  0  0  0  0  0  0  0
   10.9371   -6.5266  -12.5319 C   0  0  0  0  0  0  0  0  0  0  0  0
    7.2627   -5.6763  -12.1610 C   0  0  0  0  0  0  0  0  0  0  0  0
   11.2460   -8.0119  -12.5082 C   0  0  0  0  0  0  0  0  0  0  0  0
   12.7274   -8.3638  -12.4249 C   0  0  1  0  0  0  0  0  0  0  0  0
   13.5867   -7.1768  -12.0953 C   0  0  0  0  0  0  0  0  0  0  0  0
   12.9391   -9.4952  -11.4304 C   0  0  0  0  0  0  0  0  0  0  0  0
    7.9934   -8.1034  -12.2115 C   0  0  0  0  0  0  0  0  0  0  0  0
   13.3699  -11.2645  -12.9330 C   0  0  0  0  0  0  0  0  0  0  0  0
   12.1287  -11.6386  -10.9356 C   0  0  0  0  0  0  0  0  0  0  0  0
    7.6568   -8.7018  -10.8348 C   0  0  0  0  0  0  0  0  0  0  0  0
    7.6400  -10.2365  -10.9643 C   0  0  0  0  0  0  0  0  0  0  0  0
    6.2187  -11.9963  -10.1122 C   0  0  0  0  0  0  0  0  0  0  0  0
  1 23  1  0  0  0  0
  1 24  1  0  0  0  0
  1  2  1  0  0  0  0
  3  4  1  0  0  0  0
  3 17  1  0  0  0  0
  4  6  2  0  0  0  0
  4 13  1  0  0  0  0
  5 10  1  0  0  0  0
  5 14  2  0  0  0  0
  6  8  1  0  0  0  0
  7 12  1  0  0  0  0
  7 14  1  0  0  0  0
  7 19  1  0  0  0  0
  8 10  2  0  0  0  0
  9 14  1  0  0  0  0
 10 12  1  0  0  0  0
 11 18  1  0  0  0  0
 11 20  1  0  0  0  0
 11 21  1  0  0  0  0
 12 13  2  0  0  0  0
 13 15  1  0  0  0  0
 15 16  1  0  0  0  0
 16 17  1  0  0  0  0
 16 18  1  1  0  0  0
 19 22  1  0  0  0  0
 22 23  1  0  0  0  0
M  END
>  <CHROM.1>
-101.06220871,107.13356679,82.10047484,70.18951319,-171.07300276,-169.71960697
9.96565672,-7.95714172,-11.79215785,1.99344495,-0.20517783,2.86357257

>  <Name>
ligand

>  <RI>
0

>  <Rbt.Current_Directory>
/home/itssahil/PROJECTS/Mol_Feturizer/New_Systems/rnas/3TZR

>  <Rbt.Executable>
rbdock ($Id: //depot/dev/client3/rdock/2013.1/src/exe/rbdock.cxx#4 $)

>  <Rbt.Library>
libRbt.so (2013.1, Build901 2013/11/27)

>  <Rbt.Parameter_File>
/export/apps/rDock/src/rDock_2013.1_src/data/scripts/dock_solv.prm

>  <Rbt.Receptor>
prm/pocket_docking_2.prm

>  <SCORE>
-36.9391

>  <SCORE.INTER>
-25.7886

>  <SCORE.INTER.CONST>
1

>  <SCORE.INTER.POLAR>
0

>  <SCORE.INTER.ROT>
6

>  <SCORE.INTER.SOLV>
20.995

>  <SCORE.INTER.VDW>
-31.7907

>  <SCORE.INTER.norm>
-1.07452

>  <SCORE.INTRA>
-11.1505

>  <SCORE.INTRA.DIHEDRAL>
-0.00872648

>  <SCORE.INTRA.DIHEDRAL.0>
4.94008

>  <SCORE.INTRA.POLAR>
0

>  <SCORE.INTRA.POLAR.0>
0

>  <SCORE.INTRA.REPUL>
0

>  <SCORE.INTRA.REPUL.0>
0

>  <SCORE.INTRA.SOLV>
0.182275

>  <SCORE.INTRA.SOLV.lig_0>
-31.4704

>  <SCORE.INTRA.VDW>
-11.2373

>  <SCORE.INTRA.VDW.0>
10.2807

>  <SCORE.INTRA.norm>
-0.464604

>  <SCORE.RESTR>
0

>  <SCORE.RESTR.CAVITY>
0

>  <SCORE.RESTR.norm>
0

>  <SCORE.SYSTEM>
0

>  <SCORE.SYSTEM.CONST>
0

>  <SCORE.SYSTEM.DIHEDRAL>
0

>  <SCORE.SYSTEM.SOLV>
0

>  <SCORE.SYSTEM.norm>
0

>  <SCORE.heavy>
24

>  <SCORE.norm>
-1.53913

>  <RMSD>
0.816

$$$$
ligand
 OpenBabel11021811493D
libRbt.so/2013.1/901 2013/11/27
 24 26  0  0  0  0  0  0  0  0999 V2000
    7.3439  -11.0527  -10.8846 N   0  0  0  0  0  0  0  0  0  0  0  0
    6.4888  -12.1058  -11.4081 C   0  0  0  0  0  0  0  0  0  0  0  0
   13.3246   -6.3415  -12.8971 O   0  0  0  0  0  0  0  0  0  0  0  0
   12.0454   -5.8359  -12.7075 C   0  0  0  0  0  0  0  0  0  0  0  0
    8.0384   -4.4572  -12.1579 N   0  0  0  0  0  0  0  0  0  0  0  0
   11.7696   -4.3573  -12.7741 C   0  0  0  0  0  0  0  0  0  0  0  0
    8.3586   -6.6765  -12.0252 N   0  0  0  0  0  0  0  0  0  0  0  0
   10.4549   -3.8127  -12.6098 C   0  0  0  0  0  0  0  0  0  0  0  0
    6.0181   -5.8438  -11.7009 N   0  0  0  0  0  0  0  0  0  0  0  0
    9.3938   -4.7533  -12.3591 C   0  0  0  0  0  0  0  0  0  0  0  0
   12.3191  -10.9012  -11.8266 N   0  0  0  0  0  0  0  0  0  0  0  0
    9.6460   -6.1671  -12.2777 C   0  0  0  0  0  0  0  0  0  0  0  0
   11.0269   -6.6898  -12.4665 C   0  0  0  0  0  0  0  0  0  0  0  0
    7.4162   -5.6556  -11.9607 C   0  0  0  0  0  0  0  0  0  0  0  0
   11.2714   -8.1851  -12.3867 C   0  0  0  0  0  0  0  0  0  0  0  0
   12.7384   -8.6005  -12.3579 C   0  0  1  0  0  0  0  0  0  0  0  0
   13.6642   -7.4404  -12.1270 C   0  0  0  0  0  0  0  0  0  0  0  0
   12.9501   -9.6939  -11.3217 C   0  0  0  0  0  0  0  0  0  0  0  0
    8.0369   -8.1134  -11.9302 C   0  0  0  0  0  0  0  0  0  0  0  0
   13.2548  -11.5727  -12.7185 C   0  0  0  0  0  0  0  0  0  0  0  0
   12.0304  -11.7539  -10.6842 C   0  0  0  0  0  0  0  0  0  0  0  0
    7.5254   -8.5865  -10.5586 C   0  0  0  0  0  0  0  0  0  0  0  0
    6.5938   -9.7931  -10.7785 C   0  0  0  0  0  0  0  0  0  0  0  0
    7.8454  -11.4811   -9.5837 C   0  0  0  0  0  0  0  0  0  0  0  0
  1 23  1  0  0  0  0
  1 24  1  0  0  0  0
  1  2  1  0  0  0  0
  3  4  1  0  0  0  0
  3 17  1  0  0  0  0
  4  6  2  0  0  0  0
  4 13  1  0  0  0  0
  5 10  1  0  0  0  0
  5 14  2  0  0  0  0
  6  8  1  0  0  0  0
  7 12  1  0  0  0  0
  7 14  1  0  0  0  0
  7 19  1  0  0  0  0
  8 10  2  0  0  0  0
  9 14  1  0  0  0  0
 10 12  1  0  0  0  0
 11 18  1  0  0  0  0
 11 20  1  0  0  0  0
 11 21  1  0  0  0  0
 12 13  2  0  0  0  0
 13 15  1  0  0  0  0
 15 16  1  0  0  0  0
 16 17  1  0  0  0  0
 16 18  1  1  0  0  0
 19 22  1  0  0  0  0
 22 23  1  0  0  0  0
M  END
>  <CHROM.1>
-166.21107752,116.54657865,84.20018068,70.38849405,151.09680689,84.27124942
9.98106984,-8.05823667,-11.82403601,1.98071196,-0.16911961,2.93598099

>  <Name>
ligand

>  <RI>
0

>  <Rbt.Current_Directory>
/home/itssahil/PROJECTS/Mol_Feturizer/New_Systems/rnas/3TZR

>  <Rbt.Executable>
rbdock ($Id: //depot/dev/client3/rdock/2013.1/src/exe/rbdock.cxx#4 $)

>  <Rbt.Library>
libRbt.so (2013.1, Build901 2013/11/27)

>  <Rbt.Parameter_File>
/export/apps/rDock/src/rDock_2013.1_src/data/scripts/dock_solv.prm

>  <Rbt.Receptor>
prm/pocket_docking_2.prm

>  <SCORE>
-33.3182

>  <SCORE.INTER>
-24.5653

>  <SCORE.INTER.CONST>
1

>  <SCORE.INTER.POLAR>
0

>  <SCORE.INTER.ROT>
6

>  <SCORE.INTER.SOLV>
19.7238

>  <SCORE.INTER.VDW>
-30.5515

>  <SCORE.INTER.norm>
-1.02356

>  <SCORE.INTRA>
-8.75287

>  <SCORE.INTRA.DIHEDRAL>
2.3759

>  <SCORE.INTRA.DIHEDRAL.0>
4.94008

>  <SCORE.INTRA.POLAR>
0

>  <SCORE.INTRA.POLAR.0>
0

>  <SCORE.INTRA.REPUL>
0

>  <SCORE.INTRA.REPUL.0>
0

>  <SCORE.INTRA.SOLV>
1.10912

>  <SCORE.INTRA.SOLV.lig_0>
-31.4704

>  <SCORE.INTRA.VDW>
-10.4954

>  <SCORE.INTRA.VDW.0>
10.2807

>  <SCORE.INTRA.norm>
-0.364703

>  <SCORE.RESTR>
0

>  <SCORE.RESTR.CAVITY>
0

>  <SCORE.RESTR.norm>
0

>  <SCORE.SYSTEM>
0

>  <SCORE.SYSTEM.CONST>
0

>  <SCORE.SYSTEM.DIHEDRAL>
0

>  <SCORE.SYSTEM.SOLV>
0

>  <SCORE.SYSTEM.norm>
0

>  <SCORE.heavy>
24

>  <SCORE.norm>
-1.38826

>  <RMSD>
0.817

$$$$
ligand
 OpenBabel11021811493D
libRbt.so/2013.1/901 2013/11/27
 24 26  0  0  0  0  0  0  0  0999 V2000
    6.9645  -10.9114   -9.8157 N   0  0  0  0  0  0  0  0  0  0  0  0
    8.1102  -11.4894   -9.1320 C   0  0  0  0  0  0  0  0  0  0  0  0
   13.2124   -5.9697  -12.7976 O   0  0  0  0  0  0  0  0  0  0  0  0
   11.9039   -5.5470  -12.6054 C   0  0  0  0  0  0  0  0  0  0  0  0
    7.8170   -4.4225  -12.0655 N   0  0  0  0  0  0  0  0  0  0  0  0
   11.5535   -4.0837  -12.5508 C   0  0  0  0  0  0  0  0  0  0  0  0
    8.2486   -6.6263  -12.1179 N   0  0  0  0  0  0  0  0  0  0  0  0
   10.2082   -3.6216  -12.3815 C   0  0  0  0  0  0  0  0  0  0  0  0
    5.8598   -5.9426  -11.7968 N   0  0  0  0  0  0  0  0  0  0  0  0
    9.1910   -4.6322  -12.2484 C   0  0  0  0  0  0  0  0  0  0  0  0
   12.4225  -10.6521  -12.1672 N   0  0  0  0  0  0  0  0  0  0  0  0
    9.5141   -6.0334  -12.2834 C   0  0  0  0  0  0  0  0  0  0  0  0
   10.9250   -6.4682  -12.4730 C   0  0  0  0  0  0  0  0  0  0  0  0
    7.2529   -5.6631  -11.9943 C   0  0  0  0  0  0  0  0  0  0  0  0
   11.2448   -7.9508  -12.5170 C   0  0  0  0  0  0  0  0  0  0  0  0
   12.7301   -8.2940  -12.4778 C   0  0  1  0  0  0  0  0  0  0  0  0
   13.5874   -7.1149  -12.1166 C   0  0  0  0  0  0  0  0  0  0  0  0
   12.9698   -9.4638  -11.5353 C   0  0  0  0  0  0  0  0  0  0  0  0
    7.9996   -8.0801  -12.1597 C   0  0  0  0  0  0  0  0  0  0  0  0
   13.4362  -11.2144  -13.0492 C   0  0  0  0  0  0  0  0  0  0  0  0
   12.1070  -11.6021  -11.1120 C   0  0  0  0  0  0  0  0  0  0  0  0
    7.6593   -8.7311  -10.8080 C   0  0  0  0  0  0  0  0  0  0  0  0
    7.3953  -10.2300  -11.0447 C   0  0  0  0  0  0  0  0  0  0  0  0
    6.0225  -11.9858  -10.1087 C   0  0  0  0  0  0  0  0  0  0  0  0
  1 23  1  0  0  0  0
  1 24  1  0  0  0  0
  1  2  1  0  0  0  0
  3  4  1  0  0  0  0
  3 17  1  0  0  0  0
  4  6  2  0  0  0  0
  4 13  1  0  0  0  0
  5 10  1  0  0  0  0
  5 14  2  0  0  0  0
  6  8  1  0  0  0  0
  7 12  1  0  0  0  0
  7 14  1  0  0  0  0
  7 19  1  0  0  0  0
  8 10  2  0  0  0  0
  9 14  1  0  0  0  0
 10 12  1  0  0  0  0
 11 18  1  0  0  0  0
 11 20  1  0  0  0  0
 11 21  1  0  0  0  0
 12 13  2  0  0  0  0
 13 15  1  0  0  0  0
 15 16  1  0  0  0  0
 16 17  1  0  0  0  0
 16 18  1  1  0  0  0
 19 22  1  0  0  0  0
 22 23  1  0  0  0  0
M  END
>  <CHROM.1>
-93.31380406,108.65016049,85.95908380,70.66315144,178.49014029,-175.78606970
9.93580174,-7.92802808,-11.77485223,2.15774018,-0.21907229,2.90708158

>  <Name>
ligand

>  <RI>
144

>  <Rbt.Current_Directory>
/home/itssahil/PROJECTS/Mol_Feturizer/New_Systems/rnas/3TZR

>  <Rbt.Executable>
rbdock ($Id: //depot/dev/client3/rdock/2013.1/src/exe/rbdock.cxx#4 $)

>  <Rbt.Library>
libRbt.so (2013.1, Build901 2013/11/27)

>  <Rbt.Parameter_File>
/export/apps/rDock/src/rDock_2013.1_src/data/scripts/dock_solv.prm

>  <Rbt.Receptor>
prm/pocket_docking_8.prm

>  <SCORE>
-37.238

>  <SCORE.INTER>
-25.7663

>  <SCORE.INTER.CONST>
1

>  <SCORE.INTER.POLAR>
0

>  <SCORE.INTER.ROT>
6

>  <SCORE.INTER.SOLV>
20.7347

>  <SCORE.INTER.VDW>
-31.6891

>  <SCORE.INTER.norm>
-1.07359

>  <SCORE.INTRA>
-11.4718

>  <SCORE.INTRA.DIHEDRAL>
-0.817713

>  <SCORE.INTRA.DIHEDRAL.0>
4.94008

>  <SCORE.INTRA.POLAR>
0

>  <SCORE.INTRA.POLAR.0>
0

>  <SCORE.INTRA.REPUL>
0

>  <SCORE.INTRA.REPUL.0>
0

>  <SCORE.INTRA.SOLV>
0.293856

>  <SCORE.INTRA.SOLV.lig_0>
-31.4704

>  <SCORE.INTRA.VDW>
-11.2098

>  <SCORE.INTRA.VDW.0>
10.2807

>  <SCORE.INTRA.norm>
-0.477991

>  <SCORE.RESTR>
0

>  <SCORE.RESTR.CAVITY>
0

>  <SCORE.RESTR.norm>
0

>  <SCORE.SYSTEM>
0

>  <SCORE.SYSTEM.CONST>
0

>  <SCORE.SYSTEM.DIHEDRAL>
0

>  <SCORE.SYSTEM.SOLV>
0

>  <SCORE.SYSTEM.norm>
0

>  <SCORE.heavy>
24

>  <SCORE.norm>
-1.55159

>  <RMSD>
0.817

$$$$
ligand
 OpenBabel11021811493D
libRbt.so/2013.1/901 2013/11/27
 24 26  0  0  0  0  0  0  0  0999 V2000
    6.9013  -10.9801  -10.0047 N   0  0  0  0  0  0  0  0  0  0  0  0
    8.0597  -11.5204   -9.3115 C   0  0  0  0  0  0  0  0  0  0  0  0
   13.1819   -5.9498  -12.7480 O   0  0  0  0  0  0  0  0  0  0  0  0
   11.8694   -5.5340  -12.5685 C   0  0  0  0  0  0  0  0  0  0  0  0
    7.7713   -4.4298  -12.0735 N   0  0  0  0  0  0  0  0  0  0  0  0
   11.5152   -4.0731  -12.4829 C   0  0  0  0  0  0  0  0  0  0  0  0
    8.2080   -6.6309  -12.1744 N   0  0  0  0  0  0  0  0  0  0  0  0
   10.1662   -3.6175  -12.3260 C   0  0  0  0  0  0  0  0  0  0  0  0
    5.8126   -5.9592  -11.8789 N   0  0  0  0  0  0  0  0  0  0  0  0
    9.1488   -4.6327  -12.2370 C   0  0  0  0  0  0  0  0  0  0  0  0
   12.8761  -10.6720  -12.4022 N   0  0  0  0  0  0  0  0  0  0  0  0
    9.4751   -6.0321  -12.3020 C   0  0  0  0  0  0  0  0  0  0  0  0
   10.8900   -6.4598  -12.4773 C   0  0  0  0  0  0  0  0  0  0  0  0
    7.2084   -5.6726  -12.0441 C   0  0  0  0  0  0  0  0  0  0  0  0
   11.2135   -7.9403  -12.5533 C   0  0  0  0  0  0  0  0  0  0  0  0
   12.6985   -8.2822  -12.4962 C   0  0  1  0  0  0  0  0  0  0  0  0
   13.5469   -7.1114  -12.0897 C   0  0  0  0  0  0  0  0  0  0  0  0
   12.9236   -9.4753  -11.5798 C   0  0  0  0  0  0  0  0  0  0  0  0
    7.9626   -8.0835  -12.2577 C   0  0  0  0  0  0  0  0  0  0  0  0
   14.1823  -10.8607  -13.0186 C   0  0  0  0  0  0  0  0  0  0  0  0
   12.5796  -11.7936  -11.5249 C   0  0  0  0  0  0  0  0  0  0  0  0
    7.5516   -8.7607  -10.9389 C   0  0  0  0  0  0  0  0  0  0  0  0
    7.3223  -10.2587  -11.2142 C   0  0  0  0  0  0  0  0  0  0  0  0
    6.0118  -12.0886  -10.3324 C   0  0  0  0  0  0  0  0  0  0  0  0
  1 23  1  0  0  0  0
  1 24  1  0  0  0  0
  1  2  1  0  0  0  0
  3  4  1  0  0  0  0
  3 17  1  0  0  0  0
  4  6  2  0  0  0  0
  4 13  1  0  0  0  0
  5 10  1  0  0  0  0
  5 14  2  0  0  0  0
  6  8  1  0  0  0  0
  7 12  1  0  0  0  0
  7 14  1  0  0  0  0
  7 19  1  0  0  0  0
  8 10  2  0  0  0  0
  9 14  1  0  0  0  0
 10 12  1  0  0  0  0
 11 18  1  0  0  0  0
 11 20  1  0  0  0  0
 11 21  1  0  0  0  0
 12 13  2  0  0  0  0
 13 15  1  0  0  0  0
 15 16  1  0  0  0  0
 16 17  1  0  0  0  0
 16 18  1  1  0  0  0
 19 22  1  0  0  0  0
 22 23  1  0  0  0  0
M  END
>  <CHROM.1>
-91.86619019,110.69204477,82.64837101,91.84636825,179.33097551,-179.00124077
9.97270075,-7.93181732,-11.84937813,-2.46795503,0.20235241,-0.21065429

>  <Name>
ligand

>  <RI>
0

>  <Rbt.Current_Directory>
/home/itssahil/PROJECTS/Mol_Feturizer/New_Systems/rnas/3TZR

>  <Rbt.Executable>
rbdock ($Id: //depot/dev/client3/rdock/2013.1/src/exe/rbdock.cxx#4 $)

>  <Rbt.Library>
libRbt.so (2013.1, Build901 2013/11/27)

>  <Rbt.Parameter_File>
/export/apps/rDock/src/rDock_2013.1_src/data/scripts/dock_solv.prm

>  <Rbt.Receptor>
prm/pocket_docking_5.prm

>  <SCORE>
-36.3723

>  <SCORE.INTER>
-26.1399

>  <SCORE.INTER.CONST>
1

>  <SCORE.INTER.POLAR>
0

>  <SCORE.INTER.ROT>
6

>  <SCORE.INTER.SOLV>
20.8545

>  <SCORE.INTER.VDW>
-31.9781

>  <SCORE.INTER.norm>
-1.08916

>  <SCORE.INTRA>
-10.2324

>  <SCORE.INTRA.DIHEDRAL>
1.21731

>  <SCORE.INTRA.DIHEDRAL.0>
4.94008

>  <SCORE.INTRA.POLAR>
0

>  <SCORE.INTRA.POLAR.0>
0

>  <SCORE.INTRA.REPUL>
0

>  <SCORE.INTRA.REPUL.0>
0

>  <SCORE.INTRA.SOLV>
0.32527

>  <SCORE.INTRA.SOLV.lig_0>
-31.4704

>  <SCORE.INTRA.VDW>
-11.0037

>  <SCORE.INTRA.VDW.0>
10.2807

>  <SCORE.INTRA.norm>
-0.426349

>  <SCORE.RESTR>
0

>  <SCORE.RESTR.CAVITY>
0

>  <SCORE.RESTR.norm>
0

>  <SCORE.SYSTEM>
0

>  <SCORE.SYSTEM.CONST>
0

>  <SCORE.SYSTEM.DIHEDRAL>
0

>  <SCORE.SYSTEM.SOLV>
0

>  <SCORE.SYSTEM.norm>
0

>  <SCORE.heavy>
24

>  <SCORE.norm>
-1.51551

>  <RMSD>
0.819

$$$$
ligand
 OpenBabel11021811493D
libRbt.so/2013.1/901 2013/11/27
 24 26  0  0  0  0  0  0  0  0999 V2000
    7.5715  -11.0185   -9.4843 N   0  0  0  0  0  0  0  0  0  0  0  0
    8.5544  -11.8571   -8.8172 C   0  0  0  0  0  0  0  0  0  0  0  0
   13.4669   -6.4992  -13.0298 O   0  0  0  0  0  0  0  0  0  0  0  0
   12.2341   -5.9661  -12.6780 C   0  0  0  0  0  0  0  0  0  0  0  0
    8.3578   -4.4929  -11.6469 N   0  0  0  0  0  0  0  0  0  0  0  0
   12.0367   -4.4810  -12.5283 C   0  0  0  0  0  0  0  0  0  0  0  0
    8.5629   -6.7220  -11.8321 N   0  0  0  0  0  0  0  0  0  0  0  0
   10.7689   -3.9042  -12.1938 C   0  0  0  0  0  0  0  0  0  0  0  0
    6.3005   -5.8349  -11.2229 N   0  0  0  0  0  0  0  0  0  0  0  0
    9.6774   -4.8206  -11.9884 C   0  0  0  0  0  0  0  0  0  0  0  0
   13.2184  -11.1417  -12.7775 N   0  0  0  0  0  0  0  0  0  0  0  0
    9.8558   -6.2425  -12.1132 C   0  0  0  0  0  0  0  0  0  0  0  0
   11.1890   -6.7973  -12.4741 C   0  0  0  0  0  0  0  0  0  0  0  0
    7.6854   -5.6773  -11.5620 C   0  0  0  0  0  0  0  0  0  0  0  0
   11.3553   -8.2993  -12.6105 C   0  0  0  0  0  0  0  0  0  0  0  0
   12.7954   -8.7813  -12.7489 C   0  0  1  0  0  0  0  0  0  0  0  0
   13.7979   -7.7065  -12.4391 C   0  0  0  0  0  0  0  0  0  0  0  0
   13.0178  -10.0132  -11.8847 C   0  0  0  0  0  0  0  0  0  0  0  0
    8.1694   -8.1424  -11.9024 C   0  0  0  0  0  0  0  0  0  0  0  0
   14.5340  -11.7095  -12.5156 C   0  0  0  0  0  0  0  0  0  0  0  0
   12.1896  -12.1249  -12.4768 C   0  0  0  0  0  0  0  0  0  0  0  0
    7.7480   -8.7781  -10.5663 C   0  0  0  0  0  0  0  0  0  0  0  0
    8.2073  -10.2482  -10.5627 C   0  0  0  0  0  0  0  0  0  0  0  0
    6.5161  -11.8818  -10.0020 C   0  0  0  0  0  0  0  0  0  0  0  0
  1 23  1  0  0  0  0
  1 24  1  0  0  0  0
  1  2  1  0  0  0  0
  3  4  1  0  0  0  0
  3 17  1  0  0  0  0
  4  6  2  0  0  0  0
  4 13  1  0  0  0  0
  5 10  1  0  0  0  0
  5 14  2  0  0  0  0
  6  8  1  0  0  0  0
  7 12  1  0  0  0  0
  7 14  1  0  0  0  0
  7 19  1  0  0  0  0
  8 10  2  0  0  0  0
  9 14  1  0  0  0  0
 10 12  1  0  0  0  0
 11 18  1  0  0  0  0
 11 20  1  0  0  0  0
 11 21  1  0  0  0  0
 12 13  2  0  0  0  0
 13 15  1  0  0  0  0
 15 16  1  0  0  0  0
 16 17  1  0  0  0  0
 16 18  1  1  0  0  0
 19 22  1  0  0  0  0
 22 23  1  0  0  0  0
M  END
>  <CHROM.1>
-135.79575301,115.73780555,120.17622476,111.52473646,-145.21467438,-166.07625809
10.33153443,-8.19691470,-11.72716583,1.02248145,-0.33899080,2.94265553

>  <Name>
ligand

>  <RI>
0

>  <Rbt.Current_Directory>
/home/itssahil/PROJECTS/Mol_Feturizer/New_Systems/rnas/3TZR

>  <Rbt.Executable>
rbdock ($Id: //depot/dev/client3/rdock/2013.1/src/exe/rbdock.cxx#4 $)

>  <Rbt.Library>
libRbt.so (2013.1, Build901 2013/11/27)

>  <Rbt.Parameter_File>
/export/apps/rDock/src/rDock_2013.1_src/data/scripts/dock_solv.prm

>  <Rbt.Receptor>
prm/blind_docking_40.prm

>  <SCORE>
-32.8346

>  <SCORE.INTER>
-25.8184

>  <SCORE.INTER.CONST>
1

>  <SCORE.INTER.POLAR>
0

>  <SCORE.INTER.ROT>
6

>  <SCORE.INTER.SOLV>
19.6745

>  <SCORE.INTER.VDW>
-31.3705

>  <SCORE.INTER.norm>
-1.07577

>  <SCORE.INTRA>
-7.01618

>  <SCORE.INTRA.DIHEDRAL>
9.79964

>  <SCORE.INTRA.DIHEDRAL.0>
4.94008

>  <SCORE.INTRA.POLAR>
0

>  <SCORE.INTRA.POLAR.0>
0

>  <SCORE.INTRA.REPUL>
0

>  <SCORE.INTRA.REPUL.0>
0

>  <SCORE.INTRA.SOLV>
0.323926

>  <SCORE.INTRA.SOLV.lig_0>
-31.4704

>  <SCORE.INTRA.VDW>
-12.078

>  <SCORE.INTRA.VDW.0>
10.2807

>  <SCORE.INTRA.norm>
-0.292341

>  <SCORE.RESTR>
0

>  <SCORE.RESTR.CAVITY>
0

>  <SCORE.RESTR.norm>
0

>  <SCORE.SYSTEM>
0

>  <SCORE.SYSTEM.CONST>
0

>  <SCORE.SYSTEM.DIHEDRAL>
0

>  <SCORE.SYSTEM.SOLV>
0

>  <SCORE.SYSTEM.norm>
0

>  <SCORE.heavy>
24

>  <SCORE.norm>
-1.36811

>  <RMSD>
0.820

$$$$
ligand
 OpenBabel11021811493D
libRbt.so/2013.1/901 2013/11/27
 24 26  0  0  0  0  0  0  0  0999 V2000
    7.8519  -11.0834  -10.1719 N   0  0  0  0  0  0  0  0  0  0  0  0
    7.0700  -12.2146  -10.6444 C   0  0  0  0  0  0  0  0  0  0  0  0
   13.7098   -7.0023  -12.8901 O   0  0  0  0  0  0  0  0  0  0  0  0
   12.5262   -6.3241  -12.6311 C   0  0  0  0  0  0  0  0  0  0  0  0
    8.7870   -4.4004  -11.8717 N   0  0  0  0  0  0  0  0  0  0  0  0
   12.4687   -4.8196  -12.6343 C   0  0  0  0  0  0  0  0  0  0  0  0
    8.7820   -6.6462  -11.8305 N   0  0  0  0  0  0  0  0  0  0  0  0
   11.2548   -4.0966  -12.3979 C   0  0  0  0  0  0  0  0  0  0  0  0
    6.6020   -5.4957  -11.3826 N   0  0  0  0  0  0  0  0  0  0  0  0
   10.0764   -4.8822  -12.1379 C   0  0  0  0  0  0  0  0  0  0  0  0
   12.0653  -11.3988  -11.9303 N   0  0  0  0  0  0  0  0  0  0  0  0
   10.1206   -6.3198  -12.1167 C   0  0  0  0  0  0  0  0  0  0  0  0
   11.4022   -7.0298  -12.3795 C   0  0  0  0  0  0  0  0  0  0  0  0
    8.0027   -5.5025  -11.6919 C   0  0  0  0  0  0  0  0  0  0  0  0
   11.4270   -8.5467  -12.3624 C   0  0  0  0  0  0  0  0  0  0  0  0
   12.8171   -9.1720  -12.4076 C   0  0  1  0  0  0  0  0  0  0  0  0
   13.9107   -8.1695  -12.1736 C   0  0  0  0  0  0  0  0  0  0  0  0
   12.9017  -10.3260  -11.4200 C   0  0  0  0  0  0  0  0  0  0  0  0
    8.2560   -8.0237  -11.7733 C   0  0  0  0  0  0  0  0  0  0  0  0
   12.8640  -12.2175  -12.8323 C   0  0  0  0  0  0  0  0  0  0  0  0
   11.6355  -12.1965  -10.7926 C   0  0  0  0  0  0  0  0  0  0  0  0
    8.0846   -8.6071  -10.3601 C   0  0  0  0  0  0  0  0  0  0  0  0
    7.1454   -9.8246  -10.4490 C   0  0  0  0  0  0  0  0  0  0  0  0
    8.0819  -11.2573   -8.7421 C   0  0  0  0  0  0  0  0  0  0  0  0
  1 23  1  0  0  0  0
  1 24  1  0  0  0  0
  1  2  1  0  0  0  0
  3  4  1  0  0  0  0
  3 17  1  0  0  0  0
  4  6  2  0  0  0  0
  4 13  1  0  0  0  0
  5 10  1  0  0  0  0
  5 14  2  0  0  0  0
  6  8  1  0  0  0  0
  7 12  1  0  0  0  0
  7 14  1  0  0  0  0
  7 19  1  0  0  0  0
  8 10  2  0  0  0  0
  9 14  1  0  0  0  0
 10 12  1  0  0  0  0
 11 18  1  0  0  0  0
 11 20  1  0  0  0  0
 11 21  1  0  0  0  0
 12 13  2  0  0  0  0
 13 15  1  0  0  0  0
 15 16  1  0  0  0  0
 16 17  1  0  0  0  0
 16 18  1  1  0  0  0
 19 22  1  0  0  0  0
 22 23  1  0  0  0  0
M  END
>  <CHROM.1>
-163.01015959,100.72556837,87.44885869,69.46672063,162.57303571,111.79803880
10.31294023,-8.29655689,-11.63499031,1.74778242,-0.29481135,2.94636140

>  <Name>
ligand

>  <RI>
0

>  <Rbt.Current_Directory>
/home/itssahil/PROJECTS/Mol_Feturizer/New_Systems/rnas/3TZR

>  <Rbt.Executable>
rbdock ($Id: //depot/dev/client3/rdock/2013.1/src/exe/rbdock.cxx#4 $)

>  <Rbt.Library>
libRbt.so (2013.1, Build901 2013/11/27)

>  <Rbt.Parameter_File>
/export/apps/rDock/src/rDock_2013.1_src/data/scripts/dock_solv.prm

>  <Rbt.Receptor>
prm/pocket_docking_6.prm

>  <SCORE>
-33.2381

>  <SCORE.INTER>
-24.7133

>  <SCORE.INTER.CONST>
1

>  <SCORE.INTER.POLAR>
0

>  <SCORE.INTER.ROT>
6

>  <SCORE.INTER.SOLV>
20.0008

>  <SCORE.INTER.VDW>
-30.7425

>  <SCORE.INTER.norm>
-1.02972

>  <SCORE.INTRA>
-8.5248

>  <SCORE.INTRA.DIHEDRAL>
4.53446

>  <SCORE.INTRA.DIHEDRAL.0>
4.94008

>  <SCORE.INTRA.POLAR>
0

>  <SCORE.INTRA.POLAR.0>
0

>  <SCORE.INTRA.REPUL>
0

>  <SCORE.INTRA.REPUL.0>
0

>  <SCORE.INTRA.SOLV>
0.506521

>  <SCORE.INTRA.SOLV.lig_0>
-31.4704

>  <SCORE.INTRA.VDW>
-11.0453

>  <SCORE.INTRA.VDW.0>
10.2807

>  <SCORE.INTRA.norm>
-0.3552

>  <SCORE.RESTR>
0

>  <SCORE.RESTR.CAVITY>
0

>  <SCORE.RESTR.norm>
0

>  <SCORE.SYSTEM>
0

>  <SCORE.SYSTEM.CONST>
0

>  <SCORE.SYSTEM.DIHEDRAL>
0

>  <SCORE.SYSTEM.SOLV>
0

>  <SCORE.SYSTEM.norm>
0

>  <SCORE.heavy>
24

>  <SCORE.norm>
-1.38492

>  <RMSD>
0.820

$$$$
ligand
 OpenBabel11021811493D
libRbt.so/2013.1/901 2013/11/27
 24 26  0  0  0  0  0  0  0  0999 V2000
    7.1848  -10.8994   -9.9254 N   0  0  0  0  0  0  0  0  0  0  0  0
    8.3956  -11.6277   -9.5822 C   0  0  0  0  0  0  0  0  0  0  0  0
   13.7339   -7.3261  -12.9636 O   0  0  0  0  0  0  0  0  0  0  0  0
   12.6237   -6.5656  -12.6220 C   0  0  0  0  0  0  0  0  0  0  0  0
    9.0940   -4.3701  -11.6320 N   0  0  0  0  0  0  0  0  0  0  0  0
   12.7278   -5.0786  -12.4100 C   0  0  0  0  0  0  0  0  0  0  0  0
    8.8472   -6.5849  -11.9132 N   0  0  0  0  0  0  0  0  0  0  0  0
   11.5928   -4.2676  -12.0845 C   0  0  0  0  0  0  0  0  0  0  0  0
    6.7924   -5.2771  -11.3268 N   0  0  0  0  0  0  0  0  0  0  0  0
   10.3307   -4.9479  -11.9516 C   0  0  0  0  0  0  0  0  0  0  0  0
   13.1425  -11.7675  -12.7916 N   0  0  0  0  0  0  0  0  0  0  0  0
   10.2200   -6.3701  -12.1363 C   0  0  0  0  0  0  0  0  0  0  0  0
   11.4245   -7.1721  -12.4853 C   0  0  0  0  0  0  0  0  0  0  0  0
    8.1917   -5.3938  -11.6199 C   0  0  0  0  0  0  0  0  0  0  0  0
   11.2860   -8.6697  -12.6856 C   0  0  0  0  0  0  0  0  0  0  0  0
   12.6018   -9.4311  -12.8062 C   0  0  1  0  0  0  0  0  0  0  0  0
   13.7903   -8.5978  -12.4200 C   0  0  0  0  0  0  0  0  0  0  0  0
   12.5370  -10.7154  -11.9934 C   0  0  0  0  0  0  0  0  0  0  0  0
    8.1754   -7.8905  -12.0593 C   0  0  0  0  0  0  0  0  0  0  0  0
   14.5179  -11.9498  -12.3480 C   0  0  0  0  0  0  0  0  0  0  0  0
   12.3841  -12.9860  -12.5559 C   0  0  0  0  0  0  0  0  0  0  0  0
    8.0446   -8.7144  -10.7667 C   0  0  0  0  0  0  0  0  0  0  0  0
    7.4091  -10.0723  -11.1195 C   0  0  0  0  0  0  0  0  0  0  0  0
    6.1194  -11.8707  -10.1469 C   0  0  0  0  0  0  0  0  0  0  0  0
  1 23  1  0  0  0  0
  1 24  1  0  0  0  0
  1  2  1  0  0  0  0
  3  4  1  0  0  0  0
  3 17  1  0  0  0  0
  4  6  2  0  0  0  0
  4 13  1  0  0  0  0
  5 10  1  0  0  0  0
  5 14  2  0  0  0  0
  6  8  1  0  0  0  0
  7 12  1  0  0  0  0
  7 14  1  0  0  0  0
  7 19  1  0  0  0  0
  8 10  2  0  0  0  0
  9 14  1  0  0  0  0
 10 12  1  0  0  0  0
 11 18  1  0  0  0  0
 11 20  1  0  0  0  0
 11 21  1  0  0  0  0
 12 13  2  0  0  0  0
 13 15  1  0  0  0  0
 15 16  1  0  0  0  0
 16 17  1  0  0  0  0
 16 18  1  1  0  0  0
 19 22  1  0  0  0  0
 22 23  1  0  0  0  0
M  END
>  <CHROM.1>
-84.37413657,94.29704004,98.45341205,137.60239153,-176.34289141,-177.11179441
10.45376315,-8.42240611,-11.82850605,2.22416611,0.30515721,-0.11127006

>  <Name>
ligand

>  <RI>
0

>  <Rbt.Current_Directory>
/home/itssahil/PROJECTS/Mol_Feturizer/New_Systems/rnas/3TZR

>  <Rbt.Executable>
rbdock ($Id: //depot/dev/client3/rdock/2013.1/src/exe/rbdock.cxx#4 $)

>  <Rbt.Library>
libRbt.so (2013.1, Build901 2013/11/27)

>  <Rbt.Parameter_File>
/export/apps/rDock/src/rDock_2013.1_src/data/scripts/dock_solv.prm

>  <Rbt.Receptor>
prm/pocket_docking_5.prm

>  <SCORE>
-34.7343

>  <SCORE.INTER>
-24.978

>  <SCORE.INTER.CONST>
1

>  <SCORE.INTER.POLAR>
0

>  <SCORE.INTER.ROT>
6

>  <SCORE.INTER.SOLV>
20.9505

>  <SCORE.INTER.VDW>
-31.2355

>  <SCORE.INTER.norm>
-1.04075

>  <SCORE.INTRA>
-9.75625

>  <SCORE.INTRA.DIHEDRAL>
3.21378

>  <SCORE.INTRA.DIHEDRAL.0>
4.94008

>  <SCORE.INTRA.POLAR>
0

>  <SCORE.INTRA.POLAR.0>
0

>  <SCORE.INTRA.REPUL>
0

>  <SCORE.INTRA.REPUL.0>
0

>  <SCORE.INTRA.SOLV>
-0.0697844

>  <SCORE.INTRA.SOLV.lig_0>
-31.4704

>  <SCORE.INTRA.VDW>
-11.3282

>  <SCORE.INTRA.VDW.0>
10.2807

>  <SCORE.INTRA.norm>
-0.40651

>  <SCORE.RESTR>
0

>  <SCORE.RESTR.CAVITY>
0

>  <SCORE.RESTR.norm>
0

>  <SCORE.SYSTEM>
0

>  <SCORE.SYSTEM.CONST>
0

>  <SCORE.SYSTEM.DIHEDRAL>
0

>  <SCORE.SYSTEM.SOLV>
0

>  <SCORE.SYSTEM.norm>
0

>  <SCORE.heavy>
24

>  <SCORE.norm>
-1.44726

>  <RMSD>
0.821

$$$$
ligand
 OpenBabel11021811493D
libRbt.so/2013.1/901 2013/11/27
 24 26  0  0  0  0  0  0  0  0999 V2000
    8.2197  -11.3995   -9.8305 N   0  0  0  0  0  0  0  0  0  0  0  0
    7.5665  -12.6564  -10.1589 C   0  0  0  0  0  0  0  0  0  0  0  0
   13.3990   -6.8939  -13.1089 O   0  0  0  0  0  0  0  0  0  0  0  0
   12.2111   -6.2778  -12.7387 C   0  0  0  0  0  0  0  0  0  0  0  0
    8.4614   -4.5447  -11.6458 N   0  0  0  0  0  0  0  0  0  0  0  0
   12.1117   -4.7810  -12.6108 C   0  0  0  0  0  0  0  0  0  0  0  0
    8.5208   -6.7851  -11.7961 N   0  0  0  0  0  0  0  0  0  0  0  0
   10.8911   -4.1194  -12.2577 C   0  0  0  0  0  0  0  0  0  0  0  0
    6.3341   -5.7462  -11.1514 N   0  0  0  0  0  0  0  0  0  0  0  0
    9.7491   -4.9611  -12.0114 C   0  0  0  0  0  0  0  0  0  0  0  0
   13.2394  -11.4325  -12.7360 N   0  0  0  0  0  0  0  0  0  0  0  0
    9.8343   -6.3933  -12.1150 C   0  0  0  0  0  0  0  0  0  0  0  0
   11.1208   -7.0376  -12.4964 C   0  0  0  0  0  0  0  0  0  0  0  0
    7.7177   -5.6824  -11.5246 C   0  0  0  0  0  0  0  0  0  0  0  0
   11.1886   -8.5491  -12.6099 C   0  0  0  0  0  0  0  0  0  0  0  0
   12.5917   -9.1238  -12.7725 C   0  0  1  0  0  0  0  0  0  0  0  0
   13.6671   -8.1101  -12.5047 C   0  0  0  0  0  0  0  0  0  0  0  0
   12.7564  -10.3532  -11.8920 C   0  0  0  0  0  0  0  0  0  0  0  0
    8.0368   -8.1785  -11.8323 C   0  0  0  0  0  0  0  0  0  0  0  0
   14.6949  -11.4479  -12.6780 C   0  0  0  0  0  0  0  0  0  0  0  0
   12.7126  -12.6770  -12.1982 C   0  0  0  0  0  0  0  0  0  0  0  0
    8.5530   -9.0867  -10.7030 C   0  0  0  0  0  0  0  0  0  0  0  0
    7.6057  -10.2950  -10.5813 C   0  0  0  0  0  0  0  0  0  0  0  0
    8.1029  -11.1906   -8.3918 C   0  0  0  0  0  0  0  0  0  0  0  0
  1 23  1  0  0  0  0
  1 24  1  0  0  0  0
  1  2  1  0  0  0  0
  3  4  1  0  0  0  0
  3 17  1  0  0  0  0
  4  6  2  0  0  0  0
  4 13  1  0  0  0  0
  5 10  1  0  0  0  0
  5 14  2  0  0  0  0
  6  8  1  0  0  0  0
  7 12  1  0  0  0  0
  7 14  1  0  0  0  0
  7 19  1  0  0  0  0
  8 10  2  0  0  0  0
  9 14  1  0  0  0  0
 10 12  1  0  0  0  0
 11 18  1  0  0  0  0
 11 20  1  0  0  0  0
 11 21  1  0  0  0  0
 12 13  2  0  0  0  0
 13 15  1  0  0  0  0
 15 16  1  0  0  0  0
 16 17  1  0  0  0  0
 16 18  1  1  0  0  0
 19 22  1  0  0  0  0
 22 23  1  0  0  0  0
M  END
>  <CHROM.1>
-158.06854587,72.49218729,92.82778107,127.46104596,160.00113956,162.80441309
10.39773621,-8.38732478,-11.73739093,1.03128056,-0.36484733,2.93174201

>  <Name>
ligand

>  <RI>
0

>  <Rbt.Current_Directory>
/home/itssahil/PROJECTS/Mol_Feturizer/New_Systems/rnas/3TZR

>  <Rbt.Executable>
rbdock ($Id: //depot/dev/client3/rdock/2013.1/src/exe/rbdock.cxx#4 $)

>  <Rbt.Library>
libRbt.so (2013.1, Build901 2013/11/27)

>  <Rbt.Parameter_File>
/export/apps/rDock/src/rDock_2013.1_src/data/scripts/dock_solv.prm

>  <Rbt.Receptor>
prm/blind_docking_80.prm

>  <SCORE>
-33.0511

>  <SCORE.INTER>
-24.6874

>  <SCORE.INTER.CONST>
1

>  <SCORE.INTER.POLAR>
0

>  <SCORE.INTER.ROT>
6

>  <SCORE.INTER.SOLV>
20.196

>  <SCORE.INTER.VDW>
-30.7903

>  <SCORE.INTER.norm>
-1.02864

>  <SCORE.INTRA>
-8.36367

>  <SCORE.INTRA.DIHEDRAL>
5.81856

>  <SCORE.INTRA.DIHEDRAL.0>
4.94008

>  <SCORE.INTRA.POLAR>
0

>  <SCORE.INTRA.POLAR.0>
0

>  <SCORE.INTRA.REPUL>
0

>  <SCORE.INTRA.REPUL.0>
0

>  <SCORE.INTRA.SOLV>
-0.449252

>  <SCORE.INTRA.SOLV.lig_0>
-31.4704

>  <SCORE.INTRA.VDW>
-11.0483

>  <SCORE.INTRA.VDW.0>
10.2807

>  <SCORE.INTRA.norm>
-0.348486

>  <SCORE.RESTR>
0

>  <SCORE.RESTR.CAVITY>
0

>  <SCORE.RESTR.norm>
0

>  <SCORE.SYSTEM>
0

>  <SCORE.SYSTEM.CONST>
0

>  <SCORE.SYSTEM.DIHEDRAL>
0

>  <SCORE.SYSTEM.SOLV>
0

>  <SCORE.SYSTEM.norm>
0

>  <SCORE.heavy>
24

>  <SCORE.norm>
-1.37713

>  <RMSD>
0.824

$$$$
ligand
 OpenBabel11021811493D
libRbt.so/2013.1/901 2013/11/27
 24 26  0  0  0  0  0  0  0  0999 V2000
    6.8399  -10.9467   -9.9348 N   0  0  0  0  0  0  0  0  0  0  0  0
    8.0547  -11.5172   -9.3754 C   0  0  0  0  0  0  0  0  0  0  0  0
   13.2030   -5.9464  -12.7541 O   0  0  0  0  0  0  0  0  0  0  0  0
   11.8841   -5.5450  -12.5899 C   0  0  0  0  0  0  0  0  0  0  0  0
    7.7689   -4.4867  -12.1383 N   0  0  0  0  0  0  0  0  0  0  0  0
   11.5098   -4.0876  -12.5358 C   0  0  0  0  0  0  0  0  0  0  0  0
    8.2357   -6.6832  -12.1922 N   0  0  0  0  0  0  0  0  0  0  0  0
   10.1539   -3.6473  -12.3951 C   0  0  0  0  0  0  0  0  0  0  0  0
    5.8299   -6.0382  -11.9226 N   0  0  0  0  0  0  0  0  0  0  0  0
    9.1498   -4.6741  -12.2907 C   0  0  0  0  0  0  0  0  0  0  0  0
   12.4548  -10.6407  -12.1580 N   0  0  0  0  0  0  0  0  0  0  0  0
    9.4953   -6.0700  -12.3255 C   0  0  0  0  0  0  0  0  0  0  0  0
   10.9168   -6.4819  -12.4848 C   0  0  0  0  0  0  0  0  0  0  0  0
    7.2226   -5.7362  -12.0865 C   0  0  0  0  0  0  0  0  0  0  0  0
   11.2605   -7.9591  -12.5290 C   0  0  0  0  0  0  0  0  0  0  0  0
   12.7497   -8.2796  -12.4574 C   0  0  1  0  0  0  0  0  0  0  0  0
   13.5801   -7.0894  -12.0705 C   0  0  0  0  0  0  0  0  0  0  0  0
   12.9859   -9.4507  -11.5158 C   0  0  0  0  0  0  0  0  0  0  0  0
    8.0104   -8.1404  -12.2472 C   0  0  0  0  0  0  0  0  0  0  0  0
   13.4879  -11.2009  -13.0187 C   0  0  0  0  0  0  0  0  0  0  0  0
   12.1200  -11.5910  -11.1090 C   0  0  0  0  0  0  0  0  0  0  0  0
    7.6957   -8.8115  -10.8991 C   0  0  0  0  0  0  0  0  0  0  0  0
    7.1427  -10.2219  -11.1771 C   0  0  0  0  0  0  0  0  0  0  0  0
    5.8969  -12.0337  -10.1728 C   0  0  0  0  0  0  0  0  0  0  0  0
  1 23  1  0  0  0  0
  1 24  1  0  0  0  0
  1  2  1  0  0  0  0
  3  4  1  0  0  0  0
  3 17  1  0  0  0  0
  4  6  2  0  0  0  0
  4 13  1  0  0  0  0
  5 10  1  0  0  0  0
  5 14  2  0  0  0  0
  6  8  1  0  0  0  0
  7 12  1  0  0  0  0
  7 14  1  0  0  0  0
  7 19  1  0  0  0  0
  8 10  2  0  0  0  0
  9 14  1  0  0  0  0
 10 12  1  0  0  0  0
 11 18  1  0  0  0  0
 11 20  1  0  0  0  0
 11 21  1  0  0  0  0
 12 13  2  0  0  0  0
 13 15  1  0  0  0  0
 15 16  1  0  0  0  0
 16 17  1  0  0  0  0
 16 18  1  1  0  0  0
 19 22  1  0  0  0  0
 22 23  1  0  0  0  0
M  END
>  <CHROM.1>
-80.78839927,106.68820198,86.53405649,69.87341729,165.71884602,178.84317416
9.90725706,-7.95041936,-11.81818316,2.25267798,-0.19177361,2.91306787

>  <Name>
ligand

>  <RI>
0

>  <Rbt.Current_Directory>
/home/itssahil/PROJECTS/Mol_Feturizer/New_Systems/rnas/3TZR

>  <Rbt.Executable>
rbdock ($Id: //depot/dev/client3/rdock/2013.1/src/exe/rbdock.cxx#4 $)

>  <Rbt.Library>
libRbt.so (2013.1, Build901 2013/11/27)

>  <Rbt.Parameter_File>
/export/apps/rDock/src/rDock_2013.1_src/data/scripts/dock_solv.prm

>  <Rbt.Receptor>
prm/pocket_docking_3.prm

>  <SCORE>
-37.02

>  <SCORE.INTER>
-25.9829

>  <SCORE.INTER.CONST>
1

>  <SCORE.INTER.POLAR>
0

>  <SCORE.INTER.ROT>
6

>  <SCORE.INTER.SOLV>
20.5915

>  <SCORE.INTER.VDW>
-31.7857

>  <SCORE.INTER.norm>
-1.08262

>  <SCORE.INTRA>
-11.0371

>  <SCORE.INTRA.DIHEDRAL>
-0.923343

>  <SCORE.INTRA.DIHEDRAL.0>
4.94008

>  <SCORE.INTRA.POLAR>
0

>  <SCORE.INTRA.POLAR.0>
0

>  <SCORE.INTRA.REPUL>
0

>  <SCORE.INTRA.REPUL.0>
0

>  <SCORE.INTRA.SOLV>
0.427973

>  <SCORE.INTRA.SOLV.lig_0>
-31.4704

>  <SCORE.INTRA.VDW>
-10.7894

>  <SCORE.INTRA.VDW.0>
10.2807

>  <SCORE.INTRA.norm>
-0.45988

>  <SCORE.RESTR>
0

>  <SCORE.RESTR.CAVITY>
0

>  <SCORE.RESTR.norm>
0

>  <SCORE.SYSTEM>
0

>  <SCORE.SYSTEM.CONST>
0

>  <SCORE.SYSTEM.DIHEDRAL>
0

>  <SCORE.SYSTEM.SOLV>
0

>  <SCORE.SYSTEM.norm>
0

>  <SCORE.heavy>
24

>  <SCORE.norm>
-1.5425

>  <RMSD>
0.824

$$$$
ligand
 OpenBabel11021811493D
libRbt.so/2013.1/901 2013/11/27
 24 26  0  0  0  0  0  0  0  0999 V2000
    7.7260  -11.0089  -10.3847 N   0  0  0  0  0  0  0  0  0  0  0  0
    6.3832  -11.5422  -10.2213 C   0  0  0  0  0  0  0  0  0  0  0  0
   13.3823   -6.2023  -12.7638 O   0  0  0  0  0  0  0  0  0  0  0  0
   12.0737   -5.7700  -12.5949 C   0  0  0  0  0  0  0  0  0  0  0  0
    7.9860   -4.6154  -12.1296 N   0  0  0  0  0  0  0  0  0  0  0  0
   11.7344   -4.3043  -12.5358 C   0  0  0  0  0  0  0  0  0  0  0  0
    8.4004   -6.8222  -12.1907 N   0  0  0  0  0  0  0  0  0  0  0  0
   10.3897   -3.8322  -12.3903 C   0  0  0  0  0  0  0  0  0  0  0  0
    6.0113   -6.1209  -11.9130 N   0  0  0  0  0  0  0  0  0  0  0  0
    9.3618   -4.8351  -12.2861 C   0  0  0  0  0  0  0  0  0  0  0  0
   12.9081  -10.9175  -12.3132 N   0  0  0  0  0  0  0  0  0  0  0  0
    9.6739   -6.2387  -12.3256 C   0  0  0  0  0  0  0  0  0  0  0  0
   11.0847   -6.6840  -12.4899 C   0  0  0  0  0  0  0  0  0  0  0  0
    7.4103   -5.8516  -12.0797 C   0  0  0  0  0  0  0  0  0  0  0  0
   11.3931   -8.1688  -12.5390 C   0  0  0  0  0  0  0  0  0  0  0  0
   12.8744   -8.5248  -12.4723 C   0  0  1  0  0  0  0  0  0  0  0  0
   13.7339   -7.3558  -12.0843 C   0  0  0  0  0  0  0  0  0  0  0  0
   13.0851   -9.7039  -11.5345 C   0  0  0  0  0  0  0  0  0  0  0  0
    8.1403   -8.2735  -12.2491 C   0  0  0  0  0  0  0  0  0  0  0  0
   14.2128  -11.3523  -12.7934 C   0  0  0  0  0  0  0  0  0  0  0  0
   12.3484  -11.9269  -11.4281 C   0  0  0  0  0  0  0  0  0  0  0  0
    7.0485   -8.7878  -11.2951 C   0  0  0  0  0  0  0  0  0  0  0  0
    7.7301   -9.5582  -10.1487 C   0  0  0  0  0  0  0  0  0  0  0  0
    8.6048  -11.6999   -9.4478 C   0  0  0  0  0  0  0  0  0  0  0  0
  1 23  1  0  0  0  0
  1 24  1  0  0  0  0
  1  2  1  0  0  0  0
  3  4  1  0  0  0  0
  3 17  1  0  0  0  0
  4  6  2  0  0  0  0
  4 13  1  0  0  0  0
  5 10  1  0  0  0  0
  5 14  2  0  0  0  0
  6  8  1  0  0  0  0
  7 12  1  0  0  0  0
  7 14  1  0  0  0  0
  7 19  1  0  0  0  0
  8 10  2  0  0  0  0
  9 14  1  0  0  0  0
 10 12  1  0  0  0  0
 11 18  1  0  0  0  0
 11 20  1  0  0  0  0
 11 21  1  0  0  0  0
 12 13  2  0  0  0  0
 13 15  1  0  0  0  0
 15 16  1  0  0  0  0
 16 17  1  0  0  0  0
 16 18  1  1  0  0  0
 19 22  1  0  0  0  0
 22 23  1  0  0  0  0
M  END
>  <CHROM.1>
-71.86581209,143.31918908,93.61604086,86.83210011,-106.90908015,-97.50411188
10.16445848,-8.06457852,-11.82872930,2.71095607,0.20633847,-0.23599816

>  <Name>
ligand

>  <RI>
0

>  <Rbt.Current_Directory>
/home/itssahil/PROJECTS/Mol_Feturizer/New_Systems/rnas/3TZR

>  <Rbt.Executable>
rbdock ($Id: //depot/dev/client3/rdock/2013.1/src/exe/rbdock.cxx#4 $)

>  <Rbt.Library>
libRbt.so (2013.1, Build901 2013/11/27)

>  <Rbt.Parameter_File>
/export/apps/rDock/src/rDock_2013.1_src/data/scripts/dock_solv.prm

>  <Rbt.Receptor>
prm/pocket_docking_3.prm

>  <SCORE>
-29.6588

>  <SCORE.INTER>
-24.414

>  <SCORE.INTER.CONST>
1

>  <SCORE.INTER.POLAR>
0

>  <SCORE.INTER.ROT>
6

>  <SCORE.INTER.SOLV>
19.5826

>  <SCORE.INTER.VDW>
-30.4036

>  <SCORE.INTER.norm>
-1.01725

>  <SCORE.INTRA>
-5.24475

>  <SCORE.INTRA.DIHEDRAL>
8.64288

>  <SCORE.INTRA.DIHEDRAL.0>
4.94008

>  <SCORE.INTRA.POLAR>
0

>  <SCORE.INTRA.POLAR.0>
0

>  <SCORE.INTRA.REPUL>
0

>  <SCORE.INTRA.REPUL.0>
0

>  <SCORE.INTRA.SOLV>
1.3764

>  <SCORE.INTRA.SOLV.lig_0>
-31.4704

>  <SCORE.INTRA.VDW>
-10.2544

>  <SCORE.INTRA.VDW.0>
10.2807

>  <SCORE.INTRA.norm>
-0.218531

>  <SCORE.RESTR>
0

>  <SCORE.RESTR.CAVITY>
0

>  <SCORE.RESTR.norm>
0

>  <SCORE.SYSTEM>
0

>  <SCORE.SYSTEM.CONST>
0

>  <SCORE.SYSTEM.DIHEDRAL>
0

>  <SCORE.SYSTEM.SOLV>
0

>  <SCORE.SYSTEM.norm>
0

>  <SCORE.heavy>
24

>  <SCORE.norm>
-1.23578

>  <RMSD>
0.824

$$$$
ligand
 OpenBabel11021811493D
libRbt.so/2013.1/901 2013/11/27
 24 26  0  0  0  0  0  0  0  0999 V2000
    7.5112  -10.8285  -10.8990 N   0  0  0  0  0  0  0  0  0  0  0  0
    6.4666  -11.6951  -11.4207 C   0  0  0  0  0  0  0  0  0  0  0  0
   13.6033   -7.2333  -13.1214 O   0  0  0  0  0  0  0  0  0  0  0  0
   12.4760   -6.4738  -12.8380 C   0  0  0  0  0  0  0  0  0  0  0  0
    8.8984   -4.2937  -11.9976 N   0  0  0  0  0  0  0  0  0  0  0  0
   12.5186   -4.9690  -12.8632 C   0  0  0  0  0  0  0  0  0  0  0  0
    8.7451   -6.5334  -11.9208 N   0  0  0  0  0  0  0  0  0  0  0  0
   11.3635   -4.1632  -12.6020 C   0  0  0  0  0  0  0  0  0  0  0  0
    6.6614   -5.2333  -11.4262 N   0  0  0  0  0  0  0  0  0  0  0  0
   10.1440   -4.8644  -12.2945 C   0  0  0  0  0  0  0  0  0  0  0  0
   12.8547  -11.7003  -12.3204 N   0  0  0  0  0  0  0  0  0  0  0  0
   10.0931   -6.3013  -12.2520 C   0  0  0  0  0  0  0  0  0  0  0  0
   11.3159   -7.0991  -12.5417 C   0  0  0  0  0  0  0  0  0  0  0  0
    8.0484   -5.3383  -11.7771 C   0  0  0  0  0  0  0  0  0  0  0  0
   11.2402   -8.6139  -12.5015 C   0  0  0  0  0  0  0  0  0  0  0  0
   12.5835   -9.3315  -12.5784 C   0  0  1  0  0  0  0  0  0  0  0  0
   13.7482   -8.4014  -12.3930 C   0  0  0  0  0  0  0  0  0  0  0  0
   12.6216  -10.4749  -11.5757 C   0  0  0  0  0  0  0  0  0  0  0  0
    8.1307   -7.8716  -11.8262 C   0  0  0  0  0  0  0  0  0  0  0  0
   14.2901  -11.8587  -12.5110 C   0  0  0  0  0  0  0  0  0  0  0  0
   12.3402  -12.8016  -11.5217 C   0  0  0  0  0  0  0  0  0  0  0  0
    7.9800   -8.4300  -10.4006 C   0  0  0  0  0  0  0  0  0  0  0  0
    6.9343   -9.5603  -10.4307 C   0  0  0  0  0  0  0  0  0  0  0  0
    8.1864  -11.5345   -9.8158 C   0  0  0  0  0  0  0  0  0  0  0  0
  1 23  1  0  0  0  0
  1 24  1  0  0  0  0
  1  2  1  0  0  0  0
  3  4  1  0  0  0  0
  3 17  1  0  0  0  0
  4  6  2  0  0  0  0
  4 13  1  0  0  0  0
  5 10  1  0  0  0  0
  5 14  2  0  0  0  0
  6  8  1  0  0  0  0
  7 12  1  0  0  0  0
  7 14  1  0  0  0  0
  7 19  1  0  0  0  0
  8 10  2  0  0  0  0
  9 14  1  0  0  0  0
 10 12  1  0  0  0  0
 11 18  1  0  0  0  0
 11 20  1  0  0  0  0
 11 21  1  0  0  0  0
 12 13  2  0  0  0  0
 13 15  1  0  0  0  0
 15 16  1  0  0  0  0
 16 17  1  0  0  0  0
 16 18  1  1  0  0  0
 19 22  1  0  0  0  0
 22 23  1  0  0  0  0
M  END
>  <CHROM.1>
-157.29885272,100.02038301,85.24346818,120.98228932,161.28737362,80.99509101
10.35642212,-8.29809793,-11.88415005,1.00708077,-0.25763056,2.98455663

>  <Name>
ligand

>  <RI>
0

>  <Rbt.Current_Directory>
/home/itssahil/PROJECTS/Mol_Feturizer/New_Systems/rnas/3TZR

>  <Rbt.Executable>
rbdock ($Id: //depot/dev/client3/rdock/2013.1/src/exe/rbdock.cxx#4 $)

>  <Rbt.Library>
libRbt.so (2013.1, Build901 2013/11/27)

>  <Rbt.Parameter_File>
/export/apps/rDock/src/rDock_2013.1_src/data/scripts/dock_solv.prm

>  <Rbt.Receptor>
prm/pocket_docking_4.prm

>  <SCORE>
-31.3107

>  <SCORE.INTER>
-23.3769

>  <SCORE.INTER.CONST>
1

>  <SCORE.INTER.POLAR>
0

>  <SCORE.INTER.ROT>
6

>  <SCORE.INTER.SOLV>
20.4708

>  <SCORE.INTER.VDW>
-30.0082

>  <SCORE.INTER.norm>
-0.97404

>  <SCORE.INTRA>
-7.93704

>  <SCORE.INTRA.DIHEDRAL>
5.92619

>  <SCORE.INTRA.DIHEDRAL.0>
4.94008

>  <SCORE.INTRA.POLAR>
0

>  <SCORE.INTRA.POLAR.0>
0

>  <SCORE.INTRA.REPUL>
0

>  <SCORE.INTRA.REPUL.0>
0

>  <SCORE.INTRA.SOLV>
0.42588

>  <SCORE.INTRA.SOLV.lig_0>
-31.4704

>  <SCORE.INTRA.VDW>
-11.1131

>  <SCORE.INTRA.VDW.0>
10.2807

>  <SCORE.INTRA.norm>
-0.33071

>  <SCORE.RESTR>
0.00326849

>  <SCORE.RESTR.CAVITY>
0.00326849

>  <SCORE.RESTR.norm>
0.000136187

>  <SCORE.SYSTEM>
0

>  <SCORE.SYSTEM.CONST>
0

>  <SCORE.SYSTEM.DIHEDRAL>
0

>  <SCORE.SYSTEM.SOLV>
0

>  <SCORE.SYSTEM.norm>
0

>  <SCORE.heavy>
24

>  <SCORE.norm>
-1.30461

>  <RMSD>
0.825

$$$$
ligand
 OpenBabel11021811493D
libRbt.so/2013.1/901 2013/11/27
 24 26  0  0  0  0  0  0  0  0999 V2000
    6.9240  -10.9320   -9.8791 N   0  0  0  0  0  0  0  0  0  0  0  0
    8.0505  -11.5091   -9.1634 C   0  0  0  0  0  0  0  0  0  0  0  0
   13.1831   -5.9447  -12.7595 O   0  0  0  0  0  0  0  0  0  0  0  0
   11.8673   -5.5334  -12.5939 C   0  0  0  0  0  0  0  0  0  0  0  0
    7.7606   -4.4451  -12.1366 N   0  0  0  0  0  0  0  0  0  0  0  0
   11.5024   -4.0733  -12.5517 C   0  0  0  0  0  0  0  0  0  0  0  0
    8.2134   -6.6449  -12.1723 N   0  0  0  0  0  0  0  0  0  0  0  0
   10.1499   -3.6231  -12.4100 C   0  0  0  0  0  0  0  0  0  0  0  0
    5.8128   -5.9823  -11.8996 N   0  0  0  0  0  0  0  0  0  0  0  0
    9.1398   -4.6426  -12.2924 C   0  0  0  0  0  0  0  0  0  0  0  0
   12.5048  -10.6448  -12.1615 N   0  0  0  0  0  0  0  0  0  0  0  0
    9.4763   -6.0409  -12.3158 C   0  0  0  0  0  0  0  0  0  0  0  0
   10.8946   -6.4633  -12.4767 C   0  0  0  0  0  0  0  0  0  0  0  0
    7.2067   -5.6905  -12.0714 C   0  0  0  0  0  0  0  0  0  0  0  0
   11.2288   -7.9429  -12.5088 C   0  0  0  0  0  0  0  0  0  0  0  0
   12.7162   -8.2722  -12.4399 C   0  0  1  0  0  0  0  0  0  0  0  0
   13.5556   -7.0838  -12.0669 C   0  0  0  0  0  0  0  0  0  0  0  0
   12.9486   -9.4362  -11.4885 C   0  0  0  0  0  0  0  0  0  0  0  0
    7.9787   -8.1011  -12.2132 C   0  0  0  0  0  0  0  0  0  0  0  0
   13.5977  -11.1416  -12.9866 C   0  0  0  0  0  0  0  0  0  0  0  0
   12.1800  -11.6224  -11.1348 C   0  0  0  0  0  0  0  0  0  0  0  0
    7.6347   -8.7529  -10.8627 C   0  0  0  0  0  0  0  0  0  0  0  0
    7.3881  -10.2549  -11.0983 C   0  0  0  0  0  0  0  0  0  0  0  0
    5.9889  -12.0063  -10.1938 C   0  0  0  0  0  0  0  0  0  0  0  0
  1 23  1  0  0  0  0
  1 24  1  0  0  0  0
  1  2  1  0  0  0  0
  3  4  1  0  0  0  0
  3 17  1  0  0  0  0
  4  6  2  0  0  0  0
  4 13  1  0  0  0  0
  5 10  1  0  0  0  0
  5 14  2  0  0  0  0
  6  8  1  0  0  0  0
  7 12  1  0  0  0  0
  7 14  1  0  0  0  0
  7 19  1  0  0  0  0
  8 10  2  0  0  0  0
  9 14  1  0  0  0  0
 10 12  1  0  0  0  0
 11 18  1  0  0  0  0
 11 20  1  0  0  0  0
 11 21  1  0  0  0  0
 12 13  2  0  0  0  0
 13 15  1  0  0  0  0
 15 16  1  0  0  0  0
 16 17  1  0  0  0  0
 16 18  1  1  0  0  0
 19 22  1  0  0  0  0
 22 23  1  0  0  0  0
M  END
>  <CHROM.1>
-93.85020237,107.96494627,85.32287936,74.33055358,178.53841403,-174.41900170
9.91951782,-7.93009775,-11.79609826,2.17995305,-0.19977144,2.90291227

>  <Name>
ligand

>  <RI>
0

>  <Rbt.Current_Directory>
/home/itssahil/PROJECTS/Mol_Feturizer/New_Systems/rnas/3TZR

>  <Rbt.Executable>
rbdock ($Id: //depot/dev/client3/rdock/2013.1/src/exe/rbdock.cxx#4 $)

>  <Rbt.Library>
libRbt.so (2013.1, Build901 2013/11/27)

>  <Rbt.Parameter_File>
/export/apps/rDock/src/rDock_2013.1_src/data/scripts/dock_solv.prm

>  <Rbt.Receptor>
prm/blind_docking_100.prm

>  <SCORE>
-37.3156

>  <SCORE.INTER>
-26.0153

>  <SCORE.INTER.CONST>
1

>  <SCORE.INTER.POLAR>
0

>  <SCORE.INTER.ROT>
6

>  <SCORE.INTER.SOLV>
20.7588

>  <SCORE.INTER.VDW>
-31.8631

>  <SCORE.INTER.norm>
-1.08397

>  <SCORE.INTRA>
-11.3004

>  <SCORE.INTRA.DIHEDRAL>
-0.476566

>  <SCORE.INTRA.DIHEDRAL.0>
4.94008

>  <SCORE.INTRA.POLAR>
0

>  <SCORE.INTRA.POLAR.0>
0

>  <SCORE.INTRA.REPUL>
0

>  <SCORE.INTRA.REPUL.0>
0

>  <SCORE.INTRA.SOLV>
0.268921

>  <SCORE.INTRA.SOLV.lig_0>
-31.4704

>  <SCORE.INTRA.VDW>
-11.1965

>  <SCORE.INTRA.VDW.0>
10.2807

>  <SCORE.INTRA.norm>
-0.470849

>  <SCORE.RESTR>
0

>  <SCORE.RESTR.CAVITY>
0

>  <SCORE.RESTR.norm>
0

>  <SCORE.SYSTEM>
0

>  <SCORE.SYSTEM.CONST>
0

>  <SCORE.SYSTEM.DIHEDRAL>
0

>  <SCORE.SYSTEM.SOLV>
0

>  <SCORE.SYSTEM.norm>
0

>  <SCORE.heavy>
24

>  <SCORE.norm>
-1.55482

>  <RMSD>
0.827

$$$$
ligand
 OpenBabel11021811493D
libRbt.so/2013.1/901 2013/11/27
 24 26  0  0  0  0  0  0  0  0999 V2000
    7.4821  -10.9197  -10.8452 N   0  0  0  0  0  0  0  0  0  0  0  0
    6.5195  -11.8754  -11.3689 C   0  0  0  0  0  0  0  0  0  0  0  0
   13.6071   -7.2773  -13.1103 O   0  0  0  0  0  0  0  0  0  0  0  0
   12.4898   -6.5194  -12.7861 C   0  0  0  0  0  0  0  0  0  0  0  0
    8.9409   -4.3408  -11.8282 N   0  0  0  0  0  0  0  0  0  0  0  0
   12.5517   -5.0160  -12.7324 C   0  0  0  0  0  0  0  0  0  0  0  0
    8.7590   -6.5793  -11.8688 N   0  0  0  0  0  0  0  0  0  0  0  0
   11.4071   -4.2103  -12.4280 C   0  0  0  0  0  0  0  0  0  0  0  0
    6.6924   -5.2805  -11.3042 N   0  0  0  0  0  0  0  0  0  0  0  0
   10.1789   -4.9111  -12.1562 C   0  0  0  0  0  0  0  0  0  0  0  0
   12.9257  -11.7534  -12.5254 N   0  0  0  0  0  0  0  0  0  0  0  0
   10.1096   -6.3474  -12.1890 C   0  0  0  0  0  0  0  0  0  0  0  0
   11.3220   -7.1445  -12.5216 C   0  0  0  0  0  0  0  0  0  0  0  0
    8.0777   -5.3846  -11.6618 C   0  0  0  0  0  0  0  0  0  0  0  0
   11.2268   -8.6583  -12.5608 C   0  0  0  0  0  0  0  0  0  0  0  0
   12.5608   -9.3879  -12.6768 C   0  0  1  0  0  0  0  0  0  0  0  0
   13.7374   -8.4837  -12.4443 C   0  0  0  0  0  0  0  0  0  0  0  0
   12.5848  -10.5827  -11.7355 C   0  0  0  0  0  0  0  0  0  0  0  0
    8.1275   -7.9127  -11.8437 C   0  0  0  0  0  0  0  0  0  0  0  0
   14.3645  -11.9645  -12.4407 C   0  0  0  0  0  0  0  0  0  0  0  0
   12.2269  -12.8899  -11.9462 C   0  0  0  0  0  0  0  0  0  0  0  0
    7.8493   -8.4856  -10.4433 C   0  0  0  0  0  0  0  0  0  0  0  0
    6.8279   -9.6301  -10.5819 C   0  0  0  0  0  0  0  0  0  0  0  0
    8.0589  -11.4788   -9.6278 C   0  0  0  0  0  0  0  0  0  0  0  0
  1 23  1  0  0  0  0
  1 24  1  0  0  0  0
  1  2  1  0  0  0  0
  3  4  1  0  0  0  0
  3 17  1  0  0  0  0
  4  6  2  0  0  0  0
  4 13  1  0  0  0  0
  5 10  1  0  0  0  0
  5 14  2  0  0  0  0
  6  8  1  0  0  0  0
  7 12  1  0  0  0  0
  7 14  1  0  0  0  0
  7 19  1  0  0  0  0
  8 10  2  0  0  0  0
  9 14  1  0  0  0  0
 10 12  1  0  0  0  0
 11 18  1  0  0  0  0
 11 20  1  0  0  0  0
 11 21  1  0  0  0  0
 12 13  2  0  0  0  0
 13 15  1  0  0  0  0
 15 16  1  0  0  0  0
 16 17  1  0  0  0  0
 16 18  1  1  0  0  0
 19 22  1  0  0  0  0
 22 23  1  0  0  0  0
M  END
>  <CHROM.1>
-162.61110648,105.55801178,94.45429411,126.20909899,162.73256199,87.77469794
10.34961538,-8.35837548,-11.87977073,0.96691872,-0.27261215,3.01935125

>  <Name>
ligand

>  <RI>
0

>  <Rbt.Current_Directory>
/home/itssahil/PROJECTS/Mol_Feturizer/New_Systems/rnas/3TZR

>  <Rbt.Executable>
rbdock ($Id: //depot/dev/client3/rdock/2013.1/src/exe/rbdock.cxx#4 $)

>  <Rbt.Library>
libRbt.so (2013.1, Build901 2013/11/27)

>  <Rbt.Parameter_File>
/export/apps/rDock/src/rDock_2013.1_src/data/scripts/dock_solv.prm

>  <Rbt.Receptor>
prm/pocket_docking_4.prm

>  <SCORE>
-31.3923

>  <SCORE.INTER>
-23.9641

>  <SCORE.INTER.CONST>
1

>  <SCORE.INTER.POLAR>
0

>  <SCORE.INTER.ROT>
6

>  <SCORE.INTER.SOLV>
20.3192

>  <SCORE.INTER.VDW>
-30.3491

>  <SCORE.INTER.norm>
-0.998504

>  <SCORE.INTRA>
-7.43528

>  <SCORE.INTRA.DIHEDRAL>
6.83188

>  <SCORE.INTRA.DIHEDRAL.0>
4.94008

>  <SCORE.INTRA.POLAR>
0

>  <SCORE.INTRA.POLAR.0>
0

>  <SCORE.INTRA.REPUL>
0

>  <SCORE.INTRA.REPUL.0>
0

>  <SCORE.INTRA.SOLV>
0.54436

>  <SCORE.INTRA.SOLV.lig_0>
-31.4704

>  <SCORE.INTRA.VDW>
-11.1234

>  <SCORE.INTRA.VDW.0>
10.2807

>  <SCORE.INTRA.norm>
-0.309803

>  <SCORE.RESTR>
0.00710249

>  <SCORE.RESTR.CAVITY>
0.00710249

>  <SCORE.RESTR.norm>
0.000295937

>  <SCORE.SYSTEM>
0

>  <SCORE.SYSTEM.CONST>
0

>  <SCORE.SYSTEM.DIHEDRAL>
0

>  <SCORE.SYSTEM.SOLV>
0

>  <SCORE.SYSTEM.norm>
0

>  <SCORE.heavy>
24

>  <SCORE.norm>
-1.30801

>  <RMSD>
0.829

$$$$
ligand
 OpenBabel11021811493D
libRbt.so/2013.1/901 2013/11/27
 24 26  0  0  0  0  0  0  0  0999 V2000
    6.3547  -10.8749  -10.1901 N   0  0  0  0  0  0  0  0  0  0  0  0
    6.8973  -12.1663   -9.7999 C   0  0  0  0  0  0  0  0  0  0  0  0
   13.5301   -6.5406  -12.8727 O   0  0  0  0  0  0  0  0  0  0  0  0
   12.2877   -5.9998  -12.5696 C   0  0  0  0  0  0  0  0  0  0  0  0
    8.3825   -4.4988  -11.7008 N   0  0  0  0  0  0  0  0  0  0  0  0
   12.1071   -4.5194  -12.3628 C   0  0  0  0  0  0  0  0  0  0  0  0
    8.5604   -6.7209  -11.9771 N   0  0  0  0  0  0  0  0  0  0  0  0
   10.8316   -3.9335  -12.0769 C   0  0  0  0  0  0  0  0  0  0  0  0
    6.2810   -5.8179  -11.4615 N   0  0  0  0  0  0  0  0  0  0  0  0
    9.7143   -4.8367  -11.9790 C   0  0  0  0  0  0  0  0  0  0  0  0
   13.2983  -11.1639  -12.8408 N   0  0  0  0  0  0  0  0  0  0  0  0
    9.8756   -6.2546  -12.1591 C   0  0  0  0  0  0  0  0  0  0  0  0
   11.2184   -6.8187  -12.4664 C   0  0  0  0  0  0  0  0  0  0  0  0
    7.6862   -5.6724  -11.7108 C   0  0  0  0  0  0  0  0  0  0  0  0
   11.3670   -8.3159  -12.6626 C   0  0  0  0  0  0  0  0  0  0  0  0
   12.8044   -8.8193  -12.7383 C   0  0  1  0  0  0  0  0  0  0  0  0
   13.8047   -7.7798  -12.3204 C   0  0  0  0  0  0  0  0  0  0  0  0
   12.9539  -10.0935  -11.9208 C   0  0  0  0  0  0  0  0  0  0  0  0
    8.1477   -8.1286  -12.1366 C   0  0  0  0  0  0  0  0  0  0  0  0
   14.7176  -11.4581  -12.6962 C   0  0  0  0  0  0  0  0  0  0  0  0
   12.5137  -12.3303  -12.4673 C   0  0  0  0  0  0  0  0  0  0  0  0
    7.4345   -8.7493  -10.9229 C   0  0  0  0  0  0  0  0  0  0  0  0
    7.2132  -10.2473  -11.2047 C   0  0  0  0  0  0  0  0  0  0  0  0
    5.0036  -11.0860  -10.6974 C   0  0  0  0  0  0  0  0  0  0  0  0
  1 23  1  0  0  0  0
  1 24  1  0  0  0  0
  1  2  1  0  0  0  0
  3  4  1  0  0  0  0
  3 17  1  0  0  0  0
  4  6  2  0  0  0  0
  4 13  1  0  0  0  0
  5 10  1  0  0  0  0
  5 14  2  0  0  0  0
  6  8  1  0  0  0  0
  7 12  1  0  0  0  0
  7 14  1  0  0  0  0
  7 19  1  0  0  0  0
  8 10  2  0  0  0  0
  9 14  1  0  0  0  0
 10 12  1  0  0  0  0
 11 18  1  0  0  0  0
 11 20  1  0  0  0  0
 11 21  1  0  0  0  0
 12 13  2  0  0  0  0
 13 15  1  0  0  0  0
 15 16  1  0  0  0  0
 16 17  1  0  0  0  0
 16 18  1  1  0  0  0
 19 22  1  0  0  0  0
 22 23  1  0  0  0  0
M  END
>  <CHROM.1>
-136.53953306,124.91123667,104.28062661,116.17632339,-174.06651787,-171.15314875
10.11539432,-8.18106105,-11.89927797,-3.00651573,0.24167990,-0.09679972

>  <Name>
ligand

>  <RI>
0

>  <Rbt.Current_Directory>
/home/itssahil/PROJECTS/Mol_Feturizer/New_Systems/rnas/3TZR

>  <Rbt.Executable>
rbdock ($Id: //depot/dev/client3/rdock/2013.1/src/exe/rbdock.cxx#4 $)

>  <Rbt.Library>
libRbt.so (2013.1, Build901 2013/11/27)

>  <Rbt.Parameter_File>
/export/apps/rDock/src/rDock_2013.1_src/data/scripts/dock_solv.prm

>  <Rbt.Receptor>
prm/blind_docking_40.prm

>  <SCORE>
-33.4435

>  <SCORE.INTER>
-25.081

>  <SCORE.INTER.CONST>
1

>  <SCORE.INTER.POLAR>
0

>  <SCORE.INTER.ROT>
6

>  <SCORE.INTER.SOLV>
20.6545

>  <SCORE.INTER.VDW>
-31.2055

>  <SCORE.INTER.norm>
-1.04504

>  <SCORE.INTRA>
-8.3625

>  <SCORE.INTRA.DIHEDRAL>
5.76823

>  <SCORE.INTRA.DIHEDRAL.0>
4.94008

>  <SCORE.INTRA.POLAR>
0

>  <SCORE.INTRA.POLAR.0>
0

>  <SCORE.INTRA.REPUL>
0

>  <SCORE.INTRA.REPUL.0>
0

>  <SCORE.INTRA.SOLV>
0.659678

>  <SCORE.INTRA.SOLV.lig_0>
-31.4704

>  <SCORE.INTRA.VDW>
-11.5765

>  <SCORE.INTRA.VDW.0>
10.2807

>  <SCORE.INTRA.norm>
-0.348438

>  <SCORE.RESTR>
0

>  <SCORE.RESTR.CAVITY>
0

>  <SCORE.RESTR.norm>
0

>  <SCORE.SYSTEM>
0

>  <SCORE.SYSTEM.CONST>
0

>  <SCORE.SYSTEM.DIHEDRAL>
0

>  <SCORE.SYSTEM.SOLV>
0

>  <SCORE.SYSTEM.norm>
0

>  <SCORE.heavy>
24

>  <SCORE.norm>
-1.39348

>  <RMSD>
0.831

$$$$
ligand
 OpenBabel11021811493D
libRbt.so/2013.1/901 2013/11/27
 24 26  0  0  0  0  0  0  0  0999 V2000
    7.2520  -11.2358   -9.5012 N   0  0  0  0  0  0  0  0  0  0  0  0
    8.3958  -11.9897   -9.0140 C   0  0  0  0  0  0  0  0  0  0  0  0
   13.7647   -7.1081  -13.0040 O   0  0  0  0  0  0  0  0  0  0  0  0
   12.5627   -6.5070  -12.6555 C   0  0  0  0  0  0  0  0  0  0  0  0
    8.7721   -4.8201  -11.6333 N   0  0  0  0  0  0  0  0  0  0  0  0
   12.4456   -5.0123  -12.5166 C   0  0  0  0  0  0  0  0  0  0  0  0
    8.8570   -7.0584  -11.8022 N   0  0  0  0  0  0  0  0  0  0  0  0
   11.2109   -4.3658  -12.1857 C   0  0  0  0  0  0  0  0  0  0  0  0
    6.6461   -6.0466  -11.1984 N   0  0  0  0  0  0  0  0  0  0  0  0
   10.0719   -5.2208  -11.9731 C   0  0  0  0  0  0  0  0  0  0  0  0
   13.4766  -11.6932  -12.7051 N   0  0  0  0  0  0  0  0  0  0  0  0
   10.1735   -6.6511  -12.0875 C   0  0  0  0  0  0  0  0  0  0  0  0
   11.4747   -7.2794  -12.4451 C   0  0  0  0  0  0  0  0  0  0  0  0
    8.0371   -5.9661  -11.5393 C   0  0  0  0  0  0  0  0  0  0  0  0
   11.5599   -8.7890  -12.5706 C   0  0  0  0  0  0  0  0  0  0  0  0
   12.9719   -9.3487  -12.7062 C   0  0  1  0  0  0  0  0  0  0  0  0
   14.0309   -8.3271  -12.4048 C   0  0  0  0  0  0  0  0  0  0  0  0
   13.1286  -10.5845  -11.8331 C   0  0  0  0  0  0  0  0  0  0  0  0
    8.3877   -8.4561  -11.8620 C   0  0  0  0  0  0  0  0  0  0  0  0
   14.5593  -12.4455  -12.0858 C   0  0  0  0  0  0  0  0  0  0  0  0
   12.2990  -12.5378  -12.8292 C   0  0  0  0  0  0  0  0  0  0  0  0
    8.1151   -9.1201  -10.5013 C   0  0  0  0  0  0  0  0  0  0  0  0
    7.5924  -10.5467  -10.7541 C   0  0  0  0  0  0  0  0  0  0  0  0
    6.1448  -12.1658   -9.6928 C   0  0  0  0  0  0  0  0  0  0  0  0
  1 23  1  0  0  0  0
  1 24  1  0  0  0  0
  1  2  1  0  0  0  0
  3  4  1  0  0  0  0
  3 17  1  0  0  0  0
  4  6  2  0  0  0  0
  4 13  1  0  0  0  0
  5 10  1  0  0  0  0
  5 14  2  0  0  0  0
  6  8  1  0  0  0  0
  7 12  1  0  0  0  0
  7 14  1  0  0  0  0
  7 19  1  0  0  0  0
  8 10  2  0  0  0  0
  9 14  1  0  0  0  0
 10 12  1  0  0  0  0
 11 18  1  0  0  0  0
 11 20  1  0  0  0  0
 11 21  1  0  0  0  0
 12 13  2  0  0  0  0
 13 15  1  0  0  0  0
 15 16  1  0  0  0  0
 16 17  1  0  0  0  0
 16 18  1  1  0  0  0
 19 22  1  0  0  0  0
 22 23  1  0  0  0  0
M  END
>  <CHROM.1>
-91.91148329,107.79631891,135.48012419,120.31902116,178.12271750,-177.60696959
10.49242683,-8.61856065,-11.70353686,-3.00671390,0.33334229,-0.17209361

>  <Name>
ligand

>  <RI>
0

>  <Rbt.Current_Directory>
/home/itssahil/PROJECTS/Mol_Feturizer/New_Systems/rnas/3TZR

>  <Rbt.Executable>
rbdock ($Id: //depot/dev/client3/rdock/2013.1/src/exe/rbdock.cxx#4 $)

>  <Rbt.Library>
libRbt.so (2013.1, Build901 2013/11/27)

>  <Rbt.Parameter_File>
/export/apps/rDock/src/rDock_2013.1_src/data/scripts/dock_solv.prm

>  <Rbt.Receptor>
prm/pocket_docking_3.prm

>  <SCORE>
-34.2232

>  <SCORE.INTER>
-25.1132

>  <SCORE.INTER.CONST>
1

>  <SCORE.INTER.POLAR>
0

>  <SCORE.INTER.ROT>
6

>  <SCORE.INTER.SOLV>
18.1409

>  <SCORE.INTER.VDW>
-30.3891

>  <SCORE.INTER.norm>
-1.04638

>  <SCORE.INTRA>
-9.11001

>  <SCORE.INTRA.DIHEDRAL>
4.96152

>  <SCORE.INTRA.DIHEDRAL.0>
4.94008

>  <SCORE.INTRA.POLAR>
0

>  <SCORE.INTRA.POLAR.0>
0

>  <SCORE.INTRA.REPUL>
0

>  <SCORE.INTRA.REPUL.0>
0

>  <SCORE.INTRA.SOLV>
0.248691

>  <SCORE.INTRA.SOLV.lig_0>
-31.4704

>  <SCORE.INTRA.VDW>
-11.7151

>  <SCORE.INTRA.VDW.0>
10.2807

>  <SCORE.INTRA.norm>
-0.379584

>  <SCORE.RESTR>
0

>  <SCORE.RESTR.CAVITY>
0

>  <SCORE.RESTR.norm>
0

>  <SCORE.SYSTEM>
0

>  <SCORE.SYSTEM.CONST>
0

>  <SCORE.SYSTEM.DIHEDRAL>
0

>  <SCORE.SYSTEM.SOLV>
0

>  <SCORE.SYSTEM.norm>
0

>  <SCORE.heavy>
24

>  <SCORE.norm>
-1.42597

>  <RMSD>
0.832

$$$$
ligand
 OpenBabel11021811493D
libRbt.so/2013.1/901 2013/11/27
 24 26  0  0  0  0  0  0  0  0999 V2000
    7.1240  -10.8246   -9.9514 N   0  0  0  0  0  0  0  0  0  0  0  0
    8.3272  -11.5660   -9.6094 C   0  0  0  0  0  0  0  0  0  0  0  0
   13.8105   -7.6756  -12.9044 O   0  0  0  0  0  0  0  0  0  0  0  0
   12.7337   -6.8418  -12.6339 C   0  0  0  0  0  0  0  0  0  0  0  0
    9.3012   -4.4174  -11.8601 N   0  0  0  0  0  0  0  0  0  0  0  0
   12.9125   -5.3541  -12.4867 C   0  0  0  0  0  0  0  0  0  0  0  0
    8.9423   -6.6268  -12.0479 N   0  0  0  0  0  0  0  0  0  0  0  0
   11.8142   -4.4693  -12.2355 C   0  0  0  0  0  0  0  0  0  0  0  0
    6.9453   -5.1853  -11.5887 N   0  0  0  0  0  0  0  0  0  0  0  0
   10.5134   -5.0746  -12.1127 C   0  0  0  0  0  0  0  0  0  0  0  0
   13.3886  -11.9175  -12.2609 N   0  0  0  0  0  0  0  0  0  0  0  0
   10.3308   -6.4961  -12.2359 C   0  0  0  0  0  0  0  0  0  0  0  0
   11.4996   -7.3765  -12.5087 C   0  0  0  0  0  0  0  0  0  0  0  0
    8.3444   -5.3899  -11.8307 C   0  0  0  0  0  0  0  0  0  0  0  0
   11.2856   -8.8725  -12.6450 C   0  0  0  0  0  0  0  0  0  0  0  0
   12.5609   -9.7075  -12.6880 C   0  0  1  0  0  0  0  0  0  0  0  0
   13.7810   -8.9213  -12.3018 C   0  0  0  0  0  0  0  0  0  0  0  0
   12.4017  -10.9467  -11.8201 C   0  0  0  0  0  0  0  0  0  0  0  0
    8.2048   -7.9002  -12.1561 C   0  0  0  0  0  0  0  0  0  0  0  0
   13.7914  -12.7197  -11.1137 C   0  0  0  0  0  0  0  0  0  0  0  0
   12.7522  -12.7666  -13.2557 C   0  0  0  0  0  0  0  0  0  0  0  0
    8.1173   -8.7250  -10.8604 C   0  0  0  0  0  0  0  0  0  0  0  0
    7.3466  -10.0236  -11.1635 C   0  0  0  0  0  0  0  0  0  0  0  0
    6.0406  -11.7824  -10.1416 C   0  0  0  0  0  0  0  0  0  0  0  0
  1 23  1  0  0  0  0
  1 24  1  0  0  0  0
  1  2  1  0  0  0  0
  3  4  1  0  0  0  0
  3 17  1  0  0  0  0
  4  6  2  0  0  0  0
  4 13  1  0  0  0  0
  5 10  1  0  0  0  0
  5 14  2  0  0  0  0
  6  8  1  0  0  0  0
  7 12  1  0  0  0  0
  7 14  1  0  0  0  0
  7 19  1  0  0  0  0
  8 10  2  0  0  0  0
  9 14  1  0  0  0  0
 10 12  1  0  0  0  0
 11 18  1  0  0  0  0
 11 20  1  0  0  0  0
 11 21  1  0  0  0  0
 12 13  2  0  0  0  0
 13 15  1  0  0  0  0
 15 16  1  0  0  0  0
 16 17  1  0  0  0  0
 16 18  1  1  0  0  0
 19 22  1  0  0  0  0
 22 23  1  0  0  0  0
M  END
>  <CHROM.1>
-79.43115459,88.19348846,148.79986329,159.55201828,-178.78789982,-175.47722469
10.49360679,-8.54746052,-11.82526907,1.02090172,-0.27527855,2.98824215

>  <Name>
ligand

>  <RI>
0

>  <Rbt.Current_Directory>
/home/itssahil/PROJECTS/Mol_Feturizer/New_Systems/rnas/3TZR

>  <Rbt.Executable>
rbdock ($Id: //depot/dev/client3/rdock/2013.1/src/exe/rbdock.cxx#4 $)

>  <Rbt.Library>
libRbt.so (2013.1, Build901 2013/11/27)

>  <Rbt.Parameter_File>
/export/apps/rDock/src/rDock_2013.1_src/data/scripts/dock_solv.prm

>  <Rbt.Receptor>
prm/pocket_docking_6.prm

>  <SCORE>
-35.2825

>  <SCORE.INTER>
-24.1029

>  <SCORE.INTER.CONST>
1

>  <SCORE.INTER.POLAR>
0

>  <SCORE.INTER.ROT>
6

>  <SCORE.INTER.SOLV>
20.3502

>  <SCORE.INTER.VDW>
-30.452

>  <SCORE.INTER.norm>
-1.00429

>  <SCORE.INTRA>
-11.1796

>  <SCORE.INTRA.DIHEDRAL>
-0.19841

>  <SCORE.INTRA.DIHEDRAL.0>
4.94008

>  <SCORE.INTRA.POLAR>
0

>  <SCORE.INTRA.POLAR.0>
0

>  <SCORE.INTRA.REPUL>
0

>  <SCORE.INTRA.REPUL.0>
0

>  <SCORE.INTRA.SOLV>
-0.151159

>  <SCORE.INTRA.SOLV.lig_0>
-31.4704

>  <SCORE.INTRA.VDW>
-11.0048

>  <SCORE.INTRA.VDW.0>
10.2807

>  <SCORE.INTRA.norm>
-0.465816

>  <SCORE.RESTR>
0

>  <SCORE.RESTR.CAVITY>
0

>  <SCORE.RESTR.norm>
0

>  <SCORE.SYSTEM>
0

>  <SCORE.SYSTEM.CONST>
0

>  <SCORE.SYSTEM.DIHEDRAL>
0

>  <SCORE.SYSTEM.SOLV>
0

>  <SCORE.SYSTEM.norm>
0

>  <SCORE.heavy>
24

>  <SCORE.norm>
-1.4701

>  <RMSD>
0.832

$$$$
ligand
 OpenBabel11021811493D
libRbt.so/2013.1/901 2013/11/27
 24 26  0  0  0  0  0  0  0  0999 V2000
    7.0276  -10.9414   -9.8257 N   0  0  0  0  0  0  0  0  0  0  0  0
    8.1596  -11.5155   -9.1162 C   0  0  0  0  0  0  0  0  0  0  0  0
   13.2088   -5.9690  -12.7873 O   0  0  0  0  0  0  0  0  0  0  0  0
   11.8915   -5.5592  -12.6310 C   0  0  0  0  0  0  0  0  0  0  0  0
    7.7806   -4.4762  -12.1996 N   0  0  0  0  0  0  0  0  0  0  0  0
   11.5223   -4.0997  -12.6114 C   0  0  0  0  0  0  0  0  0  0  0  0
    8.2398   -6.6750  -12.2013 N   0  0  0  0  0  0  0  0  0  0  0  0
   10.1681   -3.6514  -12.4796 C   0  0  0  0  0  0  0  0  0  0  0  0
    5.8366   -6.0154  -11.9441 N   0  0  0  0  0  0  0  0  0  0  0  0
    9.1607   -4.6720  -12.3492 C   0  0  0  0  0  0  0  0  0  0  0  0
   12.4691  -10.6496  -12.0889 N   0  0  0  0  0  0  0  0  0  0  0  0
    9.5014   -6.0694  -12.3509 C   0  0  0  0  0  0  0  0  0  0  0  0
   10.9212   -6.4900  -12.5022 C   0  0  0  0  0  0  0  0  0  0  0  0
    7.2301   -5.7222  -12.1170 C   0  0  0  0  0  0  0  0  0  0  0  0
   11.2598   -7.9690  -12.5114 C   0  0  0  0  0  0  0  0  0  0  0  0
   12.7480   -8.2928  -12.4342 C   0  0  1  0  0  0  0  0  0  0  0  0
   13.5830   -7.0966  -12.0770 C   0  0  0  0  0  0  0  0  0  0  0  0
   12.9815   -9.4418  -11.4650 C   0  0  0  0  0  0  0  0  0  0  0  0
    8.0095   -8.1323  -12.2210 C   0  0  0  0  0  0  0  0  0  0  0  0
   13.5250  -11.2300  -12.9075 C   0  0  0  0  0  0  0  0  0  0  0  0
   12.1089  -11.5725  -11.0241 C   0  0  0  0  0  0  0  0  0  0  0  0
    7.5376   -8.7445  -10.8909 C   0  0  0  0  0  0  0  0  0  0  0  0
    7.4815  -10.2750  -11.0546 C   0  0  0  0  0  0  0  0  0  0  0  0
    6.0871  -12.0160  -10.1229 C   0  0  0  0  0  0  0  0  0  0  0  0
  1 23  1  0  0  0  0
  1 24  1  0  0  0  0
  1  2  1  0  0  0  0
  3  4  1  0  0  0  0
  3 17  1  0  0  0  0
  4  6  2  0  0  0  0
  4 13  1  0  0  0  0
  5 10  1  0  0  0  0
  5 14  2  0  0  0  0
  6  8  1  0  0  0  0
  7 12  1  0  0  0  0
  7 14  1  0  0  0  0
  7 19  1  0  0  0  0
  8 10  2  0  0  0  0
  9 14  1  0  0  0  0
 10 12  1  0  0  0  0
 11 18  1  0  0  0  0
 11 20  1  0  0  0  0
 11 21  1  0  0  0  0
 12 13  2  0  0  0  0
 13 15  1  0  0  0  0
 15 16  1  0  0  0  0
 16 17  1  0  0  0  0
 16 18  1  1  0  0  0
 19 22  1  0  0  0  0
 22 23  1  0  0  0  0
M  END
>  <CHROM.1>
-102.12704018,113.38707222,87.40631709,70.97277132,-174.55957480,-179.56914889
9.94174387,-7.95022957,-11.79483777,2.11501563,-0.19585753,2.88436631

>  <Name>
ligand

>  <RI>
0

>  <Rbt.Current_Directory>
/home/itssahil/PROJECTS/Mol_Feturizer/New_Systems/rnas/3TZR

>  <Rbt.Executable>
rbdock ($Id: //depot/dev/client3/rdock/2013.1/src/exe/rbdock.cxx#4 $)

>  <Rbt.Library>
libRbt.so (2013.1, Build901 2013/11/27)

>  <Rbt.Parameter_File>
/export/apps/rDock/src/rDock_2013.1_src/data/scripts/dock_solv.prm

>  <Rbt.Receptor>
prm/pocket_docking_6.prm

>  <SCORE>
-37.1142

>  <SCORE.INTER>
-25.7452

>  <SCORE.INTER.CONST>
1

>  <SCORE.INTER.POLAR>
0

>  <SCORE.INTER.ROT>
6

>  <SCORE.INTER.SOLV>
20.5967

>  <SCORE.INTER.VDW>
-31.629

>  <SCORE.INTER.norm>
-1.07272

>  <SCORE.INTRA>
-11.3691

>  <SCORE.INTRA.DIHEDRAL>
-0.193164

>  <SCORE.INTRA.DIHEDRAL.0>
4.94008

>  <SCORE.INTRA.POLAR>
0

>  <SCORE.INTRA.POLAR.0>
0

>  <SCORE.INTRA.REPUL>
0

>  <SCORE.INTRA.REPUL.0>
0

>  <SCORE.INTRA.SOLV>
0.345964

>  <SCORE.INTRA.SOLV.lig_0>
-31.4704

>  <SCORE.INTRA.VDW>
-11.4455

>  <SCORE.INTRA.VDW.0>
10.2807

>  <SCORE.INTRA.norm>
-0.473711

>  <SCORE.RESTR>
0

>  <SCORE.RESTR.CAVITY>
0

>  <SCORE.RESTR.norm>
0

>  <SCORE.SYSTEM>
0

>  <SCORE.SYSTEM.CONST>
0

>  <SCORE.SYSTEM.DIHEDRAL>
0

>  <SCORE.SYSTEM.SOLV>
0

>  <SCORE.SYSTEM.norm>
0

>  <SCORE.heavy>
24

>  <SCORE.norm>
-1.54643

>  <RMSD>
0.833

$$$$
ligand
 OpenBabel11021811493D
libRbt.so/2013.1/901 2013/11/27
 24 26  0  0  0  0  0  0  0  0999 V2000
    7.4875  -11.0085   -9.6210 N   0  0  0  0  0  0  0  0  0  0  0  0
    8.6620  -11.7559   -9.2011 C   0  0  0  0  0  0  0  0  0  0  0  0
   13.7737   -7.5123  -13.0540 O   0  0  0  0  0  0  0  0  0  0  0  0
   12.6720   -6.7394  -12.7124 C   0  0  0  0  0  0  0  0  0  0  0  0
    9.1675   -4.5096  -11.7097 N   0  0  0  0  0  0  0  0  0  0  0  0
   12.7735   -5.2424  -12.5882 C   0  0  0  0  0  0  0  0  0  0  0  0
    8.9261   -6.7379  -11.8566 N   0  0  0  0  0  0  0  0  0  0  0  0
   11.6461   -4.4200  -12.2646 C   0  0  0  0  0  0  0  0  0  0  0  0
    6.8861   -5.4096  -11.2645 N   0  0  0  0  0  0  0  0  0  0  0  0
   10.3950   -5.0982  -12.0445 C   0  0  0  0  0  0  0  0  0  0  0  0
   13.4901  -11.8469  -12.4733 N   0  0  0  0  0  0  0  0  0  0  0  0
   10.2876   -6.5291  -12.1448 C   0  0  0  0  0  0  0  0  0  0  0  0
   11.4834   -7.3434  -12.4952 C   0  0  0  0  0  0  0  0  0  0  0  0
    8.2738   -5.5355  -11.6051 C   0  0  0  0  0  0  0  0  0  0  0  0
   11.3482   -8.8505  -12.6058 C   0  0  0  0  0  0  0  0  0  0  0  0
   12.6638   -9.6108  -12.7348 C   0  0  1  0  0  0  0  0  0  0  0  0
   13.8602   -8.7511  -12.4426 C   0  0  0  0  0  0  0  0  0  0  0  0
   12.6397  -10.8476  -11.8495 C   0  0  0  0  0  0  0  0  0  0  0  0
    8.2585   -8.0531  -11.9030 C   0  0  0  0  0  0  0  0  0  0  0  0
   14.0445  -12.6980  -11.4292 C   0  0  0  0  0  0  0  0  0  0  0  0
   12.6541  -12.6392  -13.3614 C   0  0  0  0  0  0  0  0  0  0  0  0
    8.2201   -8.8217  -10.5709 C   0  0  0  0  0  0  0  0  0  0  0  0
    7.7712  -10.2668  -10.8578 C   0  0  0  0  0  0  0  0  0  0  0  0
    6.3928  -11.9537   -9.8100 C   0  0  0  0  0  0  0  0  0  0  0  0
  1 23  1  0  0  0  0
  1 24  1  0  0  0  0
  1  2  1  0  0  0  0
  3  4  1  0  0  0  0
  3 17  1  0  0  0  0
  4  6  2  0  0  0  0
  4 13  1  0  0  0  0
  5 10  1  0  0  0  0
  5 14  2  0  0  0  0
  6  8  1  0  0  0  0
  7 12  1  0  0  0  0
  7 14  1  0  0  0  0
  7 19  1  0  0  0  0
  8 10  2  0  0  0  0
  9 14  1  0  0  0  0
 10 12  1  0  0  0  0
 11 18  1  0  0  0  0
 11 20  1  0  0  0  0
 11 21  1  0  0  0  0
 12 13  2  0  0  0  0
 13 15  1  0  0  0  0
 15 16  1  0  0  0  0
 16 17  1  0  0  0  0
 16 18  1  1  0  0  0
 19 22  1  0  0  0  0
 22 23  1  0  0  0  0
M  END
>  <CHROM.1>
-94.20586982,92.59123542,150.97028209,150.67995443,-168.10305189,-170.33559147
10.56402794,-8.57370119,-11.74858553,1.04651100,-0.34625531,2.97110668

>  <Name>
ligand

>  <RI>
0

>  <Rbt.Current_Directory>
/home/itssahil/PROJECTS/Mol_Feturizer/New_Systems/rnas/3TZR

>  <Rbt.Executable>
rbdock ($Id: //depot/dev/client3/rdock/2013.1/src/exe/rbdock.cxx#4 $)

>  <Rbt.Library>
libRbt.so (2013.1, Build901 2013/11/27)

>  <Rbt.Parameter_File>
/export/apps/rDock/src/rDock_2013.1_src/data/scripts/dock_solv.prm

>  <Rbt.Receptor>
prm/blind_docking_40.prm

>  <SCORE>
-34.2247

>  <SCORE.INTER>
-23.9396

>  <SCORE.INTER.CONST>
1

>  <SCORE.INTER.POLAR>
0

>  <SCORE.INTER.ROT>
6

>  <SCORE.INTER.SOLV>
19.9442

>  <SCORE.INTER.VDW>
-30.2078

>  <SCORE.INTER.norm>
-0.997484

>  <SCORE.INTRA>
-10.2967

>  <SCORE.INTRA.DIHEDRAL>
2.48365

>  <SCORE.INTRA.DIHEDRAL.0>
4.94008

>  <SCORE.INTRA.POLAR>
0

>  <SCORE.INTRA.POLAR.0>
0

>  <SCORE.INTRA.REPUL>
0

>  <SCORE.INTRA.REPUL.0>
0

>  <SCORE.INTRA.SOLV>
-0.0864748

>  <SCORE.INTRA.SOLV.lig_0>
-31.4704

>  <SCORE.INTRA.VDW>
-11.4952

>  <SCORE.INTRA.VDW.0>
10.2807

>  <SCORE.INTRA.norm>
-0.429027

>  <SCORE.RESTR>
0.0116016

>  <SCORE.RESTR.CAVITY>
0.0116016

>  <SCORE.RESTR.norm>
0.000483401

>  <SCORE.SYSTEM>
0

>  <SCORE.SYSTEM.CONST>
0

>  <SCORE.SYSTEM.DIHEDRAL>
0

>  <SCORE.SYSTEM.SOLV>
0

>  <SCORE.SYSTEM.norm>
0

>  <SCORE.heavy>
24

>  <SCORE.norm>
-1.42603

>  <RMSD>
0.834

$$$$
ligand
 OpenBabel11021811493D
libRbt.so/2013.1/901 2013/11/27
 24 26  0  0  0  0  0  0  0  0999 V2000
    7.1417  -10.9382   -9.6401 N   0  0  0  0  0  0  0  0  0  0  0  0
    8.2318  -11.3233   -8.7582 C   0  0  0  0  0  0  0  0  0  0  0  0
   13.2457   -6.0106  -12.9437 O   0  0  0  0  0  0  0  0  0  0  0  0
   11.9491   -5.5852  -12.6872 C   0  0  0  0  0  0  0  0  0  0  0  0
    7.8962   -4.4531  -11.9451 N   0  0  0  0  0  0  0  0  0  0  0  0
   11.6030   -4.1213  -12.6240 C   0  0  0  0  0  0  0  0  0  0  0  0
    8.3229   -6.6576  -12.0055 N   0  0  0  0  0  0  0  0  0  0  0  0
   10.2685   -3.6567  -12.3888 C   0  0  0  0  0  0  0  0  0  0  0  0
    5.9543   -5.9693  -11.5665 N   0  0  0  0  0  0  0  0  0  0  0  0
    9.2588   -4.6653  -12.1971 C   0  0  0  0  0  0  0  0  0  0  0  0
   13.1386  -10.7000  -12.4583 N   0  0  0  0  0  0  0  0  0  0  0  0
    9.5786   -6.0671  -12.2396 C   0  0  0  0  0  0  0  0  0  0  0  0
   10.9776   -6.5046  -12.4987 C   0  0  0  0  0  0  0  0  0  0  0  0
    7.3356   -5.6925  -11.8370 C   0  0  0  0  0  0  0  0  0  0  0  0
   11.2937   -7.9878  -12.5495 C   0  0  0  0  0  0  0  0  0  0  0  0
   12.7788   -8.3323  -12.5845 C   0  0  1  0  0  0  0  0  0  0  0  0
   13.6544   -7.1518  -12.2754 C   0  0  0  0  0  0  0  0  0  0  0  0
   13.0657   -9.4963  -11.6481 C   0  0  0  0  0  0  0  0  0  0  0  0
    8.0710   -8.1114  -12.0251 C   0  0  0  0  0  0  0  0  0  0  0  0
   14.3649  -10.6547  -13.2431 C   0  0  0  0  0  0  0  0  0  0  0  0
   13.1773  -11.8359  -11.5507 C   0  0  0  0  0  0  0  0  0  0  0  0
    7.7329   -8.7416  -10.6630 C   0  0  0  0  0  0  0  0  0  0  0  0
    7.6681  -10.2703  -10.8389 C   0  0  0  0  0  0  0  0  0  0  0  0
    6.3952  -12.1416   -9.9895 C   0  0  0  0  0  0  0  0  0  0  0  0
  1 23  1  0  0  0  0
  1 24  1  0  0  0  0
  1  2  1  0  0  0  0
  3  4  1  0  0  0  0
  3 17  1  0  0  0  0
  4  6  2  0  0  0  0
  4 13  1  0  0  0  0
  5 10  1  0  0  0  0
  5 14  2  0  0  0  0
  6  8  1  0  0  0  0
  7 12  1  0  0  0  0
  7 14  1  0  0  0  0
  7 19  1  0  0  0  0
  8 10  2  0  0  0  0
  9 14  1  0  0  0  0
 10 12  1  0  0  0  0
 11 18  1  0  0  0  0
 11 20  1  0  0  0  0
 11 21  1  0  0  0  0
 12 13  2  0  0  0  0
 13 15  1  0  0  0  0
 15 16  1  0  0  0  0
 16 17  1  0  0  0  0
 16 18  1  1  0  0  0
 19 22  1  0  0  0  0
 22 23  1  0  0  0  0
M  END
>  <CHROM.1>
-92.15928976,111.49546142,71.18650869,99.38082363,-173.35461465,-170.90274271
10.14514618,-7.94010077,-11.76762964,-2.68800476,0.27273524,-0.25118715

>  <Name>
ligand

>  <RI>
0

>  <Rbt.Current_Directory>
/home/itssahil/PROJECTS/Mol_Feturizer/New_Systems/rnas/3TZR

>  <Rbt.Executable>
rbdock ($Id: //depot/dev/client3/rdock/2013.1/src/exe/rbdock.cxx#4 $)

>  <Rbt.Library>
libRbt.so (2013.1, Build901 2013/11/27)

>  <Rbt.Parameter_File>
/export/apps/rDock/src/rDock_2013.1_src/data/scripts/dock_solv.prm

>  <Rbt.Receptor>
prm/blind_docking_40.prm

>  <SCORE>
-34.2654

>  <SCORE.INTER>
-25.6508

>  <SCORE.INTER.CONST>
1

>  <SCORE.INTER.POLAR>
0

>  <SCORE.INTER.ROT>
6

>  <SCORE.INTER.SOLV>
20.2921

>  <SCORE.INTER.VDW>
-31.4645

>  <SCORE.INTER.norm>
-1.06878

>  <SCORE.INTRA>
-8.8315

>  <SCORE.INTRA.DIHEDRAL>
2.13026

>  <SCORE.INTRA.DIHEDRAL.0>
4.94008

>  <SCORE.INTRA.POLAR>
0

>  <SCORE.INTRA.POLAR.0>
0

>  <SCORE.INTRA.REPUL>
0

>  <SCORE.INTRA.REPUL.0>
0

>  <SCORE.INTRA.SOLV>
0.255542

>  <SCORE.INTRA.SOLV.lig_0>
-31.4704

>  <SCORE.INTRA.VDW>
-10.0244

>  <SCORE.INTRA.VDW.0>
10.2807

>  <SCORE.INTRA.norm>
-0.367979

>  <SCORE.RESTR>
0.216832

>  <SCORE.RESTR.CAVITY>
0.216832

>  <SCORE.RESTR.norm>
0.00903465

>  <SCORE.SYSTEM>
0

>  <SCORE.SYSTEM.CONST>
0

>  <SCORE.SYSTEM.DIHEDRAL>
0

>  <SCORE.SYSTEM.SOLV>
0

>  <SCORE.SYSTEM.norm>
0

>  <SCORE.heavy>
24

>  <SCORE.norm>
-1.42773

>  <RMSD>
0.835

$$$$
ligand
 OpenBabel11021811493D
libRbt.so/2013.1/901 2013/11/27
 24 26  0  0  0  0  0  0  0  0999 V2000
    7.1460  -10.9498  -11.2466 N   0  0  0  0  0  0  0  0  0  0  0  0
    6.1749  -11.6000  -12.1117 C   0  0  0  0  0  0  0  0  0  0  0  0
   13.5208   -6.7653  -12.9012 O   0  0  0  0  0  0  0  0  0  0  0  0
   12.2893   -6.1686  -12.6664 C   0  0  0  0  0  0  0  0  0  0  0  0
    8.4146   -4.5026  -11.9809 N   0  0  0  0  0  0  0  0  0  0  0  0
   12.1274   -4.6718  -12.6867 C   0  0  0  0  0  0  0  0  0  0  0  0
    8.5650   -6.7428  -11.9154 N   0  0  0  0  0  0  0  0  0  0  0  0
   10.8629   -4.0329  -12.4753 C   0  0  0  0  0  0  0  0  0  0  0  0
    6.3039   -5.7425  -11.5109 N   0  0  0  0  0  0  0  0  0  0  0  0
    9.7381   -4.8960  -12.2235 C   0  0  0  0  0  0  0  0  0  0  0  0
   12.5569  -11.3535  -12.0857 N   0  0  0  0  0  0  0  0  0  0  0  0
    9.8818   -6.3268  -12.1862 C   0  0  0  0  0  0  0  0  0  0  0  0
   11.2134   -6.9483  -12.4231 C   0  0  0  0  0  0  0  0  0  0  0  0
    7.7062   -5.6549  -11.8003 C   0  0  0  0  0  0  0  0  0  0  0  0
   11.3433   -8.4596  -12.3893 C   0  0  0  0  0  0  0  0  0  0  0  0
   12.7740   -8.9870  -12.4080 C   0  0  1  0  0  0  0  0  0  0  0  0
   13.7917   -7.9085  -12.1694 C   0  0  0  0  0  0  0  0  0  0  0  0
   12.9238  -10.1226  -11.4069 C   0  0  0  0  0  0  0  0  0  0  0  0
    8.1352   -8.1529  -11.8508 C   0  0  0  0  0  0  0  0  0  0  0  0
   13.7613  -11.9450  -12.6524 C   0  0  0  0  0  0  0  0  0  0  0  0
   11.9907  -12.2496  -11.0897 C   0  0  0  0  0  0  0  0  0  0  0  0
    7.6556   -8.6347  -10.4707 C   0  0  0  0  0  0  0  0  0  0  0  0
    6.5798   -9.7165  -10.6818 C   0  0  0  0  0  0  0  0  0  0  0  0
    7.5183  -11.8906  -10.1961 C   0  0  0  0  0  0  0  0  0  0  0  0
  1 23  1  0  0  0  0
  1 24  1  0  0  0  0
  1  2  1  0  0  0  0
  3  4  1  0  0  0  0
  3 17  1  0  0  0  0
  4  6  2  0  0  0  0
  4 13  1  0  0  0  0
  5 10  1  0  0  0  0
  5 14  2  0  0  0  0
  6  8  1  0  0  0  0
  7 12  1  0  0  0  0
  7 14  1  0  0  0  0
  7 19  1  0  0  0  0
  8 10  2  0  0  0  0
  9 14  1  0  0  0  0
 10 12  1  0  0  0  0
 11 18  1  0  0  0  0
 11 20  1  0  0  0  0
 11 21  1  0  0  0  0
 12 13  2  0  0  0  0
 13 15  1  0  0  0  0
 15 16  1  0  0  0  0
 16 17  1  0  0  0  0
 16 18  1  1  0  0  0
 19 22  1  0  0  0  0
 22 23  1  0  0  0  0
M  END
>  <CHROM.1>
-147.35953796,114.96644723,92.11575812,87.37757124,148.83555636,68.73587062
10.11533514,-8.24817066,-11.87724980,-3.04578374,0.17122684,-0.12957206

>  <Name>
ligand

>  <RI>
0

>  <Rbt.Current_Directory>
/home/itssahil/PROJECTS/Mol_Feturizer/New_Systems/rnas/3TZR

>  <Rbt.Executable>
rbdock ($Id: //depot/dev/client3/rdock/2013.1/src/exe/rbdock.cxx#4 $)

>  <Rbt.Library>
libRbt.so (2013.1, Build901 2013/11/27)

>  <Rbt.Parameter_File>
/export/apps/rDock/src/rDock_2013.1_src/data/scripts/dock_solv.prm

>  <Rbt.Receptor>
prm/pocket_docking_4.prm

>  <SCORE>
-31.1964

>  <SCORE.INTER>
-22.4779

>  <SCORE.INTER.CONST>
1

>  <SCORE.INTER.POLAR>
0

>  <SCORE.INTER.ROT>
6

>  <SCORE.INTER.SOLV>
19.3362

>  <SCORE.INTER.VDW>
-29.0307

>  <SCORE.INTER.norm>
-0.93658

>  <SCORE.INTRA>
-8.71847

>  <SCORE.INTRA.DIHEDRAL>
4.43186

>  <SCORE.INTRA.DIHEDRAL.0>
4.94008

>  <SCORE.INTRA.POLAR>
0

>  <SCORE.INTRA.POLAR.0>
0

>  <SCORE.INTRA.REPUL>
0

>  <SCORE.INTRA.REPUL.0>
0

>  <SCORE.INTRA.SOLV>
1.11845

>  <SCORE.INTRA.SOLV.lig_0>
-31.4704

>  <SCORE.INTRA.VDW>
-11.4936

>  <SCORE.INTRA.VDW.0>
10.2807

>  <SCORE.INTRA.norm>
-0.36327

>  <SCORE.RESTR>
0

>  <SCORE.RESTR.CAVITY>
0

>  <SCORE.RESTR.norm>
0

>  <SCORE.SYSTEM>
0

>  <SCORE.SYSTEM.CONST>
0

>  <SCORE.SYSTEM.DIHEDRAL>
0

>  <SCORE.SYSTEM.SOLV>
0

>  <SCORE.SYSTEM.norm>
0

>  <SCORE.heavy>
24

>  <SCORE.norm>
-1.29985

>  <RMSD>
0.835

$$$$
ligand
 OpenBabel11021811493D
libRbt.so/2013.1/901 2013/11/27
 24 26  0  0  0  0  0  0  0  0999 V2000
    6.5823  -10.8996  -10.0532 N   0  0  0  0  0  0  0  0  0  0  0  0
    7.5554  -11.7522   -9.3895 C   0  0  0  0  0  0  0  0  0  0  0  0
   13.2276   -5.9692  -12.7347 O   0  0  0  0  0  0  0  0  0  0  0  0
   11.9111   -5.5571  -12.5771 C   0  0  0  0  0  0  0  0  0  0  0  0
    7.8023   -4.4660  -12.1459 N   0  0  0  0  0  0  0  0  0  0  0  0
   11.5479   -4.0968  -12.5274 C   0  0  0  0  0  0  0  0  0  0  0  0
    8.2522   -6.6662  -12.1935 N   0  0  0  0  0  0  0  0  0  0  0  0
   10.1949   -3.6456  -12.3936 C   0  0  0  0  0  0  0  0  0  0  0  0
    5.8504   -6.0019  -11.9359 N   0  0  0  0  0  0  0  0  0  0  0  0
    9.1824   -4.6644  -12.2917 C   0  0  0  0  0  0  0  0  0  0  0  0
   12.4889  -10.6651  -12.1554 N   0  0  0  0  0  0  0  0  0  0  0  0
    9.5172   -6.0630  -12.3223 C   0  0  0  0  0  0  0  0  0  0  0  0
   10.9361   -6.4863  -12.4745 C   0  0  0  0  0  0  0  0  0  0  0  0
    7.2461   -5.7110  -12.0941 C   0  0  0  0  0  0  0  0  0  0  0  0
   11.2685   -7.9662  -12.5144 C   0  0  0  0  0  0  0  0  0  0  0  0
   12.7548   -8.2982  -12.4356 C   0  0  1  0  0  0  0  0  0  0  0  0
   13.5927   -7.1137  -12.0472 C   0  0  0  0  0  0  0  0  0  0  0  0
   12.9777   -9.4693  -11.4907 C   0  0  0  0  0  0  0  0  0  0  0  0
    8.0158   -8.1217  -12.2468 C   0  0  0  0  0  0  0  0  0  0  0  0
   13.5513  -11.1889  -13.0032 C   0  0  0  0  0  0  0  0  0  0  0  0
   12.1601  -11.6354  -11.1230 C   0  0  0  0  0  0  0  0  0  0  0  0
    7.4774   -8.7513  -10.9504 C   0  0  0  0  0  0  0  0  0  0  0  0
    7.1921  -10.2412  -11.2173 C   0  0  0  0  0  0  0  0  0  0  0  0
    5.4485  -11.7280  -10.4476 C   0  0  0  0  0  0  0  0  0  0  0  0
  1 23  1  0  0  0  0
  1 24  1  0  0  0  0
  1  2  1  0  0  0  0
  3  4  1  0  0  0  0
  3 17  1  0  0  0  0
  4  6  2  0  0  0  0
  4 13  1  0  0  0  0
  5 10  1  0  0  0  0
  5 14  2  0  0  0  0
  6  8  1  0  0  0  0
  7 12  1  0  0  0  0
  7 14  1  0  0  0  0
  7 19  1  0  0  0  0
  8 10  2  0  0  0  0
  9 14  1  0  0  0  0
 10 12  1  0  0  0  0
 11 18  1  0  0  0  0
 11 20  1  0  0  0  0
 11 21  1  0  0  0  0
 12 13  2  0  0  0  0
 13 15  1  0  0  0  0
 15 16  1  0  0  0  0
 16 17  1  0  0  0  0
 16 18  1  1  0  0  0
 19 22  1  0  0  0  0
 22 23  1  0  0  0  0
M  END
>  <CHROM.1>
-105.66237550,115.83985570,85.37305263,72.12145321,175.83091320,-175.93714618
9.86433789,-7.94530519,-11.83566960,-2.43253811,0.18010919,-0.21416600

>  <Name>
ligand

>  <RI>
0

>  <Rbt.Current_Directory>
/home/itssahil/PROJECTS/Mol_Feturizer/New_Systems/rnas/3TZR

>  <Rbt.Executable>
rbdock ($Id: //depot/dev/client3/rdock/2013.1/src/exe/rbdock.cxx#4 $)

>  <Rbt.Library>
libRbt.so (2013.1, Build901 2013/11/27)

>  <Rbt.Parameter_File>
/export/apps/rDock/src/rDock_2013.1_src/data/scripts/dock_solv.prm

>  <Rbt.Receptor>
prm/pocket_docking_6.prm

>  <SCORE>
-36.5799

>  <SCORE.INTER>
-25.6224

>  <SCORE.INTER.CONST>
1

>  <SCORE.INTER.POLAR>
0

>  <SCORE.INTER.ROT>
6

>  <SCORE.INTER.SOLV>
20.8074

>  <SCORE.INTER.VDW>
-31.6174

>  <SCORE.INTER.norm>
-1.0676

>  <SCORE.INTRA>
-10.9575

>  <SCORE.INTRA.DIHEDRAL>
-0.0658286

>  <SCORE.INTRA.DIHEDRAL.0>
4.94008

>  <SCORE.INTRA.POLAR>
0

>  <SCORE.INTRA.POLAR.0>
0

>  <SCORE.INTRA.REPUL>
0

>  <SCORE.INTRA.REPUL.0>
0

>  <SCORE.INTRA.SOLV>
0.544837

>  <SCORE.INTRA.SOLV.lig_0>
-31.4704

>  <SCORE.INTRA.VDW>
-11.197

>  <SCORE.INTRA.VDW.0>
10.2807

>  <SCORE.INTRA.norm>
-0.456564

>  <SCORE.RESTR>
0

>  <SCORE.RESTR.CAVITY>
0

>  <SCORE.RESTR.norm>
0

>  <SCORE.SYSTEM>
0

>  <SCORE.SYSTEM.CONST>
0

>  <SCORE.SYSTEM.DIHEDRAL>
0

>  <SCORE.SYSTEM.SOLV>
0

>  <SCORE.SYSTEM.norm>
0

>  <SCORE.heavy>
24

>  <SCORE.norm>
-1.52416

>  <RMSD>
0.835

$$$$
ligand
 OpenBabel11021811493D
libRbt.so/2013.1/901 2013/11/27
 24 26  0  0  0  0  0  0  0  0999 V2000
    7.5216  -10.8943   -9.6032 N   0  0  0  0  0  0  0  0  0  0  0  0
    8.4881  -11.7860   -8.9827 C   0  0  0  0  0  0  0  0  0  0  0  0
   13.2385   -6.0460  -12.7683 O   0  0  0  0  0  0  0  0  0  0  0  0
   11.9346   -5.6131  -12.5674 C   0  0  0  0  0  0  0  0  0  0  0  0
    7.8600   -4.4562  -12.0039 N   0  0  0  0  0  0  0  0  0  0  0  0
   11.5994   -4.1475  -12.4870 C   0  0  0  0  0  0  0  0  0  0  0  0
    8.2687   -6.6631  -12.0950 N   0  0  0  0  0  0  0  0  0  0  0  0
   10.2590   -3.6746  -12.3083 C   0  0  0  0  0  0  0  0  0  0  0  0
    5.8875   -5.9605  -11.7597 N   0  0  0  0  0  0  0  0  0  0  0  0
    9.2316   -4.6768  -12.1918 C   0  0  0  0  0  0  0  0  0  0  0  0
   12.9968  -10.7521  -12.3944 N   0  0  0  0  0  0  0  0  0  0  0  0
    9.5402   -6.0805  -12.2515 C   0  0  0  0  0  0  0  0  0  0  0  0
   10.9464   -6.5265  -12.4500 C   0  0  0  0  0  0  0  0  0  0  0  0
    7.2832   -5.6920  -11.9536 C   0  0  0  0  0  0  0  0  0  0  0  0
   11.2508   -8.0112  -12.5201 C   0  0  0  0  0  0  0  0  0  0  0  0
   12.7325   -8.3704  -12.4884 C   0  0  1  0  0  0  0  0  0  0  0  0
   13.6023   -7.2066  -12.1076 C   0  0  0  0  0  0  0  0  0  0  0  0
   12.9610   -9.5588  -11.5666 C   0  0  0  0  0  0  0  0  0  0  0  0
    8.0048   -8.1133  -12.1618 C   0  0  0  0  0  0  0  0  0  0  0  0
   14.3414  -10.8988  -12.9350 C   0  0  0  0  0  0  0  0  0  0  0  0
   12.6839  -11.8865  -11.5395 C   0  0  0  0  0  0  0  0  0  0  0  0
    7.4611   -8.7460  -10.8691 C   0  0  0  0  0  0  0  0  0  0  0  0
    8.1662  -10.0990  -10.6579 C   0  0  0  0  0  0  0  0  0  0  0  0
    6.4364  -11.7066  -10.1416 C   0  0  0  0  0  0  0  0  0  0  0  0
  1 23  1  0  0  0  0
  1 24  1  0  0  0  0
  1  2  1  0  0  0  0
  3  4  1  0  0  0  0
  3 17  1  0  0  0  0
  4  6  2  0  0  0  0
  4 13  1  0  0  0  0
  5 10  1  0  0  0  0
  5 14  2  0  0  0  0
  6  8  1  0  0  0  0
  7 12  1  0  0  0  0
  7 14  1  0  0  0  0
  7 19  1  0  0  0  0
  8 10  2  0  0  0  0
  9 14  1  0  0  0  0
 10 12  1  0  0  0  0
 11 18  1  0  0  0  0
 11 20  1  0  0  0  0
 11 21  1  0  0  0  0
 12 13  2  0  0  0  0
 13 15  1  0  0  0  0
 15 16  1  0  0  0  0
 16 17  1  0  0  0  0
 16 18  1  1  0  0  0
 19 22  1  0  0  0  0
 22 23  1  0  0  0  0
M  END
>  <CHROM.1>
-152.53654056,117.19471829,83.48177239,96.58485094,-138.30510363,-168.50545644
10.12816829,-7.96179236,-11.75352824,1.17131411,-0.24141942,2.88917181

>  <Name>
ligand

>  <RI>
0

>  <Rbt.Current_Directory>
/home/itssahil/PROJECTS/Mol_Feturizer/New_Systems/rnas/3TZR

>  <Rbt.Executable>
rbdock ($Id: //depot/dev/client3/rdock/2013.1/src/exe/rbdock.cxx#4 $)

>  <Rbt.Library>
libRbt.so (2013.1, Build901 2013/11/27)

>  <Rbt.Parameter_File>
/export/apps/rDock/src/rDock_2013.1_src/data/scripts/dock_solv.prm

>  <Rbt.Receptor>
prm/pocket_docking_4.prm

>  <SCORE>
-34.1267

>  <SCORE.INTER>
-26.4383

>  <SCORE.INTER.CONST>
1

>  <SCORE.INTER.POLAR>
0

>  <SCORE.INTER.ROT>
6

>  <SCORE.INTER.SOLV>
20.3189

>  <SCORE.INTER.VDW>
-31.9985

>  <SCORE.INTER.norm>
-1.1016

>  <SCORE.INTRA>
-7.68843

>  <SCORE.INTRA.DIHEDRAL>
6.39868

>  <SCORE.INTRA.DIHEDRAL.0>
4.94008

>  <SCORE.INTRA.POLAR>
0

>  <SCORE.INTRA.POLAR.0>
0

>  <SCORE.INTRA.REPUL>
0

>  <SCORE.INTRA.REPUL.0>
0

>  <SCORE.INTRA.SOLV>
0.354098

>  <SCORE.INTRA.SOLV.lig_0>
-31.4704

>  <SCORE.INTRA.VDW>
-11.0648

>  <SCORE.INTRA.VDW.0>
10.2807

>  <SCORE.INTRA.norm>
-0.320351

>  <SCORE.RESTR>
0

>  <SCORE.RESTR.CAVITY>
0

>  <SCORE.RESTR.norm>
0

>  <SCORE.SYSTEM>
0

>  <SCORE.SYSTEM.CONST>
0

>  <SCORE.SYSTEM.DIHEDRAL>
0

>  <SCORE.SYSTEM.SOLV>
0

>  <SCORE.SYSTEM.norm>
0

>  <SCORE.heavy>
24

>  <SCORE.norm>
-1.42195

>  <RMSD>
0.837

$$$$
ligand
 OpenBabel11021811493D
libRbt.so/2013.1/901 2013/11/27
 24 26  0  0  0  0  0  0  0  0999 V2000
    6.6474  -10.9324  -10.0272 N   0  0  0  0  0  0  0  0  0  0  0  0
    7.7184  -11.6083   -9.3128 C   0  0  0  0  0  0  0  0  0  0  0  0
   13.1823   -5.9239  -12.7596 O   0  0  0  0  0  0  0  0  0  0  0  0
   11.8671   -5.5189  -12.5751 C   0  0  0  0  0  0  0  0  0  0  0  0
    7.7620   -4.4491  -12.0625 N   0  0  0  0  0  0  0  0  0  0  0  0
   11.4996   -4.0608  -12.4999 C   0  0  0  0  0  0  0  0  0  0  0  0
    8.2190   -6.6468  -12.1468 N   0  0  0  0  0  0  0  0  0  0  0  0
   10.1474   -3.6165  -12.3381 C   0  0  0  0  0  0  0  0  0  0  0  0
    5.8193   -5.9951  -11.8413 N   0  0  0  0  0  0  0  0  0  0  0  0
    9.1403   -4.6404  -12.2334 C   0  0  0  0  0  0  0  0  0  0  0  0
   12.9284  -10.6451  -12.3708 N   0  0  0  0  0  0  0  0  0  0  0  0
    9.4795   -6.0372  -12.2882 C   0  0  0  0  0  0  0  0  0  0  0  0
   10.8972   -6.4531  -12.4691 C   0  0  0  0  0  0  0  0  0  0  0  0
    7.2112   -5.6969  -12.0183 C   0  0  0  0  0  0  0  0  0  0  0  0
   11.2342   -7.9310  -12.5342 C   0  0  0  0  0  0  0  0  0  0  0  0
   12.7228   -8.2584  -12.4840 C   0  0  1  0  0  0  0  0  0  0  0  0
   13.5627   -7.0761  -12.0935 C   0  0  0  0  0  0  0  0  0  0  0  0
   12.9652   -9.4411  -11.5586 C   0  0  0  0  0  0  0  0  0  0  0  0
    7.9869   -8.1024  -12.2157 C   0  0  0  0  0  0  0  0  0  0  0  0
   14.2313  -10.8183  -12.9988 C   0  0  0  0  0  0  0  0  0  0  0  0
   12.6584  -11.7640  -11.4817 C   0  0  0  0  0  0  0  0  0  0  0  0
    7.4182   -8.7418  -10.9372 C   0  0  0  0  0  0  0  0  0  0  0  0
    7.1811  -10.2393  -11.2084 C   0  0  0  0  0  0  0  0  0  0  0  0
    5.6535  -11.9313  -10.4040 C   0  0  0  0  0  0  0  0  0  0  0  0
  1 23  1  0  0  0  0
  1 24  1  0  0  0  0
  1  2  1  0  0  0  0
  3  4  1  0  0  0  0
  3 17  1  0  0  0  0
  4  6  2  0  0  0  0
  4 13  1  0  0  0  0
  5 10  1  0  0  0  0
  5 14  2  0  0  0  0
  6  8  1  0  0  0  0
  7 12  1  0  0  0  0
  7 14  1  0  0  0  0
  7 19  1  0  0  0  0
  8 10  2  0  0  0  0
  9 14  1  0  0  0  0
 10 12  1  0  0  0  0
 11 18  1  0  0  0  0
 11 20  1  0  0  0  0
 11 21  1  0  0  0  0
 12 13  2  0  0  0  0
 13 15  1  0  0  0  0
 15 16  1  0  0  0  0
 16 17  1  0  0  0  0
 16 18  1  1  0  0  0
 19 22  1  0  0  0  0
 22 23  1  0  0  0  0
M  END
>  <CHROM.1>
-98.11317881,118.20959053,82.22580477,92.04581711,177.46001279,179.44954455
9.93067967,-7.91882867,-11.84201848,-2.65184169,0.19741076,-0.20714687

>  <Name>
ligand

>  <RI>
0

>  <Rbt.Current_Directory>
/home/itssahil/PROJECTS/Mol_Feturizer/New_Systems/rnas/3TZR

>  <Rbt.Executable>
rbdock ($Id: //depot/dev/client3/rdock/2013.1/src/exe/rbdock.cxx#4 $)

>  <Rbt.Library>
libRbt.so (2013.1, Build901 2013/11/27)

>  <Rbt.Parameter_File>
/export/apps/rDock/src/rDock_2013.1_src/data/scripts/dock_solv.prm

>  <Rbt.Receptor>
prm/pocket_docking_4.prm

>  <SCORE>
-36.0421

>  <SCORE.INTER>
-26.1691

>  <SCORE.INTER.CONST>
1

>  <SCORE.INTER.POLAR>
0

>  <SCORE.INTER.ROT>
6

>  <SCORE.INTER.SOLV>
20.8164

>  <SCORE.INTER.VDW>
-31.9848

>  <SCORE.INTER.norm>
-1.09038

>  <SCORE.INTRA>
-9.87309

>  <SCORE.INTRA.DIHEDRAL>
1.56974

>  <SCORE.INTRA.DIHEDRAL.0>
4.94008

>  <SCORE.INTRA.POLAR>
0

>  <SCORE.INTRA.POLAR.0>
0

>  <SCORE.INTRA.REPUL>
0

>  <SCORE.INTRA.REPUL.0>
0

>  <SCORE.INTRA.SOLV>
0.572742

>  <SCORE.INTRA.SOLV.lig_0>
-31.4704

>  <SCORE.INTRA.VDW>
-10.9443

>  <SCORE.INTRA.VDW.0>
10.2807

>  <SCORE.INTRA.norm>
-0.411379

>  <SCORE.RESTR>
0

>  <SCORE.RESTR.CAVITY>
0

>  <SCORE.RESTR.norm>
0

>  <SCORE.SYSTEM>
0

>  <SCORE.SYSTEM.CONST>
0

>  <SCORE.SYSTEM.DIHEDRAL>
0

>  <SCORE.SYSTEM.SOLV>
0

>  <SCORE.SYSTEM.norm>
0

>  <SCORE.heavy>
24

>  <SCORE.norm>
-1.50176

>  <RMSD>
0.838

$$$$
ligand
 OpenBabel11021811493D
libRbt.so/2013.1/901 2013/11/27
 24 26  0  0  0  0  0  0  0  0999 V2000
    7.1068  -10.9123   -9.7944 N   0  0  0  0  0  0  0  0  0  0  0  0
    8.1921  -11.4470   -8.9877 C   0  0  0  0  0  0  0  0  0  0  0  0
   13.2169   -6.0080  -12.8494 O   0  0  0  0  0  0  0  0  0  0  0  0
   11.9052   -5.5833  -12.6856 C   0  0  0  0  0  0  0  0  0  0  0  0
    7.8093   -4.4548  -12.2285 N   0  0  0  0  0  0  0  0  0  0  0  0
   11.5504   -4.1201  -12.6804 C   0  0  0  0  0  0  0  0  0  0  0  0
    8.2472   -6.6578  -12.2075 N   0  0  0  0  0  0  0  0  0  0  0  0
   10.2020   -3.6570  -12.5413 C   0  0  0  0  0  0  0  0  0  0  0  0
    5.8531   -5.9716  -11.9357 N   0  0  0  0  0  0  0  0  0  0  0  0
    9.1859   -4.6659  -12.3888 C   0  0  0  0  0  0  0  0  0  0  0  0
   12.4076  -10.6657  -12.0715 N   0  0  0  0  0  0  0  0  0  0  0  0
    9.5130   -6.0666  -12.3766 C   0  0  0  0  0  0  0  0  0  0  0  0
   10.9271   -6.5030  -12.5361 C   0  0  0  0  0  0  0  0  0  0  0  0
    7.2476   -5.6942  -12.1254 C   0  0  0  0  0  0  0  0  0  0  0  0
   11.2513   -7.9852  -12.5304 C   0  0  0  0  0  0  0  0  0  0  0  0
   12.7369   -8.3227  -12.4633 C   0  0  1  0  0  0  0  0  0  0  0  0
   13.5869   -7.1304  -12.1288 C   0  0  0  0  0  0  0  0  0  0  0  0
   12.9685   -9.4620  -11.4823 C   0  0  0  0  0  0  0  0  0  0  0  0
    8.0024   -8.1130  -12.2072 C   0  0  0  0  0  0  0  0  0  0  0  0
   13.4042  -11.2546  -12.9556 C   0  0  0  0  0  0  0  0  0  0  0  0
   12.1087  -11.5856  -10.9853 C   0  0  0  0  0  0  0  0  0  0  0  0
    7.8087   -8.7498  -10.8202 C   0  0  0  0  0  0  0  0  0  0  0  0
    7.6401  -10.2697  -11.0040 C   0  0  0  0  0  0  0  0  0  0  0  0
    6.2089  -12.0113  -10.1311 C   0  0  0  0  0  0  0  0  0  0  0  0
  1 23  1  0  0  0  0
  1 24  1  0  0  0  0
  1  2  1  0  0  0  0
  3  4  1  0  0  0  0
  3 17  1  0  0  0  0
  4  6  2  0  0  0  0
  4 13  1  0  0  0  0
  5 10  1  0  0  0  0
  5 14  2  0  0  0  0
  6  8  1  0  0  0  0
  7 12  1  0  0  0  0
  7 14  1  0  0  0  0
  7 19  1  0  0  0  0
  8 10  2  0  0  0  0
  9 14  1  0  0  0  0
 10 12  1  0  0  0  0
 11 18  1  0  0  0  0
 11 20  1  0  0  0  0
 11 21  1  0  0  0  0
 12 13  2  0  0  0  0
 13 15  1  0  0  0  0
 15 16  1  0  0  0  0
 16 17  1  0  0  0  0
 16 18  1  1  0  0  0
 19 22  1  0  0  0  0
 22 23  1  0  0  0  0
M  END
>  <CHROM.1>
-95.65152043,101.87514845,84.95934270,69.52781376,-177.08665161,-165.13013607
9.96856655,-7.95075812,-11.80171657,2.00643255,-0.20848064,2.87248128

>  <Name>
ligand

>  <RI>
0

>  <Rbt.Current_Directory>
/home/itssahil/PROJECTS/Mol_Feturizer/New_Systems/rnas/3TZR

>  <Rbt.Executable>
rbdock ($Id: //depot/dev/client3/rdock/2013.1/src/exe/rbdock.cxx#4 $)

>  <Rbt.Library>
libRbt.so (2013.1, Build901 2013/11/27)

>  <Rbt.Parameter_File>
/export/apps/rDock/src/rDock_2013.1_src/data/scripts/dock_solv.prm

>  <Rbt.Receptor>
prm/pocket_docking_5.prm

>  <SCORE>
-37.106

>  <SCORE.INTER>
-25.788

>  <SCORE.INTER.CONST>
1

>  <SCORE.INTER.POLAR>
0

>  <SCORE.INTER.ROT>
6

>  <SCORE.INTER.SOLV>
20.8201

>  <SCORE.INTER.VDW>
-31.732

>  <SCORE.INTER.norm>
-1.0745

>  <SCORE.INTRA>
-11.318

>  <SCORE.INTRA.DIHEDRAL>
-0.0288354

>  <SCORE.INTRA.DIHEDRAL.0>
4.94008

>  <SCORE.INTRA.POLAR>
0

>  <SCORE.INTRA.POLAR.0>
0

>  <SCORE.INTRA.REPUL>
0

>  <SCORE.INTRA.REPUL.0>
0

>  <SCORE.INTRA.SOLV>
0.0850841

>  <SCORE.INTRA.SOLV.lig_0>
-31.4704

>  <SCORE.INTRA.VDW>
-11.3461

>  <SCORE.INTRA.VDW.0>
10.2807

>  <SCORE.INTRA.norm>
-0.471582

>  <SCORE.RESTR>
0

>  <SCORE.RESTR.CAVITY>
0

>  <SCORE.RESTR.norm>
0

>  <SCORE.SYSTEM>
0

>  <SCORE.SYSTEM.CONST>
0

>  <SCORE.SYSTEM.DIHEDRAL>
0

>  <SCORE.SYSTEM.SOLV>
0

>  <SCORE.SYSTEM.norm>
0

>  <SCORE.heavy>
24

>  <SCORE.norm>
-1.54608

>  <RMSD>
0.838

$$$$
ligand
 OpenBabel11021811493D
libRbt.so/2013.1/901 2013/11/27
 24 26  0  0  0  0  0  0  0  0999 V2000
    6.8068  -10.9317   -9.9170 N   0  0  0  0  0  0  0  0  0  0  0  0
    7.8475  -11.6979   -9.2505 C   0  0  0  0  0  0  0  0  0  0  0  0
   13.1897   -5.9239  -12.7695 O   0  0  0  0  0  0  0  0  0  0  0  0
   11.8699   -5.5241  -12.6075 C   0  0  0  0  0  0  0  0  0  0  0  0
    7.7526   -4.4722  -12.1602 N   0  0  0  0  0  0  0  0  0  0  0  0
   11.4911   -4.0673  -12.5741 C   0  0  0  0  0  0  0  0  0  0  0  0
    8.2263   -6.6678  -12.1826 N   0  0  0  0  0  0  0  0  0  0  0  0
   10.1343   -3.6292  -12.4362 C   0  0  0  0  0  0  0  0  0  0  0  0
    5.8192   -6.0264  -11.9158 N   0  0  0  0  0  0  0  0  0  0  0  0
    9.1338   -4.6575  -12.3136 C   0  0  0  0  0  0  0  0  0  0  0  0
   12.6089  -10.6327  -12.1656 N   0  0  0  0  0  0  0  0  0  0  0  0
    9.4836   -6.0526  -12.3285 C   0  0  0  0  0  0  0  0  0  0  0  0
   10.9059   -6.4625  -12.4857 C   0  0  0  0  0  0  0  0  0  0  0  0
    7.2105   -5.7224  -12.0882 C   0  0  0  0  0  0  0  0  0  0  0  0
   11.2543   -7.9391  -12.5088 C   0  0  0  0  0  0  0  0  0  0  0  0
   12.7446   -8.2538  -12.4367 C   0  0  1  0  0  0  0  0  0  0  0  0
   13.5723   -7.0553  -12.0699 C   0  0  0  0  0  0  0  0  0  0  0  0
   12.9872   -9.4100  -11.4783 C   0  0  0  0  0  0  0  0  0  0  0  0
    8.0055   -8.1264  -12.2152 C   0  0  0  0  0  0  0  0  0  0  0  0
   13.7405  -11.0817  -12.9656 C   0  0  0  0  0  0  0  0  0  0  0  0
   12.2993  -11.6269  -11.1501 C   0  0  0  0  0  0  0  0  0  0  0  0
    7.5030   -8.7479  -10.9006 C   0  0  0  0  0  0  0  0  0  0  0  0
    7.3493  -10.2661  -11.1099 C   0  0  0  0  0  0  0  0  0  0  0  0
    5.7252  -11.8455  -10.2669 C   0  0  0  0  0  0  0  0  0  0  0  0
  1 23  1  0  0  0  0
  1 24  1  0  0  0  0
  1  2  1  0  0  0  0
  3  4  1  0  0  0  0
  3 17  1  0  0  0  0
  4  6  2  0  0  0  0
  4 13  1  0  0  0  0
  5 10  1  0  0  0  0
  5 14  2  0  0  0  0
  6  8  1  0  0  0  0
  7 12  1  0  0  0  0
  7 14  1  0  0  0  0
  7 19  1  0  0  0  0
  8 10  2  0  0  0  0
  9 14  1  0  0  0  0
 10 12  1  0  0  0  0
 11 18  1  0  0  0  0
 11 20  1  0  0  0  0
 11 21  1  0  0  0  0
 12 13  2  0  0  0  0
 13 15  1  0  0  0  0
 15 16  1  0  0  0  0
 16 17  1  0  0  0  0
 16 18  1  1  0  0  0
 19 22  1  0  0  0  0
 22 23  1  0  0  0  0
M  END
>  <CHROM.1>
-107.13830165,114.98171638,84.73431787,76.71723625,-179.17576886,-177.14617761
9.90852585,-7.93121462,-11.81387315,-2.35811028,0.19105101,-0.23685611

>  <Name>
ligand

>  <RI>
0

>  <Rbt.Current_Directory>
/home/itssahil/PROJECTS/Mol_Feturizer/New_Systems/rnas/3TZR

>  <Rbt.Executable>
rbdock ($Id: //depot/dev/client3/rdock/2013.1/src/exe/rbdock.cxx#4 $)

>  <Rbt.Library>
libRbt.so (2013.1, Build901 2013/11/27)

>  <Rbt.Parameter_File>
/export/apps/rDock/src/rDock_2013.1_src/data/scripts/dock_solv.prm

>  <Rbt.Receptor>
prm/pocket_docking_6.prm

>  <SCORE>
-36.6956

>  <SCORE.INTER>
-25.8134

>  <SCORE.INTER.CONST>
1

>  <SCORE.INTER.POLAR>
0

>  <SCORE.INTER.ROT>
6

>  <SCORE.INTER.SOLV>
20.6598

>  <SCORE.INTER.VDW>
-31.6955

>  <SCORE.INTER.norm>
-1.07556

>  <SCORE.INTRA>
-10.8822

>  <SCORE.INTRA.DIHEDRAL>
0.282803

>  <SCORE.INTRA.DIHEDRAL.0>
4.94008

>  <SCORE.INTRA.POLAR>
0

>  <SCORE.INTRA.POLAR.0>
0

>  <SCORE.INTRA.REPUL>
0

>  <SCORE.INTRA.REPUL.0>
0

>  <SCORE.INTRA.SOLV>
0.44624

>  <SCORE.INTRA.SOLV.lig_0>
-31.4704

>  <SCORE.INTRA.VDW>
-11.2467

>  <SCORE.INTRA.VDW.0>
10.2807

>  <SCORE.INTRA.norm>
-0.453424

>  <SCORE.RESTR>
0

>  <SCORE.RESTR.CAVITY>
0

>  <SCORE.RESTR.norm>
0

>  <SCORE.SYSTEM>
0

>  <SCORE.SYSTEM.CONST>
0

>  <SCORE.SYSTEM.DIHEDRAL>
0

>  <SCORE.SYSTEM.SOLV>
0

>  <SCORE.SYSTEM.norm>
0

>  <SCORE.heavy>
24

>  <SCORE.norm>
-1.52898

>  <RMSD>
0.839

$$$$
ligand
 OpenBabel11021811493D
libRbt.so/2013.1/901 2013/11/27
 24 26  0  0  0  0  0  0  0  0999 V2000
    7.4506  -10.9205  -10.8800 N   0  0  0  0  0  0  0  0  0  0  0  0
    6.4610  -11.8320  -11.4317 C   0  0  0  0  0  0  0  0  0  0  0  0
   13.5959   -7.2077  -13.1356 O   0  0  0  0  0  0  0  0  0  0  0  0
   12.4737   -6.4647  -12.7943 C   0  0  0  0  0  0  0  0  0  0  0  0
    8.9108   -4.3328  -11.7846 N   0  0  0  0  0  0  0  0  0  0  0  0
   12.5205   -4.9614  -12.7260 C   0  0  0  0  0  0  0  0  0  0  0  0
    8.7516   -6.5725  -11.8461 N   0  0  0  0  0  0  0  0  0  0  0  0
   11.3703   -4.1706  -12.4039 C   0  0  0  0  0  0  0  0  0  0  0  0
    6.6767   -5.3010  -11.2510 N   0  0  0  0  0  0  0  0  0  0  0  0
   10.1517   -4.8868  -12.1287 C   0  0  0  0  0  0  0  0  0  0  0  0
   13.0384  -11.6822  -12.5753 N   0  0  0  0  0  0  0  0  0  0  0  0
   10.0970   -6.3234  -12.1754 C   0  0  0  0  0  0  0  0  0  0  0  0
   11.3146   -7.1045  -12.5263 C   0  0  0  0  0  0  0  0  0  0  0  0
    8.0598   -5.3871  -11.6214 C   0  0  0  0  0  0  0  0  0  0  0  0
   11.2347   -8.6187  -12.5799 C   0  0  0  0  0  0  0  0  0  0  0  0
   12.5751   -9.3333  -12.7145 C   0  0  1  0  0  0  0  0  0  0  0  0
   13.7443   -8.4193  -12.4829 C   0  0  0  0  0  0  0  0  0  0  0  0
   12.6195  -10.5370  -11.7855 C   0  0  0  0  0  0  0  0  0  0  0  0
    8.1342   -7.9126  -11.8292 C   0  0  0  0  0  0  0  0  0  0  0  0
   14.4738  -11.8613  -12.4035 C   0  0  0  0  0  0  0  0  0  0  0  0
   12.3328  -12.8470  -12.0645 C   0  0  0  0  0  0  0  0  0  0  0  0
    7.8785   -8.5044  -10.4323 C   0  0  0  0  0  0  0  0  0  0  0  0
    6.8307   -9.6255  -10.5652 C   0  0  0  0  0  0  0  0  0  0  0  0
    8.0203  -11.5382   -9.6878 C   0  0  0  0  0  0  0  0  0  0  0  0
  1 23  1  0  0  0  0
  1 24  1  0  0  0  0
  1  2  1  0  0  0  0
  3  4  1  0  0  0  0
  3 17  1  0  0  0  0
  4  6  2  0  0  0  0
  4 13  1  0  0  0  0
  5 10  1  0  0  0  0
  5 14  2  0  0  0  0
  6  8  1  0  0  0  0
  7 12  1  0  0  0  0
  7 14  1  0  0  0  0
  7 19  1  0  0  0  0
  8 10  2  0  0  0  0
  9 14  1  0  0  0  0
 10 12  1  0  0  0  0
 11 18  1  0  0  0  0
 11 20  1  0  0  0  0
 11 21  1  0  0  0  0
 12 13  2  0  0  0  0
 13 15  1  0  0  0  0
 15 16  1  0  0  0  0
 16 17  1  0  0  0  0
 16 18  1  1  0  0  0
 19 22  1  0  0  0  0
 22 23  1  0  0  0  0
M  END
>  <CHROM.1>
-160.94908720,105.34900206,96.52955340,129.33170492,160.80267945,87.20474965
10.35455659,-8.32963135,-11.88953504,0.88545780,-0.27205096,3.02723287

>  <Name>
ligand

>  <RI>
0

>  <Rbt.Current_Directory>
/home/itssahil/PROJECTS/Mol_Feturizer/New_Systems/rnas/3TZR

>  <Rbt.Executable>
rbdock ($Id: //depot/dev/client3/rdock/2013.1/src/exe/rbdock.cxx#4 $)

>  <Rbt.Library>
libRbt.so (2013.1, Build901 2013/11/27)

>  <Rbt.Parameter_File>
/export/apps/rDock/src/rDock_2013.1_src/data/scripts/dock_solv.prm

>  <Rbt.Receptor>
prm/blind_docking_80.prm

>  <SCORE>
-31.2796

>  <SCORE.INTER>
-23.893

>  <SCORE.INTER.CONST>
1

>  <SCORE.INTER.POLAR>
0

>  <SCORE.INTER.ROT>
6

>  <SCORE.INTER.SOLV>
20.3473

>  <SCORE.INTER.VDW>
-30.3111

>  <SCORE.INTER.norm>
-0.995543

>  <SCORE.INTRA>
-7.38758

>  <SCORE.INTRA.DIHEDRAL>
7.02987

>  <SCORE.INTRA.DIHEDRAL.0>
4.94008

>  <SCORE.INTRA.POLAR>
0

>  <SCORE.INTRA.POLAR.0>
0

>  <SCORE.INTRA.REPUL>
0

>  <SCORE.INTRA.REPUL.0>
0

>  <SCORE.INTRA.SOLV>
0.575621

>  <SCORE.INTRA.SOLV.lig_0>
-31.4704

>  <SCORE.INTRA.VDW>
-11.1903

>  <SCORE.INTRA.VDW.0>
10.2807

>  <SCORE.INTRA.norm>
-0.307816

>  <SCORE.RESTR>
0.00104479

>  <SCORE.RESTR.CAVITY>
0.00104479

>  <SCORE.RESTR.norm>
4.35331e-05

>  <SCORE.SYSTEM>
0

>  <SCORE.SYSTEM.CONST>
0

>  <SCORE.SYSTEM.DIHEDRAL>
0

>  <SCORE.SYSTEM.SOLV>
0

>  <SCORE.SYSTEM.norm>
0

>  <SCORE.heavy>
24

>  <SCORE.norm>
-1.30331

>  <RMSD>
0.841

$$$$
ligand
 OpenBabel11021811493D
libRbt.so/2013.1/901 2013/11/27
 24 26  0  0  0  0  0  0  0  0999 V2000
    7.1849  -10.9804   -9.8238 N   0  0  0  0  0  0  0  0  0  0  0  0
    8.3981  -11.6333   -9.3590 C   0  0  0  0  0  0  0  0  0  0  0  0
   13.1122   -5.9765  -12.7500 O   0  0  0  0  0  0  0  0  0  0  0  0
   11.7961   -5.5589  -12.6038 C   0  0  0  0  0  0  0  0  0  0  0  0
    7.6884   -4.4515  -12.2049 N   0  0  0  0  0  0  0  0  0  0  0  0
   11.4361   -4.0971  -12.5808 C   0  0  0  0  0  0  0  0  0  0  0  0
    8.1337   -6.6532  -12.2128 N   0  0  0  0  0  0  0  0  0  0  0  0
   10.0836   -3.6408  -12.4592 C   0  0  0  0  0  0  0  0  0  0  0  0
    5.7324   -5.9794  -11.9744 N   0  0  0  0  0  0  0  0  0  0  0  0
    9.0685   -4.6555  -12.3428 C   0  0  0  0  0  0  0  0  0  0  0  0
   12.3068  -10.6495  -12.0667 N   0  0  0  0  0  0  0  0  0  0  0  0
    9.4003   -6.0551  -12.3480 C   0  0  0  0  0  0  0  0  0  0  0  0
   10.8188   -6.4841  -12.4883 C   0  0  0  0  0  0  0  0  0  0  0  0
    7.1293   -5.6943  -12.1332 C   0  0  0  0  0  0  0  0  0  0  0  0
   11.1480   -7.9652  -12.5013 C   0  0  0  0  0  0  0  0  0  0  0  0
   12.6333   -8.2989  -12.4120 C   0  0  1  0  0  0  0  0  0  0  0  0
   13.4726   -7.1097  -12.0416 C   0  0  0  0  0  0  0  0  0  0  0  0
   12.8506   -9.4538  -11.4461 C   0  0  0  0  0  0  0  0  0  0  0  0
    7.8942   -8.1089  -12.2414 C   0  0  0  0  0  0  0  0  0  0  0  0
   13.3213  -11.2159  -12.9452 C   0  0  0  0  0  0  0  0  0  0  0  0
   11.9961  -11.5914  -11.0028 C   0  0  0  0  0  0  0  0  0  0  0  0
    7.6418   -8.7639  -10.8724 C   0  0  0  0  0  0  0  0  0  0  0  0
    7.4384  -10.2753  -11.0883 C   0  0  0  0  0  0  0  0  0  0  0  0
    6.1546  -12.0003   -9.9840 C   0  0  0  0  0  0  0  0  0  0  0  0
  1 23  1  0  0  0  0
  1 24  1  0  0  0  0
  1  2  1  0  0  0  0
  3  4  1  0  0  0  0
  3 17  1  0  0  0  0
  4  6  2  0  0  0  0
  4 13  1  0  0  0  0
  5 10  1  0  0  0  0
  5 14  2  0  0  0  0
  6  8  1  0  0  0  0
  7 12  1  0  0  0  0
  7 14  1  0  0  0  0
  7 19  1  0  0  0  0
  8 10  2  0  0  0  0
  9 14  1  0  0  0  0
 10 12  1  0  0  0  0
 11 18  1  0  0  0  0
 11 20  1  0  0  0  0
 11 21  1  0  0  0  0
 12 13  2  0  0  0  0
 13 15  1  0  0  0  0
 15 16  1  0  0  0  0
 16 17  1  0  0  0  0
 16 18  1  1  0  0  0
 19 22  1  0  0  0  0
 22 23  1  0  0  0  0
M  END
>  <CHROM.1>
-100.35186059,103.34323049,84.71254019,69.60790093,-179.01076379,-179.78219488
9.87707754,-7.95176300,-11.79429248,1.89817386,-0.19114264,2.88517219

>  <Name>
ligand

>  <RI>
0

>  <Rbt.Current_Directory>
/home/itssahil/PROJECTS/Mol_Feturizer/New_Systems/rnas/3TZR

>  <Rbt.Executable>
rbdock ($Id: //depot/dev/client3/rdock/2013.1/src/exe/rbdock.cxx#4 $)

>  <Rbt.Library>
libRbt.so (2013.1, Build901 2013/11/27)

>  <Rbt.Parameter_File>
/export/apps/rDock/src/rDock_2013.1_src/data/scripts/dock_solv.prm

>  <Rbt.Receptor>
prm/pocket_docking_7.prm

>  <SCORE>
-36.8835

>  <SCORE.INTER>
-25.206

>  <SCORE.INTER.CONST>
1

>  <SCORE.INTER.POLAR>
0

>  <SCORE.INTER.ROT>
6

>  <SCORE.INTER.SOLV>
20.8285

>  <SCORE.INTER.VDW>
-31.3468

>  <SCORE.INTER.norm>
-1.05025

>  <SCORE.INTRA>
-11.6896

>  <SCORE.INTRA.DIHEDRAL>
-0.597909

>  <SCORE.INTRA.DIHEDRAL.0>
4.94008

>  <SCORE.INTRA.POLAR>
0

>  <SCORE.INTRA.POLAR.0>
0

>  <SCORE.INTRA.REPUL>
0

>  <SCORE.INTRA.REPUL.0>
0

>  <SCORE.INTRA.SOLV>
0.10465

>  <SCORE.INTRA.SOLV.lig_0>
-31.4704

>  <SCORE.INTRA.VDW>
-11.443

>  <SCORE.INTRA.VDW.0>
10.2807

>  <SCORE.INTRA.norm>
-0.487068

>  <SCORE.RESTR>
0.0122189

>  <SCORE.RESTR.CAVITY>
0.0122189

>  <SCORE.RESTR.norm>
0.000509123

>  <SCORE.SYSTEM>
0

>  <SCORE.SYSTEM.CONST>
0

>  <SCORE.SYSTEM.DIHEDRAL>
0

>  <SCORE.SYSTEM.SOLV>
0

>  <SCORE.SYSTEM.norm>
0

>  <SCORE.heavy>
24

>  <SCORE.norm>
-1.53681

>  <RMSD>
0.844

$$$$
ligand
 OpenBabel11021811493D
libRbt.so/2013.1/901 2013/11/27
 24 26  0  0  0  0  0  0  0  0999 V2000
    6.7275  -10.9405  -10.0220 N   0  0  0  0  0  0  0  0  0  0  0  0
    7.9136  -11.4763   -9.3737 C   0  0  0  0  0  0  0  0  0  0  0  0
   13.2359   -5.9017  -12.8012 O   0  0  0  0  0  0  0  0  0  0  0  0
   11.9174   -5.5067  -12.6191 C   0  0  0  0  0  0  0  0  0  0  0  0
    7.8036   -4.4686  -12.1110 N   0  0  0  0  0  0  0  0  0  0  0  0
   11.5360   -4.0511  -12.5661 C   0  0  0  0  0  0  0  0  0  0  0  0
    8.2817   -6.6628  -12.1618 N   0  0  0  0  0  0  0  0  0  0  0  0
   10.1799   -3.6175  -12.4072 C   0  0  0  0  0  0  0  0  0  0  0  0
    5.8767   -6.0297  -11.8593 N   0  0  0  0  0  0  0  0  0  0  0  0
    9.1832   -4.6493  -12.2831 C   0  0  0  0  0  0  0  0  0  0  0  0
   12.5887  -10.6080  -12.2040 N   0  0  0  0  0  0  0  0  0  0  0  0
    9.5358   -6.0434  -12.3167 C   0  0  0  0  0  0  0  0  0  0  0  0
   10.9570   -6.4484  -12.4953 C   0  0  0  0  0  0  0  0  0  0  0  0
    7.2651   -5.7208  -12.0453 C   0  0  0  0  0  0  0  0  0  0  0  0
   11.3081   -7.9239  -12.5380 C   0  0  0  0  0  0  0  0  0  0  0  0
   12.7999   -8.2360  -12.4872 C   0  0  1  0  0  0  0  0  0  0  0  0
   13.6295   -7.0395  -12.1181 C   0  0  0  0  0  0  0  0  0  0  0  0
   13.0566   -9.4014  -11.5438 C   0  0  0  0  0  0  0  0  0  0  0  0
    8.0636   -8.1215  -12.2068 C   0  0  0  0  0  0  0  0  0  0  0  0
   13.6531  -11.1054  -13.0651 C   0  0  0  0  0  0  0  0  0  0  0  0
   12.2957  -11.5868  -11.1689 C   0  0  0  0  0  0  0  0  0  0  0  0
    7.3976   -8.7286  -10.9599 C   0  0  0  0  0  0  0  0  0  0  0  0
    7.0996  -10.2128  -11.2437 C   0  0  0  0  0  0  0  0  0  0  0  0
    5.8328  -12.0530  -10.3205 C   0  0  0  0  0  0  0  0  0  0  0  0
  1 23  1  0  0  0  0
  1 24  1  0  0  0  0
  1  2  1  0  0  0  0
  3  4  1  0  0  0  0
  3 17  1  0  0  0  0
  4  6  2  0  0  0  0
  4 13  1  0  0  0  0
  5 10  1  0  0  0  0
  5 14  2  0  0  0  0
  6  8  1  0  0  0  0
  7 12  1  0  0  0  0
  7 14  1  0  0  0  0
  7 19  1  0  0  0  0
  8 10  2  0  0  0  0
  9 14  1  0  0  0  0
 10 12  1  0  0  0  0
 11 18  1  0  0  0  0
 11 20  1  0  0  0  0
 11 21  1  0  0  0  0
 12 13  2  0  0  0  0
 13 15  1  0  0  0  0
 15 16  1  0  0  0  0
 16 17  1  0  0  0  0
 16 18  1  1  0  0  0
 19 22  1  0  0  0  0
 22 23  1  0  0  0  0
M  END
>  <CHROM.1>
-89.07345431,123.03346262,85.12765134,72.93571372,173.48285195,167.92239561
9.92719086,-7.91922786,-11.84202633,-2.39772300,0.19251649,-0.21653855

>  <Name>
ligand

>  <RI>
144

>  <Rbt.Current_Directory>
/home/itssahil/PROJECTS/Mol_Feturizer/New_Systems/rnas/3TZR

>  <Rbt.Executable>
rbdock ($Id: //depot/dev/client3/rdock/2013.1/src/exe/rbdock.cxx#4 $)

>  <Rbt.Library>
libRbt.so (2013.1, Build901 2013/11/27)

>  <Rbt.Parameter_File>
/export/apps/rDock/src/rDock_2013.1_src/data/scripts/dock_solv.prm

>  <Rbt.Receptor>
prm/pocket_docking_8.prm

>  <SCORE>
-36.3984

>  <SCORE.INTER>
-25.7607

>  <SCORE.INTER.CONST>
1

>  <SCORE.INTER.POLAR>
0

>  <SCORE.INTER.ROT>
6

>  <SCORE.INTER.SOLV>
20.3753

>  <SCORE.INTER.VDW>
-31.5656

>  <SCORE.INTER.norm>
-1.07336

>  <SCORE.INTRA>
-10.6377

>  <SCORE.INTRA.DIHEDRAL>
-0.4356

>  <SCORE.INTRA.DIHEDRAL.0>
4.94008

>  <SCORE.INTRA.POLAR>
0

>  <SCORE.INTRA.POLAR.0>
0

>  <SCORE.INTRA.REPUL>
0

>  <SCORE.INTRA.REPUL.0>
0

>  <SCORE.INTRA.SOLV>
0.780953

>  <SCORE.INTRA.SOLV.lig_0>
-31.4704

>  <SCORE.INTRA.VDW>
-10.8103

>  <SCORE.INTRA.VDW.0>
10.2807

>  <SCORE.INTRA.norm>
-0.443236

>  <SCORE.RESTR>
0

>  <SCORE.RESTR.CAVITY>
0

>  <SCORE.RESTR.norm>
0

>  <SCORE.SYSTEM>
0

>  <SCORE.SYSTEM.CONST>
0

>  <SCORE.SYSTEM.DIHEDRAL>
0

>  <SCORE.SYSTEM.SOLV>
0

>  <SCORE.SYSTEM.norm>
0

>  <SCORE.heavy>
24

>  <SCORE.norm>
-1.5166

>  <RMSD>
0.846

$$$$
ligand
 OpenBabel11021811493D
libRbt.so/2013.1/901 2013/11/27
 24 26  0  0  0  0  0  0  0  0999 V2000
    7.2354  -10.8730   -9.6494 N   0  0  0  0  0  0  0  0  0  0  0  0
    8.2891  -11.4928   -8.8622 C   0  0  0  0  0  0  0  0  0  0  0  0
   13.2136   -6.0408  -12.8503 O   0  0  0  0  0  0  0  0  0  0  0  0
   11.9043   -5.6052  -12.6959 C   0  0  0  0  0  0  0  0  0  0  0  0
    7.8150   -4.4438  -12.2630 N   0  0  0  0  0  0  0  0  0  0  0  0
   11.5569   -4.1406  -12.7290 C   0  0  0  0  0  0  0  0  0  0  0  0
    8.2416   -6.6478  -12.1843 N   0  0  0  0  0  0  0  0  0  0  0  0
   10.2112   -3.6670  -12.6002 C   0  0  0  0  0  0  0  0  0  0  0  0
    5.8514   -5.9422  -11.9273 N   0  0  0  0  0  0  0  0  0  0  0  0
    9.1902   -4.6662  -12.4196 C   0  0  0  0  0  0  0  0  0  0  0  0
   12.4100  -10.6786  -11.9618 N   0  0  0  0  0  0  0  0  0  0  0  0
    9.5101   -6.0678  -12.3708 C   0  0  0  0  0  0  0  0  0  0  0  0
   10.9218   -6.5155  -12.5207 C   0  0  0  0  0  0  0  0  0  0  0  0
    7.2471   -5.6772  -12.1263 C   0  0  0  0  0  0  0  0  0  0  0  0
   11.2383   -7.9987  -12.4762 C   0  0  0  0  0  0  0  0  0  0  0  0
   12.7223   -8.3420  -12.4023 C   0  0  1  0  0  0  0  0  0  0  0  0
   13.5789   -7.1457  -12.1007 C   0  0  0  0  0  0  0  0  0  0  0  0
   12.9497   -9.4561  -11.3918 C   0  0  0  0  0  0  0  0  0  0  0  0
    7.9894   -8.1011  -12.1450 C   0  0  0  0  0  0  0  0  0  0  0  0
   13.4269  -11.2782  -12.8152 C   0  0  0  0  0  0  0  0  0  0  0  0
   12.1018  -11.5758  -10.8593 C   0  0  0  0  0  0  0  0  0  0  0  0
    7.7015   -8.6841  -10.7507 C   0  0  0  0  0  0  0  0  0  0  0  0
    7.8043  -10.2185  -10.8362 C   0  0  0  0  0  0  0  0  0  0  0  0
    6.2802  -11.9097  -10.0237 C   0  0  0  0  0  0  0  0  0  0  0  0
  1 23  1  0  0  0  0
  1 24  1  0  0  0  0
  1  2  1  0  0  0  0
  3  4  1  0  0  0  0
  3 17  1  0  0  0  0
  4  6  2  0  0  0  0
  4 13  1  0  0  0  0
  5 10  1  0  0  0  0
  5 14  2  0  0  0  0
  6  8  1  0  0  0  0
  7 12  1  0  0  0  0
  7 14  1  0  0  0  0
  7 19  1  0  0  0  0
  8 10  2  0  0  0  0
  9 14  1  0  0  0  0
 10 12  1  0  0  0  0
 11 18  1  0  0  0  0
 11 20  1  0  0  0  0
 11 21  1  0  0  0  0
 12 13  2  0  0  0  0
 13 15  1  0  0  0  0
 15 16  1  0  0  0  0
 16 17  1  0  0  0  0
 16 18  1  1  0  0  0
 19 22  1  0  0  0  0
 22 23  1  0  0  0  0
M  END
>  <CHROM.1>
-111.12724562,105.78985627,85.02011470,70.85963607,-166.40171091,-166.27760735
9.98237455,-7.94518203,-11.75011672,1.91039194,-0.21079991,2.84588325

>  <Name>
ligand

>  <RI>
0

>  <Rbt.Current_Directory>
/home/itssahil/PROJECTS/Mol_Feturizer/New_Systems/rnas/3TZR

>  <Rbt.Executable>
rbdock ($Id: //depot/dev/client3/rdock/2013.1/src/exe/rbdock.cxx#4 $)

>  <Rbt.Library>
libRbt.so (2013.1, Build901 2013/11/27)

>  <Rbt.Parameter_File>
/export/apps/rDock/src/rDock_2013.1_src/data/scripts/dock_solv.prm

>  <Rbt.Receptor>
prm/pocket_docking_2.prm

>  <SCORE>
-36.7546

>  <SCORE.INTER>
-25.9057

>  <SCORE.INTER.CONST>
1

>  <SCORE.INTER.POLAR>
0

>  <SCORE.INTER.ROT>
6

>  <SCORE.INTER.SOLV>
20.7629

>  <SCORE.INTER.VDW>
-31.7914

>  <SCORE.INTER.norm>
-1.0794

>  <SCORE.INTRA>
-10.8489

>  <SCORE.INTRA.DIHEDRAL>
1.29741

>  <SCORE.INTRA.DIHEDRAL.0>
4.94008

>  <SCORE.INTRA.POLAR>
0

>  <SCORE.INTRA.POLAR.0>
0

>  <SCORE.INTRA.REPUL>
0

>  <SCORE.INTRA.REPUL.0>
0

>  <SCORE.INTRA.SOLV>
0.15722

>  <SCORE.INTRA.SOLV.lig_0>
-31.4704

>  <SCORE.INTRA.VDW>
-11.5762

>  <SCORE.INTRA.VDW.0>
10.2807

>  <SCORE.INTRA.norm>
-0.452037

>  <SCORE.RESTR>
0

>  <SCORE.RESTR.CAVITY>
0

>  <SCORE.RESTR.norm>
0

>  <SCORE.SYSTEM>
0

>  <SCORE.SYSTEM.CONST>
0

>  <SCORE.SYSTEM.DIHEDRAL>
0

>  <SCORE.SYSTEM.SOLV>
0

>  <SCORE.SYSTEM.norm>
0

>  <SCORE.heavy>
24

>  <SCORE.norm>
-1.53144

>  <RMSD>
0.847

$$$$
ligand
 OpenBabel11021811493D
libRbt.so/2013.1/901 2013/11/27
 24 26  0  0  0  0  0  0  0  0999 V2000
    6.5503  -10.9015  -10.0706 N   0  0  0  0  0  0  0  0  0  0  0  0
    7.5614  -11.7321   -9.4364 C   0  0  0  0  0  0  0  0  0  0  0  0
   13.2097   -5.9345  -12.7410 O   0  0  0  0  0  0  0  0  0  0  0  0
   11.8916   -5.5309  -12.5753 C   0  0  0  0  0  0  0  0  0  0  0  0
    7.7787   -4.4656  -12.1196 N   0  0  0  0  0  0  0  0  0  0  0  0
   11.5204   -4.0729  -12.5159 C   0  0  0  0  0  0  0  0  0  0  0  0
    8.2409   -6.6629  -12.1815 N   0  0  0  0  0  0  0  0  0  0  0  0
   10.1655   -3.6303  -12.3735 C   0  0  0  0  0  0  0  0  0  0  0  0
    5.8365   -6.0139  -11.9094 N   0  0  0  0  0  0  0  0  0  0  0  0
    9.1592   -4.6554  -12.2727 C   0  0  0  0  0  0  0  0  0  0  0  0
   12.5954  -10.6499  -12.2235 N   0  0  0  0  0  0  0  0  0  0  0  0
    9.5018   -6.0518  -12.3126 C   0  0  0  0  0  0  0  0  0  0  0  0
   10.9224   -6.4662  -12.4735 C   0  0  0  0  0  0  0  0  0  0  0  0
    7.2298   -5.7141  -12.0723 C   0  0  0  0  0  0  0  0  0  0  0  0
   11.2631   -7.9439  -12.5231 C   0  0  0  0  0  0  0  0  0  0  0  0
   12.7515   -8.2678  -12.4528 C   0  0  1  0  0  0  0  0  0  0  0  0
   13.5845   -7.0808  -12.0616 C   0  0  0  0  0  0  0  0  0  0  0  0
   12.9853   -9.4428  -11.5153 C   0  0  0  0  0  0  0  0  0  0  0  0
    8.0126   -8.1194  -12.2417 C   0  0  0  0  0  0  0  0  0  0  0  0
   13.7369  -11.1212  -12.9959 C   0  0  0  0  0  0  0  0  0  0  0  0
   12.2326  -11.6440  -11.2256 C   0  0  0  0  0  0  0  0  0  0  0  0
    7.4723   -8.7573  -10.9502 C   0  0  0  0  0  0  0  0  0  0  0  0
    7.1123  -10.2249  -11.2483 C   0  0  0  0  0  0  0  0  0  0  0  0
    5.4268  -11.7563  -10.4374 C   0  0  0  0  0  0  0  0  0  0  0  0
  1 23  1  0  0  0  0
  1 24  1  0  0  0  0
  1  2  1  0  0  0  0
  3  4  1  0  0  0  0
  3 17  1  0  0  0  0
  4  6  2  0  0  0  0
  4 13  1  0  0  0  0
  5 10  1  0  0  0  0
  5 14  2  0  0  0  0
  6  8  1  0  0  0  0
  7 12  1  0  0  0  0
  7 14  1  0  0  0  0
  7 19  1  0  0  0  0
  8 10  2  0  0  0  0
  9 14  1  0  0  0  0
 10 12  1  0  0  0  0
 11 18  1  0  0  0  0
 11 20  1  0  0  0  0
 11 21  1  0  0  0  0
 12 13  2  0  0  0  0
 13 15  1  0  0  0  0
 15 16  1  0  0  0  0
 16 17  1  0  0  0  0
 16 18  1  1  0  0  0
 19 22  1  0  0  0  0
 22 23  1  0  0  0  0
M  END
>  <CHROM.1>
-101.13944555,116.33585773,86.73180901,76.39622865,172.30199708,-178.40798441
9.86621793,-7.93204151,-11.84363782,-2.49574381,0.18257195,-0.20750448

>  <Name>
ligand

>  <RI>
0

>  <Rbt.Current_Directory>
/home/itssahil/PROJECTS/Mol_Feturizer/New_Systems/rnas/3TZR

>  <Rbt.Executable>
rbdock ($Id: //depot/dev/client3/rdock/2013.1/src/exe/rbdock.cxx#4 $)

>  <Rbt.Library>
libRbt.so (2013.1, Build901 2013/11/27)

>  <Rbt.Parameter_File>
/export/apps/rDock/src/rDock_2013.1_src/data/scripts/dock_solv.prm

>  <Rbt.Receptor>
prm/pocket_docking_4.prm

>  <SCORE>
-36.4674

>  <SCORE.INTER>
-25.6837

>  <SCORE.INTER.CONST>
1

>  <SCORE.INTER.POLAR>
0

>  <SCORE.INTER.ROT>
6

>  <SCORE.INTER.SOLV>
20.717

>  <SCORE.INTER.VDW>
-31.6281

>  <SCORE.INTER.norm>
-1.07015

>  <SCORE.INTRA>
-10.7837

>  <SCORE.INTRA.DIHEDRAL>
0.282556

>  <SCORE.INTRA.DIHEDRAL.0>
4.94008

>  <SCORE.INTRA.POLAR>
0

>  <SCORE.INTRA.POLAR.0>
0

>  <SCORE.INTRA.REPUL>
0

>  <SCORE.INTRA.REPUL.0>
0

>  <SCORE.INTRA.SOLV>
0.604681

>  <SCORE.INTRA.SOLV.lig_0>
-31.4704

>  <SCORE.INTRA.VDW>
-11.2273

>  <SCORE.INTRA.VDW.0>
10.2807

>  <SCORE.INTRA.norm>
-0.449321

>  <SCORE.RESTR>
0

>  <SCORE.RESTR.CAVITY>
0

>  <SCORE.RESTR.norm>
0

>  <SCORE.SYSTEM>
0

>  <SCORE.SYSTEM.CONST>
0

>  <SCORE.SYSTEM.DIHEDRAL>
0

>  <SCORE.SYSTEM.SOLV>
0

>  <SCORE.SYSTEM.norm>
0

>  <SCORE.heavy>
24

>  <SCORE.norm>
-1.51947

>  <RMSD>
0.847

$$$$
ligand
 OpenBabel11021811493D
libRbt.so/2013.1/901 2013/11/27
 24 26  0  0  0  0  0  0  0  0999 V2000
    6.7456  -10.9220   -9.9668 N   0  0  0  0  0  0  0  0  0  0  0  0
    7.8546  -11.5674   -9.2828 C   0  0  0  0  0  0  0  0  0  0  0  0
   13.2052   -5.9307  -12.8092 O   0  0  0  0  0  0  0  0  0  0  0  0
   11.8812   -5.5394  -12.6613 C   0  0  0  0  0  0  0  0  0  0  0  0
    7.7528   -4.5144  -12.2564 N   0  0  0  0  0  0  0  0  0  0  0  0
   11.4914   -4.0853  -12.6434 C   0  0  0  0  0  0  0  0  0  0  0  0
    8.2428   -6.7065  -12.2562 N   0  0  0  0  0  0  0  0  0  0  0  0
   10.1303   -3.6561  -12.5203 C   0  0  0  0  0  0  0  0  0  0  0  0
    5.8290   -6.0809  -12.0145 N   0  0  0  0  0  0  0  0  0  0  0  0
    9.1364   -4.6907  -12.3970 C   0  0  0  0  0  0  0  0  0  0  0  0
   12.5648  -10.6277  -12.1347 N   0  0  0  0  0  0  0  0  0  0  0  0
    9.4967   -6.0833  -12.3972 C   0  0  0  0  0  0  0  0  0  0  0  0
   10.9232   -6.4839  -12.5394 C   0  0  0  0  0  0  0  0  0  0  0  0
    7.2193   -5.7680  -12.1781 C   0  0  0  0  0  0  0  0  0  0  0  0
   11.2826   -7.9580  -12.5471 C   0  0  0  0  0  0  0  0  0  0  0  0
   12.7746   -8.2610  -12.4602 C   0  0  1  0  0  0  0  0  0  0  0  0
   13.5904   -7.0533  -12.0969 C   0  0  0  0  0  0  0  0  0  0  0  0
   13.0179   -9.4071  -11.4900 C   0  0  0  0  0  0  0  0  0  0  0  0
    8.0330   -8.1670  -12.2781 C   0  0  0  0  0  0  0  0  0  0  0  0
   13.6379  -11.1270  -12.9838 C   0  0  0  0  0  0  0  0  0  0  0  0
   12.2766  -11.5943  -11.0867 C   0  0  0  0  0  0  0  0  0  0  0  0
    7.6112   -8.7939  -10.9381 C   0  0  0  0  0  0  0  0  0  0  0  0
    7.2179  -10.2613  -11.1919 C   0  0  0  0  0  0  0  0  0  0  0  0
    5.7445  -11.9395  -10.2666 C   0  0  0  0  0  0  0  0  0  0  0  0
  1 23  1  0  0  0  0
  1 24  1  0  0  0  0
  1  2  1  0  0  0  0
  3  4  1  0  0  0  0
  3 17  1  0  0  0  0
  4  6  2  0  0  0  0
  4 13  1  0  0  0  0
  5 10  1  0  0  0  0
  5 14  2  0  0  0  0
  6  8  1  0  0  0  0
  7 12  1  0  0  0  0
  7 14  1  0  0  0  0
  7 19  1  0  0  0  0
  8 10  2  0  0  0  0
  9 14  1  0  0  0  0
 10 12  1  0  0  0  0
 11 18  1  0  0  0  0
 11 20  1  0  0  0  0
 11 21  1  0  0  0  0
 12 13  2  0  0  0  0
 13 15  1  0  0  0  0
 15 16  1  0  0  0  0
 16 17  1  0  0  0  0
 16 18  1  1  0  0  0
 19 22  1  0  0  0  0
 22 23  1  0  0  0  0
M  END
>  <CHROM.1>
-91.40966471,111.22771653,84.24094255,72.71612532,170.94136684,-177.59584024
9.90785926,-7.94701664,-11.85799065,-2.35777782,0.18160436,-0.24643319

>  <Name>
ligand

>  <RI>
0

>  <Rbt.Current_Directory>
/home/itssahil/PROJECTS/Mol_Feturizer/New_Systems/rnas/3TZR

>  <Rbt.Executable>
rbdock ($Id: //depot/dev/client3/rdock/2013.1/src/exe/rbdock.cxx#4 $)

>  <Rbt.Library>
libRbt.so (2013.1, Build901 2013/11/27)

>  <Rbt.Parameter_File>
/export/apps/rDock/src/rDock_2013.1_src/data/scripts/dock_solv.prm

>  <Rbt.Receptor>
prm/pocket_docking_3.prm

>  <SCORE>
-36.92

>  <SCORE.INTER>
-25.8748

>  <SCORE.INTER.CONST>
1

>  <SCORE.INTER.POLAR>
0

>  <SCORE.INTER.ROT>
6

>  <SCORE.INTER.SOLV>
20.863

>  <SCORE.INTER.VDW>
-31.8042

>  <SCORE.INTER.norm>
-1.07812

>  <SCORE.INTRA>
-11.0452

>  <SCORE.INTRA.DIHEDRAL>
-0.648105

>  <SCORE.INTRA.DIHEDRAL.0>
4.94008

>  <SCORE.INTRA.POLAR>
0

>  <SCORE.INTRA.POLAR.0>
0

>  <SCORE.INTRA.REPUL>
0

>  <SCORE.INTRA.REPUL.0>
0

>  <SCORE.INTRA.SOLV>
0.478777

>  <SCORE.INTRA.SOLV.lig_0>
-31.4704

>  <SCORE.INTRA.VDW>
-10.9606

>  <SCORE.INTRA.VDW.0>
10.2807

>  <SCORE.INTRA.norm>
-0.460219

>  <SCORE.RESTR>
0

>  <SCORE.RESTR.CAVITY>
0

>  <SCORE.RESTR.norm>
0

>  <SCORE.SYSTEM>
0

>  <SCORE.SYSTEM.CONST>
0

>  <SCORE.SYSTEM.DIHEDRAL>
0

>  <SCORE.SYSTEM.SOLV>
0

>  <SCORE.SYSTEM.norm>
0

>  <SCORE.heavy>
24

>  <SCORE.norm>
-1.53833

>  <RMSD>
0.848

$$$$
ligand
 OpenBabel11021811493D
libRbt.so/2013.1/901 2013/11/27
 24 26  0  0  0  0  0  0  0  0999 V2000
    6.8023  -10.9018   -9.9497 N   0  0  0  0  0  0  0  0  0  0  0  0
    7.9570  -11.4758   -9.2778 C   0  0  0  0  0  0  0  0  0  0  0  0
   13.2156   -5.8891  -12.7236 O   0  0  0  0  0  0  0  0  0  0  0  0
   11.8975   -5.4848  -12.5593 C   0  0  0  0  0  0  0  0  0  0  0  0
    7.7846   -4.4180  -12.1072 N   0  0  0  0  0  0  0  0  0  0  0  0
   11.5259   -4.0267  -12.5084 C   0  0  0  0  0  0  0  0  0  0  0  0
    8.2474   -6.6155  -12.1560 N   0  0  0  0  0  0  0  0  0  0  0  0
   10.1710   -3.5835  -12.3678 C   0  0  0  0  0  0  0  0  0  0  0  0
    5.8430   -5.9655  -11.8862 N   0  0  0  0  0  0  0  0  0  0  0  0
    9.1651   -4.6083  -12.2601 C   0  0  0  0  0  0  0  0  0  0  0  0
   12.6467  -10.6055  -12.1929 N   0  0  0  0  0  0  0  0  0  0  0  0
    9.5081   -6.0049  -12.2918 C   0  0  0  0  0  0  0  0  0  0  0  0
   10.9287   -6.4198  -12.4512 C   0  0  0  0  0  0  0  0  0  0  0  0
    7.2361   -5.6663  -12.0519 C   0  0  0  0  0  0  0  0  0  0  0  0
   11.2697   -7.8977  -12.4920 C   0  0  0  0  0  0  0  0  0  0  0  0
   12.7583   -8.2208  -12.4208 C   0  0  1  0  0  0  0  0  0  0  0  0
   13.5912   -7.0311  -12.0374 C   0  0  0  0  0  0  0  0  0  0  0  0
   12.9931   -9.3900  -11.4765 C   0  0  0  0  0  0  0  0  0  0  0  0
    8.0194   -8.0724  -12.2073 C   0  0  0  0  0  0  0  0  0  0  0  0
   13.8122  -11.0440  -12.9487 C   0  0  0  0  0  0  0  0  0  0  0  0
   12.2958  -11.6114  -11.2027 C   0  0  0  0  0  0  0  0  0  0  0  0
    7.4934   -8.7049  -10.9072 C   0  0  0  0  0  0  0  0  0  0  0  0
    7.2209  -10.1978  -11.1701 C   0  0  0  0  0  0  0  0  0  0  0  0
    5.8722  -11.9831  -10.2552 C   0  0  0  0  0  0  0  0  0  0  0  0
  1 23  1  0  0  0  0
  1 24  1  0  0  0  0
  1  2  1  0  0  0  0
  3  4  1  0  0  0  0
  3 17  1  0  0  0  0
  4  6  2  0  0  0  0
  4 13  1  0  0  0  0
  5 10  1  0  0  0  0
  5 14  2  0  0  0  0
  6  8  1  0  0  0  0
  7 12  1  0  0  0  0
  7 14  1  0  0  0  0
  7 19  1  0  0  0  0
  8 10  2  0  0  0  0
  9 14  1  0  0  0  0
 10 12  1  0  0  0  0
 11 18  1  0  0  0  0
 11 20  1  0  0  0  0
 11 21  1  0  0  0  0
 12 13  2  0  0  0  0
 13 15  1  0  0  0  0
 15 16  1  0  0  0  0
 16 17  1  0  0  0  0
 16 18  1  1  0  0  0
 19 22  1  0  0  0  0
 22 23  1  0  0  0  0
M  END
>  <CHROM.1>
-92.24301452,115.75781385,86.04779910,78.32723884,176.06502980,176.02513222
9.93382084,-7.88974190,-11.79897849,-2.36083043,0.19021552,-0.22407102

>  <Name>
ligand

>  <RI>
144

>  <Rbt.Current_Directory>
/home/itssahil/PROJECTS/Mol_Feturizer/New_Systems/rnas/3TZR

>  <Rbt.Executable>
rbdock ($Id: //depot/dev/client3/rdock/2013.1/src/exe/rbdock.cxx#4 $)

>  <Rbt.Library>
libRbt.so (2013.1, Build901 2013/11/27)

>  <Rbt.Parameter_File>
/export/apps/rDock/src/rDock_2013.1_src/data/scripts/dock_solv.prm

>  <Rbt.Receptor>
prm/pocket_docking_8.prm

>  <SCORE>
-36.9256

>  <SCORE.INTER>
-26.0044

>  <SCORE.INTER.CONST>
1

>  <SCORE.INTER.POLAR>
0

>  <SCORE.INTER.ROT>
6

>  <SCORE.INTER.SOLV>
20.7044

>  <SCORE.INTER.VDW>
-31.8377

>  <SCORE.INTER.norm>
-1.08352

>  <SCORE.INTRA>
-10.9212

>  <SCORE.INTRA.DIHEDRAL>
-0.186936

>  <SCORE.INTRA.DIHEDRAL.0>
4.94008

>  <SCORE.INTRA.POLAR>
0

>  <SCORE.INTRA.POLAR.0>
0

>  <SCORE.INTRA.REPUL>
0

>  <SCORE.INTRA.REPUL.0>
0

>  <SCORE.INTRA.SOLV>
0.529415

>  <SCORE.INTRA.SOLV.lig_0>
-31.4704

>  <SCORE.INTRA.VDW>
-11.0924

>  <SCORE.INTRA.VDW.0>
10.2807

>  <SCORE.INTRA.norm>
-0.455048

>  <SCORE.RESTR>
0

>  <SCORE.RESTR.CAVITY>
0

>  <SCORE.RESTR.norm>
0

>  <SCORE.SYSTEM>
0

>  <SCORE.SYSTEM.CONST>
0

>  <SCORE.SYSTEM.DIHEDRAL>
0

>  <SCORE.SYSTEM.SOLV>
0

>  <SCORE.SYSTEM.norm>
0

>  <SCORE.heavy>
24

>  <SCORE.norm>
-1.53856

>  <RMSD>
0.848

$$$$
ligand
 OpenBabel11021811493D
libRbt.so/2013.1/901 2013/11/27
 24 26  0  0  0  0  0  0  0  0999 V2000
    7.8634  -11.2456  -10.0149 N   0  0  0  0  0  0  0  0  0  0  0  0
    6.4487  -11.1459  -10.3359 C   0  0  0  0  0  0  0  0  0  0  0  0
   13.2611   -6.2631  -12.8529 O   0  0  0  0  0  0  0  0  0  0  0  0
   11.9960   -5.7684  -12.5658 C   0  0  0  0  0  0  0  0  0  0  0  0
    8.0289   -4.4185  -11.7296 N   0  0  0  0  0  0  0  0  0  0  0  0
   11.7340   -4.2881  -12.4825 C   0  0  0  0  0  0  0  0  0  0  0  0
    8.3298   -6.6428  -11.8183 N   0  0  0  0  0  0  0  0  0  0  0  0
   10.4328   -3.7519  -12.2155 C   0  0  0  0  0  0  0  0  0  0  0  0
    6.0130   -5.8274  -11.3241 N   0  0  0  0  0  0  0  0  0  0  0  0
    9.3721   -4.7042  -12.0117 C   0  0  0  0  0  0  0  0  0  0  0  0
   12.9034  -10.9435  -12.4073 N   0  0  0  0  0  0  0  0  0  0  0  0
    9.6117   -6.1212  -12.0733 C   0  0  0  0  0  0  0  0  0  0  0  0
   10.9784   -6.6338  -12.3653 C   0  0  0  0  0  0  0  0  0  0  0  0
    7.4019   -5.6257  -11.6208 C   0  0  0  0  0  0  0  0  0  0  0  0
   11.2095   -8.1317  -12.4357 C   0  0  0  0  0  0  0  0  0  0  0  0
   12.6719   -8.5585  -12.5046 C   0  0  1  0  0  0  0  0  0  0  0  0
   13.6186   -7.4320  -12.2034 C   0  0  0  0  0  0  0  0  0  0  0  0
   12.9120   -9.7460  -11.5847 C   0  0  0  0  0  0  0  0  0  0  0  0
    7.9963   -8.0799  -11.8455 C   0  0  0  0  0  0  0  0  0  0  0  0
   14.2434  -11.1464  -12.9411 C   0  0  0  0  0  0  0  0  0  0  0  0
   12.5416  -12.0606  -11.5489 C   0  0  0  0  0  0  0  0  0  0  0  0
    8.1178   -8.8118  -10.4978 C   0  0  0  0  0  0  0  0  0  0  0  0
    8.6282  -10.2400  -10.7661 C   0  0  0  0  0  0  0  0  0  0  0  0
    8.0156  -11.0600   -8.5762 C   0  0  0  0  0  0  0  0  0  0  0  0
  1 23  1  0  0  0  0
  1 24  1  0  0  0  0
  1  2  1  0  0  0  0
  3  4  1  0  0  0  0
  3 17  1  0  0  0  0
  4  6  2  0  0  0  0
  4 13  1  0  0  0  0
  5 10  1  0  0  0  0
  5 14  2  0  0  0  0
  6  8  1  0  0  0  0
  7 12  1  0  0  0  0
  7 14  1  0  0  0  0
  7 19  1  0  0  0  0
  8 10  2  0  0  0  0
  9 14  1  0  0  0  0
 10 12  1  0  0  0  0
 11 18  1  0  0  0  0
 11 20  1  0  0  0  0
 11 21  1  0  0  0  0
 12 13  2  0  0  0  0
 13 15  1  0  0  0  0
 15 16  1  0  0  0  0
 16 17  1  0  0  0  0
 16 18  1  1  0  0  0
 19 22  1  0  0  0  0
 22 23  1  0  0  0  0
M  END
>  <CHROM.1>
56.78614375,91.62420407,86.01702886,99.49724728,-144.31944735,-134.26507753
10.19179117,-8.00315860,-11.66958623,0.80366169,-0.29612947,2.92050747

>  <Name>
ligand

>  <RI>
0

>  <Rbt.Current_Directory>
/home/itssahil/PROJECTS/Mol_Feturizer/New_Systems/rnas/3TZR

>  <Rbt.Executable>
rbdock ($Id: //depot/dev/client3/rdock/2013.1/src/exe/rbdock.cxx#4 $)

>  <Rbt.Library>
libRbt.so (2013.1, Build901 2013/11/27)

>  <Rbt.Parameter_File>
/export/apps/rDock/src/rDock_2013.1_src/data/scripts/dock_solv.prm

>  <Rbt.Receptor>
prm/pocket_docking_4.prm

>  <SCORE>
-25.5737

>  <SCORE.INTER>
-23.0511

>  <SCORE.INTER.CONST>
1

>  <SCORE.INTER.POLAR>
0

>  <SCORE.INTER.ROT>
6

>  <SCORE.INTER.SOLV>
20.3547

>  <SCORE.INTER.VDW>
-29.7523

>  <SCORE.INTER.norm>
-0.960463

>  <SCORE.INTRA>
-2.52261

>  <SCORE.INTRA.DIHEDRAL>
9.5036

>  <SCORE.INTRA.DIHEDRAL.0>
4.94008

>  <SCORE.INTRA.POLAR>
0

>  <SCORE.INTRA.POLAR.0>
0

>  <SCORE.INTRA.REPUL>
0

>  <SCORE.INTRA.REPUL.0>
0

>  <SCORE.INTRA.SOLV>
-0.0790182

>  <SCORE.INTRA.SOLV.lig_0>
-31.4704

>  <SCORE.INTRA.VDW>
-7.2349

>  <SCORE.INTRA.VDW.0>
10.2807

>  <SCORE.INTRA.norm>
-0.105109

>  <SCORE.RESTR>
0

>  <SCORE.RESTR.CAVITY>
0

>  <SCORE.RESTR.norm>
0

>  <SCORE.SYSTEM>
0

>  <SCORE.SYSTEM.CONST>
0

>  <SCORE.SYSTEM.DIHEDRAL>
0

>  <SCORE.SYSTEM.SOLV>
0

>  <SCORE.SYSTEM.norm>
0

>  <SCORE.heavy>
24

>  <SCORE.norm>
-1.06557

>  <RMSD>
0.849

$$$$
ligand
 OpenBabel11021811493D
libRbt.so/2013.1/901 2013/11/27
 24 26  0  0  0  0  0  0  0  0999 V2000
    7.1426  -10.8138   -9.9638 N   0  0  0  0  0  0  0  0  0  0  0  0
    8.3406  -11.5511   -9.5957 C   0  0  0  0  0  0  0  0  0  0  0  0
   13.8331   -7.6968  -12.9009 O   0  0  0  0  0  0  0  0  0  0  0  0
   12.7588   -6.8571  -12.6394 C   0  0  0  0  0  0  0  0  0  0  0  0
    9.3336   -4.4140  -11.8925 N   0  0  0  0  0  0  0  0  0  0  0  0
   12.9434   -5.3694  -12.4989 C   0  0  0  0  0  0  0  0  0  0  0  0
    8.9659   -6.6228  -12.0707 N   0  0  0  0  0  0  0  0  0  0  0  0
   11.8479   -4.4787  -12.2570 C   0  0  0  0  0  0  0  0  0  0  0  0
    6.9733   -5.1704  -11.6273 N   0  0  0  0  0  0  0  0  0  0  0  0
   10.5440   -5.0777  -12.1366 C   0  0  0  0  0  0  0  0  0  0  0  0
   13.3997  -11.9281  -12.2280 N   0  0  0  0  0  0  0  0  0  0  0  0
   10.3558   -6.4990  -12.2534 C   0  0  0  0  0  0  0  0  0  0  0  0
   11.5219   -7.3859  -12.5167 C   0  0  0  0  0  0  0  0  0  0  0  0
    8.3724   -5.3823  -11.8622 C   0  0  0  0  0  0  0  0  0  0  0  0
   11.3021   -8.8816  -12.6463 C   0  0  0  0  0  0  0  0  0  0  0  0
   12.5739   -9.7223  -12.6795 C   0  0  1  0  0  0  0  0  0  0  0  0
   13.7957   -8.9394  -12.2921 C   0  0  0  0  0  0  0  0  0  0  0  0
   12.4056  -10.9563  -11.8060 C   0  0  0  0  0  0  0  0  0  0  0  0
    8.2234   -7.8936  -12.1755 C   0  0  0  0  0  0  0  0  0  0  0  0
   13.7726  -12.7373  -11.0757 C   0  0  0  0  0  0  0  0  0  0  0  0
   12.7847  -12.7701  -13.2420 C   0  0  0  0  0  0  0  0  0  0  0  0
    8.0801   -8.6851  -10.8641 C   0  0  0  0  0  0  0  0  0  0  0  0
    7.3846  -10.0228  -11.1787 C   0  0  0  0  0  0  0  0  0  0  0  0
    6.0634  -11.7743  -10.1640 C   0  0  0  0  0  0  0  0  0  0  0  0
  1 23  1  0  0  0  0
  1 24  1  0  0  0  0
  1  2  1  0  0  0  0
  3  4  1  0  0  0  0
  3 17  1  0  0  0  0
  4  6  2  0  0  0  0
  4 13  1  0  0  0  0
  5 10  1  0  0  0  0
  5 14  2  0  0  0  0
  6  8  1  0  0  0  0
  7 12  1  0  0  0  0
  7 14  1  0  0  0  0
  7 19  1  0  0  0  0
  8 10  2  0  0  0  0
  9 14  1  0  0  0  0
 10 12  1  0  0  0  0
 11 18  1  0  0  0  0
 11 20  1  0  0  0  0
 11 21  1  0  0  0  0
 12 13  2  0  0  0  0
 13 15  1  0  0  0  0
 15 16  1  0  0  0  0
 16 17  1  0  0  0  0
 16 18  1  1  0  0  0
 19 22  1  0  0  0  0
 22 23  1  0  0  0  0
M  END
>  <CHROM.1>
-82.56147131,90.45779563,149.74554139,160.15590879,-175.53471143,-176.94524959
10.51189527,-8.54933498,-11.83101127,1.03168284,-0.27207600,2.98361529

>  <Name>
ligand

>  <RI>
0

>  <Rbt.Current_Directory>
/home/itssahil/PROJECTS/Mol_Feturizer/New_Systems/rnas/3TZR

>  <Rbt.Executable>
rbdock ($Id: //depot/dev/client3/rdock/2013.1/src/exe/rbdock.cxx#4 $)

>  <Rbt.Library>
libRbt.so (2013.1, Build901 2013/11/27)

>  <Rbt.Parameter_File>
/export/apps/rDock/src/rDock_2013.1_src/data/scripts/dock_solv.prm

>  <Rbt.Receptor>
prm/pocket_docking_7.prm

>  <SCORE>
-35.3003

>  <SCORE.INTER>
-24.0707

>  <SCORE.INTER.CONST>
1

>  <SCORE.INTER.POLAR>
0

>  <SCORE.INTER.ROT>
6

>  <SCORE.INTER.SOLV>
20.3102

>  <SCORE.INTER.VDW>
-30.4172

>  <SCORE.INTER.norm>
-1.00295

>  <SCORE.INTRA>
-11.2296

>  <SCORE.INTRA.DIHEDRAL>
-0.123681

>  <SCORE.INTRA.DIHEDRAL.0>
4.94008

>  <SCORE.INTRA.POLAR>
0

>  <SCORE.INTRA.POLAR.0>
0

>  <SCORE.INTRA.REPUL>
0

>  <SCORE.INTRA.REPUL.0>
0

>  <SCORE.INTRA.SOLV>
-0.1086

>  <SCORE.INTRA.SOLV.lig_0>
-31.4704

>  <SCORE.INTRA.VDW>
-11.1134

>  <SCORE.INTRA.VDW.0>
10.2807

>  <SCORE.INTRA.norm>
-0.467899

>  <SCORE.RESTR>
0

>  <SCORE.RESTR.CAVITY>
0

>  <SCORE.RESTR.norm>
0

>  <SCORE.SYSTEM>
0

>  <SCORE.SYSTEM.CONST>
0

>  <SCORE.SYSTEM.DIHEDRAL>
0

>  <SCORE.SYSTEM.SOLV>
0

>  <SCORE.SYSTEM.norm>
0

>  <SCORE.heavy>
24

>  <SCORE.norm>
-1.47084

>  <RMSD>
0.850

$$$$
ligand
 OpenBabel11021811493D
libRbt.so/2013.1/901 2013/11/27
 24 26  0  0  0  0  0  0  0  0999 V2000
    6.6036  -10.8849  -10.0334 N   0  0  0  0  0  0  0  0  0  0  0  0
    7.4372  -11.9184   -9.4407 C   0  0  0  0  0  0  0  0  0  0  0  0
   13.1973   -5.9804  -12.7682 O   0  0  0  0  0  0  0  0  0  0  0  0
   11.8857   -5.5573  -12.5990 C   0  0  0  0  0  0  0  0  0  0  0  0
    7.7902   -4.4318  -12.1316 N   0  0  0  0  0  0  0  0  0  0  0  0
   11.5353   -4.0940  -12.5455 C   0  0  0  0  0  0  0  0  0  0  0  0
    8.2211   -6.6357  -12.1841 N   0  0  0  0  0  0  0  0  0  0  0  0
   10.1874   -3.6315  -12.3997 C   0  0  0  0  0  0  0  0  0  0  0  0
    5.8272   -5.9513  -11.9053 N   0  0  0  0  0  0  0  0  0  0  0  0
    9.1672   -4.6418  -12.2895 C   0  0  0  0  0  0  0  0  0  0  0  0
   12.3758  -10.6611  -12.1620 N   0  0  0  0  0  0  0  0  0  0  0  0
    9.4899   -6.0431  -12.3236 C   0  0  0  0  0  0  0  0  0  0  0  0
   10.9038   -6.4783  -12.4884 C   0  0  0  0  0  0  0  0  0  0  0  0
    7.2239   -5.6721  -12.0755 C   0  0  0  0  0  0  0  0  0  0  0  0
   11.2234   -7.9610  -12.5318 C   0  0  0  0  0  0  0  0  0  0  0  0
   12.7074   -8.3055  -12.4661 C   0  0  1  0  0  0  0  0  0  0  0  0
   13.5587   -7.1284  -12.0845 C   0  0  0  0  0  0  0  0  0  0  0  0
   12.9286   -9.4789  -11.5237 C   0  0  0  0  0  0  0  0  0  0  0  0
    7.9719   -8.0891  -12.2359 C   0  0  0  0  0  0  0  0  0  0  0  0
   13.3474  -11.1633  -13.1241 C   0  0  0  0  0  0  0  0  0  0  0  0
   12.1533  -11.6548  -11.1235 C   0  0  0  0  0  0  0  0  0  0  0  0
    7.4394   -8.7148  -10.9353 C   0  0  0  0  0  0  0  0  0  0  0  0
    7.3116  -10.2352  -11.1457 C   0  0  0  0  0  0  0  0  0  0  0  0
    5.3644  -11.5069  -10.4862 C   0  0  0  0  0  0  0  0  0  0  0  0
  1 23  1  0  0  0  0
  1 24  1  0  0  0  0
  1  2  1  0  0  0  0
  3  4  1  0  0  0  0
  3 17  1  0  0  0  0
  4  6  2  0  0  0  0
  4 13  1  0  0  0  0
  5 10  1  0  0  0  0
  5 14  2  0  0  0  0
  6  8  1  0  0  0  0
  7 12  1  0  0  0  0
  7 14  1  0  0  0  0
  7 19  1  0  0  0  0
  8 10  2  0  0  0  0
  9 14  1  0  0  0  0
 10 12  1  0  0  0  0
 11 18  1  0  0  0  0
 11 20  1  0  0  0  0
 11 21  1  0  0  0  0
 12 13  2  0  0  0  0
 13 15  1  0  0  0  0
 15 16  1  0  0  0  0
 16 17  1  0  0  0  0
 16 18  1  1  0  0  0
 19 22  1  0  0  0  0
 22 23  1  0  0  0  0
M  END
>  <CHROM.1>
-122.61684721,115.84573272,81.00774227,69.88564022,-176.96077809,-170.60460763
9.82613577,-7.93131406,-11.84639241,-2.40485407,0.18978609,-0.21078534

>  <Name>
ligand

>  <RI>
0

>  <Rbt.Current_Directory>
/home/itssahil/PROJECTS/Mol_Feturizer/New_Systems/rnas/3TZR

>  <Rbt.Executable>
rbdock ($Id: //depot/dev/client3/rdock/2013.1/src/exe/rbdock.cxx#4 $)

>  <Rbt.Library>
libRbt.so (2013.1, Build901 2013/11/27)

>  <Rbt.Parameter_File>
/export/apps/rDock/src/rDock_2013.1_src/data/scripts/dock_solv.prm

>  <Rbt.Receptor>
prm/blind_docking_80.prm

>  <SCORE>
-36.2429

>  <SCORE.INTER>
-25.4771

>  <SCORE.INTER.CONST>
1

>  <SCORE.INTER.POLAR>
0

>  <SCORE.INTER.ROT>
6

>  <SCORE.INTER.SOLV>
21.0582

>  <SCORE.INTER.VDW>
-31.6041

>  <SCORE.INTER.norm>
-1.06155

>  <SCORE.INTRA>
-10.7658

>  <SCORE.INTRA.DIHEDRAL>
0.0690627

>  <SCORE.INTRA.DIHEDRAL.0>
4.94008

>  <SCORE.INTRA.POLAR>
0

>  <SCORE.INTRA.POLAR.0>
0

>  <SCORE.INTRA.REPUL>
0

>  <SCORE.INTRA.REPUL.0>
0

>  <SCORE.INTRA.SOLV>
0.456182

>  <SCORE.INTRA.SOLV.lig_0>
-31.4704

>  <SCORE.INTRA.VDW>
-11.0285

>  <SCORE.INTRA.VDW.0>
10.2807

>  <SCORE.INTRA.norm>
-0.448577

>  <SCORE.RESTR>
0

>  <SCORE.RESTR.CAVITY>
0

>  <SCORE.RESTR.norm>
0

>  <SCORE.SYSTEM>
0

>  <SCORE.SYSTEM.CONST>
0

>  <SCORE.SYSTEM.DIHEDRAL>
0

>  <SCORE.SYSTEM.SOLV>
0

>  <SCORE.SYSTEM.norm>
0

>  <SCORE.heavy>
24

>  <SCORE.norm>
-1.51012

>  <RMSD>
0.851

$$$$
ligand
 OpenBabel11021811493D
libRbt.so/2013.1/901 2013/11/27
 24 26  0  0  0  0  0  0  0  0999 V2000
    7.1842  -11.0837  -11.0819 N   0  0  0  0  0  0  0  0  0  0  0  0
    5.9783  -11.7227  -11.5837 C   0  0  0  0  0  0  0  0  0  0  0  0
   13.2266   -6.2633  -12.8655 O   0  0  0  0  0  0  0  0  0  0  0  0
   11.9332   -5.7827  -12.7104 C   0  0  0  0  0  0  0  0  0  0  0  0
    7.8869   -4.4814  -12.2715 N   0  0  0  0  0  0  0  0  0  0  0  0
   11.6336   -4.3082  -12.7655 C   0  0  0  0  0  0  0  0  0  0  0  0
    8.2420   -6.6965  -12.1592 N   0  0  0  0  0  0  0  0  0  0  0  0
   10.3048   -3.7888  -12.6362 C   0  0  0  0  0  0  0  0  0  0  0  0
    5.8779   -5.9092  -11.8992 N   0  0  0  0  0  0  0  0  0  0  0  0
    9.2531   -4.7511  -12.4329 C   0  0  0  0  0  0  0  0  0  0  0  0
   12.7736  -10.9130  -12.0511 N   0  0  0  0  0  0  0  0  0  0  0  0
    9.5275   -6.1614  -12.3630 C   0  0  0  0  0  0  0  0  0  0  0  0
   10.9228   -6.6574  -12.5142 C   0  0  0  0  0  0  0  0  0  0  0  0
    7.2801   -5.6931  -12.1111 C   0  0  0  0  0  0  0  0  0  0  0  0
   11.1912   -8.1493  -12.4471 C   0  0  0  0  0  0  0  0  0  0  0  0
   12.6636   -8.5396  -12.3767 C   0  0  1  0  0  0  0  0  0  0  0  0
   13.5608   -7.3672  -12.1002 C   0  0  0  0  0  0  0  0  0  0  0  0
   12.8613   -9.6440  -11.3494 C   0  0  0  0  0  0  0  0  0  0  0  0
    7.9429   -8.1400  -12.0944 C   0  0  0  0  0  0  0  0  0  0  0  0
   14.0406  -11.1549  -12.7279 C   0  0  0  0  0  0  0  0  0  0  0  0
   12.5425  -11.9478  -11.0554 C   0  0  0  0  0  0  0  0  0  0  0  0
    8.0369   -8.7719  -10.6949 C   0  0  0  0  0  0  0  0  0  0  0  0
    6.8665   -9.7593  -10.5292 C   0  0  0  0  0  0  0  0  0  0  0  0
    7.7695  -11.9536  -10.0681 C   0  0  0  0  0  0  0  0  0  0  0  0
  1 23  1  0  0  0  0
  1 24  1  0  0  0  0
  1  2  1  0  0  0  0
  3  4  1  0  0  0  0
  3 17  1  0  0  0  0
  4  6  2  0  0  0  0
  4 13  1  0  0  0  0
  5 10  1  0  0  0  0
  5 14  2  0  0  0  0
  6  8  1  0  0  0  0
  7 12  1  0  0  0  0
  7 14  1  0  0  0  0
  7 19  1  0  0  0  0
  8 10  2  0  0  0  0
  9 14  1  0  0  0  0
 10 12  1  0  0  0  0
 11 18  1  0  0  0  0
 11 20  1  0  0  0  0
 11 21  1  0  0  0  0
 12 13  2  0  0  0  0
 13 15  1  0  0  0  0
 15 16  1  0  0  0  0
 16 17  1  0  0  0  0
 16 18  1  1  0  0  0
 19 22  1  0  0  0  0
 22 23  1  0  0  0  0
M  END
>  <CHROM.1>
-148.94434057,89.24165991,78.82722046,92.57153266,139.38648750,85.03971533
9.98608099,-8.04843834,-11.92682586,-2.96607564,0.14084807,-0.19928314

>  <Name>
ligand

>  <RI>
0

>  <Rbt.Current_Directory>
/home/itssahil/PROJECTS/Mol_Feturizer/New_Systems/rnas/3TZR

>  <Rbt.Executable>
rbdock ($Id: //depot/dev/client3/rdock/2013.1/src/exe/rbdock.cxx#4 $)

>  <Rbt.Library>
libRbt.so (2013.1, Build901 2013/11/27)

>  <Rbt.Parameter_File>
/export/apps/rDock/src/rDock_2013.1_src/data/scripts/dock_solv.prm

>  <Rbt.Receptor>
prm/pocket_docking_2.prm

>  <SCORE>
-31.2166

>  <SCORE.INTER>
-24.2253

>  <SCORE.INTER.CONST>
1

>  <SCORE.INTER.POLAR>
0

>  <SCORE.INTER.ROT>
6

>  <SCORE.INTER.SOLV>
20.0338

>  <SCORE.INTER.VDW>
-30.4281

>  <SCORE.INTER.norm>
-1.00939

>  <SCORE.INTRA>
-7.05061

>  <SCORE.INTRA.DIHEDRAL>
7.37781

>  <SCORE.INTRA.DIHEDRAL.0>
4.94008

>  <SCORE.INTRA.POLAR>
0

>  <SCORE.INTRA.POLAR.0>
0

>  <SCORE.INTRA.REPUL>
0

>  <SCORE.INTRA.REPUL.0>
0

>  <SCORE.INTRA.SOLV>
0.470438

>  <SCORE.INTRA.SOLV.lig_0>
-31.4704

>  <SCORE.INTRA.VDW>
-10.9747

>  <SCORE.INTRA.VDW.0>
10.2807

>  <SCORE.INTRA.norm>
-0.293775

>  <SCORE.RESTR>
0.0592654

>  <SCORE.RESTR.CAVITY>
0.0592654

>  <SCORE.RESTR.norm>
0.00246939

>  <SCORE.SYSTEM>
0

>  <SCORE.SYSTEM.CONST>
0

>  <SCORE.SYSTEM.DIHEDRAL>
0

>  <SCORE.SYSTEM.SOLV>
0

>  <SCORE.SYSTEM.norm>
0

>  <SCORE.heavy>
24

>  <SCORE.norm>
-1.30069

>  <RMSD>
0.851

$$$$
ligand
 OpenBabel11021811493D
libRbt.so/2013.1/901 2013/11/27
 24 26  0  0  0  0  0  0  0  0999 V2000
    6.4969  -10.9055  -10.1305 N   0  0  0  0  0  0  0  0  0  0  0  0
    7.4716  -11.7573   -9.4681 C   0  0  0  0  0  0  0  0  0  0  0  0
   13.2227   -5.9667  -12.7410 O   0  0  0  0  0  0  0  0  0  0  0  0
   11.9062   -5.5559  -12.5802 C   0  0  0  0  0  0  0  0  0  0  0  0
    7.7974   -4.4682  -12.1401 N   0  0  0  0  0  0  0  0  0  0  0  0
   11.5429   -4.0960  -12.5206 C   0  0  0  0  0  0  0  0  0  0  0  0
    8.2477   -6.6680  -12.2026 N   0  0  0  0  0  0  0  0  0  0  0  0
   10.1899   -3.6459  -12.3833 C   0  0  0  0  0  0  0  0  0  0  0  0
    5.8458   -6.0058  -11.9396 N   0  0  0  0  0  0  0  0  0  0  0  0
    9.1775   -4.6655  -12.2878 C   0  0  0  0  0  0  0  0  0  0  0  0
   12.4615  -10.6625  -12.1822 N   0  0  0  0  0  0  0  0  0  0  0  0
    9.5125   -6.0638  -12.3279 C   0  0  0  0  0  0  0  0  0  0  0  0
   10.9314   -6.4859  -12.4834 C   0  0  0  0  0  0  0  0  0  0  0  0
    7.2414   -5.7137  -12.0964 C   0  0  0  0  0  0  0  0  0  0  0  0
   11.2640   -7.9655  -12.5333 C   0  0  0  0  0  0  0  0  0  0  0  0
   12.7503   -8.2978  -12.4573 C   0  0  1  0  0  0  0  0  0  0  0  0
   13.5883   -7.1158  -12.0613 C   0  0  0  0  0  0  0  0  0  0  0  0
   12.9737   -9.4751  -11.5202 C   0  0  0  0  0  0  0  0  0  0  0  0
    8.0114   -8.1232  -12.2654 C   0  0  0  0  0  0  0  0  0  0  0  0
   13.5194  -11.2202  -13.0138 C   0  0  0  0  0  0  0  0  0  0  0  0
   12.0954  -11.6163  -11.1469 C   0  0  0  0  0  0  0  0  0  0  0  0
    7.3906   -8.7467  -11.0034 C   0  0  0  0  0  0  0  0  0  0  0  0
    7.1090  -10.2343  -11.2861 C   0  0  0  0  0  0  0  0  0  0  0  0
    5.3705  -11.7379  -10.5376 C   0  0  0  0  0  0  0  0  0  0  0  0
  1 23  1  0  0  0  0
  1 24  1  0  0  0  0
  1  2  1  0  0  0  0
  3  4  1  0  0  0  0
  3 17  1  0  0  0  0
  4  6  2  0  0  0  0
  4 13  1  0  0  0  0
  5 10  1  0  0  0  0
  5 14  2  0  0  0  0
  6  8  1  0  0  0  0
  7 12  1  0  0  0  0
  7 14  1  0  0  0  0
  7 19  1  0  0  0  0
  8 10  2  0  0  0  0
  9 14  1  0  0  0  0
 10 12  1  0  0  0  0
 11 18  1  0  0  0  0
 11 20  1  0  0  0  0
 11 21  1  0  0  0  0
 12 13  2  0  0  0  0
 13 15  1  0  0  0  0
 15 16  1  0  0  0  0
 16 17  1  0  0  0  0
 16 18  1  1  0  0  0
 19 22  1  0  0  0  0
 22 23  1  0  0  0  0
M  END
>  <CHROM.1>
-105.34895120,119.53192738,87.22232928,71.04682242,175.40145504,-179.32017522
9.83736984,-7.94686905,-11.85956897,-2.45850839,0.17561473,-0.20332000

>  <Name>
ligand

>  <RI>
0

>  <Rbt.Current_Directory>
/home/itssahil/PROJECTS/Mol_Feturizer/New_Systems/rnas/3TZR

>  <Rbt.Executable>
rbdock ($Id: //depot/dev/client3/rdock/2013.1/src/exe/rbdock.cxx#4 $)

>  <Rbt.Library>
libRbt.so (2013.1, Build901 2013/11/27)

>  <Rbt.Parameter_File>
/export/apps/rDock/src/rDock_2013.1_src/data/scripts/dock_solv.prm

>  <Rbt.Receptor>
prm/pocket_docking_3.prm

>  <SCORE>
-36.5409

>  <SCORE.INTER>
-25.6038

>  <SCORE.INTER.CONST>
1

>  <SCORE.INTER.POLAR>
0

>  <SCORE.INTER.ROT>
6

>  <SCORE.INTER.SOLV>
20.7626

>  <SCORE.INTER.VDW>
-31.59

>  <SCORE.INTER.norm>
-1.06682

>  <SCORE.INTRA>
-10.9371

>  <SCORE.INTRA.DIHEDRAL>
-0.118186

>  <SCORE.INTRA.DIHEDRAL.0>
4.94008

>  <SCORE.INTRA.POLAR>
0

>  <SCORE.INTRA.POLAR.0>
0

>  <SCORE.INTRA.REPUL>
0

>  <SCORE.INTRA.REPUL.0>
0

>  <SCORE.INTRA.SOLV>
0.658412

>  <SCORE.INTRA.SOLV.lig_0>
-31.4704

>  <SCORE.INTRA.VDW>
-11.2073

>  <SCORE.INTRA.VDW.0>
10.2807

>  <SCORE.INTRA.norm>
-0.455714

>  <SCORE.RESTR>
0

>  <SCORE.RESTR.CAVITY>
0

>  <SCORE.RESTR.norm>
0

>  <SCORE.SYSTEM>
0

>  <SCORE.SYSTEM.CONST>
0

>  <SCORE.SYSTEM.DIHEDRAL>
0

>  <SCORE.SYSTEM.SOLV>
0

>  <SCORE.SYSTEM.norm>
0

>  <SCORE.heavy>
24

>  <SCORE.norm>
-1.52254

>  <RMSD>
0.851

$$$$
ligand
 OpenBabel11021811493D
libRbt.so/2013.1/901 2013/11/27
 24 26  0  0  0  0  0  0  0  0999 V2000
    6.7913  -10.9311   -9.8907 N   0  0  0  0  0  0  0  0  0  0  0  0
    7.8085  -11.7168   -9.2109 C   0  0  0  0  0  0  0  0  0  0  0  0
   13.1887   -5.8882  -12.7585 O   0  0  0  0  0  0  0  0  0  0  0  0
   11.8690   -5.4954  -12.5803 C   0  0  0  0  0  0  0  0  0  0  0  0
    7.7520   -4.4646  -12.0832 N   0  0  0  0  0  0  0  0  0  0  0  0
   11.4841   -4.0405  -12.5344 C   0  0  0  0  0  0  0  0  0  0  0  0
    8.2352   -6.6579  -12.1233 N   0  0  0  0  0  0  0  0  0  0  0  0
   10.1268   -3.6093  -12.3796 C   0  0  0  0  0  0  0  0  0  0  0  0
    5.8283   -6.0289  -11.8273 N   0  0  0  0  0  0  0  0  0  0  0  0
    9.1323   -4.6428  -12.2523 C   0  0  0  0  0  0  0  0  0  0  0  0
   12.5351  -10.5908  -12.1335 N   0  0  0  0  0  0  0  0  0  0  0  0
    9.4882   -6.0362  -12.2790 C   0  0  0  0  0  0  0  0  0  0  0  0
   10.9105   -6.4387  -12.4537 C   0  0  0  0  0  0  0  0  0  0  0  0
    7.2163   -5.7177  -12.0126 C   0  0  0  0  0  0  0  0  0  0  0  0
   11.2652   -7.9136  -12.4890 C   0  0  0  0  0  0  0  0  0  0  0  0
   12.7576   -8.2220  -12.4346 C   0  0  1  0  0  0  0  0  0  0  0  0
   13.5838   -7.0219  -12.0696 C   0  0  0  0  0  0  0  0  0  0  0  0
   13.0155   -9.3825  -11.4855 C   0  0  0  0  0  0  0  0  0  0  0  0
    8.0206   -8.1172  -12.1620 C   0  0  0  0  0  0  0  0  0  0  0  0
   13.5631  -11.0622  -13.0516 C   0  0  0  0  0  0  0  0  0  0  0  0
   12.3104  -11.5839  -11.0949 C   0  0  0  0  0  0  0  0  0  0  0  0
    7.4838   -8.7406  -10.8619 C   0  0  0  0  0  0  0  0  0  0  0  0
    7.3657  -10.2625  -11.0669 C   0  0  0  0  0  0  0  0  0  0  0  0
    5.7047  -11.8274  -10.2695 C   0  0  0  0  0  0  0  0  0  0  0  0
  1 23  1  0  0  0  0
  1 24  1  0  0  0  0
  1  2  1  0  0  0  0
  3  4  1  0  0  0  0
  3 17  1  0  0  0  0
  4  6  2  0  0  0  0
  4 13  1  0  0  0  0
  5 10  1  0  0  0  0
  5 14  2  0  0  0  0
  6  8  1  0  0  0  0
  7 12  1  0  0  0  0
  7 14  1  0  0  0  0
  7 19  1  0  0  0  0
  8 10  2  0  0  0  0
  9 14  1  0  0  0  0
 10 12  1  0  0  0  0
 11 18  1  0  0  0  0
 11 20  1  0  0  0  0
 11 21  1  0  0  0  0
 12 13  2  0  0  0  0
 13 15  1  0  0  0  0
 15 16  1  0  0  0  0
 16 17  1  0  0  0  0
 16 18  1  1  0  0  0
 19 22  1  0  0  0  0
 22 23  1  0  0  0  0
M  END
>  <CHROM.1>
-109.38150587,117.21341327,82.26297584,72.18958253,-178.16113054,-177.01973414
9.89816834,-7.91339086,-11.78197970,-2.34949612,0.19804350,-0.22946677

>  <Name>
ligand

>  <RI>
0

>  <Rbt.Current_Directory>
/home/itssahil/PROJECTS/Mol_Feturizer/New_Systems/rnas/3TZR

>  <Rbt.Executable>
rbdock ($Id: //depot/dev/client3/rdock/2013.1/src/exe/rbdock.cxx#4 $)

>  <Rbt.Library>
libRbt.so (2013.1, Build901 2013/11/27)

>  <Rbt.Parameter_File>
/export/apps/rDock/src/rDock_2013.1_src/data/scripts/dock_solv.prm

>  <Rbt.Receptor>
prm/pocket_docking_2.prm

>  <SCORE>
-36.5835

>  <SCORE.INTER>
-25.6703

>  <SCORE.INTER.CONST>
1

>  <SCORE.INTER.POLAR>
0

>  <SCORE.INTER.ROT>
6

>  <SCORE.INTER.SOLV>
20.5477

>  <SCORE.INTER.VDW>
-31.5628

>  <SCORE.INTER.norm>
-1.0696

>  <SCORE.INTRA>
-10.9132

>  <SCORE.INTRA.DIHEDRAL>
-0.191498

>  <SCORE.INTRA.DIHEDRAL.0>
4.94008

>  <SCORE.INTRA.POLAR>
0

>  <SCORE.INTRA.POLAR.0>
0

>  <SCORE.INTRA.REPUL>
0

>  <SCORE.INTRA.REPUL.0>
0

>  <SCORE.INTRA.SOLV>
0.505324

>  <SCORE.INTRA.SOLV.lig_0>
-31.4704

>  <SCORE.INTRA.VDW>
-11.0701

>  <SCORE.INTRA.VDW.0>
10.2807

>  <SCORE.INTRA.norm>
-0.454716

>  <SCORE.RESTR>
0

>  <SCORE.RESTR.CAVITY>
0

>  <SCORE.RESTR.norm>
0

>  <SCORE.SYSTEM>
0

>  <SCORE.SYSTEM.CONST>
0

>  <SCORE.SYSTEM.DIHEDRAL>
0

>  <SCORE.SYSTEM.SOLV>
0

>  <SCORE.SYSTEM.norm>
0

>  <SCORE.heavy>
24

>  <SCORE.norm>
-1.52431

>  <RMSD>
0.852

$$$$
ligand
 OpenBabel11021811493D
libRbt.so/2013.1/901 2013/11/27
 24 26  0  0  0  0  0  0  0  0999 V2000
    6.7680  -10.9754   -9.9920 N   0  0  0  0  0  0  0  0  0  0  0  0
    7.9186  -11.5098   -9.2815 C   0  0  0  0  0  0  0  0  0  0  0  0
   13.1966   -5.9028  -12.8329 O   0  0  0  0  0  0  0  0  0  0  0  0
   11.8756   -5.5169  -12.6494 C   0  0  0  0  0  0  0  0  0  0  0  0
    7.7552   -4.5075  -12.1370 N   0  0  0  0  0  0  0  0  0  0  0  0
   11.4842   -4.0641  -12.5948 C   0  0  0  0  0  0  0  0  0  0  0  0
    8.2483   -6.6983  -12.1900 N   0  0  0  0  0  0  0  0  0  0  0  0
   10.1254   -3.6399  -12.4345 C   0  0  0  0  0  0  0  0  0  0  0  0
    5.8392   -6.0819  -11.8850 N   0  0  0  0  0  0  0  0  0  0  0  0
    9.1358   -4.6786  -12.3104 C   0  0  0  0  0  0  0  0  0  0  0  0
   12.9685  -10.6255  -12.3622 N   0  0  0  0  0  0  0  0  0  0  0  0
    9.4980   -6.0702  -12.3454 C   0  0  0  0  0  0  0  0  0  0  0  0
   10.9217   -6.4653  -12.5256 C   0  0  0  0  0  0  0  0  0  0  0  0
    7.2253   -5.7634  -12.0719 C   0  0  0  0  0  0  0  0  0  0  0  0
   11.2829   -7.9383  -12.5697 C   0  0  0  0  0  0  0  0  0  0  0  0
   12.7769   -8.2402  -12.5204 C   0  0  1  0  0  0  0  0  0  0  0  0
   13.5985   -7.0384  -12.1510 C   0  0  0  0  0  0  0  0  0  0  0  0
   13.0423   -9.4046  -11.5782 C   0  0  0  0  0  0  0  0  0  0  0  0
    8.0401   -8.1584  -12.2360 C   0  0  0  0  0  0  0  0  0  0  0  0
   14.2569  -10.8384  -13.0076 C   0  0  0  0  0  0  0  0  0  0  0  0
   12.6921  -11.7187  -11.4435 C   0  0  0  0  0  0  0  0  0  0  0  0
    7.5350   -8.7951  -10.9298 C   0  0  0  0  0  0  0  0  0  0  0  0
    7.2015  -10.2728  -11.2081 C   0  0  0  0  0  0  0  0  0  0  0  0
    5.8772  -12.0853  -10.3113 C   0  0  0  0  0  0  0  0  0  0  0  0
  1 23  1  0  0  0  0
  1 24  1  0  0  0  0
  1  2  1  0  0  0  0
  3  4  1  0  0  0  0
  3 17  1  0  0  0  0
  4  6  2  0  0  0  0
  4 13  1  0  0  0  0
  5 10  1  0  0  0  0
  5 14  2  0  0  0  0
  6  8  1  0  0  0  0
  7 12  1  0  0  0  0
  7 14  1  0  0  0  0
  7 19  1  0  0  0  0
  8 10  2  0  0  0  0
  9 14  1  0  0  0  0
 10 12  1  0  0  0  0
 11 18  1  0  0  0  0
 11 20  1  0  0  0  0
 11 21  1  0  0  0  0
 12 13  2  0  0  0  0
 13 15  1  0  0  0  0
 15 16  1  0  0  0  0
 16 17  1  0  0  0  0
 16 18  1  1  0  0  0
 19 22  1  0  0  0  0
 22 23  1  0  0  0  0
M  END
>  <CHROM.1>
-87.61684673,116.09006207,83.43811319,89.76822305,172.75539416,177.37281876
9.98033687,-7.93755931,-11.86909726,-2.59043793,0.19911966,-0.22619386

>  <Name>
ligand

>  <RI>
0

>  <Rbt.Current_Directory>
/home/itssahil/PROJECTS/Mol_Feturizer/New_Systems/rnas/3TZR

>  <Rbt.Executable>
rbdock ($Id: //depot/dev/client3/rdock/2013.1/src/exe/rbdock.cxx#4 $)

>  <Rbt.Library>
libRbt.so (2013.1, Build901 2013/11/27)

>  <Rbt.Parameter_File>
/export/apps/rDock/src/rDock_2013.1_src/data/scripts/dock_solv.prm

>  <Rbt.Receptor>
prm/pocket_docking_4.prm

>  <SCORE>
-36.1958

>  <SCORE.INTER>
-26.1462

>  <SCORE.INTER.CONST>
1

>  <SCORE.INTER.POLAR>
0

>  <SCORE.INTER.ROT>
6

>  <SCORE.INTER.SOLV>
20.5506

>  <SCORE.INTER.VDW>
-31.881

>  <SCORE.INTER.norm>
-1.08942

>  <SCORE.INTRA>
-10.0496

>  <SCORE.INTRA.DIHEDRAL>
0.901365

>  <SCORE.INTRA.DIHEDRAL.0>
4.94008

>  <SCORE.INTRA.POLAR>
0

>  <SCORE.INTRA.POLAR.0>
0

>  <SCORE.INTRA.REPUL>
0

>  <SCORE.INTRA.REPUL.0>
0

>  <SCORE.INTRA.SOLV>
0.578864

>  <SCORE.INTRA.SOLV.lig_0>
-31.4704

>  <SCORE.INTRA.VDW>
-10.7897

>  <SCORE.INTRA.VDW.0>
10.2807

>  <SCORE.INTRA.norm>
-0.418734

>  <SCORE.RESTR>
0

>  <SCORE.RESTR.CAVITY>
0

>  <SCORE.RESTR.norm>
0

>  <SCORE.SYSTEM>
0

>  <SCORE.SYSTEM.CONST>
0

>  <SCORE.SYSTEM.DIHEDRAL>
0

>  <SCORE.SYSTEM.SOLV>
0

>  <SCORE.SYSTEM.norm>
0

>  <SCORE.heavy>
24

>  <SCORE.norm>
-1.50816

>  <RMSD>
0.853

$$$$
ligand
 OpenBabel11021811493D
libRbt.so/2013.1/901 2013/11/27
 24 26  0  0  0  0  0  0  0  0999 V2000
    6.6938  -10.9055   -9.9816 N   0  0  0  0  0  0  0  0  0  0  0  0
    7.7947  -11.5091   -9.2481 C   0  0  0  0  0  0  0  0  0  0  0  0
   13.2068   -5.9205  -12.8107 O   0  0  0  0  0  0  0  0  0  0  0  0
   11.8857   -5.5237  -12.6524 C   0  0  0  0  0  0  0  0  0  0  0  0
    7.7649   -4.4812  -12.2154 N   0  0  0  0  0  0  0  0  0  0  0  0
   11.5026   -4.0678  -12.6285 C   0  0  0  0  0  0  0  0  0  0  0  0
    8.2452   -6.6754  -12.2235 N   0  0  0  0  0  0  0  0  0  0  0  0
   10.1443   -3.6328  -12.4945 C   0  0  0  0  0  0  0  0  0  0  0  0
    5.8359   -6.0396  -11.9630 N   0  0  0  0  0  0  0  0  0  0  0  0
    9.1467   -4.6633  -12.3664 C   0  0  0  0  0  0  0  0  0  0  0  0
   12.5486  -10.6158  -12.1412 N   0  0  0  0  0  0  0  0  0  0  0  0
    9.5008   -6.0575  -12.3723 C   0  0  0  0  0  0  0  0  0  0  0  0
   10.9244   -6.4641  -12.5256 C   0  0  0  0  0  0  0  0  0  0  0  0
    7.2265   -5.7326  -12.1360 C   0  0  0  0  0  0  0  0  0  0  0  0
   11.2771   -7.9397  -12.5391 C   0  0  0  0  0  0  0  0  0  0  0  0
   12.7684   -8.2496  -12.4637 C   0  0  1  0  0  0  0  0  0  0  0  0
   13.5922   -7.0464  -12.1037 C   0  0  0  0  0  0  0  0  0  0  0  0
   13.0135   -9.3990  -11.4979 C   0  0  0  0  0  0  0  0  0  0  0  0
    8.0287   -8.1349  -12.2472 C   0  0  0  0  0  0  0  0  0  0  0  0
   13.6360  -11.1574  -12.9451 C   0  0  0  0  0  0  0  0  0  0  0  0
   12.1968  -11.5584  -11.0909 C   0  0  0  0  0  0  0  0  0  0  0  0
    7.4652   -8.7402  -10.9499 C   0  0  0  0  0  0  0  0  0  0  0  0
    7.1938  -10.2369  -11.1914 C   0  0  0  0  0  0  0  0  0  0  0  0
    5.7403  -11.9578  -10.3144 C   0  0  0  0  0  0  0  0  0  0  0  0
  1 23  1  0  0  0  0
  1 24  1  0  0  0  0
  1  2  1  0  0  0  0
  3  4  1  0  0  0  0
  3 17  1  0  0  0  0
  4  6  2  0  0  0  0
  4 13  1  0  0  0  0
  5 10  1  0  0  0  0
  5 14  2  0  0  0  0
  6  8  1  0  0  0  0
  7 12  1  0  0  0  0
  7 14  1  0  0  0  0
  7 19  1  0  0  0  0
  8 10  2  0  0  0  0
  9 14  1  0  0  0  0
 10 12  1  0  0  0  0
 11 18  1  0  0  0  0
 11 20  1  0  0  0  0
 11 21  1  0  0  0  0
 12 13  2  0  0  0  0
 13 15  1  0  0  0  0
 15 16  1  0  0  0  0
 16 17  1  0  0  0  0
 16 18  1  1  0  0  0
 19 22  1  0  0  0  0
 22 23  1  0  0  0  0
M  END
>  <CHROM.1>
-94.06424770,117.69242582,87.19270636,72.64012234,175.32301948,178.05556659
9.89311053,-7.92604866,-11.84632264,-2.37402493,0.18451105,-0.23934298

>  <Name>
ligand

>  <RI>
0

>  <Rbt.Current_Directory>
/home/itssahil/PROJECTS/Mol_Feturizer/New_Systems/rnas/3TZR

>  <Rbt.Executable>
rbdock ($Id: //depot/dev/client3/rdock/2013.1/src/exe/rbdock.cxx#4 $)

>  <Rbt.Library>
libRbt.so (2013.1, Build901 2013/11/27)

>  <Rbt.Parameter_File>
/export/apps/rDock/src/rDock_2013.1_src/data/scripts/dock_solv.prm

>  <Rbt.Receptor>
prm/pocket_docking_2.prm

>  <SCORE>
-36.7628

>  <SCORE.INTER>
-25.6687

>  <SCORE.INTER.CONST>
1

>  <SCORE.INTER.POLAR>
0

>  <SCORE.INTER.ROT>
6

>  <SCORE.INTER.SOLV>
20.7478

>  <SCORE.INTER.VDW>
-31.6284

>  <SCORE.INTER.norm>
-1.06953

>  <SCORE.INTRA>
-11.0941

>  <SCORE.INTRA.DIHEDRAL>
-0.58146

>  <SCORE.INTRA.DIHEDRAL.0>
4.94008

>  <SCORE.INTRA.POLAR>
0

>  <SCORE.INTRA.POLAR.0>
0

>  <SCORE.INTRA.REPUL>
0

>  <SCORE.INTRA.REPUL.0>
0

>  <SCORE.INTRA.SOLV>
0.602954

>  <SCORE.INTRA.SOLV.lig_0>
-31.4704

>  <SCORE.INTRA.VDW>
-11.1049

>  <SCORE.INTRA.VDW.0>
10.2807

>  <SCORE.INTRA.norm>
-0.462255

>  <SCORE.RESTR>
0

>  <SCORE.RESTR.CAVITY>
0

>  <SCORE.RESTR.norm>
0

>  <SCORE.SYSTEM>
0

>  <SCORE.SYSTEM.CONST>
0

>  <SCORE.SYSTEM.DIHEDRAL>
0

>  <SCORE.SYSTEM.SOLV>
0

>  <SCORE.SYSTEM.norm>
0

>  <SCORE.heavy>
24

>  <SCORE.norm>
-1.53178

>  <RMSD>
0.857

$$$$
ligand
 OpenBabel11021811493D
libRbt.so/2013.1/901 2013/11/27
 24 26  0  0  0  0  0  0  0  0999 V2000
    6.6383  -10.8894  -10.0147 N   0  0  0  0  0  0  0  0  0  0  0  0
    7.4280  -11.9619   -9.4312 C   0  0  0  0  0  0  0  0  0  0  0  0
   13.1904   -5.9642  -12.7457 O   0  0  0  0  0  0  0  0  0  0  0  0
   11.8770   -5.5448  -12.5821 C   0  0  0  0  0  0  0  0  0  0  0  0
    7.7764   -4.4307  -12.1315 N   0  0  0  0  0  0  0  0  0  0  0  0
   11.5216   -4.0824  -12.5360 C   0  0  0  0  0  0  0  0  0  0  0  0
    8.2148   -6.6334  -12.1731 N   0  0  0  0  0  0  0  0  0  0  0  0
   10.1718   -3.6237  -12.3962 C   0  0  0  0  0  0  0  0  0  0  0  0
    5.8179   -5.9558  -11.9043 N   0  0  0  0  0  0  0  0  0  0  0  0
    9.1546   -4.6369  -12.2845 C   0  0  0  0  0  0  0  0  0  0  0  0
   12.5212  -10.6670  -12.1811 N   0  0  0  0  0  0  0  0  0  0  0  0
    9.4820   -6.0373  -12.3116 C   0  0  0  0  0  0  0  0  0  0  0  0
   10.8978   -6.4685  -12.4703 C   0  0  0  0  0  0  0  0  0  0  0  0
    7.2141   -5.6727  -12.0717 C   0  0  0  0  0  0  0  0  0  0  0  0
   11.2224   -7.9503  -12.5063 C   0  0  0  0  0  0  0  0  0  0  0  0
   12.7074   -8.2896  -12.4348 C   0  0  1  0  0  0  0  0  0  0  0  0
   13.5536   -7.1080  -12.0558 C   0  0  0  0  0  0  0  0  0  0  0  0
   12.9297   -9.4582  -11.4865 C   0  0  0  0  0  0  0  0  0  0  0  0
    7.9705   -8.0879  -12.2193 C   0  0  0  0  0  0  0  0  0  0  0  0
   13.6455  -11.1464  -12.9736 C   0  0  0  0  0  0  0  0  0  0  0  0
   12.1744  -11.6550  -11.1715 C   0  0  0  0  0  0  0  0  0  0  0  0
    7.4897   -8.7191  -10.9013 C   0  0  0  0  0  0  0  0  0  0  0  0
    7.3840  -10.2423  -11.1036 C   0  0  0  0  0  0  0  0  0  0  0  0
    5.3858  -11.4602  -10.4974 C   0  0  0  0  0  0  0  0  0  0  0  0
  1 23  1  0  0  0  0
  1 24  1  0  0  0  0
  1  2  1  0  0  0  0
  3  4  1  0  0  0  0
  3 17  1  0  0  0  0
  4  6  2  0  0  0  0
  4 13  1  0  0  0  0
  5 10  1  0  0  0  0
  5 14  2  0  0  0  0
  6  8  1  0  0  0  0
  7 12  1  0  0  0  0
  7 14  1  0  0  0  0
  7 19  1  0  0  0  0
  8 10  2  0  0  0  0
  9 14  1  0  0  0  0
 10 12  1  0  0  0  0
 11 18  1  0  0  0  0
 11 20  1  0  0  0  0
 11 21  1  0  0  0  0
 12 13  2  0  0  0  0
 13 15  1  0  0  0  0
 15 16  1  0  0  0  0
 16 17  1  0  0  0  0
 16 18  1  1  0  0  0
 19 22  1  0  0  0  0
 22 23  1  0  0  0  0
M  END
>  <CHROM.1>
-125.89213562,113.51093811,85.64754896,76.19688934,-176.01672165,-166.53597243
9.84972012,-7.92578275,-11.82850324,-2.44064901,0.18606072,-0.21499189

>  <Name>
ligand

>  <RI>
0

>  <Rbt.Current_Directory>
/home/itssahil/PROJECTS/Mol_Feturizer/New_Systems/rnas/3TZR

>  <Rbt.Executable>
rbdock ($Id: //depot/dev/client3/rdock/2013.1/src/exe/rbdock.cxx#4 $)

>  <Rbt.Library>
libRbt.so (2013.1, Build901 2013/11/27)

>  <Rbt.Parameter_File>
/export/apps/rDock/src/rDock_2013.1_src/data/scripts/dock_solv.prm

>  <Rbt.Receptor>
prm/pocket_docking_2.prm

>  <SCORE>
-36.1478

>  <SCORE.INTER>
-25.5571

>  <SCORE.INTER.CONST>
1

>  <SCORE.INTER.POLAR>
0

>  <SCORE.INTER.ROT>
6

>  <SCORE.INTER.SOLV>
20.9718

>  <SCORE.INTER.VDW>
-31.6287

>  <SCORE.INTER.norm>
-1.06488

>  <SCORE.INTRA>
-10.5907

>  <SCORE.INTRA.DIHEDRAL>
1.18639

>  <SCORE.INTRA.DIHEDRAL.0>
4.94008

>  <SCORE.INTRA.POLAR>
0

>  <SCORE.INTRA.POLAR.0>
0

>  <SCORE.INTRA.REPUL>
0

>  <SCORE.INTRA.REPUL.0>
0

>  <SCORE.INTRA.SOLV>
0.369345

>  <SCORE.INTRA.SOLV.lig_0>
-31.4704

>  <SCORE.INTRA.VDW>
-11.3685

>  <SCORE.INTRA.VDW.0>
10.2807

>  <SCORE.INTRA.norm>
-0.441278

>  <SCORE.RESTR>
0

>  <SCORE.RESTR.CAVITY>
0

>  <SCORE.RESTR.norm>
0

>  <SCORE.SYSTEM>
0

>  <SCORE.SYSTEM.CONST>
0

>  <SCORE.SYSTEM.DIHEDRAL>
0

>  <SCORE.SYSTEM.SOLV>
0

>  <SCORE.SYSTEM.norm>
0

>  <SCORE.heavy>
24

>  <SCORE.norm>
-1.50616

>  <RMSD>
0.857

$$$$
ligand
 OpenBabel11021811493D
libRbt.so/2013.1/901 2013/11/27
 24 26  0  0  0  0  0  0  0  0999 V2000
    6.9503  -10.9228   -9.8566 N   0  0  0  0  0  0  0  0  0  0  0  0
    7.9999  -11.5222   -9.0483 C   0  0  0  0  0  0  0  0  0  0  0  0
   13.1975   -5.8986  -12.7590 O   0  0  0  0  0  0  0  0  0  0  0  0
   11.8808   -5.4946  -12.5835 C   0  0  0  0  0  0  0  0  0  0  0  0
    7.7718   -4.4287  -12.0952 N   0  0  0  0  0  0  0  0  0  0  0  0
   11.5085   -4.0365  -12.5364 C   0  0  0  0  0  0  0  0  0  0  0  0
    8.2360   -6.6260  -12.1375 N   0  0  0  0  0  0  0  0  0  0  0  0
   10.1547   -3.5937  -12.3843 C   0  0  0  0  0  0  0  0  0  0  0  0
    5.8338   -5.9765  -11.8466 N   0  0  0  0  0  0  0  0  0  0  0  0
    9.1508   -4.6186  -12.2611 C   0  0  0  0  0  0  0  0  0  0  0  0
   12.5074  -10.5972  -12.1457 N   0  0  0  0  0  0  0  0  0  0  0  0
    9.4946   -6.0151  -12.2891 C   0  0  0  0  0  0  0  0  0  0  0  0
   10.9139   -6.4297  -12.4608 C   0  0  0  0  0  0  0  0  0  0  0  0
    7.2250   -5.6771  -12.0279 C   0  0  0  0  0  0  0  0  0  0  0  0
   11.2557   -7.9076  -12.4975 C   0  0  0  0  0  0  0  0  0  0  0  0
   12.7453   -8.2291  -12.4398 C   0  0  1  0  0  0  0  0  0  0  0  0
   13.5810   -7.0368  -12.0709 C   0  0  0  0  0  0  0  0  0  0  0  0
   12.9906   -9.3932  -11.4918 C   0  0  0  0  0  0  0  0  0  0  0  0
    8.0087   -8.0834  -12.1789 C   0  0  0  0  0  0  0  0  0  0  0  0
   13.5753  -11.1290  -12.9815 C   0  0  0  0  0  0  0  0  0  0  0  0
   12.1741  -11.5563  -11.1042 C   0  0  0  0  0  0  0  0  0  0  0  0
    7.5107   -8.7119  -10.8660 C   0  0  0  0  0  0  0  0  0  0  0  0
    7.5312  -10.2439  -11.0236 C   0  0  0  0  0  0  0  0  0  0  0  0
    6.0316  -11.9804  -10.2626 C   0  0  0  0  0  0  0  0  0  0  0  0
  1 23  1  0  0  0  0
  1 24  1  0  0  0  0
  1  2  1  0  0  0  0
  3  4  1  0  0  0  0
  3 17  1  0  0  0  0
  4  6  2  0  0  0  0
  4 13  1  0  0  0  0
  5 10  1  0  0  0  0
  5 14  2  0  0  0  0
  6  8  1  0  0  0  0
  7 12  1  0  0  0  0
  7 14  1  0  0  0  0
  7 19  1  0  0  0  0
  8 10  2  0  0  0  0
  9 14  1  0  0  0  0
 10 12  1  0  0  0  0
 11 18  1  0  0  0  0
 11 20  1  0  0  0  0
 11 21  1  0  0  0  0
 12 13  2  0  0  0  0
 13 15  1  0  0  0  0
 15 16  1  0  0  0  0
 16 17  1  0  0  0  0
 16 18  1  1  0  0  0
 19 22  1  0  0  0  0
 22 23  1  0  0  0  0
M  END
>  <CHROM.1>
-105.56565112,115.13350797,86.51128789,72.46650570,-171.62230745,-174.66015871
9.93279516,-7.90199639,-11.77425702,2.18871566,-0.20369257,2.90383282

>  <Name>
ligand

>  <RI>
0

>  <Rbt.Current_Directory>
/home/itssahil/PROJECTS/Mol_Feturizer/New_Systems/rnas/3TZR

>  <Rbt.Executable>
rbdock ($Id: //depot/dev/client3/rdock/2013.1/src/exe/rbdock.cxx#4 $)

>  <Rbt.Library>
libRbt.so (2013.1, Build901 2013/11/27)

>  <Rbt.Parameter_File>
/export/apps/rDock/src/rDock_2013.1_src/data/scripts/dock_solv.prm

>  <Rbt.Receptor>
prm/pocket_docking_2.prm

>  <SCORE>
-36.9443

>  <SCORE.INTER>
-25.9074

>  <SCORE.INTER.CONST>
1

>  <SCORE.INTER.POLAR>
0

>  <SCORE.INTER.ROT>
6

>  <SCORE.INTER.SOLV>
20.6504

>  <SCORE.INTER.VDW>
-31.7551

>  <SCORE.INTER.norm>
-1.07948

>  <SCORE.INTRA>
-11.0369

>  <SCORE.INTRA.DIHEDRAL>
0.271918

>  <SCORE.INTRA.DIHEDRAL.0>
4.94008

>  <SCORE.INTRA.POLAR>
0

>  <SCORE.INTRA.POLAR.0>
0

>  <SCORE.INTRA.REPUL>
0

>  <SCORE.INTRA.REPUL.0>
0

>  <SCORE.INTRA.SOLV>
0.366085

>  <SCORE.INTRA.SOLV.lig_0>
-31.4704

>  <SCORE.INTRA.VDW>
-11.3559

>  <SCORE.INTRA.VDW.0>
10.2807

>  <SCORE.INTRA.norm>
-0.45987

>  <SCORE.RESTR>
0

>  <SCORE.RESTR.CAVITY>
0

>  <SCORE.RESTR.norm>
0

>  <SCORE.SYSTEM>
0

>  <SCORE.SYSTEM.CONST>
0

>  <SCORE.SYSTEM.DIHEDRAL>
0

>  <SCORE.SYSTEM.SOLV>
0

>  <SCORE.SYSTEM.norm>
0

>  <SCORE.heavy>
24

>  <SCORE.norm>
-1.53935

>  <RMSD>
0.858

$$$$
ligand
 OpenBabel11021811493D
libRbt.so/2013.1/901 2013/11/27
 24 26  0  0  0  0  0  0  0  0999 V2000
    6.7481  -10.9199   -9.9704 N   0  0  0  0  0  0  0  0  0  0  0  0
    7.9182  -11.4967   -9.3281 C   0  0  0  0  0  0  0  0  0  0  0  0
   13.1713   -5.8988  -12.7529 O   0  0  0  0  0  0  0  0  0  0  0  0
   11.8473   -5.5064  -12.6088 C   0  0  0  0  0  0  0  0  0  0  0  0
    7.7186   -4.4772  -12.2170 N   0  0  0  0  0  0  0  0  0  0  0  0
   11.4599   -4.0517  -12.5826 C   0  0  0  0  0  0  0  0  0  0  0  0
    8.2050   -6.6701  -12.2299 N   0  0  0  0  0  0  0  0  0  0  0  0
   10.0989   -3.6211  -12.4631 C   0  0  0  0  0  0  0  0  0  0  0  0
    5.7910   -6.0420  -11.9957 N   0  0  0  0  0  0  0  0  0  0  0  0
    9.1027   -4.6549  -12.3521 C   0  0  0  0  0  0  0  0  0  0  0  0
   12.6134  -10.6104  -12.1510 N   0  0  0  0  0  0  0  0  0  0  0  0
    9.4606   -6.0480  -12.3603 C   0  0  0  0  0  0  0  0  0  0  0  0
   10.8872   -6.4500  -12.4982 C   0  0  0  0  0  0  0  0  0  0  0  0
    7.1827   -5.7304  -12.1502 C   0  0  0  0  0  0  0  0  0  0  0  0
   11.2441   -7.9246  -12.5146 C   0  0  0  0  0  0  0  0  0  0  0  0
   12.7352   -8.2308  -12.4225 C   0  0  1  0  0  0  0  0  0  0  0  0
   13.5512   -7.0271  -12.0467 C   0  0  0  0  0  0  0  0  0  0  0  0
   12.9717   -9.3841  -11.4592 C   0  0  0  0  0  0  0  0  0  0  0  0
    7.9929   -8.1300  -12.2632 C   0  0  0  0  0  0  0  0  0  0  0  0
   13.7806  -11.0868  -12.8807 C   0  0  0  0  0  0  0  0  0  0  0  0
   12.2324  -11.5860  -11.1418 C   0  0  0  0  0  0  0  0  0  0  0  0
    7.5533   -8.7641  -10.9322 C   0  0  0  0  0  0  0  0  0  0  0  0
    7.1365  -10.2217  -11.2041 C   0  0  0  0  0  0  0  0  0  0  0  0
    5.8056  -11.9982  -10.2469 C   0  0  0  0  0  0  0  0  0  0  0  0
  1 23  1  0  0  0  0
  1 24  1  0  0  0  0
  1  2  1  0  0  0  0
  3  4  1  0  0  0  0
  3 17  1  0  0  0  0
  4  6  2  0  0  0  0
  4 13  1  0  0  0  0
  5 10  1  0  0  0  0
  5 14  2  0  0  0  0
  6  8  1  0  0  0  0
  7 12  1  0  0  0  0
  7 14  1  0  0  0  0
  7 19  1  0  0  0  0
  8 10  2  0  0  0  0
  9 14  1  0  0  0  0
 10 12  1  0  0  0  0
 11 18  1  0  0  0  0
 11 20  1  0  0  0  0
 11 21  1  0  0  0  0
 12 13  2  0  0  0  0
 13 15  1  0  0  0  0
 15 16  1  0  0  0  0
 16 17  1  0  0  0  0
 16 18  1  1  0  0  0
 19 22  1  0  0  0  0
 22 23  1  0  0  0  0
M  END
>  <CHROM.1>
-86.73748258,111.66119212,87.48014476,76.89302224,169.93790512,177.85503939
9.89059096,-7.91878594,-11.83292795,-2.35833191,0.17699749,-0.23972681

>  <Name>
ligand

>  <RI>
0

>  <Rbt.Current_Directory>
/home/itssahil/PROJECTS/Mol_Feturizer/New_Systems/rnas/3TZR

>  <Rbt.Executable>
rbdock ($Id: //depot/dev/client3/rdock/2013.1/src/exe/rbdock.cxx#4 $)

>  <Rbt.Library>
libRbt.so (2013.1, Build901 2013/11/27)

>  <Rbt.Parameter_File>
/export/apps/rDock/src/rDock_2013.1_src/data/scripts/dock_solv.prm

>  <Rbt.Receptor>
prm/pocket_docking_5.prm

>  <SCORE>
-36.9211

>  <SCORE.INTER>
-25.993

>  <SCORE.INTER.CONST>
1

>  <SCORE.INTER.POLAR>
0

>  <SCORE.INTER.ROT>
6

>  <SCORE.INTER.SOLV>
20.8279

>  <SCORE.INTER.VDW>
-31.8713

>  <SCORE.INTER.norm>
-1.08304

>  <SCORE.INTRA>
-10.928

>  <SCORE.INTRA.DIHEDRAL>
-0.295639

>  <SCORE.INTRA.DIHEDRAL.0>
4.94008

>  <SCORE.INTRA.POLAR>
0

>  <SCORE.INTRA.POLAR.0>
0

>  <SCORE.INTRA.REPUL>
0

>  <SCORE.INTRA.REPUL.0>
0

>  <SCORE.INTRA.SOLV>
0.50064

>  <SCORE.INTRA.SOLV.lig_0>
-31.4704

>  <SCORE.INTRA.VDW>
-11.0305

>  <SCORE.INTRA.VDW.0>
10.2807

>  <SCORE.INTRA.norm>
-0.455334

>  <SCORE.RESTR>
0

>  <SCORE.RESTR.CAVITY>
0

>  <SCORE.RESTR.norm>
0

>  <SCORE.SYSTEM>
0

>  <SCORE.SYSTEM.CONST>
0

>  <SCORE.SYSTEM.DIHEDRAL>
0

>  <SCORE.SYSTEM.SOLV>
0

>  <SCORE.SYSTEM.norm>
0

>  <SCORE.heavy>
24

>  <SCORE.norm>
-1.53838

>  <RMSD>
0.858

$$$$
ligand
 OpenBabel11021811493D
libRbt.so/2013.1/901 2013/11/27
 24 26  0  0  0  0  0  0  0  0999 V2000
    6.5107  -10.8737  -10.1113 N   0  0  0  0  0  0  0  0  0  0  0  0
    7.5509  -11.6902   -9.5066 C   0  0  0  0  0  0  0  0  0  0  0  0
   13.2124   -5.9287  -12.7080 O   0  0  0  0  0  0  0  0  0  0  0  0
   11.8959   -5.5184  -12.5458 C   0  0  0  0  0  0  0  0  0  0  0  0
    7.7871   -4.4318  -12.1030 N   0  0  0  0  0  0  0  0  0  0  0  0
   11.5333   -4.0588  -12.4752 C   0  0  0  0  0  0  0  0  0  0  0  0
    8.2362   -6.6313  -12.1824 N   0  0  0  0  0  0  0  0  0  0  0  0
   10.1804   -3.6090  -12.3362 C   0  0  0  0  0  0  0  0  0  0  0  0
    5.8343   -5.9699  -11.9176 N   0  0  0  0  0  0  0  0  0  0  0  0
    9.1673   -4.6287  -12.2503 C   0  0  0  0  0  0  0  0  0  0  0  0
   12.4291  -10.6251  -12.1791 N   0  0  0  0  0  0  0  0  0  0  0  0
    9.5015   -6.0269  -12.3010 C   0  0  0  0  0  0  0  0  0  0  0  0
   10.9204   -6.4486  -12.4579 C   0  0  0  0  0  0  0  0  0  0  0  0
    7.2303   -5.6773  -12.0701 C   0  0  0  0  0  0  0  0  0  0  0  0
   11.2522   -7.9279  -12.5191 C   0  0  0  0  0  0  0  0  0  0  0  0
   12.7383   -8.2616  -12.4436 C   0  0  1  0  0  0  0  0  0  0  0  0
   13.5763   -7.0834  -12.0370 C   0  0  0  0  0  0  0  0  0  0  0  0
   12.9597   -9.4465  -11.5156 C   0  0  0  0  0  0  0  0  0  0  0  0
    7.9992   -8.0858  -12.2571 C   0  0  0  0  0  0  0  0  0  0  0  0
   13.4582  -11.1619  -13.0593 C   0  0  0  0  0  0  0  0  0  0  0  0
   12.1067  -11.5990  -11.1481 C   0  0  0  0  0  0  0  0  0  0  0  0
    7.4672   -8.7355  -10.9681 C   0  0  0  0  0  0  0  0  0  0  0  0
    7.0338  -10.1769  -11.2950 C   0  0  0  0  0  0  0  0  0  0  0  0
    5.3957  -11.7466  -10.4609 C   0  0  0  0  0  0  0  0  0  0  0  0
  1 23  1  0  0  0  0
  1 24  1  0  0  0  0
  1  2  1  0  0  0  0
  3  4  1  0  0  0  0
  3 17  1  0  0  0  0
  4  6  2  0  0  0  0
  4 13  1  0  0  0  0
  5 10  1  0  0  0  0
  5 14  2  0  0  0  0
  6  8  1  0  0  0  0
  7 12  1  0  0  0  0
  7 14  1  0  0  0  0
  7 19  1  0  0  0  0
  8 10  2  0  0  0  0
  9 14  1  0  0  0  0
 10 12  1  0  0  0  0
 11 18  1  0  0  0  0
 11 20  1  0  0  0  0
 11 21  1  0  0  0  0
 12 13  2  0  0  0  0
 13 15  1  0  0  0  0
 15 16  1  0  0  0  0
 16 17  1  0  0  0  0
 16 18  1  1  0  0  0
 19 22  1  0  0  0  0
 22 23  1  0  0  0  0
M  END
>  <CHROM.1>
-97.04134184,115.48372904,85.31894557,70.19054403,169.64823376,179.96720913
9.83194091,-7.91153003,-11.84119800,-2.44389721,0.17782656,-0.19841527

>  <Name>
ligand

>  <RI>
0

>  <Rbt.Current_Directory>
/home/itssahil/PROJECTS/Mol_Feturizer/New_Systems/rnas/3TZR

>  <Rbt.Executable>
rbdock ($Id: //depot/dev/client3/rdock/2013.1/src/exe/rbdock.cxx#4 $)

>  <Rbt.Library>
libRbt.so (2013.1, Build901 2013/11/27)

>  <Rbt.Parameter_File>
/export/apps/rDock/src/rDock_2013.1_src/data/scripts/dock_solv.prm

>  <Rbt.Receptor>
prm/blind_docking_100.prm

>  <SCORE>
-36.6424

>  <SCORE.INTER>
-25.7053

>  <SCORE.INTER.CONST>
1

>  <SCORE.INTER.POLAR>
0

>  <SCORE.INTER.ROT>
6

>  <SCORE.INTER.SOLV>
20.8966

>  <SCORE.INTER.VDW>
-31.7024

>  <SCORE.INTER.norm>
-1.07105

>  <SCORE.INTRA>
-10.9371

>  <SCORE.INTRA.DIHEDRAL>
-0.38409

>  <SCORE.INTRA.DIHEDRAL.0>
4.94008

>  <SCORE.INTRA.POLAR>
0

>  <SCORE.INTRA.POLAR.0>
0

>  <SCORE.INTRA.REPUL>
0

>  <SCORE.INTRA.REPUL.0>
0

>  <SCORE.INTRA.SOLV>
0.626469

>  <SCORE.INTRA.SOLV.lig_0>
-31.4704

>  <SCORE.INTRA.VDW>
-11.0583

>  <SCORE.INTRA.VDW.0>
10.2807

>  <SCORE.INTRA.norm>
-0.455713

>  <SCORE.RESTR>
0

>  <SCORE.RESTR.CAVITY>
0

>  <SCORE.RESTR.norm>
0

>  <SCORE.SYSTEM>
0

>  <SCORE.SYSTEM.CONST>
0

>  <SCORE.SYSTEM.DIHEDRAL>
0

>  <SCORE.SYSTEM.SOLV>
0

>  <SCORE.SYSTEM.norm>
0

>  <SCORE.heavy>
24

>  <SCORE.norm>
-1.52677

>  <RMSD>
0.860

$$$$
ligand
 OpenBabel11021811493D
libRbt.so/2013.1/901 2013/11/27
 24 26  0  0  0  0  0  0  0  0999 V2000
    6.5843  -10.8954  -10.0415 N   0  0  0  0  0  0  0  0  0  0  0  0
    7.3815  -11.9434   -9.4247 C   0  0  0  0  0  0  0  0  0  0  0  0
   13.2080   -5.9638  -12.7588 O   0  0  0  0  0  0  0  0  0  0  0  0
   11.8947   -5.5478  -12.5853 C   0  0  0  0  0  0  0  0  0  0  0  0
    7.7946   -4.4446  -12.1048 N   0  0  0  0  0  0  0  0  0  0  0  0
   11.5367   -4.0865  -12.5298 C   0  0  0  0  0  0  0  0  0  0  0  0
    8.2372   -6.6461  -12.1601 N   0  0  0  0  0  0  0  0  0  0  0  0
   10.1867   -3.6313  -12.3796 C   0  0  0  0  0  0  0  0  0  0  0  0
    5.8406   -5.9748  -11.8736 N   0  0  0  0  0  0  0  0  0  0  0  0
    9.1723   -4.6471  -12.2670 C   0  0  0  0  0  0  0  0  0  0  0  0
   12.4506  -10.6561  -12.1711 N   0  0  0  0  0  0  0  0  0  0  0  0
    9.5024   -6.0467  -12.3031 C   0  0  0  0  0  0  0  0  0  0  0  0
   10.9181   -6.4742  -12.4724 C   0  0  0  0  0  0  0  0  0  0  0  0
    7.2353   -5.6880  -12.0479 C   0  0  0  0  0  0  0  0  0  0  0  0
   11.2455   -7.9550  -12.5178 C   0  0  0  0  0  0  0  0  0  0  0  0
   12.7316   -8.2916  -12.4568 C   0  0  1  0  0  0  0  0  0  0  0  0
   13.5777   -7.1102  -12.0770 C   0  0  0  0  0  0  0  0  0  0  0  0
   12.9619   -9.4645  -11.5159 C   0  0  0  0  0  0  0  0  0  0  0  0
    7.9957   -8.1009  -12.2122 C   0  0  0  0  0  0  0  0  0  0  0  0
   13.4926  -11.1894  -13.0380 C   0  0  0  0  0  0  0  0  0  0  0  0
   12.1322  -11.6233  -11.1325 C   0  0  0  0  0  0  0  0  0  0  0  0
    7.4551   -8.7275  -10.9154 C   0  0  0  0  0  0  0  0  0  0  0  0
    7.3415  -10.2495  -11.1232 C   0  0  0  0  0  0  0  0  0  0  0  0
    5.3543  -11.4977  -10.5432 C   0  0  0  0  0  0  0  0  0  0  0  0
  1 23  1  0  0  0  0
  1 24  1  0  0  0  0
  1  2  1  0  0  0  0
  3  4  1  0  0  0  0
  3 17  1  0  0  0  0
  4  6  2  0  0  0  0
  4 13  1  0  0  0  0
  5 10  1  0  0  0  0
  5 14  2  0  0  0  0
  6  8  1  0  0  0  0
  7 12  1  0  0  0  0
  7 14  1  0  0  0  0
  7 19  1  0  0  0  0
  8 10  2  0  0  0  0
  9 14  1  0  0  0  0
 10 12  1  0  0  0  0
 11 18  1  0  0  0  0
 11 20  1  0  0  0  0
 11 21  1  0  0  0  0
 12 13  2  0  0  0  0
 13 15  1  0  0  0  0
 15 16  1  0  0  0  0
 16 17  1  0  0  0  0
 16 18  1  1  0  0  0
 19 22  1  0  0  0  0
 22 23  1  0  0  0  0
M  END
>  <CHROM.1>
-123.88833312,116.52066098,85.39317359,71.60908703,-176.75905561,-168.48721935
9.84223670,-7.93280356,-11.83201660,-2.43685099,0.18791520,-0.20797982

>  <Name>
ligand

>  <RI>
0

>  <Rbt.Current_Directory>
/home/itssahil/PROJECTS/Mol_Feturizer/New_Systems/rnas/3TZR

>  <Rbt.Executable>
rbdock ($Id: //depot/dev/client3/rdock/2013.1/src/exe/rbdock.cxx#4 $)

>  <Rbt.Library>
libRbt.so (2013.1, Build901 2013/11/27)

>  <Rbt.Parameter_File>
/export/apps/rDock/src/rDock_2013.1_src/data/scripts/dock_solv.prm

>  <Rbt.Receptor>
prm/pocket_docking_5.prm

>  <SCORE>
-36.2855

>  <SCORE.INTER>
-25.525

>  <SCORE.INTER.CONST>
1

>  <SCORE.INTER.POLAR>
0

>  <SCORE.INTER.ROT>
6

>  <SCORE.INTER.SOLV>
20.8505

>  <SCORE.INTER.VDW>
-31.5669

>  <SCORE.INTER.norm>
-1.06354

>  <SCORE.INTRA>
-10.7604

>  <SCORE.INTRA.DIHEDRAL>
0.589583

>  <SCORE.INTRA.DIHEDRAL.0>
4.94008

>  <SCORE.INTRA.POLAR>
0

>  <SCORE.INTRA.POLAR.0>
0

>  <SCORE.INTRA.REPUL>
0

>  <SCORE.INTRA.REPUL.0>
0

>  <SCORE.INTRA.SOLV>
0.472913

>  <SCORE.INTRA.SOLV.lig_0>
-31.4704

>  <SCORE.INTRA.VDW>
-11.2917

>  <SCORE.INTRA.VDW.0>
10.2807

>  <SCORE.INTRA.norm>
-0.448352

>  <SCORE.RESTR>
0

>  <SCORE.RESTR.CAVITY>
0

>  <SCORE.RESTR.norm>
0

>  <SCORE.SYSTEM>
0

>  <SCORE.SYSTEM.CONST>
0

>  <SCORE.SYSTEM.DIHEDRAL>
0

>  <SCORE.SYSTEM.SOLV>
0

>  <SCORE.SYSTEM.norm>
0

>  <SCORE.heavy>
24

>  <SCORE.norm>
-1.5119

>  <RMSD>
0.860

$$$$
ligand
 OpenBabel11021811493D
libRbt.so/2013.1/901 2013/11/27
 24 26  0  0  0  0  0  0  0  0999 V2000
    6.9822  -10.9225   -9.8017 N   0  0  0  0  0  0  0  0  0  0  0  0
    8.0510  -11.4545   -8.9716 C   0  0  0  0  0  0  0  0  0  0  0  0
   13.2167   -5.9088  -12.8563 O   0  0  0  0  0  0  0  0  0  0  0  0
   11.8992   -5.5132  -12.6686 C   0  0  0  0  0  0  0  0  0  0  0  0
    7.7882   -4.4743  -12.1397 N   0  0  0  0  0  0  0  0  0  0  0  0
   11.5152   -4.0577  -12.6373 C   0  0  0  0  0  0  0  0  0  0  0  0
    8.2703   -6.6682  -12.1568 N   0  0  0  0  0  0  0  0  0  0  0  0
   10.1598   -3.6239  -12.4732 C   0  0  0  0  0  0  0  0  0  0  0  0
    5.8670   -6.0344  -11.8426 N   0  0  0  0  0  0  0  0  0  0  0  0
    9.1664   -4.6553  -12.3217 C   0  0  0  0  0  0  0  0  0  0  0  0
   12.5659  -10.6022  -12.1623 N   0  0  0  0  0  0  0  0  0  0  0  0
    9.5216   -6.0491  -12.3343 C   0  0  0  0  0  0  0  0  0  0  0  0
   10.9419   -6.4544  -12.5194 C   0  0  0  0  0  0  0  0  0  0  0  0
    7.2529   -5.7262  -12.0471 C   0  0  0  0  0  0  0  0  0  0  0  0
   11.2957   -7.9297  -12.5396 C   0  0  0  0  0  0  0  0  0  0  0  0
   12.7886   -8.2381  -12.4976 C   0  0  1  0  0  0  0  0  0  0  0  0
   13.6191   -7.0337  -12.1573 C   0  0  0  0  0  0  0  0  0  0  0  0
   13.0565   -9.3864  -11.5365 C   0  0  0  0  0  0  0  0  0  0  0  0
    8.0549   -8.1278  -12.1743 C   0  0  0  0  0  0  0  0  0  0  0  0
   13.6241  -11.1495  -13.0005 C   0  0  0  0  0  0  0  0  0  0  0  0
   12.2448  -11.5418  -11.0995 C   0  0  0  0  0  0  0  0  0  0  0  0
    7.5047   -8.7300  -10.8699 C   0  0  0  0  0  0  0  0  0  0  0  0
    7.5409  -10.2650  -10.9916 C   0  0  0  0  0  0  0  0  0  0  0  0
    6.1032  -12.0263  -10.1707 C   0  0  0  0  0  0  0  0  0  0  0  0
  1 23  1  0  0  0  0
  1 24  1  0  0  0  0
  1  2  1  0  0  0  0
  3  4  1  0  0  0  0
  3 17  1  0  0  0  0
  4  6  2  0  0  0  0
  4 13  1  0  0  0  0
  5 10  1  0  0  0  0
  5 14  2  0  0  0  0
  6  8  1  0  0  0  0
  7 12  1  0  0  0  0
  7 14  1  0  0  0  0
  7 19  1  0  0  0  0
  8 10  2  0  0  0  0
  9 14  1  0  0  0  0
 10 12  1  0  0  0  0
 11 18  1  0  0  0  0
 11 20  1  0  0  0  0
 11 21  1  0  0  0  0
 12 13  2  0  0  0  0
 13 15  1  0  0  0  0
 15 16  1  0  0  0  0
 16 17  1  0  0  0  0
 16 18  1  1  0  0  0
 19 22  1  0  0  0  0
 22 23  1  0  0  0  0
M  END
>  <CHROM.1>
-103.79558316,118.42558726,87.01915566,72.05808145,-171.68407213,-177.83976803
9.96705468,-7.92053710,-11.79797597,2.22630720,-0.21439303,2.88790454

>  <Name>
ligand

>  <RI>
0

>  <Rbt.Current_Directory>
/home/itssahil/PROJECTS/Mol_Feturizer/New_Systems/rnas/3TZR

>  <Rbt.Executable>
rbdock ($Id: //depot/dev/client3/rdock/2013.1/src/exe/rbdock.cxx#4 $)

>  <Rbt.Library>
libRbt.so (2013.1, Build901 2013/11/27)

>  <Rbt.Parameter_File>
/export/apps/rDock/src/rDock_2013.1_src/data/scripts/dock_solv.prm

>  <Rbt.Receptor>
prm/blind_docking_100.prm

>  <SCORE>
-36.8175

>  <SCORE.INTER>
-25.7952

>  <SCORE.INTER.CONST>
1

>  <SCORE.INTER.POLAR>
0

>  <SCORE.INTER.ROT>
6

>  <SCORE.INTER.SOLV>
20.4712

>  <SCORE.INTER.VDW>
-31.6206

>  <SCORE.INTER.norm>
-1.0748

>  <SCORE.INTRA>
-11.0222

>  <SCORE.INTRA.DIHEDRAL>
0.0755946

>  <SCORE.INTRA.DIHEDRAL.0>
4.94008

>  <SCORE.INTRA.POLAR>
0

>  <SCORE.INTRA.POLAR.0>
0

>  <SCORE.INTRA.REPUL>
0

>  <SCORE.INTRA.REPUL.0>
0

>  <SCORE.INTRA.SOLV>
0.465997

>  <SCORE.INTRA.SOLV.lig_0>
-31.4704

>  <SCORE.INTRA.VDW>
-11.293

>  <SCORE.INTRA.VDW.0>
10.2807

>  <SCORE.INTRA.norm>
-0.45926

>  <SCORE.RESTR>
0

>  <SCORE.RESTR.CAVITY>
0

>  <SCORE.RESTR.norm>
0

>  <SCORE.SYSTEM>
0

>  <SCORE.SYSTEM.CONST>
0

>  <SCORE.SYSTEM.DIHEDRAL>
0

>  <SCORE.SYSTEM.SOLV>
0

>  <SCORE.SYSTEM.norm>
0

>  <SCORE.heavy>
24

>  <SCORE.norm>
-1.53406

>  <RMSD>
0.861

$$$$
ligand
 OpenBabel11021811493D
libRbt.so/2013.1/901 2013/11/27
 24 26  0  0  0  0  0  0  0  0999 V2000
    7.1530  -10.9061   -9.6950 N   0  0  0  0  0  0  0  0  0  0  0  0
    8.2086  -11.3460   -8.7968 C   0  0  0  0  0  0  0  0  0  0  0  0
   13.2623   -5.9495  -12.8768 O   0  0  0  0  0  0  0  0  0  0  0  0
   11.9531   -5.5358  -12.6703 C   0  0  0  0  0  0  0  0  0  0  0  0
    7.8649   -4.4410  -12.0812 N   0  0  0  0  0  0  0  0  0  0  0  0
   11.5878   -4.0754  -12.6452 C   0  0  0  0  0  0  0  0  0  0  0  0
    8.3194   -6.6408  -12.0873 N   0  0  0  0  0  0  0  0  0  0  0  0
   10.2409   -3.6233  -12.4620 C   0  0  0  0  0  0  0  0  0  0  0  0
    5.9298   -5.9743  -11.7381 N   0  0  0  0  0  0  0  0  0  0  0  0
    9.2375   -4.6408  -12.2848 C   0  0  0  0  0  0  0  0  0  0  0  0
   12.5698  -10.6291  -12.1333 N   0  0  0  0  0  0  0  0  0  0  0  0
    9.5751   -6.0390  -12.2913 C   0  0  0  0  0  0  0  0  0  0  0  0
   10.9869   -6.4637  -12.4968 C   0  0  0  0  0  0  0  0  0  0  0  0
    7.3158   -5.6852  -11.9687 C   0  0  0  0  0  0  0  0  0  0  0  0
   11.3220   -7.9434  -12.5101 C   0  0  0  0  0  0  0  0  0  0  0  0
   12.8114   -8.2701  -12.4906 C   0  0  1  0  0  0  0  0  0  0  0  0
   13.6624   -7.0734  -12.1748 C   0  0  0  0  0  0  0  0  0  0  0  0
   13.0814   -9.4134  -11.5242 C   0  0  0  0  0  0  0  0  0  0  0  0
    8.0856   -8.0977  -12.0885 C   0  0  0  0  0  0  0  0  0  0  0  0
   13.6137  -11.1986  -12.9746 C   0  0  0  0  0  0  0  0  0  0  0  0
   12.2458  -11.5536  -11.0582 C   0  0  0  0  0  0  0  0  0  0  0  0
    7.7959   -8.7213  -10.7123 C   0  0  0  0  0  0  0  0  0  0  0  0
    7.7305  -10.2513  -10.8774 C   0  0  0  0  0  0  0  0  0  0  0  0
    6.3617  -12.0726  -10.0696 C   0  0  0  0  0  0  0  0  0  0  0  0
  1 23  1  0  0  0  0
  1 24  1  0  0  0  0
  1  2  1  0  0  0  0
  3  4  1  0  0  0  0
  3 17  1  0  0  0  0
  4  6  2  0  0  0  0
  4 13  1  0  0  0  0
  5 10  1  0  0  0  0
  5 14  2  0  0  0  0
  6  8  1  0  0  0  0
  7 12  1  0  0  0  0
  7 14  1  0  0  0  0
  7 19  1  0  0  0  0
  8 10  2  0  0  0  0
  9 14  1  0  0  0  0
 10 12  1  0  0  0  0
 11 18  1  0  0  0  0
 11 20  1  0  0  0  0
 11 21  1  0  0  0  0
 12 13  2  0  0  0  0
 13 15  1  0  0  0  0
 15 16  1  0  0  0  0
 16 17  1  0  0  0  0
 16 18  1  1  0  0  0
 19 22  1  0  0  0  0
 22 23  1  0  0  0  0
M  END
>  <CHROM.1>
-94.89351722,107.88335471,87.40382535,72.27525041,-173.94744543,-166.63548011
10.04650063,-7.91960581,-11.74414968,2.08279799,-0.23597836,2.87842131

>  <Name>
ligand

>  <RI>
144

>  <Rbt.Current_Directory>
/home/itssahil/PROJECTS/Mol_Feturizer/New_Systems/rnas/3TZR

>  <Rbt.Executable>
rbdock ($Id: //depot/dev/client3/rdock/2013.1/src/exe/rbdock.cxx#4 $)

>  <Rbt.Library>
libRbt.so (2013.1, Build901 2013/11/27)

>  <Rbt.Parameter_File>
/export/apps/rDock/src/rDock_2013.1_src/data/scripts/dock_solv.prm

>  <Rbt.Receptor>
prm/blind_docking_60.prm

>  <SCORE>
-36.6029

>  <SCORE.INTER>
-25.5544

>  <SCORE.INTER.CONST>
1

>  <SCORE.INTER.POLAR>
0

>  <SCORE.INTER.ROT>
6

>  <SCORE.INTER.SOLV>
20.3753

>  <SCORE.INTER.VDW>
-31.428

>  <SCORE.INTER.norm>
-1.06477

>  <SCORE.INTRA>
-11.1476

>  <SCORE.INTRA.DIHEDRAL>
0.202145

>  <SCORE.INTRA.DIHEDRAL.0>
4.94008

>  <SCORE.INTRA.POLAR>
0

>  <SCORE.INTRA.POLAR.0>
0

>  <SCORE.INTRA.REPUL>
0

>  <SCORE.INTRA.REPUL.0>
0

>  <SCORE.INTRA.SOLV>
0.196443

>  <SCORE.INTRA.SOLV.lig_0>
-31.4704

>  <SCORE.INTRA.VDW>
-11.3469

>  <SCORE.INTRA.VDW.0>
10.2807

>  <SCORE.INTRA.norm>
-0.464483

>  <SCORE.RESTR>
0.0991105

>  <SCORE.RESTR.CAVITY>
0.0991105

>  <SCORE.RESTR.norm>
0.0041296

>  <SCORE.SYSTEM>
0

>  <SCORE.SYSTEM.CONST>
0

>  <SCORE.SYSTEM.DIHEDRAL>
0

>  <SCORE.SYSTEM.SOLV>
0

>  <SCORE.SYSTEM.norm>
0

>  <SCORE.heavy>
24

>  <SCORE.norm>
-1.52512

>  <RMSD>
0.861

$$$$
ligand
 OpenBabel11021811493D
libRbt.so/2013.1/901 2013/11/27
 24 26  0  0  0  0  0  0  0  0999 V2000
    7.3108  -10.8549   -9.9030 N   0  0  0  0  0  0  0  0  0  0  0  0
    8.5226  -11.6249   -9.6726 C   0  0  0  0  0  0  0  0  0  0  0  0
   13.8061   -7.7018  -12.9224 O   0  0  0  0  0  0  0  0  0  0  0  0
   12.7451   -6.8528  -12.6374 C   0  0  0  0  0  0  0  0  0  0  0  0
    9.3584   -4.3800  -11.8164 N   0  0  0  0  0  0  0  0  0  0  0  0
   12.9460   -5.3671  -12.4992 C   0  0  0  0  0  0  0  0  0  0  0  0
    8.9672   -6.5851  -11.9893 N   0  0  0  0  0  0  0  0  0  0  0  0
   11.8639   -4.4668  -12.2333 C   0  0  0  0  0  0  0  0  0  0  0  0
    6.9974   -5.1155  -11.5028 N   0  0  0  0  0  0  0  0  0  0  0  0
   10.5574   -5.0543  -12.0865 C   0  0  0  0  0  0  0  0  0  0  0  0
   13.3940  -11.9031  -12.1993 N   0  0  0  0  0  0  0  0  0  0  0  0
   10.3540   -6.4736  -12.2009 C   0  0  0  0  0  0  0  0  0  0  0  0
   11.5063   -7.3706  -12.4896 C   0  0  0  0  0  0  0  0  0  0  0  0
    8.3894   -5.3396  -11.7671 C   0  0  0  0  0  0  0  0  0  0  0  0
   11.2703   -8.8641  -12.6163 C   0  0  0  0  0  0  0  0  0  0  0  0
   12.5335   -9.7162  -12.6771 C   0  0  1  0  0  0  0  0  0  0  0  0
   13.7702   -8.9448  -12.3144 C   0  0  0  0  0  0  0  0  0  0  0  0
   12.3724  -10.9498  -11.8017 C   0  0  0  0  0  0  0  0  0  0  0  0
    8.2112   -7.8491  -12.0801 C   0  0  0  0  0  0  0  0  0  0  0  0
   13.7495  -12.7096  -11.0396 C   0  0  0  0  0  0  0  0  0  0  0  0
   12.8211  -12.7522  -13.2319 C   0  0  0  0  0  0  0  0  0  0  0  0
    8.1781   -8.6928  -10.7941 C   0  0  0  0  0  0  0  0  0  0  0  0
    7.4588  -10.0193  -11.1030 C   0  0  0  0  0  0  0  0  0  0  0  0
    6.2000  -11.7898  -10.0429 C   0  0  0  0  0  0  0  0  0  0  0  0
  1 23  1  0  0  0  0
  1 24  1  0  0  0  0
  1  2  1  0  0  0  0
  3  4  1  0  0  0  0
  3 17  1  0  0  0  0
  4  6  2  0  0  0  0
  4 13  1  0  0  0  0
  5 10  1  0  0  0  0
  5 14  2  0  0  0  0
  6  8  1  0  0  0  0
  7 12  1  0  0  0  0
  7 14  1  0  0  0  0
  7 19  1  0  0  0  0
  8 10  2  0  0  0  0
  9 14  1  0  0  0  0
 10 12  1  0  0  0  0
 11 18  1  0  0  0  0
 11 20  1  0  0  0  0
 11 21  1  0  0  0  0
 12 13  2  0  0  0  0
 13 15  1  0  0  0  0
 15 16  1  0  0  0  0
 16 17  1  0  0  0  0
 16 18  1  1  0  0  0
 19 22  1  0  0  0  0
 22 23  1  0  0  0  0
M  END
>  <CHROM.1>
-83.78800913,86.03256366,150.34115714,163.05361690,-175.15021417,-176.54086691
10.53693752,-8.53949876,-11.79188809,1.09901669,-0.28704844,2.98461877

>  <Name>
ligand

>  <RI>
144

>  <Rbt.Current_Directory>
/home/itssahil/PROJECTS/Mol_Feturizer/New_Systems/rnas/3TZR

>  <Rbt.Executable>
rbdock ($Id: //depot/dev/client3/rdock/2013.1/src/exe/rbdock.cxx#4 $)

>  <Rbt.Library>
libRbt.so (2013.1, Build901 2013/11/27)

>  <Rbt.Parameter_File>
/export/apps/rDock/src/rDock_2013.1_src/data/scripts/dock_solv.prm

>  <Rbt.Receptor>
prm/pocket_docking_8.prm

>  <SCORE>
-35.1715

>  <SCORE.INTER>
-23.7403

>  <SCORE.INTER.CONST>
1

>  <SCORE.INTER.POLAR>
0

>  <SCORE.INTER.ROT>
6

>  <SCORE.INTER.SOLV>
20.3607

>  <SCORE.INTER.VDW>
-30.2137

>  <SCORE.INTER.norm>
-0.989178

>  <SCORE.INTRA>
-11.4312

>  <SCORE.INTRA.DIHEDRAL>
-0.393492

>  <SCORE.INTRA.DIHEDRAL.0>
4.94008

>  <SCORE.INTRA.POLAR>
0

>  <SCORE.INTRA.POLAR.0>
0

>  <SCORE.INTRA.REPUL>
0

>  <SCORE.INTRA.REPUL.0>
0

>  <SCORE.INTRA.SOLV>
-0.176913

>  <SCORE.INTRA.SOLV.lig_0>
-31.4704

>  <SCORE.INTRA.VDW>
-11.146

>  <SCORE.INTRA.VDW.0>
10.2807

>  <SCORE.INTRA.norm>
-0.476299

>  <SCORE.RESTR>
0

>  <SCORE.RESTR.CAVITY>
0

>  <SCORE.RESTR.norm>
0

>  <SCORE.SYSTEM>
0

>  <SCORE.SYSTEM.CONST>
0

>  <SCORE.SYSTEM.DIHEDRAL>
0

>  <SCORE.SYSTEM.SOLV>
0

>  <SCORE.SYSTEM.norm>
0

>  <SCORE.heavy>
24

>  <SCORE.norm>
-1.46548

>  <RMSD>
0.861

$$$$
ligand
 OpenBabel11021811493D
libRbt.so/2013.1/901 2013/11/27
 24 26  0  0  0  0  0  0  0  0999 V2000
    6.7685  -10.9070   -9.9250 N   0  0  0  0  0  0  0  0  0  0  0  0
    7.9233  -11.4828   -9.2548 C   0  0  0  0  0  0  0  0  0  0  0  0
   13.1539   -5.8746  -12.7764 O   0  0  0  0  0  0  0  0  0  0  0  0
   11.8317   -5.4823  -12.6161 C   0  0  0  0  0  0  0  0  0  0  0  0
    7.7080   -4.4537  -12.1735 N   0  0  0  0  0  0  0  0  0  0  0  0
   11.4444   -4.0277  -12.5857 C   0  0  0  0  0  0  0  0  0  0  0  0
    8.1946   -6.6466  -12.1913 N   0  0  0  0  0  0  0  0  0  0  0  0
   10.0848   -3.5973  -12.4496 C   0  0  0  0  0  0  0  0  0  0  0  0
    5.7836   -6.0189  -11.9275 N   0  0  0  0  0  0  0  0  0  0  0  0
    9.0903   -4.6312  -12.3257 C   0  0  0  0  0  0  0  0  0  0  0  0
   12.6874  -10.5918  -12.1937 N   0  0  0  0  0  0  0  0  0  0  0  0
    9.4484   -6.0243  -12.3377 C   0  0  0  0  0  0  0  0  0  0  0  0
   10.8732   -6.4261  -12.4931 C   0  0  0  0  0  0  0  0  0  0  0  0
    7.1732   -5.7070  -12.0995 C   0  0  0  0  0  0  0  0  0  0  0  0
   11.2302   -7.9006  -12.5131 C   0  0  0  0  0  0  0  0  0  0  0  0
   12.7223   -8.2065  -12.4394 C   0  0  1  0  0  0  0  0  0  0  0  0
   13.5427   -7.0024  -12.0744 C   0  0  0  0  0  0  0  0  0  0  0  0
   12.9710   -9.3593  -11.4786 C   0  0  0  0  0  0  0  0  0  0  0  0
    7.9824   -8.1065  -12.2213 C   0  0  0  0  0  0  0  0  0  0  0  0
   13.8685  -10.9622  -12.9616 C   0  0  0  0  0  0  0  0  0  0  0  0
   12.4042  -11.6171  -11.2018 C   0  0  0  0  0  0  0  0  0  0  0  0
    7.4977   -8.7307  -10.9014 C   0  0  0  0  0  0  0  0  0  0  0  0
    7.1845  -10.2174  -11.1545 C   0  0  0  0  0  0  0  0  0  0  0  0
    5.8290  -11.9845  -10.2146 C   0  0  0  0  0  0  0  0  0  0  0  0
  1 23  1  0  0  0  0
  1 24  1  0  0  0  0
  1  2  1  0  0  0  0
  3  4  1  0  0  0  0
  3 17  1  0  0  0  0
  4  6  2  0  0  0  0
  4 13  1  0  0  0  0
  5 10  1  0  0  0  0
  5 14  2  0  0  0  0
  6  8  1  0  0  0  0
  7 12  1  0  0  0  0
  7 14  1  0  0  0  0
  7 19  1  0  0  0  0
  8 10  2  0  0  0  0
  9 14  1  0  0  0  0
 10 12  1  0  0  0  0
 11 18  1  0  0  0  0
 11 20  1  0  0  0  0
 11 21  1  0  0  0  0
 12 13  2  0  0  0  0
 13 15  1  0  0  0  0
 15 16  1  0  0  0  0
 16 17  1  0  0  0  0
 16 18  1  1  0  0  0
 19 22  1  0  0  0  0
 22 23  1  0  0  0  0
M  END
>  <CHROM.1>
-91.03882179,114.33022024,83.47548711,80.52891262,173.93086565,177.51015595
9.90010938,-7.89485030,-11.82257462,-2.40763550,0.18979025,-0.23958751

>  <Name>
ligand

>  <RI>
0

>  <Rbt.Current_Directory>
/home/itssahil/PROJECTS/Mol_Feturizer/New_Systems/rnas/3TZR

>  <Rbt.Executable>
rbdock ($Id: //depot/dev/client3/rdock/2013.1/src/exe/rbdock.cxx#4 $)

>  <Rbt.Library>
libRbt.so (2013.1, Build901 2013/11/27)

>  <Rbt.Parameter_File>
/export/apps/rDock/src/rDock_2013.1_src/data/scripts/dock_solv.prm

>  <Rbt.Receptor>
prm/blind_docking_100.prm

>  <SCORE>
-36.8505

>  <SCORE.INTER>
-26.1364

>  <SCORE.INTER.CONST>
1

>  <SCORE.INTER.POLAR>
0

>  <SCORE.INTER.ROT>
6

>  <SCORE.INTER.SOLV>
20.8377

>  <SCORE.INTER.VDW>
-31.9702

>  <SCORE.INTER.norm>
-1.08902

>  <SCORE.INTRA>
-10.7141

>  <SCORE.INTRA.DIHEDRAL>
-0.114228

>  <SCORE.INTRA.DIHEDRAL.0>
4.94008

>  <SCORE.INTRA.POLAR>
0

>  <SCORE.INTRA.POLAR.0>
0

>  <SCORE.INTRA.REPUL>
0

>  <SCORE.INTRA.REPUL.0>
0

>  <SCORE.INTRA.SOLV>
0.516594

>  <SCORE.INTRA.SOLV.lig_0>
-31.4704

>  <SCORE.INTRA.VDW>
-10.9152

>  <SCORE.INTRA.VDW.0>
10.2807

>  <SCORE.INTRA.norm>
-0.446419

>  <SCORE.RESTR>
0

>  <SCORE.RESTR.CAVITY>
0

>  <SCORE.RESTR.norm>
0

>  <SCORE.SYSTEM>
0

>  <SCORE.SYSTEM.CONST>
0

>  <SCORE.SYSTEM.DIHEDRAL>
0

>  <SCORE.SYSTEM.SOLV>
0

>  <SCORE.SYSTEM.norm>
0

>  <SCORE.heavy>
24

>  <SCORE.norm>
-1.53544

>  <RMSD>
0.862

$$$$
ligand
 OpenBabel11021811493D
libRbt.so/2013.1/901 2013/11/27
 24 26  0  0  0  0  0  0  0  0999 V2000
    6.7652  -10.9167   -9.9695 N   0  0  0  0  0  0  0  0  0  0  0  0
    7.9103  -11.5503   -9.3358 C   0  0  0  0  0  0  0  0  0  0  0  0
   13.1824   -5.8852  -12.7366 O   0  0  0  0  0  0  0  0  0  0  0  0
   11.8596   -5.4924  -12.5825 C   0  0  0  0  0  0  0  0  0  0  0  0
    7.7341   -4.4617  -12.1617 N   0  0  0  0  0  0  0  0  0  0  0  0
   11.4745   -4.0376  -12.5378 C   0  0  0  0  0  0  0  0  0  0  0  0
    8.2171   -6.6550  -12.2019 N   0  0  0  0  0  0  0  0  0  0  0  0
   10.1147   -3.6063  -12.4077 C   0  0  0  0  0  0  0  0  0  0  0  0
    5.8051   -6.0261  -11.9505 N   0  0  0  0  0  0  0  0  0  0  0  0
    9.1173   -4.6398  -12.3045 C   0  0  0  0  0  0  0  0  0  0  0  0
   12.6297  -10.6034  -12.1906 N   0  0  0  0  0  0  0  0  0  0  0  0
    9.4731   -6.0333  -12.3304 C   0  0  0  0  0  0  0  0  0  0  0  0
   10.8984   -6.4358  -12.4789 C   0  0  0  0  0  0  0  0  0  0  0  0
    7.1965   -5.7148  -12.1072 C   0  0  0  0  0  0  0  0  0  0  0  0
   11.2530   -7.9107  -12.5138 C   0  0  0  0  0  0  0  0  0  0  0  0
   12.7440   -8.2201  -12.4314 C   0  0  1  0  0  0  0  0  0  0  0  0
   13.5634   -7.0221  -12.0451 C   0  0  0  0  0  0  0  0  0  0  0  0
   12.9827   -9.3849  -11.4826 C   0  0  0  0  0  0  0  0  0  0  0  0
    8.0026   -8.1141  -12.2513 C   0  0  0  0  0  0  0  0  0  0  0  0
   13.8204  -11.1105  -12.8591 C   0  0  0  0  0  0  0  0  0  0  0  0
   12.1732  -11.5670  -11.2013 C   0  0  0  0  0  0  0  0  0  0  0  0
    7.6119   -8.7698  -10.9155 C   0  0  0  0  0  0  0  0  0  0  0  0
    7.1816  -10.2219  -11.1959 C   0  0  0  0  0  0  0  0  0  0  0  0
    5.7769  -11.9503  -10.2565 C   0  0  0  0  0  0  0  0  0  0  0  0
  1 23  1  0  0  0  0
  1 24  1  0  0  0  0
  1  2  1  0  0  0  0
  3  4  1  0  0  0  0
  3 17  1  0  0  0  0
  4  6  2  0  0  0  0
  4 13  1  0  0  0  0
  5 10  1  0  0  0  0
  5 14  2  0  0  0  0
  6  8  1  0  0  0  0
  7 12  1  0  0  0  0
  7 14  1  0  0  0  0
  7 19  1  0  0  0  0
  8 10  2  0  0  0  0
  9 14  1  0  0  0  0
 10 12  1  0  0  0  0
 11 18  1  0  0  0  0
 11 20  1  0  0  0  0
 11 21  1  0  0  0  0
 12 13  2  0  0  0  0
 13 15  1  0  0  0  0
 15 16  1  0  0  0  0
 16 17  1  0  0  0  0
 16 18  1  1  0  0  0
 19 22  1  0  0  0  0
 22 23  1  0  0  0  0
M  END
>  <CHROM.1>
-88.83034376,109.75907009,90.85162834,77.33507570,169.83537605,-178.89720159
9.90182568,-7.91078518,-11.82073613,-2.36023012,0.18186542,-0.23016375

>  <Name>
ligand

>  <RI>
0

>  <Rbt.Current_Directory>
/home/itssahil/PROJECTS/Mol_Feturizer/New_Systems/rnas/3TZR

>  <Rbt.Executable>
rbdock ($Id: //depot/dev/client3/rdock/2013.1/src/exe/rbdock.cxx#4 $)

>  <Rbt.Library>
libRbt.so (2013.1, Build901 2013/11/27)

>  <Rbt.Parameter_File>
/export/apps/rDock/src/rDock_2013.1_src/data/scripts/dock_solv.prm

>  <Rbt.Receptor>
prm/pocket_docking_5.prm

>  <SCORE>
-36.9213

>  <SCORE.INTER>
-25.9628

>  <SCORE.INTER.CONST>
1

>  <SCORE.INTER.POLAR>
0

>  <SCORE.INTER.ROT>
6

>  <SCORE.INTER.SOLV>
20.7108

>  <SCORE.INTER.VDW>
-31.8121

>  <SCORE.INTER.norm>
-1.08178

>  <SCORE.INTRA>
-10.9585

>  <SCORE.INTRA.DIHEDRAL>
0.0970417

>  <SCORE.INTRA.DIHEDRAL.0>
4.94008

>  <SCORE.INTRA.POLAR>
0

>  <SCORE.INTRA.POLAR.0>
0

>  <SCORE.INTRA.REPUL>
0

>  <SCORE.INTRA.REPUL.0>
0

>  <SCORE.INTRA.SOLV>
0.445718

>  <SCORE.INTRA.SOLV.lig_0>
-31.4704

>  <SCORE.INTRA.VDW>
-11.2298

>  <SCORE.INTRA.VDW.0>
10.2807

>  <SCORE.INTRA.norm>
-0.456603

>  <SCORE.RESTR>
0

>  <SCORE.RESTR.CAVITY>
0

>  <SCORE.RESTR.norm>
0

>  <SCORE.SYSTEM>
0

>  <SCORE.SYSTEM.CONST>
0

>  <SCORE.SYSTEM.DIHEDRAL>
0

>  <SCORE.SYSTEM.SOLV>
0

>  <SCORE.SYSTEM.norm>
0

>  <SCORE.heavy>
24

>  <SCORE.norm>
-1.53839

>  <RMSD>
0.863

$$$$
ligand
 OpenBabel11021811493D
libRbt.so/2013.1/901 2013/11/27
 24 26  0  0  0  0  0  0  0  0999 V2000
    6.8097  -10.8853   -9.9169 N   0  0  0  0  0  0  0  0  0  0  0  0
    7.8082  -11.6739   -9.2131 C   0  0  0  0  0  0  0  0  0  0  0  0
   13.1965   -5.9115  -12.7925 O   0  0  0  0  0  0  0  0  0  0  0  0
   11.8764   -5.5086  -12.6413 C   0  0  0  0  0  0  0  0  0  0  0  0
    7.7581   -4.4476  -12.2257 N   0  0  0  0  0  0  0  0  0  0  0  0
   11.4991   -4.0511  -12.6245 C   0  0  0  0  0  0  0  0  0  0  0  0
    8.2293   -6.6438  -12.2235 N   0  0  0  0  0  0  0  0  0  0  0  0
   10.1421   -3.6101  -12.4979 C   0  0  0  0  0  0  0  0  0  0  0  0
    5.8216   -5.9971  -11.9756 N   0  0  0  0  0  0  0  0  0  0  0  0
    9.1398   -4.6360  -12.3701 C   0  0  0  0  0  0  0  0  0  0  0  0
   12.6348  -10.6161  -12.1542 N   0  0  0  0  0  0  0  0  0  0  0  0
    9.4880   -6.0316  -12.3692 C   0  0  0  0  0  0  0  0  0  0  0  0
   10.9107   -6.4446  -12.5150 C   0  0  0  0  0  0  0  0  0  0  0  0
    7.2141   -5.6964  -12.1438 C   0  0  0  0  0  0  0  0  0  0  0  0
   11.2573   -7.9218  -12.5215 C   0  0  0  0  0  0  0  0  0  0  0  0
   12.7469   -8.2374  -12.4386 C   0  0  1  0  0  0  0  0  0  0  0  0
   13.5742   -7.0363  -12.0796 C   0  0  0  0  0  0  0  0  0  0  0  0
   12.9832   -9.3842  -11.4674 C   0  0  0  0  0  0  0  0  0  0  0  0
    8.0069   -8.1024  -12.2426 C   0  0  0  0  0  0  0  0  0  0  0  0
   13.7976  -11.0710  -12.9045 C   0  0  0  0  0  0  0  0  0  0  0  0
   12.2887  -11.5991  -11.1396 C   0  0  0  0  0  0  0  0  0  0  0  0
    7.4450   -8.7020  -10.9420 C   0  0  0  0  0  0  0  0  0  0  0  0
    7.4092  -10.2346  -11.0906 C   0  0  0  0  0  0  0  0  0  0  0  0
    5.7204  -11.7747  -10.3037 C   0  0  0  0  0  0  0  0  0  0  0  0
  1 23  1  0  0  0  0
  1 24  1  0  0  0  0
  1  2  1  0  0  0  0
  3  4  1  0  0  0  0
  3 17  1  0  0  0  0
  4  6  2  0  0  0  0
  4 13  1  0  0  0  0
  5 10  1  0  0  0  0
  5 14  2  0  0  0  0
  6  8  1  0  0  0  0
  7 12  1  0  0  0  0
  7 14  1  0  0  0  0
  7 19  1  0  0  0  0
  8 10  2  0  0  0  0
  9 14  1  0  0  0  0
 10 12  1  0  0  0  0
 11 18  1  0  0  0  0
 11 20  1  0  0  0  0
 11 21  1  0  0  0  0
 12 13  2  0  0  0  0
 13 15  1  0  0  0  0
 15 16  1  0  0  0  0
 16 17  1  0  0  0  0
 16 18  1  1  0  0  0
 19 22  1  0  0  0  0
 22 23  1  0  0  0  0
M  END
>  <CHROM.1>
-113.55005212,117.26737096,85.91016505,77.94274853,-174.46121970,-176.66883220
9.91244408,-7.90577610,-11.83301696,-2.36722662,0.18635169,-0.24727992

>  <Name>
ligand

>  <RI>
0

>  <Rbt.Current_Directory>
/home/itssahil/PROJECTS/Mol_Feturizer/New_Systems/rnas/3TZR

>  <Rbt.Executable>
rbdock ($Id: //depot/dev/client3/rdock/2013.1/src/exe/rbdock.cxx#4 $)

>  <Rbt.Library>
libRbt.so (2013.1, Build901 2013/11/27)

>  <Rbt.Parameter_File>
/export/apps/rDock/src/rDock_2013.1_src/data/scripts/dock_solv.prm

>  <Rbt.Receptor>
prm/pocket_docking_2.prm

>  <SCORE>
-36.4972

>  <SCORE.INTER>
-25.7634

>  <SCORE.INTER.CONST>
1

>  <SCORE.INTER.POLAR>
0

>  <SCORE.INTER.ROT>
6

>  <SCORE.INTER.SOLV>
20.9376

>  <SCORE.INTER.VDW>
-31.7548

>  <SCORE.INTER.norm>
-1.07348

>  <SCORE.INTRA>
-10.7338

>  <SCORE.INTRA.DIHEDRAL>
0.785245

>  <SCORE.INTRA.DIHEDRAL.0>
4.94008

>  <SCORE.INTRA.POLAR>
0

>  <SCORE.INTRA.POLAR.0>
0

>  <SCORE.INTRA.REPUL>
0

>  <SCORE.INTRA.REPUL.0>
0

>  <SCORE.INTRA.SOLV>
0.455988

>  <SCORE.INTRA.SOLV.lig_0>
-31.4704

>  <SCORE.INTRA.VDW>
-11.3544

>  <SCORE.INTRA.VDW.0>
10.2807

>  <SCORE.INTRA.norm>
-0.447243

>  <SCORE.RESTR>
0

>  <SCORE.RESTR.CAVITY>
0

>  <SCORE.RESTR.norm>
0

>  <SCORE.SYSTEM>
0

>  <SCORE.SYSTEM.CONST>
0

>  <SCORE.SYSTEM.DIHEDRAL>
0

>  <SCORE.SYSTEM.SOLV>
0

>  <SCORE.SYSTEM.norm>
0

>  <SCORE.heavy>
24

>  <SCORE.norm>
-1.52072

>  <RMSD>
0.864

$$$$
ligand
 OpenBabel11021811493D
libRbt.so/2013.1/901 2013/11/27
 24 26  0  0  0  0  0  0  0  0999 V2000
    7.0272  -10.9003   -9.7755 N   0  0  0  0  0  0  0  0  0  0  0  0
    8.0752  -11.5460   -9.0015 C   0  0  0  0  0  0  0  0  0  0  0  0
   13.2315   -5.9076  -12.8552 O   0  0  0  0  0  0  0  0  0  0  0  0
   11.9183   -5.5021  -12.6581 C   0  0  0  0  0  0  0  0  0  0  0  0
    7.8190   -4.4329  -12.1000 N   0  0  0  0  0  0  0  0  0  0  0  0
   11.5455   -4.0438  -12.6235 C   0  0  0  0  0  0  0  0  0  0  0  0
    8.2846   -6.6303  -12.1215 N   0  0  0  0  0  0  0  0  0  0  0  0
   10.1946   -3.6001  -12.4497 C   0  0  0  0  0  0  0  0  0  0  0  0
    5.8883   -5.9788  -11.7902 N   0  0  0  0  0  0  0  0  0  0  0  0
    9.1946   -4.6241  -12.2917 C   0  0  0  0  0  0  0  0  0  0  0  0
   12.5650  -10.5987  -12.1657 N   0  0  0  0  0  0  0  0  0  0  0  0
    9.5392   -6.0205  -12.3075 C   0  0  0  0  0  0  0  0  0  0  0  0
   10.9551   -6.4363  -12.5026 C   0  0  0  0  0  0  0  0  0  0  0  0
    7.2750   -5.6808  -12.0043 C   0  0  0  0  0  0  0  0  0  0  0  0
   11.2977   -7.9142  -12.5260 C   0  0  0  0  0  0  0  0  0  0  0  0
   12.7885   -8.2337  -12.4946 C   0  0  1  0  0  0  0  0  0  0  0  0
   13.6303   -7.0358  -12.1595 C   0  0  0  0  0  0  0  0  0  0  0  0
   13.0546   -9.3845  -11.5359 C   0  0  0  0  0  0  0  0  0  0  0  0
    8.0581   -8.0883  -12.1382 C   0  0  0  0  0  0  0  0  0  0  0  0
   13.6312  -11.1544  -12.9881 C   0  0  0  0  0  0  0  0  0  0  0  0
   12.2236  -11.5338  -11.1053 C   0  0  0  0  0  0  0  0  0  0  0  0
    7.6426   -8.7076  -10.7927 C   0  0  0  0  0  0  0  0  0  0  0  0
    7.6004  -10.2386  -10.9562 C   0  0  0  0  0  0  0  0  0  0  0  0
    6.0551  -11.9178  -10.1591 C   0  0  0  0  0  0  0  0  0  0  0  0
  1 23  1  0  0  0  0
  1 24  1  0  0  0  0
  1  2  1  0  0  0  0
  3  4  1  0  0  0  0
  3 17  1  0  0  0  0
  4  6  2  0  0  0  0
  4 13  1  0  0  0  0
  5 10  1  0  0  0  0
  5 14  2  0  0  0  0
  6  8  1  0  0  0  0
  7 12  1  0  0  0  0
  7 14  1  0  0  0  0
  7 19  1  0  0  0  0
  8 10  2  0  0  0  0
  9 14  1  0  0  0  0
 10 12  1  0  0  0  0
 11 18  1  0  0  0  0
 11 20  1  0  0  0  0
 11 21  1  0  0  0  0
 12 13  2  0  0  0  0
 13 15  1  0  0  0  0
 15 16  1  0  0  0  0
 16 17  1  0  0  0  0
 16 18  1  1  0  0  0
 19 22  1  0  0  0  0
 22 23  1  0  0  0  0
M  END
>  <CHROM.1>
-105.72559323,112.77724505,87.83092209,72.73011941,-173.91257483,-171.82605551
9.98590469,-7.90175353,-11.77901564,2.19797245,-0.22108267,2.89133366

>  <Name>
ligand

>  <RI>
0

>  <Rbt.Current_Directory>
/home/itssahil/PROJECTS/Mol_Feturizer/New_Systems/rnas/3TZR

>  <Rbt.Executable>
rbdock ($Id: //depot/dev/client3/rdock/2013.1/src/exe/rbdock.cxx#4 $)

>  <Rbt.Library>
libRbt.so (2013.1, Build901 2013/11/27)

>  <Rbt.Parameter_File>
/export/apps/rDock/src/rDock_2013.1_src/data/scripts/dock_solv.prm

>  <Rbt.Receptor>
prm/blind_docking_100.prm

>  <SCORE>
-36.9583

>  <SCORE.INTER>
-25.887

>  <SCORE.INTER.CONST>
1

>  <SCORE.INTER.POLAR>
0

>  <SCORE.INTER.ROT>
6

>  <SCORE.INTER.SOLV>
20.5677

>  <SCORE.INTER.VDW>
-31.7139

>  <SCORE.INTER.norm>
-1.07862

>  <SCORE.INTRA>
-11.0714

>  <SCORE.INTRA.DIHEDRAL>
0.415895

>  <SCORE.INTRA.DIHEDRAL.0>
4.94008

>  <SCORE.INTRA.POLAR>
0

>  <SCORE.INTRA.POLAR.0>
0

>  <SCORE.INTRA.REPUL>
0

>  <SCORE.INTRA.REPUL.0>
0

>  <SCORE.INTRA.SOLV>
0.32137

>  <SCORE.INTRA.SOLV.lig_0>
-31.4704

>  <SCORE.INTRA.VDW>
-11.44

>  <SCORE.INTRA.VDW.0>
10.2807

>  <SCORE.INTRA.norm>
-0.461308

>  <SCORE.RESTR>
0

>  <SCORE.RESTR.CAVITY>
0

>  <SCORE.RESTR.norm>
0

>  <SCORE.SYSTEM>
0

>  <SCORE.SYSTEM.CONST>
0

>  <SCORE.SYSTEM.DIHEDRAL>
0

>  <SCORE.SYSTEM.SOLV>
0

>  <SCORE.SYSTEM.norm>
0

>  <SCORE.heavy>
24

>  <SCORE.norm>
-1.53993

>  <RMSD>
0.865

$$$$
ligand
 OpenBabel11021811493D
libRbt.so/2013.1/901 2013/11/27
 24 26  0  0  0  0  0  0  0  0999 V2000
    7.5083  -10.7870  -10.5515 N   0  0  0  0  0  0  0  0  0  0  0  0
    6.3712  -11.6368  -10.8661 C   0  0  0  0  0  0  0  0  0  0  0  0
   13.3950   -6.1295  -12.5286 O   0  0  0  0  0  0  0  0  0  0  0  0
   12.0781   -5.7146  -12.3822 C   0  0  0  0  0  0  0  0  0  0  0  0
    7.9681   -4.6091  -12.0018 N   0  0  0  0  0  0  0  0  0  0  0  0
   11.7284   -4.2588  -12.2235 C   0  0  0  0  0  0  0  0  0  0  0  0
    8.3968   -6.8035  -12.2171 N   0  0  0  0  0  0  0  0  0  0  0  0
   10.3762   -3.8026  -12.0988 C   0  0  0  0  0  0  0  0  0  0  0  0
    5.9943   -6.1314  -11.9870 N   0  0  0  0  0  0  0  0  0  0  0  0
    9.3504   -4.8129  -12.1165 C   0  0  0  0  0  0  0  0  0  0  0  0
   12.3321  -10.7926  -12.2344 N   0  0  0  0  0  0  0  0  0  0  0  0
    9.6716   -6.2084  -12.2521 C   0  0  0  0  0  0  0  0  0  0  0  0
   11.0906   -6.6363  -12.3906 C   0  0  0  0  0  0  0  0  0  0  0  0
    7.3977   -5.8468  -12.0728 C   0  0  0  0  0  0  0  0  0  0  0  0
   11.4090   -8.1120  -12.5422 C   0  0  0  0  0  0  0  0  0  0  0  0
   12.8881   -8.4689  -12.4408 C   0  0  1  0  0  0  0  0  0  0  0  0
   13.7240   -7.3318  -11.9268 C   0  0  0  0  0  0  0  0  0  0  0  0
   13.0657   -9.7170  -11.5896 C   0  0  0  0  0  0  0  0  0  0  0  0
    8.1475   -8.2464  -12.3993 C   0  0  0  0  0  0  0  0  0  0  0  0
   13.1515  -11.3285  -13.3129 C   0  0  0  0  0  0  0  0  0  0  0  0
   12.0994  -11.8232  -11.2348 C   0  0  0  0  0  0  0  0  0  0  0  0
    6.8137   -8.7630  -11.8329 C   0  0  0  0  0  0  0  0  0  0  0  0
    7.0826   -9.3838  -10.4493 C   0  0  0  0  0  0  0  0  0  0  0  0
    8.0913  -11.2556   -9.2993 C   0  0  0  0  0  0  0  0  0  0  0  0
  1 23  1  0  0  0  0
  1 24  1  0  0  0  0
  1  2  1  0  0  0  0
  3  4  1  0  0  0  0
  3 17  1  0  0  0  0
  4  6  2  0  0  0  0
  4 13  1  0  0  0  0
  5 10  1  0  0  0  0
  5 14  2  0  0  0  0
  6  8  1  0  0  0  0
  7 12  1  0  0  0  0
  7 14  1  0  0  0  0
  7 19  1  0  0  0  0
  8 10  2  0  0  0  0
  9 14  1  0  0  0  0
 10 12  1  0  0  0  0
 11 18  1  0  0  0  0
 11 20  1  0  0  0  0
 11 21  1  0  0  0  0
 12 13  2  0  0  0  0
 13 15  1  0  0  0  0
 15 16  1  0  0  0  0
 16 17  1  0  0  0  0
 16 18  1  1  0  0  0
 19 22  1  0  0  0  0
 22 23  1  0  0  0  0
M  END
>  <CHROM.1>
-75.04929579,158.58457955,80.97794434,59.94408078,-97.95219106,-85.20999227
10.00637120,-8.00019185,-11.85168737,-2.65817935,0.16950047,-0.16711012

>  <Name>
ligand

>  <RI>
0

>  <Rbt.Current_Directory>
/home/itssahil/PROJECTS/Mol_Feturizer/New_Systems/rnas/3TZR

>  <Rbt.Executable>
rbdock ($Id: //depot/dev/client3/rdock/2013.1/src/exe/rbdock.cxx#4 $)

>  <Rbt.Library>
libRbt.so (2013.1, Build901 2013/11/27)

>  <Rbt.Parameter_File>
/export/apps/rDock/src/rDock_2013.1_src/data/scripts/dock_solv.prm

>  <Rbt.Receptor>
prm/pocket_docking_2.prm

>  <SCORE>
-29.6579

>  <SCORE.INTER>
-23.3943

>  <SCORE.INTER.CONST>
1

>  <SCORE.INTER.POLAR>
0

>  <SCORE.INTER.ROT>
6

>  <SCORE.INTER.SOLV>
20.0475

>  <SCORE.INTER.VDW>
-29.8787

>  <SCORE.INTER.norm>
-0.974762

>  <SCORE.INTRA>
-6.26364

>  <SCORE.INTRA.DIHEDRAL>
3.13369

>  <SCORE.INTRA.DIHEDRAL.0>
4.94008

>  <SCORE.INTRA.POLAR>
0

>  <SCORE.INTRA.POLAR.0>
0

>  <SCORE.INTRA.REPUL>
0

>  <SCORE.INTRA.REPUL.0>
0

>  <SCORE.INTRA.SOLV>
2.11581

>  <SCORE.INTRA.SOLV.lig_0>
-31.4704

>  <SCORE.INTRA.VDW>
-8.88839

>  <SCORE.INTRA.VDW.0>
10.2807

>  <SCORE.INTRA.norm>
-0.260985

>  <SCORE.RESTR>
0

>  <SCORE.RESTR.CAVITY>
0

>  <SCORE.RESTR.norm>
0

>  <SCORE.SYSTEM>
0

>  <SCORE.SYSTEM.CONST>
0

>  <SCORE.SYSTEM.DIHEDRAL>
0

>  <SCORE.SYSTEM.SOLV>
0

>  <SCORE.SYSTEM.norm>
0

>  <SCORE.heavy>
24

>  <SCORE.norm>
-1.23575

>  <RMSD>
0.865

$$$$
ligand
 OpenBabel11021811493D
libRbt.so/2013.1/901 2013/11/27
 24 26  0  0  0  0  0  0  0  0999 V2000
    6.7491  -10.9389   -9.9739 N   0  0  0  0  0  0  0  0  0  0  0  0
    7.8917  -11.5000   -9.2711 C   0  0  0  0  0  0  0  0  0  0  0  0
   13.1872   -5.8713  -12.7824 O   0  0  0  0  0  0  0  0  0  0  0  0
   11.8636   -5.4861  -12.6167 C   0  0  0  0  0  0  0  0  0  0  0  0
    7.7362   -4.4794  -12.1583 N   0  0  0  0  0  0  0  0  0  0  0  0
   11.4693   -4.0335  -12.5789 C   0  0  0  0  0  0  0  0  0  0  0  0
    8.2334   -6.6697  -12.1871 N   0  0  0  0  0  0  0  0  0  0  0  0
   10.1081   -3.6103  -12.4371 C   0  0  0  0  0  0  0  0  0  0  0  0
    5.8201   -6.0548  -11.9139 N   0  0  0  0  0  0  0  0  0  0  0  0
    9.1189   -4.6495  -12.3150 C   0  0  0  0  0  0  0  0  0  0  0  0
   12.5845  -10.5795  -12.1595 N   0  0  0  0  0  0  0  0  0  0  0  0
    9.4837   -6.0408  -12.3341 C   0  0  0  0  0  0  0  0  0  0  0  0
   10.9100   -6.4350  -12.4953 C   0  0  0  0  0  0  0  0  0  0  0  0
    7.2077   -5.7356  -12.0883 C   0  0  0  0  0  0  0  0  0  0  0  0
   11.2740   -7.9077  -12.5228 C   0  0  0  0  0  0  0  0  0  0  0  0
   12.7678   -8.2066  -12.4545 C   0  0  1  0  0  0  0  0  0  0  0  0
   13.5834   -7.0003  -12.0864 C   0  0  0  0  0  0  0  0  0  0  0  0
   13.0247   -9.3625  -11.4995 C   0  0  0  0  0  0  0  0  0  0  0  0
    8.0281   -8.1305  -12.2229 C   0  0  0  0  0  0  0  0  0  0  0  0
   13.6761  -11.0776  -12.9855 C   0  0  0  0  0  0  0  0  0  0  0  0
   12.2702  -11.5498  -11.1225 C   0  0  0  0  0  0  0  0  0  0  0  0
    7.4645   -8.7502  -10.9325 C   0  0  0  0  0  0  0  0  0  0  0  0
    7.1910  -10.2437  -11.1912 C   0  0  0  0  0  0  0  0  0  0  0  0
    5.8322  -12.0283  -10.2901 C   0  0  0  0  0  0  0  0  0  0  0  0
  1 23  1  0  0  0  0
  1 24  1  0  0  0  0
  1  2  1  0  0  0  0
  3  4  1  0  0  0  0
  3 17  1  0  0  0  0
  4  6  2  0  0  0  0
  4 13  1  0  0  0  0
  5 10  1  0  0  0  0
  5 14  2  0  0  0  0
  6  8  1  0  0  0  0
  7 12  1  0  0  0  0
  7 14  1  0  0  0  0
  7 19  1  0  0  0  0
  8 10  2  0  0  0  0
  9 14  1  0  0  0  0
 10 12  1  0  0  0  0
 11 18  1  0  0  0  0
 11 20  1  0  0  0  0
 11 21  1  0  0  0  0
 12 13  2  0  0  0  0
 13 15  1  0  0  0  0
 15 16  1  0  0  0  0
 16 17  1  0  0  0  0
 16 18  1  1  0  0  0
 19 22  1  0  0  0  0
 22 23  1  0  0  0  0
M  END
>  <CHROM.1>
-91.59711178,118.07988991,85.89422011,73.41792544,174.71822981,175.46634249
9.90107363,-7.91097601,-11.82760696,-2.35988701,0.18634400,-0.23227205

>  <Name>
ligand

>  <RI>
0

>  <Rbt.Current_Directory>
/home/itssahil/PROJECTS/Mol_Feturizer/New_Systems/rnas/3TZR

>  <Rbt.Executable>
rbdock ($Id: //depot/dev/client3/rdock/2013.1/src/exe/rbdock.cxx#4 $)

>  <Rbt.Library>
libRbt.so (2013.1, Build901 2013/11/27)

>  <Rbt.Parameter_File>
/export/apps/rDock/src/rDock_2013.1_src/data/scripts/dock_solv.prm

>  <Rbt.Receptor>
prm/pocket_docking_2.prm

>  <SCORE>
-36.8618

>  <SCORE.INTER>
-25.8444

>  <SCORE.INTER.CONST>
1

>  <SCORE.INTER.POLAR>
0

>  <SCORE.INTER.ROT>
6

>  <SCORE.INTER.SOLV>
20.523

>  <SCORE.INTER.VDW>
-31.6706

>  <SCORE.INTER.norm>
-1.07685

>  <SCORE.INTRA>
-11.0173

>  <SCORE.INTRA.DIHEDRAL>
-0.66667

>  <SCORE.INTRA.DIHEDRAL.0>
4.94008

>  <SCORE.INTRA.POLAR>
0

>  <SCORE.INTRA.POLAR.0>
0

>  <SCORE.INTRA.REPUL>
0

>  <SCORE.INTRA.REPUL.0>
0

>  <SCORE.INTRA.SOLV>
0.621482

>  <SCORE.INTRA.SOLV.lig_0>
-31.4704

>  <SCORE.INTRA.VDW>
-10.9947

>  <SCORE.INTRA.VDW.0>
10.2807

>  <SCORE.INTRA.norm>
-0.459055

>  <SCORE.RESTR>
0

>  <SCORE.RESTR.CAVITY>
0

>  <SCORE.RESTR.norm>
0

>  <SCORE.SYSTEM>
0

>  <SCORE.SYSTEM.CONST>
0

>  <SCORE.SYSTEM.DIHEDRAL>
0

>  <SCORE.SYSTEM.SOLV>
0

>  <SCORE.SYSTEM.norm>
0

>  <SCORE.heavy>
24

>  <SCORE.norm>
-1.53591

>  <RMSD>
0.867

$$$$
ligand
 OpenBabel11021811493D
libRbt.so/2013.1/901 2013/11/27
 24 26  0  0  0  0  0  0  0  0999 V2000
    6.4722  -10.9143  -10.0858 N   0  0  0  0  0  0  0  0  0  0  0  0
    7.3200  -11.9142   -9.4567 C   0  0  0  0  0  0  0  0  0  0  0  0
   13.1972   -5.9390  -12.7629 O   0  0  0  0  0  0  0  0  0  0  0  0
   11.8775   -5.5412  -12.5955 C   0  0  0  0  0  0  0  0  0  0  0  0
    7.7604   -4.4949  -12.1330 N   0  0  0  0  0  0  0  0  0  0  0  0
   11.4981   -4.0849  -12.5491 C   0  0  0  0  0  0  0  0  0  0  0  0
    8.2350   -6.6900  -12.1749 N   0  0  0  0  0  0  0  0  0  0  0  0
   10.1413   -3.6485  -12.4054 C   0  0  0  0  0  0  0  0  0  0  0  0
    5.8281   -6.0520  -11.8990 N   0  0  0  0  0  0  0  0  0  0  0  0
    9.1414   -4.6783  -12.2901 C   0  0  0  0  0  0  0  0  0  0  0  0
   12.6401  -10.6549  -12.2061 N   0  0  0  0  0  0  0  0  0  0  0  0
    9.4918   -6.0731  -12.3175 C   0  0  0  0  0  0  0  0  0  0  0  0
   10.9141   -6.4810  -12.4803 C   0  0  0  0  0  0  0  0  0  0  0  0
    7.2189   -5.7460  -12.0708 C   0  0  0  0  0  0  0  0  0  0  0  0
   11.2630   -7.9572  -12.5166 C   0  0  0  0  0  0  0  0  0  0  0  0
   12.7536   -8.2718  -12.4494 C   0  0  1  0  0  0  0  0  0  0  0  0
   13.5813   -7.0762  -12.0736 C   0  0  0  0  0  0  0  0  0  0  0  0
   12.9981   -9.4360  -11.5013 C   0  0  0  0  0  0  0  0  0  0  0  0
    8.0148   -8.1484  -12.2196 C   0  0  0  0  0  0  0  0  0  0  0  0
   13.7999  -11.1091  -12.9614 C   0  0  0  0  0  0  0  0  0  0  0  0
   12.2843  -11.6494  -11.2061 C   0  0  0  0  0  0  0  0  0  0  0  0
    7.3558   -8.7555  -10.9690 C   0  0  0  0  0  0  0  0  0  0  0  0
    7.1847  -10.2691  -11.1977 C   0  0  0  0  0  0  0  0  0  0  0  0
    5.2579  -11.5766  -10.5488 C   0  0  0  0  0  0  0  0  0  0  0  0
  1 23  1  0  0  0  0
  1 24  1  0  0  0  0
  1  2  1  0  0  0  0
  3  4  1  0  0  0  0
  3 17  1  0  0  0  0
  4  6  2  0  0  0  0
  4 13  1  0  0  0  0
  5 10  1  0  0  0  0
  5 14  2  0  0  0  0
  6  8  1  0  0  0  0
  7 12  1  0  0  0  0
  7 14  1  0  0  0  0
  7 19  1  0  0  0  0
  8 10  2  0  0  0  0
  9 14  1  0  0  0  0
 10 12  1  0  0  0  0
 11 18  1  0  0  0  0
 11 20  1  0  0  0  0
 11 21  1  0  0  0  0
 12 13  2  0  0  0  0
 13 15  1  0  0  0  0
 15 16  1  0  0  0  0
 16 17  1  0  0  0  0
 16 18  1  1  0  0  0
 19 22  1  0  0  0  0
 22 23  1  0  0  0  0
M  END
>  <CHROM.1>
-118.66344577,122.05414365,86.72021657,77.63682338,179.15198258,-175.90804888
9.84395129,-7.94499204,-11.84935023,-2.55596219,0.17836135,-0.20930922

>  <Name>
ligand

>  <RI>
0

>  <Rbt.Current_Directory>
/home/itssahil/PROJECTS/Mol_Feturizer/New_Systems/rnas/3TZR

>  <Rbt.Executable>
rbdock ($Id: //depot/dev/client3/rdock/2013.1/src/exe/rbdock.cxx#4 $)

>  <Rbt.Library>
libRbt.so (2013.1, Build901 2013/11/27)

>  <Rbt.Parameter_File>
/export/apps/rDock/src/rDock_2013.1_src/data/scripts/dock_solv.prm

>  <Rbt.Receptor>
prm/pocket_docking_6.prm

>  <SCORE>
-36.1604

>  <SCORE.INTER>
-25.6242

>  <SCORE.INTER.CONST>
1

>  <SCORE.INTER.POLAR>
0

>  <SCORE.INTER.ROT>
6

>  <SCORE.INTER.SOLV>
20.5853

>  <SCORE.INTER.VDW>
-31.5445

>  <SCORE.INTER.norm>
-1.06767

>  <SCORE.INTRA>
-10.5362

>  <SCORE.INTRA.DIHEDRAL>
0.743318

>  <SCORE.INTRA.DIHEDRAL.0>
4.94008

>  <SCORE.INTRA.POLAR>
0

>  <SCORE.INTRA.POLAR.0>
0

>  <SCORE.INTRA.REPUL>
0

>  <SCORE.INTRA.REPUL.0>
0

>  <SCORE.INTRA.SOLV>
0.675527

>  <SCORE.INTRA.SOLV.lig_0>
-31.4704

>  <SCORE.INTRA.VDW>
-11.2457

>  <SCORE.INTRA.VDW.0>
10.2807

>  <SCORE.INTRA.norm>
-0.43901

>  <SCORE.RESTR>
0

>  <SCORE.RESTR.CAVITY>
0

>  <SCORE.RESTR.norm>
0

>  <SCORE.SYSTEM>
0

>  <SCORE.SYSTEM.CONST>
0

>  <SCORE.SYSTEM.DIHEDRAL>
0

>  <SCORE.SYSTEM.SOLV>
0

>  <SCORE.SYSTEM.norm>
0

>  <SCORE.heavy>
24

>  <SCORE.norm>
-1.50668

>  <RMSD>
0.870

$$$$
ligand
 OpenBabel11021811493D
libRbt.so/2013.1/901 2013/11/27
 24 26  0  0  0  0  0  0  0  0999 V2000
    6.8092  -10.8905   -9.9463 N   0  0  0  0  0  0  0  0  0  0  0  0
    7.9814  -11.4791   -9.3187 C   0  0  0  0  0  0  0  0  0  0  0  0
   13.2075   -5.8787  -12.8368 O   0  0  0  0  0  0  0  0  0  0  0  0
   11.8907   -5.4782  -12.6538 C   0  0  0  0  0  0  0  0  0  0  0  0
    7.7816   -4.4235  -12.1420 N   0  0  0  0  0  0  0  0  0  0  0  0
   11.5143   -4.0211  -12.6074 C   0  0  0  0  0  0  0  0  0  0  0  0
    8.2521   -6.6196  -12.1826 N   0  0  0  0  0  0  0  0  0  0  0  0
   10.1601   -3.5820  -12.4477 C   0  0  0  0  0  0  0  0  0  0  0  0
    5.8499   -5.9767  -11.8781 N   0  0  0  0  0  0  0  0  0  0  0  0
    9.1601   -4.6097  -12.3162 C   0  0  0  0  0  0  0  0  0  0  0  0
   12.5945  -10.5861  -12.2352 N   0  0  0  0  0  0  0  0  0  0  0  0
    9.5079   -6.0052  -12.3434 C   0  0  0  0  0  0  0  0  0  0  0  0
   10.9273   -6.4160  -12.5231 C   0  0  0  0  0  0  0  0  0  0  0  0
    7.2389   -5.6735  -12.0687 C   0  0  0  0  0  0  0  0  0  0  0  0
   11.2734   -7.8928  -12.5589 C   0  0  0  0  0  0  0  0  0  0  0  0
   12.7642   -8.2097  -12.5099 C   0  0  1  0  0  0  0  0  0  0  0  0
   13.5986   -7.0142  -12.1487 C   0  0  0  0  0  0  0  0  0  0  0  0
   13.0190   -9.3712  -11.5611 C   0  0  0  0  0  0  0  0  0  0  0  0
    8.0289   -8.0777  -12.2197 C   0  0  0  0  0  0  0  0  0  0  0  0
   13.7172  -11.1025  -13.0064 C   0  0  0  0  0  0  0  0  0  0  0  0
   12.2191  -11.5466  -11.2096 C   0  0  0  0  0  0  0  0  0  0  0  0
    7.4829   -8.6956  -10.9209 C   0  0  0  0  0  0  0  0  0  0  0  0
    7.1910  -10.1858  -11.1784 C   0  0  0  0  0  0  0  0  0  0  0  0
    5.8575  -11.9608  -10.2221 C   0  0  0  0  0  0  0  0  0  0  0  0
  1 23  1  0  0  0  0
  1 24  1  0  0  0  0
  1  2  1  0  0  0  0
  3  4  1  0  0  0  0
  3 17  1  0  0  0  0
  4  6  2  0  0  0  0
  4 13  1  0  0  0  0
  5 10  1  0  0  0  0
  5 14  2  0  0  0  0
  6  8  1  0  0  0  0
  7 12  1  0  0  0  0
  7 14  1  0  0  0  0
  7 19  1  0  0  0  0
  8 10  2  0  0  0  0
  9 14  1  0  0  0  0
 10 12  1  0  0  0  0
 11 18  1  0  0  0  0
 11 20  1  0  0  0  0
 11 21  1  0  0  0  0
 12 13  2  0  0  0  0
 13 15  1  0  0  0  0
 15 16  1  0  0  0  0
 16 17  1  0  0  0  0
 16 18  1  1  0  0  0
 19 22  1  0  0  0  0
 22 23  1  0  0  0  0
M  END
>  <CHROM.1>
-92.46969785,117.68016106,88.38317255,75.15789303,174.89014981,173.50521058
9.92370447,-7.88447453,-11.84529530,-2.34981614,0.20126313,-0.22959099

>  <Name>
ligand

>  <RI>
144

>  <Rbt.Current_Directory>
/home/itssahil/PROJECTS/Mol_Feturizer/New_Systems/rnas/3TZR

>  <Rbt.Executable>
rbdock ($Id: //depot/dev/client3/rdock/2013.1/src/exe/rbdock.cxx#4 $)

>  <Rbt.Library>
libRbt.so (2013.1, Build901 2013/11/27)

>  <Rbt.Parameter_File>
/export/apps/rDock/src/rDock_2013.1_src/data/scripts/dock_solv.prm

>  <Rbt.Receptor>
prm/pocket_docking_8.prm

>  <SCORE>
-36.7853

>  <SCORE.INTER>
-25.8154

>  <SCORE.INTER.CONST>
1

>  <SCORE.INTER.POLAR>
0

>  <SCORE.INTER.ROT>
6

>  <SCORE.INTER.SOLV>
20.7402

>  <SCORE.INTER.VDW>
-31.7237

>  <SCORE.INTER.norm>
-1.07564

>  <SCORE.INTRA>
-10.9698

>  <SCORE.INTRA.DIHEDRAL>
-0.225679

>  <SCORE.INTRA.DIHEDRAL.0>
4.94008

>  <SCORE.INTRA.POLAR>
0

>  <SCORE.INTRA.POLAR.0>
0

>  <SCORE.INTRA.REPUL>
0

>  <SCORE.INTRA.REPUL.0>
0

>  <SCORE.INTRA.SOLV>
0.604764

>  <SCORE.INTRA.SOLV.lig_0>
-31.4704

>  <SCORE.INTRA.VDW>
-11.1594

>  <SCORE.INTRA.VDW.0>
10.2807

>  <SCORE.INTRA.norm>
-0.457076

>  <SCORE.RESTR>
0

>  <SCORE.RESTR.CAVITY>
0

>  <SCORE.RESTR.norm>
0

>  <SCORE.SYSTEM>
0

>  <SCORE.SYSTEM.CONST>
0

>  <SCORE.SYSTEM.DIHEDRAL>
0

>  <SCORE.SYSTEM.SOLV>
0

>  <SCORE.SYSTEM.norm>
0

>  <SCORE.heavy>
24

>  <SCORE.norm>
-1.53272

>  <RMSD>
0.870

$$$$
ligand
 OpenBabel11021811493D
libRbt.so/2013.1/901 2013/11/27
 24 26  0  0  0  0  0  0  0  0999 V2000
    6.4452  -10.6221  -10.2162 N   0  0  0  0  0  0  0  0  0  0  0  0
    7.1755  -11.7456   -9.6516 C   0  0  0  0  0  0  0  0  0  0  0  0
   13.8914   -7.3821  -12.7930 O   0  0  0  0  0  0  0  0  0  0  0  0
   12.7540   -6.6279  -12.5374 C   0  0  0  0  0  0  0  0  0  0  0  0
    9.1465   -4.4536  -11.8179 N   0  0  0  0  0  0  0  0  0  0  0  0
   12.8310   -5.1378  -12.3358 C   0  0  0  0  0  0  0  0  0  0  0  0
    8.9379   -6.6735  -12.0900 N   0  0  0  0  0  0  0  0  0  0  0  0
   11.6696   -4.3335  -12.0986 C   0  0  0  0  0  0  0  0  0  0  0  0
    6.8369   -5.3780  -11.6615 N   0  0  0  0  0  0  0  0  0  0  0  0
   10.4070   -5.0238  -12.0450 C   0  0  0  0  0  0  0  0  0  0  0  0
   13.5284  -11.7603  -12.4813 N   0  0  0  0  0  0  0  0  0  0  0  0
   10.3210   -6.4488  -12.2205 C   0  0  0  0  0  0  0  0  0  0  0  0
   11.5532   -7.2437  -12.4766 C   0  0  0  0  0  0  0  0  0  0  0  0
    8.2540   -5.4852  -11.8562 C   0  0  0  0  0  0  0  0  0  0  0  0
   11.4413   -8.7446  -12.6688 C   0  0  0  0  0  0  0  0  0  0  0  0
   12.7685   -9.4953  -12.6897 C   0  0  1  0  0  0  0  0  0  0  0  0
   13.9206   -8.6472  -12.2322 C   0  0  0  0  0  0  0  0  0  0  0  0
   12.6584  -10.7712  -11.8687 C   0  0  0  0  0  0  0  0  0  0  0  0
    8.2885   -7.9867  -12.2670 C   0  0  0  0  0  0  0  0  0  0  0  0
   14.0929  -12.5938  -11.4285 C   0  0  0  0  0  0  0  0  0  0  0  0
   12.7098  -12.5737  -13.3667 C   0  0  0  0  0  0  0  0  0  0  0  0
    7.6983   -8.6092  -10.9900 C   0  0  0  0  0  0  0  0  0  0  0  0
    7.2031  -10.0282  -11.3266 C   0  0  0  0  0  0  0  0  0  0  0  0
    5.1439  -11.1065  -10.6630 C   0  0  0  0  0  0  0  0  0  0  0  0
  1 23  1  0  0  0  0
  1 24  1  0  0  0  0
  1  2  1  0  0  0  0
  3  4  1  0  0  0  0
  3 17  1  0  0  0  0
  4  6  2  0  0  0  0
  4 13  1  0  0  0  0
  5 10  1  0  0  0  0
  5 14  2  0  0  0  0
  6  8  1  0  0  0  0
  7 12  1  0  0  0  0
  7 14  1  0  0  0  0
  7 19  1  0  0  0  0
  8 10  2  0  0  0  0
  9 14  1  0  0  0  0
 10 12  1  0  0  0  0
 11 18  1  0  0  0  0
 11 20  1  0  0  0  0
 11 21  1  0  0  0  0
 12 13  2  0  0  0  0
 13 15  1  0  0  0  0
 15 16  1  0  0  0  0
 16 17  1  0  0  0  0
 16 18  1  1  0  0  0
 19 22  1  0  0  0  0
 22 23  1  0  0  0  0
M  END
>  <CHROM.1>
-112.72542278,111.77101550,145.63666603,147.92127782,-173.96080698,-171.54440282
10.37912348,-8.43211819,-11.88922048,2.94568893,0.22922567,-0.10464676

>  <Name>
ligand

>  <RI>
0

>  <Rbt.Current_Directory>
/home/itssahil/PROJECTS/Mol_Feturizer/New_Systems/rnas/3TZR

>  <Rbt.Executable>
rbdock ($Id: //depot/dev/client3/rdock/2013.1/src/exe/rbdock.cxx#4 $)

>  <Rbt.Library>
libRbt.so (2013.1, Build901 2013/11/27)

>  <Rbt.Parameter_File>
/export/apps/rDock/src/rDock_2013.1_src/data/scripts/dock_solv.prm

>  <Rbt.Receptor>
prm/blind_docking_40.prm

>  <SCORE>
-33.474

>  <SCORE.INTER>
-23.7923

>  <SCORE.INTER.CONST>
1

>  <SCORE.INTER.POLAR>
0

>  <SCORE.INTER.ROT>
6

>  <SCORE.INTER.SOLV>
20.7849

>  <SCORE.INTER.VDW>
-30.3898

>  <SCORE.INTER.norm>
-0.991347

>  <SCORE.INTRA>
-9.68817

>  <SCORE.INTRA.DIHEDRAL>
3.51141

>  <SCORE.INTRA.DIHEDRAL.0>
4.94008

>  <SCORE.INTRA.POLAR>
0

>  <SCORE.INTRA.POLAR.0>
0

>  <SCORE.INTRA.REPUL>
0

>  <SCORE.INTRA.REPUL.0>
0

>  <SCORE.INTRA.SOLV>
0.291982

>  <SCORE.INTRA.SOLV.lig_0>
-31.4704

>  <SCORE.INTRA.VDW>
-11.5899

>  <SCORE.INTRA.VDW.0>
10.2807

>  <SCORE.INTRA.norm>
-0.403674

>  <SCORE.RESTR>
0.00646307

>  <SCORE.RESTR.CAVITY>
0.00646307

>  <SCORE.RESTR.norm>
0.000269295

>  <SCORE.SYSTEM>
0

>  <SCORE.SYSTEM.CONST>
0

>  <SCORE.SYSTEM.DIHEDRAL>
0

>  <SCORE.SYSTEM.SOLV>
0

>  <SCORE.SYSTEM.norm>
0

>  <SCORE.heavy>
24

>  <SCORE.norm>
-1.39475

>  <RMSD>
0.872

$$$$
ligand
 OpenBabel11021811493D
libRbt.so/2013.1/901 2013/11/27
 24 26  0  0  0  0  0  0  0  0999 V2000
    6.8229  -10.9434   -9.9227 N   0  0  0  0  0  0  0  0  0  0  0  0
    7.8188  -11.7708   -9.2611 C   0  0  0  0  0  0  0  0  0  0  0  0
   13.1419   -5.8754  -12.7562 O   0  0  0  0  0  0  0  0  0  0  0  0
   11.8190   -5.4855  -12.5957 C   0  0  0  0  0  0  0  0  0  0  0  0
    7.6934   -4.4642  -12.1534 N   0  0  0  0  0  0  0  0  0  0  0  0
   11.4297   -4.0315  -12.5591 C   0  0  0  0  0  0  0  0  0  0  0  0
    8.1828   -6.6563  -12.1808 N   0  0  0  0  0  0  0  0  0  0  0  0
   10.0695   -3.6035  -12.4226 C   0  0  0  0  0  0  0  0  0  0  0  0
    5.7707   -6.0329  -11.9170 N   0  0  0  0  0  0  0  0  0  0  0  0
    9.0761   -4.6392  -12.3047 C   0  0  0  0  0  0  0  0  0  0  0  0
   12.5883  -10.5894  -12.1641 N   0  0  0  0  0  0  0  0  0  0  0  0
    9.4360   -6.0318  -12.3227 C   0  0  0  0  0  0  0  0  0  0  0  0
   10.8615   -6.4310  -12.4783 C   0  0  0  0  0  0  0  0  0  0  0  0
    7.1601   -5.7185  -12.0858 C   0  0  0  0  0  0  0  0  0  0  0  0
   11.2204   -7.9050  -12.5047 C   0  0  0  0  0  0  0  0  0  0  0  0
   12.7128   -8.2093  -12.4306 C   0  0  1  0  0  0  0  0  0  0  0  0
   13.5313   -7.0059  -12.0589 C   0  0  0  0  0  0  0  0  0  0  0  0
   12.9618   -9.3663  -11.4748 C   0  0  0  0  0  0  0  0  0  0  0  0
    7.9725   -8.1164  -12.2178 C   0  0  0  0  0  0  0  0  0  0  0  0
   13.7288  -11.0445  -12.9477 C   0  0  0  0  0  0  0  0  0  0  0  0
   12.2613  -11.5798  -11.1504 C   0  0  0  0  0  0  0  0  0  0  0  0
    7.4486   -8.7415  -10.9134 C   0  0  0  0  0  0  0  0  0  0  0  0
    7.4127  -10.2712  -11.0892 C   0  0  0  0  0  0  0  0  0  0  0  0
    5.7089  -11.8003  -10.3130 C   0  0  0  0  0  0  0  0  0  0  0  0
  1 23  1  0  0  0  0
  1 24  1  0  0  0  0
  1  2  1  0  0  0  0
  3  4  1  0  0  0  0
  3 17  1  0  0  0  0
  4  6  2  0  0  0  0
  4 13  1  0  0  0  0
  5 10  1  0  0  0  0
  5 14  2  0  0  0  0
  6  8  1  0  0  0  0
  7 12  1  0  0  0  0
  7 14  1  0  0  0  0
  7 19  1  0  0  0  0
  8 10  2  0  0  0  0
  9 14  1  0  0  0  0
 10 12  1  0  0  0  0
 11 18  1  0  0  0  0
 11 20  1  0  0  0  0
 11 21  1  0  0  0  0
 12 13  2  0  0  0  0
 13 15  1  0  0  0  0
 15 16  1  0  0  0  0
 16 17  1  0  0  0  0
 16 18  1  1  0  0  0
 19 22  1  0  0  0  0
 22 23  1  0  0  0  0
M  END
>  <CHROM.1>
-115.01402226,116.00441290,85.73701176,76.47901821,-174.85712874,-175.51790199
9.87474275,-7.91023906,-11.81123545,-2.33381677,0.18726032,-0.23604774

>  <Name>
ligand

>  <RI>
0

>  <Rbt.Current_Directory>
/home/itssahil/PROJECTS/Mol_Feturizer/New_Systems/rnas/3TZR

>  <Rbt.Executable>
rbdock ($Id: //depot/dev/client3/rdock/2013.1/src/exe/rbdock.cxx#4 $)

>  <Rbt.Library>
libRbt.so (2013.1, Build901 2013/11/27)

>  <Rbt.Parameter_File>
/export/apps/rDock/src/rDock_2013.1_src/data/scripts/dock_solv.prm

>  <Rbt.Receptor>
prm/pocket_docking_2.prm

>  <SCORE>
-36.4624

>  <SCORE.INTER>
-25.6565

>  <SCORE.INTER.CONST>
1

>  <SCORE.INTER.POLAR>
0

>  <SCORE.INTER.ROT>
6

>  <SCORE.INTER.SOLV>
20.7199

>  <SCORE.INTER.VDW>
-31.611

>  <SCORE.INTER.norm>
-1.06902

>  <SCORE.INTRA>
-10.8058

>  <SCORE.INTRA.DIHEDRAL>
0.676247

>  <SCORE.INTRA.DIHEDRAL.0>
4.94008

>  <SCORE.INTRA.POLAR>
0

>  <SCORE.INTRA.POLAR.0>
0

>  <SCORE.INTRA.REPUL>
0

>  <SCORE.INTRA.REPUL.0>
0

>  <SCORE.INTRA.SOLV>
0.424586

>  <SCORE.INTRA.SOLV.lig_0>
-31.4704

>  <SCORE.INTRA.VDW>
-11.3562

>  <SCORE.INTRA.VDW.0>
10.2807

>  <SCORE.INTRA.norm>
-0.450242

>  <SCORE.RESTR>
0

>  <SCORE.RESTR.CAVITY>
0

>  <SCORE.RESTR.norm>
0

>  <SCORE.SYSTEM>
0

>  <SCORE.SYSTEM.CONST>
0

>  <SCORE.SYSTEM.DIHEDRAL>
0

>  <SCORE.SYSTEM.SOLV>
0

>  <SCORE.SYSTEM.norm>
0

>  <SCORE.heavy>
24

>  <SCORE.norm>
-1.51927

>  <RMSD>
0.874

$$$$
ligand
 OpenBabel11021811493D
libRbt.so/2013.1/901 2013/11/27
 24 26  0  0  0  0  0  0  0  0999 V2000
    7.5348  -11.1168   -9.5889 N   0  0  0  0  0  0  0  0  0  0  0  0
    8.7433  -11.9199   -9.4950 C   0  0  0  0  0  0  0  0  0  0  0  0
   13.7947   -7.6372  -13.0366 O   0  0  0  0  0  0  0  0  0  0  0  0
   12.6973   -6.8595  -12.6919 C   0  0  0  0  0  0  0  0  0  0  0  0
    9.2052   -4.6144  -11.6803 N   0  0  0  0  0  0  0  0  0  0  0  0
   12.8065   -5.3633  -12.5644 C   0  0  0  0  0  0  0  0  0  0  0  0
    8.9524   -6.8412  -11.8322 N   0  0  0  0  0  0  0  0  0  0  0  0
   11.6836   -4.5361  -12.2375 C   0  0  0  0  0  0  0  0  0  0  0  0
    6.9197   -5.5040  -11.2348 N   0  0  0  0  0  0  0  0  0  0  0  0
   10.4294   -5.2085  -12.0178 C   0  0  0  0  0  0  0  0  0  0  0  0
   13.5359  -11.9505  -12.4347 N   0  0  0  0  0  0  0  0  0  0  0  0
   10.3146   -6.6386  -12.1214 C   0  0  0  0  0  0  0  0  0  0  0  0
   11.5059   -7.4580  -12.4749 C   0  0  0  0  0  0  0  0  0  0  0  0
    8.3065   -5.6361  -11.5771 C   0  0  0  0  0  0  0  0  0  0  0  0
   11.3630   -8.9642  -12.5890 C   0  0  0  0  0  0  0  0  0  0  0  0
   12.6746   -9.7308  -12.7212 C   0  0  1  0  0  0  0  0  0  0  0  0
   13.8757   -8.8779  -12.4282 C   0  0  0  0  0  0  0  0  0  0  0  0
   12.6452  -10.9696  -11.8388 C   0  0  0  0  0  0  0  0  0  0  0  0
    8.2781   -8.1528  -11.8810 C   0  0  0  0  0  0  0  0  0  0  0  0
   14.1156  -12.7558  -11.3683 C   0  0  0  0  0  0  0  0  0  0  0  0
   12.7352  -12.7941  -13.3082 C   0  0  0  0  0  0  0  0  0  0  0  0
    8.2506   -8.9312  -10.5543 C   0  0  0  0  0  0  0  0  0  0  0  0
    7.5666  -10.2886  -10.8028 C   0  0  0  0  0  0  0  0  0  0  0  0
    6.3898  -12.0203   -9.5946 C   0  0  0  0  0  0  0  0  0  0  0  0
  1 23  1  0  0  0  0
  1 24  1  0  0  0  0
  1  2  1  0  0  0  0
  3  4  1  0  0  0  0
  3 17  1  0  0  0  0
  4  6  2  0  0  0  0
  4 13  1  0  0  0  0
  5 10  1  0  0  0  0
  5 14  2  0  0  0  0
  6  8  1  0  0  0  0
  7 12  1  0  0  0  0
  7 14  1  0  0  0  0
  7 19  1  0  0  0  0
  8 10  2  0  0  0  0
  9 14  1  0  0  0  0
 10 12  1  0  0  0  0
 11 18  1  0  0  0  0
 11 20  1  0  0  0  0
 11 21  1  0  0  0  0
 12 13  2  0  0  0  0
 13 15  1  0  0  0  0
 15 16  1  0  0  0  0
 16 17  1  0  0  0  0
 16 18  1  1  0  0  0
 19 22  1  0  0  0  0
 22 23  1  0  0  0  0
M  END
>  <CHROM.1>
-88.55748633,91.95612204,148.57981847,153.13746952,-177.68105133,178.26343778
10.58694788,-8.68139268,-11.72694055,0.99605631,-0.34377778,2.97237450

>  <Name>
ligand

>  <RI>
0

>  <Rbt.Current_Directory>
/home/itssahil/PROJECTS/Mol_Feturizer/New_Systems/rnas/3TZR

>  <Rbt.Executable>
rbdock ($Id: //depot/dev/client3/rdock/2013.1/src/exe/rbdock.cxx#4 $)

>  <Rbt.Library>
libRbt.so (2013.1, Build901 2013/11/27)

>  <Rbt.Parameter_File>
/export/apps/rDock/src/rDock_2013.1_src/data/scripts/dock_solv.prm

>  <Rbt.Receptor>
prm/pocket_docking_5.prm

>  <SCORE>
-34.989

>  <SCORE.INTER>
-24.0553

>  <SCORE.INTER.CONST>
1

>  <SCORE.INTER.POLAR>
0

>  <SCORE.INTER.ROT>
6

>  <SCORE.INTER.SOLV>
19.4808

>  <SCORE.INTER.VDW>
-30.1305

>  <SCORE.INTER.norm>
-1.0023

>  <SCORE.INTRA>
-10.9337

>  <SCORE.INTRA.DIHEDRAL>
1.12015

>  <SCORE.INTRA.DIHEDRAL.0>
4.94008

>  <SCORE.INTRA.POLAR>
0

>  <SCORE.INTRA.POLAR.0>
0

>  <SCORE.INTRA.REPUL>
0

>  <SCORE.INTRA.REPUL.0>
0

>  <SCORE.INTRA.SOLV>
-0.0963575

>  <SCORE.INTRA.SOLV.lig_0>
-31.4704

>  <SCORE.INTRA.VDW>
-11.4456

>  <SCORE.INTRA.VDW.0>
10.2807

>  <SCORE.INTRA.norm>
-0.45557

>  <SCORE.RESTR>
0

>  <SCORE.RESTR.CAVITY>
0

>  <SCORE.RESTR.norm>
0

>  <SCORE.SYSTEM>
0

>  <SCORE.SYSTEM.CONST>
0

>  <SCORE.SYSTEM.DIHEDRAL>
0

>  <SCORE.SYSTEM.SOLV>
0

>  <SCORE.SYSTEM.norm>
0

>  <SCORE.heavy>
24

>  <SCORE.norm>
-1.45788

>  <RMSD>
0.874

$$$$
ligand
 OpenBabel11021811493D
libRbt.so/2013.1/901 2013/11/27
 24 26  0  0  0  0  0  0  0  0999 V2000
    7.5535  -10.9329   -9.6232 N   0  0  0  0  0  0  0  0  0  0  0  0
    8.5736  -11.8220   -9.0910 C   0  0  0  0  0  0  0  0  0  0  0  0
   13.1430   -5.9988  -12.9042 O   0  0  0  0  0  0  0  0  0  0  0  0
   11.8405   -5.5699  -12.6866 C   0  0  0  0  0  0  0  0  0  0  0  0
    7.7703   -4.4271  -12.0654 N   0  0  0  0  0  0  0  0  0  0  0  0
   11.4956   -4.1051  -12.6398 C   0  0  0  0  0  0  0  0  0  0  0  0
    8.1942   -6.6327  -12.1038 N   0  0  0  0  0  0  0  0  0  0  0  0
   10.1558   -3.6371  -12.4447 C   0  0  0  0  0  0  0  0  0  0  0  0
    5.8155   -5.9382  -11.7355 N   0  0  0  0  0  0  0  0  0  0  0  0
    9.1391   -4.6430  -12.2774 C   0  0  0  0  0  0  0  0  0  0  0  0
   12.9718  -10.6913  -12.3969 N   0  0  0  0  0  0  0  0  0  0  0  0
    9.4573   -6.0455  -12.3047 C   0  0  0  0  0  0  0  0  0  0  0  0
   10.8622   -6.4867  -12.5219 C   0  0  0  0  0  0  0  0  0  0  0  0
    7.2044   -5.6651  -11.9678 C   0  0  0  0  0  0  0  0  0  0  0  0
   11.1767   -7.9706  -12.5571 C   0  0  0  0  0  0  0  0  0  0  0  0
   12.6616   -8.3180  -12.5482 C   0  0  1  0  0  0  0  0  0  0  0  0
   13.5303   -7.1377  -12.2195 C   0  0  0  0  0  0  0  0  0  0  0  0
   12.9195   -9.4783  -11.5989 C   0  0  0  0  0  0  0  0  0  0  0  0
    7.9402   -8.0861  -12.1242 C   0  0  0  0  0  0  0  0  0  0  0  0
   14.3266  -10.8495  -12.9081 C   0  0  0  0  0  0  0  0  0  0  0  0
   12.6435  -11.8050  -11.5209 C   0  0  0  0  0  0  0  0  0  0  0  0
    7.5932   -8.7151  -10.7638 C   0  0  0  0  0  0  0  0  0  0  0  0
    8.0839  -10.1750  -10.7654 C   0  0  0  0  0  0  0  0  0  0  0  0
    6.4051  -11.7431  -10.0131 C   0  0  0  0  0  0  0  0  0  0  0  0
  1 23  1  0  0  0  0
  1 24  1  0  0  0  0
  1  2  1  0  0  0  0
  3  4  1  0  0  0  0
  3 17  1  0  0  0  0
  4  6  2  0  0  0  0
  4 13  1  0  0  0  0
  5 10  1  0  0  0  0
  5 14  2  0  0  0  0
  6  8  1  0  0  0  0
  7 12  1  0  0  0  0
  7 14  1  0  0  0  0
  7 19  1  0  0  0  0
  8 10  2  0  0  0  0
  9 14  1  0  0  0  0
 10 12  1  0  0  0  0
 11 18  1  0  0  0  0
 11 20  1  0  0  0  0
 11 21  1  0  0  0  0
 12 13  2  0  0  0  0
 13 15  1  0  0  0  0
 15 16  1  0  0  0  0
 16 17  1  0  0  0  0
 16 18  1  1  0  0  0
 19 22  1  0  0  0  0
 22 23  1  0  0  0  0
M  END
>  <CHROM.1>
-140.69748693,110.17751503,85.33600789,97.64849876,-150.17341632,-168.18374728
10.07869652,-7.93341999,-11.79193313,1.38176051,-0.24777360,2.87337677

>  <Name>
ligand

>  <RI>
144

>  <Rbt.Current_Directory>
/home/itssahil/PROJECTS/Mol_Feturizer/New_Systems/rnas/3TZR

>  <Rbt.Executable>
rbdock ($Id: //depot/dev/client3/rdock/2013.1/src/exe/rbdock.cxx#4 $)

>  <Rbt.Library>
libRbt.so (2013.1, Build901 2013/11/27)

>  <Rbt.Parameter_File>
/export/apps/rDock/src/rDock_2013.1_src/data/scripts/dock_solv.prm

>  <Rbt.Receptor>
prm/blind_docking_60.prm

>  <SCORE>
-34.4023

>  <SCORE.INTER>
-25.971

>  <SCORE.INTER.CONST>
1

>  <SCORE.INTER.POLAR>
0

>  <SCORE.INTER.ROT>
6

>  <SCORE.INTER.SOLV>
20.5031

>  <SCORE.INTER.VDW>
-31.7484

>  <SCORE.INTER.norm>
-1.08213

>  <SCORE.INTRA>
-8.43128

>  <SCORE.INTRA.DIHEDRAL>
5.82176

>  <SCORE.INTRA.DIHEDRAL.0>
4.94008

>  <SCORE.INTRA.POLAR>
0

>  <SCORE.INTRA.POLAR.0>
0

>  <SCORE.INTRA.REPUL>
0

>  <SCORE.INTRA.REPUL.0>
0

>  <SCORE.INTRA.SOLV>
0.21846

>  <SCORE.INTRA.SOLV.lig_0>
-31.4704

>  <SCORE.INTRA.VDW>
-11.4514

>  <SCORE.INTRA.VDW.0>
10.2807

>  <SCORE.INTRA.norm>
-0.351303

>  <SCORE.RESTR>
0

>  <SCORE.RESTR.CAVITY>
0

>  <SCORE.RESTR.norm>
0

>  <SCORE.SYSTEM>
0

>  <SCORE.SYSTEM.CONST>
0

>  <SCORE.SYSTEM.DIHEDRAL>
0

>  <SCORE.SYSTEM.SOLV>
0

>  <SCORE.SYSTEM.norm>
0

>  <SCORE.heavy>
24

>  <SCORE.norm>
-1.43343

>  <RMSD>
0.875

$$$$
ligand
 OpenBabel11021811493D
libRbt.so/2013.1/901 2013/11/27
 24 26  0  0  0  0  0  0  0  0999 V2000
    6.4349  -10.8666  -10.1334 N   0  0  0  0  0  0  0  0  0  0  0  0
    7.3640  -11.8106   -9.5335 C   0  0  0  0  0  0  0  0  0  0  0  0
   13.2027   -5.9271  -12.6913 O   0  0  0  0  0  0  0  0  0  0  0  0
   11.8873   -5.5160  -12.5221 C   0  0  0  0  0  0  0  0  0  0  0  0
    7.7816   -4.4266  -12.0587 N   0  0  0  0  0  0  0  0  0  0  0  0
   11.5269   -4.0563  -12.4424 C   0  0  0  0  0  0  0  0  0  0  0  0
    8.2275   -6.6262  -12.1513 N   0  0  0  0  0  0  0  0  0  0  0  0
   10.1750   -3.6056  -12.2962 C   0  0  0  0  0  0  0  0  0  0  0  0
    5.8275   -5.9631  -11.8743 N   0  0  0  0  0  0  0  0  0  0  0  0
    9.1610   -4.6245  -12.2120 C   0  0  0  0  0  0  0  0  0  0  0  0
   12.4257  -10.6270  -12.1894 N   0  0  0  0  0  0  0  0  0  0  0  0
    9.4932   -6.0227  -12.2713 C   0  0  0  0  0  0  0  0  0  0  0  0
   10.9110   -6.4454  -12.4356 C   0  0  0  0  0  0  0  0  0  0  0  0
    7.2233   -5.6715  -12.0303 C   0  0  0  0  0  0  0  0  0  0  0  0
   11.2407   -7.9247  -12.5058 C   0  0  0  0  0  0  0  0  0  0  0  0
   12.7266   -8.2608  -12.4375 C   0  0  1  0  0  0  0  0  0  0  0  0
   13.5676   -7.0857  -12.0277 C   0  0  0  0  0  0  0  0  0  0  0  0
   12.9498   -9.4508  -11.5166 C   0  0  0  0  0  0  0  0  0  0  0  0
    7.9884   -8.0800  -12.2329 C   0  0  0  0  0  0  0  0  0  0  0  0
   13.4682  -11.1693  -13.0503 C   0  0  0  0  0  0  0  0  0  0  0  0
   12.0796  -11.5989  -11.1642 C   0  0  0  0  0  0  0  0  0  0  0  0
    7.4162   -8.7278  -10.9603 C   0  0  0  0  0  0  0  0  0  0  0  0
    7.0624  -10.1925  -11.2790 C   0  0  0  0  0  0  0  0  0  0  0  0
    5.2422  -11.6012  -10.5401 C   0  0  0  0  0  0  0  0  0  0  0  0
  1 23  1  0  0  0  0
  1 24  1  0  0  0  0
  1  2  1  0  0  0  0
  3  4  1  0  0  0  0
  3 17  1  0  0  0  0
  4  6  2  0  0  0  0
  4 13  1  0  0  0  0
  5 10  1  0  0  0  0
  5 14  2  0  0  0  0
  6  8  1  0  0  0  0
  7 12  1  0  0  0  0
  7 14  1  0  0  0  0
  7 19  1  0  0  0  0
  8 10  2  0  0  0  0
  9 14  1  0  0  0  0
 10 12  1  0  0  0  0
 11 18  1  0  0  0  0
 11 20  1  0  0  0  0
 11 21  1  0  0  0  0
 12 13  2  0  0  0  0
 13 15  1  0  0  0  0
 15 16  1  0  0  0  0
 16 17  1  0  0  0  0
 16 18  1  1  0  0  0
 19 22  1  0  0  0  0
 22 23  1  0  0  0  0
M  END
>  <CHROM.1>
-107.11213628,117.43094046,86.41198480,70.67273956,172.81843453,-176.72318972
9.80568591,-7.90894534,-11.83034384,-2.48561749,0.17797297,-0.18840038

>  <Name>
ligand

>  <RI>
0

>  <Rbt.Current_Directory>
/home/itssahil/PROJECTS/Mol_Feturizer/New_Systems/rnas/3TZR

>  <Rbt.Executable>
rbdock ($Id: //depot/dev/client3/rdock/2013.1/src/exe/rbdock.cxx#4 $)

>  <Rbt.Library>
libRbt.so (2013.1, Build901 2013/11/27)

>  <Rbt.Parameter_File>
/export/apps/rDock/src/rDock_2013.1_src/data/scripts/dock_solv.prm

>  <Rbt.Receptor>
prm/blind_docking_80.prm

>  <SCORE>
-36.5347

>  <SCORE.INTER>
-25.6572

>  <SCORE.INTER.CONST>
1

>  <SCORE.INTER.POLAR>
0

>  <SCORE.INTER.ROT>
6

>  <SCORE.INTER.SOLV>
20.8697

>  <SCORE.INTER.VDW>
-31.6614

>  <SCORE.INTER.norm>
-1.06905

>  <SCORE.INTRA>
-10.8774

>  <SCORE.INTRA.DIHEDRAL>
0.0451331

>  <SCORE.INTRA.DIHEDRAL.0>
4.94008

>  <SCORE.INTRA.POLAR>
0

>  <SCORE.INTRA.POLAR.0>
0

>  <SCORE.INTRA.REPUL>
0

>  <SCORE.INTRA.REPUL.0>
0

>  <SCORE.INTRA.SOLV>
0.636228

>  <SCORE.INTRA.SOLV.lig_0>
-31.4704

>  <SCORE.INTRA.VDW>
-11.2181

>  <SCORE.INTRA.VDW.0>
10.2807

>  <SCORE.INTRA.norm>
-0.453227

>  <SCORE.RESTR>
0

>  <SCORE.RESTR.CAVITY>
0

>  <SCORE.RESTR.norm>
0

>  <SCORE.SYSTEM>
0

>  <SCORE.SYSTEM.CONST>
0

>  <SCORE.SYSTEM.DIHEDRAL>
0

>  <SCORE.SYSTEM.SOLV>
0

>  <SCORE.SYSTEM.norm>
0

>  <SCORE.heavy>
24

>  <SCORE.norm>
-1.52228

>  <RMSD>
0.876

$$$$
ligand
 OpenBabel11021811493D
libRbt.so/2013.1/901 2013/11/27
 24 26  0  0  0  0  0  0  0  0999 V2000
    7.5548  -10.9960   -9.7180 N   0  0  0  0  0  0  0  0  0  0  0  0
    8.7638  -11.7995   -9.6353 C   0  0  0  0  0  0  0  0  0  0  0  0
   13.8009   -7.6713  -12.9990 O   0  0  0  0  0  0  0  0  0  0  0  0
   12.7244   -6.8511  -12.6885 C   0  0  0  0  0  0  0  0  0  0  0  0
    9.2928   -4.4717  -11.7824 N   0  0  0  0  0  0  0  0  0  0  0  0
   12.8833   -5.3579  -12.5792 C   0  0  0  0  0  0  0  0  0  0  0  0
    8.9653   -6.6903  -11.9090 N   0  0  0  0  0  0  0  0  0  0  0  0
   11.7835   -4.4875  -12.2878 C   0  0  0  0  0  0  0  0  0  0  0  0
    6.9688   -5.2748  -11.3735 N   0  0  0  0  0  0  0  0  0  0  0  0
   10.5022   -5.1127  -12.0856 C   0  0  0  0  0  0  0  0  0  0  0  0
   13.4643  -11.9213  -12.2767 N   0  0  0  0  0  0  0  0  0  0  0  0
   10.3396   -6.5393  -12.1719 C   0  0  0  0  0  0  0  0  0  0  0  0
   11.5086   -7.4046  -12.4887 C   0  0  0  0  0  0  0  0  0  0  0  0
    8.3569   -5.4599  -11.6844 C   0  0  0  0  0  0  0  0  0  0  0  0
   11.3153   -8.9065  -12.5850 C   0  0  0  0  0  0  0  0  0  0  0  0
   12.6018   -9.7200  -12.6787 C   0  0  1  0  0  0  0  0  0  0  0  0
   13.8257   -8.9051  -12.3720 C   0  0  0  0  0  0  0  0  0  0  0  0
   12.5107  -10.9441  -11.7802 C   0  0  0  0  0  0  0  0  0  0  0  0
    8.2468   -7.9783  -11.9541 C   0  0  0  0  0  0  0  0  0  0  0  0
   13.9236  -12.7293  -11.1551 C   0  0  0  0  0  0  0  0  0  0  0  0
   12.7675  -12.7631  -13.2365 C   0  0  0  0  0  0  0  0  0  0  0  0
    8.3403   -8.8319  -10.6777 C   0  0  0  0  0  0  0  0  0  0  0  0
    7.5853  -10.1521  -10.9211 C   0  0  0  0  0  0  0  0  0  0  0  0
    6.4103  -11.9001   -9.7346 C   0  0  0  0  0  0  0  0  0  0  0  0
  1 23  1  0  0  0  0
  1 24  1  0  0  0  0
  1  2  1  0  0  0  0
  3  4  1  0  0  0  0
  3 17  1  0  0  0  0
  4  6  2  0  0  0  0
  4 13  1  0  0  0  0
  5 10  1  0  0  0  0
  5 14  2  0  0  0  0
  6  8  1  0  0  0  0
  7 12  1  0  0  0  0
  7 14  1  0  0  0  0
  7 19  1  0  0  0  0
  8 10  2  0  0  0  0
  9 14  1  0  0  0  0
 10 12  1  0  0  0  0
 11 18  1  0  0  0  0
 11 20  1  0  0  0  0
 11 21  1  0  0  0  0
 12 13  2  0  0  0  0
 13 15  1  0  0  0  0
 15 16  1  0  0  0  0
 16 17  1  0  0  0  0
 16 18  1  1  0  0  0
 19 22  1  0  0  0  0
 22 23  1  0  0  0  0
M  END
>  <CHROM.1>
-85.24806733,83.32206600,150.46548448,157.96161597,-177.82687909,-176.49386273
10.58944659,-8.60232283,-11.75499988,1.11333448,-0.32016851,2.96757016

>  <Name>
ligand

>  <RI>
0

>  <Rbt.Current_Directory>
/home/itssahil/PROJECTS/Mol_Feturizer/New_Systems/rnas/3TZR

>  <Rbt.Executable>
rbdock ($Id: //depot/dev/client3/rdock/2013.1/src/exe/rbdock.cxx#4 $)

>  <Rbt.Library>
libRbt.so (2013.1, Build901 2013/11/27)

>  <Rbt.Parameter_File>
/export/apps/rDock/src/rDock_2013.1_src/data/scripts/dock_solv.prm

>  <Rbt.Receptor>
prm/pocket_docking_7.prm

>  <SCORE>
-35.1056

>  <SCORE.INTER>
-23.8079

>  <SCORE.INTER.CONST>
1

>  <SCORE.INTER.POLAR>
0

>  <SCORE.INTER.ROT>
6

>  <SCORE.INTER.SOLV>
19.9583

>  <SCORE.INTER.VDW>
-30.1247

>  <SCORE.INTER.norm>
-0.991996

>  <SCORE.INTRA>
-11.2977

>  <SCORE.INTRA.DIHEDRAL>
0.195186

>  <SCORE.INTRA.DIHEDRAL.0>
4.94008

>  <SCORE.INTRA.POLAR>
0

>  <SCORE.INTRA.POLAR.0>
0

>  <SCORE.INTRA.REPUL>
0

>  <SCORE.INTRA.REPUL.0>
0

>  <SCORE.INTRA.SOLV>
-0.242292

>  <SCORE.INTRA.SOLV.lig_0>
-31.4704

>  <SCORE.INTRA.VDW>
-11.2742

>  <SCORE.INTRA.VDW.0>
10.2807

>  <SCORE.INTRA.norm>
-0.470738

>  <SCORE.RESTR>
0

>  <SCORE.RESTR.CAVITY>
0

>  <SCORE.RESTR.norm>
0

>  <SCORE.SYSTEM>
0

>  <SCORE.SYSTEM.CONST>
0

>  <SCORE.SYSTEM.DIHEDRAL>
0

>  <SCORE.SYSTEM.SOLV>
0

>  <SCORE.SYSTEM.norm>
0

>  <SCORE.heavy>
24

>  <SCORE.norm>
-1.46273

>  <RMSD>
0.876

$$$$
ligand
 OpenBabel11021811493D
libRbt.so/2013.1/901 2013/11/27
 24 26  0  0  0  0  0  0  0  0999 V2000
    7.1875  -10.8100   -9.9488 N   0  0  0  0  0  0  0  0  0  0  0  0
    8.3733  -11.5365   -9.5242 C   0  0  0  0  0  0  0  0  0  0  0  0
   13.8052   -7.7415  -12.9510 O   0  0  0  0  0  0  0  0  0  0  0  0
   12.7519   -6.8846  -12.6612 C   0  0  0  0  0  0  0  0  0  0  0  0
    9.3876   -4.3859  -11.8266 N   0  0  0  0  0  0  0  0  0  0  0  0
   12.9667   -5.4019  -12.5113 C   0  0  0  0  0  0  0  0  0  0  0  0
    8.9757   -6.5858  -12.0169 N   0  0  0  0  0  0  0  0  0  0  0  0
   11.8928   -4.4935  -12.2403 C   0  0  0  0  0  0  0  0  0  0  0  0
    7.0192   -5.1012  -11.5223 N   0  0  0  0  0  0  0  0  0  0  0  0
   10.5806   -5.0695  -12.0999 C   0  0  0  0  0  0  0  0  0  0  0  0
   13.3933  -11.9174  -12.2143 N   0  0  0  0  0  0  0  0  0  0  0  0
   10.3638   -6.4859  -12.2255 C   0  0  0  0  0  0  0  0  0  0  0  0
   11.5080   -7.3917  -12.5192 C   0  0  0  0  0  0  0  0  0  0  0  0
    8.4094   -5.3366  -11.7862 C   0  0  0  0  0  0  0  0  0  0  0  0
   11.2580   -8.8818  -12.6577 C   0  0  0  0  0  0  0  0  0  0  0  0
   12.5131   -9.7454  -12.7230 C   0  0  1  0  0  0  0  0  0  0  0  0
   13.7565   -8.9887  -12.3525 C   0  0  0  0  0  0  0  0  0  0  0  0
   12.3388  -10.9841  -11.8573 C   0  0  0  0  0  0  0  0  0  0  0  0
    8.2078   -7.8418  -12.1185 C   0  0  0  0  0  0  0  0  0  0  0  0
   13.7674  -12.6688  -11.0237 C   0  0  0  0  0  0  0  0  0  0  0  0
   12.8548  -12.8222  -13.2177 C   0  0  0  0  0  0  0  0  0  0  0  0
    8.1154   -8.6661  -10.8229 C   0  0  0  0  0  0  0  0  0  0  0  0
    7.4761  -10.0266  -11.1586 C   0  0  0  0  0  0  0  0  0  0  0  0
    6.1238  -11.7791  -10.1873 C   0  0  0  0  0  0  0  0  0  0  0  0
  1 23  1  0  0  0  0
  1 24  1  0  0  0  0
  1  2  1  0  0  0  0
  3  4  1  0  0  0  0
  3 17  1  0  0  0  0
  4  6  2  0  0  0  0
  4 13  1  0  0  0  0
  5 10  1  0  0  0  0
  5 14  2  0  0  0  0
  6  8  1  0  0  0  0
  7 12  1  0  0  0  0
  7 14  1  0  0  0  0
  7 19  1  0  0  0  0
  8 10  2  0  0  0  0
  9 14  1  0  0  0  0
 10 12  1  0  0  0  0
 11 18  1  0  0  0  0
 11 20  1  0  0  0  0
 11 21  1  0  0  0  0
 12 13  2  0  0  0  0
 13 15  1  0  0  0  0
 15 16  1  0  0  0  0
 16 17  1  0  0  0  0
 16 18  1  1  0  0  0
 19 22  1  0  0  0  0
 22 23  1  0  0  0  0
M  END
>  <CHROM.1>
-84.06276568,88.47540704,147.21160956,165.84747597,-171.44386365,-172.49097472
10.52476978,-8.54580832,-11.81440208,1.05658651,-0.28509681,2.98738801

>  <Name>
ligand

>  <RI>
0

>  <Rbt.Current_Directory>
/home/itssahil/PROJECTS/Mol_Feturizer/New_Systems/rnas/3TZR

>  <Rbt.Executable>
rbdock ($Id: //depot/dev/client3/rdock/2013.1/src/exe/rbdock.cxx#4 $)

>  <Rbt.Library>
libRbt.so (2013.1, Build901 2013/11/27)

>  <Rbt.Parameter_File>
/export/apps/rDock/src/rDock_2013.1_src/data/scripts/dock_solv.prm

>  <Rbt.Receptor>
prm/pocket_docking_7.prm

>  <SCORE>
-35.2004

>  <SCORE.INTER>
-23.8952

>  <SCORE.INTER.CONST>
1

>  <SCORE.INTER.POLAR>
0

>  <SCORE.INTER.ROT>
6

>  <SCORE.INTER.SOLV>
20.4694

>  <SCORE.INTER.VDW>
-30.3533

>  <SCORE.INTER.norm>
-0.995635

>  <SCORE.INTRA>
-11.3051

>  <SCORE.INTRA.DIHEDRAL>
-0.103895

>  <SCORE.INTRA.DIHEDRAL.0>
4.94008

>  <SCORE.INTRA.POLAR>
0

>  <SCORE.INTRA.POLAR.0>
0

>  <SCORE.INTRA.REPUL>
0

>  <SCORE.INTRA.REPUL.0>
0

>  <SCORE.INTRA.SOLV>
-0.121059

>  <SCORE.INTRA.SOLV.lig_0>
-31.4704

>  <SCORE.INTRA.VDW>
-11.1927

>  <SCORE.INTRA.VDW.0>
10.2807

>  <SCORE.INTRA.norm>
-0.471048

>  <SCORE.RESTR>
0

>  <SCORE.RESTR.CAVITY>
0

>  <SCORE.RESTR.norm>
0

>  <SCORE.SYSTEM>
0

>  <SCORE.SYSTEM.CONST>
0

>  <SCORE.SYSTEM.DIHEDRAL>
0

>  <SCORE.SYSTEM.SOLV>
0

>  <SCORE.SYSTEM.norm>
0

>  <SCORE.heavy>
24

>  <SCORE.norm>
-1.46668

>  <RMSD>
0.879

$$$$
ligand
 OpenBabel11021811493D
libRbt.so/2013.1/901 2013/11/27
 24 26  0  0  0  0  0  0  0  0999 V2000
    6.3432  -10.7254  -10.2863 N   0  0  0  0  0  0  0  0  0  0  0  0
    6.9965  -11.9391   -9.8233 C   0  0  0  0  0  0  0  0  0  0  0  0
   13.7165   -6.8101  -12.8577 O   0  0  0  0  0  0  0  0  0  0  0  0
   12.5154   -6.1873  -12.5459 C   0  0  0  0  0  0  0  0  0  0  0  0
    8.7256   -4.4256  -11.6558 N   0  0  0  0  0  0  0  0  0  0  0  0
   12.4437   -4.7044  -12.2958 C   0  0  0  0  0  0  0  0  0  0  0  0
    8.7400   -6.6456  -11.9978 N   0  0  0  0  0  0  0  0  0  0  0  0
   11.2130   -4.0337  -12.0000 C   0  0  0  0  0  0  0  0  0  0  0  0
    6.5300   -5.5908  -11.4688 N   0  0  0  0  0  0  0  0  0  0  0  0
   10.0309   -4.8535  -11.9360 C   0  0  0  0  0  0  0  0  0  0  0  0
   13.3312  -11.3713  -12.9264 N   0  0  0  0  0  0  0  0  0  0  0  0
   10.0877   -6.2736  -12.1578 C   0  0  0  0  0  0  0  0  0  0  0  0
   11.3873   -6.9269  -12.4739 C   0  0  0  0  0  0  0  0  0  0  0  0
    7.9440   -5.5432  -11.7052 C   0  0  0  0  0  0  0  0  0  0  0  0
   11.4257   -8.4245  -12.7141 C   0  0  0  0  0  0  0  0  0  0  0  0
   12.8223   -9.0314  -12.7964 C   0  0  1  0  0  0  0  0  0  0  0  0
   13.8937   -8.0821  -12.3414 C   0  0  0  0  0  0  0  0  0  0  0  0
   12.8699  -10.3367  -12.0167 C   0  0  0  0  0  0  0  0  0  0  0  0
    8.2251   -8.0132  -12.2020 C   0  0  0  0  0  0  0  0  0  0  0  0
   14.7207  -11.6759  -12.6127 C   0  0  0  0  0  0  0  0  0  0  0  0
   12.5071  -12.5488  -12.7029 C   0  0  0  0  0  0  0  0  0  0  0  0
    7.5465   -8.6531  -10.9785 C   0  0  0  0  0  0  0  0  0  0  0  0
    7.1388  -10.0918  -11.3475 C   0  0  0  0  0  0  0  0  0  0  0  0
    5.0120  -11.0815  -10.7641 C   0  0  0  0  0  0  0  0  0  0  0  0
  1 23  1  0  0  0  0
  1 24  1  0  0  0  0
  1  2  1  0  0  0  0
  3  4  1  0  0  0  0
  3 17  1  0  0  0  0
  4  6  2  0  0  0  0
  4 13  1  0  0  0  0
  5 10  1  0  0  0  0
  5 14  2  0  0  0  0
  6  8  1  0  0  0  0
  7 12  1  0  0  0  0
  7 14  1  0  0  0  0
  7 19  1  0  0  0  0
  8 10  2  0  0  0  0
  9 14  1  0  0  0  0
 10 12  1  0  0  0  0
 11 18  1  0  0  0  0
 11 20  1  0  0  0  0
 11 21  1  0  0  0  0
 12 13  2  0  0  0  0
 13 15  1  0  0  0  0
 15 16  1  0  0  0  0
 16 17  1  0  0  0  0
 16 18  1  1  0  0  0
 19 22  1  0  0  0  0
 22 23  1  0  0  0  0
M  END
>  <CHROM.1>
-121.53986909,120.69110515,104.36961423,124.31088804,-177.14314350,-173.36275658
10.24131085,-8.22864037,-11.92982054,-3.11230805,0.24282150,-0.06623458

>  <Name>
ligand

>  <RI>
0

>  <Rbt.Current_Directory>
/home/itssahil/PROJECTS/Mol_Feturizer/New_Systems/rnas/3TZR

>  <Rbt.Executable>
rbdock ($Id: //depot/dev/client3/rdock/2013.1/src/exe/rbdock.cxx#4 $)

>  <Rbt.Library>
libRbt.so (2013.1, Build901 2013/11/27)

>  <Rbt.Parameter_File>
/export/apps/rDock/src/rDock_2013.1_src/data/scripts/dock_solv.prm

>  <Rbt.Receptor>
prm/blind_docking_40.prm

>  <SCORE>
-33.4355

>  <SCORE.INTER>
-25.0184

>  <SCORE.INTER.CONST>
1

>  <SCORE.INTER.POLAR>
0

>  <SCORE.INTER.ROT>
6

>  <SCORE.INTER.SOLV>
21.2848

>  <SCORE.INTER.VDW>
-31.3739

>  <SCORE.INTER.norm>
-1.04243

>  <SCORE.INTRA>
-8.41706

>  <SCORE.INTRA.DIHEDRAL>
5.99295

>  <SCORE.INTRA.DIHEDRAL.0>
4.94008

>  <SCORE.INTRA.POLAR>
0

>  <SCORE.INTRA.POLAR.0>
0

>  <SCORE.INTRA.REPUL>
0

>  <SCORE.INTRA.REPUL.0>
0

>  <SCORE.INTRA.SOLV>
0.574707

>  <SCORE.INTRA.SOLV.lig_0>
-31.4704

>  <SCORE.INTRA.VDW>
-11.7009

>  <SCORE.INTRA.VDW.0>
10.2807

>  <SCORE.INTRA.norm>
-0.350711

>  <SCORE.RESTR>
0

>  <SCORE.RESTR.CAVITY>
0

>  <SCORE.RESTR.norm>
0

>  <SCORE.SYSTEM>
0

>  <SCORE.SYSTEM.CONST>
0

>  <SCORE.SYSTEM.DIHEDRAL>
0

>  <SCORE.SYSTEM.SOLV>
0

>  <SCORE.SYSTEM.norm>
0

>  <SCORE.heavy>
24

>  <SCORE.norm>
-1.39314

>  <RMSD>
0.881

$$$$
ligand
 OpenBabel11021811493D
libRbt.so/2013.1/901 2013/11/27
 24 26  0  0  0  0  0  0  0  0999 V2000
    6.7995  -10.9156   -9.9354 N   0  0  0  0  0  0  0  0  0  0  0  0
    7.4227  -12.1131   -9.3951 C   0  0  0  0  0  0  0  0  0  0  0  0
   13.2200   -5.9764  -12.8081 O   0  0  0  0  0  0  0  0  0  0  0  0
   11.9021   -5.5662  -12.6576 C   0  0  0  0  0  0  0  0  0  0  0  0
    7.7896   -4.4838  -12.2394 N   0  0  0  0  0  0  0  0  0  0  0  0
   11.5287   -4.1077  -12.6746 C   0  0  0  0  0  0  0  0  0  0  0  0
    8.2551   -6.6806  -12.1858 N   0  0  0  0  0  0  0  0  0  0  0  0
   10.1738   -3.6599  -12.5494 C   0  0  0  0  0  0  0  0  0  0  0  0
    5.8510   -6.0212  -11.9370 N   0  0  0  0  0  0  0  0  0  0  0  0
    9.1697   -4.6795  -12.3889 C   0  0  0  0  0  0  0  0  0  0  0  0
   12.5501  -10.6489  -12.0095 N   0  0  0  0  0  0  0  0  0  0  0  0
    9.5144   -6.0756  -12.3557 C   0  0  0  0  0  0  0  0  0  0  0  0
   10.9349   -6.4961  -12.5012 C   0  0  0  0  0  0  0  0  0  0  0  0
    7.2430   -5.7287  -12.1226 C   0  0  0  0  0  0  0  0  0  0  0  0
   11.2777   -7.9739  -12.4732 C   0  0  0  0  0  0  0  0  0  0  0  0
   12.7670   -8.2915  -12.3930 C   0  0  1  0  0  0  0  0  0  0  0  0
   13.5999   -7.0841  -12.0700 C   0  0  0  0  0  0  0  0  0  0  0  0
   13.0073   -9.4143  -11.3952 C   0  0  0  0  0  0  0  0  0  0  0  0
    8.0289   -8.1386  -12.1668 C   0  0  0  0  0  0  0  0  0  0  0  0
   13.5936  -11.1342  -12.9025 C   0  0  0  0  0  0  0  0  0  0  0  0
   12.3288  -11.6121  -10.9424 C   0  0  0  0  0  0  0  0  0  0  0  0
    7.6145   -8.7251  -10.8063 C   0  0  0  0  0  0  0  0  0  0  0  0
    7.7010  -10.2604  -10.8937 C   0  0  0  0  0  0  0  0  0  0  0  0
    5.5451  -11.3047  -10.5698 C   0  0  0  0  0  0  0  0  0  0  0  0
  1 23  1  0  0  0  0
  1 24  1  0  0  0  0
  1  2  1  0  0  0  0
  3  4  1  0  0  0  0
  3 17  1  0  0  0  0
  4  6  2  0  0  0  0
  4 13  1  0  0  0  0
  5 10  1  0  0  0  0
  5 14  2  0  0  0  0
  6  8  1  0  0  0  0
  7 12  1  0  0  0  0
  7 14  1  0  0  0  0
  7 19  1  0  0  0  0
  8 10  2  0  0  0  0
  9 14  1  0  0  0  0
 10 12  1  0  0  0  0
 11 18  1  0  0  0  0
 11 20  1  0  0  0  0
 11 21  1  0  0  0  0
 12 13  2  0  0  0  0
 13 15  1  0  0  0  0
 15 16  1  0  0  0  0
 16 17  1  0  0  0  0
 16 18  1  1  0  0  0
 19 22  1  0  0  0  0
 22 23  1  0  0  0  0
M  END
>  <CHROM.1>
-142.95418770,111.19035022,81.21297548,73.44579833,-168.64745771,-154.41868689
9.91167753,-7.94154739,-11.81548572,-2.36762107,0.17810871,-0.24968725

>  <Name>
ligand

>  <RI>
0

>  <Rbt.Current_Directory>
/home/itssahil/PROJECTS/Mol_Feturizer/New_Systems/rnas/3TZR

>  <Rbt.Executable>
rbdock ($Id: //depot/dev/client3/rdock/2013.1/src/exe/rbdock.cxx#4 $)

>  <Rbt.Library>
libRbt.so (2013.1, Build901 2013/11/27)

>  <Rbt.Parameter_File>
/export/apps/rDock/src/rDock_2013.1_src/data/scripts/dock_solv.prm

>  <Rbt.Receptor>
prm/pocket_docking_2.prm

>  <SCORE>
-35.6405

>  <SCORE.INTER>
-25.6706

>  <SCORE.INTER.CONST>
1

>  <SCORE.INTER.POLAR>
0

>  <SCORE.INTER.ROT>
6

>  <SCORE.INTER.SOLV>
20.6261

>  <SCORE.INTER.VDW>
-31.5891

>  <SCORE.INTER.norm>
-1.06961

>  <SCORE.INTRA>
-9.96991

>  <SCORE.INTRA.DIHEDRAL>
1.86139

>  <SCORE.INTRA.DIHEDRAL.0>
4.94008

>  <SCORE.INTRA.POLAR>
0

>  <SCORE.INTRA.POLAR.0>
0

>  <SCORE.INTRA.REPUL>
0

>  <SCORE.INTRA.REPUL.0>
0

>  <SCORE.INTRA.SOLV>
0.270523

>  <SCORE.INTRA.SOLV.lig_0>
-31.4704

>  <SCORE.INTRA.VDW>
-11.0359

>  <SCORE.INTRA.VDW.0>
10.2807

>  <SCORE.INTRA.norm>
-0.415413

>  <SCORE.RESTR>
0

>  <SCORE.RESTR.CAVITY>
0

>  <SCORE.RESTR.norm>
0

>  <SCORE.SYSTEM>
0

>  <SCORE.SYSTEM.CONST>
0

>  <SCORE.SYSTEM.DIHEDRAL>
0

>  <SCORE.SYSTEM.SOLV>
0

>  <SCORE.SYSTEM.norm>
0

>  <SCORE.heavy>
24

>  <SCORE.norm>
-1.48502

>  <RMSD>
0.882

$$$$
ligand
 OpenBabel11021811493D
libRbt.so/2013.1/901 2013/11/27
 24 26  0  0  0  0  0  0  0  0999 V2000
    7.5998  -11.0244   -9.7150 N   0  0  0  0  0  0  0  0  0  0  0  0
    8.7476  -11.8759   -9.4472 C   0  0  0  0  0  0  0  0  0  0  0  0
   13.1750   -5.9304  -12.7914 O   0  0  0  0  0  0  0  0  0  0  0  0
   11.8633   -5.5201  -12.5938 C   0  0  0  0  0  0  0  0  0  0  0  0
    7.7682   -4.4348  -12.0364 N   0  0  0  0  0  0  0  0  0  0  0  0
   11.4985   -4.0602  -12.5423 C   0  0  0  0  0  0  0  0  0  0  0  0
    8.2216   -6.6343  -12.0837 N   0  0  0  0  0  0  0  0  0  0  0  0
   10.1495   -3.6111  -12.3676 C   0  0  0  0  0  0  0  0  0  0  0  0
    5.8278   -5.9735  -11.7525 N   0  0  0  0  0  0  0  0  0  0  0  0
    9.1433   -4.6313  -12.2258 C   0  0  0  0  0  0  0  0  0  0  0  0
   12.5707  -10.6379  -12.2020 N   0  0  0  0  0  0  0  0  0  0  0  0
    9.4802   -6.0293  -12.2577 C   0  0  0  0  0  0  0  0  0  0  0  0
   10.8944   -6.4507  -12.4532 C   0  0  0  0  0  0  0  0  0  0  0  0
    7.2169   -5.6807  -11.9581 C   0  0  0  0  0  0  0  0  0  0  0  0
   11.2288   -7.9301  -12.4938 C   0  0  0  0  0  0  0  0  0  0  0  0
   12.7177   -8.2583  -12.4612 C   0  0  1  0  0  0  0  0  0  0  0  0
   13.5650   -7.0694  -12.1084 C   0  0  0  0  0  0  0  0  0  0  0  0
   12.9740   -9.4224  -11.5160 C   0  0  0  0  0  0  0  0  0  0  0  0
    7.9870   -8.0907  -12.1192 C   0  0  0  0  0  0  0  0  0  0  0  0
   13.7135  -11.1483  -12.9472 C   0  0  0  0  0  0  0  0  0  0  0  0
   12.1753  -11.6017  -11.1869 C   0  0  0  0  0  0  0  0  0  0  0  0
    8.0481   -8.8031  -10.7570 C   0  0  0  0  0  0  0  0  0  0  0  0
    7.7849  -10.3038  -10.9826 C   0  0  0  0  0  0  0  0  0  0  0  0
    6.4099  -11.8671   -9.7543 C   0  0  0  0  0  0  0  0  0  0  0  0
  1 23  1  0  0  0  0
  1 24  1  0  0  0  0
  1  2  1  0  0  0  0
  3  4  1  0  0  0  0
  3 17  1  0  0  0  0
  4  6  2  0  0  0  0
  4 13  1  0  0  0  0
  5 10  1  0  0  0  0
  5 14  2  0  0  0  0
  6  8  1  0  0  0  0
  7 12  1  0  0  0  0
  7 14  1  0  0  0  0
  7 19  1  0  0  0  0
  8 10  2  0  0  0  0
  9 14  1  0  0  0  0
 10 12  1  0  0  0  0
 11 18  1  0  0  0  0
 11 20  1  0  0  0  0
 11 21  1  0  0  0  0
 12 13  2  0  0  0  0
 13 15  1  0  0  0  0
 15 16  1  0  0  0  0
 16 17  1  0  0  0  0
 16 18  1  1  0  0  0
 19 22  1  0  0  0  0
 22 23  1  0  0  0  0
M  END
>  <CHROM.1>
-108.73211177,92.38990172,89.19743770,76.85491550,-179.90200670,-170.35954150
10.04555031,-7.94002173,-11.74959298,1.71825259,-0.22644190,2.89148422

>  <Name>
ligand

>  <RI>
0

>  <Rbt.Current_Directory>
/home/itssahil/PROJECTS/Mol_Feturizer/New_Systems/rnas/3TZR

>  <Rbt.Executable>
rbdock ($Id: //depot/dev/client3/rdock/2013.1/src/exe/rbdock.cxx#4 $)

>  <Rbt.Library>
libRbt.so (2013.1, Build901 2013/11/27)

>  <Rbt.Parameter_File>
/export/apps/rDock/src/rDock_2013.1_src/data/scripts/dock_solv.prm

>  <Rbt.Receptor>
prm/pocket_docking_4.prm

>  <SCORE>
-36.4058

>  <SCORE.INTER>
-24.9578

>  <SCORE.INTER.CONST>
1

>  <SCORE.INTER.POLAR>
0

>  <SCORE.INTER.ROT>
6

>  <SCORE.INTER.SOLV>
20.3005

>  <SCORE.INTER.VDW>
-31.0054

>  <SCORE.INTER.norm>
-1.03991

>  <SCORE.INTRA>
-11.448

>  <SCORE.INTRA.DIHEDRAL>
1.0257

>  <SCORE.INTRA.DIHEDRAL.0>
4.94008

>  <SCORE.INTRA.POLAR>
0

>  <SCORE.INTRA.POLAR.0>
0

>  <SCORE.INTRA.REPUL>
0

>  <SCORE.INTRA.REPUL.0>
0

>  <SCORE.INTRA.SOLV>
-0.107376

>  <SCORE.INTRA.SOLV.lig_0>
-31.4704

>  <SCORE.INTRA.VDW>
-11.9072

>  <SCORE.INTRA.VDW.0>
10.2807

>  <SCORE.INTRA.norm>
-0.477001

>  <SCORE.RESTR>
0

>  <SCORE.RESTR.CAVITY>
0

>  <SCORE.RESTR.norm>
0

>  <SCORE.SYSTEM>
0

>  <SCORE.SYSTEM.CONST>
0

>  <SCORE.SYSTEM.DIHEDRAL>
0

>  <SCORE.SYSTEM.SOLV>
0

>  <SCORE.SYSTEM.norm>
0

>  <SCORE.heavy>
24

>  <SCORE.norm>
-1.51691

>  <RMSD>
0.885

$$$$
ligand
 OpenBabel11021811493D
libRbt.so/2013.1/901 2013/11/27
 24 26  0  0  0  0  0  0  0  0999 V2000
    7.7377  -10.9830  -10.4061 N   0  0  0  0  0  0  0  0  0  0  0  0
    6.4076  -11.5657  -10.4812 C   0  0  0  0  0  0  0  0  0  0  0  0
   13.8313   -7.0742  -12.7163 O   0  0  0  0  0  0  0  0  0  0  0  0
   12.6140   -6.4648  -12.4430 C   0  0  0  0  0  0  0  0  0  0  0  0
    8.7784   -4.7461  -11.6727 N   0  0  0  0  0  0  0  0  0  0  0  0
   12.5161   -4.9809  -12.2080 C   0  0  0  0  0  0  0  0  0  0  0  0
    8.8312   -6.9685  -11.9947 N   0  0  0  0  0  0  0  0  0  0  0  0
   11.2690   -4.3241  -11.9520 C   0  0  0  0  0  0  0  0  0  0  0  0
    6.5939   -5.9387  -11.5358 N   0  0  0  0  0  0  0  0  0  0  0  0
   10.0964   -5.1590  -11.9133 C   0  0  0  0  0  0  0  0  0  0  0  0
   13.4319  -11.6559  -12.7764 N   0  0  0  0  0  0  0  0  0  0  0  0
   10.1779   -6.5800  -12.1209 C   0  0  0  0  0  0  0  0  0  0  0  0
   11.4941   -7.2186  -12.3955 C   0  0  0  0  0  0  0  0  0  0  0  0
    8.0132   -5.8743  -11.7338 C   0  0  0  0  0  0  0  0  0  0  0  0
   11.5586   -8.7176  -12.6214 C   0  0  0  0  0  0  0  0  0  0  0  0
   12.9647   -9.3065  -12.6600 C   0  0  1  0  0  0  0  0  0  0  0  0
   14.0107   -8.3393  -12.1841 C   0  0  0  0  0  0  0  0  0  0  0  0
   13.0079  -10.6045  -11.8678 C   0  0  0  0  0  0  0  0  0  0  0  0
    8.3400   -8.3446  -12.2008 C   0  0  0  0  0  0  0  0  0  0  0  0
   14.7790  -12.0694  -12.4074 C   0  0  0  0  0  0  0  0  0  0  0  0
   12.5129  -12.7714  -12.6130 C   0  0  0  0  0  0  0  0  0  0  0  0
    7.1318   -8.7507  -11.3394 C   0  0  0  0  0  0  0  0  0  0  0  0
    7.6478   -9.5433  -10.1237 C   0  0  0  0  0  0  0  0  0  0  0  0
    8.4799  -11.6815   -9.3628 C   0  0  0  0  0  0  0  0  0  0  0  0
  1 23  1  0  0  0  0
  1 24  1  0  0  0  0
  1  2  1  0  0  0  0
  3  4  1  0  0  0  0
  3 17  1  0  0  0  0
  4  6  2  0  0  0  0
  4 13  1  0  0  0  0
  5 10  1  0  0  0  0
  5 14  2  0  0  0  0
  6  8  1  0  0  0  0
  7 12  1  0  0  0  0
  7 14  1  0  0  0  0
  7 19  1  0  0  0  0
  8 10  2  0  0  0  0
  9 14  1  0  0  0  0
 10 12  1  0  0  0  0
 11 18  1  0  0  0  0
 11 20  1  0  0  0  0
 11 21  1  0  0  0  0
 12 13  2  0  0  0  0
 13 15  1  0  0  0  0
 15 16  1  0  0  0  0
 16 17  1  0  0  0  0
 16 18  1  1  0  0  0
 19 22  1  0  0  0  0
 22 23  1  0  0  0  0
M  END
>  <CHROM.1>
-71.91630500,147.99338556,109.71845941,121.00251827,-98.24892209,-89.06243506
10.50665334,-8.46297741,-11.80509022,2.65560989,0.26153504,-0.12287314

>  <Name>
ligand

>  <RI>
0

>  <Rbt.Current_Directory>
/home/itssahil/PROJECTS/Mol_Feturizer/New_Systems/rnas/3TZR

>  <Rbt.Executable>
rbdock ($Id: //depot/dev/client3/rdock/2013.1/src/exe/rbdock.cxx#4 $)

>  <Rbt.Library>
libRbt.so (2013.1, Build901 2013/11/27)

>  <Rbt.Parameter_File>
/export/apps/rDock/src/rDock_2013.1_src/data/scripts/dock_solv.prm

>  <Rbt.Receptor>
prm/pocket_docking_4.prm

>  <SCORE>
-29.2934

>  <SCORE.INTER>
-25.0606

>  <SCORE.INTER.CONST>
1

>  <SCORE.INTER.POLAR>
0

>  <SCORE.INTER.ROT>
6

>  <SCORE.INTER.SOLV>
18.5207

>  <SCORE.INTER.VDW>
-30.4806

>  <SCORE.INTER.norm>
-1.04419

>  <SCORE.INTRA>
-4.2761

>  <SCORE.INTRA.DIHEDRAL>
10.3008

>  <SCORE.INTRA.DIHEDRAL.0>
4.94008

>  <SCORE.INTRA.POLAR>
0

>  <SCORE.INTRA.POLAR.0>
0

>  <SCORE.INTRA.REPUL>
0

>  <SCORE.INTRA.REPUL.0>
0

>  <SCORE.INTRA.SOLV>
1.68062

>  <SCORE.INTRA.SOLV.lig_0>
-31.4704

>  <SCORE.INTRA.VDW>
-10.2668

>  <SCORE.INTRA.VDW.0>
10.2807

>  <SCORE.INTRA.norm>
-0.178171

>  <SCORE.RESTR>
0.0432919

>  <SCORE.RESTR.CAVITY>
0.0432919

>  <SCORE.RESTR.norm>
0.00180383

>  <SCORE.SYSTEM>
0

>  <SCORE.SYSTEM.CONST>
0

>  <SCORE.SYSTEM.DIHEDRAL>
0

>  <SCORE.SYSTEM.SOLV>
0

>  <SCORE.SYSTEM.norm>
0

>  <SCORE.heavy>
24

>  <SCORE.norm>
-1.22056

>  <RMSD>
0.886

$$$$
ligand
 OpenBabel11021811493D
libRbt.so/2013.1/901 2013/11/27
 24 26  0  0  0  0  0  0  0  0999 V2000
    6.6871  -10.2708  -10.2637 N   0  0  0  0  0  0  0  0  0  0  0  0
    7.8209  -11.0572   -9.8051 C   0  0  0  0  0  0  0  0  0  0  0  0
   13.6579   -7.4182  -12.5610 O   0  0  0  0  0  0  0  0  0  0  0  0
   12.5913   -6.5368  -12.4459 C   0  0  0  0  0  0  0  0  0  0  0  0
    9.1918   -3.9640  -12.1574 N   0  0  0  0  0  0  0  0  0  0  0  0
   12.8108   -5.0511  -12.3385 C   0  0  0  0  0  0  0  0  0  0  0  0
    8.7697   -6.1658  -12.2968 N   0  0  0  0  0  0  0  0  0  0  0  0
   11.7270   -4.1189  -12.2469 C   0  0  0  0  0  0  0  0  0  0  0  0
    6.7922   -4.6376  -12.1212 N   0  0  0  0  0  0  0  0  0  0  0  0
   10.3979   -4.6730  -12.2466 C   0  0  0  0  0  0  0  0  0  0  0  0
   13.2494  -11.3282  -11.3398 N   0  0  0  0  0  0  0  0  0  0  0  0
   10.1745   -6.0913  -12.3332 C   0  0  0  0  0  0  0  0  0  0  0  0
   11.3309   -7.0227  -12.4386 C   0  0  0  0  0  0  0  0  0  0  0  0
    8.2003   -4.9007  -12.1968 C   0  0  0  0  0  0  0  0  0  0  0  0
   11.0749   -8.5149  -12.5387 C   0  0  0  0  0  0  0  0  0  0  0  0
   12.3135   -9.3945  -12.4057 C   0  0  1  0  0  0  0  0  0  0  0  0
   13.5134   -8.6347  -11.9167 C   0  0  0  0  0  0  0  0  0  0  0  0
   12.0111  -10.5884  -11.5127 C   0  0  0  0  0  0  0  0  0  0  0  0
    7.9994   -7.4166  -12.4364 C   0  0  0  0  0  0  0  0  0  0  0  0
   13.0931  -12.2320  -10.2082 C   0  0  0  0  0  0  0  0  0  0  0  0
   13.4732  -12.0956  -12.5549 C   0  0  0  0  0  0  0  0  0  0  0  0
    7.7173   -8.1685  -11.1242 C   0  0  0  0  0  0  0  0  0  0  0  0
    7.0481   -9.5121  -11.4697 C   0  0  0  0  0  0  0  0  0  0  0  0
    5.5791  -11.1828  -10.5243 C   0  0  0  0  0  0  0  0  0  0  0  0
  1 23  1  0  0  0  0
  1 24  1  0  0  0  0
  1  2  1  0  0  0  0
  3  4  1  0  0  0  0
  3 17  1  0  0  0  0
  4  6  2  0  0  0  0
  4 13  1  0  0  0  0
  5 10  1  0  0  0  0
  5 14  2  0  0  0  0
  6  8  1  0  0  0  0
  7 12  1  0  0  0  0
  7 14  1  0  0  0  0
  7 19  1  0  0  0  0
  8 10  2  0  0  0  0
  9 14  1  0  0  0  0
 10 12  1  0  0  0  0
 11 18  1  0  0  0  0
 11 20  1  0  0  0  0
 11 21  1  0  0  0  0
 12 13  2  0  0  0  0
 13 15  1  0  0  0  0
 15 16  1  0  0  0  0
 16 17  1  0  0  0  0
 16 18  1  1  0  0  0
 19 22  1  0  0  0  0
 22 23  1  0  0  0  0
M  END
>  <CHROM.1>
-85.58755456,89.15979055,163.88413747,-175.64023460,-173.86027883,-177.38817646
10.28011415,-8.10181314,-11.77980470,2.21149876,0.15412721,-0.21828628

>  <Name>
ligand

>  <RI>
144

>  <Rbt.Current_Directory>
/home/itssahil/PROJECTS/Mol_Feturizer/New_Systems/rnas/3TZR

>  <Rbt.Executable>
rbdock ($Id: //depot/dev/client3/rdock/2013.1/src/exe/rbdock.cxx#4 $)

>  <Rbt.Library>
libRbt.so (2013.1, Build901 2013/11/27)

>  <Rbt.Parameter_File>
/export/apps/rDock/src/rDock_2013.1_src/data/scripts/dock_solv.prm

>  <Rbt.Receptor>
prm/blind_docking_60.prm

>  <SCORE>
-32.4789

>  <SCORE.INTER>
-21.7933

>  <SCORE.INTER.CONST>
1

>  <SCORE.INTER.POLAR>
0

>  <SCORE.INTER.ROT>
6

>  <SCORE.INTER.SOLV>
23.3445

>  <SCORE.INTER.VDW>
-29.9104

>  <SCORE.INTER.norm>
-0.908055

>  <SCORE.INTRA>
-10.7848

>  <SCORE.INTRA.DIHEDRAL>
-1.94475

>  <SCORE.INTRA.DIHEDRAL.0>
4.94008

>  <SCORE.INTRA.POLAR>
0

>  <SCORE.INTRA.POLAR.0>
0

>  <SCORE.INTRA.REPUL>
0

>  <SCORE.INTRA.REPUL.0>
0

>  <SCORE.INTRA.SOLV>
-0.03667

>  <SCORE.INTRA.SOLV.lig_0>
-31.4704

>  <SCORE.INTRA.VDW>
-9.79405

>  <SCORE.INTRA.VDW.0>
10.2807

>  <SCORE.INTRA.norm>
-0.449365

>  <SCORE.RESTR>
0.0991645

>  <SCORE.RESTR.CAVITY>
0.0991645

>  <SCORE.RESTR.norm>
0.00413186

>  <SCORE.SYSTEM>
0

>  <SCORE.SYSTEM.CONST>
0

>  <SCORE.SYSTEM.DIHEDRAL>
0

>  <SCORE.SYSTEM.SOLV>
0

>  <SCORE.SYSTEM.norm>
0

>  <SCORE.heavy>
24

>  <SCORE.norm>
-1.35329

>  <RMSD>
0.887

$$$$
ligand
 OpenBabel11021811493D
libRbt.so/2013.1/901 2013/11/27
 24 26  0  0  0  0  0  0  0  0999 V2000
    7.2327  -10.9175  -11.1243 N   0  0  0  0  0  0  0  0  0  0  0  0
    6.2642  -11.4717  -12.0566 C   0  0  0  0  0  0  0  0  0  0  0  0
   13.3750   -6.4128  -12.9374 O   0  0  0  0  0  0  0  0  0  0  0  0
   12.1082   -5.8746  -12.7548 C   0  0  0  0  0  0  0  0  0  0  0  0
    8.1349   -4.3940  -12.2257 N   0  0  0  0  0  0  0  0  0  0  0  0
   11.8686   -4.3903  -12.8350 C   0  0  0  0  0  0  0  0  0  0  0  0
    8.4008   -6.6192  -12.0729 N   0  0  0  0  0  0  0  0  0  0  0  0
   10.5672   -3.8125  -12.6783 C   0  0  0  0  0  0  0  0  0  0  0  0
    6.0806   -5.7270  -11.7607 N   0  0  0  0  0  0  0  0  0  0  0  0
    9.4831   -4.7247  -12.4215 C   0  0  0  0  0  0  0  0  0  0  0  0
   12.6719  -11.0166  -11.9843 N   0  0  0  0  0  0  0  0  0  0  0  0
    9.7006   -6.1435  -12.3272 C   0  0  0  0  0  0  0  0  0  0  0  0
   11.0687   -6.7013  -12.5085 C   0  0  0  0  0  0  0  0  0  0  0  0
    7.4834   -5.5751  -12.0193 C   0  0  0  0  0  0  0  0  0  0  0  0
   11.2766   -8.2013  -12.4150 C   0  0  0  0  0  0  0  0  0  0  0  0
   12.7330   -8.6520  -12.3795 C   0  0  1  0  0  0  0  0  0  0  0  0
   13.6863   -7.5128  -12.1570 C   0  0  0  0  0  0  0  0  0  0  0  0
   12.9161   -9.7410  -11.3333 C   0  0  0  0  0  0  0  0  0  0  0  0
    8.0440   -8.0469  -11.9658 C   0  0  0  0  0  0  0  0  0  0  0  0
   13.8673  -11.3922  -12.7270 C   0  0  0  0  0  0  0  0  0  0  0  0
   12.4125  -11.9968  -10.9415 C   0  0  0  0  0  0  0  0  0  0  0  0
    7.8345   -8.5700  -10.5343 C   0  0  0  0  0  0  0  0  0  0  0  0
    6.7372   -9.6502  -10.5686 C   0  0  0  0  0  0  0  0  0  0  0  0
    7.4640  -11.9017  -10.0731 C   0  0  0  0  0  0  0  0  0  0  0  0
  1 23  1  0  0  0  0
  1 24  1  0  0  0  0
  1  2  1  0  0  0  0
  3  4  1  0  0  0  0
  3 17  1  0  0  0  0
  4  6  2  0  0  0  0
  4 13  1  0  0  0  0
  5 10  1  0  0  0  0
  5 14  2  0  0  0  0
  6  8  1  0  0  0  0
  7 12  1  0  0  0  0
  7 14  1  0  0  0  0
  7 19  1  0  0  0  0
  8 10  2  0  0  0  0
  9 14  1  0  0  0  0
 10 12  1  0  0  0  0
 11 18  1  0  0  0  0
 11 20  1  0  0  0  0
 11 21  1  0  0  0  0
 12 13  2  0  0  0  0
 13 15  1  0  0  0  0
 15 16  1  0  0  0  0
 16 17  1  0  0  0  0
 16 18  1  1  0  0  0
 19 22  1  0  0  0  0
 22 23  1  0  0  0  0
M  END
>  <CHROM.1>
-136.07816877,102.92393336,79.65793135,89.08585137,146.41807728,75.40016562
10.05882966,-8.04014057,-11.92459199,3.10814473,0.15368997,-0.18484433

>  <Name>
ligand

>  <RI>
0

>  <Rbt.Current_Directory>
/home/itssahil/PROJECTS/Mol_Feturizer/New_Systems/rnas/3TZR

>  <Rbt.Executable>
rbdock ($Id: //depot/dev/client3/rdock/2013.1/src/exe/rbdock.cxx#4 $)

>  <Rbt.Library>
libRbt.so (2013.1, Build901 2013/11/27)

>  <Rbt.Parameter_File>
/export/apps/rDock/src/rDock_2013.1_src/data/scripts/dock_solv.prm

>  <Rbt.Receptor>
prm/blind_docking_80.prm

>  <SCORE>
-31.6632

>  <SCORE.INTER>
-23.6982

>  <SCORE.INTER.CONST>
1

>  <SCORE.INTER.POLAR>
0

>  <SCORE.INTER.ROT>
6

>  <SCORE.INTER.SOLV>
20.2925

>  <SCORE.INTER.VDW>
-30.163

>  <SCORE.INTER.norm>
-0.987425

>  <SCORE.INTRA>
-7.965

>  <SCORE.INTRA.DIHEDRAL>
5.52468

>  <SCORE.INTRA.DIHEDRAL.0>
4.94008

>  <SCORE.INTRA.POLAR>
0

>  <SCORE.INTRA.POLAR.0>
0

>  <SCORE.INTRA.REPUL>
0

>  <SCORE.INTRA.REPUL.0>
0

>  <SCORE.INTRA.SOLV>
0.797473

>  <SCORE.INTRA.SOLV.lig_0>
-31.4704

>  <SCORE.INTRA.VDW>
-11.1261

>  <SCORE.INTRA.VDW.0>
10.2807

>  <SCORE.INTRA.norm>
-0.331875

>  <SCORE.RESTR>
0

>  <SCORE.RESTR.CAVITY>
0

>  <SCORE.RESTR.norm>
0

>  <SCORE.SYSTEM>
0

>  <SCORE.SYSTEM.CONST>
0

>  <SCORE.SYSTEM.DIHEDRAL>
0

>  <SCORE.SYSTEM.SOLV>
0

>  <SCORE.SYSTEM.norm>
0

>  <SCORE.heavy>
24

>  <SCORE.norm>
-1.3193

>  <RMSD>
0.888

$$$$
ligand
 OpenBabel11021811493D
libRbt.so/2013.1/901 2013/11/27
 24 26  0  0  0  0  0  0  0  0999 V2000
    7.3970  -10.8796   -9.6103 N   0  0  0  0  0  0  0  0  0  0  0  0
    8.3786  -11.6154   -8.8297 C   0  0  0  0  0  0  0  0  0  0  0  0
   13.2262   -6.0471  -12.9040 O   0  0  0  0  0  0  0  0  0  0  0  0
   11.9175   -5.6115  -12.7446 C   0  0  0  0  0  0  0  0  0  0  0  0
    7.8299   -4.4513  -12.2923 N   0  0  0  0  0  0  0  0  0  0  0  0
   11.5667   -4.1484  -12.7990 C   0  0  0  0  0  0  0  0  0  0  0  0
    8.2621   -6.6527  -12.1806 N   0  0  0  0  0  0  0  0  0  0  0  0
   10.2212   -3.6754  -12.6653 C   0  0  0  0  0  0  0  0  0  0  0  0
    5.8730   -5.9478  -11.9127 N   0  0  0  0  0  0  0  0  0  0  0  0
    9.2042   -4.6735  -12.4582 C   0  0  0  0  0  0  0  0  0  0  0  0
   12.4383  -10.6702  -11.9288 N   0  0  0  0  0  0  0  0  0  0  0  0
    9.5276   -6.0734  -12.3889 C   0  0  0  0  0  0  0  0  0  0  0  0
   10.9387   -6.5207  -12.5448 C   0  0  0  0  0  0  0  0  0  0  0  0
    7.2661   -5.6833  -12.1295 C   0  0  0  0  0  0  0  0  0  0  0  0
   11.2589   -8.0024  -12.4783 C   0  0  0  0  0  0  0  0  0  0  0  0
   12.7442   -8.3413  -12.4128 C   0  0  1  0  0  0  0  0  0  0  0  0
   13.6011   -7.1384  -12.1396 C   0  0  0  0  0  0  0  0  0  0  0  0
   12.9836   -9.4378  -11.3859 C   0  0  0  0  0  0  0  0  0  0  0  0
    8.0135   -8.1057  -12.1145 C   0  0  0  0  0  0  0  0  0  0  0  0
   13.4782  -11.3329  -12.7043 C   0  0  0  0  0  0  0  0  0  0  0  0
   12.0524  -11.5094  -10.8053 C   0  0  0  0  0  0  0  0  0  0  0  0
    7.7485   -8.6671  -10.7069 C   0  0  0  0  0  0  0  0  0  0  0  0
    8.0533  -10.1768  -10.7219 C   0  0  0  0  0  0  0  0  0  0  0  0
    6.4025  -11.8286  -10.0978 C   0  0  0  0  0  0  0  0  0  0  0  0
  1 23  1  0  0  0  0
  1 24  1  0  0  0  0
  1  2  1  0  0  0  0
  3  4  1  0  0  0  0
  3 17  1  0  0  0  0
  4  6  2  0  0  0  0
  4 13  1  0  0  0  0
  5 10  1  0  0  0  0
  5 14  2  0  0  0  0
  6  8  1  0  0  0  0
  7 12  1  0  0  0  0
  7 14  1  0  0  0  0
  7 19  1  0  0  0  0
  8 10  2  0  0  0  0
  9 14  1  0  0  0  0
 10 12  1  0  0  0  0
 11 18  1  0  0  0  0
 11 20  1  0  0  0  0
 11 21  1  0  0  0  0
 12 13  2  0  0  0  0
 13 15  1  0  0  0  0
 15 16  1  0  0  0  0
 16 17  1  0  0  0  0
 16 18  1  1  0  0  0
 19 22  1  0  0  0  0
 22 23  1  0  0  0  0
M  END
>  <CHROM.1>
-124.67011790,105.43326589,89.09879937,70.72500356,-158.25870269,-159.70015645
10.02490370,-7.94598751,-11.74813112,1.82008618,-0.21292803,2.83150903

>  <Name>
ligand

>  <RI>
0

>  <Rbt.Current_Directory>
/home/itssahil/PROJECTS/Mol_Feturizer/New_Systems/rnas/3TZR

>  <Rbt.Executable>
rbdock ($Id: //depot/dev/client3/rdock/2013.1/src/exe/rbdock.cxx#4 $)

>  <Rbt.Library>
libRbt.so (2013.1, Build901 2013/11/27)

>  <Rbt.Parameter_File>
/export/apps/rDock/src/rDock_2013.1_src/data/scripts/dock_solv.prm

>  <Rbt.Receptor>
prm/blind_docking_40.prm

>  <SCORE>
-36.3542

>  <SCORE.INTER>
-26.2688

>  <SCORE.INTER.CONST>
1

>  <SCORE.INTER.POLAR>
0

>  <SCORE.INTER.ROT>
6

>  <SCORE.INTER.SOLV>
20.5272

>  <SCORE.INTER.VDW>
-31.9549

>  <SCORE.INTER.norm>
-1.09453

>  <SCORE.INTRA>
-10.0854

>  <SCORE.INTRA.DIHEDRAL>
3.30167

>  <SCORE.INTRA.DIHEDRAL.0>
4.94008

>  <SCORE.INTRA.POLAR>
0

>  <SCORE.INTRA.POLAR.0>
0

>  <SCORE.INTRA.REPUL>
0

>  <SCORE.INTRA.REPUL.0>
0

>  <SCORE.INTRA.SOLV>
0.175926

>  <SCORE.INTRA.SOLV.lig_0>
-31.4704

>  <SCORE.INTRA.VDW>
-11.8242

>  <SCORE.INTRA.VDW.0>
10.2807

>  <SCORE.INTRA.norm>
-0.420226

>  <SCORE.RESTR>
0

>  <SCORE.RESTR.CAVITY>
0

>  <SCORE.RESTR.norm>
0

>  <SCORE.SYSTEM>
0

>  <SCORE.SYSTEM.CONST>
0

>  <SCORE.SYSTEM.DIHEDRAL>
0

>  <SCORE.SYSTEM.SOLV>
0

>  <SCORE.SYSTEM.norm>
0

>  <SCORE.heavy>
24

>  <SCORE.norm>
-1.51476

>  <RMSD>
0.889

$$$$
ligand
 OpenBabel11021811493D
libRbt.so/2013.1/901 2013/11/27
 24 26  0  0  0  0  0  0  0  0999 V2000
    7.4695  -10.8826   -9.6150 N   0  0  0  0  0  0  0  0  0  0  0  0
    8.4188  -11.7477   -8.9333 C   0  0  0  0  0  0  0  0  0  0  0  0
   13.2214   -6.0467  -12.8819 O   0  0  0  0  0  0  0  0  0  0  0  0
   11.9123   -5.6115  -12.7252 C   0  0  0  0  0  0  0  0  0  0  0  0
    7.8235   -4.4515  -12.2835 N   0  0  0  0  0  0  0  0  0  0  0  0
   11.5631   -4.1475  -12.7673 C   0  0  0  0  0  0  0  0  0  0  0  0
    8.2529   -6.6544  -12.1910 N   0  0  0  0  0  0  0  0  0  0  0  0
   10.2174   -3.6744  -12.6363 C   0  0  0  0  0  0  0  0  0  0  0  0
    5.8630   -5.9497  -11.9290 N   0  0  0  0  0  0  0  0  0  0  0  0
    9.1983   -4.6735  -12.4443 C   0  0  0  0  0  0  0  0  0  0  0  0
   12.4457  -10.6831  -11.9660 N   0  0  0  0  0  0  0  0  0  0  0  0
    9.5200   -6.0743  -12.3868 C   0  0  0  0  0  0  0  0  0  0  0  0
   10.9315   -6.5216  -12.5395 C   0  0  0  0  0  0  0  0  0  0  0  0
    7.2575   -5.6845  -12.1357 C   0  0  0  0  0  0  0  0  0  0  0  0
   11.2499   -8.0041  -12.4857 C   0  0  0  0  0  0  0  0  0  0  0  0
   12.7346   -8.3452  -12.4155 C   0  0  1  0  0  0  0  0  0  0  0  0
   13.5911   -7.1458  -12.1260 C   0  0  0  0  0  0  0  0  0  0  0  0
   12.9674   -9.4518  -11.3981 C   0  0  0  0  0  0  0  0  0  0  0  0
    8.0025   -8.1077  -12.1403 C   0  0  0  0  0  0  0  0  0  0  0  0
   13.5085  -11.3278  -12.7255 C   0  0  0  0  0  0  0  0  0  0  0  0
   12.0432  -11.5380  -10.8603 C   0  0  0  0  0  0  0  0  0  0  0  0
    7.6539   -8.6699  -10.7513 C   0  0  0  0  0  0  0  0  0  0  0  0
    8.1428  -10.1288  -10.6822 C   0  0  0  0  0  0  0  0  0  0  0  0
    6.3998  -11.7169  -10.1505 C   0  0  0  0  0  0  0  0  0  0  0  0
  1 23  1  0  0  0  0
  1 24  1  0  0  0  0
  1  2  1  0  0  0  0
  3  4  1  0  0  0  0
  3 17  1  0  0  0  0
  4  6  2  0  0  0  0
  4 13  1  0  0  0  0
  5 10  1  0  0  0  0
  5 14  2  0  0  0  0
  6  8  1  0  0  0  0
  7 12  1  0  0  0  0
  7 14  1  0  0  0  0
  7 19  1  0  0  0  0
  8 10  2  0  0  0  0
  9 14  1  0  0  0  0
 10 12  1  0  0  0  0
 11 18  1  0  0  0  0
 11 20  1  0  0  0  0
 11 21  1  0  0  0  0
 12 13  2  0  0  0  0
 13 15  1  0  0  0  0
 15 16  1  0  0  0  0
 16 17  1  0  0  0  0
 16 18  1  1  0  0  0
 19 22  1  0  0  0  0
 22 23  1  0  0  0  0
M  END
>  <CHROM.1>
-139.58289071,108.63204706,89.35207275,71.74140930,-150.41506049,-160.33837530
10.02558656,-7.94816425,-11.75844852,1.76862087,-0.21092366,2.83775887

>  <Name>
ligand

>  <RI>
0

>  <Rbt.Current_Directory>
/home/itssahil/PROJECTS/Mol_Feturizer/New_Systems/rnas/3TZR

>  <Rbt.Executable>
rbdock ($Id: //depot/dev/client3/rdock/2013.1/src/exe/rbdock.cxx#4 $)

>  <Rbt.Library>
libRbt.so (2013.1, Build901 2013/11/27)

>  <Rbt.Parameter_File>
/export/apps/rDock/src/rDock_2013.1_src/data/scripts/dock_solv.prm

>  <Rbt.Receptor>
prm/blind_docking_40.prm

>  <SCORE>
-36.0938

>  <SCORE.INTER>
-26.3833

>  <SCORE.INTER.CONST>
1

>  <SCORE.INTER.POLAR>
0

>  <SCORE.INTER.ROT>
6

>  <SCORE.INTER.SOLV>
20.4809

>  <SCORE.INTER.VDW>
-32.0158

>  <SCORE.INTER.norm>
-1.0993

>  <SCORE.INTRA>
-9.71071

>  <SCORE.INTRA.DIHEDRAL>
3.85223

>  <SCORE.INTRA.DIHEDRAL.0>
4.94008

>  <SCORE.INTRA.POLAR>
0

>  <SCORE.INTRA.POLAR.0>
0

>  <SCORE.INTRA.REPUL>
0

>  <SCORE.INTRA.REPUL.0>
0

>  <SCORE.INTRA.SOLV>
0.246905

>  <SCORE.INTRA.SOLV.lig_0>
-31.4704

>  <SCORE.INTRA.VDW>
-11.7603

>  <SCORE.INTRA.VDW.0>
10.2807

>  <SCORE.INTRA.norm>
-0.404613

>  <SCORE.RESTR>
0.000231972

>  <SCORE.RESTR.CAVITY>
0.000231972

>  <SCORE.RESTR.norm>
9.6655e-06

>  <SCORE.SYSTEM>
0

>  <SCORE.SYSTEM.CONST>
0

>  <SCORE.SYSTEM.DIHEDRAL>
0

>  <SCORE.SYSTEM.SOLV>
0

>  <SCORE.SYSTEM.norm>
0

>  <SCORE.heavy>
24

>  <SCORE.norm>
-1.50391

>  <RMSD>
0.891

$$$$
ligand
 OpenBabel11021811493D
libRbt.so/2013.1/901 2013/11/27
 24 26  0  0  0  0  0  0  0  0999 V2000
    6.7457  -10.9246   -9.9875 N   0  0  0  0  0  0  0  0  0  0  0  0
    7.6001  -11.9355   -9.3854 C   0  0  0  0  0  0  0  0  0  0  0  0
   13.1888   -5.8811  -12.7906 O   0  0  0  0  0  0  0  0  0  0  0  0
   11.8719   -5.4830  -12.6034 C   0  0  0  0  0  0  0  0  0  0  0  0
    7.7624   -4.4351  -12.0807 N   0  0  0  0  0  0  0  0  0  0  0  0
   11.4952   -4.0266  -12.5402 C   0  0  0  0  0  0  0  0  0  0  0  0
    8.2333   -6.6305  -12.1466 N   0  0  0  0  0  0  0  0  0  0  0  0
   10.1409   -3.5897  -12.3759 C   0  0  0  0  0  0  0  0  0  0  0  0
    5.8309   -5.9916  -11.8354 N   0  0  0  0  0  0  0  0  0  0  0  0
    9.1411   -4.6190  -12.2566 C   0  0  0  0  0  0  0  0  0  0  0  0
   12.4894  -10.5831  -12.2048 N   0  0  0  0  0  0  0  0  0  0  0  0
    9.4891   -6.0140  -12.2999 C   0  0  0  0  0  0  0  0  0  0  0  0
   10.9087   -6.4224  -12.4839 C   0  0  0  0  0  0  0  0  0  0  0  0
    7.2200   -5.6860  -12.0221 C   0  0  0  0  0  0  0  0  0  0  0  0
   11.2550   -7.8987  -12.5367 C   0  0  0  0  0  0  0  0  0  0  0  0
   12.7459   -8.2159  -12.4908 C   0  0  1  0  0  0  0  0  0  0  0  0
   13.5800   -7.0245  -12.1156 C   0  0  0  0  0  0  0  0  0  0  0  0
   13.0005   -9.3883  -11.5555 C   0  0  0  0  0  0  0  0  0  0  0  0
    8.0105   -8.0881  -12.2006 C   0  0  0  0  0  0  0  0  0  0  0  0
   13.5460  -11.1454  -13.0350 C   0  0  0  0  0  0  0  0  0  0  0  0
   12.1296  -11.5284  -11.1596 C   0  0  0  0  0  0  0  0  0  0  0  0
    7.4633   -8.7210  -10.9095 C   0  0  0  0  0  0  0  0  0  0  0  0
    7.4509  -10.2509  -11.0871 C   0  0  0  0  0  0  0  0  0  0  0  0
    5.5319  -11.5807  -10.4606 C   0  0  0  0  0  0  0  0  0  0  0  0
  1 23  1  0  0  0  0
  1 24  1  0  0  0  0
  1  2  1  0  0  0  0
  3  4  1  0  0  0  0
  3 17  1  0  0  0  0
  4  6  2  0  0  0  0
  4 13  1  0  0  0  0
  5 10  1  0  0  0  0
  5 14  2  0  0  0  0
  6  8  1  0  0  0  0
  7 12  1  0  0  0  0
  7 14  1  0  0  0  0
  7 19  1  0  0  0  0
  8 10  2  0  0  0  0
  9 14  1  0  0  0  0
 10 12  1  0  0  0  0
 11 18  1  0  0  0  0
 11 20  1  0  0  0  0
 11 21  1  0  0  0  0
 12 13  2  0  0  0  0
 13 15  1  0  0  0  0
 15 16  1  0  0  0  0
 16 17  1  0  0  0  0
 16 18  1  1  0  0  0
 19 22  1  0  0  0  0
 22 23  1  0  0  0  0
M  END
>  <CHROM.1>
-125.77644528,117.71558374,88.31316251,71.17709747,-173.39079205,-170.91929774
9.87023751,-7.90017347,-11.82806241,-2.36846149,0.19631274,-0.21314079

>  <Name>
ligand

>  <RI>
0

>  <Rbt.Current_Directory>
/home/itssahil/PROJECTS/Mol_Feturizer/New_Systems/rnas/3TZR

>  <Rbt.Executable>
rbdock ($Id: //depot/dev/client3/rdock/2013.1/src/exe/rbdock.cxx#4 $)

>  <Rbt.Library>
libRbt.so (2013.1, Build901 2013/11/27)

>  <Rbt.Parameter_File>
/export/apps/rDock/src/rDock_2013.1_src/data/scripts/dock_solv.prm

>  <Rbt.Receptor>
prm/blind_docking_80.prm

>  <SCORE>
-36.2069

>  <SCORE.INTER>
-25.3472

>  <SCORE.INTER.CONST>
1

>  <SCORE.INTER.POLAR>
0

>  <SCORE.INTER.ROT>
6

>  <SCORE.INTER.SOLV>
20.7041

>  <SCORE.INTER.VDW>
-31.3995

>  <SCORE.INTER.norm>
-1.05613

>  <SCORE.INTRA>
-10.8597

>  <SCORE.INTRA.DIHEDRAL>
0.643324

>  <SCORE.INTRA.DIHEDRAL.0>
4.94008

>  <SCORE.INTRA.POLAR>
0

>  <SCORE.INTRA.POLAR.0>
0

>  <SCORE.INTRA.REPUL>
0

>  <SCORE.INTRA.REPUL.0>
0

>  <SCORE.INTRA.SOLV>
0.467879

>  <SCORE.INTRA.SOLV.lig_0>
-31.4704

>  <SCORE.INTRA.VDW>
-11.4153

>  <SCORE.INTRA.VDW.0>
10.2807

>  <SCORE.INTRA.norm>
-0.452489

>  <SCORE.RESTR>
0

>  <SCORE.RESTR.CAVITY>
0

>  <SCORE.RESTR.norm>
0

>  <SCORE.SYSTEM>
0

>  <SCORE.SYSTEM.CONST>
0

>  <SCORE.SYSTEM.DIHEDRAL>
0

>  <SCORE.SYSTEM.SOLV>
0

>  <SCORE.SYSTEM.norm>
0

>  <SCORE.heavy>
24

>  <SCORE.norm>
-1.50862

>  <RMSD>
0.892

$$$$
ligand
 OpenBabel11021811493D
libRbt.so/2013.1/901 2013/11/27
 24 26  0  0  0  0  0  0  0  0999 V2000
    6.7732  -10.9225   -9.9802 N   0  0  0  0  0  0  0  0  0  0  0  0
    7.9422  -11.4859   -9.3243 C   0  0  0  0  0  0  0  0  0  0  0  0
   13.1401   -5.8281  -12.7263 O   0  0  0  0  0  0  0  0  0  0  0  0
   11.8121   -5.4482  -12.5848 C   0  0  0  0  0  0  0  0  0  0  0  0
    7.6730   -4.4581  -12.2019 N   0  0  0  0  0  0  0  0  0  0  0  0
   11.4114   -3.9972  -12.5533 C   0  0  0  0  0  0  0  0  0  0  0  0
    8.1793   -6.6465  -12.2230 N   0  0  0  0  0  0  0  0  0  0  0  0
   10.0462   -3.5794  -12.4364 C   0  0  0  0  0  0  0  0  0  0  0  0
    5.7590   -6.0413  -11.9938 N   0  0  0  0  0  0  0  0  0  0  0  0
    9.0591   -4.6227  -12.3332 C   0  0  0  0  0  0  0  0  0  0  0  0
   12.6758  -10.5507  -12.1650 N   0  0  0  0  0  0  0  0  0  0  0  0
    9.4296   -6.0125  -12.3465 C   0  0  0  0  0  0  0  0  0  0  0  0
   10.8602   -6.4010  -12.4816 C   0  0  0  0  0  0  0  0  0  0  0  0
    7.1482   -5.7164  -12.1424 C   0  0  0  0  0  0  0  0  0  0  0  0
   11.2305   -7.8722  -12.5033 C   0  0  0  0  0  0  0  0  0  0  0  0
   12.7239   -8.1653  -12.4077 C   0  0  1  0  0  0  0  0  0  0  0  0
   13.5278   -6.9560  -12.0239 C   0  0  0  0  0  0  0  0  0  0  0  0
   12.9678   -9.3208  -11.4489 C   0  0  0  0  0  0  0  0  0  0  0  0
    7.9805   -8.1080  -12.2635 C   0  0  0  0  0  0  0  0  0  0  0  0
   13.8626  -10.9420  -12.9134 C   0  0  0  0  0  0  0  0  0  0  0  0
   12.3609  -11.5686  -11.1749 C   0  0  0  0  0  0  0  0  0  0  0  0
    7.5509   -8.7533  -10.9346 C   0  0  0  0  0  0  0  0  0  0  0  0
    7.1680  -10.2197  -11.2093 C   0  0  0  0  0  0  0  0  0  0  0  0
    5.8464  -12.0114  -10.2679 C   0  0  0  0  0  0  0  0  0  0  0  0
  1 23  1  0  0  0  0
  1 24  1  0  0  0  0
  1  2  1  0  0  0  0
  3  4  1  0  0  0  0
  3 17  1  0  0  0  0
  4  6  2  0  0  0  0
  4 13  1  0  0  0  0
  5 10  1  0  0  0  0
  5 14  2  0  0  0  0
  6  8  1  0  0  0  0
  7 12  1  0  0  0  0
  7 14  1  0  0  0  0
  7 19  1  0  0  0  0
  8 10  2  0  0  0  0
  9 14  1  0  0  0  0
 10 12  1  0  0  0  0
 11 18  1  0  0  0  0
 11 20  1  0  0  0  0
 11 21  1  0  0  0  0
 12 13  2  0  0  0  0
 13 15  1  0  0  0  0
 15 16  1  0  0  0  0
 16 17  1  0  0  0  0
 16 18  1  1  0  0  0
 19 22  1  0  0  0  0
 22 23  1  0  0  0  0
M  END
>  <CHROM.1>
-87.32306159,111.29334797,84.65105939,79.20743284,170.82255688,178.65696375
9.88954726,-7.88113359,-11.82824825,-2.37165833,0.17369993,-0.23746876

>  <Name>
ligand

>  <RI>
0

>  <Rbt.Current_Directory>
/home/itssahil/PROJECTS/Mol_Feturizer/New_Systems/rnas/3TZR

>  <Rbt.Executable>
rbdock ($Id: //depot/dev/client3/rdock/2013.1/src/exe/rbdock.cxx#4 $)

>  <Rbt.Library>
libRbt.so (2013.1, Build901 2013/11/27)

>  <Rbt.Parameter_File>
/export/apps/rDock/src/rDock_2013.1_src/data/scripts/dock_solv.prm

>  <Rbt.Receptor>
prm/pocket_docking_2.prm

>  <SCORE>
-36.8735

>  <SCORE.INTER>
-26.0544

>  <SCORE.INTER.CONST>
1

>  <SCORE.INTER.POLAR>
0

>  <SCORE.INTER.ROT>
6

>  <SCORE.INTER.SOLV>
20.9062

>  <SCORE.INTER.VDW>
-31.9383

>  <SCORE.INTER.norm>
-1.0856

>  <SCORE.INTRA>
-10.8191

>  <SCORE.INTRA.DIHEDRAL>
-0.252824

>  <SCORE.INTRA.DIHEDRAL.0>
4.94008

>  <SCORE.INTRA.POLAR>
0

>  <SCORE.INTRA.POLAR.0>
0

>  <SCORE.INTRA.REPUL>
0

>  <SCORE.INTRA.REPUL.0>
0

>  <SCORE.INTRA.SOLV>
0.474475

>  <SCORE.INTRA.SOLV.lig_0>
-31.4704

>  <SCORE.INTRA.VDW>
-10.9299

>  <SCORE.INTRA.VDW.0>
10.2807

>  <SCORE.INTRA.norm>
-0.450795

>  <SCORE.RESTR>
0

>  <SCORE.RESTR.CAVITY>
0

>  <SCORE.RESTR.norm>
0

>  <SCORE.SYSTEM>
0

>  <SCORE.SYSTEM.CONST>
0

>  <SCORE.SYSTEM.DIHEDRAL>
0

>  <SCORE.SYSTEM.SOLV>
0

>  <SCORE.SYSTEM.norm>
0

>  <SCORE.heavy>
24

>  <SCORE.norm>
-1.53639

>  <RMSD>
0.892

$$$$
ligand
 OpenBabel11021811493D
libRbt.so/2013.1/901 2013/11/27
 24 26  0  0  0  0  0  0  0  0999 V2000
    6.8093  -10.9204   -9.9334 N   0  0  0  0  0  0  0  0  0  0  0  0
    7.9862  -11.4682   -9.2783 C   0  0  0  0  0  0  0  0  0  0  0  0
   13.1419   -5.8205  -12.7648 O   0  0  0  0  0  0  0  0  0  0  0  0
   11.8161   -5.4427  -12.5989 C   0  0  0  0  0  0  0  0  0  0  0  0
    7.6832   -4.4588  -12.1412 N   0  0  0  0  0  0  0  0  0  0  0  0
   11.4149   -3.9923  -12.5513 C   0  0  0  0  0  0  0  0  0  0  0  0
    8.1907   -6.6465  -12.1851 N   0  0  0  0  0  0  0  0  0  0  0  0
   10.0515   -3.5765  -12.4091 C   0  0  0  0  0  0  0  0  0  0  0  0
    5.7740   -6.0450  -11.9120 N   0  0  0  0  0  0  0  0  0  0  0  0
    9.0670   -4.6213  -12.2965 C   0  0  0  0  0  0  0  0  0  0  0  0
   12.6330  -10.5434  -12.2066 N   0  0  0  0  0  0  0  0  0  0  0  0
    9.4383   -6.0107  -12.3251 C   0  0  0  0  0  0  0  0  0  0  0  0
   10.8667   -6.3970  -12.4863 C   0  0  0  0  0  0  0  0  0  0  0  0
    7.1604   -5.7179  -12.0814 C   0  0  0  0  0  0  0  0  0  0  0  0
   11.2378   -7.8677  -12.5238 C   0  0  0  0  0  0  0  0  0  0  0  0
   12.7328   -8.1601  -12.4548 C   0  0  1  0  0  0  0  0  0  0  0  0
   13.5420   -6.9527  -12.0763 C   0  0  0  0  0  0  0  0  0  0  0  0
   12.9933   -9.3217  -11.5077 C   0  0  0  0  0  0  0  0  0  0  0  0
    7.9923   -8.1079  -12.2319 C   0  0  0  0  0  0  0  0  0  0  0  0
   13.7917  -11.0029  -12.9603 C   0  0  0  0  0  0  0  0  0  0  0  0
   12.2760  -11.5325  -11.2018 C   0  0  0  0  0  0  0  0  0  0  0  0
    7.6320   -8.7690  -10.8903 C   0  0  0  0  0  0  0  0  0  0  0  0
    7.1930  -10.2192  -11.1668 C   0  0  0  0  0  0  0  0  0  0  0  0
    5.8934  -12.0205  -10.2132 C   0  0  0  0  0  0  0  0  0  0  0  0
  1 23  1  0  0  0  0
  1 24  1  0  0  0  0
  1  2  1  0  0  0  0
  3  4  1  0  0  0  0
  3 17  1  0  0  0  0
  4  6  2  0  0  0  0
  4 13  1  0  0  0  0
  5 10  1  0  0  0  0
  5 14  2  0  0  0  0
  6  8  1  0  0  0  0
  7 12  1  0  0  0  0
  7 14  1  0  0  0  0
  7 19  1  0  0  0  0
  8 10  2  0  0  0  0
  9 14  1  0  0  0  0
 10 12  1  0  0  0  0
 11 18  1  0  0  0  0
 11 20  1  0  0  0  0
 11 21  1  0  0  0  0
 12 13  2  0  0  0  0
 13 15  1  0  0  0  0
 15 16  1  0  0  0  0
 16 17  1  0  0  0  0
 16 18  1  1  0  0  0
 19 22  1  0  0  0  0
 22 23  1  0  0  0  0
M  END
>  <CHROM.1>
-84.32259207,109.30122219,87.45685463,76.68012094,168.97067039,-179.11897446
9.89711832,-7.88075758,-11.81865132,-2.33726733,0.19008455,-0.23382878

>  <Name>
ligand

>  <RI>
144

>  <Rbt.Current_Directory>
/home/itssahil/PROJECTS/Mol_Feturizer/New_Systems/rnas/3TZR

>  <Rbt.Executable>
rbdock ($Id: //depot/dev/client3/rdock/2013.1/src/exe/rbdock.cxx#4 $)

>  <Rbt.Library>
libRbt.so (2013.1, Build901 2013/11/27)

>  <Rbt.Parameter_File>
/export/apps/rDock/src/rDock_2013.1_src/data/scripts/dock_solv.prm

>  <Rbt.Receptor>
prm/pocket_docking_8.prm

>  <SCORE>
-36.9038

>  <SCORE.INTER>
-25.9708

>  <SCORE.INTER.CONST>
1

>  <SCORE.INTER.POLAR>
0

>  <SCORE.INTER.ROT>
6

>  <SCORE.INTER.SOLV>
20.6996

>  <SCORE.INTER.VDW>
-31.8137

>  <SCORE.INTER.norm>
-1.08212

>  <SCORE.INTRA>
-10.9331

>  <SCORE.INTRA.DIHEDRAL>
-0.393936

>  <SCORE.INTRA.DIHEDRAL.0>
4.94008

>  <SCORE.INTRA.POLAR>
0

>  <SCORE.INTRA.POLAR.0>
0

>  <SCORE.INTRA.REPUL>
0

>  <SCORE.INTRA.REPUL.0>
0

>  <SCORE.INTRA.SOLV>
0.446742

>  <SCORE.INTRA.SOLV.lig_0>
-31.4704

>  <SCORE.INTRA.VDW>
-10.9595

>  <SCORE.INTRA.VDW.0>
10.2807

>  <SCORE.INTRA.norm>
-0.455544

>  <SCORE.RESTR>
0

>  <SCORE.RESTR.CAVITY>
0

>  <SCORE.RESTR.norm>
0

>  <SCORE.SYSTEM>
0

>  <SCORE.SYSTEM.CONST>
0

>  <SCORE.SYSTEM.DIHEDRAL>
0

>  <SCORE.SYSTEM.SOLV>
0

>  <SCORE.SYSTEM.norm>
0

>  <SCORE.heavy>
24

>  <SCORE.norm>
-1.53766

>  <RMSD>
0.893

$$$$
ligand
 OpenBabel11021811493D
libRbt.so/2013.1/901 2013/11/27
 24 26  0  0  0  0  0  0  0  0999 V2000
    6.3301  -10.5549  -10.3385 N   0  0  0  0  0  0  0  0  0  0  0  0
    7.1708  -11.6563   -9.8977 C   0  0  0  0  0  0  0  0  0  0  0  0
   13.7550   -6.8356  -12.7872 O   0  0  0  0  0  0  0  0  0  0  0  0
   12.5692   -6.1744  -12.4962 C   0  0  0  0  0  0  0  0  0  0  0  0
    8.8230   -4.2905  -11.6742 N   0  0  0  0  0  0  0  0  0  0  0  0
   12.5432   -4.6926  -12.2310 C   0  0  0  0  0  0  0  0  0  0  0  0
    8.7682   -6.5059  -12.0410 N   0  0  0  0  0  0  0  0  0  0  0  0
   11.3299   -3.9823  -11.9562 C   0  0  0  0  0  0  0  0  0  0  0  0
    6.5844   -5.3799  -11.5514 N   0  0  0  0  0  0  0  0  0  0  0  0
   10.1189   -4.7608  -11.9290 C   0  0  0  0  0  0  0  0  0  0  0  0
   13.2811  -11.3673  -12.8941 N   0  0  0  0  0  0  0  0  0  0  0  0
   10.1315   -6.1796  -12.1654 C   0  0  0  0  0  0  0  0  0  0  0  0
   11.4147   -6.8747  -12.4588 C   0  0  0  0  0  0  0  0  0  0  0  0
    8.0044   -5.3794  -11.7544 C   0  0  0  0  0  0  0  0  0  0  0  0
   11.4066   -8.3702  -12.7150 C   0  0  0  0  0  0  0  0  0  0  0  0
   12.7828   -9.0246  -12.7718 C   0  0  1  0  0  0  0  0  0  0  0  0
   13.8755   -8.1184  -12.2814 C   0  0  0  0  0  0  0  0  0  0  0  0
   12.7666  -10.3390  -12.0061 C   0  0  0  0  0  0  0  0  0  0  0  0
    8.2110   -7.8524  -12.2725 C   0  0  0  0  0  0  0  0  0  0  0  0
   14.6949  -11.5634  -12.6033 C   0  0  0  0  0  0  0  0  0  0  0  0
   12.5473  -12.5919  -12.6160 C   0  0  0  0  0  0  0  0  0  0  0  0
    7.6815   -8.5725  -11.0204 C   0  0  0  0  0  0  0  0  0  0  0  0
    6.9577   -9.8559  -11.4690 C   0  0  0  0  0  0  0  0  0  0  0  0
    5.0286  -11.0989  -10.7094 C   0  0  0  0  0  0  0  0  0  0  0  0
  1 23  1  0  0  0  0
  1 24  1  0  0  0  0
  1  2  1  0  0  0  0
  3  4  1  0  0  0  0
  3 17  1  0  0  0  0
  4  6  2  0  0  0  0
  4 13  1  0  0  0  0
  5 10  1  0  0  0  0
  5 14  2  0  0  0  0
  6  8  1  0  0  0  0
  7 12  1  0  0  0  0
  7 14  1  0  0  0  0
  7 19  1  0  0  0  0
  8 10  2  0  0  0  0
  9 14  1  0  0  0  0
 10 12  1  0  0  0  0
 11 18  1  0  0  0  0
 11 20  1  0  0  0  0
 11 21  1  0  0  0  0
 12 13  2  0  0  0  0
 13 15  1  0  0  0  0
 15 16  1  0  0  0  0
 16 17  1  0  0  0  0
 16 18  1  1  0  0  0
 19 22  1  0  0  0  0
 22 23  1  0  0  0  0
M  END
>  <CHROM.1>
-99.38805751,111.38086144,97.07081740,127.31928743,171.78993642,-175.65074025
10.26541367,-8.14731764,-11.93140613,3.10738421,0.23096352,-0.06250696

>  <Name>
ligand

>  <RI>
0

>  <Rbt.Current_Directory>
/home/itssahil/PROJECTS/Mol_Feturizer/New_Systems/rnas/3TZR

>  <Rbt.Executable>
rbdock ($Id: //depot/dev/client3/rdock/2013.1/src/exe/rbdock.cxx#4 $)

>  <Rbt.Library>
libRbt.so (2013.1, Build901 2013/11/27)

>  <Rbt.Parameter_File>
/export/apps/rDock/src/rDock_2013.1_src/data/scripts/dock_solv.prm

>  <Rbt.Receptor>
prm/blind_docking_40.prm

>  <SCORE>
-33.397

>  <SCORE.INTER>
-24.676

>  <SCORE.INTER.CONST>
1

>  <SCORE.INTER.POLAR>
0

>  <SCORE.INTER.ROT>
6

>  <SCORE.INTER.SOLV>
22.1904

>  <SCORE.INTER.VDW>
-31.4475

>  <SCORE.INTER.norm>
-1.02817

>  <SCORE.INTRA>
-8.72101

>  <SCORE.INTRA.DIHEDRAL>
5.03917

>  <SCORE.INTRA.DIHEDRAL.0>
4.94008

>  <SCORE.INTRA.POLAR>
0

>  <SCORE.INTRA.POLAR.0>
0

>  <SCORE.INTRA.REPUL>
0

>  <SCORE.INTRA.REPUL.0>
0

>  <SCORE.INTRA.SOLV>
0.453913

>  <SCORE.INTRA.SOLV.lig_0>
-31.4704

>  <SCORE.INTRA.VDW>
-11.4675

>  <SCORE.INTRA.VDW.0>
10.2807

>  <SCORE.INTRA.norm>
-0.363375

>  <SCORE.RESTR>
0

>  <SCORE.RESTR.CAVITY>
0

>  <SCORE.RESTR.norm>
0

>  <SCORE.SYSTEM>
0

>  <SCORE.SYSTEM.CONST>
0

>  <SCORE.SYSTEM.DIHEDRAL>
0

>  <SCORE.SYSTEM.SOLV>
0

>  <SCORE.SYSTEM.norm>
0

>  <SCORE.heavy>
24

>  <SCORE.norm>
-1.39154

>  <RMSD>
0.894

$$$$
ligand
 OpenBabel11021811493D
libRbt.so/2013.1/901 2013/11/27
 24 26  0  0  0  0  0  0  0  0999 V2000
    6.7212  -10.6992  -10.0860 N   0  0  0  0  0  0  0  0  0  0  0  0
    7.4951  -11.7228   -9.4022 C   0  0  0  0  0  0  0  0  0  0  0  0
   13.9165   -7.5615  -12.8809 O   0  0  0  0  0  0  0  0  0  0  0  0
   12.8102   -6.7675  -12.6100 C   0  0  0  0  0  0  0  0  0  0  0  0
    9.2920   -4.4685  -11.8379 N   0  0  0  0  0  0  0  0  0  0  0  0
   12.9383   -5.2770  -12.4400 C   0  0  0  0  0  0  0  0  0  0  0  0
    9.0081   -6.6855  -12.0606 N   0  0  0  0  0  0  0  0  0  0  0  0
   11.8091   -4.4325  -12.1878 C   0  0  0  0  0  0  0  0  0  0  0  0
    6.9602   -5.3172  -11.6020 N   0  0  0  0  0  0  0  0  0  0  0  0
   10.5278   -5.0819  -12.0871 C   0  0  0  0  0  0  0  0  0  0  0  0
   13.5087  -11.8862  -12.4120 N   0  0  0  0  0  0  0  0  0  0  0  0
   10.3934   -6.5066  -12.2323 C   0  0  0  0  0  0  0  0  0  0  0  0
   11.5932   -7.3442  -12.5053 C   0  0  0  0  0  0  0  0  0  0  0  0
    8.3676   -5.4723  -11.8322 C   0  0  0  0  0  0  0  0  0  0  0  0
   11.4300   -8.8443  -12.6649 C   0  0  0  0  0  0  0  0  0  0  0  0
   12.7325   -9.6363  -12.7063 C   0  0  1  0  0  0  0  0  0  0  0  0
   13.9221   -8.8162  -12.2963 C   0  0  0  0  0  0  0  0  0  0  0  0
   12.6056  -10.8924  -11.8577 C   0  0  0  0  0  0  0  0  0  0  0  0
    8.3141   -7.9808  -12.1945 C   0  0  0  0  0  0  0  0  0  0  0  0
   14.0086  -12.7143  -11.3229 C   0  0  0  0  0  0  0  0  0  0  0  0
   12.7428  -12.7036  -13.3397 C   0  0  0  0  0  0  0  0  0  0  0  0
    7.9427   -8.6711  -10.8707 C   0  0  0  0  0  0  0  0  0  0  0  0
    7.5062  -10.1148  -11.1827 C   0  0  0  0  0  0  0  0  0  0  0  0
    5.4952  -11.3142  -10.5822 C   0  0  0  0  0  0  0  0  0  0  0  0
  1 23  1  0  0  0  0
  1 24  1  0  0  0  0
  1  2  1  0  0  0  0
  3  4  1  0  0  0  0
  3 17  1  0  0  0  0
  4  6  2  0  0  0  0
  4 13  1  0  0  0  0
  5 10  1  0  0  0  0
  5 14  2  0  0  0  0
  6  8  1  0  0  0  0
  7 12  1  0  0  0  0
  7 14  1  0  0  0  0
  7 19  1  0  0  0  0
  8 10  2  0  0  0  0
  9 14  1  0  0  0  0
 10 12  1  0  0  0  0
 11 18  1  0  0  0  0
 11 20  1  0  0  0  0
 11 21  1  0  0  0  0
 12 13  2  0  0  0  0
 13 15  1  0  0  0  0
 15 16  1  0  0  0  0
 16 17  1  0  0  0  0
 16 18  1  1  0  0  0
 19 22  1  0  0  0  0
 22 23  1  0  0  0  0
M  END
>  <CHROM.1>
-109.08107736,102.19963704,147.46899144,152.34829453,-168.28344343,-160.84583642
10.47853554,-8.51786138,-11.86106827,2.72049734,0.25842391,-0.12625350

>  <Name>
ligand

>  <RI>
0

>  <Rbt.Current_Directory>
/home/itssahil/PROJECTS/Mol_Feturizer/New_Systems/rnas/3TZR

>  <Rbt.Executable>
rbdock ($Id: //depot/dev/client3/rdock/2013.1/src/exe/rbdock.cxx#4 $)

>  <Rbt.Library>
libRbt.so (2013.1, Build901 2013/11/27)

>  <Rbt.Parameter_File>
/export/apps/rDock/src/rDock_2013.1_src/data/scripts/dock_solv.prm

>  <Rbt.Receptor>
prm/pocket_docking_3.prm

>  <SCORE>
-33.4753

>  <SCORE.INTER>
-23.9727

>  <SCORE.INTER.CONST>
1

>  <SCORE.INTER.POLAR>
0

>  <SCORE.INTER.ROT>
6

>  <SCORE.INTER.SOLV>
20.4408

>  <SCORE.INTER.VDW>
-30.3954

>  <SCORE.INTER.norm>
-0.998864

>  <SCORE.INTRA>
-9.50261

>  <SCORE.INTRA.DIHEDRAL>
4.12377

>  <SCORE.INTRA.DIHEDRAL.0>
4.94008

>  <SCORE.INTRA.POLAR>
0

>  <SCORE.INTRA.POLAR.0>
0

>  <SCORE.INTRA.REPUL>
0

>  <SCORE.INTRA.REPUL.0>
0

>  <SCORE.INTRA.SOLV>
0.0985738

>  <SCORE.INTRA.SOLV.lig_0>
-31.4704

>  <SCORE.INTRA.VDW>
-11.6138

>  <SCORE.INTRA.VDW.0>
10.2807

>  <SCORE.INTRA.norm>
-0.395942

>  <SCORE.RESTR>
0

>  <SCORE.RESTR.CAVITY>
0

>  <SCORE.RESTR.norm>
0

>  <SCORE.SYSTEM>
0

>  <SCORE.SYSTEM.CONST>
0

>  <SCORE.SYSTEM.DIHEDRAL>
0

>  <SCORE.SYSTEM.SOLV>
0

>  <SCORE.SYSTEM.norm>
0

>  <SCORE.heavy>
24

>  <SCORE.norm>
-1.39481

>  <RMSD>
0.894

$$$$
ligand
 OpenBabel11021811493D
libRbt.so/2013.1/901 2013/11/27
 24 26  0  0  0  0  0  0  0  0999 V2000
    7.6677  -10.9086   -9.6705 N   0  0  0  0  0  0  0  0  0  0  0  0
    8.6914  -11.8353   -9.2148 C   0  0  0  0  0  0  0  0  0  0  0  0
   13.3793   -6.0815  -12.6246 O   0  0  0  0  0  0  0  0  0  0  0  0
   12.0694   -5.6748  -12.4089 C   0  0  0  0  0  0  0  0  0  0  0  0
    7.9783   -4.5926  -11.8172 N   0  0  0  0  0  0  0  0  0  0  0  0
   11.7241   -4.2245  -12.1984 C   0  0  0  0  0  0  0  0  0  0  0  0
    8.4017   -6.7795  -12.1063 N   0  0  0  0  0  0  0  0  0  0  0  0
   10.3779   -3.7759  -12.0018 C   0  0  0  0  0  0  0  0  0  0  0  0
    6.0105   -6.1213  -11.7520 N   0  0  0  0  0  0  0  0  0  0  0  0
    9.3545   -4.7889  -11.9988 C   0  0  0  0  0  0  0  0  0  0  0  0
   13.2668  -10.7876  -12.7016 N   0  0  0  0  0  0  0  0  0  0  0  0
    9.6724   -6.1795  -12.1835 C   0  0  0  0  0  0  0  0  0  0  0  0
   11.0846   -6.5992  -12.3961 C   0  0  0  0  0  0  0  0  0  0  0  0
    7.4079   -5.8299  -11.8935 C   0  0  0  0  0  0  0  0  0  0  0  0
   11.3991   -8.0696  -12.5987 C   0  0  0  0  0  0  0  0  0  0  0  0
   12.8820   -8.4240  -12.5726 C   0  0  1  0  0  0  0  0  0  0  0  0
   13.7377   -7.2973  -12.0683 C   0  0  0  0  0  0  0  0  0  0  0  0
   13.1004   -9.6924  -11.7617 C   0  0  0  0  0  0  0  0  0  0  0  0
    8.1476   -8.2182  -12.3132 C   0  0  0  0  0  0  0  0  0  0  0  0
   14.2228  -11.7341  -12.1430 C   0  0  0  0  0  0  0  0  0  0  0  0
   11.9715  -11.4307  -12.8570 C   0  0  0  0  0  0  0  0  0  0  0  0
    7.4086   -8.9300  -11.1669 C   0  0  0  0  0  0  0  0  0  0  0  0
    8.0574  -10.3108  -10.9555 C   0  0  0  0  0  0  0  0  0  0  0  0
    6.4124  -11.6421   -9.7871 C   0  0  0  0  0  0  0  0  0  0  0  0
  1 23  1  0  0  0  0
  1 24  1  0  0  0  0
  1  2  1  0  0  0  0
  3  4  1  0  0  0  0
  3 17  1  0  0  0  0
  4  6  2  0  0  0  0
  4 13  1  0  0  0  0
  5 10  1  0  0  0  0
  5 14  2  0  0  0  0
  6  8  1  0  0  0  0
  7 12  1  0  0  0  0
  7 14  1  0  0  0  0
  7 19  1  0  0  0  0
  8 10  2  0  0  0  0
  9 14  1  0  0  0  0
 10 12  1  0  0  0  0
 11 18  1  0  0  0  0
 11 20  1  0  0  0  0
 11 21  1  0  0  0  0
 12 13  2  0  0  0  0
 13 15  1  0  0  0  0
 15 16  1  0  0  0  0
 16 17  1  0  0  0  0
 16 18  1  1  0  0  0
 19 22  1  0  0  0  0
 22 23  1  0  0  0  0
M  END
>  <CHROM.1>
-153.91123186,125.18411397,145.46694236,101.11253846,-139.02146558,164.71787780
10.19509101,-8.06004643,-11.77718590,0.72649225,-0.24218090,2.94832936

>  <Name>
ligand

>  <RI>
0

>  <Rbt.Current_Directory>
/home/itssahil/PROJECTS/Mol_Feturizer/New_Systems/rnas/3TZR

>  <Rbt.Executable>
rbdock ($Id: //depot/dev/client3/rdock/2013.1/src/exe/rbdock.cxx#4 $)

>  <Rbt.Library>
libRbt.so (2013.1, Build901 2013/11/27)

>  <Rbt.Parameter_File>
/export/apps/rDock/src/rDock_2013.1_src/data/scripts/dock_solv.prm

>  <Rbt.Receptor>
prm/blind_docking_100.prm

>  <SCORE>
-26.0017

>  <SCORE.INTER>
-18.9439

>  <SCORE.INTER.CONST>
1

>  <SCORE.INTER.POLAR>
0

>  <SCORE.INTER.ROT>
6

>  <SCORE.INTER.SOLV>
19.7229

>  <SCORE.INTER.VDW>
-26.8036

>  <SCORE.INTER.norm>
-0.78933

>  <SCORE.INTRA>
-7.05773

>  <SCORE.INTRA.DIHEDRAL>
7.83634

>  <SCORE.INTRA.DIHEDRAL.0>
4.94008

>  <SCORE.INTRA.POLAR>
0

>  <SCORE.INTRA.POLAR.0>
0

>  <SCORE.INTRA.REPUL>
0

>  <SCORE.INTRA.REPUL.0>
0

>  <SCORE.INTRA.SOLV>
0.496268

>  <SCORE.INTRA.SOLV.lig_0>
-31.4704

>  <SCORE.INTRA.VDW>
-11.224

>  <SCORE.INTRA.VDW.0>
10.2807

>  <SCORE.INTRA.norm>
-0.294072

>  <SCORE.RESTR>
0

>  <SCORE.RESTR.CAVITY>
0

>  <SCORE.RESTR.norm>
0

>  <SCORE.SYSTEM>
0

>  <SCORE.SYSTEM.CONST>
0

>  <SCORE.SYSTEM.DIHEDRAL>
0

>  <SCORE.SYSTEM.SOLV>
0

>  <SCORE.SYSTEM.norm>
0

>  <SCORE.heavy>
24

>  <SCORE.norm>
-1.0834

>  <RMSD>
0.896

$$$$
ligand
 OpenBabel11021811493D
libRbt.so/2013.1/901 2013/11/27
 24 26  0  0  0  0  0  0  0  0999 V2000
    7.1490  -10.7777   -9.9263 N   0  0  0  0  0  0  0  0  0  0  0  0
    8.3067  -11.5193   -9.4531 C   0  0  0  0  0  0  0  0  0  0  0  0
   13.8715   -7.7209  -12.9158 O   0  0  0  0  0  0  0  0  0  0  0  0
   12.8071   -6.8737  -12.6381 C   0  0  0  0  0  0  0  0  0  0  0  0
    9.4106   -4.4063  -11.8417 N   0  0  0  0  0  0  0  0  0  0  0  0
   13.0061   -5.3888  -12.4889 C   0  0  0  0  0  0  0  0  0  0  0  0
    9.0219   -6.6104  -12.0320 N   0  0  0  0  0  0  0  0  0  0  0  0
   11.9208   -4.4903  -12.2303 C   0  0  0  0  0  0  0  0  0  0  0  0
    7.0464   -5.1439  -11.5596 N   0  0  0  0  0  0  0  0  0  0  0  0
   10.6129   -5.0788  -12.1019 C   0  0  0  0  0  0  0  0  0  0  0  0
   13.4077  -11.9526  -12.2684 N   0  0  0  0  0  0  0  0  0  0  0  0
   10.4111   -6.4975  -12.2269 C   0  0  0  0  0  0  0  0  0  0  0  0
   11.5668   -7.3926  -12.5076 C   0  0  0  0  0  0  0  0  0  0  0  0
    8.4414   -5.3663  -11.8092 C   0  0  0  0  0  0  0  0  0  0  0  0
   11.3326   -8.8853  -12.6457 C   0  0  0  0  0  0  0  0  0  0  0  0
   12.5966   -9.7368  -12.6969 C   0  0  1  0  0  0  0  0  0  0  0  0
   13.8289   -8.9674  -12.3155 C   0  0  0  0  0  0  0  0  0  0  0  0
   12.4257  -10.9756  -11.8306 C   0  0  0  0  0  0  0  0  0  0  0  0
    8.2673   -7.8739  -12.1389 C   0  0  0  0  0  0  0  0  0  0  0  0
   13.8172  -12.7440  -11.1160 C   0  0  0  0  0  0  0  0  0  0  0  0
   12.7629  -12.8106  -13.2500 C   0  0  0  0  0  0  0  0  0  0  0  0
    8.0616   -8.6342  -10.8173 C   0  0  0  0  0  0  0  0  0  0  0  0
    7.4881  -10.0261  -11.1431 C   0  0  0  0  0  0  0  0  0  0  0  0
    6.0721  -11.7294  -10.1752 C   0  0  0  0  0  0  0  0  0  0  0  0
  1 23  1  0  0  0  0
  1 24  1  0  0  0  0
  1  2  1  0  0  0  0
  3  4  1  0  0  0  0
  3 17  1  0  0  0  0
  4  6  2  0  0  0  0
  4 13  1  0  0  0  0
  5 10  1  0  0  0  0
  5 14  2  0  0  0  0
  6  8  1  0  0  0  0
  7 12  1  0  0  0  0
  7 14  1  0  0  0  0
  7 19  1  0  0  0  0
  8 10  2  0  0  0  0
  9 14  1  0  0  0  0
 10 12  1  0  0  0  0
 11 18  1  0  0  0  0
 11 20  1  0  0  0  0
 11 21  1  0  0  0  0
 12 13  2  0  0  0  0
 13 15  1  0  0  0  0
 15 16  1  0  0  0  0
 16 17  1  0  0  0  0
 16 18  1  1  0  0  0
 19 22  1  0  0  0  0
 22 23  1  0  0  0  0
M  END
>  <CHROM.1>
-87.78387939,93.74234782,147.87307660,160.18673084,-170.07862858,-174.95210752
10.54858907,-8.54793847,-11.81301739,1.01735945,-0.28409822,2.99027267

>  <Name>
ligand

>  <RI>
0

>  <Rbt.Current_Directory>
/home/itssahil/PROJECTS/Mol_Feturizer/New_Systems/rnas/3TZR

>  <Rbt.Executable>
rbdock ($Id: //depot/dev/client3/rdock/2013.1/src/exe/rbdock.cxx#4 $)

>  <Rbt.Library>
libRbt.so (2013.1, Build901 2013/11/27)

>  <Rbt.Parameter_File>
/export/apps/rDock/src/rDock_2013.1_src/data/scripts/dock_solv.prm

>  <Rbt.Receptor>
prm/pocket_docking_7.prm

>  <SCORE>
-35.1932

>  <SCORE.INTER>
-24.1493

>  <SCORE.INTER.CONST>
1

>  <SCORE.INTER.POLAR>
0

>  <SCORE.INTER.ROT>
6

>  <SCORE.INTER.SOLV>
20.3127

>  <SCORE.INTER.VDW>
-30.4704

>  <SCORE.INTER.norm>
-1.00622

>  <SCORE.INTRA>
-11.0439

>  <SCORE.INTRA.DIHEDRAL>
0.655925

>  <SCORE.INTRA.DIHEDRAL.0>
4.94008

>  <SCORE.INTRA.POLAR>
0

>  <SCORE.INTRA.POLAR.0>
0

>  <SCORE.INTRA.REPUL>
0

>  <SCORE.INTRA.REPUL.0>
0

>  <SCORE.INTRA.SOLV>
-0.0475857

>  <SCORE.INTRA.SOLV.lig_0>
-31.4704

>  <SCORE.INTRA.VDW>
-11.3481

>  <SCORE.INTRA.VDW.0>
10.2807

>  <SCORE.INTRA.norm>
-0.460164

>  <SCORE.RESTR>
0

>  <SCORE.RESTR.CAVITY>
0

>  <SCORE.RESTR.norm>
0

>  <SCORE.SYSTEM>
0

>  <SCORE.SYSTEM.CONST>
0

>  <SCORE.SYSTEM.DIHEDRAL>
0

>  <SCORE.SYSTEM.SOLV>
0

>  <SCORE.SYSTEM.norm>
0

>  <SCORE.heavy>
24

>  <SCORE.norm>
-1.46638

>  <RMSD>
0.897

$$$$
ligand
 OpenBabel11021811493D
libRbt.so/2013.1/901 2013/11/27
 24 26  0  0  0  0  0  0  0  0999 V2000
    7.2953  -10.9066   -9.5211 N   0  0  0  0  0  0  0  0  0  0  0  0
    8.2390  -11.4879   -8.5799 C   0  0  0  0  0  0  0  0  0  0  0  0
   13.2829   -6.0185  -13.0640 O   0  0  0  0  0  0  0  0  0  0  0  0
   11.9980   -5.5897  -12.7593 C   0  0  0  0  0  0  0  0  0  0  0  0
    7.9785   -4.4471  -11.8664 N   0  0  0  0  0  0  0  0  0  0  0  0
   11.6584   -4.1249  -12.6829 C   0  0  0  0  0  0  0  0  0  0  0  0
    8.3968   -6.6527  -11.9432 N   0  0  0  0  0  0  0  0  0  0  0  0
   10.3348   -3.6569  -12.3980 C   0  0  0  0  0  0  0  0  0  0  0  0
    6.0481   -5.9584  -11.4161 N   0  0  0  0  0  0  0  0  0  0  0  0
    9.3303   -4.6629  -12.1690 C   0  0  0  0  0  0  0  0  0  0  0  0
   12.9550  -10.7280  -12.5237 N   0  0  0  0  0  0  0  0  0  0  0  0
    9.6446   -6.0655  -12.2239 C   0  0  0  0  0  0  0  0  0  0  0  0
   11.0317   -6.5066  -12.5350 C   0  0  0  0  0  0  0  0  0  0  0  0
    7.4190   -5.6851  -11.7378 C   0  0  0  0  0  0  0  0  0  0  0  0
   11.3417   -7.9906  -12.5979 C   0  0  0  0  0  0  0  0  0  0  0  0
   12.8236   -8.3390  -12.6883 C   0  0  1  0  0  0  0  0  0  0  0  0
   13.7133   -7.1610  -12.4118 C   0  0  0  0  0  0  0  0  0  0  0  0
   13.1422   -9.5041  -11.7636 C   0  0  0  0  0  0  0  0  0  0  0  0
    8.1406   -8.1058  -11.9538 C   0  0  0  0  0  0  0  0  0  0  0  0
   14.2620  -11.3202  -12.7743 C   0  0  0  0  0  0  0  0  0  0  0  0
   12.1544  -11.6295  -11.7102 C   0  0  0  0  0  0  0  0  0  0  0  0
    7.6327   -8.6967  -10.6272 C   0  0  0  0  0  0  0  0  0  0  0  0
    8.0130  -10.1886  -10.5840 C   0  0  0  0  0  0  0  0  0  0  0  0
    6.4794  -11.9846  -10.0684 C   0  0  0  0  0  0  0  0  0  0  0  0
  1 23  1  0  0  0  0
  1 24  1  0  0  0  0
  1  2  1  0  0  0  0
  3  4  1  0  0  0  0
  3 17  1  0  0  0  0
  4  6  2  0  0  0  0
  4 13  1  0  0  0  0
  5 10  1  0  0  0  0
  5 14  2  0  0  0  0
  6  8  1  0  0  0  0
  7 12  1  0  0  0  0
  7 14  1  0  0  0  0
  7 19  1  0  0  0  0
  8 10  2  0  0  0  0
  9 14  1  0  0  0  0
 10 12  1  0  0  0  0
 11 18  1  0  0  0  0
 11 20  1  0  0  0  0
 11 21  1  0  0  0  0
 12 13  2  0  0  0  0
 13 15  1  0  0  0  0
 15 16  1  0  0  0  0
 16 17  1  0  0  0  0
 16 18  1  1  0  0  0
 19 22  1  0  0  0  0
 22 23  1  0  0  0  0
M  END
>  <CHROM.1>
-120.09280451,120.88003473,109.33998784,89.71640709,-154.80619284,-166.11972184
10.14832982,-7.95623872,-11.74271404,2.27358970,-0.30194130,2.89233303

>  <Name>
ligand

>  <RI>
0

>  <Rbt.Current_Directory>
/home/itssahil/PROJECTS/Mol_Feturizer/New_Systems/rnas/3TZR

>  <Rbt.Executable>
rbdock ($Id: //depot/dev/client3/rdock/2013.1/src/exe/rbdock.cxx#4 $)

>  <Rbt.Library>
libRbt.so (2013.1, Build901 2013/11/27)

>  <Rbt.Parameter_File>
/export/apps/rDock/src/rDock_2013.1_src/data/scripts/dock_solv.prm

>  <Rbt.Receptor>
prm/pocket_docking_5.prm

>  <SCORE>
-34.2393

>  <SCORE.INTER>
-25.5719

>  <SCORE.INTER.CONST>
1

>  <SCORE.INTER.POLAR>
0

>  <SCORE.INTER.ROT>
6

>  <SCORE.INTER.SOLV>
19.8985

>  <SCORE.INTER.VDW>
-31.2808

>  <SCORE.INTER.norm>
-1.0655

>  <SCORE.INTRA>
-8.66737

>  <SCORE.INTRA.DIHEDRAL>
6.19905

>  <SCORE.INTRA.DIHEDRAL.0>
4.94008

>  <SCORE.INTRA.POLAR>
0

>  <SCORE.INTRA.POLAR.0>
0

>  <SCORE.INTRA.REPUL>
0

>  <SCORE.INTRA.REPUL.0>
0

>  <SCORE.INTRA.SOLV>
0.428299

>  <SCORE.INTRA.SOLV.lig_0>
-31.4704

>  <SCORE.INTRA.VDW>
-11.981

>  <SCORE.INTRA.VDW.0>
10.2807

>  <SCORE.INTRA.norm>
-0.361141

>  <SCORE.RESTR>
0

>  <SCORE.RESTR.CAVITY>
0

>  <SCORE.RESTR.norm>
0

>  <SCORE.SYSTEM>
0

>  <SCORE.SYSTEM.CONST>
0

>  <SCORE.SYSTEM.DIHEDRAL>
0

>  <SCORE.SYSTEM.SOLV>
0

>  <SCORE.SYSTEM.norm>
0

>  <SCORE.heavy>
24

>  <SCORE.norm>
-1.42664

>  <RMSD>
0.899

$$$$
ligand
 OpenBabel11021811493D
libRbt.so/2013.1/901 2013/11/27
 24 26  0  0  0  0  0  0  0  0999 V2000
    7.4119  -10.8846   -9.5648 N   0  0  0  0  0  0  0  0  0  0  0  0
    8.3943  -11.6780   -8.8439 C   0  0  0  0  0  0  0  0  0  0  0  0
   13.2506   -5.9931  -12.9566 O   0  0  0  0  0  0  0  0  0  0  0  0
   11.9411   -5.5736  -12.7641 C   0  0  0  0  0  0  0  0  0  0  0  0
    7.8522   -4.4629  -12.2111 N   0  0  0  0  0  0  0  0  0  0  0  0
   11.5737   -4.1138  -12.7944 C   0  0  0  0  0  0  0  0  0  0  0  0
    8.3099   -6.6606  -12.1337 N   0  0  0  0  0  0  0  0  0  0  0  0
   10.2264   -3.6570  -12.6266 C   0  0  0  0  0  0  0  0  0  0  0  0
    5.9198   -5.9847  -11.8066 N   0  0  0  0  0  0  0  0  0  0  0  0
    9.2247   -4.6684  -12.4090 C   0  0  0  0  0  0  0  0  0  0  0  0
   12.4900  -10.6250  -11.9943 N   0  0  0  0  0  0  0  0  0  0  0  0
    9.5644   -6.0653  -12.3625 C   0  0  0  0  0  0  0  0  0  0  0  0
   10.9765   -6.4955  -12.5537 C   0  0  0  0  0  0  0  0  0  0  0  0
    7.3050   -5.7027  -12.0502 C   0  0  0  0  0  0  0  0  0  0  0  0
   11.3138   -7.9742  -12.5108 C   0  0  0  0  0  0  0  0  0  0  0  0
   12.8037   -8.2978  -12.4811 C   0  0  1  0  0  0  0  0  0  0  0  0
   13.6534   -7.0887  -12.2127 C   0  0  0  0  0  0  0  0  0  0  0  0
   13.0768   -9.4029  -11.4720 C   0  0  0  0  0  0  0  0  0  0  0  0
    8.0783   -8.1169  -12.0787 C   0  0  0  0  0  0  0  0  0  0  0  0
   13.4704  -11.2788  -12.8504 C   0  0  0  0  0  0  0  0  0  0  0  0
   12.1798  -11.4803  -10.8595 C   0  0  0  0  0  0  0  0  0  0  0  0
    7.7603   -8.6829  -10.6839 C   0  0  0  0  0  0  0  0  0  0  0  0
    8.0457  -10.1964  -10.6984 C   0  0  0  0  0  0  0  0  0  0  0  0
    6.3502  -11.7778  -10.0146 C   0  0  0  0  0  0  0  0  0  0  0  0
  1 23  1  0  0  0  0
  1 24  1  0  0  0  0
  1  2  1  0  0  0  0
  3  4  1  0  0  0  0
  3 17  1  0  0  0  0
  4  6  2  0  0  0  0
  4 13  1  0  0  0  0
  5 10  1  0  0  0  0
  5 14  2  0  0  0  0
  6  8  1  0  0  0  0
  7 12  1  0  0  0  0
  7 14  1  0  0  0  0
  7 19  1  0  0  0  0
  8 10  2  0  0  0  0
  9 14  1  0  0  0  0
 10 12  1  0  0  0  0
 11 18  1  0  0  0  0
 11 20  1  0  0  0  0
 11 21  1  0  0  0  0
 12 13  2  0  0  0  0
 13 15  1  0  0  0  0
 15 16  1  0  0  0  0
 16 17  1  0  0  0  0
 16 18  1  1  0  0  0
 19 22  1  0  0  0  0
 22 23  1  0  0  0  0
M  END
>  <CHROM.1>
-127.30419423,109.19871112,87.58865852,68.66669301,-159.93084517,-163.22691741
10.05791090,-7.93215988,-11.74874164,1.92718049,-0.23110994,2.83904142

>  <Name>
ligand

>  <RI>
0

>  <Rbt.Current_Directory>
/home/itssahil/PROJECTS/Mol_Feturizer/New_Systems/rnas/3TZR

>  <Rbt.Executable>
rbdock ($Id: //depot/dev/client3/rdock/2013.1/src/exe/rbdock.cxx#4 $)

>  <Rbt.Library>
libRbt.so (2013.1, Build901 2013/11/27)

>  <Rbt.Parameter_File>
/export/apps/rDock/src/rDock_2013.1_src/data/scripts/dock_solv.prm

>  <Rbt.Receptor>
prm/blind_docking_80.prm

>  <SCORE>
-36.4626

>  <SCORE.INTER>
-26.1176

>  <SCORE.INTER.CONST>
1

>  <SCORE.INTER.POLAR>
0

>  <SCORE.INTER.ROT>
6

>  <SCORE.INTER.SOLV>
20.294

>  <SCORE.INTER.VDW>
-31.7764

>  <SCORE.INTER.norm>
-1.08823

>  <SCORE.INTRA>
-10.345

>  <SCORE.INTRA.DIHEDRAL>
2.37271

>  <SCORE.INTRA.DIHEDRAL.0>
4.94008

>  <SCORE.INTRA.POLAR>
0

>  <SCORE.INTRA.POLAR.0>
0

>  <SCORE.INTRA.REPUL>
0

>  <SCORE.INTRA.REPUL.0>
0

>  <SCORE.INTRA.SOLV>
0.23606

>  <SCORE.INTRA.SOLV.lig_0>
-31.4704

>  <SCORE.INTRA.VDW>
-11.6494

>  <SCORE.INTRA.VDW.0>
10.2807

>  <SCORE.INTRA.norm>
-0.431043

>  <SCORE.RESTR>
0

>  <SCORE.RESTR.CAVITY>
0

>  <SCORE.RESTR.norm>
0

>  <SCORE.SYSTEM>
0

>  <SCORE.SYSTEM.CONST>
0

>  <SCORE.SYSTEM.DIHEDRAL>
0

>  <SCORE.SYSTEM.SOLV>
0

>  <SCORE.SYSTEM.norm>
0

>  <SCORE.heavy>
24

>  <SCORE.norm>
-1.51928

>  <RMSD>
0.900

$$$$
ligand
 OpenBabel11021811493D
libRbt.so/2013.1/901 2013/11/27
 24 26  0  0  0  0  0  0  0  0999 V2000
    6.3776  -10.8516  -10.1564 N   0  0  0  0  0  0  0  0  0  0  0  0
    7.2985  -11.8233   -9.5890 C   0  0  0  0  0  0  0  0  0  0  0  0
   13.1912   -5.8838  -12.6946 O   0  0  0  0  0  0  0  0  0  0  0  0
   11.8724   -5.4824  -12.5285 C   0  0  0  0  0  0  0  0  0  0  0  0
    7.7578   -4.4235  -12.0734 N   0  0  0  0  0  0  0  0  0  0  0  0
   11.5001   -4.0252  -12.4583 C   0  0  0  0  0  0  0  0  0  0  0  0
    8.2216   -6.6199  -12.1518 N   0  0  0  0  0  0  0  0  0  0  0  0
   10.1445   -3.5846  -12.3154 C   0  0  0  0  0  0  0  0  0  0  0  0
    5.8162   -5.9746  -11.8799 N   0  0  0  0  0  0  0  0  0  0  0  0
    9.1388   -4.6111  -12.2250 C   0  0  0  0  0  0  0  0  0  0  0  0
   12.4931  -10.5931  -12.1814 N   0  0  0  0  0  0  0  0  0  0  0  0
    9.4824   -6.0070  -12.2753 C   0  0  0  0  0  0  0  0  0  0  0  0
   10.9036   -6.4191  -12.4364 C   0  0  0  0  0  0  0  0  0  0  0  0
    7.2096   -5.6727  -12.0373 C   0  0  0  0  0  0  0  0  0  0  0  0
   11.2454   -7.8962  -12.4970 C   0  0  0  0  0  0  0  0  0  0  0  0
   12.7339   -8.2196  -12.4260 C   0  0  1  0  0  0  0  0  0  0  0  0
   13.5652   -7.0352  -12.0235 C   0  0  0  0  0  0  0  0  0  0  0  0
   12.9664   -9.4019  -11.4975 C   0  0  0  0  0  0  0  0  0  0  0  0
    7.9944   -8.0761  -12.2242 C   0  0  0  0  0  0  0  0  0  0  0  0
   13.5504  -11.0708  -13.0621 C   0  0  0  0  0  0  0  0  0  0  0  0
   12.2081  -11.5954  -11.1666 C   0  0  0  0  0  0  0  0  0  0  0  0
    7.3522   -8.7072  -10.9768 C   0  0  0  0  0  0  0  0  0  0  0  0
    6.9978  -10.1705  -11.3018 C   0  0  0  0  0  0  0  0  0  0  0  0
    5.1639  -11.5562  -10.5537 C   0  0  0  0  0  0  0  0  0  0  0  0
  1 23  1  0  0  0  0
  1 24  1  0  0  0  0
  1  2  1  0  0  0  0
  3  4  1  0  0  0  0
  3 17  1  0  0  0  0
  4  6  2  0  0  0  0
  4 13  1  0  0  0  0
  5 10  1  0  0  0  0
  5 14  2  0  0  0  0
  6  8  1  0  0  0  0
  7 12  1  0  0  0  0
  7 14  1  0  0  0  0
  7 19  1  0  0  0  0
  8 10  2  0  0  0  0
  9 14  1  0  0  0  0
 10 12  1  0  0  0  0
 11 18  1  0  0  0  0
 11 20  1  0  0  0  0
 11 21  1  0  0  0  0
 12 13  2  0  0  0  0
 13 15  1  0  0  0  0
 15 16  1  0  0  0  0
 16 17  1  0  0  0  0
 16 18  1  1  0  0  0
 19 22  1  0  0  0  0
 22 23  1  0  0  0  0
M  END
>  <CHROM.1>
-108.59460591,120.78144137,83.75914167,72.54442450,171.66677024,179.92672498
9.79809091,-7.88441215,-11.83777387,-2.53814303,0.17262551,-0.18909955

>  <Name>
ligand

>  <RI>
0

>  <Rbt.Current_Directory>
/home/itssahil/PROJECTS/Mol_Feturizer/New_Systems/rnas/3TZR

>  <Rbt.Executable>
rbdock ($Id: //depot/dev/client3/rdock/2013.1/src/exe/rbdock.cxx#4 $)

>  <Rbt.Library>
libRbt.so (2013.1, Build901 2013/11/27)

>  <Rbt.Parameter_File>
/export/apps/rDock/src/rDock_2013.1_src/data/scripts/dock_solv.prm

>  <Rbt.Receptor>
prm/blind_docking_80.prm

>  <SCORE>
-36.3236

>  <SCORE.INTER>
-25.6837

>  <SCORE.INTER.CONST>
1

>  <SCORE.INTER.POLAR>
0

>  <SCORE.INTER.ROT>
6

>  <SCORE.INTER.SOLV>
20.8474

>  <SCORE.INTER.VDW>
-31.6716

>  <SCORE.INTER.norm>
-1.07015

>  <SCORE.INTRA>
-10.6399

>  <SCORE.INTRA.DIHEDRAL>
0.0839184

>  <SCORE.INTRA.DIHEDRAL.0>
4.94008

>  <SCORE.INTRA.POLAR>
0

>  <SCORE.INTRA.POLAR.0>
0

>  <SCORE.INTRA.REPUL>
0

>  <SCORE.INTRA.REPUL.0>
0

>  <SCORE.INTRA.SOLV>
0.746642

>  <SCORE.INTRA.SOLV.lig_0>
-31.4704

>  <SCORE.INTRA.VDW>
-11.0552

>  <SCORE.INTRA.VDW.0>
10.2807

>  <SCORE.INTRA.norm>
-0.443331

>  <SCORE.RESTR>
0

>  <SCORE.RESTR.CAVITY>
0

>  <SCORE.RESTR.norm>
0

>  <SCORE.SYSTEM>
0

>  <SCORE.SYSTEM.CONST>
0

>  <SCORE.SYSTEM.DIHEDRAL>
0

>  <SCORE.SYSTEM.SOLV>
0

>  <SCORE.SYSTEM.norm>
0

>  <SCORE.heavy>
24

>  <SCORE.norm>
-1.51349

>  <RMSD>
0.903

$$$$
ligand
 OpenBabel11021811493D
libRbt.so/2013.1/901 2013/11/27
 24 26  0  0  0  0  0  0  0  0999 V2000
    7.2182  -10.7372  -10.7547 N   0  0  0  0  0  0  0  0  0  0  0  0
    5.7729  -10.5916  -10.8190 C   0  0  0  0  0  0  0  0  0  0  0  0
   13.4934   -6.9762  -12.9549 O   0  0  0  0  0  0  0  0  0  0  0  0
   12.2940   -6.3134  -12.7314 C   0  0  0  0  0  0  0  0  0  0  0  0
    8.5110   -4.4434  -12.0604 N   0  0  0  0  0  0  0  0  0  0  0  0
   12.1825   -4.8205  -12.8909 C   0  0  0  0  0  0  0  0  0  0  0  0
    8.5877   -6.6711  -11.7831 N   0  0  0  0  0  0  0  0  0  0  0  0
   10.9506   -4.1166  -12.6935 C   0  0  0  0  0  0  0  0  0  0  0  0
    6.3812   -5.5514  -11.3899 N   0  0  0  0  0  0  0  0  0  0  0  0
    9.8088   -4.9083  -12.3151 C   0  0  0  0  0  0  0  0  0  0  0  0
   12.2619  -11.3880  -11.6038 N   0  0  0  0  0  0  0  0  0  0  0  0
    9.9052   -6.3332  -12.1443 C   0  0  0  0  0  0  0  0  0  0  0  0
   11.2036   -7.0248  -12.3714 C   0  0  0  0  0  0  0  0  0  0  0  0
    7.7721   -5.5453  -11.7410 C   0  0  0  0  0  0  0  0  0  0  0  0
   11.2832   -8.5298  -12.1957 C   0  0  0  0  0  0  0  0  0  0  0  0
   12.6931   -9.1105  -12.2190 C   0  0  1  0  0  0  0  0  0  0  0  0
   13.7562   -8.0535  -12.1264 C   0  0  0  0  0  0  0  0  0  0  0  0
   12.8466  -10.1497  -11.1187 C   0  0  0  0  0  0  0  0  0  0  0  0
    8.1133   -8.0512  -11.5647 C   0  0  0  0  0  0  0  0  0  0  0  0
   13.3155  -12.1887  -12.2127 C   0  0  0  0  0  0  0  0  0  0  0  0
   11.7116  -12.0907  -10.4554 C   0  0  0  0  0  0  0  0  0  0  0  0
    7.4803   -8.3222  -10.1890 C   0  0  0  0  0  0  0  0  0  0  0  0
    7.7844   -9.7795   -9.7941 C   0  0  0  0  0  0  0  0  0  0  0  0
    7.5182  -12.1119  -10.3705 C   0  0  0  0  0  0  0  0  0  0  0  0
  1 23  1  0  0  0  0
  1 24  1  0  0  0  0
  1  2  1  0  0  0  0
  3  4  1  0  0  0  0
  3 17  1  0  0  0  0
  4  6  2  0  0  0  0
  4 13  1  0  0  0  0
  5 10  1  0  0  0  0
  5 14  2  0  0  0  0
  6  8  1  0  0  0  0
  7 12  1  0  0  0  0
  7 14  1  0  0  0  0
  7 19  1  0  0  0  0
  8 10  2  0  0  0  0
  9 14  1  0  0  0  0
 10 12  1  0  0  0  0
 11 18  1  0  0  0  0
 11 20  1  0  0  0  0
 11 21  1  0  0  0  0
 12 13  2  0  0  0  0
 13 15  1  0  0  0  0
 15 16  1  0  0  0  0
 16 17  1  0  0  0  0
 16 18  1  1  0  0  0
 19 22  1  0  0  0  0
 22 23  1  0  0  0  0
M  END
>  <CHROM.1>
-60.27184781,123.80377261,93.23695197,80.67364125,-147.66345161,-60.88933503
10.10455482,-8.21837936,-11.65337379,1.41848672,-0.22209486,2.91892352

>  <Name>
ligand

>  <RI>
144

>  <Rbt.Current_Directory>
/home/itssahil/PROJECTS/Mol_Feturizer/New_Systems/rnas/3TZR

>  <Rbt.Executable>
rbdock ($Id: //depot/dev/client3/rdock/2013.1/src/exe/rbdock.cxx#4 $)

>  <Rbt.Library>
libRbt.so (2013.1, Build901 2013/11/27)

>  <Rbt.Parameter_File>
/export/apps/rDock/src/rDock_2013.1_src/data/scripts/dock_solv.prm

>  <Rbt.Receptor>
prm/pocket_docking_8.prm

>  <SCORE>
-30.1722

>  <SCORE.INTER>
-22.2098

>  <SCORE.INTER.CONST>
1

>  <SCORE.INTER.POLAR>
0

>  <SCORE.INTER.ROT>
6

>  <SCORE.INTER.SOLV>
19.7971

>  <SCORE.INTER.VDW>
-29.0056

>  <SCORE.INTER.norm>
-0.92541

>  <SCORE.INTRA>
-7.96236

>  <SCORE.INTRA.DIHEDRAL>
2.11515

>  <SCORE.INTRA.DIHEDRAL.0>
4.94008

>  <SCORE.INTRA.POLAR>
0

>  <SCORE.INTRA.POLAR.0>
0

>  <SCORE.INTRA.REPUL>
0

>  <SCORE.INTRA.REPUL.0>
0

>  <SCORE.INTRA.SOLV>
0.676644

>  <SCORE.INTRA.SOLV.lig_0>
-31.4704

>  <SCORE.INTRA.VDW>
-9.35826

>  <SCORE.INTRA.VDW.0>
10.2807

>  <SCORE.INTRA.norm>
-0.331765

>  <SCORE.RESTR>
0

>  <SCORE.RESTR.CAVITY>
0

>  <SCORE.RESTR.norm>
0

>  <SCORE.SYSTEM>
0

>  <SCORE.SYSTEM.CONST>
0

>  <SCORE.SYSTEM.DIHEDRAL>
0

>  <SCORE.SYSTEM.SOLV>
0

>  <SCORE.SYSTEM.norm>
0

>  <SCORE.heavy>
24

>  <SCORE.norm>
-1.25718

>  <RMSD>
0.905

$$$$
ligand
 OpenBabel11021811493D
libRbt.so/2013.1/901 2013/11/27
 24 26  0  0  0  0  0  0  0  0999 V2000
    6.3216  -10.8764  -10.1800 N   0  0  0  0  0  0  0  0  0  0  0  0
    7.0063  -12.0438   -9.6483 C   0  0  0  0  0  0  0  0  0  0  0  0
   13.1953   -5.9483  -12.7520 O   0  0  0  0  0  0  0  0  0  0  0  0
   11.8785   -5.5432  -12.5797 C   0  0  0  0  0  0  0  0  0  0  0  0
    7.7690   -4.4735  -12.1036 N   0  0  0  0  0  0  0  0  0  0  0  0
   11.5091   -4.0849  -12.5191 C   0  0  0  0  0  0  0  0  0  0  0  0
    8.2287   -6.6713  -12.1669 N   0  0  0  0  0  0  0  0  0  0  0  0
   10.1554   -3.6407  -12.3700 C   0  0  0  0  0  0  0  0  0  0  0  0
    5.8264   -6.0197  -11.8828 N   0  0  0  0  0  0  0  0  0  0  0  0
    9.1486   -4.6648  -12.2637 C   0  0  0  0  0  0  0  0  0  0  0  0
   12.5974  -10.6647  -12.2363 N   0  0  0  0  0  0  0  0  0  0  0  0
    9.4895   -6.0616  -12.3047 C   0  0  0  0  0  0  0  0  0  0  0  0
   10.9089   -6.4775  -12.4726 C   0  0  0  0  0  0  0  0  0  0  0  0
    7.2191   -5.7214  -12.0529 C   0  0  0  0  0  0  0  0  0  0  0  0
   11.2477   -7.9556  -12.5233 C   0  0  0  0  0  0  0  0  0  0  0  0
   12.7362   -8.2810  -12.4604 C   0  0  1  0  0  0  0  0  0  0  0  0
   13.5724   -7.0946  -12.0740 C   0  0  0  0  0  0  0  0  0  0  0  0
   12.9736   -9.4558  -11.5237 C   0  0  0  0  0  0  0  0  0  0  0  0
    7.9985   -8.1276  -12.2253 C   0  0  0  0  0  0  0  0  0  0  0  0
   13.7296  -11.0947  -13.0456 C   0  0  0  0  0  0  0  0  0  0  0  0
   12.2898  -11.6804  -11.2418 C   0  0  0  0  0  0  0  0  0  0  0  0
    7.3305   -8.7412  -10.9827 C   0  0  0  0  0  0  0  0  0  0  0  0
    7.1305  -10.2476  -11.2339 C   0  0  0  0  0  0  0  0  0  0  0  0
    5.0256  -11.3060  -10.6930 C   0  0  0  0  0  0  0  0  0  0  0  0
  1 23  1  0  0  0  0
  1 24  1  0  0  0  0
  1  2  1  0  0  0  0
  3  4  1  0  0  0  0
  3 17  1  0  0  0  0
  4  6  2  0  0  0  0
  4 13  1  0  0  0  0
  5 10  1  0  0  0  0
  5 14  2  0  0  0  0
  6  8  1  0  0  0  0
  7 12  1  0  0  0  0
  7 14  1  0  0  0  0
  7 19  1  0  0  0  0
  8 10  2  0  0  0  0
  9 14  1  0  0  0  0
 10 12  1  0  0  0  0
 11 18  1  0  0  0  0
 11 20  1  0  0  0  0
 11 21  1  0  0  0  0
 12 13  2  0  0  0  0
 13 15  1  0  0  0  0
 15 16  1  0  0  0  0
 16 17  1  0  0  0  0
 16 18  1  1  0  0  0
 19 22  1  0  0  0  0
 22 23  1  0  0  0  0
M  END
>  <CHROM.1>
-127.94854794,122.32973953,84.42178660,77.22330409,178.31248466,-171.64577890
9.80165216,-7.93279066,-11.87151325,-2.61776556,0.17508171,-0.18916830

>  <Name>
ligand

>  <RI>
0

>  <Rbt.Current_Directory>
/home/itssahil/PROJECTS/Mol_Feturizer/New_Systems/rnas/3TZR

>  <Rbt.Executable>
rbdock ($Id: //depot/dev/client3/rdock/2013.1/src/exe/rbdock.cxx#4 $)

>  <Rbt.Library>
libRbt.so (2013.1, Build901 2013/11/27)

>  <Rbt.Parameter_File>
/export/apps/rDock/src/rDock_2013.1_src/data/scripts/dock_solv.prm

>  <Rbt.Receptor>
prm/pocket_docking_6.prm

>  <SCORE>
-36.0094

>  <SCORE.INTER>
-25.5833

>  <SCORE.INTER.CONST>
1

>  <SCORE.INTER.POLAR>
0

>  <SCORE.INTER.ROT>
6

>  <SCORE.INTER.SOLV>
20.7888

>  <SCORE.INTER.VDW>
-31.5851

>  <SCORE.INTER.norm>
-1.06597

>  <SCORE.INTRA>
-10.426

>  <SCORE.INTRA.DIHEDRAL>
0.665175

>  <SCORE.INTRA.DIHEDRAL.0>
4.94008

>  <SCORE.INTRA.POLAR>
0

>  <SCORE.INTRA.POLAR.0>
0

>  <SCORE.INTRA.REPUL>
0

>  <SCORE.INTRA.REPUL.0>
0

>  <SCORE.INTRA.SOLV>
0.695233

>  <SCORE.INTRA.SOLV.lig_0>
-31.4704

>  <SCORE.INTRA.VDW>
-11.1062

>  <SCORE.INTRA.VDW.0>
10.2807

>  <SCORE.INTRA.norm>
-0.434418

>  <SCORE.RESTR>
0

>  <SCORE.RESTR.CAVITY>
0

>  <SCORE.RESTR.norm>
0

>  <SCORE.SYSTEM>
0

>  <SCORE.SYSTEM.CONST>
0

>  <SCORE.SYSTEM.DIHEDRAL>
0

>  <SCORE.SYSTEM.SOLV>
0

>  <SCORE.SYSTEM.norm>
0

>  <SCORE.heavy>
24

>  <SCORE.norm>
-1.50039

>  <RMSD>
0.906

$$$$
ligand
 OpenBabel11021811493D
libRbt.so/2013.1/901 2013/11/27
 24 26  0  0  0  0  0  0  0  0999 V2000
    8.1220  -11.5062   -9.8527 N   0  0  0  0  0  0  0  0  0  0  0  0
    7.3706  -12.7205  -10.1268 C   0  0  0  0  0  0  0  0  0  0  0  0
   13.5015   -7.1003  -13.1966 O   0  0  0  0  0  0  0  0  0  0  0  0
   12.3386   -6.4652  -12.7816 C   0  0  0  0  0  0  0  0  0  0  0  0
    8.6606   -4.6687  -11.5555 N   0  0  0  0  0  0  0  0  0  0  0  0
   12.2849   -4.9719  -12.5967 C   0  0  0  0  0  0  0  0  0  0  0  0
    8.6523   -6.9027  -11.7897 N   0  0  0  0  0  0  0  0  0  0  0  0
   11.0905   -4.2897  -12.1966 C   0  0  0  0  0  0  0  0  0  0  0  0
    6.5084   -5.8271  -11.0663 N   0  0  0  0  0  0  0  0  0  0  0  0
    9.9290   -5.1075  -11.9603 C   0  0  0  0  0  0  0  0  0  0  0  0
   13.4108  -11.5870  -12.9368 N   0  0  0  0  0  0  0  0  0  0  0  0
    9.9708   -6.5366  -12.1184 C   0  0  0  0  0  0  0  0  0  0  0  0
   11.2312   -7.2022  -12.5473 C   0  0  0  0  0  0  0  0  0  0  0  0
    7.8864   -5.7887  -11.4627 C   0  0  0  0  0  0  0  0  0  0  0  0
   11.2530   -8.7097  -12.7180 C   0  0  0  0  0  0  0  0  0  0  0  0
   12.6358   -9.3175  -12.9280 C   0  0  1  0  0  0  0  0  0  0  0  0
   13.7447   -8.3454  -12.6429 C   0  0  0  0  0  0  0  0  0  0  0  0
   12.7802  -10.5833  -12.0967 C   0  0  0  0  0  0  0  0  0  0  0  0
    8.1275   -8.2795  -11.8685 C   0  0  0  0  0  0  0  0  0  0  0  0
   14.8077  -11.7080  -12.5421 C   0  0  0  0  0  0  0  0  0  0  0  0
   12.7228  -12.8470  -12.7033 C   0  0  0  0  0  0  0  0  0  0  0  0
    8.6015   -9.2317  -10.7570 C   0  0  0  0  0  0  0  0  0  0  0  0
    7.5910  -10.3887  -10.6462 C   0  0  0  0  0  0  0  0  0  0  0  0
    8.0312  -11.2303   -8.4234 C   0  0  0  0  0  0  0  0  0  0  0  0
  1 23  1  0  0  0  0
  1 24  1  0  0  0  0
  1  2  1  0  0  0  0
  3  4  1  0  0  0  0
  3 17  1  0  0  0  0
  4  6  2  0  0  0  0
  4 13  1  0  0  0  0
  5 10  1  0  0  0  0
  5 14  2  0  0  0  0
  6  8  1  0  0  0  0
  7 12  1  0  0  0  0
  7 14  1  0  0  0  0
  7 19  1  0  0  0  0
  8 10  2  0  0  0  0
  9 14  1  0  0  0  0
 10 12  1  0  0  0  0
 11 18  1  0  0  0  0
 11 20  1  0  0  0  0
 11 21  1  0  0  0  0
 12 13  2  0  0  0  0
 13 15  1  0  0  0  0
 15 16  1  0  0  0  0
 16 17  1  0  0  0  0
 16 18  1  1  0  0  0
 19 22  1  0  0  0  0
 22 23  1  0  0  0  0
M  END
>  <CHROM.1>
-161.14045528,74.38148683,103.62635205,136.09343727,158.09525604,166.00182780
10.47523272,-8.53665687,-11.78916320,0.88055863,-0.38579275,2.96457475

>  <Name>
ligand

>  <RI>
0

>  <Rbt.Current_Directory>
/home/itssahil/PROJECTS/Mol_Feturizer/New_Systems/rnas/3TZR

>  <Rbt.Executable>
rbdock ($Id: //depot/dev/client3/rdock/2013.1/src/exe/rbdock.cxx#4 $)

>  <Rbt.Library>
libRbt.so (2013.1, Build901 2013/11/27)

>  <Rbt.Parameter_File>
/export/apps/rDock/src/rDock_2013.1_src/data/scripts/dock_solv.prm

>  <Rbt.Receptor>
prm/blind_docking_80.prm

>  <SCORE>
-32.6871

>  <SCORE.INTER>
-24.1039

>  <SCORE.INTER.CONST>
1

>  <SCORE.INTER.POLAR>
0

>  <SCORE.INTER.ROT>
6

>  <SCORE.INTER.SOLV>
19.9173

>  <SCORE.INTER.VDW>
-30.3084

>  <SCORE.INTER.norm>
-1.00433

>  <SCORE.INTRA>
-8.58326

>  <SCORE.INTRA.DIHEDRAL>
5.53581

>  <SCORE.INTRA.DIHEDRAL.0>
4.94008

>  <SCORE.INTRA.POLAR>
0

>  <SCORE.INTRA.POLAR.0>
0

>  <SCORE.INTRA.REPUL>
0

>  <SCORE.INTRA.REPUL.0>
0

>  <SCORE.INTRA.SOLV>
-0.414352

>  <SCORE.INTRA.SOLV.lig_0>
-31.4704

>  <SCORE.INTRA.VDW>
-11.144

>  <SCORE.INTRA.VDW.0>
10.2807

>  <SCORE.INTRA.norm>
-0.357636

>  <SCORE.RESTR>
0

>  <SCORE.RESTR.CAVITY>
0

>  <SCORE.RESTR.norm>
0

>  <SCORE.SYSTEM>
0

>  <SCORE.SYSTEM.CONST>
0

>  <SCORE.SYSTEM.DIHEDRAL>
0

>  <SCORE.SYSTEM.SOLV>
0

>  <SCORE.SYSTEM.norm>
0

>  <SCORE.heavy>
24

>  <SCORE.norm>
-1.36196

>  <RMSD>
0.907

$$$$
ligand
 OpenBabel11021811493D
libRbt.so/2013.1/901 2013/11/27
 24 26  0  0  0  0  0  0  0  0999 V2000
    6.7413  -10.9120   -9.9869 N   0  0  0  0  0  0  0  0  0  0  0  0
    7.9069  -11.5160   -9.3617 C   0  0  0  0  0  0  0  0  0  0  0  0
   13.1423   -5.8073  -12.8100 O   0  0  0  0  0  0  0  0  0  0  0  0
   11.8176   -5.4299  -12.6355 C   0  0  0  0  0  0  0  0  0  0  0  0
    7.6874   -4.4474  -12.1506 N   0  0  0  0  0  0  0  0  0  0  0  0
   11.4161   -3.9797  -12.5859 C   0  0  0  0  0  0  0  0  0  0  0  0
    8.1955   -6.6349  -12.1967 N   0  0  0  0  0  0  0  0  0  0  0  0
   10.0535   -3.5643  -12.4347 C   0  0  0  0  0  0  0  0  0  0  0  0
    5.7805   -6.0342  -11.9078 N   0  0  0  0  0  0  0  0  0  0  0  0
    9.0702   -4.6094  -12.3151 C   0  0  0  0  0  0  0  0  0  0  0  0
   12.5563  -10.5214  -12.2121 N   0  0  0  0  0  0  0  0  0  0  0  0
    9.4419   -5.9987  -12.3454 C   0  0  0  0  0  0  0  0  0  0  0  0
   10.8694   -6.3845  -12.5160 C   0  0  0  0  0  0  0  0  0  0  0  0
    7.1656   -5.7067  -12.0867 C   0  0  0  0  0  0  0  0  0  0  0  0
   11.2407   -7.8551  -12.5553 C   0  0  0  0  0  0  0  0  0  0  0  0
   12.7363   -8.1469  -12.4962 C   0  0  1  0  0  0  0  0  0  0  0  0
   13.5476   -6.9390  -12.1237 C   0  0  0  0  0  0  0  0  0  0  0  0
   13.0036   -9.3079  -11.5503 C   0  0  0  0  0  0  0  0  0  0  0  0
    7.9974   -8.0965  -12.2415 C   0  0  0  0  0  0  0  0  0  0  0  0
   13.6530  -11.0381  -13.0195 C   0  0  0  0  0  0  0  0  0  0  0  0
   12.2128  -11.4828  -11.1762 C   0  0  0  0  0  0  0  0  0  0  0  0
    7.5379   -8.7415  -10.9226 C   0  0  0  0  0  0  0  0  0  0  0  0
    7.1322  -10.1990  -11.2114 C   0  0  0  0  0  0  0  0  0  0  0  0
    5.7817  -11.9720  -10.2753 C   0  0  0  0  0  0  0  0  0  0  0  0
  1 23  1  0  0  0  0
  1 24  1  0  0  0  0
  1  2  1  0  0  0  0
  3  4  1  0  0  0  0
  3 17  1  0  0  0  0
  4  6  2  0  0  0  0
  4 13  1  0  0  0  0
  5 10  1  0  0  0  0
  5 14  2  0  0  0  0
  6  8  1  0  0  0  0
  7 12  1  0  0  0  0
  7 14  1  0  0  0  0
  7 19  1  0  0  0  0
  8 10  2  0  0  0  0
  9 14  1  0  0  0  0
 10 12  1  0  0  0  0
 11 18  1  0  0  0  0
 11 20  1  0  0  0  0
 11 21  1  0  0  0  0
 12 13  2  0  0  0  0
 13 15  1  0  0  0  0
 15 16  1  0  0  0  0
 16 17  1  0  0  0  0
 16 18  1  1  0  0  0
 19 22  1  0  0  0  0
 22 23  1  0  0  0  0
M  END
>  <CHROM.1>
-88.16045119,113.93834548,87.67083829,72.95885411,169.61836824,177.17048101
9.86881804,-7.86876152,-11.84914263,-2.35469541,0.19024769,-0.22791232

>  <Name>
ligand

>  <RI>
0

>  <Rbt.Current_Directory>
/home/itssahil/PROJECTS/Mol_Feturizer/New_Systems/rnas/3TZR

>  <Rbt.Executable>
rbdock ($Id: //depot/dev/client3/rdock/2013.1/src/exe/rbdock.cxx#4 $)

>  <Rbt.Library>
libRbt.so (2013.1, Build901 2013/11/27)

>  <Rbt.Parameter_File>
/export/apps/rDock/src/rDock_2013.1_src/data/scripts/dock_solv.prm

>  <Rbt.Receptor>
prm/pocket_docking_6.prm

>  <SCORE>
-36.8768

>  <SCORE.INTER>
-25.8739

>  <SCORE.INTER.CONST>
1

>  <SCORE.INTER.POLAR>
0

>  <SCORE.INTER.ROT>
6

>  <SCORE.INTER.SOLV>
20.7132

>  <SCORE.INTER.VDW>
-31.7537

>  <SCORE.INTER.norm>
-1.07808

>  <SCORE.INTRA>
-11.0028

>  <SCORE.INTRA.DIHEDRAL>
-0.538582

>  <SCORE.INTRA.DIHEDRAL.0>
4.94008

>  <SCORE.INTRA.POLAR>
0

>  <SCORE.INTRA.POLAR.0>
0

>  <SCORE.INTRA.REPUL>
0

>  <SCORE.INTRA.REPUL.0>
0

>  <SCORE.INTRA.SOLV>
0.576882

>  <SCORE.INTRA.SOLV.lig_0>
-31.4704

>  <SCORE.INTRA.VDW>
-11.022

>  <SCORE.INTRA.VDW.0>
10.2807

>  <SCORE.INTRA.norm>
-0.458451

>  <SCORE.RESTR>
0

>  <SCORE.RESTR.CAVITY>
0

>  <SCORE.RESTR.norm>
0

>  <SCORE.SYSTEM>
0

>  <SCORE.SYSTEM.CONST>
0

>  <SCORE.SYSTEM.DIHEDRAL>
0

>  <SCORE.SYSTEM.SOLV>
0

>  <SCORE.SYSTEM.norm>
0

>  <SCORE.heavy>
24

>  <SCORE.norm>
-1.53653

>  <RMSD>
0.910

$$$$
ligand
 OpenBabel11021811493D
libRbt.so/2013.1/901 2013/11/27
 24 26  0  0  0  0  0  0  0  0999 V2000
    7.4363  -10.8718   -9.5872 N   0  0  0  0  0  0  0  0  0  0  0  0
    8.3942  -11.7427   -8.9253 C   0  0  0  0  0  0  0  0  0  0  0  0
   13.2064   -5.9761  -12.8993 O   0  0  0  0  0  0  0  0  0  0  0  0
   11.8919   -5.5596  -12.7365 C   0  0  0  0  0  0  0  0  0  0  0  0
    7.7891   -4.4582  -12.2756 N   0  0  0  0  0  0  0  0  0  0  0  0
   11.5215   -4.1008  -12.7786 C   0  0  0  0  0  0  0  0  0  0  0  0
    8.2507   -6.6545  -12.1826 N   0  0  0  0  0  0  0  0  0  0  0  0
   10.1697   -3.6471  -12.6413 C   0  0  0  0  0  0  0  0  0  0  0  0
    5.8523   -5.9841  -11.9094 N   0  0  0  0  0  0  0  0  0  0  0  0
    9.1662   -4.6606  -12.4430 C   0  0  0  0  0  0  0  0  0  0  0  0
   12.4771  -10.6168  -11.9620 N   0  0  0  0  0  0  0  0  0  0  0  0
    9.5083   -6.0565  -12.3855 C   0  0  0  0  0  0  0  0  0  0  0  0
   10.9254   -6.4835  -12.5447 C   0  0  0  0  0  0  0  0  0  0  0  0
    7.2418   -5.6990  -12.1235 C   0  0  0  0  0  0  0  0  0  0  0  0
   11.2654   -7.9612  -12.4908 C   0  0  0  0  0  0  0  0  0  0  0  0
   12.7552   -8.2807  -12.4277 C   0  0  1  0  0  0  0  0  0  0  0  0
   13.5958   -7.0688  -12.1440 C   0  0  0  0  0  0  0  0  0  0  0  0
   13.0091   -9.3826  -11.4101 C   0  0  0  0  0  0  0  0  0  0  0  0
    8.0216   -8.1112  -12.1289 C   0  0  0  0  0  0  0  0  0  0  0  0
   13.5050  -11.2330  -12.7900 C   0  0  0  0  0  0  0  0  0  0  0  0
   12.1552  -11.4916  -10.8454 C   0  0  0  0  0  0  0  0  0  0  0  0
    7.6622   -8.6727  -10.7424 C   0  0  0  0  0  0  0  0  0  0  0  0
    8.0818  -10.1540  -10.6957 C   0  0  0  0  0  0  0  0  0  0  0  0
    6.3296  -11.6943  -10.0627 C   0  0  0  0  0  0  0  0  0  0  0  0
  1 23  1  0  0  0  0
  1 24  1  0  0  0  0
  1  2  1  0  0  0  0
  3  4  1  0  0  0  0
  3 17  1  0  0  0  0
  4  6  2  0  0  0  0
  4 13  1  0  0  0  0
  5 10  1  0  0  0  0
  5 14  2  0  0  0  0
  6  8  1  0  0  0  0
  7 12  1  0  0  0  0
  7 14  1  0  0  0  0
  7 19  1  0  0  0  0
  8 10  2  0  0  0  0
  9 14  1  0  0  0  0
 10 12  1  0  0  0  0
 11 18  1  0  0  0  0
 11 20  1  0  0  0  0
 11 21  1  0  0  0  0
 12 13  2  0  0  0  0
 13 15  1  0  0  0  0
 15 16  1  0  0  0  0
 16 17  1  0  0  0  0
 16 18  1  1  0  0  0
 19 22  1  0  0  0  0
 22 23  1  0  0  0  0
M  END
>  <CHROM.1>
-137.33817760,109.73228882,86.75543217,70.56579250,-154.40189970,-163.19198991
10.01897990,-7.91950511,-11.75664501,1.85086451,-0.21257917,2.83422611

>  <Name>
ligand

>  <RI>
0

>  <Rbt.Current_Directory>
/home/itssahil/PROJECTS/Mol_Feturizer/New_Systems/rnas/3TZR

>  <Rbt.Executable>
rbdock ($Id: //depot/dev/client3/rdock/2013.1/src/exe/rbdock.cxx#4 $)

>  <Rbt.Library>
libRbt.so (2013.1, Build901 2013/11/27)

>  <Rbt.Parameter_File>
/export/apps/rDock/src/rDock_2013.1_src/data/scripts/dock_solv.prm

>  <Rbt.Receptor>
prm/blind_docking_100.prm

>  <SCORE>
-36.4642

>  <SCORE.INTER>
-26.3746

>  <SCORE.INTER.CONST>
1

>  <SCORE.INTER.POLAR>
0

>  <SCORE.INTER.ROT>
6

>  <SCORE.INTER.SOLV>
20.4481

>  <SCORE.INTER.VDW>
-31.9991

>  <SCORE.INTER.norm>
-1.09894

>  <SCORE.INTRA>
-10.0897

>  <SCORE.INTRA.DIHEDRAL>
2.80887

>  <SCORE.INTRA.DIHEDRAL.0>
4.94008

>  <SCORE.INTRA.POLAR>
0

>  <SCORE.INTRA.POLAR.0>
0

>  <SCORE.INTRA.REPUL>
0

>  <SCORE.INTRA.REPUL.0>
0

>  <SCORE.INTRA.SOLV>
0.251983

>  <SCORE.INTRA.SOLV.lig_0>
-31.4704

>  <SCORE.INTRA.VDW>
-11.6201

>  <SCORE.INTRA.VDW.0>
10.2807

>  <SCORE.INTRA.norm>
-0.420403

>  <SCORE.RESTR>
0

>  <SCORE.RESTR.CAVITY>
0

>  <SCORE.RESTR.norm>
0

>  <SCORE.SYSTEM>
0

>  <SCORE.SYSTEM.CONST>
0

>  <SCORE.SYSTEM.DIHEDRAL>
0

>  <SCORE.SYSTEM.SOLV>
0

>  <SCORE.SYSTEM.norm>
0

>  <SCORE.heavy>
24

>  <SCORE.norm>
-1.51934

>  <RMSD>
0.912

$$$$
ligand
 OpenBabel11021811493D
libRbt.so/2013.1/901 2013/11/27
 24 26  0  0  0  0  0  0  0  0999 V2000
    7.7559  -10.9244  -10.4898 N   0  0  0  0  0  0  0  0  0  0  0  0
    6.3676  -11.3548  -10.5269 C   0  0  0  0  0  0  0  0  0  0  0  0
   13.3383   -6.2353  -13.0526 O   0  0  0  0  0  0  0  0  0  0  0  0
   12.0563   -5.7568  -12.8174 C   0  0  0  0  0  0  0  0  0  0  0  0
    8.0432   -4.4634  -12.1237 N   0  0  0  0  0  0  0  0  0  0  0  0
   11.7449   -4.2852  -12.8834 C   0  0  0  0  0  0  0  0  0  0  0  0
    8.4182   -6.6740  -11.9884 N   0  0  0  0  0  0  0  0  0  0  0  0
   10.4255   -3.7688  -12.6724 C   0  0  0  0  0  0  0  0  0  0  0  0
    6.0736   -5.8912  -11.5801 N   0  0  0  0  0  0  0  0  0  0  0  0
    9.3963   -4.7309  -12.3748 C   0  0  0  0  0  0  0  0  0  0  0  0
   12.5641  -10.8300  -11.9597 N   0  0  0  0  0  0  0  0  0  0  0  0
    9.6831   -6.1381  -12.2936 C   0  0  0  0  0  0  0  0  0  0  0  0
   11.0672   -6.6313  -12.5317 C   0  0  0  0  0  0  0  0  0  0  0  0
    7.4562   -5.6739  -11.8947 C   0  0  0  0  0  0  0  0  0  0  0  0
   11.3482   -8.1202  -12.4513 C   0  0  0  0  0  0  0  0  0  0  0  0
   12.8243   -8.5026  -12.4760 C   0  0  1  0  0  0  0  0  0  0  0  0
   13.7318   -7.3205  -12.2888 C   0  0  0  0  0  0  0  0  0  0  0  0
   13.0999   -9.5831  -11.4414 C   0  0  0  0  0  0  0  0  0  0  0  0
    8.1327   -8.1170  -11.8714 C   0  0  0  0  0  0  0  0  0  0  0  0
   13.6514  -11.5799  -12.5739 C   0  0  0  0  0  0  0  0  0  0  0  0
   12.0268  -11.5766  -10.8330 C   0  0  0  0  0  0  0  0  0  0  0  0
    7.1756   -8.5108  -10.7332 C   0  0  0  0  0  0  0  0  0  0  0  0
    7.8601   -9.5926   -9.8767 C   0  0  0  0  0  0  0  0  0  0  0  0
    8.5172  -11.9146   -9.7365 C   0  0  0  0  0  0  0  0  0  0  0  0
  1 23  1  0  0  0  0
  1 24  1  0  0  0  0
  1  2  1  0  0  0  0
  3  4  1  0  0  0  0
  3 17  1  0  0  0  0
  4  6  2  0  0  0  0
  4 13  1  0  0  0  0
  5 10  1  0  0  0  0
  5 14  2  0  0  0  0
  6  8  1  0  0  0  0
  7 12  1  0  0  0  0
  7 14  1  0  0  0  0
  7 19  1  0  0  0  0
  8 10  2  0  0  0  0
  9 14  1  0  0  0  0
 10 12  1  0  0  0  0
 11 18  1  0  0  0  0
 11 20  1  0  0  0  0
 11 21  1  0  0  0  0
 12 13  2  0  0  0  0
 13 15  1  0  0  0  0
 15 16  1  0  0  0  0
 16 17  1  0  0  0  0
 16 18  1  1  0  0  0
 19 22  1  0  0  0  0
 22 23  1  0  0  0  0
M  END
>  <CHROM.1>
-65.57821279,140.44434322,97.55879477,74.54632160,-126.49143409,-80.19925363
10.12048471,-7.98555352,-11.77630984,1.64626454,-0.22809183,2.88337470

>  <Name>
ligand

>  <RI>
0

>  <Rbt.Current_Directory>
/home/itssahil/PROJECTS/Mol_Feturizer/New_Systems/rnas/3TZR

>  <Rbt.Executable>
rbdock ($Id: //depot/dev/client3/rdock/2013.1/src/exe/rbdock.cxx#4 $)

>  <Rbt.Library>
libRbt.so (2013.1, Build901 2013/11/27)

>  <Rbt.Parameter_File>
/export/apps/rDock/src/rDock_2013.1_src/data/scripts/dock_solv.prm

>  <Rbt.Receptor>
prm/blind_docking_40.prm

>  <SCORE>
-30.6174

>  <SCORE.INTER>
-24.0715

>  <SCORE.INTER.CONST>
1

>  <SCORE.INTER.POLAR>
0

>  <SCORE.INTER.ROT>
6

>  <SCORE.INTER.SOLV>
19.3698

>  <SCORE.INTER.VDW>
-30.1043

>  <SCORE.INTER.norm>
-1.00298

>  <SCORE.INTRA>
-6.5469

>  <SCORE.INTRA.DIHEDRAL>
5.35307

>  <SCORE.INTRA.DIHEDRAL.0>
4.94008

>  <SCORE.INTRA.POLAR>
0

>  <SCORE.INTRA.POLAR.0>
0

>  <SCORE.INTRA.REPUL>
0

>  <SCORE.INTRA.REPUL.0>
0

>  <SCORE.INTRA.SOLV>
1.24705

>  <SCORE.INTRA.SOLV.lig_0>
-31.4704

>  <SCORE.INTRA.VDW>
-9.84696

>  <SCORE.INTRA.VDW.0>
10.2807

>  <SCORE.INTRA.norm>
-0.272788

>  <SCORE.RESTR>
0.0010118

>  <SCORE.RESTR.CAVITY>
0.0010118

>  <SCORE.RESTR.norm>
4.21585e-05

>  <SCORE.SYSTEM>
0

>  <SCORE.SYSTEM.CONST>
0

>  <SCORE.SYSTEM.DIHEDRAL>
0

>  <SCORE.SYSTEM.SOLV>
0

>  <SCORE.SYSTEM.norm>
0

>  <SCORE.heavy>
24

>  <SCORE.norm>
-1.27572

>  <RMSD>
0.912

$$$$
ligand
 OpenBabel11021811493D
libRbt.so/2013.1/901 2013/11/27
 24 26  0  0  0  0  0  0  0  0999 V2000
    6.4345  -10.8877  -10.1725 N   0  0  0  0  0  0  0  0  0  0  0  0
    7.1170  -12.0675   -9.6661 C   0  0  0  0  0  0  0  0  0  0  0  0
   13.2144   -5.9275  -12.7045 O   0  0  0  0  0  0  0  0  0  0  0  0
   11.8973   -5.5193  -12.5419 C   0  0  0  0  0  0  0  0  0  0  0  0
    7.7868   -4.4397  -12.0974 N   0  0  0  0  0  0  0  0  0  0  0  0
   11.5317   -4.0602  -12.4758 C   0  0  0  0  0  0  0  0  0  0  0  0
    8.2403   -6.6385  -12.1697 N   0  0  0  0  0  0  0  0  0  0  0  0
   10.1781   -3.6128  -12.3366 C   0  0  0  0  0  0  0  0  0  0  0  0
    5.8374   -5.9811  -11.9040 N   0  0  0  0  0  0  0  0  0  0  0  0
    9.1672   -4.6343  -12.2458 C   0  0  0  0  0  0  0  0  0  0  0  0
   12.4823  -10.6305  -12.1770 N   0  0  0  0  0  0  0  0  0  0  0  0
    9.5042   -6.0319  -12.2921 C   0  0  0  0  0  0  0  0  0  0  0  0
   10.9238   -6.4512  -12.4495 C   0  0  0  0  0  0  0  0  0  0  0  0
    7.2326   -5.6862  -12.0594 C   0  0  0  0  0  0  0  0  0  0  0  0
   11.2586   -7.9300  -12.5060 C   0  0  0  0  0  0  0  0  0  0  0  0
   12.7454   -8.2604  -12.4313 C   0  0  1  0  0  0  0  0  0  0  0  0
   13.5816   -7.0790  -12.0300 C   0  0  0  0  0  0  0  0  0  0  0  0
   12.9705   -9.4416  -11.4996 C   0  0  0  0  0  0  0  0  0  0  0  0
    8.0062   -8.0937  -12.2391 C   0  0  0  0  0  0  0  0  0  0  0  0
   13.5463  -11.1472  -13.0272 C   0  0  0  0  0  0  0  0  0  0  0  0
   12.1500  -11.6104  -11.1548 C   0  0  0  0  0  0  0  0  0  0  0  0
    7.3354   -8.7147  -11.0017 C   0  0  0  0  0  0  0  0  0  0  0  0
    7.2446  -10.2377  -11.2125 C   0  0  0  0  0  0  0  0  0  0  0  0
    5.1378  -11.3039  -10.6949 C   0  0  0  0  0  0  0  0  0  0  0  0
  1 23  1  0  0  0  0
  1 24  1  0  0  0  0
  1  2  1  0  0  0  0
  3  4  1  0  0  0  0
  3 17  1  0  0  0  0
  4  6  2  0  0  0  0
  4 13  1  0  0  0  0
  5 10  1  0  0  0  0
  5 14  2  0  0  0  0
  6  8  1  0  0  0  0
  7 12  1  0  0  0  0
  7 14  1  0  0  0  0
  7 19  1  0  0  0  0
  8 10  2  0  0  0  0
  9 14  1  0  0  0  0
 10 12  1  0  0  0  0
 11 18  1  0  0  0  0
 11 20  1  0  0  0  0
 11 21  1  0  0  0  0
 12 13  2  0  0  0  0
 13 15  1  0  0  0  0
 15 16  1  0  0  0  0
 16 17  1  0  0  0  0
 16 18  1  1  0  0  0
 19 22  1  0  0  0  0
 22 23  1  0  0  0  0
M  END
>  <CHROM.1>
-133.37623885,121.84430227,85.61694422,72.06699401,-176.75599004,-171.29914144
9.81075234,-7.91300510,-11.85290282,-2.52718492,0.16924607,-0.18865880

>  <Name>
ligand

>  <RI>
0

>  <Rbt.Current_Directory>
/home/itssahil/PROJECTS/Mol_Feturizer/New_Systems/rnas/3TZR

>  <Rbt.Executable>
rbdock ($Id: //depot/dev/client3/rdock/2013.1/src/exe/rbdock.cxx#4 $)

>  <Rbt.Library>
libRbt.so (2013.1, Build901 2013/11/27)

>  <Rbt.Parameter_File>
/export/apps/rDock/src/rDock_2013.1_src/data/scripts/dock_solv.prm

>  <Rbt.Receptor>
prm/pocket_docking_5.prm

>  <SCORE>
-36.1414

>  <SCORE.INTER>
-25.4075

>  <SCORE.INTER.CONST>
1

>  <SCORE.INTER.POLAR>
0

>  <SCORE.INTER.ROT>
6

>  <SCORE.INTER.SOLV>
20.8387

>  <SCORE.INTER.VDW>
-31.4845

>  <SCORE.INTER.norm>
-1.05864

>  <SCORE.INTRA>
-10.7339

>  <SCORE.INTRA.DIHEDRAL>
0.13991

>  <SCORE.INTRA.DIHEDRAL.0>
4.94008

>  <SCORE.INTRA.POLAR>
0

>  <SCORE.INTRA.POLAR.0>
0

>  <SCORE.INTRA.REPUL>
0

>  <SCORE.INTRA.REPUL.0>
0

>  <SCORE.INTRA.SOLV>
0.628093

>  <SCORE.INTRA.SOLV.lig_0>
-31.4704

>  <SCORE.INTRA.VDW>
-11.1179

>  <SCORE.INTRA.VDW.0>
10.2807

>  <SCORE.INTRA.norm>
-0.447247

>  <SCORE.RESTR>
0

>  <SCORE.RESTR.CAVITY>
0

>  <SCORE.RESTR.norm>
0

>  <SCORE.SYSTEM>
0

>  <SCORE.SYSTEM.CONST>
0

>  <SCORE.SYSTEM.DIHEDRAL>
0

>  <SCORE.SYSTEM.SOLV>
0

>  <SCORE.SYSTEM.norm>
0

>  <SCORE.heavy>
24

>  <SCORE.norm>
-1.50589

>  <RMSD>
0.913

$$$$
ligand
 OpenBabel11021811493D
libRbt.so/2013.1/901 2013/11/27
 24 26  0  0  0  0  0  0  0  0999 V2000
    6.6644  -10.9335  -10.0275 N   0  0  0  0  0  0  0  0  0  0  0  0
    7.7836  -11.6266   -9.4100 C   0  0  0  0  0  0  0  0  0  0  0  0
   13.0688   -5.8054  -12.7369 O   0  0  0  0  0  0  0  0  0  0  0  0
   11.7414   -5.4302  -12.5788 C   0  0  0  0  0  0  0  0  0  0  0  0
    7.6038   -4.4540  -12.1471 N   0  0  0  0  0  0  0  0  0  0  0  0
   11.3383   -3.9807  -12.5228 C   0  0  0  0  0  0  0  0  0  0  0  0
    8.1139   -6.6408  -12.2044 N   0  0  0  0  0  0  0  0  0  0  0  0
    9.9734   -3.5673  -12.3884 C   0  0  0  0  0  0  0  0  0  0  0  0
    5.6945   -6.0437  -11.9463 N   0  0  0  0  0  0  0  0  0  0  0  0
    8.9890   -4.6139  -12.2923 C   0  0  0  0  0  0  0  0  0  0  0  0
   12.4778  -10.5249  -12.1885 N   0  0  0  0  0  0  0  0  0  0  0  0
    9.3620   -6.0026  -12.3290 C   0  0  0  0  0  0  0  0  0  0  0  0
   10.7921   -6.3863  -12.4816 C   0  0  0  0  0  0  0  0  0  0  0  0
    7.0819   -5.7140  -12.1017 C   0  0  0  0  0  0  0  0  0  0  0  0
   11.1649   -7.8563  -12.5280 C   0  0  0  0  0  0  0  0  0  0  0  0
   12.6596   -8.1478  -12.4491 C   0  0  1  0  0  0  0  0  0  0  0  0
   13.4645   -6.9427  -12.0543 C   0  0  0  0  0  0  0  0  0  0  0  0
   12.9136   -9.3168  -11.5093 C   0  0  0  0  0  0  0  0  0  0  0  0
    7.9174   -8.1020  -12.2646 C   0  0  0  0  0  0  0  0  0  0  0  0
   13.5439  -10.9644  -13.0785 C   0  0  0  0  0  0  0  0  0  0  0  0
   12.2385  -11.5361  -11.1708 C   0  0  0  0  0  0  0  0  0  0  0  0
    7.4913   -8.7662  -10.9440 C   0  0  0  0  0  0  0  0  0  0  0  0
    7.1075  -10.2284  -11.2386 C   0  0  0  0  0  0  0  0  0  0  0  0
    5.6354  -11.9200  -10.3361 C   0  0  0  0  0  0  0  0  0  0  0  0
  1 23  1  0  0  0  0
  1 24  1  0  0  0  0
  1  2  1  0  0  0  0
  3  4  1  0  0  0  0
  3 17  1  0  0  0  0
  4  6  2  0  0  0  0
  4 13  1  0  0  0  0
  5 10  1  0  0  0  0
  5 14  2  0  0  0  0
  6  8  1  0  0  0  0
  7 12  1  0  0  0  0
  7 14  1  0  0  0  0
  7 19  1  0  0  0  0
  8 10  2  0  0  0  0
  9 14  1  0  0  0  0
 10 12  1  0  0  0  0
 11 18  1  0  0  0  0
 11 20  1  0  0  0  0
 11 21  1  0  0  0  0
 12 13  2  0  0  0  0
 13 15  1  0  0  0  0
 15 16  1  0  0  0  0
 16 17  1  0  0  0  0
 16 18  1  1  0  0  0
 19 22  1  0  0  0  0
 22 23  1  0  0  0  0
M  END
>  <CHROM.1>
-93.31121371,111.67148416,82.47113903,73.00005546,170.70621701,-179.05629017
9.79101772,-7.87640766,-11.84266041,-2.35763940,0.17952316,-0.22064038

>  <Name>
ligand

>  <RI>
0

>  <Rbt.Current_Directory>
/home/itssahil/PROJECTS/Mol_Feturizer/New_Systems/rnas/3TZR

>  <Rbt.Executable>
rbdock ($Id: //depot/dev/client3/rdock/2013.1/src/exe/rbdock.cxx#4 $)

>  <Rbt.Library>
libRbt.so (2013.1, Build901 2013/11/27)

>  <Rbt.Parameter_File>
/export/apps/rDock/src/rDock_2013.1_src/data/scripts/dock_solv.prm

>  <Rbt.Receptor>
prm/pocket_docking_7.prm

>  <SCORE>
-36.728

>  <SCORE.INTER>
-25.763

>  <SCORE.INTER.CONST>
1

>  <SCORE.INTER.POLAR>
0

>  <SCORE.INTER.ROT>
6

>  <SCORE.INTER.SOLV>
20.9427

>  <SCORE.INTER.VDW>
-31.7562

>  <SCORE.INTER.norm>
-1.07346

>  <SCORE.INTRA>
-10.9651

>  <SCORE.INTRA.DIHEDRAL>
-0.614616

>  <SCORE.INTRA.DIHEDRAL.0>
4.94008

>  <SCORE.INTRA.POLAR>
0

>  <SCORE.INTRA.POLAR.0>
0

>  <SCORE.INTRA.REPUL>
0

>  <SCORE.INTRA.REPUL.0>
0

>  <SCORE.INTRA.SOLV>
0.495053

>  <SCORE.INTRA.SOLV.lig_0>
-31.4704

>  <SCORE.INTRA.VDW>
-10.9053

>  <SCORE.INTRA.VDW.0>
10.2807

>  <SCORE.INTRA.norm>
-0.456877

>  <SCORE.RESTR>
0

>  <SCORE.RESTR.CAVITY>
0

>  <SCORE.RESTR.norm>
0

>  <SCORE.SYSTEM>
0

>  <SCORE.SYSTEM.CONST>
0

>  <SCORE.SYSTEM.DIHEDRAL>
0

>  <SCORE.SYSTEM.SOLV>
0

>  <SCORE.SYSTEM.norm>
0

>  <SCORE.heavy>
24

>  <SCORE.norm>
-1.53033

>  <RMSD>
0.913

$$$$
ligand
 OpenBabel11021811493D
libRbt.so/2013.1/901 2013/11/27
 24 26  0  0  0  0  0  0  0  0999 V2000
    7.6444  -10.9547  -10.5230 N   0  0  0  0  0  0  0  0  0  0  0  0
    6.3322  -11.5811  -10.5349 C   0  0  0  0  0  0  0  0  0  0  0  0
   13.2492   -5.9424  -12.6420 O   0  0  0  0  0  0  0  0  0  0  0  0
   11.9209   -5.5618  -12.5056 C   0  0  0  0  0  0  0  0  0  0  0  0
    7.7809   -4.5670  -12.1459 N   0  0  0  0  0  0  0  0  0  0  0  0
   11.5260   -4.1111  -12.4245 C   0  0  0  0  0  0  0  0  0  0  0  0
    8.2780   -6.7554  -12.2433 N   0  0  0  0  0  0  0  0  0  0  0  0
   10.1610   -3.6915  -12.3117 C   0  0  0  0  0  0  0  0  0  0  0  0
    5.8572   -6.1476  -12.0268 N   0  0  0  0  0  0  0  0  0  0  0  0
    9.1680   -4.7331  -12.2631 C   0  0  0  0  0  0  0  0  0  0  0  0
   12.6968  -10.6771  -12.2495 N   0  0  0  0  0  0  0  0  0  0  0  0
    9.5327   -6.1232  -12.3241 C   0  0  0  0  0  0  0  0  0  0  0  0
   10.9634   -6.5132  -12.4529 C   0  0  0  0  0  0  0  0  0  0  0  0
    7.2499   -5.8241  -12.1424 C   0  0  0  0  0  0  0  0  0  0  0  0
   11.3277   -7.9843  -12.5255 C   0  0  0  0  0  0  0  0  0  0  0  0
   12.8183   -8.2880  -12.4192 C   0  0  1  0  0  0  0  0  0  0  0  0
   13.6216   -7.0982  -11.9776 C   0  0  0  0  0  0  0  0  0  0  0  0
   13.0429   -9.4805  -11.5018 C   0  0  0  0  0  0  0  0  0  0  0  0
    8.0735   -8.2133  -12.3426 C   0  0  0  0  0  0  0  0  0  0  0  0
   13.8404  -11.0572  -13.0678 C   0  0  0  0  0  0  0  0  0  0  0  0
   12.4114  -11.7277  -11.2850 C   0  0  0  0  0  0  0  0  0  0  0  0
    6.9175   -8.7772  -11.4986 C   0  0  0  0  0  0  0  0  0  0  0  0
    7.5169   -9.5101  -10.2837 C   0  0  0  0  0  0  0  0  0  0  0  0
    8.4425  -11.5948   -9.4835 C   0  0  0  0  0  0  0  0  0  0  0  0
  1 23  1  0  0  0  0
  1 24  1  0  0  0  0
  1  2  1  0  0  0  0
  3  4  1  0  0  0  0
  3 17  1  0  0  0  0
  4  6  2  0  0  0  0
  4 13  1  0  0  0  0
  5 10  1  0  0  0  0
  5 14  2  0  0  0  0
  6  8  1  0  0  0  0
  7 12  1  0  0  0  0
  7 14  1  0  0  0  0
  7 19  1  0  0  0  0
  8 10  2  0  0  0  0
  9 14  1  0  0  0  0
 10 12  1  0  0  0  0
 11 18  1  0  0  0  0
 11 20  1  0  0  0  0
 11 21  1  0  0  0  0
 12 13  2  0  0  0  0
 13 15  1  0  0  0  0
 15 16  1  0  0  0  0
 16 17  1  0  0  0  0
 16 18  1  1  0  0  0
 19 22  1  0  0  0  0
 22 23  1  0  0  0  0
M  END
>  <CHROM.1>
-71.10528941,146.78292515,82.79490311,76.61696115,-105.42179313,-95.76211221
10.02732053,-7.93160216,-11.85550287,-2.96423102,0.17113984,-0.21693541

>  <Name>
ligand

>  <RI>
0

>  <Rbt.Current_Directory>
/home/itssahil/PROJECTS/Mol_Feturizer/New_Systems/rnas/3TZR

>  <Rbt.Executable>
rbdock ($Id: //depot/dev/client3/rdock/2013.1/src/exe/rbdock.cxx#4 $)

>  <Rbt.Library>
libRbt.so (2013.1, Build901 2013/11/27)

>  <Rbt.Parameter_File>
/export/apps/rDock/src/rDock_2013.1_src/data/scripts/dock_solv.prm

>  <Rbt.Receptor>
prm/blind_docking_100.prm

>  <SCORE>
-29.8862

>  <SCORE.INTER>
-24.2773

>  <SCORE.INTER.CONST>
1

>  <SCORE.INTER.POLAR>
0

>  <SCORE.INTER.ROT>
6

>  <SCORE.INTER.SOLV>
20.0357

>  <SCORE.INTER.VDW>
-30.4634

>  <SCORE.INTER.norm>
-1.01155

>  <SCORE.INTRA>
-5.60895

>  <SCORE.INTRA.DIHEDRAL>
6.34296

>  <SCORE.INTRA.DIHEDRAL.0>
4.94008

>  <SCORE.INTRA.POLAR>
0

>  <SCORE.INTRA.POLAR.0>
0

>  <SCORE.INTRA.REPUL>
0

>  <SCORE.INTRA.REPUL.0>
0

>  <SCORE.INTRA.SOLV>
1.53606

>  <SCORE.INTRA.SOLV.lig_0>
-31.4704

>  <SCORE.INTRA.VDW>
-9.54846

>  <SCORE.INTRA.VDW.0>
10.2807

>  <SCORE.INTRA.norm>
-0.233706

>  <SCORE.RESTR>
0

>  <SCORE.RESTR.CAVITY>
0

>  <SCORE.RESTR.norm>
0

>  <SCORE.SYSTEM>
0

>  <SCORE.SYSTEM.CONST>
0

>  <SCORE.SYSTEM.DIHEDRAL>
0

>  <SCORE.SYSTEM.SOLV>
0

>  <SCORE.SYSTEM.norm>
0

>  <SCORE.heavy>
24

>  <SCORE.norm>
-1.24526

>  <RMSD>
0.916

$$$$
ligand
 OpenBabel11021811493D
libRbt.so/2013.1/901 2013/11/27
 24 26  0  0  0  0  0  0  0  0999 V2000
    7.2724  -10.9949  -10.9182 N   0  0  0  0  0  0  0  0  0  0  0  0
    6.3733  -11.9885  -11.4826 C   0  0  0  0  0  0  0  0  0  0  0  0
   13.2867   -6.1181  -13.0017 O   0  0  0  0  0  0  0  0  0  0  0  0
   11.9924   -5.6589  -12.7976 C   0  0  0  0  0  0  0  0  0  0  0  0
    7.9450   -4.4257  -12.2006 N   0  0  0  0  0  0  0  0  0  0  0  0
   11.6598   -4.1926  -12.8770 C   0  0  0  0  0  0  0  0  0  0  0  0
    8.3511   -6.6296  -12.0473 N   0  0  0  0  0  0  0  0  0  0  0  0
   10.3280   -3.6961  -12.6983 C   0  0  0  0  0  0  0  0  0  0  0  0
    5.9860   -5.8820  -11.6955 N   0  0  0  0  0  0  0  0  0  0  0  0
    9.3074   -4.6729  -12.4199 C   0  0  0  0  0  0  0  0  0  0  0  0
   12.5758  -10.7233  -11.9141 N   0  0  0  0  0  0  0  0  0  0  0  0
    9.6142   -6.0751  -12.3261 C   0  0  0  0  0  0  0  0  0  0  0  0
   11.0108   -6.5476  -12.5306 C   0  0  0  0  0  0  0  0  0  0  0  0
    7.3718   -5.6443  -11.9797 C   0  0  0  0  0  0  0  0  0  0  0  0
   11.3131   -8.0315  -12.4373 C   0  0  0  0  0  0  0  0  0  0  0  0
   12.7951   -8.3909  -12.4270 C   0  0  1  0  0  0  0  0  0  0  0  0
   13.6796   -7.1940  -12.2244 C   0  0  0  0  0  0  0  0  0  0  0  0
   13.0640   -9.4628  -11.3816 C   0  0  0  0  0  0  0  0  0  0  0  0
    8.0856   -8.0764  -11.9305 C   0  0  0  0  0  0  0  0  0  0  0  0
   13.6372  -11.3329  -12.7038 C   0  0  0  0  0  0  0  0  0  0  0  0
   12.2509  -11.5786  -10.7835 C   0  0  0  0  0  0  0  0  0  0  0  0
    7.5727   -8.5451  -10.5579 C   0  0  0  0  0  0  0  0  0  0  0  0
    6.5830   -9.7041  -10.7802 C   0  0  0  0  0  0  0  0  0  0  0  0
    7.7378  -11.4869   -9.6264 C   0  0  0  0  0  0  0  0  0  0  0  0
  1 23  1  0  0  0  0
  1 24  1  0  0  0  0
  1  2  1  0  0  0  0
  3  4  1  0  0  0  0
  3 17  1  0  0  0  0
  4  6  2  0  0  0  0
  4 13  1  0  0  0  0
  5 10  1  0  0  0  0
  5 14  2  0  0  0  0
  6  8  1  0  0  0  0
  7 12  1  0  0  0  0
  7 14  1  0  0  0  0
  7 19  1  0  0  0  0
  8 10  2  0  0  0  0
  9 14  1  0  0  0  0
 10 12  1  0  0  0  0
 11 18  1  0  0  0  0
 11 20  1  0  0  0  0
 11 21  1  0  0  0  0
 12 13  2  0  0  0  0
 13 15  1  0  0  0  0
 15 16  1  0  0  0  0
 16 17  1  0  0  0  0
 16 18  1  1  0  0  0
 19 22  1  0  0  0  0
 22 23  1  0  0  0  0
M  END
>  <CHROM.1>
-164.41519839,118.33264366,87.21350456,75.30268636,145.54704224,84.13714201
9.99492633,-7.94003224,-11.87523351,-2.29944221,0.16769569,-0.21381983

>  <Name>
ligand

>  <RI>
0

>  <Rbt.Current_Directory>
/home/itssahil/PROJECTS/Mol_Feturizer/New_Systems/rnas/3TZR

>  <Rbt.Executable>
rbdock ($Id: //depot/dev/client3/rdock/2013.1/src/exe/rbdock.cxx#4 $)

>  <Rbt.Library>
libRbt.so (2013.1, Build901 2013/11/27)

>  <Rbt.Parameter_File>
/export/apps/rDock/src/rDock_2013.1_src/data/scripts/dock_solv.prm

>  <Rbt.Receptor>
prm/pocket_docking_4.prm

>  <SCORE>
-32.9286

>  <SCORE.INTER>
-24.8038

>  <SCORE.INTER.CONST>
1

>  <SCORE.INTER.POLAR>
0

>  <SCORE.INTER.ROT>
6

>  <SCORE.INTER.SOLV>
19.6353

>  <SCORE.INTER.VDW>
-30.6809

>  <SCORE.INTER.norm>
-1.03349

>  <SCORE.INTRA>
-8.12484

>  <SCORE.INTRA.DIHEDRAL>
3.80495

>  <SCORE.INTRA.DIHEDRAL.0>
4.94008

>  <SCORE.INTRA.POLAR>
0

>  <SCORE.INTRA.POLAR.0>
0

>  <SCORE.INTRA.REPUL>
0

>  <SCORE.INTRA.REPUL.0>
0

>  <SCORE.INTRA.SOLV>
1.25423

>  <SCORE.INTRA.SOLV.lig_0>
-31.4704

>  <SCORE.INTRA.VDW>
-10.6544

>  <SCORE.INTRA.VDW.0>
10.2807

>  <SCORE.INTRA.norm>
-0.338535

>  <SCORE.RESTR>
0

>  <SCORE.RESTR.CAVITY>
0

>  <SCORE.RESTR.norm>
0

>  <SCORE.SYSTEM>
0

>  <SCORE.SYSTEM.CONST>
0

>  <SCORE.SYSTEM.DIHEDRAL>
0

>  <SCORE.SYSTEM.SOLV>
0

>  <SCORE.SYSTEM.norm>
0

>  <SCORE.heavy>
24

>  <SCORE.norm>
-1.37203

>  <RMSD>
0.918

$$$$
ligand
 OpenBabel11021811493D
libRbt.so/2013.1/901 2013/11/27
 24 26  0  0  0  0  0  0  0  0999 V2000
    7.2231  -10.7913   -9.9281 N   0  0  0  0  0  0  0  0  0  0  0  0
    8.4020  -11.5541   -9.5506 C   0  0  0  0  0  0  0  0  0  0  0  0
   13.8770   -7.7385  -12.9507 O   0  0  0  0  0  0  0  0  0  0  0  0
   12.8177   -6.8850  -12.6730 C   0  0  0  0  0  0  0  0  0  0  0  0
    9.4357   -4.3983  -11.8744 N   0  0  0  0  0  0  0  0  0  0  0  0
   13.0232   -5.3997  -12.5369 C   0  0  0  0  0  0  0  0  0  0  0  0
    9.0375   -6.6024  -12.0447 N   0  0  0  0  0  0  0  0  0  0  0  0
   11.9430   -4.4950  -12.2785 C   0  0  0  0  0  0  0  0  0  0  0  0
    7.0706   -5.1246  -11.5713 N   0  0  0  0  0  0  0  0  0  0  0  0
   10.6337   -5.0775  -12.1370 C   0  0  0  0  0  0  0  0  0  0  0  0
   13.4277  -11.9479  -12.2402 N   0  0  0  0  0  0  0  0  0  0  0  0
   10.4258   -6.4963  -12.2494 C   0  0  0  0  0  0  0  0  0  0  0  0
   11.5762   -7.3981  -12.5303 C   0  0  0  0  0  0  0  0  0  0  0  0
    8.4631   -5.3543  -11.8281 C   0  0  0  0  0  0  0  0  0  0  0  0
   11.3355   -8.8909  -12.6550 C   0  0  0  0  0  0  0  0  0  0  0  0
   12.5959   -9.7477  -12.7075 C   0  0  1  0  0  0  0  0  0  0  0  0
   13.8335   -8.9800  -12.3402 C   0  0  0  0  0  0  0  0  0  0  0  0
   12.4259  -10.9789  -11.8304 C   0  0  0  0  0  0  0  0  0  0  0  0
    8.2774   -7.8638  -12.1366 C   0  0  0  0  0  0  0  0  0  0  0  0
   13.8298  -12.7186  -11.0713 C   0  0  0  0  0  0  0  0  0  0  0  0
   12.8098  -12.8272  -13.2203 C   0  0  0  0  0  0  0  0  0  0  0  0
    8.2102   -8.6904  -10.8409 C   0  0  0  0  0  0  0  0  0  0  0  0
    7.4877  -10.0155  -11.1482 C   0  0  0  0  0  0  0  0  0  0  0  0
    6.1218  -11.7272  -10.1246 C   0  0  0  0  0  0  0  0  0  0  0  0
  1 23  1  0  0  0  0
  1 24  1  0  0  0  0
  1  2  1  0  0  0  0
  3  4  1  0  0  0  0
  3 17  1  0  0  0  0
  4  6  2  0  0  0  0
  4 13  1  0  0  0  0
  5 10  1  0  0  0  0
  5 14  2  0  0  0  0
  6  8  1  0  0  0  0
  7 12  1  0  0  0  0
  7 14  1  0  0  0  0
  7 19  1  0  0  0  0
  8 10  2  0  0  0  0
  9 14  1  0  0  0  0
 10 12  1  0  0  0  0
 11 18  1  0  0  0  0
 11 20  1  0  0  0  0
 11 21  1  0  0  0  0
 12 13  2  0  0  0  0
 13 15  1  0  0  0  0
 15 16  1  0  0  0  0
 16 17  1  0  0  0  0
 16 18  1  1  0  0  0
 19 22  1  0  0  0  0
 22 23  1  0  0  0  0
M  END
>  <CHROM.1>
-82.73963944,87.24997054,147.72382265,161.85411048,-175.32355436,-172.52543440
10.57640452,-8.55229568,-11.82622245,1.05623037,-0.28489435,2.98309209

>  <Name>
ligand

>  <RI>
0

>  <Rbt.Current_Directory>
/home/itssahil/PROJECTS/Mol_Feturizer/New_Systems/rnas/3TZR

>  <Rbt.Executable>
rbdock ($Id: //depot/dev/client3/rdock/2013.1/src/exe/rbdock.cxx#4 $)

>  <Rbt.Library>
libRbt.so (2013.1, Build901 2013/11/27)

>  <Rbt.Parameter_File>
/export/apps/rDock/src/rDock_2013.1_src/data/scripts/dock_solv.prm

>  <Rbt.Receptor>
prm/pocket_docking_3.prm

>  <SCORE>
-35.265

>  <SCORE.INTER>
-24.0144

>  <SCORE.INTER.CONST>
1

>  <SCORE.INTER.POLAR>
0

>  <SCORE.INTER.ROT>
6

>  <SCORE.INTER.SOLV>
20.2733

>  <SCORE.INTER.VDW>
-30.3673

>  <SCORE.INTER.norm>
-1.0006

>  <SCORE.INTRA>
-11.2507

>  <SCORE.INTRA.DIHEDRAL>
-0.00275823

>  <SCORE.INTRA.DIHEDRAL.0>
4.94008

>  <SCORE.INTRA.POLAR>
0

>  <SCORE.INTRA.POLAR.0>
0

>  <SCORE.INTRA.REPUL>
0

>  <SCORE.INTRA.REPUL.0>
0

>  <SCORE.INTRA.SOLV>
-0.158165

>  <SCORE.INTRA.SOLV.lig_0>
-31.4704

>  <SCORE.INTRA.VDW>
-11.1702

>  <SCORE.INTRA.VDW.0>
10.2807

>  <SCORE.INTRA.norm>
-0.468778

>  <SCORE.RESTR>
0

>  <SCORE.RESTR.CAVITY>
0

>  <SCORE.RESTR.norm>
0

>  <SCORE.SYSTEM>
0

>  <SCORE.SYSTEM.CONST>
0

>  <SCORE.SYSTEM.DIHEDRAL>
0

>  <SCORE.SYSTEM.SOLV>
0

>  <SCORE.SYSTEM.norm>
0

>  <SCORE.heavy>
24

>  <SCORE.norm>
-1.46938

>  <RMSD>
0.919

$$$$
ligand
 OpenBabel11021811493D
libRbt.so/2013.1/901 2013/11/27
 24 26  0  0  0  0  0  0  0  0999 V2000
    6.3830  -10.8185  -10.1451 N   0  0  0  0  0  0  0  0  0  0  0  0
    6.9882  -12.0730   -9.7275 C   0  0  0  0  0  0  0  0  0  0  0  0
   13.2266   -5.9545  -12.7089 O   0  0  0  0  0  0  0  0  0  0  0  0
   11.9146   -5.5321  -12.5416 C   0  0  0  0  0  0  0  0  0  0  0  0
    7.8178   -4.4077  -12.0824 N   0  0  0  0  0  0  0  0  0  0  0  0
   11.5652   -4.0691  -12.4750 C   0  0  0  0  0  0  0  0  0  0  0  0
    8.2472   -6.6113  -12.1551 N   0  0  0  0  0  0  0  0  0  0  0  0
   10.2169   -3.6069  -12.3310 C   0  0  0  0  0  0  0  0  0  0  0  0
    5.8526   -5.9278  -11.8808 N   0  0  0  0  0  0  0  0  0  0  0  0
    9.1954   -4.6173  -12.2358 C   0  0  0  0  0  0  0  0  0  0  0  0
   12.4015  -10.6410  -12.1554 N   0  0  0  0  0  0  0  0  0  0  0  0
    9.5171   -6.0185  -12.2826 C   0  0  0  0  0  0  0  0  0  0  0  0
   10.9314   -6.4533  -12.4450 C   0  0  0  0  0  0  0  0  0  0  0  0
    7.2503   -5.6481  -12.0416 C   0  0  0  0  0  0  0  0  0  0  0  0
   11.2500   -7.9357  -12.5019 C   0  0  0  0  0  0  0  0  0  0  0  0
   12.7334   -8.2821  -12.4326 C   0  0  1  0  0  0  0  0  0  0  0  0
   13.5838   -7.1097  -12.0351 C   0  0  0  0  0  0  0  0  0  0  0  0
   12.9492   -9.4652  -11.5010 C   0  0  0  0  0  0  0  0  0  0  0  0
    7.9971   -8.0640  -12.2228 C   0  0  0  0  0  0  0  0  0  0  0  0
   13.4055  -11.1711  -13.0680 C   0  0  0  0  0  0  0  0  0  0  0  0
   12.1108  -11.6212  -11.1209 C   0  0  0  0  0  0  0  0  0  0  0  0
    7.4187   -8.6950  -10.9445 C   0  0  0  0  0  0  0  0  0  0  0  0
    7.1852  -10.1946  -11.2069 C   0  0  0  0  0  0  0  0  0  0  0  0
    5.0270  -11.1001  -10.6026 C   0  0  0  0  0  0  0  0  0  0  0  0
  1 23  1  0  0  0  0
  1 24  1  0  0  0  0
  1  2  1  0  0  0  0
  3  4  1  0  0  0  0
  3 17  1  0  0  0  0
  4  6  2  0  0  0  0
  4 13  1  0  0  0  0
  5 10  1  0  0  0  0
  5 14  2  0  0  0  0
  6  8  1  0  0  0  0
  7 12  1  0  0  0  0
  7 14  1  0  0  0  0
  7 19  1  0  0  0  0
  8 10  2  0  0  0  0
  9 14  1  0  0  0  0
 10 12  1  0  0  0  0
 11 18  1  0  0  0  0
 11 20  1  0  0  0  0
 11 21  1  0  0  0  0
 12 13  2  0  0  0  0
 13 15  1  0  0  0  0
 15 16  1  0  0  0  0
 16 17  1  0  0  0  0
 16 18  1  1  0  0  0
 19 22  1  0  0  0  0
 22 23  1  0  0  0  0
M  END
>  <CHROM.1>
-133.46335319,117.57716274,83.77826039,70.02983236,178.38517500,-168.23914574
9.79338489,-7.89710079,-11.84263399,-2.54465177,0.17587993,-0.18650769

>  <Name>
ligand

>  <RI>
144

>  <Rbt.Current_Directory>
/home/itssahil/PROJECTS/Mol_Feturizer/New_Systems/rnas/3TZR

>  <Rbt.Executable>
rbdock ($Id: //depot/dev/client3/rdock/2013.1/src/exe/rbdock.cxx#4 $)

>  <Rbt.Library>
libRbt.so (2013.1, Build901 2013/11/27)

>  <Rbt.Parameter_File>
/export/apps/rDock/src/rDock_2013.1_src/data/scripts/dock_solv.prm

>  <Rbt.Receptor>
prm/blind_docking_60.prm

>  <SCORE>
-35.9395

>  <SCORE.INTER>
-25.1987

>  <SCORE.INTER.CONST>
1

>  <SCORE.INTER.POLAR>
0

>  <SCORE.INTER.ROT>
6

>  <SCORE.INTER.SOLV>
21.1948

>  <SCORE.INTER.VDW>
-31.4641

>  <SCORE.INTER.norm>
-1.04995

>  <SCORE.INTRA>
-10.7408

>  <SCORE.INTRA.DIHEDRAL>
0.105487

>  <SCORE.INTRA.DIHEDRAL.0>
4.94008

>  <SCORE.INTRA.POLAR>
0

>  <SCORE.INTRA.POLAR.0>
0

>  <SCORE.INTRA.REPUL>
0

>  <SCORE.INTRA.REPUL.0>
0

>  <SCORE.INTRA.SOLV>
0.568324

>  <SCORE.INTRA.SOLV.lig_0>
-31.4704

>  <SCORE.INTRA.VDW>
-11.0777

>  <SCORE.INTRA.VDW.0>
10.2807

>  <SCORE.INTRA.norm>
-0.447534

>  <SCORE.RESTR>
6.72016e-05

>  <SCORE.RESTR.CAVITY>
6.72016e-05

>  <SCORE.RESTR.norm>
2.80007e-06

>  <SCORE.SYSTEM>
0

>  <SCORE.SYSTEM.CONST>
0

>  <SCORE.SYSTEM.DIHEDRAL>
0

>  <SCORE.SYSTEM.SOLV>
0

>  <SCORE.SYSTEM.norm>
0

>  <SCORE.heavy>
24

>  <SCORE.norm>
-1.49748

>  <RMSD>
0.920

$$$$
ligand
 OpenBabel11021811493D
libRbt.so/2013.1/901 2013/11/27
 24 26  0  0  0  0  0  0  0  0999 V2000
    7.2346  -10.7995   -9.9132 N   0  0  0  0  0  0  0  0  0  0  0  0
    8.4148  -11.5754   -9.5677 C   0  0  0  0  0  0  0  0  0  0  0  0
   13.8733   -7.7570  -12.9474 O   0  0  0  0  0  0  0  0  0  0  0  0
   12.8164   -6.9007  -12.6691 C   0  0  0  0  0  0  0  0  0  0  0  0
    9.4416   -4.4050  -11.8684 N   0  0  0  0  0  0  0  0  0  0  0  0
   13.0257   -5.4157  -12.5352 C   0  0  0  0  0  0  0  0  0  0  0  0
    9.0379   -6.6084  -12.0352 N   0  0  0  0  0  0  0  0  0  0  0  0
   11.9480   -4.5082  -12.2762 C   0  0  0  0  0  0  0  0  0  0  0  0
    7.0752   -5.1254  -11.5606 N   0  0  0  0  0  0  0  0  0  0  0  0
   10.6376   -5.0873  -12.1320 C   0  0  0  0  0  0  0  0  0  0  0  0
   13.4158  -11.9642  -12.2304 N   0  0  0  0  0  0  0  0  0  0  0  0
   10.4261   -6.5058  -12.2423 C   0  0  0  0  0  0  0  0  0  0  0  0
   11.5740   -7.4106  -12.5239 C   0  0  0  0  0  0  0  0  0  0  0  0
    8.4668   -5.3587  -11.8193 C   0  0  0  0  0  0  0  0  0  0  0  0
   11.3296   -8.9031  -12.6464 C   0  0  0  0  0  0  0  0  0  0  0  0
   12.5879   -9.7629  -12.6998 C   0  0  1  0  0  0  0  0  0  0  0  0
   13.8278   -8.9977  -12.3354 C   0  0  0  0  0  0  0  0  0  0  0  0
   12.4163  -10.9926  -11.8208 C   0  0  0  0  0  0  0  0  0  0  0  0
    8.2747   -7.8681  -12.1244 C   0  0  0  0  0  0  0  0  0  0  0  0
   13.8088  -12.7422  -11.0634 C   0  0  0  0  0  0  0  0  0  0  0  0
   12.7987  -12.8360  -13.2177 C   0  0  0  0  0  0  0  0  0  0  0  0
    8.2143   -8.6969  -10.8297 C   0  0  0  0  0  0  0  0  0  0  0  0
    7.4790  -10.0159  -11.1324 C   0  0  0  0  0  0  0  0  0  0  0  0
    6.1212  -11.7245  -10.0929 C   0  0  0  0  0  0  0  0  0  0  0  0
  1 23  1  0  0  0  0
  1 24  1  0  0  0  0
  1  2  1  0  0  0  0
  3  4  1  0  0  0  0
  3 17  1  0  0  0  0
  4  6  2  0  0  0  0
  4 13  1  0  0  0  0
  5 10  1  0  0  0  0
  5 14  2  0  0  0  0
  6  8  1  0  0  0  0
  7 12  1  0  0  0  0
  7 14  1  0  0  0  0
  7 19  1  0  0  0  0
  8 10  2  0  0  0  0
  9 14  1  0  0  0  0
 10 12  1  0  0  0  0
 11 18  1  0  0  0  0
 11 20  1  0  0  0  0
 11 21  1  0  0  0  0
 12 13  2  0  0  0  0
 13 15  1  0  0  0  0
 15 16  1  0  0  0  0
 16 17  1  0  0  0  0
 16 18  1  1  0  0  0
 19 22  1  0  0  0  0
 22 23  1  0  0  0  0
M  END
>  <CHROM.1>
-82.97408213,86.91529521,148.22981743,161.89031072,-175.68946856,-173.17704097
10.57465145,-8.56308706,-11.81847677,1.06553701,-0.28669251,2.98284629

>  <Name>
ligand

>  <RI>
0

>  <Rbt.Current_Directory>
/home/itssahil/PROJECTS/Mol_Feturizer/New_Systems/rnas/3TZR

>  <Rbt.Executable>
rbdock ($Id: //depot/dev/client3/rdock/2013.1/src/exe/rbdock.cxx#4 $)

>  <Rbt.Library>
libRbt.so (2013.1, Build901 2013/11/27)

>  <Rbt.Parameter_File>
/export/apps/rDock/src/rDock_2013.1_src/data/scripts/dock_solv.prm

>  <Rbt.Receptor>
prm/pocket_docking_6.prm

>  <SCORE>
-35.3045

>  <SCORE.INTER>
-24.0186

>  <SCORE.INTER.CONST>
1

>  <SCORE.INTER.POLAR>
0

>  <SCORE.INTER.ROT>
6

>  <SCORE.INTER.SOLV>
20.2273

>  <SCORE.INTER.VDW>
-30.3548

>  <SCORE.INTER.norm>
-1.00077

>  <SCORE.INTRA>
-11.2859

>  <SCORE.INTRA.DIHEDRAL>
-0.0718525

>  <SCORE.INTRA.DIHEDRAL.0>
4.94008

>  <SCORE.INTRA.POLAR>
0

>  <SCORE.INTRA.POLAR.0>
0

>  <SCORE.INTRA.REPUL>
0

>  <SCORE.INTRA.REPUL.0>
0

>  <SCORE.INTRA.SOLV>
-0.164293

>  <SCORE.INTRA.SOLV.lig_0>
-31.4704

>  <SCORE.INTRA.VDW>
-11.1678

>  <SCORE.INTRA.VDW.0>
10.2807

>  <SCORE.INTRA.norm>
-0.470245

>  <SCORE.RESTR>
0

>  <SCORE.RESTR.CAVITY>
0

>  <SCORE.RESTR.norm>
0

>  <SCORE.SYSTEM>
0

>  <SCORE.SYSTEM.CONST>
0

>  <SCORE.SYSTEM.DIHEDRAL>
0

>  <SCORE.SYSTEM.SOLV>
0

>  <SCORE.SYSTEM.norm>
0

>  <SCORE.heavy>
24

>  <SCORE.norm>
-1.47102

>  <RMSD>
0.921

$$$$
ligand
 OpenBabel11021811493D
libRbt.so/2013.1/901 2013/11/27
 24 26  0  0  0  0  0  0  0  0999 V2000
    7.1970  -11.0019  -11.1429 N   0  0  0  0  0  0  0  0  0  0  0  0
    6.2182  -11.7073  -11.9545 C   0  0  0  0  0  0  0  0  0  0  0  0
   13.3400   -6.2849  -13.0204 O   0  0  0  0  0  0  0  0  0  0  0  0
   12.0654   -5.7892  -12.7809 C   0  0  0  0  0  0  0  0  0  0  0  0
    8.0718   -4.4401  -12.0807 N   0  0  0  0  0  0  0  0  0  0  0  0
   11.7839   -4.3102  -12.7985 C   0  0  0  0  0  0  0  0  0  0  0  0
    8.4016   -6.6611  -12.0189 N   0  0  0  0  0  0  0  0  0  0  0  0
   10.4729   -3.7750  -12.5822 C   0  0  0  0  0  0  0  0  0  0  0  0
    6.0689   -5.8459  -11.6058 N   0  0  0  0  0  0  0  0  0  0  0  0
    9.4218   -4.7258  -12.3281 C   0  0  0  0  0  0  0  0  0  0  0  0
   12.4015  -10.8828  -12.0630 N   0  0  0  0  0  0  0  0  0  0  0  0
    9.6799   -6.1405  -12.2933 C   0  0  0  0  0  0  0  0  0  0  0  0
   11.0563   -6.6530  -12.5352 C   0  0  0  0  0  0  0  0  0  0  0  0
    7.4586   -5.6457  -11.8995 C   0  0  0  0  0  0  0  0  0  0  0  0
   11.3070   -8.1491  -12.5040 C   0  0  0  0  0  0  0  0  0  0  0  0
   12.7754   -8.5600  -12.5280 C   0  0  1  0  0  0  0  0  0  0  0  0
   13.7041   -7.4036  -12.2911 C   0  0  0  0  0  0  0  0  0  0  0  0
   13.0191   -9.6810  -11.5291 C   0  0  0  0  0  0  0  0  0  0  0  0
    8.0865   -8.1012  -11.9549 C   0  0  0  0  0  0  0  0  0  0  0  0
   13.4010  -11.6136  -12.8304 C   0  0  0  0  0  0  0  0  0  0  0  0
   11.9634  -11.6877  -10.9336 C   0  0  0  0  0  0  0  0  0  0  0  0
    7.7536   -8.6430  -10.5540 C   0  0  0  0  0  0  0  0  0  0  0  0
    6.6534   -9.7114  -10.6963 C   0  0  0  0  0  0  0  0  0  0  0  0
    7.5417  -11.8518  -10.0087 C   0  0  0  0  0  0  0  0  0  0  0  0
  1 23  1  0  0  0  0
  1 24  1  0  0  0  0
  1  2  1  0  0  0  0
  3  4  1  0  0  0  0
  3 17  1  0  0  0  0
  4  6  2  0  0  0  0
  4 13  1  0  0  0  0
  5 10  1  0  0  0  0
  5 14  2  0  0  0  0
  6  8  1  0  0  0  0
  7 12  1  0  0  0  0
  7 14  1  0  0  0  0
  7 19  1  0  0  0  0
  8 10  2  0  0  0  0
  9 14  1  0  0  0  0
 10 12  1  0  0  0  0
 11 18  1  0  0  0  0
 11 20  1  0  0  0  0
 11 21  1  0  0  0  0
 12 13  2  0  0  0  0
 13 15  1  0  0  0  0
 15 16  1  0  0  0  0
 16 17  1  0  0  0  0
 16 18  1  1  0  0  0
 19 22  1  0  0  0  0
 22 23  1  0  0  0  0
M  END
>  <CHROM.1>
-148.19257086,110.59050856,92.44402106,71.56757835,143.64851577,79.21184074
9.99069898,-8.03336224,-11.93212303,2.23435233,-0.17567851,2.98013083

>  <Name>
ligand

>  <RI>
0

>  <Rbt.Current_Directory>
/home/itssahil/PROJECTS/Mol_Feturizer/New_Systems/rnas/3TZR

>  <Rbt.Executable>
rbdock ($Id: //depot/dev/client3/rdock/2013.1/src/exe/rbdock.cxx#4 $)

>  <Rbt.Library>
libRbt.so (2013.1, Build901 2013/11/27)

>  <Rbt.Parameter_File>
/export/apps/rDock/src/rDock_2013.1_src/data/scripts/dock_solv.prm

>  <Rbt.Receptor>
prm/pocket_docking_4.prm

>  <SCORE>
-32.5286

>  <SCORE.INTER>
-23.7999

>  <SCORE.INTER.CONST>
1

>  <SCORE.INTER.POLAR>
0

>  <SCORE.INTER.ROT>
6

>  <SCORE.INTER.SOLV>
19.6343

>  <SCORE.INTER.VDW>
-30.0114

>  <SCORE.INTER.norm>
-0.991663

>  <SCORE.INTRA>
-8.72872

>  <SCORE.INTRA.DIHEDRAL>
4.4191

>  <SCORE.INTRA.DIHEDRAL.0>
4.94008

>  <SCORE.INTRA.POLAR>
0

>  <SCORE.INTRA.POLAR.0>
0

>  <SCORE.INTRA.REPUL>
0

>  <SCORE.INTRA.REPUL.0>
0

>  <SCORE.INTRA.SOLV>
1.08861

>  <SCORE.INTRA.SOLV.lig_0>
-31.4704

>  <SCORE.INTRA.VDW>
-11.4826

>  <SCORE.INTRA.VDW.0>
10.2807

>  <SCORE.INTRA.norm>
-0.363697

>  <SCORE.RESTR>
0

>  <SCORE.RESTR.CAVITY>
0

>  <SCORE.RESTR.norm>
0

>  <SCORE.SYSTEM>
0

>  <SCORE.SYSTEM.CONST>
0

>  <SCORE.SYSTEM.DIHEDRAL>
0

>  <SCORE.SYSTEM.SOLV>
0

>  <SCORE.SYSTEM.norm>
0

>  <SCORE.heavy>
24

>  <SCORE.norm>
-1.35536

>  <RMSD>
0.922

$$$$
ligand
 OpenBabel11021811493D
libRbt.so/2013.1/901 2013/11/27
 24 26  0  0  0  0  0  0  0  0999 V2000
    7.3566  -10.8153  -10.9624 N   0  0  0  0  0  0  0  0  0  0  0  0
    6.6892  -12.1069  -10.9905 C   0  0  0  0  0  0  0  0  0  0  0  0
   13.2802   -6.5202  -13.2759 O   0  0  0  0  0  0  0  0  0  0  0  0
   12.0656   -5.9579  -12.9066 C   0  0  0  0  0  0  0  0  0  0  0  0
    8.2489   -4.4041  -11.7764 N   0  0  0  0  0  0  0  0  0  0  0  0
   11.8121   -4.4803  -13.0452 C   0  0  0  0  0  0  0  0  0  0  0  0
    8.5431   -6.6161  -11.5198 N   0  0  0  0  0  0  0  0  0  0  0  0
   10.5588   -3.8798  -12.6977 C   0  0  0  0  0  0  0  0  0  0  0  0
    6.3149   -5.6810  -10.8586 N   0  0  0  0  0  0  0  0  0  0  0  0
    9.5407   -4.7612  -12.1877 C   0  0  0  0  0  0  0  0  0  0  0  0
   12.6159  -11.0165  -11.8188 N   0  0  0  0  0  0  0  0  0  0  0  0
    9.7749   -6.1723  -12.0358 C   0  0  0  0  0  0  0  0  0  0  0  0
   11.0894   -6.7551  -12.4208 C   0  0  0  0  0  0  0  0  0  0  0  0
    7.6479   -5.5616  -11.3748 C   0  0  0  0  0  0  0  0  0  0  0  0
   11.3142   -8.2473  -12.2624 C   0  0  0  0  0  0  0  0  0  0  0  0
   12.7543   -8.7092  -12.4579 C   0  0  1  0  0  0  0  0  0  0  0  0
   13.7294   -7.5672  -12.4898 C   0  0  0  0  0  0  0  0  0  0  0  0
   13.1251   -9.7257  -11.3886 C   0  0  0  0  0  0  0  0  0  0  0  0
    8.2148   -8.0295  -11.2517 C   0  0  0  0  0  0  0  0  0  0  0  0
   13.6655  -11.7035  -12.5592 C   0  0  0  0  0  0  0  0  0  0  0  0
   12.2806  -11.7743  -10.6234 C   0  0  0  0  0  0  0  0  0  0  0  0
    7.0371   -8.5991  -12.0613 C   0  0  0  0  0  0  0  0  0  0  0  0
    6.3965   -9.7396  -11.2482 C   0  0  0  0  0  0  0  0  0  0  0  0
    7.9630  -10.6474   -9.6466 C   0  0  0  0  0  0  0  0  0  0  0  0
  1 23  1  0  0  0  0
  1 24  1  0  0  0  0
  1  2  1  0  0  0  0
  3  4  1  0  0  0  0
  3 17  1  0  0  0  0
  4  6  2  0  0  0  0
  4 13  1  0  0  0  0
  5 10  1  0  0  0  0
  5 14  2  0  0  0  0
  6  8  1  0  0  0  0
  7 12  1  0  0  0  0
  7 14  1  0  0  0  0
  7 19  1  0  0  0  0
  8 10  2  0  0  0  0
  9 14  1  0  0  0  0
 10 12  1  0  0  0  0
 11 18  1  0  0  0  0
 11 20  1  0  0  0  0
 11 21  1  0  0  0  0
 12 13  2  0  0  0  0
 13 15  1  0  0  0  0
 15 16  1  0  0  0  0
 16 17  1  0  0  0  0
 16 18  1  1  0  0  0
 19 22  1  0  0  0  0
 22 23  1  0  0  0  0
M  END
>  <CHROM.1>
-144.56875318,-118.13664804,92.42828486,81.87363498,-152.82807598,-59.36896967
10.08470212,-8.03795827,-11.79980805,2.80711436,0.21431338,-0.18320665

>  <Name>
ligand

>  <RI>
144

>  <Rbt.Current_Directory>
/home/itssahil/PROJECTS/Mol_Feturizer/New_Systems/rnas/3TZR

>  <Rbt.Executable>
rbdock ($Id: //depot/dev/client3/rdock/2013.1/src/exe/rbdock.cxx#4 $)

>  <Rbt.Library>
libRbt.so (2013.1, Build901 2013/11/27)

>  <Rbt.Parameter_File>
/export/apps/rDock/src/rDock_2013.1_src/data/scripts/dock_solv.prm

>  <Rbt.Receptor>
prm/blind_docking_60.prm

>  <SCORE>
-30.591

>  <SCORE.INTER>
-22.4121

>  <SCORE.INTER.CONST>
1

>  <SCORE.INTER.POLAR>
0

>  <SCORE.INTER.ROT>
6

>  <SCORE.INTER.SOLV>
19.6101

>  <SCORE.INTER.VDW>
-29.0781

>  <SCORE.INTER.norm>
-0.933836

>  <SCORE.INTRA>
-8.1858

>  <SCORE.INTRA.DIHEDRAL>
3.01455

>  <SCORE.INTRA.DIHEDRAL.0>
4.94008

>  <SCORE.INTRA.POLAR>
0

>  <SCORE.INTRA.POLAR.0>
0

>  <SCORE.INTRA.REPUL>
0

>  <SCORE.INTRA.REPUL.0>
0

>  <SCORE.INTRA.SOLV>
1.26862

>  <SCORE.INTRA.SOLV.lig_0>
-31.4704

>  <SCORE.INTRA.VDW>
-10.3274

>  <SCORE.INTRA.VDW.0>
10.2807

>  <SCORE.INTRA.norm>
-0.341075

>  <SCORE.RESTR>
0.00687053

>  <SCORE.RESTR.CAVITY>
0.00687053

>  <SCORE.RESTR.norm>
0.000286272

>  <SCORE.SYSTEM>
0

>  <SCORE.SYSTEM.CONST>
0

>  <SCORE.SYSTEM.DIHEDRAL>
0

>  <SCORE.SYSTEM.SOLV>
0

>  <SCORE.SYSTEM.norm>
0

>  <SCORE.heavy>
24

>  <SCORE.norm>
-1.27462

>  <RMSD>
0.926

$$$$
ligand
 OpenBabel11021811493D
libRbt.so/2013.1/901 2013/11/27
 24 26  0  0  0  0  0  0  0  0999 V2000
    6.7991  -10.5945  -10.4803 N   0  0  0  0  0  0  0  0  0  0  0  0
    6.6258  -11.9069   -9.8789 C   0  0  0  0  0  0  0  0  0  0  0  0
   13.4117   -6.6425  -12.9632 O   0  0  0  0  0  0  0  0  0  0  0  0
   12.1841   -6.0460  -12.7082 C   0  0  0  0  0  0  0  0  0  0  0  0
    8.3218   -4.3825  -11.9504 N   0  0  0  0  0  0  0  0  0  0  0  0
   12.0082   -4.5526  -12.7832 C   0  0  0  0  0  0  0  0  0  0  0  0
    8.4945   -6.6170  -11.7998 N   0  0  0  0  0  0  0  0  0  0  0  0
   10.7464   -3.9150  -12.5521 C   0  0  0  0  0  0  0  0  0  0  0  0
    6.2406   -5.6180  -11.3543 N   0  0  0  0  0  0  0  0  0  0  0  0
    9.6392   -4.7756  -12.2248 C   0  0  0  0  0  0  0  0  0  0  0  0
   12.5308  -11.2023  -11.9320 N   0  0  0  0  0  0  0  0  0  0  0  0
    9.7970   -6.2025  -12.1348 C   0  0  0  0  0  0  0  0  0  0  0  0
   11.1248   -6.8231  -12.3945 C   0  0  0  0  0  0  0  0  0  0  0  0
    7.6307   -5.5317  -11.6977 C   0  0  0  0  0  0  0  0  0  0  0  0
   11.2693   -8.3308  -12.3043 C   0  0  0  0  0  0  0  0  0  0  0  0
   12.7031   -8.8478  -12.3536 C   0  0  1  0  0  0  0  0  0  0  0  0
   13.7190   -7.7529  -12.1960 C   0  0  0  0  0  0  0  0  0  0  0  0
   12.8990   -9.9404  -11.3135 C   0  0  0  0  0  0  0  0  0  0  0  0
    8.0800   -8.0265  -11.6625 C   0  0  0  0  0  0  0  0  0  0  0  0
   13.6939  -11.7300  -12.6324 C   0  0  0  0  0  0  0  0  0  0  0  0
   12.1425  -12.1139  -10.8672 C   0  0  0  0  0  0  0  0  0  0  0  0
    8.3793   -8.6732  -10.2991 C   0  0  0  0  0  0  0  0  0  0  0  0
    8.2139  -10.1981  -10.4392 C   0  0  0  0  0  0  0  0  0  0  0  0
    6.3065  -10.6561  -11.8518 C   0  0  0  0  0  0  0  0  0  0  0  0
  1 23  1  0  0  0  0
  1 24  1  0  0  0  0
  1  2  1  0  0  0  0
  3  4  1  0  0  0  0
  3 17  1  0  0  0  0
  4  6  2  0  0  0  0
  4 13  1  0  0  0  0
  5 10  1  0  0  0  0
  5 14  2  0  0  0  0
  6  8  1  0  0  0  0
  7 12  1  0  0  0  0
  7 14  1  0  0  0  0
  7 19  1  0  0  0  0
  8 10  2  0  0  0  0
  9 14  1  0  0  0  0
 10 12  1  0  0  0  0
 11 18  1  0  0  0  0
 11 20  1  0  0  0  0
 11 21  1  0  0  0  0
 12 13  2  0  0  0  0
 13 15  1  0  0  0  0
 15 16  1  0  0  0  0
 16 17  1  0  0  0  0
 16 18  1  1  0  0  0
 19 22  1  0  0  0  0
 22 23  1  0  0  0  0
M  END
>  <CHROM.1>
-148.18379625,83.29010452,86.14476797,87.89914213,-166.14542917,-75.79767435
10.11649155,-8.10601448,-11.75708849,1.29933394,-0.21046833,2.95496569

>  <Name>
ligand

>  <RI>
0

>  <Rbt.Current_Directory>
/home/itssahil/PROJECTS/Mol_Feturizer/New_Systems/rnas/3TZR

>  <Rbt.Executable>
rbdock ($Id: //depot/dev/client3/rdock/2013.1/src/exe/rbdock.cxx#4 $)

>  <Rbt.Library>
libRbt.so (2013.1, Build901 2013/11/27)

>  <Rbt.Parameter_File>
/export/apps/rDock/src/rDock_2013.1_src/data/scripts/dock_solv.prm

>  <Rbt.Receptor>
prm/pocket_docking_3.prm

>  <SCORE>
-34.0395

>  <SCORE.INTER>
-24.2518

>  <SCORE.INTER.CONST>
1

>  <SCORE.INTER.POLAR>
0

>  <SCORE.INTER.ROT>
6

>  <SCORE.INTER.SOLV>
20.093

>  <SCORE.INTER.VDW>
-30.4655

>  <SCORE.INTER.norm>
-1.01049

>  <SCORE.INTRA>
-9.78765

>  <SCORE.INTRA.DIHEDRAL>
2.52247

>  <SCORE.INTRA.DIHEDRAL.0>
4.94008

>  <SCORE.INTRA.POLAR>
0

>  <SCORE.INTRA.POLAR.0>
0

>  <SCORE.INTRA.REPUL>
0

>  <SCORE.INTRA.REPUL.0>
0

>  <SCORE.INTRA.SOLV>
-0.109519

>  <SCORE.INTRA.SOLV.lig_0>
-31.4704

>  <SCORE.INTRA.VDW>
-10.9941

>  <SCORE.INTRA.VDW.0>
10.2807

>  <SCORE.INTRA.norm>
-0.407819

>  <SCORE.RESTR>
0

>  <SCORE.RESTR.CAVITY>
0

>  <SCORE.RESTR.norm>
0

>  <SCORE.SYSTEM>
0

>  <SCORE.SYSTEM.CONST>
0

>  <SCORE.SYSTEM.DIHEDRAL>
0

>  <SCORE.SYSTEM.SOLV>
0

>  <SCORE.SYSTEM.norm>
0

>  <SCORE.heavy>
24

>  <SCORE.norm>
-1.41831

>  <RMSD>
0.931

$$$$
ligand
 OpenBabel11021811493D
libRbt.so/2013.1/901 2013/11/27
 24 26  0  0  0  0  0  0  0  0999 V2000
    6.6732  -10.9264  -10.0383 N   0  0  0  0  0  0  0  0  0  0  0  0
    7.7130  -11.7231   -9.4072 C   0  0  0  0  0  0  0  0  0  0  0  0
   13.1037   -5.7874  -12.8063 O   0  0  0  0  0  0  0  0  0  0  0  0
   11.7787   -5.4134  -12.6266 C   0  0  0  0  0  0  0  0  0  0  0  0
    7.6479   -4.4407  -12.1271 N   0  0  0  0  0  0  0  0  0  0  0  0
   11.3752   -3.9641  -12.5653 C   0  0  0  0  0  0  0  0  0  0  0  0
    8.1591   -6.6270  -12.1907 N   0  0  0  0  0  0  0  0  0  0  0  0
   10.0123   -3.5520  -12.4087 C   0  0  0  0  0  0  0  0  0  0  0  0
    5.7437   -6.0321  -11.8931 N   0  0  0  0  0  0  0  0  0  0  0  0
    9.0306   -4.5994  -12.2952 C   0  0  0  0  0  0  0  0  0  0  0  0
   12.4433  -10.4946  -12.2041 N   0  0  0  0  0  0  0  0  0  0  0  0
    9.4043   -5.9878  -12.3367 C   0  0  0  0  0  0  0  0  0  0  0  0
   10.8320   -6.3702  -12.5127 C   0  0  0  0  0  0  0  0  0  0  0  0
    7.1280   -5.7012  -12.0718 C   0  0  0  0  0  0  0  0  0  0  0  0
   11.2055   -7.8400  -12.5638 C   0  0  0  0  0  0  0  0  0  0  0  0
   12.7016   -8.1300  -12.5095 C   0  0  1  0  0  0  0  0  0  0  0  0
   13.5117   -6.9237  -12.1293 C   0  0  0  0  0  0  0  0  0  0  0  0
   12.9723   -9.2977  -11.5729 C   0  0  0  0  0  0  0  0  0  0  0  0
    7.9631   -8.0885  -12.2462 C   0  0  0  0  0  0  0  0  0  0  0  0
   13.4265  -10.9854  -13.1602 C   0  0  0  0  0  0  0  0  0  0  0  0
   12.2367  -11.4848  -11.1589 C   0  0  0  0  0  0  0  0  0  0  0  0
    7.4143   -8.7307  -10.9605 C   0  0  0  0  0  0  0  0  0  0  0  0
    7.2080  -10.2348  -11.2198 C   0  0  0  0  0  0  0  0  0  0  0  0
    5.5758  -11.8173  -10.3982 C   0  0  0  0  0  0  0  0  0  0  0  0
  1 23  1  0  0  0  0
  1 24  1  0  0  0  0
  1  2  1  0  0  0  0
  3  4  1  0  0  0  0
  3 17  1  0  0  0  0
  4  6  2  0  0  0  0
  4 13  1  0  0  0  0
  5 10  1  0  0  0  0
  5 14  2  0  0  0  0
  6  8  1  0  0  0  0
  7 12  1  0  0  0  0
  7 14  1  0  0  0  0
  7 19  1  0  0  0  0
  8 10  2  0  0  0  0
  9 14  1  0  0  0  0
 10 12  1  0  0  0  0
 11 18  1  0  0  0  0
 11 20  1  0  0  0  0
 11 21  1  0  0  0  0
 12 13  2  0  0  0  0
 13 15  1  0  0  0  0
 15 16  1  0  0  0  0
 16 17  1  0  0  0  0
 16 18  1  1  0  0  0
 19 22  1  0  0  0  0
 22 23  1  0  0  0  0
M  END
>  <CHROM.1>
-105.79453562,117.97613094,82.34743601,69.15896274,177.21447683,-179.57596408
9.80739639,-7.86180944,-11.86285936,-2.36384309,0.18910523,-0.21664886

>  <Name>
ligand

>  <RI>
0

>  <Rbt.Current_Directory>
/home/itssahil/PROJECTS/Mol_Feturizer/New_Systems/rnas/3TZR

>  <Rbt.Executable>
rbdock ($Id: //depot/dev/client3/rdock/2013.1/src/exe/rbdock.cxx#4 $)

>  <Rbt.Library>
libRbt.so (2013.1, Build901 2013/11/27)

>  <Rbt.Parameter_File>
/export/apps/rDock/src/rDock_2013.1_src/data/scripts/dock_solv.prm

>  <Rbt.Receptor>
prm/pocket_docking_7.prm

>  <SCORE>
-36.4526

>  <SCORE.INTER>
-25.5008

>  <SCORE.INTER.CONST>
1

>  <SCORE.INTER.POLAR>
0

>  <SCORE.INTER.ROT>
6

>  <SCORE.INTER.SOLV>
20.8393

>  <SCORE.INTER.VDW>
-31.547

>  <SCORE.INTER.norm>
-1.06254

>  <SCORE.INTRA>
-10.9555

>  <SCORE.INTRA.DIHEDRAL>
-0.555166

>  <SCORE.INTRA.DIHEDRAL.0>
4.94008

>  <SCORE.INTRA.POLAR>
0

>  <SCORE.INTRA.POLAR.0>
0

>  <SCORE.INTRA.REPUL>
0

>  <SCORE.INTRA.REPUL.0>
0

>  <SCORE.INTRA.SOLV>
0.590912

>  <SCORE.INTRA.SOLV.lig_0>
-31.4704

>  <SCORE.INTRA.VDW>
-10.9733

>  <SCORE.INTRA.VDW.0>
10.2807

>  <SCORE.INTRA.norm>
-0.456477

>  <SCORE.RESTR>
0.00366686

>  <SCORE.RESTR.CAVITY>
0.00366686

>  <SCORE.RESTR.norm>
0.000152786

>  <SCORE.SYSTEM>
0

>  <SCORE.SYSTEM.CONST>
0

>  <SCORE.SYSTEM.DIHEDRAL>
0

>  <SCORE.SYSTEM.SOLV>
0

>  <SCORE.SYSTEM.norm>
0

>  <SCORE.heavy>
24

>  <SCORE.norm>
-1.51886

>  <RMSD>
0.932

$$$$
ligand
 OpenBabel11021811493D
libRbt.so/2013.1/901 2013/11/27
 24 26  0  0  0  0  0  0  0  0999 V2000
    6.3616  -10.8597  -10.1935 N   0  0  0  0  0  0  0  0  0  0  0  0
    7.0579  -12.0455   -9.7209 C   0  0  0  0  0  0  0  0  0  0  0  0
   13.2068   -5.9081  -12.7106 O   0  0  0  0  0  0  0  0  0  0  0  0
   11.8894   -5.5029  -12.5437 C   0  0  0  0  0  0  0  0  0  0  0  0
    7.7780   -4.4322  -12.0859 N   0  0  0  0  0  0  0  0  0  0  0  0
   11.5212   -4.0447  -12.4733 C   0  0  0  0  0  0  0  0  0  0  0  0
    8.2356   -6.6299  -12.1645 N   0  0  0  0  0  0  0  0  0  0  0  0
   10.1671   -3.6001  -12.3295 C   0  0  0  0  0  0  0  0  0  0  0  0
    5.8321   -5.9777  -11.8910 N   0  0  0  0  0  0  0  0  0  0  0  0
    9.1584   -4.6238  -12.2384 C   0  0  0  0  0  0  0  0  0  0  0  0
   12.4396  -10.6061  -12.1709 N   0  0  0  0  0  0  0  0  0  0  0  0
    9.4980   -6.0206  -12.2888 C   0  0  0  0  0  0  0  0  0  0  0  0
   10.9179   -6.4369  -12.4508 C   0  0  0  0  0  0  0  0  0  0  0  0
    7.2264   -5.6798  -12.0493 C   0  0  0  0  0  0  0  0  0  0  0  0
   11.2554   -7.9149  -12.5116 C   0  0  0  0  0  0  0  0  0  0  0  0
   12.7430   -8.2426  -12.4416 C   0  0  1  0  0  0  0  0  0  0  0  0
   13.5780   -7.0605  -12.0397 C   0  0  0  0  0  0  0  0  0  0  0  0
   12.9728   -9.4255  -11.5131 C   0  0  0  0  0  0  0  0  0  0  0  0
    8.0041   -8.0854  -12.2366 C   0  0  0  0  0  0  0  0  0  0  0  0
   13.4712  -11.1561  -13.0397 C   0  0  0  0  0  0  0  0  0  0  0  0
   12.1043  -11.5698  -11.1344 C   0  0  0  0  0  0  0  0  0  0  0  0
    7.3390   -8.7107  -10.9983 C   0  0  0  0  0  0  0  0  0  0  0  0
    7.1288  -10.2126  -11.2673 C   0  0  0  0  0  0  0  0  0  0  0  0
    5.0399  -11.2656  -10.6580 C   0  0  0  0  0  0  0  0  0  0  0  0
  1 23  1  0  0  0  0
  1 24  1  0  0  0  0
  1  2  1  0  0  0  0
  3  4  1  0  0  0  0
  3 17  1  0  0  0  0
  4  6  2  0  0  0  0
  4 13  1  0  0  0  0
  5 10  1  0  0  0  0
  5 14  2  0  0  0  0
  6  8  1  0  0  0  0
  7 12  1  0  0  0  0
  7 14  1  0  0  0  0
  7 19  1  0  0  0  0
  8 10  2  0  0  0  0
  9 14  1  0  0  0  0
 10 12  1  0  0  0  0
 11 18  1  0  0  0  0
 11 20  1  0  0  0  0
 11 21  1  0  0  0  0
 12 13  2  0  0  0  0
 13 15  1  0  0  0  0
 15 16  1  0  0  0  0
 16 17  1  0  0  0  0
 16 18  1  1  0  0  0
 19 22  1  0  0  0  0
 22 23  1  0  0  0  0
M  END
>  <CHROM.1>
-128.67295920,121.78391846,86.28698724,69.96751622,177.94911795,-173.63360967
9.78460481,-7.89711569,-11.85575891,-2.54097746,0.16901464,-0.18451507

>  <Name>
ligand

>  <RI>
0

>  <Rbt.Current_Directory>
/home/itssahil/PROJECTS/Mol_Feturizer/New_Systems/rnas/3TZR

>  <Rbt.Executable>
rbdock ($Id: //depot/dev/client3/rdock/2013.1/src/exe/rbdock.cxx#4 $)

>  <Rbt.Library>
libRbt.so (2013.1, Build901 2013/11/27)

>  <Rbt.Parameter_File>
/export/apps/rDock/src/rDock_2013.1_src/data/scripts/dock_solv.prm

>  <Rbt.Receptor>
prm/blind_docking_100.prm

>  <SCORE>
-36.1769

>  <SCORE.INTER>
-25.3981

>  <SCORE.INTER.CONST>
1

>  <SCORE.INTER.POLAR>
0

>  <SCORE.INTER.ROT>
6

>  <SCORE.INTER.SOLV>
20.9033

>  <SCORE.INTER.VDW>
-31.4998

>  <SCORE.INTER.norm>
-1.05825

>  <SCORE.INTRA>
-10.7789

>  <SCORE.INTRA.DIHEDRAL>
0.0379685

>  <SCORE.INTRA.DIHEDRAL.0>
4.94008

>  <SCORE.INTRA.POLAR>
0

>  <SCORE.INTRA.POLAR.0>
0

>  <SCORE.INTRA.REPUL>
0

>  <SCORE.INTRA.REPUL.0>
0

>  <SCORE.INTRA.SOLV>
0.693491

>  <SCORE.INTRA.SOLV.lig_0>
-31.4704

>  <SCORE.INTRA.VDW>
-11.1446

>  <SCORE.INTRA.VDW.0>
10.2807

>  <SCORE.INTRA.norm>
-0.449119

>  <SCORE.RESTR>
0

>  <SCORE.RESTR.CAVITY>
0

>  <SCORE.RESTR.norm>
0

>  <SCORE.SYSTEM>
0

>  <SCORE.SYSTEM.CONST>
0

>  <SCORE.SYSTEM.DIHEDRAL>
0

>  <SCORE.SYSTEM.SOLV>
0

>  <SCORE.SYSTEM.norm>
0

>  <SCORE.heavy>
24

>  <SCORE.norm>
-1.50737

>  <RMSD>
0.934

$$$$
ligand
 OpenBabel11021811493D
libRbt.so/2013.1/901 2013/11/27
 24 26  0  0  0  0  0  0  0  0999 V2000
    6.4860  -10.9068  -10.1401 N   0  0  0  0  0  0  0  0  0  0  0  0
    7.4423  -11.8060   -9.5147 C   0  0  0  0  0  0  0  0  0  0  0  0
   13.1311   -5.8084  -12.7122 O   0  0  0  0  0  0  0  0  0  0  0  0
   11.8039   -5.4310  -12.5577 C   0  0  0  0  0  0  0  0  0  0  0  0
    7.6668   -4.4480  -12.1374 N   0  0  0  0  0  0  0  0  0  0  0  0
   11.4032   -3.9808  -12.5019 C   0  0  0  0  0  0  0  0  0  0  0  0
    8.1733   -6.6356  -12.1947 N   0  0  0  0  0  0  0  0  0  0  0  0
   10.0385   -3.5652  -12.3713 C   0  0  0  0  0  0  0  0  0  0  0  0
    5.7541   -6.0346  -11.9433 N   0  0  0  0  0  0  0  0  0  0  0  0
    9.0521   -4.6102  -12.2787 C   0  0  0  0  0  0  0  0  0  0  0  0
   12.5176  -10.5255  -12.1631 N   0  0  0  0  0  0  0  0  0  0  0  0
    9.4228   -5.9995  -12.3153 C   0  0  0  0  0  0  0  0  0  0  0  0
   10.8527   -6.3855  -12.4639 C   0  0  0  0  0  0  0  0  0  0  0  0
    7.1425   -5.7072  -12.0944 C   0  0  0  0  0  0  0  0  0  0  0  0
   11.2231   -7.8562  -12.5102 C   0  0  0  0  0  0  0  0  0  0  0  0
   12.7171   -8.1503  -12.4271 C   0  0  1  0  0  0  0  0  0  0  0  0
   13.5229   -6.9468  -12.0292 C   0  0  0  0  0  0  0  0  0  0  0  0
   12.9663   -9.3203  -11.4874 C   0  0  0  0  0  0  0  0  0  0  0  0
    7.9745   -8.0964  -12.2564 C   0  0  0  0  0  0  0  0  0  0  0  0
   13.5944  -11.0022  -13.0205 C   0  0  0  0  0  0  0  0  0  0  0  0
   12.2276  -11.5179  -11.1400 C   0  0  0  0  0  0  0  0  0  0  0  0
    7.3512   -8.7319  -11.0017 C   0  0  0  0  0  0  0  0  0  0  0  0
    7.1027  -10.2249  -11.2869 C   0  0  0  0  0  0  0  0  0  0  0  0
    5.3280  -11.6923  -10.5518 C   0  0  0  0  0  0  0  0  0  0  0  0
  1 23  1  0  0  0  0
  1 24  1  0  0  0  0
  1  2  1  0  0  0  0
  3  4  1  0  0  0  0
  3 17  1  0  0  0  0
  4  6  2  0  0  0  0
  4 13  1  0  0  0  0
  5 10  1  0  0  0  0
  5 14  2  0  0  0  0
  6  8  1  0  0  0  0
  7 12  1  0  0  0  0
  7 14  1  0  0  0  0
  7 19  1  0  0  0  0
  8 10  2  0  0  0  0
  9 14  1  0  0  0  0
 10 12  1  0  0  0  0
 11 18  1  0  0  0  0
 11 20  1  0  0  0  0
 11 21  1  0  0  0  0
 12 13  2  0  0  0  0
 13 15  1  0  0  0  0
 15 16  1  0  0  0  0
 16 17  1  0  0  0  0
 16 18  1  1  0  0  0
 19 22  1  0  0  0  0
 22 23  1  0  0  0  0
M  END
>  <CHROM.1>
-109.07612412,120.11881336,84.54993241,72.41988147,175.04046782,-179.11920528
9.78979184,-7.87124502,-11.85130401,-2.47553801,0.16557372,-0.20539765

>  <Name>
ligand

>  <RI>
0

>  <Rbt.Current_Directory>
/home/itssahil/PROJECTS/Mol_Feturizer/New_Systems/rnas/3TZR

>  <Rbt.Executable>
rbdock ($Id: //depot/dev/client3/rdock/2013.1/src/exe/rbdock.cxx#4 $)

>  <Rbt.Library>
libRbt.so (2013.1, Build901 2013/11/27)

>  <Rbt.Parameter_File>
/export/apps/rDock/src/rDock_2013.1_src/data/scripts/dock_solv.prm

>  <Rbt.Receptor>
prm/pocket_docking_2.prm

>  <SCORE>
-36.4635

>  <SCORE.INTER>
-25.6796

>  <SCORE.INTER.CONST>
1

>  <SCORE.INTER.POLAR>
0

>  <SCORE.INTER.ROT>
6

>  <SCORE.INTER.SOLV>
20.7937

>  <SCORE.INTER.VDW>
-31.6509

>  <SCORE.INTER.norm>
-1.06998

>  <SCORE.INTRA>
-10.7839

>  <SCORE.INTRA.DIHEDRAL>
-0.0210826

>  <SCORE.INTRA.DIHEDRAL.0>
4.94008

>  <SCORE.INTRA.POLAR>
0

>  <SCORE.INTRA.POLAR.0>
0

>  <SCORE.INTRA.REPUL>
0

>  <SCORE.INTRA.REPUL.0>
0

>  <SCORE.INTRA.SOLV>
0.67952

>  <SCORE.INTRA.SOLV.lig_0>
-31.4704

>  <SCORE.INTRA.VDW>
-11.1131

>  <SCORE.INTRA.VDW.0>
10.2807

>  <SCORE.INTRA.norm>
-0.449329

>  <SCORE.RESTR>
0

>  <SCORE.RESTR.CAVITY>
0

>  <SCORE.RESTR.norm>
0

>  <SCORE.SYSTEM>
0

>  <SCORE.SYSTEM.CONST>
0

>  <SCORE.SYSTEM.DIHEDRAL>
0

>  <SCORE.SYSTEM.SOLV>
0

>  <SCORE.SYSTEM.norm>
0

>  <SCORE.heavy>
24

>  <SCORE.norm>
-1.51931

>  <RMSD>
0.935

$$$$
ligand
 OpenBabel11021811493D
libRbt.so/2013.1/901 2013/11/27
 24 26  0  0  0  0  0  0  0  0999 V2000
    6.3239  -10.8391  -10.1651 N   0  0  0  0  0  0  0  0  0  0  0  0
    7.0531  -11.9726   -9.6194 C   0  0  0  0  0  0  0  0  0  0  0  0
   13.1921   -5.9215  -12.7800 O   0  0  0  0  0  0  0  0  0  0  0  0
   11.8703   -5.5235  -12.6315 C   0  0  0  0  0  0  0  0  0  0  0  0
    7.7473   -4.4770  -12.2255 N   0  0  0  0  0  0  0  0  0  0  0  0
   11.4887   -4.0672  -12.6072 C   0  0  0  0  0  0  0  0  0  0  0  0
    8.2249   -6.6718  -12.2350 N   0  0  0  0  0  0  0  0  0  0  0  0
   10.1299   -3.6309  -12.4833 C   0  0  0  0  0  0  0  0  0  0  0  0
    5.8144   -6.0336  -11.9925 N   0  0  0  0  0  0  0  0  0  0  0  0
    9.1301   -4.6605  -12.3657 C   0  0  0  0  0  0  0  0  0  0  0  0
   12.5175  -10.6168  -12.1248 N   0  0  0  0  0  0  0  0  0  0  0  0
    9.4824   -6.0550  -12.3720 C   0  0  0  0  0  0  0  0  0  0  0  0
   10.9068   -6.4630  -12.5147 C   0  0  0  0  0  0  0  0  0  0  0  0
    7.2067   -5.7279  -12.1535 C   0  0  0  0  0  0  0  0  0  0  0  0
   11.2579   -7.9391  -12.5290 C   0  0  0  0  0  0  0  0  0  0  0  0
   12.7481   -8.2509  -12.4422 C   0  0  1  0  0  0  0  0  0  0  0  0
   13.5704   -7.0496  -12.0726 C   0  0  0  0  0  0  0  0  0  0  0  0
   12.9839   -9.4029  -11.4771 C   0  0  0  0  0  0  0  0  0  0  0  0
    8.0069   -8.1309  -12.2639 C   0  0  0  0  0  0  0  0  0  0  0  0
   13.5938  -11.1397  -12.9555 C   0  0  0  0  0  0  0  0  0  0  0  0
   12.1945  -11.5740  -11.0784 C   0  0  0  0  0  0  0  0  0  0  0  0
    7.3401   -8.7241  -11.0108 C   0  0  0  0  0  0  0  0  0  0  0  0
    7.0861  -10.2226  -11.2602 C   0  0  0  0  0  0  0  0  0  0  0  0
    5.0253  -11.3160  -10.6272 C   0  0  0  0  0  0  0  0  0  0  0  0
  1 23  1  0  0  0  0
  1 24  1  0  0  0  0
  1  2  1  0  0  0  0
  3  4  1  0  0  0  0
  3 17  1  0  0  0  0
  4  6  2  0  0  0  0
  4 13  1  0  0  0  0
  5 10  1  0  0  0  0
  5 14  2  0  0  0  0
  6  8  1  0  0  0  0
  7 12  1  0  0  0  0
  7 14  1  0  0  0  0
  7 19  1  0  0  0  0
  8 10  2  0  0  0  0
  9 14  1  0  0  0  0
 10 12  1  0  0  0  0
 11 18  1  0  0  0  0
 11 20  1  0  0  0  0
 11 21  1  0  0  0  0
 12 13  2  0  0  0  0
 13 15  1  0  0  0  0
 15 16  1  0  0  0  0
 16 17  1  0  0  0  0
 16 18  1  1  0  0  0
 19 22  1  0  0  0  0
 22 23  1  0  0  0  0
M  END
>  <CHROM.1>
-123.92002386,121.84437209,85.53324543,72.39693047,175.38854096,-174.08681825
9.78476427,-7.91278307,-11.88646660,-2.57041856,0.16223464,-0.21403637

>  <Name>
ligand

>  <RI>
0

>  <Rbt.Current_Directory>
/home/itssahil/PROJECTS/Mol_Feturizer/New_Systems/rnas/3TZR

>  <Rbt.Executable>
rbdock ($Id: //depot/dev/client3/rdock/2013.1/src/exe/rbdock.cxx#4 $)

>  <Rbt.Library>
libRbt.so (2013.1, Build901 2013/11/27)

>  <Rbt.Parameter_File>
/export/apps/rDock/src/rDock_2013.1_src/data/scripts/dock_solv.prm

>  <Rbt.Receptor>
prm/pocket_docking_5.prm

>  <SCORE>
-36.1136

>  <SCORE.INTER>
-25.4809

>  <SCORE.INTER.CONST>
1

>  <SCORE.INTER.POLAR>
0

>  <SCORE.INTER.ROT>
6

>  <SCORE.INTER.SOLV>
21.0445

>  <SCORE.INTER.VDW>
-31.6021

>  <SCORE.INTER.norm>
-1.0617

>  <SCORE.INTRA>
-10.6327

>  <SCORE.INTRA.DIHEDRAL>
0.307285

>  <SCORE.INTRA.DIHEDRAL.0>
4.94008

>  <SCORE.INTRA.POLAR>
0

>  <SCORE.INTRA.POLAR.0>
0

>  <SCORE.INTRA.REPUL>
0

>  <SCORE.INTRA.REPUL.0>
0

>  <SCORE.INTRA.SOLV>
0.725586

>  <SCORE.INTRA.SOLV.lig_0>
-31.4704

>  <SCORE.INTRA.VDW>
-11.1491

>  <SCORE.INTRA.VDW.0>
10.2807

>  <SCORE.INTRA.norm>
-0.443028

>  <SCORE.RESTR>
0

>  <SCORE.RESTR.CAVITY>
0

>  <SCORE.RESTR.norm>
0

>  <SCORE.SYSTEM>
0

>  <SCORE.SYSTEM.CONST>
0

>  <SCORE.SYSTEM.DIHEDRAL>
0

>  <SCORE.SYSTEM.SOLV>
0

>  <SCORE.SYSTEM.norm>
0

>  <SCORE.heavy>
24

>  <SCORE.norm>
-1.50473

>  <RMSD>
0.935

$$$$
ligand
 OpenBabel11021811493D
libRbt.so/2013.1/901 2013/11/27
 24 26  0  0  0  0  0  0  0  0999 V2000
    8.4798  -10.9920   -9.6601 N   0  0  0  0  0  0  0  0  0  0  0  0
    8.0772  -12.3324  -10.0542 C   0  0  0  0  0  0  0  0  0  0  0  0
   13.5286   -7.4362  -13.0534 O   0  0  0  0  0  0  0  0  0  0  0  0
   12.4488   -6.6111  -12.7691 C   0  0  0  0  0  0  0  0  0  0  0  0
    9.0082   -4.2241  -11.9182 N   0  0  0  0  0  0  0  0  0  0  0  0
   12.5675   -5.1120  -12.8430 C   0  0  0  0  0  0  0  0  0  0  0  0
    8.7428   -6.4495  -11.7669 N   0  0  0  0  0  0  0  0  0  0  0  0
   11.4615   -4.2399  -12.5817 C   0  0  0  0  0  0  0  0  0  0  0  0
    6.7407   -5.0289  -11.2672 N   0  0  0  0  0  0  0  0  0  0  0  0
   10.2156   -4.8674  -12.2248 C   0  0  0  0  0  0  0  0  0  0  0  0
   13.3762  -11.5760  -11.8228 N   0  0  0  0  0  0  0  0  0  0  0  0
   10.0925   -6.2977  -12.1355 C   0  0  0  0  0  0  0  0  0  0  0  0
   11.2657   -7.1662  -12.4271 C   0  0  0  0  0  0  0  0  0  0  0  0
    8.1116   -5.2161  -11.6457 C   0  0  0  0  0  0  0  0  0  0  0  0
   11.1137   -8.6731  -12.3371 C   0  0  0  0  0  0  0  0  0  0  0  0
   12.4165   -9.4613  -12.4213 C   0  0  1  0  0  0  0  0  0  0  0  0
   13.6312   -8.5874  -12.2917 C   0  0  0  0  0  0  0  0  0  0  0  0
   12.4203  -10.5739  -11.3839 C   0  0  0  0  0  0  0  0  0  0  0  0
    8.0634   -7.7506  -11.6161 C   0  0  0  0  0  0  0  0  0  0  0  0
   13.5860  -12.5217  -10.7349 C   0  0  0  0  0  0  0  0  0  0  0  0
   12.7956  -12.2626  -12.9661 C   0  0  0  0  0  0  0  0  0  0  0  0
    8.5735   -8.6325  -10.4634 C   0  0  0  0  0  0  0  0  0  0  0  0
    7.8565   -9.9935  -10.5403 C   0  0  0  0  0  0  0  0  0  0  0  0
    8.0862  -10.7912   -8.2701 C   0  0  0  0  0  0  0  0  0  0  0  0
  1 23  1  0  0  0  0
  1 24  1  0  0  0  0
  1  2  1  0  0  0  0
  3  4  1  0  0  0  0
  3 17  1  0  0  0  0
  4  6  2  0  0  0  0
  4 13  1  0  0  0  0
  5 10  1  0  0  0  0
  5 14  2  0  0  0  0
  6  8  1  0  0  0  0
  7 12  1  0  0  0  0
  7 14  1  0  0  0  0
  7 19  1  0  0  0  0
  8 10  2  0  0  0  0
  9 14  1  0  0  0  0
 10 12  1  0  0  0  0
 11 18  1  0  0  0  0
 11 20  1  0  0  0  0
 11 21  1  0  0  0  0
 12 13  2  0  0  0  0
 13 15  1  0  0  0  0
 15 16  1  0  0  0  0
 16 17  1  0  0  0  0
 16 18  1  1  0  0  0
 19 22  1  0  0  0  0
 22 23  1  0  0  0  0
M  END
>  <CHROM.1>
-162.00456507,66.13234935,169.43040040,158.26753450,-174.49198767,167.98339825
10.52626386,-8.34822715,-11.59348622,1.19750018,-0.37420781,2.86568987

>  <Name>
ligand

>  <RI>
0

>  <Rbt.Current_Directory>
/home/itssahil/PROJECTS/Mol_Feturizer/New_Systems/rnas/3TZR

>  <Rbt.Executable>
rbdock ($Id: //depot/dev/client3/rdock/2013.1/src/exe/rbdock.cxx#4 $)

>  <Rbt.Library>
libRbt.so (2013.1, Build901 2013/11/27)

>  <Rbt.Parameter_File>
/export/apps/rDock/src/rDock_2013.1_src/data/scripts/dock_solv.prm

>  <Rbt.Receptor>
prm/pocket_docking_2.prm

>  <SCORE>
-32.5756

>  <SCORE.INTER>
-23.0581

>  <SCORE.INTER.CONST>
1

>  <SCORE.INTER.POLAR>
-0.515402

>  <SCORE.INTER.ROT>
6

>  <SCORE.INTER.SOLV>
21.5665

>  <SCORE.INTER.VDW>
-28.4429

>  <SCORE.INTER.norm>
-0.960755

>  <SCORE.INTRA>
-10.0276

>  <SCORE.INTRA.DIHEDRAL>
-0.772836

>  <SCORE.INTRA.DIHEDRAL.0>
4.94008

>  <SCORE.INTRA.POLAR>
0

>  <SCORE.INTRA.POLAR.0>
0

>  <SCORE.INTRA.REPUL>
0

>  <SCORE.INTRA.REPUL.0>
0

>  <SCORE.INTRA.SOLV>
-0.393729

>  <SCORE.INTRA.SOLV.lig_0>
-31.4704

>  <SCORE.INTRA.VDW>
-9.44427

>  <SCORE.INTRA.VDW.0>
10.2807

>  <SCORE.INTRA.norm>
-0.417815

>  <SCORE.RESTR>
0.510107

>  <SCORE.RESTR.CAVITY>
0.510107

>  <SCORE.RESTR.norm>
0.0212544

>  <SCORE.SYSTEM>
0

>  <SCORE.SYSTEM.CONST>
0

>  <SCORE.SYSTEM.DIHEDRAL>
0

>  <SCORE.SYSTEM.SOLV>
0

>  <SCORE.SYSTEM.norm>
0

>  <SCORE.heavy>
24

>  <SCORE.norm>
-1.35732

>  <RMSD>
0.942

$$$$
ligand
 OpenBabel11021811493D
libRbt.so/2013.1/901 2013/11/27
 24 26  0  0  0  0  0  0  0  0999 V2000
    7.2141  -10.9439   -9.5295 N   0  0  0  0  0  0  0  0  0  0  0  0
    8.2442  -11.4446   -8.6338 C   0  0  0  0  0  0  0  0  0  0  0  0
   13.2539   -5.8904  -13.1131 O   0  0  0  0  0  0  0  0  0  0  0  0
   11.9596   -5.5046  -12.7911 C   0  0  0  0  0  0  0  0  0  0  0  0
    7.9166   -4.4962  -11.8442 N   0  0  0  0  0  0  0  0  0  0  0  0
   11.5723   -4.0519  -12.7103 C   0  0  0  0  0  0  0  0  0  0  0  0
    8.4073   -6.6867  -11.9264 N   0  0  0  0  0  0  0  0  0  0  0  0
   10.2378   -3.6281  -12.4076 C   0  0  0  0  0  0  0  0  0  0  0  0
    6.0440   -6.0708  -11.3676 N   0  0  0  0  0  0  0  0  0  0  0  0
    9.2706   -4.6669  -12.1650 C   0  0  0  0  0  0  0  0  0  0  0  0
   12.8749  -10.6102  -12.4839 N   0  0  0  0  0  0  0  0  0  0  0  0
    9.6308   -6.0583  -12.2239 C   0  0  0  0  0  0  0  0  0  0  0  0
   11.0276   -6.4531  -12.5536 C   0  0  0  0  0  0  0  0  0  0  0  0
    7.4006   -5.7521  -11.7079 C   0  0  0  0  0  0  0  0  0  0  0  0
   11.3861   -7.9259  -12.6205 C   0  0  0  0  0  0  0  0  0  0  0  0
   12.8774   -8.2248  -12.7309 C   0  0  1  0  0  0  0  0  0  0  0  0
   13.7309   -7.0175  -12.4665 C   0  0  0  0  0  0  0  0  0  0  0  0
   13.2471   -9.3780  -11.8103 C   0  0  0  0  0  0  0  0  0  0  0  0
    8.1995   -8.1475  -11.9333 C   0  0  0  0  0  0  0  0  0  0  0  0
   14.0920  -11.3102  -12.8718 C   0  0  0  0  0  0  0  0  0  0  0  0
   12.1244  -11.4174  -11.5349 C   0  0  0  0  0  0  0  0  0  0  0  0
    7.6804   -8.7472  -10.6150 C   0  0  0  0  0  0  0  0  0  0  0  0
    7.8263  -10.2787  -10.6885 C   0  0  0  0  0  0  0  0  0  0  0  0
    6.3861  -12.0713   -9.9429 C   0  0  0  0  0  0  0  0  0  0  0  0
  1 23  1  0  0  0  0
  1 24  1  0  0  0  0
  1  2  1  0  0  0  0
  3  4  1  0  0  0  0
  3 17  1  0  0  0  0
  4  6  2  0  0  0  0
  4 13  1  0  0  0  0
  5 10  1  0  0  0  0
  5 14  2  0  0  0  0
  6  8  1  0  0  0  0
  7 12  1  0  0  0  0
  7 14  1  0  0  0  0
  7 19  1  0  0  0  0
  8 10  2  0  0  0  0
  9 14  1  0  0  0  0
 10 12  1  0  0  0  0
 11 18  1  0  0  0  0
 11 20  1  0  0  0  0
 11 21  1  0  0  0  0
 12 13  2  0  0  0  0
 13 15  1  0  0  0  0
 15 16  1  0  0  0  0
 16 17  1  0  0  0  0
 16 18  1  1  0  0  0
 19 22  1  0  0  0  0
 22 23  1  0  0  0  0
M  END
>  <CHROM.1>
-106.75586285,123.02335489,110.11779770,80.13314981,-167.28301170,-173.58212845
10.11863043,-7.92915825,-11.74520363,-2.31532114,0.30098002,-0.24982624

>  <Name>
ligand

>  <RI>
0

>  <Rbt.Current_Directory>
/home/itssahil/PROJECTS/Mol_Feturizer/New_Systems/rnas/3TZR

>  <Rbt.Executable>
rbdock ($Id: //depot/dev/client3/rdock/2013.1/src/exe/rbdock.cxx#4 $)

>  <Rbt.Library>
libRbt.so (2013.1, Build901 2013/11/27)

>  <Rbt.Parameter_File>
/export/apps/rDock/src/rDock_2013.1_src/data/scripts/dock_solv.prm

>  <Rbt.Receptor>
prm/blind_docking_40.prm

>  <SCORE>
-34.8826

>  <SCORE.INTER>
-24.706

>  <SCORE.INTER.CONST>
1

>  <SCORE.INTER.POLAR>
0

>  <SCORE.INTER.ROT>
6

>  <SCORE.INTER.SOLV>
19.5817

>  <SCORE.INTER.VDW>
-30.5979

>  <SCORE.INTER.norm>
-1.02942

>  <SCORE.INTRA>
-10.1905

>  <SCORE.INTRA.DIHEDRAL>
2.68381

>  <SCORE.INTRA.DIHEDRAL.0>
4.94008

>  <SCORE.INTRA.POLAR>
0

>  <SCORE.INTRA.POLAR.0>
0

>  <SCORE.INTRA.REPUL>
0

>  <SCORE.INTRA.REPUL.0>
0

>  <SCORE.INTRA.SOLV>
0.552838

>  <SCORE.INTRA.SOLV.lig_0>
-31.4704

>  <SCORE.INTRA.VDW>
-11.8088

>  <SCORE.INTRA.VDW.0>
10.2807

>  <SCORE.INTRA.norm>
-0.424603

>  <SCORE.RESTR>
0.0138633

>  <SCORE.RESTR.CAVITY>
0.0138633

>  <SCORE.RESTR.norm>
0.000577638

>  <SCORE.SYSTEM>
0

>  <SCORE.SYSTEM.CONST>
0

>  <SCORE.SYSTEM.DIHEDRAL>
0

>  <SCORE.SYSTEM.SOLV>
0

>  <SCORE.SYSTEM.norm>
0

>  <SCORE.heavy>
24

>  <SCORE.norm>
-1.45344

>  <RMSD>
0.946

$$$$
ligand
 OpenBabel11021811493D
libRbt.so/2013.1/901 2013/11/27
 24 26  0  0  0  0  0  0  0  0999 V2000
    7.1795  -11.0457  -11.0788 N   0  0  0  0  0  0  0  0  0  0  0  0
    6.1899  -11.8899  -11.7286 C   0  0  0  0  0  0  0  0  0  0  0  0
   13.2464   -6.0659  -12.9375 O   0  0  0  0  0  0  0  0  0  0  0  0
   11.9419   -5.6263  -12.7560 C   0  0  0  0  0  0  0  0  0  0  0  0
    7.8663   -4.4534  -12.2340 N   0  0  0  0  0  0  0  0  0  0  0  0
   11.5939   -4.1624  -12.8101 C   0  0  0  0  0  0  0  0  0  0  0  0
    8.2948   -6.6555  -12.1212 N   0  0  0  0  0  0  0  0  0  0  0  0
   10.2523   -3.6853  -12.6539 C   0  0  0  0  0  0  0  0  0  0  0  0
    5.9127   -5.9432  -11.8127 N   0  0  0  0  0  0  0  0  0  0  0  0
    9.2367   -4.6800  -12.4241 C   0  0  0  0  0  0  0  0  0  0  0  0
   12.5783  -10.7054  -11.9811 N   0  0  0  0  0  0  0  0  0  0  0  0
    9.5577   -6.0804  -12.3549 C   0  0  0  0  0  0  0  0  0  0  0  0
   10.9646   -6.5321  -12.5346 C   0  0  0  0  0  0  0  0  0  0  0  0
    7.3023   -5.6833  -12.0559 C   0  0  0  0  0  0  0  0  0  0  0  0
   11.2822   -8.0142  -12.4679 C   0  0  0  0  0  0  0  0  0  0  0  0
   12.7676   -8.3568  -12.4281 C   0  0  1  0  0  0  0  0  0  0  0  0
   13.6324   -7.1550  -12.1755 C   0  0  0  0  0  0  0  0  0  0  0  0
   13.0229   -9.4497  -11.4012 C   0  0  0  0  0  0  0  0  0  0  0  0
    8.0437   -8.1076  -12.0445 C   0  0  0  0  0  0  0  0  0  0  0  0
   13.6396  -11.2206  -12.8355 C   0  0  0  0  0  0  0  0  0  0  0  0
   12.3358  -11.6310  -10.8857 C   0  0  0  0  0  0  0  0  0  0  0  0
    7.7023   -8.6459  -10.6444 C   0  0  0  0  0  0  0  0  0  0  0  0
    6.6098   -9.7216  -10.7917 C   0  0  0  0  0  0  0  0  0  0  0  0
    7.6107  -11.7128   -9.8554 C   0  0  0  0  0  0  0  0  0  0  0  0
  1 23  1  0  0  0  0
  1 24  1  0  0  0  0
  1  2  1  0  0  0  0
  3  4  1  0  0  0  0
  3 17  1  0  0  0  0
  4  6  2  0  0  0  0
  4 13  1  0  0  0  0
  5 10  1  0  0  0  0
  5 14  2  0  0  0  0
  6  8  1  0  0  0  0
  7 12  1  0  0  0  0
  7 14  1  0  0  0  0
  7 19  1  0  0  0  0
  8 10  2  0  0  0  0
  9 14  1  0  0  0  0
 10 12  1  0  0  0  0
 11 18  1  0  0  0  0
 11 20  1  0  0  0  0
 11 21  1  0  0  0  0
 12 13  2  0  0  0  0
 13 15  1  0  0  0  0
 15 16  1  0  0  0  0
 16 17  1  0  0  0  0
 16 18  1  1  0  0  0
 19 22  1  0  0  0  0
 22 23  1  0  0  0  0
M  END
>  <CHROM.1>
-157.09221112,109.68790357,82.71649229,75.98129284,141.17345530,85.70788257
9.95268927,-7.94758815,-11.93170792,-2.35874526,0.14518195,-0.19474281

>  <Name>
ligand

>  <RI>
0

>  <Rbt.Current_Directory>
/home/itssahil/PROJECTS/Mol_Feturizer/New_Systems/rnas/3TZR

>  <Rbt.Executable>
rbdock ($Id: //depot/dev/client3/rdock/2013.1/src/exe/rbdock.cxx#4 $)

>  <Rbt.Library>
libRbt.so (2013.1, Build901 2013/11/27)

>  <Rbt.Parameter_File>
/export/apps/rDock/src/rDock_2013.1_src/data/scripts/dock_solv.prm

>  <Rbt.Receptor>
prm/pocket_docking_6.prm

>  <SCORE>
-32.7468

>  <SCORE.INTER>
-24.906

>  <SCORE.INTER.CONST>
1

>  <SCORE.INTER.POLAR>
0

>  <SCORE.INTER.ROT>
6

>  <SCORE.INTER.SOLV>
19.6925

>  <SCORE.INTER.VDW>
-30.7682

>  <SCORE.INTER.norm>
-1.03775

>  <SCORE.INTRA>
-7.8408

>  <SCORE.INTRA.DIHEDRAL>
4.85473

>  <SCORE.INTRA.DIHEDRAL.0>
4.94008

>  <SCORE.INTRA.POLAR>
0

>  <SCORE.INTRA.POLAR.0>
0

>  <SCORE.INTRA.REPUL>
0

>  <SCORE.INTRA.REPUL.0>
0

>  <SCORE.INTRA.SOLV>
1.09378

>  <SCORE.INTRA.SOLV.lig_0>
-31.4704

>  <SCORE.INTRA.VDW>
-10.8151

>  <SCORE.INTRA.VDW.0>
10.2807

>  <SCORE.INTRA.norm>
-0.3267

>  <SCORE.RESTR>
0

>  <SCORE.RESTR.CAVITY>
0

>  <SCORE.RESTR.norm>
0

>  <SCORE.SYSTEM>
0

>  <SCORE.SYSTEM.CONST>
0

>  <SCORE.SYSTEM.DIHEDRAL>
0

>  <SCORE.SYSTEM.SOLV>
0

>  <SCORE.SYSTEM.norm>
0

>  <SCORE.heavy>
24

>  <SCORE.norm>
-1.36445

>  <RMSD>
0.946

$$$$
ligand
 OpenBabel11021811493D
libRbt.so/2013.1/901 2013/11/27
 24 26  0  0  0  0  0  0  0  0999 V2000
    7.2124  -10.8725  -11.1932 N   0  0  0  0  0  0  0  0  0  0  0  0
    6.4665  -12.1197  -11.2414 C   0  0  0  0  0  0  0  0  0  0  0  0
   13.2616   -6.4609  -13.2351 O   0  0  0  0  0  0  0  0  0  0  0  0
   12.0408   -5.9170  -12.8588 C   0  0  0  0  0  0  0  0  0  0  0  0
    8.2053   -4.4196  -11.7161 N   0  0  0  0  0  0  0  0  0  0  0  0
   11.7860   -4.4351  -12.9367 C   0  0  0  0  0  0  0  0  0  0  0  0
    8.5007   -6.6403  -11.5516 N   0  0  0  0  0  0  0  0  0  0  0  0
   10.5267   -3.8523  -12.5812 C   0  0  0  0  0  0  0  0  0  0  0  0
    6.2614   -5.7382  -10.8819 N   0  0  0  0  0  0  0  0  0  0  0  0
    9.5034   -4.7566  -12.1243 C   0  0  0  0  0  0  0  0  0  0  0  0
   12.5022  -10.9988  -11.9355 N   0  0  0  0  0  0  0  0  0  0  0  0
    9.7386   -6.1725  -12.0305 C   0  0  0  0  0  0  0  0  0  0  0  0
   11.0595   -6.7361  -12.4218 C   0  0  0  0  0  0  0  0  0  0  0  0
    7.6012   -5.5944  -11.3737 C   0  0  0  0  0  0  0  0  0  0  0  0
   11.2854   -8.2333  -12.3251 C   0  0  0  0  0  0  0  0  0  0  0  0
   12.7291   -8.6841  -12.5202 C   0  0  1  0  0  0  0  0  0  0  0  0
   13.7020   -7.5403  -12.4888 C   0  0  0  0  0  0  0  0  0  0  0  0
   13.0871   -9.7455  -11.4909 C   0  0  0  0  0  0  0  0  0  0  0  0
    8.1716   -8.0644  -11.3497 C   0  0  0  0  0  0  0  0  0  0  0  0
   13.4961  -11.7197  -12.7194 C   0  0  0  0  0  0  0  0  0  0  0  0
   12.1606  -11.7669  -10.7485 C   0  0  0  0  0  0  0  0  0  0  0  0
    7.0327   -8.6102  -12.2282 C   0  0  0  0  0  0  0  0  0  0  0  0
    6.3194   -9.7345  -11.4538 C   0  0  0  0  0  0  0  0  0  0  0  0
    7.8339  -10.7670   -9.8779 C   0  0  0  0  0  0  0  0  0  0  0  0
  1 23  1  0  0  0  0
  1 24  1  0  0  0  0
  1  2  1  0  0  0  0
  3  4  1  0  0  0  0
  3 17  1  0  0  0  0
  4  6  2  0  0  0  0
  4 13  1  0  0  0  0
  5 10  1  0  0  0  0
  5 14  2  0  0  0  0
  6  8  1  0  0  0  0
  7 12  1  0  0  0  0
  7 14  1  0  0  0  0
  7 19  1  0  0  0  0
  8 10  2  0  0  0  0
  9 14  1  0  0  0  0
 10 12  1  0  0  0  0
 11 18  1  0  0  0  0
 11 20  1  0  0  0  0
 11 21  1  0  0  0  0
 12 13  2  0  0  0  0
 13 15  1  0  0  0  0
 15 16  1  0  0  0  0
 16 17  1  0  0  0  0
 16 18  1  1  0  0  0
 19 22  1  0  0  0  0
 22 23  1  0  0  0  0
M  END
>  <CHROM.1>
-145.55496930,-116.49778745,92.95160151,77.77955422,-149.87286083,-63.44341961
10.01842279,-8.04339576,-11.86484983,-2.97157592,0.19726173,-0.14074390

>  <Name>
ligand

>  <RI>
0

>  <Rbt.Current_Directory>
/home/itssahil/PROJECTS/Mol_Feturizer/New_Systems/rnas/3TZR

>  <Rbt.Executable>
rbdock ($Id: //depot/dev/client3/rdock/2013.1/src/exe/rbdock.cxx#4 $)

>  <Rbt.Library>
libRbt.so (2013.1, Build901 2013/11/27)

>  <Rbt.Parameter_File>
/export/apps/rDock/src/rDock_2013.1_src/data/scripts/dock_solv.prm

>  <Rbt.Receptor>
prm/pocket_docking_4.prm

>  <SCORE>
-31.6203

>  <SCORE.INTER>
-23.3145

>  <SCORE.INTER.CONST>
1

>  <SCORE.INTER.POLAR>
0

>  <SCORE.INTER.ROT>
6

>  <SCORE.INTER.SOLV>
19.5492

>  <SCORE.INTER.VDW>
-29.6594

>  <SCORE.INTER.norm>
-0.971438

>  <SCORE.INTRA>
-8.30575

>  <SCORE.INTRA.DIHEDRAL>
2.97663

>  <SCORE.INTRA.DIHEDRAL.0>
4.94008

>  <SCORE.INTRA.POLAR>
0

>  <SCORE.INTRA.POLAR.0>
0

>  <SCORE.INTRA.REPUL>
0

>  <SCORE.INTRA.REPUL.0>
0

>  <SCORE.INTRA.SOLV>
1.27663

>  <SCORE.INTRA.SOLV.lig_0>
-31.4704

>  <SCORE.INTRA.VDW>
-10.4324

>  <SCORE.INTRA.VDW.0>
10.2807

>  <SCORE.INTRA.norm>
-0.346073

>  <SCORE.RESTR>
0

>  <SCORE.RESTR.CAVITY>
0

>  <SCORE.RESTR.norm>
0

>  <SCORE.SYSTEM>
0

>  <SCORE.SYSTEM.CONST>
0

>  <SCORE.SYSTEM.DIHEDRAL>
0

>  <SCORE.SYSTEM.SOLV>
0

>  <SCORE.SYSTEM.norm>
0

>  <SCORE.heavy>
24

>  <SCORE.norm>
-1.31751

>  <RMSD>
0.947

$$$$
ligand
 OpenBabel11021811493D
libRbt.so/2013.1/901 2013/11/27
 24 26  0  0  0  0  0  0  0  0999 V2000
    6.5715  -10.9163  -10.0811 N   0  0  0  0  0  0  0  0  0  0  0  0
    7.3256  -12.0132   -9.4960 C   0  0  0  0  0  0  0  0  0  0  0  0
   13.1158   -5.8367  -12.7751 O   0  0  0  0  0  0  0  0  0  0  0  0
   11.7889   -5.4564  -12.6250 C   0  0  0  0  0  0  0  0  0  0  0  0
    7.6528   -4.4651  -12.2143 N   0  0  0  0  0  0  0  0  0  0  0  0
   11.3883   -4.0053  -12.5971 C   0  0  0  0  0  0  0  0  0  0  0  0
    8.1593   -6.6535  -12.2291 N   0  0  0  0  0  0  0  0  0  0  0  0
   10.0239   -3.5872  -12.4715 C   0  0  0  0  0  0  0  0  0  0  0  0
    5.7407   -6.0476  -11.9839 N   0  0  0  0  0  0  0  0  0  0  0  0
    9.0378   -4.6301  -12.3557 C   0  0  0  0  0  0  0  0  0  0  0  0
   12.6088  -10.5535  -12.1717 N   0  0  0  0  0  0  0  0  0  0  0  0
    9.4085   -6.0199  -12.3654 C   0  0  0  0  0  0  0  0  0  0  0  0
   10.8380   -6.4088  -12.5098 C   0  0  0  0  0  0  0  0  0  0  0  0
    7.1287   -5.7232  -12.1449 C   0  0  0  0  0  0  0  0  0  0  0  0
   11.2084   -7.8801  -12.5276 C   0  0  0  0  0  0  0  0  0  0  0  0
   12.7026   -8.1725  -12.4423 C   0  0  1  0  0  0  0  0  0  0  0  0
   13.5093   -6.9613  -12.0705 C   0  0  0  0  0  0  0  0  0  0  0  0
   12.9541   -9.3235  -11.4800 C   0  0  0  0  0  0  0  0  0  0  0  0
    7.9604   -8.1152  -12.2612 C   0  0  0  0  0  0  0  0  0  0  0  0
   13.7773  -11.0108  -12.9115 C   0  0  0  0  0  0  0  0  0  0  0  0
   12.2503  -11.5368  -11.1617 C   0  0  0  0  0  0  0  0  0  0  0  0
    7.3419   -8.7258  -10.9918 C   0  0  0  0  0  0  0  0  0  0  0  0
    7.3609  -10.2594  -11.1327 C   0  0  0  0  0  0  0  0  0  0  0  0
    5.3259  -11.4565  -10.6141 C   0  0  0  0  0  0  0  0  0  0  0  0
  1 23  1  0  0  0  0
  1 24  1  0  0  0  0
  1  2  1  0  0  0  0
  3  4  1  0  0  0  0
  3 17  1  0  0  0  0
  4  6  2  0  0  0  0
  4 13  1  0  0  0  0
  5 10  1  0  0  0  0
  5 14  2  0  0  0  0
  6  8  1  0  0  0  0
  7 12  1  0  0  0  0
  7 14  1  0  0  0  0
  7 19  1  0  0  0  0
  8 10  2  0  0  0  0
  9 14  1  0  0  0  0
 10 12  1  0  0  0  0
 11 18  1  0  0  0  0
 11 20  1  0  0  0  0
 11 21  1  0  0  0  0
 12 13  2  0  0  0  0
 13 15  1  0  0  0  0
 15 16  1  0  0  0  0
 16 17  1  0  0  0  0
 16 18  1  1  0  0  0
 19 22  1  0  0  0  0
 22 23  1  0  0  0  0
M  END
>  <CHROM.1>
-132.80855494,120.03961294,87.07155114,77.10645144,-173.43332048,-169.59984526
9.80283124,-7.88648070,-11.87052385,-2.49267874,0.16719965,-0.22423491

>  <Name>
ligand

>  <RI>
0

>  <Rbt.Current_Directory>
/home/itssahil/PROJECTS/Mol_Feturizer/New_Systems/rnas/3TZR

>  <Rbt.Executable>
rbdock ($Id: //depot/dev/client3/rdock/2013.1/src/exe/rbdock.cxx#4 $)

>  <Rbt.Library>
libRbt.so (2013.1, Build901 2013/11/27)

>  <Rbt.Parameter_File>
/export/apps/rDock/src/rDock_2013.1_src/data/scripts/dock_solv.prm

>  <Rbt.Receptor>
prm/pocket_docking_7.prm

>  <SCORE>
-35.8871

>  <SCORE.INTER>
-25.3391

>  <SCORE.INTER.CONST>
1

>  <SCORE.INTER.POLAR>
0

>  <SCORE.INTER.ROT>
6

>  <SCORE.INTER.SOLV>
20.9663

>  <SCORE.INTER.VDW>
-31.4815

>  <SCORE.INTER.norm>
-1.05579

>  <SCORE.INTRA>
-10.5638

>  <SCORE.INTRA.DIHEDRAL>
0.962744

>  <SCORE.INTRA.DIHEDRAL.0>
4.94008

>  <SCORE.INTRA.POLAR>
0

>  <SCORE.INTRA.POLAR.0>
0

>  <SCORE.INTRA.REPUL>
0

>  <SCORE.INTRA.REPUL.0>
0

>  <SCORE.INTRA.SOLV>
0.532365

>  <SCORE.INTRA.SOLV.lig_0>
-31.4704

>  <SCORE.INTRA.VDW>
-11.3114

>  <SCORE.INTRA.VDW.0>
10.2807

>  <SCORE.INTRA.norm>
-0.440159

>  <SCORE.RESTR>
0.0158243

>  <SCORE.RESTR.CAVITY>
0.0158243

>  <SCORE.RESTR.norm>
0.000659348

>  <SCORE.SYSTEM>
0

>  <SCORE.SYSTEM.CONST>
0

>  <SCORE.SYSTEM.DIHEDRAL>
0

>  <SCORE.SYSTEM.SOLV>
0

>  <SCORE.SYSTEM.norm>
0

>  <SCORE.heavy>
24

>  <SCORE.norm>
-1.49529

>  <RMSD>
0.949

$$$$
ligand
 OpenBabel11021811493D
libRbt.so/2013.1/901 2013/11/27
 24 26  0  0  0  0  0  0  0  0999 V2000
    6.9277  -10.8211   -9.9673 N   0  0  0  0  0  0  0  0  0  0  0  0
    8.0608  -11.5268   -9.3907 C   0  0  0  0  0  0  0  0  0  0  0  0
   13.9574   -7.6195  -13.0270 O   0  0  0  0  0  0  0  0  0  0  0  0
   12.8573   -6.8333  -12.7116 C   0  0  0  0  0  0  0  0  0  0  0  0
    9.3570   -4.5577  -11.8012 N   0  0  0  0  0  0  0  0  0  0  0  0
   12.9862   -5.3451  -12.5228 C   0  0  0  0  0  0  0  0  0  0  0  0
    9.0729   -6.7721  -12.0490 N   0  0  0  0  0  0  0  0  0  0  0  0
   11.8625   -4.5083  -12.2246 C   0  0  0  0  0  0  0  0  0  0  0  0
    7.0356   -5.4176  -11.5094 N   0  0  0  0  0  0  0  0  0  0  0  0
   10.5866   -5.1633  -12.0960 C   0  0  0  0  0  0  0  0  0  0  0  0
   13.5673  -11.9558  -12.6186 N   0  0  0  0  0  0  0  0  0  0  0  0
   10.4520   -6.5861  -12.2587 C   0  0  0  0  0  0  0  0  0  0  0  0
   11.6456   -7.4156  -12.5797 C   0  0  0  0  0  0  0  0  0  0  0  0
    8.4360   -5.5645  -11.7834 C   0  0  0  0  0  0  0  0  0  0  0  0
   11.4820   -8.9135  -12.7571 C   0  0  0  0  0  0  0  0  0  0  0  0
   12.7849   -9.7006  -12.8489 C   0  0  1  0  0  0  0  0  0  0  0  0
   13.9838   -8.8828  -12.4619 C   0  0  0  0  0  0  0  0  0  0  0  0
   12.6867  -10.9698  -12.0161 C   0  0  0  0  0  0  0  0  0  0  0  0
    8.3789   -8.0675  -12.1819 C   0  0  0  0  0  0  0  0  0  0  0  0
   14.2897  -12.6407  -11.5551 C   0  0  0  0  0  0  0  0  0  0  0  0
   12.7326  -12.9059  -13.3371 C   0  0  0  0  0  0  0  0  0  0  0  0
    7.9946   -8.7499  -10.8577 C   0  0  0  0  0  0  0  0  0  0  0  0
    7.3388  -10.1050  -11.1832 C   0  0  0  0  0  0  0  0  0  0  0  0
    5.8846  -11.7989  -10.2562 C   0  0  0  0  0  0  0  0  0  0  0  0
  1 23  1  0  0  0  0
  1 24  1  0  0  0  0
  1  2  1  0  0  0  0
  3  4  1  0  0  0  0
  3 17  1  0  0  0  0
  4  6  2  0  0  0  0
  4 13  1  0  0  0  0
  5 10  1  0  0  0  0
  5 14  2  0  0  0  0
  6  8  1  0  0  0  0
  7 12  1  0  0  0  0
  7 14  1  0  0  0  0
  7 19  1  0  0  0  0
  8 10  2  0  0  0  0
  9 14  1  0  0  0  0
 10 12  1  0  0  0  0
 11 18  1  0  0  0  0
 11 20  1  0  0  0  0
 11 21  1  0  0  0  0
 12 13  2  0  0  0  0
 13 15  1  0  0  0  0
 15 16  1  0  0  0  0
 16 17  1  0  0  0  0
 16 18  1  1  0  0  0
 19 22  1  0  0  0  0
 22 23  1  0  0  0  0
M  END
>  <CHROM.1>
-82.21655770,104.73409126,137.29447927,151.86843398,-177.66504366,-179.46861309
10.57938676,-8.59781290,-11.89375229,2.64079135,0.29367375,-0.12573595

>  <Name>
ligand

>  <RI>
144

>  <Rbt.Current_Directory>
/home/itssahil/PROJECTS/Mol_Feturizer/New_Systems/rnas/3TZR

>  <Rbt.Executable>
rbdock ($Id: //depot/dev/client3/rdock/2013.1/src/exe/rbdock.cxx#4 $)

>  <Rbt.Library>
libRbt.so (2013.1, Build901 2013/11/27)

>  <Rbt.Parameter_File>
/export/apps/rDock/src/rDock_2013.1_src/data/scripts/dock_solv.prm

>  <Rbt.Receptor>
prm/pocket_docking_8.prm

>  <SCORE>
-34.7346

>  <SCORE.INTER>
-24.3078

>  <SCORE.INTER.CONST>
1

>  <SCORE.INTER.POLAR>
0

>  <SCORE.INTER.ROT>
6

>  <SCORE.INTER.SOLV>
19.8794

>  <SCORE.INTER.VDW>
-30.4317

>  <SCORE.INTER.norm>
-1.01283

>  <SCORE.INTRA>
-10.4268

>  <SCORE.INTRA.DIHEDRAL>
1.50781

>  <SCORE.INTRA.DIHEDRAL.0>
4.94008

>  <SCORE.INTRA.POLAR>
0

>  <SCORE.INTRA.POLAR.0>
0

>  <SCORE.INTRA.REPUL>
0

>  <SCORE.INTRA.REPUL.0>
0

>  <SCORE.INTRA.SOLV>
0.139499

>  <SCORE.INTRA.SOLV.lig_0>
-31.4704

>  <SCORE.INTRA.VDW>
-11.2504

>  <SCORE.INTRA.VDW.0>
10.2807

>  <SCORE.INTRA.norm>
-0.434448

>  <SCORE.RESTR>
0

>  <SCORE.RESTR.CAVITY>
0

>  <SCORE.RESTR.norm>
0

>  <SCORE.SYSTEM>
0

>  <SCORE.SYSTEM.CONST>
0

>  <SCORE.SYSTEM.DIHEDRAL>
0

>  <SCORE.SYSTEM.SOLV>
0

>  <SCORE.SYSTEM.norm>
0

>  <SCORE.heavy>
24

>  <SCORE.norm>
-1.44727

>  <RMSD>
0.949

$$$$
ligand
 OpenBabel11021811493D
libRbt.so/2013.1/901 2013/11/27
 24 26  0  0  0  0  0  0  0  0999 V2000
    7.2360  -10.9342  -10.8846 N   0  0  0  0  0  0  0  0  0  0  0  0
    6.2567  -11.7573  -11.5758 C   0  0  0  0  0  0  0  0  0  0  0  0
   13.7822   -7.5326  -13.1774 O   0  0  0  0  0  0  0  0  0  0  0  0
   12.6875   -6.7547  -12.8247 C   0  0  0  0  0  0  0  0  0  0  0  0
    9.2038   -4.5116  -11.7800 N   0  0  0  0  0  0  0  0  0  0  0  0
   12.7848   -5.2542  -12.7477 C   0  0  0  0  0  0  0  0  0  0  0  0
    8.9697   -6.7444  -11.8538 N   0  0  0  0  0  0  0  0  0  0  0  0
   11.6636   -4.4277  -12.4137 C   0  0  0  0  0  0  0  0  0  0  0  0
    6.9419   -5.4082  -11.2382 N   0  0  0  0  0  0  0  0  0  0  0  0
   10.4235   -5.1045  -12.1352 C   0  0  0  0  0  0  0  0  0  0  0  0
   13.5509  -11.8440  -12.4543 N   0  0  0  0  0  0  0  0  0  0  0  0
   10.3206   -6.5382  -12.1901 C   0  0  0  0  0  0  0  0  0  0  0  0
   11.5094   -7.3572  -12.5532 C   0  0  0  0  0  0  0  0  0  0  0  0
    8.3192   -5.5380  -11.6177 C   0  0  0  0  0  0  0  0  0  0  0  0
   11.3788   -8.8676  -12.6152 C   0  0  0  0  0  0  0  0  0  0  0  0
   12.6938   -9.6255  -12.7625 C   0  0  1  0  0  0  0  0  0  0  0  0
   13.8941   -8.7524  -12.5328 C   0  0  0  0  0  0  0  0  0  0  0  0
   12.7036  -10.8358  -11.8410 C   0  0  0  0  0  0  0  0  0  0  0  0
    8.3081   -8.0633  -11.8410 C   0  0  0  0  0  0  0  0  0  0  0  0
   14.0990  -12.6888  -11.4018 C   0  0  0  0  0  0  0  0  0  0  0  0
   12.7134  -12.6400  -13.3378 C   0  0  0  0  0  0  0  0  0  0  0  0
    7.8298   -8.5489  -10.4617 C   0  0  0  0  0  0  0  0  0  0  0  0
    6.7053   -9.5798  -10.6740 C   0  0  0  0  0  0  0  0  0  0  0  0
    7.5564  -11.5801   -9.6167 C   0  0  0  0  0  0  0  0  0  0  0  0
  1 23  1  0  0  0  0
  1 24  1  0  0  0  0
  1  2  1  0  0  0  0
  3  4  1  0  0  0  0
  3 17  1  0  0  0  0
  4  6  2  0  0  0  0
  4 13  1  0  0  0  0
  5 10  1  0  0  0  0
  5 14  2  0  0  0  0
  6  8  1  0  0  0  0
  7 12  1  0  0  0  0
  7 14  1  0  0  0  0
  7 19  1  0  0  0  0
  8 10  2  0  0  0  0
  9 14  1  0  0  0  0
 10 12  1  0  0  0  0
 11 18  1  0  0  0  0
 11 20  1  0  0  0  0
 11 21  1  0  0  0  0
 12 13  2  0  0  0  0
 13 15  1  0  0  0  0
 15 16  1  0  0  0  0
 16 17  1  0  0  0  0
 16 18  1  1  0  0  0
 19 22  1  0  0  0  0
 22 23  1  0  0  0  0
M  END
>  <CHROM.1>
-157.97719067,115.13698731,153.04342132,151.26761893,157.03357939,85.62134920
10.46323593,-8.51682577,-11.92026724,2.53058321,0.26803441,-0.09747830

>  <Name>
ligand

>  <RI>
0

>  <Rbt.Current_Directory>
/home/itssahil/PROJECTS/Mol_Feturizer/New_Systems/rnas/3TZR

>  <Rbt.Executable>
rbdock ($Id: //depot/dev/client3/rdock/2013.1/src/exe/rbdock.cxx#4 $)

>  <Rbt.Library>
libRbt.so (2013.1, Build901 2013/11/27)

>  <Rbt.Parameter_File>
/export/apps/rDock/src/rDock_2013.1_src/data/scripts/dock_solv.prm

>  <Rbt.Receptor>
prm/blind_docking_100.prm

>  <SCORE>
-31.5602

>  <SCORE.INTER>
-23.388

>  <SCORE.INTER.CONST>
1

>  <SCORE.INTER.POLAR>
0

>  <SCORE.INTER.ROT>
6

>  <SCORE.INTER.SOLV>
19.4838

>  <SCORE.INTER.VDW>
-29.6866

>  <SCORE.INTER.norm>
-0.974499

>  <SCORE.INTRA>
-8.17225

>  <SCORE.INTRA.DIHEDRAL>
4.47948

>  <SCORE.INTRA.DIHEDRAL.0>
4.94008

>  <SCORE.INTRA.POLAR>
0

>  <SCORE.INTRA.POLAR.0>
0

>  <SCORE.INTRA.REPUL>
0

>  <SCORE.INTRA.REPUL.0>
0

>  <SCORE.INTRA.SOLV>
0.951947

>  <SCORE.INTRA.SOLV.lig_0>
-31.4704

>  <SCORE.INTRA.VDW>
-10.888

>  <SCORE.INTRA.VDW.0>
10.2807

>  <SCORE.INTRA.norm>
-0.34051

>  <SCORE.RESTR>
0

>  <SCORE.RESTR.CAVITY>
0

>  <SCORE.RESTR.norm>
0

>  <SCORE.SYSTEM>
0

>  <SCORE.SYSTEM.CONST>
0

>  <SCORE.SYSTEM.DIHEDRAL>
0

>  <SCORE.SYSTEM.SOLV>
0

>  <SCORE.SYSTEM.norm>
0

>  <SCORE.heavy>
24

>  <SCORE.norm>
-1.31501

>  <RMSD>
0.950

$$$$
ligand
 OpenBabel11021811493D
libRbt.so/2013.1/901 2013/11/27
 24 26  0  0  0  0  0  0  0  0999 V2000
    7.1612  -11.0217  -11.0858 N   0  0  0  0  0  0  0  0  0  0  0  0
    6.1550  -11.8694  -11.7048 C   0  0  0  0  0  0  0  0  0  0  0  0
   13.2473   -6.0647  -12.9487 O   0  0  0  0  0  0  0  0  0  0  0  0
   11.9431   -5.6257  -12.7635 C   0  0  0  0  0  0  0  0  0  0  0  0
    7.8686   -4.4550  -12.2283 N   0  0  0  0  0  0  0  0  0  0  0  0
   11.5925   -4.1628  -12.8271 C   0  0  0  0  0  0  0  0  0  0  0  0
    8.3011   -6.6555  -12.1005 N   0  0  0  0  0  0  0  0  0  0  0  0
   10.2510   -3.6866  -12.6673 C   0  0  0  0  0  0  0  0  0  0  0  0
    5.9197   -5.9444  -11.7845 N   0  0  0  0  0  0  0  0  0  0  0  0
    9.2383   -4.6809  -12.4241 C   0  0  0  0  0  0  0  0  0  0  0  0
   12.6650  -10.7078  -11.9816 N   0  0  0  0  0  0  0  0  0  0  0  0
    9.5619   -6.0802  -12.3457 C   0  0  0  0  0  0  0  0  0  0  0  0
   10.9685   -6.5312  -12.5296 C   0  0  0  0  0  0  0  0  0  0  0  0
    7.3076   -5.6842  -12.0374 C   0  0  0  0  0  0  0  0  0  0  0  0
   11.2887   -8.0123  -12.4530 C   0  0  0  0  0  0  0  0  0  0  0  0
   12.7749   -8.3523  -12.4187 C   0  0  1  0  0  0  0  0  0  0  0  0
   13.6391   -7.1473  -12.1803 C   0  0  0  0  0  0  0  0  0  0  0  0
   13.0375   -9.4367  -11.3847 C   0  0  0  0  0  0  0  0  0  0  0  0
    8.0528   -8.1072  -12.0111 C   0  0  0  0  0  0  0  0  0  0  0  0
   13.8083  -11.2223  -12.7231 C   0  0  0  0  0  0  0  0  0  0  0  0
   12.3316  -11.6185  -10.8977 C   0  0  0  0  0  0  0  0  0  0  0  0
    7.6836   -8.6293  -10.6118 C   0  0  0  0  0  0  0  0  0  0  0  0
    6.5918   -9.7044  -10.7680 C   0  0  0  0  0  0  0  0  0  0  0  0
    7.6428  -11.6938   -9.8843 C   0  0  0  0  0  0  0  0  0  0  0  0
  1 23  1  0  0  0  0
  1 24  1  0  0  0  0
  1  2  1  0  0  0  0
  3  4  1  0  0  0  0
  3 17  1  0  0  0  0
  4  6  2  0  0  0  0
  4 13  1  0  0  0  0
  5 10  1  0  0  0  0
  5 14  2  0  0  0  0
  6  8  1  0  0  0  0
  7 12  1  0  0  0  0
  7 14  1  0  0  0  0
  7 19  1  0  0  0  0
  8 10  2  0  0  0  0
  9 14  1  0  0  0  0
 10 12  1  0  0  0  0
 11 18  1  0  0  0  0
 11 20  1  0  0  0  0
 11 21  1  0  0  0  0
 12 13  2  0  0  0  0
 13 15  1  0  0  0  0
 15 16  1  0  0  0  0
 16 17  1  0  0  0  0
 16 18  1  1  0  0  0
 19 22  1  0  0  0  0
 22 23  1  0  0  0  0
M  END
>  <CHROM.1>
-158.79336179,111.22966888,86.58767469,79.27128933,140.85237744,83.29255776
9.96453638,-7.94186406,-11.92071067,-2.46862789,0.14474474,-0.19776090

>  <Name>
ligand

>  <RI>
0

>  <Rbt.Current_Directory>
/home/itssahil/PROJECTS/Mol_Feturizer/New_Systems/rnas/3TZR

>  <Rbt.Executable>
rbdock ($Id: //depot/dev/client3/rdock/2013.1/src/exe/rbdock.cxx#4 $)

>  <Rbt.Library>
libRbt.so (2013.1, Build901 2013/11/27)

>  <Rbt.Parameter_File>
/export/apps/rDock/src/rDock_2013.1_src/data/scripts/dock_solv.prm

>  <Rbt.Receptor>
prm/blind_docking_80.prm

>  <SCORE>
-32.6466

>  <SCORE.INTER>
-24.7727

>  <SCORE.INTER.CONST>
1

>  <SCORE.INTER.POLAR>
0

>  <SCORE.INTER.ROT>
6

>  <SCORE.INTER.SOLV>
19.5669

>  <SCORE.INTER.VDW>
-30.6375

>  <SCORE.INTER.norm>
-1.0322

>  <SCORE.INTRA>
-7.87386

>  <SCORE.INTRA.DIHEDRAL>
5.03331

>  <SCORE.INTRA.DIHEDRAL.0>
4.94008

>  <SCORE.INTRA.POLAR>
0

>  <SCORE.INTRA.POLAR.0>
0

>  <SCORE.INTRA.REPUL>
0

>  <SCORE.INTRA.REPUL.0>
0

>  <SCORE.INTRA.SOLV>
1.14725

>  <SCORE.INTRA.SOLV.lig_0>
-31.4704

>  <SCORE.INTRA.VDW>
-10.9641

>  <SCORE.INTRA.VDW.0>
10.2807

>  <SCORE.INTRA.norm>
-0.328078

>  <SCORE.RESTR>
0

>  <SCORE.RESTR.CAVITY>
0

>  <SCORE.RESTR.norm>
0

>  <SCORE.SYSTEM>
0

>  <SCORE.SYSTEM.CONST>
0

>  <SCORE.SYSTEM.DIHEDRAL>
0

>  <SCORE.SYSTEM.SOLV>
0

>  <SCORE.SYSTEM.norm>
0

>  <SCORE.heavy>
24

>  <SCORE.norm>
-1.36027

>  <RMSD>
0.951

$$$$
ligand
 OpenBabel11021811493D
libRbt.so/2013.1/901 2013/11/27
 24 26  0  0  0  0  0  0  0  0999 V2000
    6.6680  -10.4065  -10.8710 N   0  0  0  0  0  0  0  0  0  0  0  0
    7.6963  -11.0685  -10.0845 C   0  0  0  0  0  0  0  0  0  0  0  0
   13.2792   -6.8539  -13.1811 O   0  0  0  0  0  0  0  0  0  0  0  0
   12.1197   -6.1748  -12.8313 C   0  0  0  0  0  0  0  0  0  0  0  0
    8.4557   -4.2530  -11.7634 N   0  0  0  0  0  0  0  0  0  0  0  0
   12.0160   -4.6791  -12.9694 C   0  0  0  0  0  0  0  0  0  0  0  0
    8.5252   -6.4837  -11.5091 N   0  0  0  0  0  0  0  0  0  0  0  0
   10.8221   -3.9582  -12.6421 C   0  0  0  0  0  0  0  0  0  0  0  0
    6.3888   -5.3339  -10.8841 N   0  0  0  0  0  0  0  0  0  0  0  0
    9.7130   -4.7355  -12.1531 C   0  0  0  0  0  0  0  0  0  0  0  0
   12.2007  -11.2802  -11.7785 N   0  0  0  0  0  0  0  0  0  0  0  0
    9.8038   -6.1630  -12.0018 C   0  0  0  0  0  0  0  0  0  0  0  0
   11.0609   -6.8723  -12.3655 C   0  0  0  0  0  0  0  0  0  0  0  0
    7.7361   -5.3461  -11.3764 C   0  0  0  0  0  0  0  0  0  0  0  0
   11.1343   -8.3797  -12.2082 C   0  0  0  0  0  0  0  0  0  0  0  0
   12.5250   -8.9814  -12.3798 C   0  0  1  0  0  0  0  0  0  0  0  0
   13.6086   -7.9414  -12.3907 C   0  0  0  0  0  0  0  0  0  0  0  0
   12.7743  -10.0313  -11.3076 C   0  0  0  0  0  0  0  0  0  0  0  0
    8.0540   -7.8581  -11.2515 C   0  0  0  0  0  0  0  0  0  0  0  0
   13.2614  -12.0781  -12.3787 C   0  0  0  0  0  0  0  0  0  0  0  0
   11.6573  -11.9749  -10.6219 C   0  0  0  0  0  0  0  0  0  0  0  0
    7.2003   -8.4838  -12.3680 C   0  0  0  0  0  0  0  0  0  0  0  0
    7.2039  -10.0127  -12.1818 C   0  0  0  0  0  0  0  0  0  0  0  0
    5.5445  -11.3257  -11.0131 C   0  0  0  0  0  0  0  0  0  0  0  0
  1 23  1  0  0  0  0
  1 24  1  0  0  0  0
  1  2  1  0  0  0  0
  3  4  1  0  0  0  0
  3 17  1  0  0  0  0
  4  6  2  0  0  0  0
  4 13  1  0  0  0  0
  5 10  1  0  0  0  0
  5 14  2  0  0  0  0
  6  8  1  0  0  0  0
  7 12  1  0  0  0  0
  7 14  1  0  0  0  0
  7 19  1  0  0  0  0
  8 10  2  0  0  0  0
  9 14  1  0  0  0  0
 10 12  1  0  0  0  0
 11 18  1  0  0  0  0
 11 20  1  0  0  0  0
 11 21  1  0  0  0  0
 12 13  2  0  0  0  0
 13 15  1  0  0  0  0
 15 16  1  0  0  0  0
 16 17  1  0  0  0  0
 16 18  1  1  0  0  0
 19 22  1  0  0  0  0
 22 23  1  0  0  0  0
M  END
>  <CHROM.1>
-116.60070870,-97.76286136,97.09682941,84.42274266,160.85817878,59.02135692
9.96305021,-8.08922516,-11.83032709,1.16561010,-0.18984425,2.99837719

>  <Name>
ligand

>  <RI>
0

>  <Rbt.Current_Directory>
/home/itssahil/PROJECTS/Mol_Feturizer/New_Systems/rnas/3TZR

>  <Rbt.Executable>
rbdock ($Id: //depot/dev/client3/rdock/2013.1/src/exe/rbdock.cxx#4 $)

>  <Rbt.Library>
libRbt.so (2013.1, Build901 2013/11/27)

>  <Rbt.Parameter_File>
/export/apps/rDock/src/rDock_2013.1_src/data/scripts/dock_solv.prm

>  <Rbt.Receptor>
prm/pocket_docking_2.prm

>  <SCORE>
-32.0852

>  <SCORE.INTER>
-22.0773

>  <SCORE.INTER.CONST>
1

>  <SCORE.INTER.POLAR>
0

>  <SCORE.INTER.ROT>
6

>  <SCORE.INTER.SOLV>
21.7658

>  <SCORE.INTER.VDW>
-29.5735

>  <SCORE.INTER.norm>
-0.919888

>  <SCORE.INTRA>
-10.0295

>  <SCORE.INTRA.DIHEDRAL>
3.26666

>  <SCORE.INTRA.DIHEDRAL.0>
4.94008

>  <SCORE.INTRA.POLAR>
0

>  <SCORE.INTRA.POLAR.0>
0

>  <SCORE.INTRA.REPUL>
0

>  <SCORE.INTRA.REPUL.0>
0

>  <SCORE.INTRA.SOLV>
0.246713

>  <SCORE.INTRA.SOLV.lig_0>
-31.4704

>  <SCORE.INTRA.VDW>
-11.7862

>  <SCORE.INTRA.VDW.0>
10.2807

>  <SCORE.INTRA.norm>
-0.417896

>  <SCORE.RESTR>
0.0216205

>  <SCORE.RESTR.CAVITY>
0.0216205

>  <SCORE.RESTR.norm>
0.000900855

>  <SCORE.SYSTEM>
0

>  <SCORE.SYSTEM.CONST>
0

>  <SCORE.SYSTEM.DIHEDRAL>
0

>  <SCORE.SYSTEM.SOLV>
0

>  <SCORE.SYSTEM.norm>
0

>  <SCORE.heavy>
24

>  <SCORE.norm>
-1.33688

>  <RMSD>
0.953

$$$$
ligand
 OpenBabel11021811493D
libRbt.so/2013.1/901 2013/11/27
 24 26  0  0  0  0  0  0  0  0999 V2000
    6.3656  -10.8247  -10.1777 N   0  0  0  0  0  0  0  0  0  0  0  0
    6.9451  -12.0784   -9.7233 C   0  0  0  0  0  0  0  0  0  0  0  0
   13.2078   -5.9096  -12.7506 O   0  0  0  0  0  0  0  0  0  0  0  0
   11.8911   -5.5009  -12.5861 C   0  0  0  0  0  0  0  0  0  0  0  0
    7.7818   -4.4203  -12.1336 N   0  0  0  0  0  0  0  0  0  0  0  0
   11.5245   -4.0415  -12.5338 C   0  0  0  0  0  0  0  0  0  0  0  0
    8.2370   -6.6194  -12.1846 N   0  0  0  0  0  0  0  0  0  0  0  0
   10.1711   -3.5938  -12.3930 C   0  0  0  0  0  0  0  0  0  0  0  0
    5.8348   -5.9613  -11.9145 N   0  0  0  0  0  0  0  0  0  0  0  0
    9.1617   -4.6152  -12.2865 C   0  0  0  0  0  0  0  0  0  0  0  0
   12.4166  -10.5953  -12.1383 N   0  0  0  0  0  0  0  0  0  0  0  0
    9.4998   -6.0129  -12.3195 C   0  0  0  0  0  0  0  0  0  0  0  0
   10.9190   -6.4326  -12.4791 C   0  0  0  0  0  0  0  0  0  0  0  0
    7.2290   -5.6668  -12.0797 C   0  0  0  0  0  0  0  0  0  0  0  0
   11.2549   -7.9117  -12.5215 C   0  0  0  0  0  0  0  0  0  0  0  0
   12.7424   -8.2399  -12.4503 C   0  0  1  0  0  0  0  0  0  0  0  0
   13.5793   -7.0536  -12.0656 C   0  0  0  0  0  0  0  0  0  0  0  0
   12.9730   -9.4109  -11.5071 C   0  0  0  0  0  0  0  0  0  0  0  0
    8.0040   -8.0755  -12.2374 C   0  0  0  0  0  0  0  0  0  0  0  0
   13.4173  -11.1519  -13.0387 C   0  0  0  0  0  0  0  0  0  0  0  0
   12.1168  -11.5520  -11.0845 C   0  0  0  0  0  0  0  0  0  0  0  0
    7.3897   -8.6925  -10.9691 C   0  0  0  0  0  0  0  0  0  0  0  0
    7.2245  -10.2067  -11.1978 C   0  0  0  0  0  0  0  0  0  0  0  0
    5.0353  -11.1057  -10.7056 C   0  0  0  0  0  0  0  0  0  0  0  0
  1 23  1  0  0  0  0
  1 24  1  0  0  0  0
  1  2  1  0  0  0  0
  3  4  1  0  0  0  0
  3 17  1  0  0  0  0
  4  6  2  0  0  0  0
  4 13  1  0  0  0  0
  5 10  1  0  0  0  0
  5 14  2  0  0  0  0
  6  8  1  0  0  0  0
  7 12  1  0  0  0  0
  7 14  1  0  0  0  0
  7 19  1  0  0  0  0
  8 10  2  0  0  0  0
  9 14  1  0  0  0  0
 10 12  1  0  0  0  0
 11 18  1  0  0  0  0
 11 20  1  0  0  0  0
 11 21  1  0  0  0  0
 12 13  2  0  0  0  0
 13 15  1  0  0  0  0
 15 16  1  0  0  0  0
 16 17  1  0  0  0  0
 16 18  1  1  0  0  0
 19 22  1  0  0  0  0
 22 23  1  0  0  0  0
M  END
>  <CHROM.1>
-136.30386246,119.57398014,84.91819183,69.00365275,-179.72197256,-166.62616775
9.78382886,-7.88245117,-11.86809061,-2.53957318,0.16932292,-0.19440194

>  <Name>
ligand

>  <RI>
144

>  <Rbt.Current_Directory>
/home/itssahil/PROJECTS/Mol_Feturizer/New_Systems/rnas/3TZR

>  <Rbt.Executable>
rbdock ($Id: //depot/dev/client3/rdock/2013.1/src/exe/rbdock.cxx#4 $)

>  <Rbt.Library>
libRbt.so (2013.1, Build901 2013/11/27)

>  <Rbt.Parameter_File>
/export/apps/rDock/src/rDock_2013.1_src/data/scripts/dock_solv.prm

>  <Rbt.Receptor>
prm/blind_docking_60.prm

>  <SCORE>
-35.9222

>  <SCORE.INTER>
-25.2294

>  <SCORE.INTER.CONST>
1

>  <SCORE.INTER.POLAR>
0

>  <SCORE.INTER.ROT>
6

>  <SCORE.INTER.SOLV>
21.1101

>  <SCORE.INTER.VDW>
-31.4563

>  <SCORE.INTER.norm>
-1.05122

>  <SCORE.INTRA>
-10.7045

>  <SCORE.INTRA.DIHEDRAL>
0.103249

>  <SCORE.INTRA.DIHEDRAL.0>
4.94008

>  <SCORE.INTRA.POLAR>
0

>  <SCORE.INTRA.POLAR.0>
0

>  <SCORE.INTRA.REPUL>
0

>  <SCORE.INTRA.REPUL.0>
0

>  <SCORE.INTRA.SOLV>
0.604099

>  <SCORE.INTRA.SOLV.lig_0>
-31.4704

>  <SCORE.INTRA.VDW>
-11.0582

>  <SCORE.INTRA.VDW.0>
10.2807

>  <SCORE.INTRA.norm>
-0.44602

>  <SCORE.RESTR>
0.011646

>  <SCORE.RESTR.CAVITY>
0.011646

>  <SCORE.RESTR.norm>
0.000485251

>  <SCORE.SYSTEM>
0

>  <SCORE.SYSTEM.CONST>
0

>  <SCORE.SYSTEM.DIHEDRAL>
0

>  <SCORE.SYSTEM.SOLV>
0

>  <SCORE.SYSTEM.norm>
0

>  <SCORE.heavy>
24

>  <SCORE.norm>
-1.49676

>  <RMSD>
0.957

$$$$
ligand
 OpenBabel11021811493D
libRbt.so/2013.1/901 2013/11/27
 24 26  0  0  0  0  0  0  0  0999 V2000
    6.1787  -10.8041  -10.2515 N   0  0  0  0  0  0  0  0  0  0  0  0
    6.7672  -12.0523   -9.7934 C   0  0  0  0  0  0  0  0  0  0  0  0
   13.2033   -5.9254  -12.7062 O   0  0  0  0  0  0  0  0  0  0  0  0
   11.8856   -5.5187  -12.5444 C   0  0  0  0  0  0  0  0  0  0  0  0
    7.7738   -4.4438  -12.1016 N   0  0  0  0  0  0  0  0  0  0  0  0
   11.5178   -4.0600  -12.4843 C   0  0  0  0  0  0  0  0  0  0  0  0
    8.2308   -6.6422  -12.1649 N   0  0  0  0  0  0  0  0  0  0  0  0
   10.1635   -3.6141  -12.3461 C   0  0  0  0  0  0  0  0  0  0  0  0
    5.8270   -5.9875  -11.9003 N   0  0  0  0  0  0  0  0  0  0  0  0
    9.1544   -4.6368  -12.2502 C   0  0  0  0  0  0  0  0  0  0  0  0
   12.6085  -10.6431  -12.2093 N   0  0  0  0  0  0  0  0  0  0  0  0
    9.4936   -6.0340  -12.2908 C   0  0  0  0  0  0  0  0  0  0  0  0
   10.9137   -6.4518  -12.4473 C   0  0  0  0  0  0  0  0  0  0  0  0
    7.2216   -5.6910  -12.0579 C   0  0  0  0  0  0  0  0  0  0  0  0
   11.2509   -7.9303  -12.4978 C   0  0  0  0  0  0  0  0  0  0  0  0
   12.7383   -8.2580  -12.4227 C   0  0  1  0  0  0  0  0  0  0  0  0
   13.5728   -7.0735  -12.0270 C   0  0  0  0  0  0  0  0  0  0  0  0
   12.9659   -9.4348  -11.4861 C   0  0  0  0  0  0  0  0  0  0  0  0
    7.9990   -8.0980  -12.2279 C   0  0  0  0  0  0  0  0  0  0  0  0
   13.7742  -11.0959  -12.9563 C   0  0  0  0  0  0  0  0  0  0  0  0
   12.2347  -11.6468  -11.2253 C   0  0  0  0  0  0  0  0  0  0  0  0
    7.3171   -8.7124  -10.9933 C   0  0  0  0  0  0  0  0  0  0  0  0
    7.0215  -10.1946  -11.2901 C   0  0  0  0  0  0  0  0  0  0  0  0
    4.8414  -11.0927  -10.7573 C   0  0  0  0  0  0  0  0  0  0  0  0
  1 23  1  0  0  0  0
  1 24  1  0  0  0  0
  1  2  1  0  0  0  0
  3  4  1  0  0  0  0
  3 17  1  0  0  0  0
  4  6  2  0  0  0  0
  4 13  1  0  0  0  0
  5 10  1  0  0  0  0
  5 14  2  0  0  0  0
  6  8  1  0  0  0  0
  7 12  1  0  0  0  0
  7 14  1  0  0  0  0
  7 19  1  0  0  0  0
  8 10  2  0  0  0  0
  9 14  1  0  0  0  0
 10 12  1  0  0  0  0
 11 18  1  0  0  0  0
 11 20  1  0  0  0  0
 11 21  1  0  0  0  0
 12 13  2  0  0  0  0
 13 15  1  0  0  0  0
 15 16  1  0  0  0  0
 16 17  1  0  0  0  0
 16 18  1  1  0  0  0
 19 22  1  0  0  0  0
 22 23  1  0  0  0  0
M  END
>  <CHROM.1>
-129.91108688,122.43741041,86.79063685,77.86026610,174.11554530,-170.82414476
9.77299175,-7.89740369,-11.86806407,-2.67206809,0.16197303,-0.18030910

>  <Name>
ligand

>  <RI>
0

>  <Rbt.Current_Directory>
/home/itssahil/PROJECTS/Mol_Feturizer/New_Systems/rnas/3TZR

>  <Rbt.Executable>
rbdock ($Id: //depot/dev/client3/rdock/2013.1/src/exe/rbdock.cxx#4 $)

>  <Rbt.Library>
libRbt.so (2013.1, Build901 2013/11/27)

>  <Rbt.Parameter_File>
/export/apps/rDock/src/rDock_2013.1_src/data/scripts/dock_solv.prm

>  <Rbt.Receptor>
prm/pocket_docking_5.prm

>  <SCORE>
-35.845

>  <SCORE.INTER>
-25.4897

>  <SCORE.INTER.CONST>
1

>  <SCORE.INTER.POLAR>
0

>  <SCORE.INTER.ROT>
6

>  <SCORE.INTER.SOLV>
20.9974

>  <SCORE.INTER.VDW>
-31.5923

>  <SCORE.INTER.norm>
-1.06207

>  <SCORE.INTRA>
-10.3553

>  <SCORE.INTRA.DIHEDRAL>
0.991422

>  <SCORE.INTRA.DIHEDRAL.0>
4.94008

>  <SCORE.INTRA.POLAR>
0

>  <SCORE.INTRA.POLAR.0>
0

>  <SCORE.INTRA.REPUL>
0

>  <SCORE.INTRA.REPUL.0>
0

>  <SCORE.INTRA.SOLV>
0.753492

>  <SCORE.INTRA.SOLV.lig_0>
-31.4704

>  <SCORE.INTRA.VDW>
-11.2278

>  <SCORE.INTRA.VDW.0>
10.2807

>  <SCORE.INTRA.norm>
-0.431472

>  <SCORE.RESTR>
0

>  <SCORE.RESTR.CAVITY>
0

>  <SCORE.RESTR.norm>
0

>  <SCORE.SYSTEM>
0

>  <SCORE.SYSTEM.CONST>
0

>  <SCORE.SYSTEM.DIHEDRAL>
0

>  <SCORE.SYSTEM.SOLV>
0

>  <SCORE.SYSTEM.norm>
0

>  <SCORE.heavy>
24

>  <SCORE.norm>
-1.49354

>  <RMSD>
0.961

$$$$
ligand
 OpenBabel11021811493D
libRbt.so/2013.1/901 2013/11/27
 24 26  0  0  0  0  0  0  0  0999 V2000
    7.1110  -10.8789  -11.2999 N   0  0  0  0  0  0  0  0  0  0  0  0
    6.2600  -12.0568  -11.3517 C   0  0  0  0  0  0  0  0  0  0  0  0
   13.3050   -6.4984  -13.2033 O   0  0  0  0  0  0  0  0  0  0  0  0
   12.0868   -5.9360  -12.8464 C   0  0  0  0  0  0  0  0  0  0  0  0
    8.2576   -4.3808  -11.7614 N   0  0  0  0  0  0  0  0  0  0  0  0
   11.8492   -4.4527  -12.9477 C   0  0  0  0  0  0  0  0  0  0  0  0
    8.5269   -6.6019  -11.5628 N   0  0  0  0  0  0  0  0  0  0  0  0
   10.5931   -3.8511  -12.6124 C   0  0  0  0  0  0  0  0  0  0  0  0
    6.2915   -5.6661  -10.9272 N   0  0  0  0  0  0  0  0  0  0  0  0
    9.5557   -4.7376  -12.1525 C   0  0  0  0  0  0  0  0  0  0  0  0
   12.5748  -11.0302  -11.8977 N   0  0  0  0  0  0  0  0  0  0  0  0
    9.7743   -6.1546  -12.0364 C   0  0  0  0  0  0  0  0  0  0  0  0
   11.0926   -6.7380  -12.4072 C   0  0  0  0  0  0  0  0  0  0  0  0
    7.6374   -5.5439  -11.4082 C   0  0  0  0  0  0  0  0  0  0  0  0
   11.3010   -8.2361  -12.2872 C   0  0  0  0  0  0  0  0  0  0  0  0
   12.7413   -8.7053  -12.4622 C   0  0  1  0  0  0  0  0  0  0  0  0
   13.7265   -7.5718  -12.4377 C   0  0  0  0  0  0  0  0  0  0  0  0
   13.0780   -9.7557  -11.4147 C   0  0  0  0  0  0  0  0  0  0  0  0
    8.1803   -8.0194  -11.3439 C   0  0  0  0  0  0  0  0  0  0  0  0
   13.6469  -11.7085  -12.6134 C   0  0  0  0  0  0  0  0  0  0  0  0
   12.1854  -11.8146  -10.7364 C   0  0  0  0  0  0  0  0  0  0  0  0
    7.2069   -8.6272  -12.3685 C   0  0  0  0  0  0  0  0  0  0  0  0
    6.3397   -9.6775  -11.6494 C   0  0  0  0  0  0  0  0  0  0  0  0
    7.6649  -10.7792   -9.9543 C   0  0  0  0  0  0  0  0  0  0  0  0
  1 23  1  0  0  0  0
  1 24  1  0  0  0  0
  1  2  1  0  0  0  0
  3  4  1  0  0  0  0
  3 17  1  0  0  0  0
  4  6  2  0  0  0  0
  4 13  1  0  0  0  0
  5 10  1  0  0  0  0
  5 14  2  0  0  0  0
  6  8  1  0  0  0  0
  7 12  1  0  0  0  0
  7 14  1  0  0  0  0
  7 19  1  0  0  0  0
  8 10  2  0  0  0  0
  9 14  1  0  0  0  0
 10 12  1  0  0  0  0
 11 18  1  0  0  0  0
 11 20  1  0  0  0  0
 11 21  1  0  0  0  0
 12 13  2  0  0  0  0
 13 15  1  0  0  0  0
 15 16  1  0  0  0  0
 16 17  1  0  0  0  0
 16 18  1  1  0  0  0
 19 22  1  0  0  0  0
 22 23  1  0  0  0  0
M  END
>  <CHROM.1>
-147.74577114,-107.17448032,93.23189131,82.18429845,-147.31014896,-71.12934366
10.03749303,-8.03707954,-11.88156689,-3.04358636,0.17489919,-0.13667805

>  <Name>
ligand

>  <RI>
144

>  <Rbt.Current_Directory>
/home/itssahil/PROJECTS/Mol_Feturizer/New_Systems/rnas/3TZR

>  <Rbt.Executable>
rbdock ($Id: //depot/dev/client3/rdock/2013.1/src/exe/rbdock.cxx#4 $)

>  <Rbt.Library>
libRbt.so (2013.1, Build901 2013/11/27)

>  <Rbt.Parameter_File>
/export/apps/rDock/src/rDock_2013.1_src/data/scripts/dock_solv.prm

>  <Rbt.Receptor>
prm/pocket_docking_8.prm

>  <SCORE>
-31.7226

>  <SCORE.INTER>
-23.5116

>  <SCORE.INTER.CONST>
1

>  <SCORE.INTER.POLAR>
0

>  <SCORE.INTER.ROT>
6

>  <SCORE.INTER.SOLV>
19.8311

>  <SCORE.INTER.VDW>
-29.8847

>  <SCORE.INTER.norm>
-0.979648

>  <SCORE.INTRA>
-8.21102

>  <SCORE.INTRA.DIHEDRAL>
4.08344

>  <SCORE.INTRA.DIHEDRAL.0>
4.94008

>  <SCORE.INTRA.POLAR>
0

>  <SCORE.INTRA.POLAR.0>
0

>  <SCORE.INTRA.REPUL>
0

>  <SCORE.INTRA.REPUL.0>
0

>  <SCORE.INTRA.SOLV>
1.04596

>  <SCORE.INTRA.SOLV.lig_0>
-31.4704

>  <SCORE.INTRA.VDW>
-10.7757

>  <SCORE.INTRA.VDW.0>
10.2807

>  <SCORE.INTRA.norm>
-0.342126

>  <SCORE.RESTR>
0

>  <SCORE.RESTR.CAVITY>
0

>  <SCORE.RESTR.norm>
0

>  <SCORE.SYSTEM>
0

>  <SCORE.SYSTEM.CONST>
0

>  <SCORE.SYSTEM.DIHEDRAL>
0

>  <SCORE.SYSTEM.SOLV>
0

>  <SCORE.SYSTEM.norm>
0

>  <SCORE.heavy>
24

>  <SCORE.norm>
-1.32177

>  <RMSD>
0.967

$$$$
ligand
 OpenBabel11021811493D
libRbt.so/2013.1/901 2013/11/27
 24 26  0  0  0  0  0  0  0  0999 V2000
    6.3646  -10.8515  -10.1746 N   0  0  0  0  0  0  0  0  0  0  0  0
    6.9190  -12.1338   -9.7714 C   0  0  0  0  0  0  0  0  0  0  0  0
   13.1869   -5.8972  -12.7432 O   0  0  0  0  0  0  0  0  0  0  0  0
   11.8684   -5.4950  -12.5774 C   0  0  0  0  0  0  0  0  0  0  0  0
    7.7543   -4.4343  -12.1209 N   0  0  0  0  0  0  0  0  0  0  0  0
   11.4949   -4.0374  -12.5236 C   0  0  0  0  0  0  0  0  0  0  0  0
    8.2200   -6.6311  -12.1741 N   0  0  0  0  0  0  0  0  0  0  0  0
   10.1395   -3.5963  -12.3814 C   0  0  0  0  0  0  0  0  0  0  0  0
    5.8149   -5.9848  -11.9016 N   0  0  0  0  0  0  0  0  0  0  0  0
    9.1350   -4.6225  -12.2750 C   0  0  0  0  0  0  0  0  0  0  0  0
   12.4390  -10.5911  -12.1443 N   0  0  0  0  0  0  0  0  0  0  0  0
    9.4798   -6.0186  -12.3094 C   0  0  0  0  0  0  0  0  0  0  0  0
   10.9008   -6.4314  -12.4705 C   0  0  0  0  0  0  0  0  0  0  0  0
    7.2075   -5.6835  -12.0676 C   0  0  0  0  0  0  0  0  0  0  0  0
   11.2437   -7.9088  -12.5143 C   0  0  0  0  0  0  0  0  0  0  0  0
   12.7328   -8.2300  -12.4445 C   0  0  1  0  0  0  0  0  0  0  0  0
   13.5644   -7.0400  -12.0594 C   0  0  0  0  0  0  0  0  0  0  0  0
   12.9697   -9.4007  -11.5025 C   0  0  0  0  0  0  0  0  0  0  0  0
    7.9939   -8.0883  -12.2279 C   0  0  0  0  0  0  0  0  0  0  0  0
   13.4923  -11.1869  -12.9551 C   0  0  0  0  0  0  0  0  0  0  0  0
   12.0453  -11.5157  -11.0928 C   0  0  0  0  0  0  0  0  0  0  0  0
    7.3475   -8.7032  -10.9746 C   0  0  0  0  0  0  0  0  0  0  0  0
    7.2211  -10.2230  -11.1904 C   0  0  0  0  0  0  0  0  0  0  0  0
    5.0182  -11.0810  -10.6864 C   0  0  0  0  0  0  0  0  0  0  0  0
  1 23  1  0  0  0  0
  1 24  1  0  0  0  0
  1  2  1  0  0  0  0
  3  4  1  0  0  0  0
  3 17  1  0  0  0  0
  4  6  2  0  0  0  0
  4 13  1  0  0  0  0
  5 10  1  0  0  0  0
  5 14  2  0  0  0  0
  6  8  1  0  0  0  0
  7 12  1  0  0  0  0
  7 14  1  0  0  0  0
  7 19  1  0  0  0  0
  8 10  2  0  0  0  0
  9 14  1  0  0  0  0
 10 12  1  0  0  0  0
 11 18  1  0  0  0  0
 11 20  1  0  0  0  0
 11 21  1  0  0  0  0
 12 13  2  0  0  0  0
 13 15  1  0  0  0  0
 15 16  1  0  0  0  0
 16 17  1  0  0  0  0
 16 18  1  1  0  0  0
 19 22  1  0  0  0  0
 22 23  1  0  0  0  0
M  END
>  <CHROM.1>
-140.41614684,121.19760207,89.20960717,69.96354637,-178.55992491,-167.97339061
9.76887659,-7.88720425,-11.86000307,-2.54514631,0.16725406,-0.19331749

>  <Name>
ligand

>  <RI>
0

>  <Rbt.Current_Directory>
/home/itssahil/PROJECTS/Mol_Feturizer/New_Systems/rnas/3TZR

>  <Rbt.Executable>
rbdock ($Id: //depot/dev/client3/rdock/2013.1/src/exe/rbdock.cxx#4 $)

>  <Rbt.Library>
libRbt.so (2013.1, Build901 2013/11/27)

>  <Rbt.Parameter_File>
/export/apps/rDock/src/rDock_2013.1_src/data/scripts/dock_solv.prm

>  <Rbt.Receptor>
prm/blind_docking_40.prm

>  <SCORE>
-35.9376

>  <SCORE.INTER>
-25.1009

>  <SCORE.INTER.CONST>
1

>  <SCORE.INTER.POLAR>
0

>  <SCORE.INTER.ROT>
6

>  <SCORE.INTER.SOLV>
20.9919

>  <SCORE.INTER.VDW>
-31.3313

>  <SCORE.INTER.norm>
-1.04587

>  <SCORE.INTRA>
-10.8366

>  <SCORE.INTRA.DIHEDRAL>
0.0920526

>  <SCORE.INTRA.DIHEDRAL.0>
4.94008

>  <SCORE.INTRA.POLAR>
0

>  <SCORE.INTRA.POLAR.0>
0

>  <SCORE.INTRA.REPUL>
0

>  <SCORE.INTRA.REPUL.0>
0

>  <SCORE.INTRA.SOLV>
0.635091

>  <SCORE.INTRA.SOLV.lig_0>
-31.4704

>  <SCORE.INTRA.VDW>
-11.2002

>  <SCORE.INTRA.VDW.0>
10.2807

>  <SCORE.INTRA.norm>
-0.451526

>  <SCORE.RESTR>
0

>  <SCORE.RESTR.CAVITY>
0

>  <SCORE.RESTR.norm>
0

>  <SCORE.SYSTEM>
0

>  <SCORE.SYSTEM.CONST>
0

>  <SCORE.SYSTEM.DIHEDRAL>
0

>  <SCORE.SYSTEM.SOLV>
0

>  <SCORE.SYSTEM.norm>
0

>  <SCORE.heavy>
24

>  <SCORE.norm>
-1.4974

>  <RMSD>
0.969

$$$$
ligand
 OpenBabel11021811493D
libRbt.so/2013.1/901 2013/11/27
 24 26  0  0  0  0  0  0  0  0999 V2000
    6.9335  -10.6524  -10.3867 N   0  0  0  0  0  0  0  0  0  0  0  0
    6.9358  -11.8864   -9.6176 C   0  0  0  0  0  0  0  0  0  0  0  0
   13.2783   -6.3469  -12.9151 O   0  0  0  0  0  0  0  0  0  0  0  0
   12.0072   -5.8199  -12.7299 C   0  0  0  0  0  0  0  0  0  0  0  0
    8.0226   -4.3758  -12.1853 N   0  0  0  0  0  0  0  0  0  0  0  0
   11.7456   -4.3425  -12.8559 C   0  0  0  0  0  0  0  0  0  0  0  0
    8.3220   -6.5907  -11.9622 N   0  0  0  0  0  0  0  0  0  0  0  0
   10.4390   -3.7773  -12.6972 C   0  0  0  0  0  0  0  0  0  0  0  0
    5.9949   -5.7198  -11.6420 N   0  0  0  0  0  0  0  0  0  0  0  0
    9.3720   -4.6948  -12.3921 C   0  0  0  0  0  0  0  0  0  0  0  0
   12.3780  -10.8847  -11.7022 N   0  0  0  0  0  0  0  0  0  0  0  0
    9.6108   -6.1065  -12.2538 C   0  0  0  0  0  0  0  0  0  0  0  0
   10.9835   -6.6517  -12.4388 C   0  0  0  0  0  0  0  0  0  0  0  0
    7.3911   -5.5579  -11.9286 C   0  0  0  0  0  0  0  0  0  0  0  0
   11.2138   -8.1448  -12.2984 C   0  0  0  0  0  0  0  0  0  0  0  0
   12.6768   -8.5744  -12.2718 C   0  0  1  0  0  0  0  0  0  0  0  0
   13.6175   -7.4156  -12.1034 C   0  0  0  0  0  0  0  0  0  0  0  0
   12.8918   -9.6249  -11.1928 C   0  0  0  0  0  0  0  0  0  0  0  0
    7.9869   -8.0188  -11.8014 C   0  0  0  0  0  0  0  0  0  0  0  0
   13.4311  -11.5364  -12.4690 C   0  0  0  0  0  0  0  0  0  0  0  0
   12.0232  -11.7072  -10.5563 C   0  0  0  0  0  0  0  0  0  0  0  0
    8.4234   -8.6538  -10.4698 C   0  0  0  0  0  0  0  0  0  0  0  0
    8.3099  -10.1841  -10.6024 C   0  0  0  0  0  0  0  0  0  0  0  0
    6.2574  -10.9094  -11.6533 C   0  0  0  0  0  0  0  0  0  0  0  0
  1 23  1  0  0  0  0
  1 24  1  0  0  0  0
  1  2  1  0  0  0  0
  3  4  1  0  0  0  0
  3 17  1  0  0  0  0
  4  6  2  0  0  0  0
  4 13  1  0  0  0  0
  5 10  1  0  0  0  0
  5 14  2  0  0  0  0
  6  8  1  0  0  0  0
  7 12  1  0  0  0  0
  7 14  1  0  0  0  0
  7 19  1  0  0  0  0
  8 10  2  0  0  0  0
  9 14  1  0  0  0  0
 10 12  1  0  0  0  0
 11 18  1  0  0  0  0
 11 20  1  0  0  0  0
 11 21  1  0  0  0  0
 12 13  2  0  0  0  0
 13 15  1  0  0  0  0
 15 16  1  0  0  0  0
 16 17  1  0  0  0  0
 16 18  1  1  0  0  0
 19 22  1  0  0  0  0
 22 23  1  0  0  0  0
M  END
>  <CHROM.1>
-140.16219088,76.00898207,86.36285517,76.85227861,-166.55893849,-81.87367195
10.00885611,-7.98509023,-11.76430292,1.80383529,-0.17057158,2.89909308

>  <Name>
ligand

>  <RI>
0

>  <Rbt.Current_Directory>
/home/itssahil/PROJECTS/Mol_Feturizer/New_Systems/rnas/3TZR

>  <Rbt.Executable>
rbdock ($Id: //depot/dev/client3/rdock/2013.1/src/exe/rbdock.cxx#4 $)

>  <Rbt.Library>
libRbt.so (2013.1, Build901 2013/11/27)

>  <Rbt.Parameter_File>
/export/apps/rDock/src/rDock_2013.1_src/data/scripts/dock_solv.prm

>  <Rbt.Receptor>
prm/pocket_docking_6.prm

>  <SCORE>
-35.0634

>  <SCORE.INTER>
-24.5213

>  <SCORE.INTER.CONST>
1

>  <SCORE.INTER.POLAR>
0

>  <SCORE.INTER.ROT>
6

>  <SCORE.INTER.SOLV>
20.4852

>  <SCORE.INTER.VDW>
-30.776

>  <SCORE.INTER.norm>
-1.02172

>  <SCORE.INTRA>
-10.542

>  <SCORE.INTRA.DIHEDRAL>
2.33426

>  <SCORE.INTRA.DIHEDRAL.0>
4.94008

>  <SCORE.INTRA.POLAR>
0

>  <SCORE.INTRA.POLAR.0>
0

>  <SCORE.INTRA.REPUL>
0

>  <SCORE.INTRA.REPUL.0>
0

>  <SCORE.INTRA.SOLV>
-0.166277

>  <SCORE.INTRA.SOLV.lig_0>
-31.4704

>  <SCORE.INTRA.VDW>
-11.626

>  <SCORE.INTRA.VDW.0>
10.2807

>  <SCORE.INTRA.norm>
-0.439252

>  <SCORE.RESTR>
0

>  <SCORE.RESTR.CAVITY>
0

>  <SCORE.RESTR.norm>
0

>  <SCORE.SYSTEM>
0

>  <SCORE.SYSTEM.CONST>
0

>  <SCORE.SYSTEM.DIHEDRAL>
0

>  <SCORE.SYSTEM.SOLV>
0

>  <SCORE.SYSTEM.norm>
0

>  <SCORE.heavy>
24

>  <SCORE.norm>
-1.46097

>  <RMSD>
0.969

$$$$
ligand
 OpenBabel11021811493D
libRbt.so/2013.1/901 2013/11/27
 24 26  0  0  0  0  0  0  0  0999 V2000
    6.8238  -10.6478  -10.4801 N   0  0  0  0  0  0  0  0  0  0  0  0
    6.7648  -11.9052   -9.7522 C   0  0  0  0  0  0  0  0  0  0  0  0
   13.3108   -6.4072  -12.8954 O   0  0  0  0  0  0  0  0  0  0  0  0
   12.0440   -5.8680  -12.7161 C   0  0  0  0  0  0  0  0  0  0  0  0
    8.0710   -4.3852  -12.1912 N   0  0  0  0  0  0  0  0  0  0  0  0
   11.7985   -4.3874  -12.8367 C   0  0  0  0  0  0  0  0  0  0  0  0
    8.3459   -6.6042  -11.9767 N   0  0  0  0  0  0  0  0  0  0  0  0
   10.4968   -3.8094  -12.6840 C   0  0  0  0  0  0  0  0  0  0  0  0
    6.0258   -5.7107  -11.6678 N   0  0  0  0  0  0  0  0  0  0  0  0
    9.4183   -4.7173  -12.3905 C   0  0  0  0  0  0  0  0  0  0  0  0
   12.3303  -10.9348  -11.6995 N   0  0  0  0  0  0  0  0  0  0  0  0
    9.6416   -6.1320  -12.2574 C   0  0  0  0  0  0  0  0  0  0  0  0
   11.0098   -6.6905  -12.4358 C   0  0  0  0  0  0  0  0  0  0  0  0
    7.4255   -5.5620  -11.9444 C   0  0  0  0  0  0  0  0  0  0  0  0
   11.2238   -8.1865  -12.3011 C   0  0  0  0  0  0  0  0  0  0  0  0
   12.6820   -8.6314  -12.2669 C   0  0  1  0  0  0  0  0  0  0  0  0
   13.6334   -7.4832  -12.0866 C   0  0  0  0  0  0  0  0  0  0  0  0
   12.8789   -9.6891  -11.1915 C   0  0  0  0  0  0  0  0  0  0  0  0
    7.9951   -8.0294  -11.8251 C   0  0  0  0  0  0  0  0  0  0  0  0
   13.3624  -11.6126  -12.4724 C   0  0  0  0  0  0  0  0  0  0  0  0
   11.9602  -11.7492  -10.5526 C   0  0  0  0  0  0  0  0  0  0  0  0
    8.3093   -8.6444  -10.4503 C   0  0  0  0  0  0  0  0  0  0  0  0
    8.2131  -10.1768  -10.5714 C   0  0  0  0  0  0  0  0  0  0  0  0
    6.2501  -10.8633  -11.8037 C   0  0  0  0  0  0  0  0  0  0  0  0
  1 23  1  0  0  0  0
  1 24  1  0  0  0  0
  1  2  1  0  0  0  0
  3  4  1  0  0  0  0
  3 17  1  0  0  0  0
  4  6  2  0  0  0  0
  4 13  1  0  0  0  0
  5 10  1  0  0  0  0
  5 14  2  0  0  0  0
  6  8  1  0  0  0  0
  7 12  1  0  0  0  0
  7 14  1  0  0  0  0
  7 19  1  0  0  0  0
  8 10  2  0  0  0  0
  9 14  1  0  0  0  0
 10 12  1  0  0  0  0
 11 18  1  0  0  0  0
 11 20  1  0  0  0  0
 11 21  1  0  0  0  0
 12 13  2  0  0  0  0
 13 15  1  0  0  0  0
 15 16  1  0  0  0  0
 16 17  1  0  0  0  0
 16 18  1  1  0  0  0
 19 22  1  0  0  0  0
 22 23  1  0  0  0  0
M  END
>  <CHROM.1>
-142.91283249,80.92760201,86.51830199,75.68543305,-166.23714218,-81.72070513
9.99643593,-8.01211143,-11.77913066,1.92049755,-0.16284743,2.91006367

>  <Name>
ligand

>  <RI>
0

>  <Rbt.Current_Directory>
/home/itssahil/PROJECTS/Mol_Feturizer/New_Systems/rnas/3TZR

>  <Rbt.Executable>
rbdock ($Id: //depot/dev/client3/rdock/2013.1/src/exe/rbdock.cxx#4 $)

>  <Rbt.Library>
libRbt.so (2013.1, Build901 2013/11/27)

>  <Rbt.Parameter_File>
/export/apps/rDock/src/rDock_2013.1_src/data/scripts/dock_solv.prm

>  <Rbt.Receptor>
prm/pocket_docking_5.prm

>  <SCORE>
-35.2645

>  <SCORE.INTER>
-24.7183

>  <SCORE.INTER.CONST>
1

>  <SCORE.INTER.POLAR>
0

>  <SCORE.INTER.ROT>
6

>  <SCORE.INTER.SOLV>
20.5283

>  <SCORE.INTER.VDW>
-30.9217

>  <SCORE.INTER.norm>
-1.02993

>  <SCORE.INTRA>
-10.5462

>  <SCORE.INTRA.DIHEDRAL>
2.10427

>  <SCORE.INTRA.DIHEDRAL.0>
4.94008

>  <SCORE.INTRA.POLAR>
0

>  <SCORE.INTRA.POLAR.0>
0

>  <SCORE.INTRA.REPUL>
0

>  <SCORE.INTRA.REPUL.0>
0

>  <SCORE.INTRA.SOLV>
-0.0939573

>  <SCORE.INTRA.SOLV.lig_0>
-31.4704

>  <SCORE.INTRA.VDW>
-11.5513

>  <SCORE.INTRA.VDW.0>
10.2807

>  <SCORE.INTRA.norm>
-0.439423

>  <SCORE.RESTR>
0

>  <SCORE.RESTR.CAVITY>
0

>  <SCORE.RESTR.norm>
0

>  <SCORE.SYSTEM>
0

>  <SCORE.SYSTEM.CONST>
0

>  <SCORE.SYSTEM.DIHEDRAL>
0

>  <SCORE.SYSTEM.SOLV>
0

>  <SCORE.SYSTEM.norm>
0

>  <SCORE.heavy>
24

>  <SCORE.norm>
-1.46935

>  <RMSD>
0.972

$$$$
ligand
 OpenBabel11021811493D
libRbt.so/2013.1/901 2013/11/27
 24 26  0  0  0  0  0  0  0  0999 V2000
    6.9379  -10.7273  -10.4442 N   0  0  0  0  0  0  0  0  0  0  0  0
    6.9013  -12.0260   -9.7911 C   0  0  0  0  0  0  0  0  0  0  0  0
   13.2811   -6.3715  -13.1411 O   0  0  0  0  0  0  0  0  0  0  0  0
   12.0495   -5.8350  -12.7902 C   0  0  0  0  0  0  0  0  0  0  0  0
    8.1794   -4.3575  -11.7425 N   0  0  0  0  0  0  0  0  0  0  0  0
   11.8192   -4.3472  -12.7738 C   0  0  0  0  0  0  0  0  0  0  0  0
    8.4358   -6.5890  -11.7240 N   0  0  0  0  0  0  0  0  0  0  0  0
   10.5507   -3.7697  -12.4428 C   0  0  0  0  0  0  0  0  0  0  0  0
    6.1765   -5.6987  -11.1078 N   0  0  0  0  0  0  0  0  0  0  0  0
    9.4927   -4.6867  -12.1062 C   0  0  0  0  0  0  0  0  0  0  0  0
   12.8463  -11.0125  -12.3914 N   0  0  0  0  0  0  0  0  0  0  0  0
    9.7035   -6.1095  -12.1030 C   0  0  0  0  0  0  0  0  0  0  0  0
   11.0356   -6.6663  -12.4651 C   0  0  0  0  0  0  0  0  0  0  0  0
    7.5423   -5.5432  -11.5177 C   0  0  0  0  0  0  0  0  0  0  0  0
   11.2359   -8.1703  -12.4654 C   0  0  0  0  0  0  0  0  0  0  0  0
   12.6817   -8.6307  -12.6176 C   0  0  1  0  0  0  0  0  0  0  0  0
   13.6669   -7.5090  -12.4531 C   0  0  0  0  0  0  0  0  0  0  0  0
   12.9704   -9.7690  -11.6506 C   0  0  0  0  0  0  0  0  0  0  0  0
    8.0774   -8.0181  -11.6430 C   0  0  0  0  0  0  0  0  0  0  0  0
   14.1821  -11.4778  -12.7395 C   0  0  0  0  0  0  0  0  0  0  0  0
   12.2010  -11.9794  -11.5172 C   0  0  0  0  0  0  0  0  0  0  0  0
    8.3852   -8.7011  -10.2993 C   0  0  0  0  0  0  0  0  0  0  0  0
    8.3183  -10.2262  -10.5043 C   0  0  0  0  0  0  0  0  0  0  0  0
    6.3703  -10.8758  -11.7796 C   0  0  0  0  0  0  0  0  0  0  0  0
  1 23  1  0  0  0  0
  1 24  1  0  0  0  0
  1  2  1  0  0  0  0
  3  4  1  0  0  0  0
  3 17  1  0  0  0  0
  4  6  2  0  0  0  0
  4 13  1  0  0  0  0
  5 10  1  0  0  0  0
  5 14  2  0  0  0  0
  6  8  1  0  0  0  0
  7 12  1  0  0  0  0
  7 14  1  0  0  0  0
  7 19  1  0  0  0  0
  8 10  2  0  0  0  0
  9 14  1  0  0  0  0
 10 12  1  0  0  0  0
 11 18  1  0  0  0  0
 11 20  1  0  0  0  0
 11 21  1  0  0  0  0
 12 13  2  0  0  0  0
 13 15  1  0  0  0  0
 15 16  1  0  0  0  0
 16 17  1  0  0  0  0
 16 18  1  1  0  0  0
 19 22  1  0  0  0  0
 22 23  1  0  0  0  0
M  END
>  <CHROM.1>
-143.14239989,87.26025904,100.57637313,98.05335749,-164.75594081,-82.28910174
10.12768774,-8.02545585,-11.82257091,2.81343265,0.25928736,-0.15425117

>  <Name>
ligand

>  <RI>
144

>  <Rbt.Current_Directory>
/home/itssahil/PROJECTS/Mol_Feturizer/New_Systems/rnas/3TZR

>  <Rbt.Executable>
rbdock ($Id: //depot/dev/client3/rdock/2013.1/src/exe/rbdock.cxx#4 $)

>  <Rbt.Library>
libRbt.so (2013.1, Build901 2013/11/27)

>  <Rbt.Parameter_File>
/export/apps/rDock/src/rDock_2013.1_src/data/scripts/dock_solv.prm

>  <Rbt.Receptor>
prm/blind_docking_60.prm

>  <SCORE>
-33.2933

>  <SCORE.INTER>
-24.3181

>  <SCORE.INTER.CONST>
1

>  <SCORE.INTER.POLAR>
0

>  <SCORE.INTER.ROT>
6

>  <SCORE.INTER.SOLV>
20.0678

>  <SCORE.INTER.VDW>
-30.5013

>  <SCORE.INTER.norm>
-1.01325

>  <SCORE.INTRA>
-8.97524

>  <SCORE.INTRA.DIHEDRAL>
5.97062

>  <SCORE.INTRA.DIHEDRAL.0>
4.94008

>  <SCORE.INTRA.POLAR>
0

>  <SCORE.INTRA.POLAR.0>
0

>  <SCORE.INTRA.REPUL>
0

>  <SCORE.INTRA.REPUL.0>
0

>  <SCORE.INTRA.SOLV>
-0.0662854

>  <SCORE.INTRA.SOLV.lig_0>
-31.4704

>  <SCORE.INTRA.VDW>
-11.9274

>  <SCORE.INTRA.VDW.0>
10.2807

>  <SCORE.INTRA.norm>
-0.373968

>  <SCORE.RESTR>
0

>  <SCORE.RESTR.CAVITY>
0

>  <SCORE.RESTR.norm>
0

>  <SCORE.SYSTEM>
0

>  <SCORE.SYSTEM.CONST>
0

>  <SCORE.SYSTEM.DIHEDRAL>
0

>  <SCORE.SYSTEM.SOLV>
0

>  <SCORE.SYSTEM.norm>
0

>  <SCORE.heavy>
24

>  <SCORE.norm>
-1.38722

>  <RMSD>
0.975

$$$$
ligand
 OpenBabel11021811493D
libRbt.so/2013.1/901 2013/11/27
 24 26  0  0  0  0  0  0  0  0999 V2000
    6.3626  -10.3652  -10.7779 N   0  0  0  0  0  0  0  0  0  0  0  0
    7.4160  -11.0467  -10.0429 C   0  0  0  0  0  0  0  0  0  0  0  0
   13.1913   -6.3322  -13.1683 O   0  0  0  0  0  0  0  0  0  0  0  0
   11.9621   -5.8133  -12.7842 C   0  0  0  0  0  0  0  0  0  0  0  0
    8.1020   -4.3920  -11.6270 N   0  0  0  0  0  0  0  0  0  0  0  0
   11.7008   -4.3305  -12.7920 C   0  0  0  0  0  0  0  0  0  0  0  0
    8.4065   -6.6168  -11.5689 N   0  0  0  0  0  0  0  0  0  0  0  0
   10.4332   -3.7718  -12.4271 C   0  0  0  0  0  0  0  0  0  0  0  0
    6.1527   -5.7593  -10.8894 N   0  0  0  0  0  0  0  0  0  0  0  0
    9.4079   -4.7024  -12.0316 C   0  0  0  0  0  0  0  0  0  0  0  0
   12.3200  -10.9024  -12.0328 N   0  0  0  0  0  0  0  0  0  0  0  0
    9.6490   -6.1202  -12.0049 C   0  0  0  0  0  0  0  0  0  0  0  0
   10.9787   -6.6575  -12.4036 C   0  0  0  0  0  0  0  0  0  0  0  0
    7.4990   -5.5851  -11.3529 C   0  0  0  0  0  0  0  0  0  0  0  0
   11.2109   -8.1567  -12.3783 C   0  0  0  0  0  0  0  0  0  0  0  0
   12.6597   -8.5907  -12.5735 C   0  0  1  0  0  0  0  0  0  0  0  0
   13.6260   -7.4456  -12.4702 C   0  0  0  0  0  0  0  0  0  0  0  0
   13.0077   -9.7006  -11.5931 C   0  0  0  0  0  0  0  0  0  0  0  0
    8.0819   -8.0507  -11.4434 C   0  0  0  0  0  0  0  0  0  0  0  0
   13.1773  -11.6053  -12.9777 C   0  0  0  0  0  0  0  0  0  0  0  0
   12.0971  -11.7324  -10.8594 C   0  0  0  0  0  0  0  0  0  0  0  0
    6.9820   -8.5642  -12.3885 C   0  0  0  0  0  0  0  0  0  0  0  0
    6.8042  -10.0754  -12.1496 C   0  0  0  0  0  0  0  0  0  0  0  0
    5.1806  -11.2197  -10.7720 C   0  0  0  0  0  0  0  0  0  0  0  0
  1 23  1  0  0  0  0
  1 24  1  0  0  0  0
  1  2  1  0  0  0  0
  3  4  1  0  0  0  0
  3 17  1  0  0  0  0
  4  6  2  0  0  0  0
  4 13  1  0  0  0  0
  5 10  1  0  0  0  0
  5 14  2  0  0  0  0
  6  8  1  0  0  0  0
  7 12  1  0  0  0  0
  7 14  1  0  0  0  0
  7 19  1  0  0  0  0
  8 10  2  0  0  0  0
  9 14  1  0  0  0  0
 10 12  1  0  0  0  0
 11 18  1  0  0  0  0
 11 20  1  0  0  0  0
 11 21  1  0  0  0  0
 12 13  2  0  0  0  0
 13 15  1  0  0  0  0
 15 16  1  0  0  0  0
 16 17  1  0  0  0  0
 16 18  1  1  0  0  0
 19 22  1  0  0  0  0
 22 23  1  0  0  0  0
M  END
>  <CHROM.1>
-111.95305702,-115.12399870,88.32145910,71.91008262,178.41489978,62.25312932
9.84114841,-7.95602438,-11.87739068,-2.87761848,0.20122335,-0.11773624

>  <Name>
ligand

>  <RI>
0

>  <Rbt.Current_Directory>
/home/itssahil/PROJECTS/Mol_Feturizer/New_Systems/rnas/3TZR

>  <Rbt.Executable>
rbdock ($Id: //depot/dev/client3/rdock/2013.1/src/exe/rbdock.cxx#4 $)

>  <Rbt.Library>
libRbt.so (2013.1, Build901 2013/11/27)

>  <Rbt.Parameter_File>
/export/apps/rDock/src/rDock_2013.1_src/data/scripts/dock_solv.prm

>  <Rbt.Receptor>
prm/pocket_docking_2.prm

>  <SCORE>
-35.1674

>  <SCORE.INTER>
-24.6141

>  <SCORE.INTER.CONST>
1

>  <SCORE.INTER.POLAR>
0

>  <SCORE.INTER.ROT>
6

>  <SCORE.INTER.SOLV>
20.95

>  <SCORE.INTER.VDW>
-30.9927

>  <SCORE.INTER.norm>
-1.02559

>  <SCORE.INTRA>
-10.5726

>  <SCORE.INTRA.DIHEDRAL>
0.156134

>  <SCORE.INTRA.DIHEDRAL.0>
4.94008

>  <SCORE.INTRA.POLAR>
0

>  <SCORE.INTRA.POLAR.0>
0

>  <SCORE.INTRA.REPUL>
0

>  <SCORE.INTRA.REPUL.0>
0

>  <SCORE.INTRA.SOLV>
0.748463

>  <SCORE.INTRA.SOLV.lig_0>
-31.4704

>  <SCORE.INTRA.VDW>
-11.0249

>  <SCORE.INTRA.VDW.0>
10.2807

>  <SCORE.INTRA.norm>
-0.440526

>  <SCORE.RESTR>
0.0193316

>  <SCORE.RESTR.CAVITY>
0.0193316

>  <SCORE.RESTR.norm>
0.000805483

>  <SCORE.SYSTEM>
0

>  <SCORE.SYSTEM.CONST>
0

>  <SCORE.SYSTEM.DIHEDRAL>
0

>  <SCORE.SYSTEM.SOLV>
0

>  <SCORE.SYSTEM.norm>
0

>  <SCORE.heavy>
24

>  <SCORE.norm>
-1.46531

>  <RMSD>
0.978

$$$$
ligand
 OpenBabel11021811493D
libRbt.so/2013.1/901 2013/11/27
 24 26  0  0  0  0  0  0  0  0999 V2000
    6.4111  -10.3897  -10.7582 N   0  0  0  0  0  0  0  0  0  0  0  0
    7.4607  -11.1385  -10.0859 C   0  0  0  0  0  0  0  0  0  0  0  0
   13.2107   -6.3535  -13.1739 O   0  0  0  0  0  0  0  0  0  0  0  0
   11.9820   -5.8320  -12.7916 C   0  0  0  0  0  0  0  0  0  0  0  0
    8.1233   -4.4029  -11.6396 N   0  0  0  0  0  0  0  0  0  0  0  0
   11.7225   -4.3490  -12.8035 C   0  0  0  0  0  0  0  0  0  0  0  0
    8.4251   -6.6279  -11.5754 N   0  0  0  0  0  0  0  0  0  0  0  0
   10.4555   -3.7877  -12.4406 C   0  0  0  0  0  0  0  0  0  0  0  0
    6.1721   -5.7659  -10.8990 N   0  0  0  0  0  0  0  0  0  0  0  0
    9.4290   -4.7159  -12.0429 C   0  0  0  0  0  0  0  0  0  0  0  0
   12.2348  -10.8833  -11.9507 N   0  0  0  0  0  0  0  0  0  0  0  0
    9.6683   -6.1340  -12.0123 C   0  0  0  0  0  0  0  0  0  0  0  0
   10.9975   -6.6740  -12.4091 C   0  0  0  0  0  0  0  0  0  0  0  0
    7.5188   -5.5945  -11.3625 C   0  0  0  0  0  0  0  0  0  0  0  0
   11.2279   -8.1734  -12.3796 C   0  0  0  0  0  0  0  0  0  0  0  0
   12.6762   -8.6097  -12.5731 C   0  0  1  0  0  0  0  0  0  0  0  0
   13.6439   -7.4654  -12.4726 C   0  0  0  0  0  0  0  0  0  0  0  0
   13.0225   -9.7172  -11.5895 C   0  0  0  0  0  0  0  0  0  0  0  0
    8.0987   -8.0611  -11.4460 C   0  0  0  0  0  0  0  0  0  0  0  0
   12.9758  -11.6521  -12.9415 C   0  0  0  0  0  0  0  0  0  0  0  0
   12.0535  -11.6783  -10.7463 C   0  0  0  0  0  0  0  0  0  0  0  0
    6.9750   -8.5683  -12.3662 C   0  0  0  0  0  0  0  0  0  0  0  0
    6.8092  -10.0827  -12.1394 C   0  0  0  0  0  0  0  0  0  0  0  0
    5.1916  -11.1892  -10.7244 C   0  0  0  0  0  0  0  0  0  0  0  0
  1 23  1  0  0  0  0
  1 24  1  0  0  0  0
  1  2  1  0  0  0  0
  3  4  1  0  0  0  0
  3 17  1  0  0  0  0
  4  6  2  0  0  0  0
  4 13  1  0  0  0  0
  5 10  1  0  0  0  0
  5 14  2  0  0  0  0
  6  8  1  0  0  0  0
  7 12  1  0  0  0  0
  7 14  1  0  0  0  0
  7 19  1  0  0  0  0
  8 10  2  0  0  0  0
  9 14  1  0  0  0  0
 10 12  1  0  0  0  0
 11 18  1  0  0  0  0
 11 20  1  0  0  0  0
 11 21  1  0  0  0  0
 12 13  2  0  0  0  0
 13 15  1  0  0  0  0
 15 16  1  0  0  0  0
 16 17  1  0  0  0  0
 16 18  1  1  0  0  0
 19 22  1  0  0  0  0
 22 23  1  0  0  0  0
M  END
>  <CHROM.1>
-114.97503819,-116.53901015,87.79489081,66.55554288,177.75001334,62.05840873
9.84301937,-7.96886609,-11.86861468,-2.80310376,0.19922912,-0.12442846

>  <Name>
ligand

>  <RI>
0

>  <Rbt.Current_Directory>
/home/itssahil/PROJECTS/Mol_Feturizer/New_Systems/rnas/3TZR

>  <Rbt.Executable>
rbdock ($Id: //depot/dev/client3/rdock/2013.1/src/exe/rbdock.cxx#4 $)

>  <Rbt.Library>
libRbt.so (2013.1, Build901 2013/11/27)

>  <Rbt.Parameter_File>
/export/apps/rDock/src/rDock_2013.1_src/data/scripts/dock_solv.prm

>  <Rbt.Receptor>
prm/pocket_docking_2.prm

>  <SCORE>
-35.2932

>  <SCORE.INTER>
-24.7062

>  <SCORE.INTER.CONST>
1

>  <SCORE.INTER.POLAR>
0

>  <SCORE.INTER.ROT>
6

>  <SCORE.INTER.SOLV>
20.8383

>  <SCORE.INTER.VDW>
-31.0169

>  <SCORE.INTER.norm>
-1.02942

>  <SCORE.INTRA>
-10.6236

>  <SCORE.INTRA.DIHEDRAL>
-0.120317

>  <SCORE.INTRA.DIHEDRAL.0>
4.94008

>  <SCORE.INTRA.POLAR>
0

>  <SCORE.INTRA.POLAR.0>
0

>  <SCORE.INTRA.REPUL>
0

>  <SCORE.INTRA.REPUL.0>
0

>  <SCORE.INTRA.SOLV>
0.788252

>  <SCORE.INTRA.SOLV.lig_0>
-31.4704

>  <SCORE.INTRA.VDW>
-10.9576

>  <SCORE.INTRA.VDW.0>
10.2807

>  <SCORE.INTRA.norm>
-0.442649

>  <SCORE.RESTR>
0.0365534

>  <SCORE.RESTR.CAVITY>
0.0365534

>  <SCORE.RESTR.norm>
0.00152306

>  <SCORE.SYSTEM>
0

>  <SCORE.SYSTEM.CONST>
0

>  <SCORE.SYSTEM.DIHEDRAL>
0

>  <SCORE.SYSTEM.SOLV>
0

>  <SCORE.SYSTEM.norm>
0

>  <SCORE.heavy>
24

>  <SCORE.norm>
-1.47055

>  <RMSD>
0.979

$$$$
ligand
 OpenBabel11021811493D
libRbt.so/2013.1/901 2013/11/27
 24 26  0  0  0  0  0  0  0  0999 V2000
    8.4077  -10.7238   -9.5811 N   0  0  0  0  0  0  0  0  0  0  0  0
    8.6108  -12.1113   -9.9657 C   0  0  0  0  0  0  0  0  0  0  0  0
   13.3453   -6.3766  -12.9771 O   0  0  0  0  0  0  0  0  0  0  0  0
   12.0852   -5.8745  -12.6806 C   0  0  0  0  0  0  0  0  0  0  0  0
    8.1342   -4.5057  -11.8005 N   0  0  0  0  0  0  0  0  0  0  0  0
   11.8081   -4.3947  -12.6961 C   0  0  0  0  0  0  0  0  0  0  0  0
    8.4593   -6.7274  -11.7376 N   0  0  0  0  0  0  0  0  0  0  0  0
   10.5107   -3.8530  -12.4215 C   0  0  0  0  0  0  0  0  0  0  0  0
    6.1517   -5.9006  -11.2196 N   0  0  0  0  0  0  0  0  0  0  0  0
    9.4699   -4.7982  -12.1100 C   0  0  0  0  0  0  0  0  0  0  0  0
   12.8414  -11.0224  -12.1228 N   0  0  0  0  0  0  0  0  0  0  0  0
    9.7247   -6.2134  -12.0767 C   0  0  0  0  0  0  0  0  0  0  0  0
   11.0863   -6.7327  -12.3804 C   0  0  0  0  0  0  0  0  0  0  0  0
    7.5265   -5.7076  -11.5810 C   0  0  0  0  0  0  0  0  0  0  0  0
   11.3333   -8.2294  -12.3497 C   0  0  0  0  0  0  0  0  0  0  0  0
   12.7975   -8.6458  -12.4408 C   0  0  1  0  0  0  0  0  0  0  0  0
   13.7403   -7.4911  -12.2575 C   0  0  0  0  0  0  0  0  0  0  0  0
   13.0851   -9.7602  -11.4460 C   0  0  0  0  0  0  0  0  0  0  0  0
    8.1429   -8.1658  -11.6475 C   0  0  0  0  0  0  0  0  0  0  0  0
   14.1019  -11.5020  -12.6733 C   0  0  0  0  0  0  0  0  0  0  0  0
   12.3493  -11.9633  -11.1288 C   0  0  0  0  0  0  0  0  0  0  0  0
    7.3809   -8.5966  -10.3824 C   0  0  0  0  0  0  0  0  0  0  0  0
    7.3091  -10.1350  -10.3601 C   0  0  0  0  0  0  0  0  0  0  0  0
    8.1214  -10.6873   -8.1514 C   0  0  0  0  0  0  0  0  0  0  0  0
  1 23  1  0  0  0  0
  1 24  1  0  0  0  0
  1  2  1  0  0  0  0
  3  4  1  0  0  0  0
  3 17  1  0  0  0  0
  4  6  2  0  0  0  0
  4 13  1  0  0  0  0
  5 10  1  0  0  0  0
  5 14  2  0  0  0  0
  6  8  1  0  0  0  0
  7 12  1  0  0  0  0
  7 14  1  0  0  0  0
  7 19  1  0  0  0  0
  8 10  2  0  0  0  0
  9 14  1  0  0  0  0
 10 12  1  0  0  0  0
 11 18  1  0  0  0  0
 11 20  1  0  0  0  0
 11 21  1  0  0  0  0
 12 13  2  0  0  0  0
 13 15  1  0  0  0  0
 15 16  1  0  0  0  0
 16 17  1  0  0  0  0
 16 18  1  1  0  0  0
 19 22  1  0  0  0  0
 22 23  1  0  0  0  0
M  END
>  <CHROM.1>
-159.17389792,132.48445826,93.96144530,90.08157127,-172.26052554,93.93288961
10.28754391,-8.06504700,-11.55370941,1.03772860,-0.33107439,2.84665882

>  <Name>
ligand

>  <RI>
0

>  <Rbt.Current_Directory>
/home/itssahil/PROJECTS/Mol_Feturizer/New_Systems/rnas/3TZR

>  <Rbt.Executable>
rbdock ($Id: //depot/dev/client3/rdock/2013.1/src/exe/rbdock.cxx#4 $)

>  <Rbt.Library>
libRbt.so (2013.1, Build901 2013/11/27)

>  <Rbt.Parameter_File>
/export/apps/rDock/src/rDock_2013.1_src/data/scripts/dock_solv.prm

>  <Rbt.Receptor>
prm/pocket_docking_2.prm

>  <SCORE>
-31.6775

>  <SCORE.INTER>
-23.3768

>  <SCORE.INTER.CONST>
1

>  <SCORE.INTER.POLAR>
-0.695829

>  <SCORE.INTER.ROT>
6

>  <SCORE.INTER.SOLV>
19.2546

>  <SCORE.INTER.VDW>
-27.2833

>  <SCORE.INTER.norm>
-0.974034

>  <SCORE.INTRA>
-8.44688

>  <SCORE.INTRA.DIHEDRAL>
4.4066

>  <SCORE.INTRA.DIHEDRAL.0>
4.94008

>  <SCORE.INTRA.POLAR>
0

>  <SCORE.INTRA.POLAR.0>
0

>  <SCORE.INTRA.REPUL>
0

>  <SCORE.INTRA.REPUL.0>
0

>  <SCORE.INTRA.SOLV>
1.02184

>  <SCORE.INTRA.SOLV.lig_0>
-31.4704

>  <SCORE.INTRA.VDW>
-11.1611

>  <SCORE.INTRA.VDW.0>
10.2807

>  <SCORE.INTRA.norm>
-0.351953

>  <SCORE.RESTR>
0.146143

>  <SCORE.RESTR.CAVITY>
0.146143

>  <SCORE.RESTR.norm>
0.00608929

>  <SCORE.SYSTEM>
0

>  <SCORE.SYSTEM.CONST>
0

>  <SCORE.SYSTEM.DIHEDRAL>
0

>  <SCORE.SYSTEM.SOLV>
0

>  <SCORE.SYSTEM.norm>
0

>  <SCORE.heavy>
24

>  <SCORE.norm>
-1.3199

>  <RMSD>
0.979

$$$$
ligand
 OpenBabel11021811493D
libRbt.so/2013.1/901 2013/11/27
 24 26  0  0  0  0  0  0  0  0999 V2000
    7.5757  -11.1279  -10.2049 N   0  0  0  0  0  0  0  0  0  0  0  0
    6.4022  -11.9740  -10.3514 C   0  0  0  0  0  0  0  0  0  0  0  0
   13.2047   -5.7612  -12.6812 O   0  0  0  0  0  0  0  0  0  0  0  0
   11.8699   -5.4190  -12.5112 C   0  0  0  0  0  0  0  0  0  0  0  0
    7.7131   -4.5421  -12.0517 N   0  0  0  0  0  0  0  0  0  0  0  0
   11.4396   -3.9817  -12.3852 C   0  0  0  0  0  0  0  0  0  0  0  0
    8.2642   -6.7135  -12.2151 N   0  0  0  0  0  0  0  0  0  0  0  0
   10.0666   -3.6009  -12.2371 C   0  0  0  0  0  0  0  0  0  0  0  0
    5.8331   -6.1749  -11.9395 N   0  0  0  0  0  0  0  0  0  0  0  0
    9.1016   -4.6690  -12.1980 C   0  0  0  0  0  0  0  0  0  0  0  0
   12.7049  -10.5127  -12.3729 N   0  0  0  0  0  0  0  0  0  0  0  0
    9.5006   -6.0470  -12.3018 C   0  0  0  0  0  0  0  0  0  0  0  0
   10.9383   -6.3961  -12.4663 C   0  0  0  0  0  0  0  0  0  0  0  0
    7.2147   -5.8123  -12.0715 C   0  0  0  0  0  0  0  0  0  0  0  0
   11.3387   -7.8549  -12.5838 C   0  0  0  0  0  0  0  0  0  0  0  0
   12.8383   -8.1223  -12.5122 C   0  0  1  0  0  0  0  0  0  0  0  0
   13.6189   -6.9236  -12.0541 C   0  0  0  0  0  0  0  0  0  0  0  0
   13.1104   -9.3316  -11.6304 C   0  0  0  0  0  0  0  0  0  0  0  0
    8.0954   -8.1733  -12.3488 C   0  0  0  0  0  0  0  0  0  0  0  0
   13.8529  -11.0025  -13.1239 C   0  0  0  0  0  0  0  0  0  0  0  0
   12.2863  -11.5147  -11.4054 C   0  0  0  0  0  0  0  0  0  0  0  0
    8.5048   -9.0011  -11.1184 C   0  0  0  0  0  0  0  0  0  0  0  0
    7.2611   -9.7478  -10.6009 C   0  0  0  0  0  0  0  0  0  0  0  0
    8.0105  -11.1933   -8.8142 C   0  0  0  0  0  0  0  0  0  0  0  0
  1 23  1  0  0  0  0
  1 24  1  0  0  0  0
  1  2  1  0  0  0  0
  3  4  1  0  0  0  0
  3 17  1  0  0  0  0
  4  6  2  0  0  0  0
  4 13  1  0  0  0  0
  5 10  1  0  0  0  0
  5 14  2  0  0  0  0
  6  8  1  0  0  0  0
  7 12  1  0  0  0  0
  7 14  1  0  0  0  0
  7 19  1  0  0  0  0
  8 10  2  0  0  0  0
  9 14  1  0  0  0  0
 10 12  1  0  0  0  0
 11 18  1  0  0  0  0
 11 20  1  0  0  0  0
 11 21  1  0  0  0  0
 12 13  2  0  0  0  0
 13 15  1  0  0  0  0
 15 16  1  0  0  0  0
 16 17  1  0  0  0  0
 16 18  1  1  0  0  0
 19 22  1  0  0  0  0
 22 23  1  0  0  0  0
M  END
>  <CHROM.1>
-152.31164214,76.70087567,90.90608565,73.22372990,118.30436896,138.56342784
10.04392970,-7.87763883,-11.81232505,-2.21980292,0.21197272,-0.22554281

>  <Name>
ligand

>  <RI>
144

>  <Rbt.Current_Directory>
/home/itssahil/PROJECTS/Mol_Feturizer/New_Systems/rnas/3TZR

>  <Rbt.Executable>
rbdock ($Id: //depot/dev/client3/rdock/2013.1/src/exe/rbdock.cxx#4 $)

>  <Rbt.Library>
libRbt.so (2013.1, Build901 2013/11/27)

>  <Rbt.Parameter_File>
/export/apps/rDock/src/rDock_2013.1_src/data/scripts/dock_solv.prm

>  <Rbt.Receptor>
prm/blind_docking_60.prm

>  <SCORE>
-32.1749

>  <SCORE.INTER>
-25.4586

>  <SCORE.INTER.CONST>
1

>  <SCORE.INTER.POLAR>
0

>  <SCORE.INTER.ROT>
6

>  <SCORE.INTER.SOLV>
20.4542

>  <SCORE.INTER.VDW>
-31.3904

>  <SCORE.INTER.norm>
-1.06077

>  <SCORE.INTRA>
-6.71635

>  <SCORE.INTRA.DIHEDRAL>
9.09382

>  <SCORE.INTRA.DIHEDRAL.0>
4.94008

>  <SCORE.INTRA.POLAR>
0

>  <SCORE.INTRA.POLAR.0>
0

>  <SCORE.INTRA.REPUL>
0

>  <SCORE.INTRA.REPUL.0>
0

>  <SCORE.INTRA.SOLV>
0.32655

>  <SCORE.INTRA.SOLV.lig_0>
-31.4704

>  <SCORE.INTRA.VDW>
-11.4265

>  <SCORE.INTRA.VDW.0>
10.2807

>  <SCORE.INTRA.norm>
-0.279848

>  <SCORE.RESTR>
0

>  <SCORE.RESTR.CAVITY>
0

>  <SCORE.RESTR.norm>
0

>  <SCORE.SYSTEM>
0

>  <SCORE.SYSTEM.CONST>
0

>  <SCORE.SYSTEM.DIHEDRAL>
0

>  <SCORE.SYSTEM.SOLV>
0

>  <SCORE.SYSTEM.norm>
0

>  <SCORE.heavy>
24

>  <SCORE.norm>
-1.34062

>  <RMSD>
0.981

$$$$
ligand
 OpenBabel11021811493D
libRbt.so/2013.1/901 2013/11/27
 24 26  0  0  0  0  0  0  0  0999 V2000
    6.3511  -10.3625  -10.7891 N   0  0  0  0  0  0  0  0  0  0  0  0
    7.4543  -10.9932  -10.0823 C   0  0  0  0  0  0  0  0  0  0  0  0
   13.2048   -6.3555  -13.2014 O   0  0  0  0  0  0  0  0  0  0  0  0
   11.9804   -5.8362  -12.8029 C   0  0  0  0  0  0  0  0  0  0  0  0
    8.1337   -4.4127  -11.6046 N   0  0  0  0  0  0  0  0  0  0  0  0
   11.7287   -4.3519  -12.7810 C   0  0  0  0  0  0  0  0  0  0  0  0
    8.4239   -6.6401  -11.5907 N   0  0  0  0  0  0  0  0  0  0  0  0
   10.4661   -3.7922  -12.4009 C   0  0  0  0  0  0  0  0  0  0  0  0
    6.1781   -5.7814  -10.8867 N   0  0  0  0  0  0  0  0  0  0  0  0
    9.4362   -4.7236  -12.0198 C   0  0  0  0  0  0  0  0  0  0  0  0
   12.2350  -10.9162  -12.0959 N   0  0  0  0  0  0  0  0  0  0  0  0
    9.6681   -6.1432  -12.0214 C   0  0  0  0  0  0  0  0  0  0  0  0
   10.9928   -6.6813  -12.4352 C   0  0  0  0  0  0  0  0  0  0  0  0
    7.5239   -5.6070  -11.3514 C   0  0  0  0  0  0  0  0  0  0  0  0
   11.2154   -8.1821  -12.4397 C   0  0  0  0  0  0  0  0  0  0  0  0
   12.6606   -8.6216  -12.6485 C   0  0  1  0  0  0  0  0  0  0  0  0
   13.6347   -7.4850  -12.5265 C   0  0  0  0  0  0  0  0  0  0  0  0
   13.0047   -9.7525  -11.6910 C   0  0  0  0  0  0  0  0  0  0  0  0
    8.0904   -8.0741  -11.4918 C   0  0  0  0  0  0  0  0  0  0  0  0
   13.0141  -11.6692  -13.0694 C   0  0  0  0  0  0  0  0  0  0  0  0
   12.0134  -11.7279  -10.9095 C   0  0  0  0  0  0  0  0  0  0  0  0
    6.9404   -8.5488  -12.3967 C   0  0  0  0  0  0  0  0  0  0  0  0
    6.7401  -10.0595  -12.1738 C   0  0  0  0  0  0  0  0  0  0  0  0
    5.2088  -11.2685  -10.7465 C   0  0  0  0  0  0  0  0  0  0  0  0
  1 23  1  0  0  0  0
  1 24  1  0  0  0  0
  1  2  1  0  0  0  0
  3  4  1  0  0  0  0
  3 17  1  0  0  0  0
  4  6  2  0  0  0  0
  4 13  1  0  0  0  0
  5 10  1  0  0  0  0
  5 14  2  0  0  0  0
  6  8  1  0  0  0  0
  7 12  1  0  0  0  0
  7 14  1  0  0  0  0
  7 19  1  0  0  0  0
  8 10  2  0  0  0  0
  9 14  1  0  0  0  0
 10 12  1  0  0  0  0
 11 18  1  0  0  0  0
 11 20  1  0  0  0  0
 11 21  1  0  0  0  0
 12 13  2  0  0  0  0
 13 15  1  0  0  0  0
 15 16  1  0  0  0  0
 16 17  1  0  0  0  0
 16 18  1  1  0  0  0
 19 22  1  0  0  0  0
 22 23  1  0  0  0  0
M  END
>  <CHROM.1>
-107.93021715,-117.79103884,89.33367581,67.98571998,179.49894478,62.25004153
9.83496346,-7.97452935,-11.90547464,-2.84176455,0.21043494,-0.10650045

>  <Name>
ligand

>  <RI>
0

>  <Rbt.Current_Directory>
/home/itssahil/PROJECTS/Mol_Feturizer/New_Systems/rnas/3TZR

>  <Rbt.Executable>
rbdock ($Id: //depot/dev/client3/rdock/2013.1/src/exe/rbdock.cxx#4 $)

>  <Rbt.Library>
libRbt.so (2013.1, Build901 2013/11/27)

>  <Rbt.Parameter_File>
/export/apps/rDock/src/rDock_2013.1_src/data/scripts/dock_solv.prm

>  <Rbt.Receptor>
prm/pocket_docking_2.prm

>  <SCORE>
-35.183

>  <SCORE.INTER>
-24.7121

>  <SCORE.INTER.CONST>
1

>  <SCORE.INTER.POLAR>
0

>  <SCORE.INTER.ROT>
6

>  <SCORE.INTER.SOLV>
20.9523

>  <SCORE.INTER.VDW>
-31.0589

>  <SCORE.INTER.norm>
-1.02967

>  <SCORE.INTRA>
-10.5056

>  <SCORE.INTRA.DIHEDRAL>
-0.153021

>  <SCORE.INTRA.DIHEDRAL.0>
4.94008

>  <SCORE.INTRA.POLAR>
0

>  <SCORE.INTRA.POLAR.0>
0

>  <SCORE.INTRA.REPUL>
0

>  <SCORE.INTRA.REPUL.0>
0

>  <SCORE.INTRA.SOLV>
0.843347

>  <SCORE.INTRA.SOLV.lig_0>
-31.4704

>  <SCORE.INTRA.VDW>
-10.8508

>  <SCORE.INTRA.VDW.0>
10.2807

>  <SCORE.INTRA.norm>
-0.437733

>  <SCORE.RESTR>
0.0347472

>  <SCORE.RESTR.CAVITY>
0.0347472

>  <SCORE.RESTR.norm>
0.0014478

>  <SCORE.SYSTEM>
0

>  <SCORE.SYSTEM.CONST>
0

>  <SCORE.SYSTEM.DIHEDRAL>
0

>  <SCORE.SYSTEM.SOLV>
0

>  <SCORE.SYSTEM.norm>
0

>  <SCORE.heavy>
24

>  <SCORE.norm>
-1.46596

>  <RMSD>
0.981

$$$$
ligand
 OpenBabel11021811493D
libRbt.so/2013.1/901 2013/11/27
 24 26  0  0  0  0  0  0  0  0999 V2000
    8.5677  -11.1277   -9.2552 N   0  0  0  0  0  0  0  0  0  0  0  0
    9.4954  -12.1625   -9.6827 C   0  0  0  0  0  0  0  0  0  0  0  0
   13.2776   -6.3254  -13.0358 O   0  0  0  0  0  0  0  0  0  0  0  0
   12.0314   -5.8316  -12.6739 C   0  0  0  0  0  0  0  0  0  0  0  0
    8.1211   -4.4869  -11.5970 N   0  0  0  0  0  0  0  0  0  0  0  0
   11.7607   -4.3515  -12.6199 C   0  0  0  0  0  0  0  0  0  0  0  0
    8.4379   -6.7103  -11.6351 N   0  0  0  0  0  0  0  0  0  0  0  0
   10.4766   -3.8173  -12.2769 C   0  0  0  0  0  0  0  0  0  0  0  0
    6.1545   -5.8977  -11.0011 N   0  0  0  0  0  0  0  0  0  0  0  0
    9.4434   -4.7709  -11.9662 C   0  0  0  0  0  0  0  0  0  0  0  0
   12.4450  -10.9618  -12.1889 N   0  0  0  0  0  0  0  0  0  0  0  0
    9.6927   -6.1871  -11.9990 C   0  0  0  0  0  0  0  0  0  0  0  0
   11.0400   -6.6981  -12.3724 C   0  0  0  0  0  0  0  0  0  0  0  0
    7.5161   -5.6948  -11.4040 C   0  0  0  0  0  0  0  0  0  0  0  0
   11.2810   -8.1956  -12.4108 C   0  0  0  0  0  0  0  0  0  0  0  0
   12.7390   -8.6127  -12.5715 C   0  0  1  0  0  0  0  0  0  0  0  0
   13.6931   -7.4692  -12.3763 C   0  0  0  0  0  0  0  0  0  0  0  0
   13.0571   -9.7671  -11.6334 C   0  0  0  0  0  0  0  0  0  0  0  0
    8.1184   -8.1502  -11.5915 C   0  0  0  0  0  0  0  0  0  0  0  0
   13.2247  -11.3857  -13.3440 C   0  0  0  0  0  0  0  0  0  0  0  0
   12.4866  -11.9917  -11.1627 C   0  0  0  0  0  0  0  0  0  0  0  0
    8.3861   -8.8458  -10.2456 C   0  0  0  0  0  0  0  0  0  0  0  0
    8.1028  -10.3504  -10.4128 C   0  0  0  0  0  0  0  0  0  0  0  0
    7.4539  -11.7731   -8.5695 C   0  0  0  0  0  0  0  0  0  0  0  0
  1 23  1  0  0  0  0
  1 24  1  0  0  0  0
  1  2  1  0  0  0  0
  3  4  1  0  0  0  0
  3 17  1  0  0  0  0
  4  6  2  0  0  0  0
  4 13  1  0  0  0  0
  5 10  1  0  0  0  0
  5 14  2  0  0  0  0
  6  8  1  0  0  0  0
  7 12  1  0  0  0  0
  7 14  1  0  0  0  0
  7 19  1  0  0  0  0
  8 10  2  0  0  0  0
  9 14  1  0  0  0  0
 10 12  1  0  0  0  0
 11 18  1  0  0  0  0
 11 20  1  0  0  0  0
 11 21  1  0  0  0  0
 12 13  2  0  0  0  0
 13 15  1  0  0  0  0
 15 16  1  0  0  0  0
 16 17  1  0  0  0  0
 16 18  1  1  0  0  0
 19 22  1  0  0  0  0
 22 23  1  0  0  0  0
M  END
>  <CHROM.1>
-123.51558822,89.78181101,73.87045536,74.43747707,-175.67747469,169.43468324
10.30781967,-8.13140431,-11.55326318,1.45006282,-0.38323975,2.86913868

>  <Name>
ligand

>  <RI>
0

>  <Rbt.Current_Directory>
/home/itssahil/PROJECTS/Mol_Feturizer/New_Systems/rnas/3TZR

>  <Rbt.Executable>
rbdock ($Id: //depot/dev/client3/rdock/2013.1/src/exe/rbdock.cxx#4 $)

>  <Rbt.Library>
libRbt.so (2013.1, Build901 2013/11/27)

>  <Rbt.Parameter_File>
/export/apps/rDock/src/rDock_2013.1_src/data/scripts/dock_solv.prm

>  <Rbt.Receptor>
prm/pocket_docking_7.prm

>  <SCORE>
-38.1527

>  <SCORE.INTER>
-27.5731

>  <SCORE.INTER.CONST>
1

>  <SCORE.INTER.POLAR>
-0.719111

>  <SCORE.INTER.ROT>
6

>  <SCORE.INTER.SOLV>
19.8148

>  <SCORE.INTER.VDW>
-30.19

>  <SCORE.INTER.norm>
-1.14888

>  <SCORE.INTRA>
-10.5796

>  <SCORE.INTRA.DIHEDRAL>
0.281774

>  <SCORE.INTRA.DIHEDRAL.0>
4.94008

>  <SCORE.INTRA.POLAR>
0

>  <SCORE.INTRA.POLAR.0>
0

>  <SCORE.INTRA.REPUL>
0

>  <SCORE.INTRA.REPUL.0>
0

>  <SCORE.INTRA.SOLV>
0.030111

>  <SCORE.INTRA.SOLV.lig_0>
-31.4704

>  <SCORE.INTRA.VDW>
-10.7355

>  <SCORE.INTRA.VDW.0>
10.2807

>  <SCORE.INTRA.norm>
-0.440816

>  <SCORE.RESTR>
0

>  <SCORE.RESTR.CAVITY>
0

>  <SCORE.RESTR.norm>
0

>  <SCORE.SYSTEM>
0

>  <SCORE.SYSTEM.CONST>
0

>  <SCORE.SYSTEM.DIHEDRAL>
0

>  <SCORE.SYSTEM.SOLV>
0

>  <SCORE.SYSTEM.norm>
0

>  <SCORE.heavy>
24

>  <SCORE.norm>
-1.58969

>  <RMSD>
0.981

$$$$
ligand
 OpenBabel11021811493D
libRbt.so/2013.1/901 2013/11/27
 24 26  0  0  0  0  0  0  0  0999 V2000
    8.5897  -11.1303   -9.3288 N   0  0  0  0  0  0  0  0  0  0  0  0
    9.4482  -12.2087   -9.7916 C   0  0  0  0  0  0  0  0  0  0  0  0
   13.2562   -6.2939  -12.9821 O   0  0  0  0  0  0  0  0  0  0  0  0
   12.0032   -5.8003  -12.6443 C   0  0  0  0  0  0  0  0  0  0  0  0
    8.0729   -4.4563  -11.6416 N   0  0  0  0  0  0  0  0  0  0  0  0
   11.7295   -4.3204  -12.6019 C   0  0  0  0  0  0  0  0  0  0  0  0
    8.3934   -6.6795  -11.6638 N   0  0  0  0  0  0  0  0  0  0  0  0
   10.4389   -3.7865  -12.2837 C   0  0  0  0  0  0  0  0  0  0  0  0
    6.0982   -5.8673  -11.0733 N   0  0  0  0  0  0  0  0  0  0  0  0
    9.4018   -4.7401  -11.9865 C   0  0  0  0  0  0  0  0  0  0  0  0
   12.4713  -10.9390  -12.1601 N   0  0  0  0  0  0  0  0  0  0  0  0
    9.6536   -6.1561  -12.0083 C   0  0  0  0  0  0  0  0  0  0  0  0
   11.0079   -6.6668  -12.3559 C   0  0  0  0  0  0  0  0  0  0  0  0
    7.4664   -5.6642  -11.4535 C   0  0  0  0  0  0  0  0  0  0  0  0
   11.2516   -8.1642  -12.3832 C   0  0  0  0  0  0  0  0  0  0  0  0
   12.7127   -8.5798  -12.5167 C   0  0  1  0  0  0  0  0  0  0  0  0
   13.6618   -7.4341  -12.3103 C   0  0  0  0  0  0  0  0  0  0  0  0
   13.0161   -9.7295  -11.5678 C   0  0  0  0  0  0  0  0  0  0  0  0
    8.0752   -8.1196  -11.6191 C   0  0  0  0  0  0  0  0  0  0  0  0
   13.3591  -11.3686  -13.2320 C   0  0  0  0  0  0  0  0  0  0  0  0
   12.4294  -11.9544  -11.1196 C   0  0  0  0  0  0  0  0  0  0  0  0
    8.4847   -8.8467  -10.3266 C   0  0  0  0  0  0  0  0  0  0  0  0
    8.1123  -10.3345  -10.4687 C   0  0  0  0  0  0  0  0  0  0  0  0
    7.4774  -11.7208   -8.5929 C   0  0  0  0  0  0  0  0  0  0  0  0
  1 23  1  0  0  0  0
  1 24  1  0  0  0  0
  1  2  1  0  0  0  0
  3  4  1  0  0  0  0
  3 17  1  0  0  0  0
  4  6  2  0  0  0  0
  4 13  1  0  0  0  0
  5 10  1  0  0  0  0
  5 14  2  0  0  0  0
  6  8  1  0  0  0  0
  7 12  1  0  0  0  0
  7 14  1  0  0  0  0
  7 19  1  0  0  0  0
  8 10  2  0  0  0  0
  9 14  1  0  0  0  0
 10 12  1  0  0  0  0
 11 18  1  0  0  0  0
 11 20  1  0  0  0  0
 11 21  1  0  0  0  0
 12 13  2  0  0  0  0
 13 15  1  0  0  0  0
 15 16  1  0  0  0  0
 16 17  1  0  0  0  0
 16 18  1  1  0  0  0
 19 22  1  0  0  0  0
 22 23  1  0  0  0  0
M  END
>  <CHROM.1>
-122.98212767,82.38388918,76.59694319,77.13939927,-178.56764037,174.37040307
10.29277555,-8.10661904,-11.55658095,1.40821044,-0.36341995,2.86892010

>  <Name>
ligand

>  <RI>
144

>  <Rbt.Current_Directory>
/home/itssahil/PROJECTS/Mol_Feturizer/New_Systems/rnas/3TZR

>  <Rbt.Executable>
rbdock ($Id: //depot/dev/client3/rdock/2013.1/src/exe/rbdock.cxx#4 $)

>  <Rbt.Library>
libRbt.so (2013.1, Build901 2013/11/27)

>  <Rbt.Parameter_File>
/export/apps/rDock/src/rDock_2013.1_src/data/scripts/dock_solv.prm

>  <Rbt.Receptor>
prm/blind_docking_60.prm

>  <SCORE>
-37.8366

>  <SCORE.INTER>
-27.0825

>  <SCORE.INTER.CONST>
1

>  <SCORE.INTER.POLAR>
-0.72111

>  <SCORE.INTER.ROT>
6

>  <SCORE.INTER.SOLV>
19.8533

>  <SCORE.INTER.VDW>
-29.8691

>  <SCORE.INTER.norm>
-1.12844

>  <SCORE.INTRA>
-10.7541

>  <SCORE.INTRA.DIHEDRAL>
0.297199

>  <SCORE.INTRA.DIHEDRAL.0>
4.94008

>  <SCORE.INTRA.POLAR>
0

>  <SCORE.INTRA.POLAR.0>
0

>  <SCORE.INTRA.REPUL>
0

>  <SCORE.INTRA.REPUL.0>
0

>  <SCORE.INTRA.SOLV>
-0.0804339

>  <SCORE.INTRA.SOLV.lig_0>
-31.4704

>  <SCORE.INTRA.VDW>
-10.8625

>  <SCORE.INTRA.VDW.0>
10.2807

>  <SCORE.INTRA.norm>
-0.448086

>  <SCORE.RESTR>
0

>  <SCORE.RESTR.CAVITY>
0

>  <SCORE.RESTR.norm>
0

>  <SCORE.SYSTEM>
0

>  <SCORE.SYSTEM.CONST>
0

>  <SCORE.SYSTEM.DIHEDRAL>
0

>  <SCORE.SYSTEM.SOLV>
0

>  <SCORE.SYSTEM.norm>
0

>  <SCORE.heavy>
24

>  <SCORE.norm>
-1.57652

>  <RMSD>
0.985

$$$$
ligand
 OpenBabel11021811493D
libRbt.so/2013.1/901 2013/11/27
 24 26  0  0  0  0  0  0  0  0999 V2000
    6.4247  -10.3935  -10.8283 N   0  0  0  0  0  0  0  0  0  0  0  0
    7.4531  -11.1372  -10.1185 C   0  0  0  0  0  0  0  0  0  0  0  0
   13.2713   -6.3519  -13.1717 O   0  0  0  0  0  0  0  0  0  0  0  0
   12.0422   -5.8304  -12.7904 C   0  0  0  0  0  0  0  0  0  0  0  0
    8.1823   -4.4010  -11.6429 N   0  0  0  0  0  0  0  0  0  0  0  0
   11.7854   -4.3469  -12.7947 C   0  0  0  0  0  0  0  0  0  0  0  0
    8.4799   -6.6269  -11.5904 N   0  0  0  0  0  0  0  0  0  0  0  0
   10.5182   -3.7854  -12.4328 C   0  0  0  0  0  0  0  0  0  0  0  0
    6.2262   -5.7647  -10.9165 N   0  0  0  0  0  0  0  0  0  0  0  0
    9.4887   -4.7141  -12.0438 C   0  0  0  0  0  0  0  0  0  0  0  0
   12.3283  -10.9045  -12.0133 N   0  0  0  0  0  0  0  0  0  0  0  0
    9.7255   -6.1327  -12.0205 C   0  0  0  0  0  0  0  0  0  0  0  0
   11.0549   -6.6728  -12.4159 C   0  0  0  0  0  0  0  0  0  0  0  0
    7.5748   -5.5931  -11.3746 C   0  0  0  0  0  0  0  0  0  0  0  0
   11.2826   -8.1728  -12.3942 C   0  0  0  0  0  0  0  0  0  0  0  0
   12.7308   -8.6106  -12.5855 C   0  0  1  0  0  0  0  0  0  0  0  0
   13.7002   -7.4686  -12.4753 C   0  0  0  0  0  0  0  0  0  0  0  0
   13.0719   -9.7243  -11.6071 C   0  0  0  0  0  0  0  0  0  0  0  0
    8.1506   -8.0602  -11.4703 C   0  0  0  0  0  0  0  0  0  0  0  0
   13.1456  -11.6661  -12.9481 C   0  0  0  0  0  0  0  0  0  0  0  0
   12.0794  -11.6966  -10.8191 C   0  0  0  0  0  0  0  0  0  0  0  0
    7.0392   -8.5634  -12.4076 C   0  0  0  0  0  0  0  0  0  0  0  0
    6.8731  -10.0794  -12.1923 C   0  0  0  0  0  0  0  0  0  0  0  0
    5.2104  -11.2014  -10.8433 C   0  0  0  0  0  0  0  0  0  0  0  0
  1 23  1  0  0  0  0
  1 24  1  0  0  0  0
  1  2  1  0  0  0  0
  3  4  1  0  0  0  0
  3 17  1  0  0  0  0
  4  6  2  0  0  0  0
  4 13  1  0  0  0  0
  5 10  1  0  0  0  0
  5 14  2  0  0  0  0
  6  8  1  0  0  0  0
  7 12  1  0  0  0  0
  7 14  1  0  0  0  0
  7 19  1  0  0  0  0
  8 10  2  0  0  0  0
  9 14  1  0  0  0  0
 10 12  1  0  0  0  0
 11 18  1  0  0  0  0
 11 20  1  0  0  0  0
 11 21  1  0  0  0  0
 12 13  2  0  0  0  0
 13 15  1  0  0  0  0
 15 16  1  0  0  0  0
 16 17  1  0  0  0  0
 16 18  1  1  0  0  0
 19 22  1  0  0  0  0
 22 23  1  0  0  0  0
M  END
>  <CHROM.1>
-114.87802604,-115.92151987,90.05039512,69.03861697,177.51516145,63.53807058
9.89926523,-7.97129901,-11.89375979,-2.83060031,0.19430955,-0.11492071

>  <Name>
ligand

>  <RI>
0

>  <Rbt.Current_Directory>
/home/itssahil/PROJECTS/Mol_Feturizer/New_Systems/rnas/3TZR

>  <Rbt.Executable>
rbdock ($Id: //depot/dev/client3/rdock/2013.1/src/exe/rbdock.cxx#4 $)

>  <Rbt.Library>
libRbt.so (2013.1, Build901 2013/11/27)

>  <Rbt.Parameter_File>
/export/apps/rDock/src/rDock_2013.1_src/data/scripts/dock_solv.prm

>  <Rbt.Receptor>
prm/pocket_docking_3.prm

>  <SCORE>
-35.4187

>  <SCORE.INTER>
-24.7495

>  <SCORE.INTER.CONST>
1

>  <SCORE.INTER.POLAR>
0

>  <SCORE.INTER.ROT>
6

>  <SCORE.INTER.SOLV>
20.7797

>  <SCORE.INTER.VDW>
-31.0263

>  <SCORE.INTER.norm>
-1.03123

>  <SCORE.INTRA>
-10.6691

>  <SCORE.INTRA.DIHEDRAL>
0.178017

>  <SCORE.INTRA.DIHEDRAL.0>
4.94008

>  <SCORE.INTRA.POLAR>
0

>  <SCORE.INTRA.POLAR.0>
0

>  <SCORE.INTRA.REPUL>
0

>  <SCORE.INTRA.REPUL.0>
0

>  <SCORE.INTRA.SOLV>
0.761074

>  <SCORE.INTRA.SOLV.lig_0>
-31.4704

>  <SCORE.INTRA.VDW>
-11.1387

>  <SCORE.INTRA.VDW.0>
10.2807

>  <SCORE.INTRA.norm>
-0.444547

>  <SCORE.RESTR>
0

>  <SCORE.RESTR.CAVITY>
0

>  <SCORE.RESTR.norm>
0

>  <SCORE.SYSTEM>
0

>  <SCORE.SYSTEM.CONST>
0

>  <SCORE.SYSTEM.DIHEDRAL>
0

>  <SCORE.SYSTEM.SOLV>
0

>  <SCORE.SYSTEM.norm>
0

>  <SCORE.heavy>
24

>  <SCORE.norm>
-1.47578

>  <RMSD>
0.987

$$$$
ligand
 OpenBabel11021811493D
libRbt.so/2013.1/901 2013/11/27
 24 26  0  0  0  0  0  0  0  0999 V2000
    6.8281  -10.5619  -10.4694 N   0  0  0  0  0  0  0  0  0  0  0  0
    6.7175  -11.8564   -9.8165 C   0  0  0  0  0  0  0  0  0  0  0  0
   13.2902   -6.3729  -12.8898 O   0  0  0  0  0  0  0  0  0  0  0  0
   12.0198   -5.8395  -12.7189 C   0  0  0  0  0  0  0  0  0  0  0  0
    8.0367   -4.3753  -12.2186 N   0  0  0  0  0  0  0  0  0  0  0  0
   11.7666   -4.3612  -12.8509 C   0  0  0  0  0  0  0  0  0  0  0  0
    8.3233   -6.5911  -11.9874 N   0  0  0  0  0  0  0  0  0  0  0  0
   10.4611   -3.7894  -12.7069 C   0  0  0  0  0  0  0  0  0  0  0  0
    5.9972   -5.7084  -11.6930 N   0  0  0  0  0  0  0  0  0  0  0  0
    9.3866   -4.7012  -12.4107 C   0  0  0  0  0  0  0  0  0  0  0  0
   12.5652  -10.9394  -11.7490 N   0  0  0  0  0  0  0  0  0  0  0  0
    9.6173   -6.1137  -12.2668 C   0  0  0  0  0  0  0  0  0  0  0  0
   10.9892   -6.6657  -12.4364 C   0  0  0  0  0  0  0  0  0  0  0  0
    7.3970   -5.5538  -11.9657 C   0  0  0  0  0  0  0  0  0  0  0  0
   11.2110   -8.1596  -12.2903 C   0  0  0  0  0  0  0  0  0  0  0  0
   12.6715   -8.5960  -12.2477 C   0  0  1  0  0  0  0  0  0  0  0  0
   13.6159   -7.4413  -12.0723 C   0  0  0  0  0  0  0  0  0  0  0  0
   12.8705   -9.6450  -11.1642 C   0  0  0  0  0  0  0  0  0  0  0  0
    7.9798   -8.0172  -11.8268 C   0  0  0  0  0  0  0  0  0  0  0  0
   13.7709  -11.4557  -12.3826 C   0  0  0  0  0  0  0  0  0  0  0  0
   12.1610  -11.8234  -10.6670 C   0  0  0  0  0  0  0  0  0  0  0  0
    8.4475   -8.6653  -10.5123 C   0  0  0  0  0  0  0  0  0  0  0  0
    8.2413  -10.1877  -10.6222 C   0  0  0  0  0  0  0  0  0  0  0  0
    6.1608  -10.6487  -11.7634 C   0  0  0  0  0  0  0  0  0  0  0  0
  1 23  1  0  0  0  0
  1 24  1  0  0  0  0
  1  2  1  0  0  0  0
  3  4  1  0  0  0  0
  3 17  1  0  0  0  0
  4  6  2  0  0  0  0
  4 13  1  0  0  0  0
  5 10  1  0  0  0  0
  5 14  2  0  0  0  0
  6  8  1  0  0  0  0
  7 12  1  0  0  0  0
  7 14  1  0  0  0  0
  7 19  1  0  0  0  0
  8 10  2  0  0  0  0
  9 14  1  0  0  0  0
 10 12  1  0  0  0  0
 11 18  1  0  0  0  0
 11 20  1  0  0  0  0
 11 21  1  0  0  0  0
 12 13  2  0  0  0  0
 13 15  1  0  0  0  0
 15 16  1  0  0  0  0
 16 17  1  0  0  0  0
 16 18  1  1  0  0  0
 19 22  1  0  0  0  0
 22 23  1  0  0  0  0
M  END
>  <CHROM.1>
-146.87185073,73.74306976,86.68798501,86.14082614,-169.72983435,-75.97197375
10.02089459,-7.97936480,-11.79069903,1.51724349,-0.15596284,2.90377109

>  <Name>
ligand

>  <RI>
0

>  <Rbt.Current_Directory>
/home/itssahil/PROJECTS/Mol_Feturizer/New_Systems/rnas/3TZR

>  <Rbt.Executable>
rbdock ($Id: //depot/dev/client3/rdock/2013.1/src/exe/rbdock.cxx#4 $)

>  <Rbt.Library>
libRbt.so (2013.1, Build901 2013/11/27)

>  <Rbt.Parameter_File>
/export/apps/rDock/src/rDock_2013.1_src/data/scripts/dock_solv.prm

>  <Rbt.Receptor>
prm/pocket_docking_3.prm

>  <SCORE>
-34.5892

>  <SCORE.INTER>
-24.4499

>  <SCORE.INTER.CONST>
1

>  <SCORE.INTER.POLAR>
0

>  <SCORE.INTER.ROT>
6

>  <SCORE.INTER.SOLV>
20.6668

>  <SCORE.INTER.VDW>
-30.7889

>  <SCORE.INTER.norm>
-1.01875

>  <SCORE.INTRA>
-10.1393

>  <SCORE.INTRA.DIHEDRAL>
2.0754

>  <SCORE.INTRA.DIHEDRAL.0>
4.94008

>  <SCORE.INTRA.POLAR>
0

>  <SCORE.INTRA.POLAR.0>
0

>  <SCORE.INTRA.REPUL>
0

>  <SCORE.INTRA.REPUL.0>
0

>  <SCORE.INTRA.SOLV>
-0.242877

>  <SCORE.INTRA.SOLV.lig_0>
-31.4704

>  <SCORE.INTRA.VDW>
-11.0555

>  <SCORE.INTRA.VDW.0>
10.2807

>  <SCORE.INTRA.norm>
-0.42247

>  <SCORE.RESTR>
0

>  <SCORE.RESTR.CAVITY>
0

>  <SCORE.RESTR.norm>
0

>  <SCORE.SYSTEM>
0

>  <SCORE.SYSTEM.CONST>
0

>  <SCORE.SYSTEM.DIHEDRAL>
0

>  <SCORE.SYSTEM.SOLV>
0

>  <SCORE.SYSTEM.norm>
0

>  <SCORE.heavy>
24

>  <SCORE.norm>
-1.44122

>  <RMSD>
0.987

$$$$
ligand
 OpenBabel11021811493D
libRbt.so/2013.1/901 2013/11/27
 24 26  0  0  0  0  0  0  0  0999 V2000
    6.6282  -10.1901  -10.8752 N   0  0  0  0  0  0  0  0  0  0  0  0
    7.7432  -10.7929  -10.1625 C   0  0  0  0  0  0  0  0  0  0  0  0
   13.4357   -6.9034  -13.1748 O   0  0  0  0  0  0  0  0  0  0  0  0
   12.2856   -6.2014  -12.8397 C   0  0  0  0  0  0  0  0  0  0  0  0
    8.6464   -4.2067  -11.8216 N   0  0  0  0  0  0  0  0  0  0  0  0
   12.2213   -4.7017  -12.9561 C   0  0  0  0  0  0  0  0  0  0  0  0
    8.6561   -6.4421  -11.6015 N   0  0  0  0  0  0  0  0  0  0  0  0
   11.0383   -3.9568  -12.6435 C   0  0  0  0  0  0  0  0  0  0  0  0
    6.5349   -5.2498  -11.0052 N   0  0  0  0  0  0  0  0  0  0  0  0
    9.9000   -4.7139  -12.1914 C   0  0  0  0  0  0  0  0  0  0  0  0
   12.1578  -11.3039  -11.8363 N   0  0  0  0  0  0  0  0  0  0  0  0
    9.9527   -6.1454  -12.0610 C   0  0  0  0  0  0  0  0  0  0  0  0
   11.2000   -6.8798  -12.4084 C   0  0  0  0  0  0  0  0  0  0  0  0
    7.8921   -5.2875  -11.4680 C   0  0  0  0  0  0  0  0  0  0  0  0
   11.2333   -8.3907  -12.2736 C   0  0  0  0  0  0  0  0  0  0  0  0
   12.6124   -9.0238  -12.4244 C   0  0  1  0  0  0  0  0  0  0  0  0
   13.7209   -8.0108  -12.3949 C   0  0  0  0  0  0  0  0  0  0  0  0
   12.8122  -10.0960  -11.3639 C   0  0  0  0  0  0  0  0  0  0  0  0
    8.1460   -7.8083  -11.3764 C   0  0  0  0  0  0  0  0  0  0  0  0
   13.1109  -12.0637  -12.6338 C   0  0  0  0  0  0  0  0  0  0  0  0
   11.7692  -12.0763  -10.6667 C   0  0  0  0  0  0  0  0  0  0  0  0
    7.1843   -8.3401  -12.4530 C   0  0  0  0  0  0  0  0  0  0  0  0
    7.0231   -9.8585  -12.2516 C   0  0  0  0  0  0  0  0  0  0  0  0
    5.5157  -11.1332  -10.8565 C   0  0  0  0  0  0  0  0  0  0  0  0
  1 23  1  0  0  0  0
  1 24  1  0  0  0  0
  1  2  1  0  0  0  0
  3  4  1  0  0  0  0
  3 17  1  0  0  0  0
  4  6  2  0  0  0  0
  4 13  1  0  0  0  0
  5 10  1  0  0  0  0
  5 14  2  0  0  0  0
  6  8  1  0  0  0  0
  7 12  1  0  0  0  0
  7 14  1  0  0  0  0
  7 19  1  0  0  0  0
  8 10  2  0  0  0  0
  9 14  1  0  0  0  0
 10 12  1  0  0  0  0
 11 18  1  0  0  0  0
 11 20  1  0  0  0  0
 11 21  1  0  0  0  0
 12 13  2  0  0  0  0
 13 15  1  0  0  0  0
 15 16  1  0  0  0  0
 16 17  1  0  0  0  0
 16 18  1  1  0  0  0
 19 22  1  0  0  0  0
 22 23  1  0  0  0  0
M  END
>  <CHROM.1>
-107.61125886,-103.83982949,88.52732109,81.47612561,166.56472600,53.26635395
10.04058104,-8.04998163,-11.88198627,2.75261430,0.19195093,-0.13680643

>  <Name>
ligand

>  <RI>
0

>  <Rbt.Current_Directory>
/home/itssahil/PROJECTS/Mol_Feturizer/New_Systems/rnas/3TZR

>  <Rbt.Executable>
rbdock ($Id: //depot/dev/client3/rdock/2013.1/src/exe/rbdock.cxx#4 $)

>  <Rbt.Library>
libRbt.so (2013.1, Build901 2013/11/27)

>  <Rbt.Parameter_File>
/export/apps/rDock/src/rDock_2013.1_src/data/scripts/dock_solv.prm

>  <Rbt.Receptor>
prm/pocket_docking_7.prm

>  <SCORE>
-33.3087

>  <SCORE.INTER>
-23.3669

>  <SCORE.INTER.CONST>
1

>  <SCORE.INTER.POLAR>
0

>  <SCORE.INTER.ROT>
6

>  <SCORE.INTER.SOLV>
22.3238

>  <SCORE.INTER.VDW>
-30.6192

>  <SCORE.INTER.norm>
-0.97362

>  <SCORE.INTRA>
-9.94181

>  <SCORE.INTRA.DIHEDRAL>
1.7183

>  <SCORE.INTRA.DIHEDRAL.0>
4.94008

>  <SCORE.INTRA.POLAR>
0

>  <SCORE.INTRA.POLAR.0>
0

>  <SCORE.INTRA.REPUL>
0

>  <SCORE.INTRA.REPUL.0>
0

>  <SCORE.INTRA.SOLV>
0.385229

>  <SCORE.INTRA.SOLV.lig_0>
-31.4704

>  <SCORE.INTRA.VDW>
-10.9936

>  <SCORE.INTRA.VDW.0>
10.2807

>  <SCORE.INTRA.norm>
-0.414242

>  <SCORE.RESTR>
0

>  <SCORE.RESTR.CAVITY>
0

>  <SCORE.RESTR.norm>
0

>  <SCORE.SYSTEM>
0

>  <SCORE.SYSTEM.CONST>
0

>  <SCORE.SYSTEM.DIHEDRAL>
0

>  <SCORE.SYSTEM.SOLV>
0

>  <SCORE.SYSTEM.norm>
0

>  <SCORE.heavy>
24

>  <SCORE.norm>
-1.38786

>  <RMSD>
0.987

$$$$
ligand
 OpenBabel11021811493D
libRbt.so/2013.1/901 2013/11/27
 24 26  0  0  0  0  0  0  0  0999 V2000
    6.3635  -10.8779  -10.2192 N   0  0  0  0  0  0  0  0  0  0  0  0
    6.9089  -12.1769   -9.8595 C   0  0  0  0  0  0  0  0  0  0  0  0
   13.1707   -5.8467  -12.6917 O   0  0  0  0  0  0  0  0  0  0  0  0
   11.8478   -5.4592  -12.5254 C   0  0  0  0  0  0  0  0  0  0  0  0
    7.7222   -4.4437  -12.0706 N   0  0  0  0  0  0  0  0  0  0  0  0
   11.4607   -4.0062  -12.4501 C   0  0  0  0  0  0  0  0  0  0  0  0
    8.2083   -6.6350  -12.1568 N   0  0  0  0  0  0  0  0  0  0  0  0
   10.1006   -3.5798  -12.3069 C   0  0  0  0  0  0  0  0  0  0  0  0
    5.7962   -6.0152  -11.8850 N   0  0  0  0  0  0  0  0  0  0  0  0
    9.1052   -4.6168  -12.2215 C   0  0  0  0  0  0  0  0  0  0  0  0
   12.4364  -10.5514  -12.1580 N   0  0  0  0  0  0  0  0  0  0  0  0
    9.4629   -6.0089  -12.2767 C   0  0  0  0  0  0  0  0  0  0  0  0
   10.8884   -6.4061  -12.4378 C   0  0  0  0  0  0  0  0  0  0  0  0
    7.1867   -5.6985  -12.0398 C   0  0  0  0  0  0  0  0  0  0  0  0
   11.2451   -7.8794  -12.5037 C   0  0  0  0  0  0  0  0  0  0  0  0
   12.7368   -8.1880  -12.4324 C   0  0  1  0  0  0  0  0  0  0  0  0
   13.5557   -6.9968  -12.0245 C   0  0  0  0  0  0  0  0  0  0  0  0
   12.9803   -9.3714  -11.5081 C   0  0  0  0  0  0  0  0  0  0  0  0
    7.9959   -8.0931  -12.2350 C   0  0  0  0  0  0  0  0  0  0  0  0
   13.4597  -11.1111  -13.0305 C   0  0  0  0  0  0  0  0  0  0  0  0
   12.1014  -11.5090  -11.1156 C   0  0  0  0  0  0  0  0  0  0  0  0
    7.4205   -8.7458  -10.9662 C   0  0  0  0  0  0  0  0  0  0  0  0
    7.1972  -10.2431  -11.2499 C   0  0  0  0  0  0  0  0  0  0  0  0
    4.9975  -11.0751  -10.6911 C   0  0  0  0  0  0  0  0  0  0  0  0
  1 23  1  0  0  0  0
  1 24  1  0  0  0  0
  1  2  1  0  0  0  0
  3  4  1  0  0  0  0
  3 17  1  0  0  0  0
  4  6  2  0  0  0  0
  4 13  1  0  0  0  0
  5 10  1  0  0  0  0
  5 14  2  0  0  0  0
  6  8  1  0  0  0  0
  7 12  1  0  0  0  0
  7 14  1  0  0  0  0
  7 19  1  0  0  0  0
  8 10  2  0  0  0  0
  9 14  1  0  0  0  0
 10 12  1  0  0  0  0
 11 18  1  0  0  0  0
 11 20  1  0  0  0  0
 11 21  1  0  0  0  0
 12 13  2  0  0  0  0
 13 15  1  0  0  0  0
 15 16  1  0  0  0  0
 16 17  1  0  0  0  0
 16 18  1  1  0  0  0
 19 22  1  0  0  0  0
 22 23  1  0  0  0  0
M  END
>  <CHROM.1>
-137.26689184,118.01507558,86.97535193,68.69825115,177.09024901,-166.47757626
9.76103342,-7.87681517,-11.85274564,-2.54493150,0.16350968,-0.17964020

>  <Name>
ligand

>  <RI>
0

>  <Rbt.Current_Directory>
/home/itssahil/PROJECTS/Mol_Feturizer/New_Systems/rnas/3TZR

>  <Rbt.Executable>
rbdock ($Id: //depot/dev/client3/rdock/2013.1/src/exe/rbdock.cxx#4 $)

>  <Rbt.Library>
libRbt.so (2013.1, Build901 2013/11/27)

>  <Rbt.Parameter_File>
/export/apps/rDock/src/rDock_2013.1_src/data/scripts/dock_solv.prm

>  <Rbt.Receptor>
prm/blind_docking_40.prm

>  <SCORE>
-35.9741

>  <SCORE.INTER>
-25.2091

>  <SCORE.INTER.CONST>
1

>  <SCORE.INTER.POLAR>
0

>  <SCORE.INTER.ROT>
6

>  <SCORE.INTER.SOLV>
20.8794

>  <SCORE.INTER.VDW>
-31.3659

>  <SCORE.INTER.norm>
-1.05038

>  <SCORE.INTRA>
-10.765

>  <SCORE.INTRA.DIHEDRAL>
0.220331

>  <SCORE.INTRA.DIHEDRAL.0>
4.94008

>  <SCORE.INTRA.POLAR>
0

>  <SCORE.INTRA.POLAR.0>
0

>  <SCORE.INTRA.REPUL>
0

>  <SCORE.INTRA.REPUL.0>
0

>  <SCORE.INTRA.SOLV>
0.601066

>  <SCORE.INTRA.SOLV.lig_0>
-31.4704

>  <SCORE.INTRA.VDW>
-11.1757

>  <SCORE.INTRA.VDW.0>
10.2807

>  <SCORE.INTRA.norm>
-0.448543

>  <SCORE.RESTR>
0

>  <SCORE.RESTR.CAVITY>
0

>  <SCORE.RESTR.norm>
0

>  <SCORE.SYSTEM>
0

>  <SCORE.SYSTEM.CONST>
0

>  <SCORE.SYSTEM.DIHEDRAL>
0

>  <SCORE.SYSTEM.SOLV>
0

>  <SCORE.SYSTEM.norm>
0

>  <SCORE.heavy>
24

>  <SCORE.norm>
-1.49892

>  <RMSD>
0.988

$$$$
ligand
 OpenBabel11021811493D
libRbt.so/2013.1/901 2013/11/27
 24 26  0  0  0  0  0  0  0  0999 V2000
    7.1499  -10.7516   -9.9698 N   0  0  0  0  0  0  0  0  0  0  0  0
    8.3178  -11.5070   -9.5460 C   0  0  0  0  0  0  0  0  0  0  0  0
   13.9101   -7.8815  -12.9427 O   0  0  0  0  0  0  0  0  0  0  0  0
   12.8753   -6.9994  -12.6624 C   0  0  0  0  0  0  0  0  0  0  0  0
    9.5650   -4.4199  -11.8580 N   0  0  0  0  0  0  0  0  0  0  0  0
   13.1247   -5.5224  -12.5097 C   0  0  0  0  0  0  0  0  0  0  0  0
    9.1015   -6.6091  -12.0534 N   0  0  0  0  0  0  0  0  0  0  0  0
   12.0706   -4.5882  -12.2482 C   0  0  0  0  0  0  0  0  0  0  0  0
    7.1772   -5.0775  -11.5763 N   0  0  0  0  0  0  0  0  0  0  0  0
   10.7435   -5.1322  -12.1205 C   0  0  0  0  0  0  0  0  0  0  0  0
   13.4095  -12.0334  -12.1886 N   0  0  0  0  0  0  0  0  0  0  0  0
   10.4936   -6.5429  -12.2489 C   0  0  0  0  0  0  0  0  0  0  0  0
   11.6181   -7.4761  -12.5323 C   0  0  0  0  0  0  0  0  0  0  0  0
    8.5637   -5.3466  -11.8272 C   0  0  0  0  0  0  0  0  0  0  0  0
   11.3333   -8.9597  -12.6739 C   0  0  0  0  0  0  0  0  0  0  0  0
   12.5676   -9.8535  -12.7279 C   0  0  1  0  0  0  0  0  0  0  0  0
   13.8255   -9.1273  -12.3454 C   0  0  0  0  0  0  0  0  0  0  0  0
   12.3552  -11.0879  -11.8646 C   0  0  0  0  0  0  0  0  0  0  0  0
    8.3044   -7.8460  -12.1629 C   0  0  0  0  0  0  0  0  0  0  0  0
   13.7724  -12.7538  -10.9757 C   0  0  0  0  0  0  0  0  0  0  0  0
   12.8758  -12.9629  -13.1718 C   0  0  0  0  0  0  0  0  0  0  0  0
    8.1071   -8.6231  -10.8498 C   0  0  0  0  0  0  0  0  0  0  0  0
    7.4556   -9.9786  -11.1820 C   0  0  0  0  0  0  0  0  0  0  0  0
    6.0614  -11.6939  -10.2036 C   0  0  0  0  0  0  0  0  0  0  0  0
  1 23  1  0  0  0  0
  1 24  1  0  0  0  0
  1  2  1  0  0  0  0
  3  4  1  0  0  0  0
  3 17  1  0  0  0  0
  4  6  2  0  0  0  0
  4 13  1  0  0  0  0
  5 10  1  0  0  0  0
  5 14  2  0  0  0  0
  6  8  1  0  0  0  0
  7 12  1  0  0  0  0
  7 14  1  0  0  0  0
  7 19  1  0  0  0  0
  8 10  2  0  0  0  0
  9 14  1  0  0  0  0
 10 12  1  0  0  0  0
 11 18  1  0  0  0  0
 11 20  1  0  0  0  0
 11 21  1  0  0  0  0
 12 13  2  0  0  0  0
 13 15  1  0  0  0  0
 15 16  1  0  0  0  0
 16 17  1  0  0  0  0
 16 18  1  1  0  0  0
 19 22  1  0  0  0  0
 22 23  1  0  0  0  0
M  END
>  <CHROM.1>
-85.08347131,92.09037539,145.31835618,167.22103739,-171.18359772,-176.24762564
10.59372478,-8.59591207,-11.82528046,1.02697412,-0.28011487,2.99038375

>  <Name>
ligand

>  <RI>
144

>  <Rbt.Current_Directory>
/home/itssahil/PROJECTS/Mol_Feturizer/New_Systems/rnas/3TZR

>  <Rbt.Executable>
rbdock ($Id: //depot/dev/client3/rdock/2013.1/src/exe/rbdock.cxx#4 $)

>  <Rbt.Library>
libRbt.so (2013.1, Build901 2013/11/27)

>  <Rbt.Parameter_File>
/export/apps/rDock/src/rDock_2013.1_src/data/scripts/dock_solv.prm

>  <Rbt.Receptor>
prm/pocket_docking_8.prm

>  <SCORE>
-35.102

>  <SCORE.INTER>
-23.7377

>  <SCORE.INTER.CONST>
1

>  <SCORE.INTER.POLAR>
0

>  <SCORE.INTER.ROT>
6

>  <SCORE.INTER.SOLV>
20.2112

>  <SCORE.INTER.VDW>
-30.1622

>  <SCORE.INTER.norm>
-0.98907

>  <SCORE.INTRA>
-11.3643

>  <SCORE.INTRA.DIHEDRAL>
-0.186531

>  <SCORE.INTRA.DIHEDRAL.0>
4.94008

>  <SCORE.INTRA.POLAR>
0

>  <SCORE.INTRA.POLAR.0>
0

>  <SCORE.INTRA.REPUL>
0

>  <SCORE.INTRA.REPUL.0>
0

>  <SCORE.INTRA.SOLV>
-0.0515232

>  <SCORE.INTRA.SOLV.lig_0>
-31.4704

>  <SCORE.INTRA.VDW>
-11.2453

>  <SCORE.INTRA.VDW.0>
10.2807

>  <SCORE.INTRA.norm>
-0.473512

>  <SCORE.RESTR>
0

>  <SCORE.RESTR.CAVITY>
0

>  <SCORE.RESTR.norm>
0

>  <SCORE.SYSTEM>
0

>  <SCORE.SYSTEM.CONST>
0

>  <SCORE.SYSTEM.DIHEDRAL>
0

>  <SCORE.SYSTEM.SOLV>
0

>  <SCORE.SYSTEM.norm>
0

>  <SCORE.heavy>
24

>  <SCORE.norm>
-1.46258

>  <RMSD>
0.991

$$$$
ligand
 OpenBabel11021811493D
libRbt.so/2013.1/901 2013/11/27
 24 26  0  0  0  0  0  0  0  0999 V2000
    6.4161  -10.3810  -10.7659 N   0  0  0  0  0  0  0  0  0  0  0  0
    7.3928  -11.2058  -10.0730 C   0  0  0  0  0  0  0  0  0  0  0  0
   13.2541   -6.3143  -13.1787 O   0  0  0  0  0  0  0  0  0  0  0  0
   12.0237   -5.7993  -12.7928 C   0  0  0  0  0  0  0  0  0  0  0  0
    8.1608   -4.3908  -11.6296 N   0  0  0  0  0  0  0  0  0  0  0  0
   11.7562   -4.3177  -12.8042 C   0  0  0  0  0  0  0  0  0  0  0  0
    8.4748   -6.6141  -11.5659 N   0  0  0  0  0  0  0  0  0  0  0  0
   10.4873   -3.7632  -12.4376 C   0  0  0  0  0  0  0  0  0  0  0  0
    6.2192   -5.7641  -10.8830 N   0  0  0  0  0  0  0  0  0  0  0  0
    9.4670   -4.6969  -12.0368 C   0  0  0  0  0  0  0  0  0  0  0  0
   12.4104  -10.8864  -12.0316 N   0  0  0  0  0  0  0  0  0  0  0  0
    9.7140   -6.1136  -12.0066 C   0  0  0  0  0  0  0  0  0  0  0  0
   11.0449   -6.6466  -12.4073 C   0  0  0  0  0  0  0  0  0  0  0  0
    7.5636   -5.5856  -11.3504 C   0  0  0  0  0  0  0  0  0  0  0  0
   11.2834   -8.1447  -12.3782 C   0  0  0  0  0  0  0  0  0  0  0  0
   12.7335   -8.5732  -12.5760 C   0  0  1  0  0  0  0  0  0  0  0  0
   13.6953   -7.4238  -12.4785 C   0  0  0  0  0  0  0  0  0  0  0  0
   13.0887   -9.6787  -11.5933 C   0  0  0  0  0  0  0  0  0  0  0  0
    8.1565   -8.0490  -11.4354 C   0  0  0  0  0  0  0  0  0  0  0  0
   13.3278  -11.6561  -12.8609 C   0  0  0  0  0  0  0  0  0  0  0  0
   12.0643  -11.6492  -10.8426 C   0  0  0  0  0  0  0  0  0  0  0  0
    7.0380   -8.5641  -12.3576 C   0  0  0  0  0  0  0  0  0  0  0  0
    6.8793  -10.0788  -12.1277 C   0  0  0  0  0  0  0  0  0  0  0  0
    5.1480  -11.1012  -10.7860 C   0  0  0  0  0  0  0  0  0  0  0  0
  1 23  1  0  0  0  0
  1 24  1  0  0  0  0
  1  2  1  0  0  0  0
  3  4  1  0  0  0  0
  3 17  1  0  0  0  0
  4  6  2  0  0  0  0
  4 13  1  0  0  0  0
  5 10  1  0  0  0  0
  5 14  2  0  0  0  0
  6  8  1  0  0  0  0
  7 12  1  0  0  0  0
  7 14  1  0  0  0  0
  7 19  1  0  0  0  0
  8 10  2  0  0  0  0
  9 14  1  0  0  0  0
 10 12  1  0  0  0  0
 11 18  1  0  0  0  0
 11 20  1  0  0  0  0
 11 21  1  0  0  0  0
 12 13  2  0  0  0  0
 13 15  1  0  0  0  0
 15 16  1  0  0  0  0
 16 17  1  0  0  0  0
 16 18  1  1  0  0  0
 19 22  1  0  0  0  0
 22 23  1  0  0  0  0
M  END
>  <CHROM.1>
-119.64295524,-116.22221463,94.32064270,72.19588071,177.82097485,64.81393869
9.89840173,-7.95042039,-11.87224322,-2.86258584,0.19905467,-0.12125817

>  <Name>
ligand

>  <RI>
0

>  <Rbt.Current_Directory>
/home/itssahil/PROJECTS/Mol_Feturizer/New_Systems/rnas/3TZR

>  <Rbt.Executable>
rbdock ($Id: //depot/dev/client3/rdock/2013.1/src/exe/rbdock.cxx#4 $)

>  <Rbt.Library>
libRbt.so (2013.1, Build901 2013/11/27)

>  <Rbt.Parameter_File>
/export/apps/rDock/src/rDock_2013.1_src/data/scripts/dock_solv.prm

>  <Rbt.Receptor>
prm/blind_docking_80.prm

>  <SCORE>
-35.4287

>  <SCORE.INTER>
-24.8162

>  <SCORE.INTER.CONST>
1

>  <SCORE.INTER.POLAR>
0

>  <SCORE.INTER.ROT>
6

>  <SCORE.INTER.SOLV>
20.8115

>  <SCORE.INTER.VDW>
-31.0813

>  <SCORE.INTER.norm>
-1.03401

>  <SCORE.INTRA>
-10.6125

>  <SCORE.INTRA.DIHEDRAL>
0.742836

>  <SCORE.INTRA.DIHEDRAL.0>
4.94008

>  <SCORE.INTRA.POLAR>
0

>  <SCORE.INTRA.POLAR.0>
0

>  <SCORE.INTRA.REPUL>
0

>  <SCORE.INTRA.REPUL.0>
0

>  <SCORE.INTRA.SOLV>
0.766523

>  <SCORE.INTRA.SOLV.lig_0>
-31.4704

>  <SCORE.INTRA.VDW>
-11.3672

>  <SCORE.INTRA.VDW.0>
10.2807

>  <SCORE.INTRA.norm>
-0.442187

>  <SCORE.RESTR>
0

>  <SCORE.RESTR.CAVITY>
0

>  <SCORE.RESTR.norm>
0

>  <SCORE.SYSTEM>
0

>  <SCORE.SYSTEM.CONST>
0

>  <SCORE.SYSTEM.DIHEDRAL>
0

>  <SCORE.SYSTEM.SOLV>
0

>  <SCORE.SYSTEM.norm>
0

>  <SCORE.heavy>
24

>  <SCORE.norm>
-1.47619

>  <RMSD>
0.995

$$$$
ligand
 OpenBabel11021811493D
libRbt.so/2013.1/901 2013/11/27
 24 26  0  0  0  0  0  0  0  0999 V2000
    6.4363  -10.4016  -10.8070 N   0  0  0  0  0  0  0  0  0  0  0  0
    7.4230  -11.2102  -10.1091 C   0  0  0  0  0  0  0  0  0  0  0  0
   13.2303   -6.3594  -13.2036 O   0  0  0  0  0  0  0  0  0  0  0  0
   12.0071   -5.8321  -12.8119 C   0  0  0  0  0  0  0  0  0  0  0  0
    8.1644   -4.3848  -11.6296 N   0  0  0  0  0  0  0  0  0  0  0  0
   11.7524   -4.3482  -12.8281 C   0  0  0  0  0  0  0  0  0  0  0  0
    8.4594   -6.6104  -11.5582 N   0  0  0  0  0  0  0  0  0  0  0  0
   10.4908   -3.7811  -12.4556 C   0  0  0  0  0  0  0  0  0  0  0  0
    6.2159   -5.7378  -10.8641 N   0  0  0  0  0  0  0  0  0  0  0  0
    9.4651   -4.7040  -12.0439 C   0  0  0  0  0  0  0  0  0  0  0  0
   12.2757  -10.8906  -11.9710 N   0  0  0  0  0  0  0  0  0  0  0  0
    9.7000   -6.1227  -12.0092 C   0  0  0  0  0  0  0  0  0  0  0  0
   11.0235   -6.6690  -12.4162 C   0  0  0  0  0  0  0  0  0  0  0  0
    7.5586   -5.5731  -11.3412 C   0  0  0  0  0  0  0  0  0  0  0  0
   11.2491   -8.1690  -12.3821 C   0  0  0  0  0  0  0  0  0  0  0  0
   12.6941   -8.6111  -12.5875 C   0  0  1  0  0  0  0  0  0  0  0  0
   13.6665   -7.4697  -12.5015 C   0  0  0  0  0  0  0  0  0  0  0  0
   13.0461   -9.7154  -11.6023 C   0  0  0  0  0  0  0  0  0  0  0  0
    8.1295   -8.0419  -11.4192 C   0  0  0  0  0  0  0  0  0  0  0  0
   13.0513  -11.6699  -12.9266 C   0  0  0  0  0  0  0  0  0  0  0  0
   12.0602  -11.6690  -10.7614 C   0  0  0  0  0  0  0  0  0  0  0  0
    7.0508   -8.5677  -12.3819 C   0  0  0  0  0  0  0  0  0  0  0  0
    6.9046  -10.0854  -12.1639 C   0  0  0  0  0  0  0  0  0  0  0  0
    5.1824  -11.1459  -10.8400 C   0  0  0  0  0  0  0  0  0  0  0  0
  1 23  1  0  0  0  0
  1 24  1  0  0  0  0
  1  2  1  0  0  0  0
  3  4  1  0  0  0  0
  3 17  1  0  0  0  0
  4  6  2  0  0  0  0
  4 13  1  0  0  0  0
  5 10  1  0  0  0  0
  5 14  2  0  0  0  0
  6  8  1  0  0  0  0
  7 12  1  0  0  0  0
  7 14  1  0  0  0  0
  7 19  1  0  0  0  0
  8 10  2  0  0  0  0
  9 14  1  0  0  0  0
 10 12  1  0  0  0  0
 11 18  1  0  0  0  0
 11 20  1  0  0  0  0
 11 21  1  0  0  0  0
 12 13  2  0  0  0  0
 13 15  1  0  0  0  0
 15 16  1  0  0  0  0
 16 17  1  0  0  0  0
 16 18  1  1  0  0  0
 19 22  1  0  0  0  0
 22 23  1  0  0  0  0
M  END
>  <CHROM.1>
-119.01951644,-113.21403572,89.46907234,67.94302590,176.20137731,63.12565918
9.87400608,-7.96610841,-11.88138890,-2.80161609,0.19979799,-0.11898743

>  <Name>
ligand

>  <RI>
0

>  <Rbt.Current_Directory>
/home/itssahil/PROJECTS/Mol_Feturizer/New_Systems/rnas/3TZR

>  <Rbt.Executable>
rbdock ($Id: //depot/dev/client3/rdock/2013.1/src/exe/rbdock.cxx#4 $)

>  <Rbt.Library>
libRbt.so (2013.1, Build901 2013/11/27)

>  <Rbt.Parameter_File>
/export/apps/rDock/src/rDock_2013.1_src/data/scripts/dock_solv.prm

>  <Rbt.Receptor>
prm/pocket_docking_5.prm

>  <SCORE>
-35.4843

>  <SCORE.INTER>
-24.7105

>  <SCORE.INTER.CONST>
1

>  <SCORE.INTER.POLAR>
0

>  <SCORE.INTER.ROT>
6

>  <SCORE.INTER.SOLV>
20.9314

>  <SCORE.INTER.VDW>
-31.0508

>  <SCORE.INTER.norm>
-1.0296

>  <SCORE.INTRA>
-10.7738

>  <SCORE.INTRA.DIHEDRAL>
0.124159

>  <SCORE.INTRA.DIHEDRAL.0>
4.94008

>  <SCORE.INTRA.POLAR>
0

>  <SCORE.INTRA.POLAR.0>
0

>  <SCORE.INTRA.REPUL>
0

>  <SCORE.INTRA.REPUL.0>
0

>  <SCORE.INTRA.SOLV>
0.668365

>  <SCORE.INTRA.SOLV.lig_0>
-31.4704

>  <SCORE.INTRA.VDW>
-11.17

>  <SCORE.INTRA.VDW.0>
10.2807

>  <SCORE.INTRA.norm>
-0.448907

>  <SCORE.RESTR>
0

>  <SCORE.RESTR.CAVITY>
0

>  <SCORE.RESTR.norm>
0

>  <SCORE.SYSTEM>
0

>  <SCORE.SYSTEM.CONST>
0

>  <SCORE.SYSTEM.DIHEDRAL>
0

>  <SCORE.SYSTEM.SOLV>
0

>  <SCORE.SYSTEM.norm>
0

>  <SCORE.heavy>
24

>  <SCORE.norm>
-1.47851

>  <RMSD>
0.995

$$$$
ligand
 OpenBabel11021811493D
libRbt.so/2013.1/901 2013/11/27
 24 26  0  0  0  0  0  0  0  0999 V2000
    6.3917  -10.3862  -10.7952 N   0  0  0  0  0  0  0  0  0  0  0  0
    7.3843  -11.1538  -10.0606 C   0  0  0  0  0  0  0  0  0  0  0  0
   13.2465   -6.2827  -13.1970 O   0  0  0  0  0  0  0  0  0  0  0  0
   12.0130   -5.7790  -12.8061 C   0  0  0  0  0  0  0  0  0  0  0  0
    8.1418   -4.4054  -11.6290 N   0  0  0  0  0  0  0  0  0  0  0  0
   11.7358   -4.2991  -12.8053 C   0  0  0  0  0  0  0  0  0  0  0  0
    8.4703   -6.6270  -11.5837 N   0  0  0  0  0  0  0  0  0  0  0  0
   10.4635   -3.7560  -12.4334 C   0  0  0  0  0  0  0  0  0  0  0  0
    6.2097   -5.7974  -10.8924 N   0  0  0  0  0  0  0  0  0  0  0  0
    9.4496   -4.6996  -12.0395 C   0  0  0  0  0  0  0  0  0  0  0  0
   12.4298  -10.8683  -12.0841 N   0  0  0  0  0  0  0  0  0  0  0  0
    9.7060   -6.1148  -12.0211 C   0  0  0  0  0  0  0  0  0  0  0  0
   11.0400   -6.6358  -12.4269 C   0  0  0  0  0  0  0  0  0  0  0  0
    7.5526   -5.6064  -11.3592 C   0  0  0  0  0  0  0  0  0  0  0  0
   11.2884   -8.1325  -12.4102 C   0  0  0  0  0  0  0  0  0  0  0  0
   12.7411   -8.5499  -12.6124 C   0  0  1  0  0  0  0  0  0  0  0  0
   13.6954   -7.3950  -12.5062 C   0  0  0  0  0  0  0  0  0  0  0  0
   13.1042   -9.6610  -11.6389 C   0  0  0  0  0  0  0  0  0  0  0  0
    8.1616   -8.0650  -11.4646 C   0  0  0  0  0  0  0  0  0  0  0  0
   13.3006  -11.5648  -13.0213 C   0  0  0  0  0  0  0  0  0  0  0  0
   12.2034  -11.6997  -10.9123 C   0  0  0  0  0  0  0  0  0  0  0  0
    7.0420   -8.5787  -12.3863 C   0  0  0  0  0  0  0  0  0  0  0  0
    6.8767  -10.0919  -12.1511 C   0  0  0  0  0  0  0  0  0  0  0  0
    5.1563  -11.1606  -10.8315 C   0  0  0  0  0  0  0  0  0  0  0  0
  1 23  1  0  0  0  0
  1 24  1  0  0  0  0
  1  2  1  0  0  0  0
  3  4  1  0  0  0  0
  3 17  1  0  0  0  0
  4  6  2  0  0  0  0
  4 13  1  0  0  0  0
  5 10  1  0  0  0  0
  5 14  2  0  0  0  0
  6  8  1  0  0  0  0
  7 12  1  0  0  0  0
  7 14  1  0  0  0  0
  7 19  1  0  0  0  0
  8 10  2  0  0  0  0
  9 14  1  0  0  0  0
 10 12  1  0  0  0  0
 11 18  1  0  0  0  0
 11 20  1  0  0  0  0
 11 21  1  0  0  0  0
 12 13  2  0  0  0  0
 13 15  1  0  0  0  0
 15 16  1  0  0  0  0
 16 17  1  0  0  0  0
 16 18  1  1  0  0  0
 19 22  1  0  0  0  0
 22 23  1  0  0  0  0
M  END
>  <CHROM.1>
-116.86304113,-116.45533206,89.05643857,72.00045909,178.81781879,65.65529482
9.89948378,-7.94665449,-11.90132948,-2.87060221,0.20219255,-0.11440284

>  <Name>
ligand

>  <RI>
0

>  <Rbt.Current_Directory>
/home/itssahil/PROJECTS/Mol_Feturizer/New_Systems/rnas/3TZR

>  <Rbt.Executable>
rbdock ($Id: //depot/dev/client3/rdock/2013.1/src/exe/rbdock.cxx#4 $)

>  <Rbt.Library>
libRbt.so (2013.1, Build901 2013/11/27)

>  <Rbt.Parameter_File>
/export/apps/rDock/src/rDock_2013.1_src/data/scripts/dock_solv.prm

>  <Rbt.Receptor>
prm/pocket_docking_4.prm

>  <SCORE>
-35.4216

>  <SCORE.INTER>
-24.8579

>  <SCORE.INTER.CONST>
1

>  <SCORE.INTER.POLAR>
0

>  <SCORE.INTER.ROT>
6

>  <SCORE.INTER.SOLV>
20.795

>  <SCORE.INTER.VDW>
-31.1036

>  <SCORE.INTER.norm>
-1.03574

>  <SCORE.INTRA>
-10.5637

>  <SCORE.INTRA.DIHEDRAL>
0.404205

>  <SCORE.INTRA.DIHEDRAL.0>
4.94008

>  <SCORE.INTRA.POLAR>
0

>  <SCORE.INTRA.POLAR.0>
0

>  <SCORE.INTRA.REPUL>
0

>  <SCORE.INTRA.REPUL.0>
0

>  <SCORE.INTRA.SOLV>
0.785305

>  <SCORE.INTRA.SOLV.lig_0>
-31.4704

>  <SCORE.INTRA.VDW>
-11.1585

>  <SCORE.INTRA.VDW.0>
10.2807

>  <SCORE.INTRA.norm>
-0.440156

>  <SCORE.RESTR>
0

>  <SCORE.RESTR.CAVITY>
0

>  <SCORE.RESTR.norm>
0

>  <SCORE.SYSTEM>
0

>  <SCORE.SYSTEM.CONST>
0

>  <SCORE.SYSTEM.DIHEDRAL>
0

>  <SCORE.SYSTEM.SOLV>
0

>  <SCORE.SYSTEM.norm>
0

>  <SCORE.heavy>
24

>  <SCORE.norm>
-1.4759

>  <RMSD>
0.996

$$$$
ligand
 OpenBabel11021811493D
libRbt.so/2013.1/901 2013/11/27
 24 26  0  0  0  0  0  0  0  0999 V2000
    8.5931  -11.1394   -9.2903 N   0  0  0  0  0  0  0  0  0  0  0  0
    9.4803  -12.1911   -9.7604 C   0  0  0  0  0  0  0  0  0  0  0  0
   13.2669   -6.3693  -13.0419 O   0  0  0  0  0  0  0  0  0  0  0  0
   12.0277   -5.8614  -12.6754 C   0  0  0  0  0  0  0  0  0  0  0  0
    8.1371   -4.4719  -11.5840 N   0  0  0  0  0  0  0  0  0  0  0  0
   11.7746   -4.3783  -12.6192 C   0  0  0  0  0  0  0  0  0  0  0  0
    8.4277   -6.6989  -11.6252 N   0  0  0  0  0  0  0  0  0  0  0  0
   10.4979   -3.8294  -12.2714 C   0  0  0  0  0  0  0  0  0  0  0  0
    6.1561   -5.8603  -10.9828 N   0  0  0  0  0  0  0  0  0  0  0  0
    9.4547   -4.7711  -11.9580 C   0  0  0  0  0  0  0  0  0  0  0  0
   13.0192  -11.0238  -12.4395 N   0  0  0  0  0  0  0  0  0  0  0  0
    9.6873   -6.1901  -11.9929 C   0  0  0  0  0  0  0  0  0  0  0  0
   11.0272   -6.7165  -12.3713 C   0  0  0  0  0  0  0  0  0  0  0  0
    7.5187   -5.6729  -11.3901 C   0  0  0  0  0  0  0  0  0  0  0  0
   11.2506   -8.2167  -12.4118 C   0  0  0  0  0  0  0  0  0  0  0  0
   12.7031   -8.6506  -12.5779 C   0  0  1  0  0  0  0  0  0  0  0  0
   13.6712   -7.5186  -12.3848 C   0  0  0  0  0  0  0  0  0  0  0  0
   13.0108   -9.8096  -11.6418 C   0  0  0  0  0  0  0  0  0  0  0  0
    8.0915   -8.1350  -11.5818 C   0  0  0  0  0  0  0  0  0  0  0  0
   14.3927  -11.3085  -12.8324 C   0  0  0  0  0  0  0  0  0  0  0  0
   12.5141  -12.1003  -11.6018 C   0  0  0  0  0  0  0  0  0  0  0  0
    8.4039   -8.8467  -10.2541 C   0  0  0  0  0  0  0  0  0  0  0  0
    8.0974  -10.3465  -10.4243 C   0  0  0  0  0  0  0  0  0  0  0  0
    7.4952  -11.7650   -8.5619 C   0  0  0  0  0  0  0  0  0  0  0  0
  1 23  1  0  0  0  0
  1 24  1  0  0  0  0
  1  2  1  0  0  0  0
  3  4  1  0  0  0  0
  3 17  1  0  0  0  0
  4  6  2  0  0  0  0
  4 13  1  0  0  0  0
  5 10  1  0  0  0  0
  5 14  2  0  0  0  0
  6  8  1  0  0  0  0
  7 12  1  0  0  0  0
  7 14  1  0  0  0  0
  7 19  1  0  0  0  0
  8 10  2  0  0  0  0
  9 14  1  0  0  0  0
 10 12  1  0  0  0  0
 11 18  1  0  0  0  0
 11 20  1  0  0  0  0
 11 21  1  0  0  0  0
 12 13  2  0  0  0  0
 13 15  1  0  0  0  0
 15 16  1  0  0  0  0
 16 17  1  0  0  0  0
 16 18  1  1  0  0  0
 19 22  1  0  0  0  0
 22 23  1  0  0  0  0
M  END
>  <CHROM.1>
-124.21486971,87.62306257,94.98121592,102.91797994,-175.56034334,169.68757441
10.38407533,-8.14442889,-11.56411901,1.19947722,-0.37402638,2.86753683

>  <Name>
ligand

>  <RI>
0

>  <Rbt.Current_Directory>
/home/itssahil/PROJECTS/Mol_Feturizer/New_Systems/rnas/3TZR

>  <Rbt.Executable>
rbdock ($Id: //depot/dev/client3/rdock/2013.1/src/exe/rbdock.cxx#4 $)

>  <Rbt.Library>
libRbt.so (2013.1, Build901 2013/11/27)

>  <Rbt.Parameter_File>
/export/apps/rDock/src/rDock_2013.1_src/data/scripts/dock_solv.prm

>  <Rbt.Receptor>
prm/pocket_docking_7.prm

>  <SCORE>
-37.7321

>  <SCORE.INTER>
-27.9625

>  <SCORE.INTER.CONST>
1

>  <SCORE.INTER.POLAR>
-0.72111

>  <SCORE.INTER.ROT>
6

>  <SCORE.INTER.SOLV>
19.9292

>  <SCORE.INTER.VDW>
-30.481

>  <SCORE.INTER.norm>
-1.1651

>  <SCORE.INTRA>
-9.76966

>  <SCORE.INTRA.DIHEDRAL>
4.91005

>  <SCORE.INTRA.DIHEDRAL.0>
4.94008

>  <SCORE.INTRA.POLAR>
0

>  <SCORE.INTRA.POLAR.0>
0

>  <SCORE.INTRA.REPUL>
0

>  <SCORE.INTRA.REPUL.0>
0

>  <SCORE.INTRA.SOLV>
-0.15381

>  <SCORE.INTRA.SOLV.lig_0>
-31.4704

>  <SCORE.INTRA.VDW>
-12.1478

>  <SCORE.INTRA.VDW.0>
10.2807

>  <SCORE.INTRA.norm>
-0.407069

>  <SCORE.RESTR>
0

>  <SCORE.RESTR.CAVITY>
0

>  <SCORE.RESTR.norm>
0

>  <SCORE.SYSTEM>
0

>  <SCORE.SYSTEM.CONST>
0

>  <SCORE.SYSTEM.DIHEDRAL>
0

>  <SCORE.SYSTEM.SOLV>
0

>  <SCORE.SYSTEM.norm>
0

>  <SCORE.heavy>
24

>  <SCORE.norm>
-1.57217

>  <RMSD>
0.996

$$$$
ligand
 OpenBabel11021811493D
libRbt.so/2013.1/901 2013/11/27
 24 26  0  0  0  0  0  0  0  0999 V2000
    8.5587  -11.1070   -9.2846 N   0  0  0  0  0  0  0  0  0  0  0  0
    9.4907  -12.1270   -9.7378 C   0  0  0  0  0  0  0  0  0  0  0  0
   13.2363   -6.3803  -13.1149 O   0  0  0  0  0  0  0  0  0  0  0  0
   12.0045   -5.8608  -12.7398 C   0  0  0  0  0  0  0  0  0  0  0  0
    8.1350   -4.4357  -11.6197 N   0  0  0  0  0  0  0  0  0  0  0  0
   11.7618   -4.3756  -12.6941 C   0  0  0  0  0  0  0  0  0  0  0  0
    8.4105   -6.6649  -11.6441 N   0  0  0  0  0  0  0  0  0  0  0  0
   10.4926   -3.8151  -12.3377 C   0  0  0  0  0  0  0  0  0  0  0  0
    6.1514   -5.8054  -10.9851 N   0  0  0  0  0  0  0  0  0  0  0  0
    9.4465   -4.7470  -12.0049 C   0  0  0  0  0  0  0  0  0  0  0  0
   13.0691  -11.0128  -12.4850 N   0  0  0  0  0  0  0  0  0  0  0  0
    9.6694   -6.1678  -12.0296 C   0  0  0  0  0  0  0  0  0  0  0  0
   11.0017   -6.7064  -12.4175 C   0  0  0  0  0  0  0  0  0  0  0  0
    7.5108   -5.6307  -11.4085 C   0  0  0  0  0  0  0  0  0  0  0  0
   11.2147   -8.2084  -12.4470 C   0  0  0  0  0  0  0  0  0  0  0  0
   12.6624   -8.6535  -12.6246 C   0  0  1  0  0  0  0  0  0  0  0  0
   13.6400   -7.5264  -12.4519 C   0  0  0  0  0  0  0  0  0  0  0  0
   12.9725   -9.8062  -11.6816 C   0  0  0  0  0  0  0  0  0  0  0  0
    8.0652   -8.0982  -11.5843 C   0  0  0  0  0  0  0  0  0  0  0  0
   14.4727  -11.2509  -12.7935 C   0  0  0  0  0  0  0  0  0  0  0  0
   12.5476  -12.1117  -11.6874 C   0  0  0  0  0  0  0  0  0  0  0  0
    8.5192   -8.8345  -10.3121 C   0  0  0  0  0  0  0  0  0  0  0  0
    8.0847  -10.3080  -10.4236 C   0  0  0  0  0  0  0  0  0  0  0  0
    7.4515  -11.7734   -8.6084 C   0  0  0  0  0  0  0  0  0  0  0  0
  1 23  1  0  0  0  0
  1 24  1  0  0  0  0
  1  2  1  0  0  0  0
  3  4  1  0  0  0  0
  3 17  1  0  0  0  0
  4  6  2  0  0  0  0
  4 13  1  0  0  0  0
  5 10  1  0  0  0  0
  5 14  2  0  0  0  0
  6  8  1  0  0  0  0
  7 12  1  0  0  0  0
  7 14  1  0  0  0  0
  7 19  1  0  0  0  0
  8 10  2  0  0  0  0
  9 14  1  0  0  0  0
 10 12  1  0  0  0  0
 11 18  1  0  0  0  0
 11 20  1  0  0  0  0
 11 21  1  0  0  0  0
 12 13  2  0  0  0  0
 13 15  1  0  0  0  0
 15 16  1  0  0  0  0
 16 17  1  0  0  0  0
 16 18  1  1  0  0  0
 19 22  1  0  0  0  0
 22 23  1  0  0  0  0
M  END
>  <CHROM.1>
-116.14937535,81.49665607,95.95261027,107.34525483,-179.71835119,176.21224247
10.37934149,-8.12500955,-11.59854853,1.17164140,-0.37873035,2.86093588

>  <Name>
ligand

>  <RI>
0

>  <Rbt.Current_Directory>
/home/itssahil/PROJECTS/Mol_Feturizer/New_Systems/rnas/3TZR

>  <Rbt.Executable>
rbdock ($Id: //depot/dev/client3/rdock/2013.1/src/exe/rbdock.cxx#4 $)

>  <Rbt.Library>
libRbt.so (2013.1, Build901 2013/11/27)

>  <Rbt.Parameter_File>
/export/apps/rDock/src/rDock_2013.1_src/data/scripts/dock_solv.prm

>  <Rbt.Receptor>
prm/pocket_docking_5.prm

>  <SCORE>
-37.386

>  <SCORE.INTER>
-27.5377

>  <SCORE.INTER.CONST>
1

>  <SCORE.INTER.POLAR>
-0.717992

>  <SCORE.INTER.ROT>
6

>  <SCORE.INTER.SOLV>
20.2185

>  <SCORE.INTER.VDW>
-30.3047

>  <SCORE.INTER.norm>
-1.14741

>  <SCORE.INTRA>
-9.84831

>  <SCORE.INTRA.DIHEDRAL>
4.96595

>  <SCORE.INTRA.DIHEDRAL.0>
4.94008

>  <SCORE.INTRA.POLAR>
0

>  <SCORE.INTRA.POLAR.0>
0

>  <SCORE.INTRA.REPUL>
0

>  <SCORE.INTRA.REPUL.0>
0

>  <SCORE.INTRA.SOLV>
-0.29198

>  <SCORE.INTRA.SOLV.lig_0>
-31.4704

>  <SCORE.INTRA.VDW>
-12.1853

>  <SCORE.INTRA.VDW.0>
10.2807

>  <SCORE.INTRA.norm>
-0.410346

>  <SCORE.RESTR>
0

>  <SCORE.RESTR.CAVITY>
0

>  <SCORE.RESTR.norm>
0

>  <SCORE.SYSTEM>
0

>  <SCORE.SYSTEM.CONST>
0

>  <SCORE.SYSTEM.DIHEDRAL>
0

>  <SCORE.SYSTEM.SOLV>
0

>  <SCORE.SYSTEM.norm>
0

>  <SCORE.heavy>
24

>  <SCORE.norm>
-1.55775

>  <RMSD>
0.998

$$$$
ligand
 OpenBabel11021811493D
libRbt.so/2013.1/901 2013/11/27
 24 26  0  0  0  0  0  0  0  0999 V2000
    8.5560  -11.0492   -9.3910 N   0  0  0  0  0  0  0  0  0  0  0  0
    9.4873  -12.0926   -9.7889 C   0  0  0  0  0  0  0  0  0  0  0  0
   13.3146   -6.2352  -13.0494 O   0  0  0  0  0  0  0  0  0  0  0  0
   12.0369   -5.7633  -12.7800 C   0  0  0  0  0  0  0  0  0  0  0  0
    8.0365   -4.4894  -11.9846 N   0  0  0  0  0  0  0  0  0  0  0  0
   11.7249   -4.2906  -12.8020 C   0  0  0  0  0  0  0  0  0  0  0  0
    8.4132   -6.7027  -11.9138 N   0  0  0  0  0  0  0  0  0  0  0  0
   10.4094   -3.7801  -12.5552 C   0  0  0  0  0  0  0  0  0  0  0  0
    6.0761   -5.9313  -11.4453 N   0  0  0  0  0  0  0  0  0  0  0  0
    9.3851   -4.7498  -12.2655 C   0  0  0  0  0  0  0  0  0  0  0  0
   12.9822  -10.8902  -12.2254 N   0  0  0  0  0  0  0  0  0  0  0  0
    9.6729   -6.1586  -12.2263 C   0  0  0  0  0  0  0  0  0  0  0  0
   11.0526   -6.6452  -12.5007 C   0  0  0  0  0  0  0  0  0  0  0  0
    7.4532   -5.7055  -11.7775 C   0  0  0  0  0  0  0  0  0  0  0  0
   11.3346   -8.1356  -12.4642 C   0  0  0  0  0  0  0  0  0  0  0  0
   12.8099   -8.5169  -12.5240 C   0  0  1  0  0  0  0  0  0  0  0  0
   13.7207   -7.3400  -12.3212 C   0  0  0  0  0  0  0  0  0  0  0  0
   13.1028   -9.6242  -11.5229 C   0  0  0  0  0  0  0  0  0  0  0  0
    8.1294   -8.1483  -11.8299 C   0  0  0  0  0  0  0  0  0  0  0  0
   14.2442  -11.1671  -12.8979 C   0  0  0  0  0  0  0  0  0  0  0  0
   12.7190  -11.9184  -11.2308 C   0  0  0  0  0  0  0  0  0  0  0  0
    8.4445   -8.8057  -10.4753 C   0  0  0  0  0  0  0  0  0  0  0  0
    8.0938  -10.3025  -10.5696 C   0  0  0  0  0  0  0  0  0  0  0  0
    7.4410  -11.6794   -8.6931 C   0  0  0  0  0  0  0  0  0  0  0  0
  1 23  1  0  0  0  0
  1 24  1  0  0  0  0
  1  2  1  0  0  0  0
  3  4  1  0  0  0  0
  3 17  1  0  0  0  0
  4  6  2  0  0  0  0
  4 13  1  0  0  0  0
  5 10  1  0  0  0  0
  5 14  2  0  0  0  0
  6  8  1  0  0  0  0
  7 12  1  0  0  0  0
  7 14  1  0  0  0  0
  7 19  1  0  0  0  0
  8 10  2  0  0  0  0
  9 14  1  0  0  0  0
 10 12  1  0  0  0  0
 11 18  1  0  0  0  0
 11 20  1  0  0  0  0
 11 21  1  0  0  0  0
 12 13  2  0  0  0  0
 13 15  1  0  0  0  0
 15 16  1  0  0  0  0
 16 17  1  0  0  0  0
 16 18  1  1  0  0  0
 19 22  1  0  0  0  0
 22 23  1  0  0  0  0
M  END
>  <CHROM.1>
-120.29294637,85.03332595,84.05134004,93.43951736,-179.84644380,171.17140871
10.38314614,-8.06952356,-11.68058161,1.27114489,-0.31285837,2.82470787

>  <Name>
ligand

>  <RI>
0

>  <Rbt.Current_Directory>
/home/itssahil/PROJECTS/Mol_Feturizer/New_Systems/rnas/3TZR

>  <Rbt.Executable>
rbdock ($Id: //depot/dev/client3/rdock/2013.1/src/exe/rbdock.cxx#4 $)

>  <Rbt.Library>
libRbt.so (2013.1, Build901 2013/11/27)

>  <Rbt.Parameter_File>
/export/apps/rDock/src/rDock_2013.1_src/data/scripts/dock_solv.prm

>  <Rbt.Receptor>
prm/blind_docking_100.prm

>  <SCORE>
-37.3934

>  <SCORE.INTER>
-27.0455

>  <SCORE.INTER.CONST>
1

>  <SCORE.INTER.POLAR>
-0.72111

>  <SCORE.INTER.ROT>
6

>  <SCORE.INTER.SOLV>
19.8525

>  <SCORE.INTER.VDW>
-29.8441

>  <SCORE.INTER.norm>
-1.12689

>  <SCORE.INTRA>
-10.3479

>  <SCORE.INTRA.DIHEDRAL>
2.92896

>  <SCORE.INTRA.DIHEDRAL.0>
4.94008

>  <SCORE.INTRA.POLAR>
0

>  <SCORE.INTRA.POLAR.0>
0

>  <SCORE.INTRA.REPUL>
0

>  <SCORE.INTRA.REPUL.0>
0

>  <SCORE.INTRA.SOLV>
-0.166184

>  <SCORE.INTRA.SOLV.lig_0>
-31.4704

>  <SCORE.INTRA.VDW>
-11.7293

>  <SCORE.INTRA.VDW.0>
10.2807

>  <SCORE.INTRA.norm>
-0.431162

>  <SCORE.RESTR>
0

>  <SCORE.RESTR.CAVITY>
0

>  <SCORE.RESTR.norm>
0

>  <SCORE.SYSTEM>
0

>  <SCORE.SYSTEM.CONST>
0

>  <SCORE.SYSTEM.DIHEDRAL>
0

>  <SCORE.SYSTEM.SOLV>
0

>  <SCORE.SYSTEM.norm>
0

>  <SCORE.heavy>
24

>  <SCORE.norm>
-1.55806

>  <RMSD>
0.999

$$$$
ligand
 OpenBabel11021811493D
libRbt.so/2013.1/901 2013/11/27
 24 26  0  0  0  0  0  0  0  0999 V2000
    6.4410  -10.3828  -10.7908 N   0  0  0  0  0  0  0  0  0  0  0  0
    7.4291  -11.1851  -10.0877 C   0  0  0  0  0  0  0  0  0  0  0  0
   13.2531   -6.2972  -13.1941 O   0  0  0  0  0  0  0  0  0  0  0  0
   12.0209   -5.7894  -12.8047 C   0  0  0  0  0  0  0  0  0  0  0  0
    8.1530   -4.4031  -11.6317 N   0  0  0  0  0  0  0  0  0  0  0  0
   11.7471   -4.3089  -12.8086 C   0  0  0  0  0  0  0  0  0  0  0  0
    8.4764   -6.6253  -11.5793 N   0  0  0  0  0  0  0  0  0  0  0  0
   10.4761   -3.7616  -12.4384 C   0  0  0  0  0  0  0  0  0  0  0  0
    6.2177   -5.7883  -10.8904 N   0  0  0  0  0  0  0  0  0  0  0  0
    9.4601   -4.7016  -12.0413 C   0  0  0  0  0  0  0  0  0  0  0  0
   12.4102  -10.8724  -12.0549 N   0  0  0  0  0  0  0  0  0  0  0  0
    9.7132   -6.1173  -12.0184 C   0  0  0  0  0  0  0  0  0  0  0  0
   11.0460   -6.6426  -12.4226 C   0  0  0  0  0  0  0  0  0  0  0  0
    7.5610   -5.6018  -11.3580 C   0  0  0  0  0  0  0  0  0  0  0  0
   11.2909   -8.1399  -12.4012 C   0  0  0  0  0  0  0  0  0  0  0  0
   12.7426   -8.5613  -12.6021 C   0  0  1  0  0  0  0  0  0  0  0  0
   13.6996   -7.4082  -12.4997 C   0  0  0  0  0  0  0  0  0  0  0  0
   13.1033   -9.6701  -11.6251 C   0  0  0  0  0  0  0  0  0  0  0  0
    8.1643   -8.0622  -11.4555 C   0  0  0  0  0  0  0  0  0  0  0  0
   13.2924  -11.6231  -12.9382 C   0  0  0  0  0  0  0  0  0  0  0  0
   12.1201  -11.6582  -10.8658 C   0  0  0  0  0  0  0  0  0  0  0  0
    7.0682   -8.5838  -12.4006 C   0  0  0  0  0  0  0  0  0  0  0  0
    6.8979  -10.0952  -12.1579 C   0  0  0  0  0  0  0  0  0  0  0  0
    5.1817  -11.1187  -10.7976 C   0  0  0  0  0  0  0  0  0  0  0  0
  1 23  1  0  0  0  0
  1 24  1  0  0  0  0
  1  2  1  0  0  0  0
  3  4  1  0  0  0  0
  3 17  1  0  0  0  0
  4  6  2  0  0  0  0
  4 13  1  0  0  0  0
  5 10  1  0  0  0  0
  5 14  2  0  0  0  0
  6  8  1  0  0  0  0
  7 12  1  0  0  0  0
  7 14  1  0  0  0  0
  7 19  1  0  0  0  0
  8 10  2  0  0  0  0
  9 14  1  0  0  0  0
 10 12  1  0  0  0  0
 11 18  1  0  0  0  0
 11 20  1  0  0  0  0
 11 21  1  0  0  0  0
 12 13  2  0  0  0  0
 13 15  1  0  0  0  0
 15 16  1  0  0  0  0
 16 17  1  0  0  0  0
 16 18  1  1  0  0  0
 19 22  1  0  0  0  0
 22 23  1  0  0  0  0
M  END
>  <CHROM.1>
-118.34870498,-114.96854753,92.19391485,71.17016557,178.74218715,62.92160454
9.90596913,-7.95025543,-11.89221984,-2.86005978,0.20071447,-0.11814038

>  <Name>
ligand

>  <RI>
0

>  <Rbt.Current_Directory>
/home/itssahil/PROJECTS/Mol_Feturizer/New_Systems/rnas/3TZR

>  <Rbt.Executable>
rbdock ($Id: //depot/dev/client3/rdock/2013.1/src/exe/rbdock.cxx#4 $)

>  <Rbt.Library>
libRbt.so (2013.1, Build901 2013/11/27)

>  <Rbt.Parameter_File>
/export/apps/rDock/src/rDock_2013.1_src/data/scripts/dock_solv.prm

>  <Rbt.Receptor>
prm/pocket_docking_6.prm

>  <SCORE>
-35.4291

>  <SCORE.INTER>
-24.773

>  <SCORE.INTER.CONST>
1

>  <SCORE.INTER.POLAR>
0

>  <SCORE.INTER.ROT>
6

>  <SCORE.INTER.SOLV>
20.7785

>  <SCORE.INTER.VDW>
-31.0415

>  <SCORE.INTER.norm>
-1.03221

>  <SCORE.INTRA>
-10.6562

>  <SCORE.INTRA.DIHEDRAL>
0.453143

>  <SCORE.INTRA.DIHEDRAL.0>
4.94008

>  <SCORE.INTRA.POLAR>
0

>  <SCORE.INTRA.POLAR.0>
0

>  <SCORE.INTRA.REPUL>
0

>  <SCORE.INTRA.REPUL.0>
0

>  <SCORE.INTRA.SOLV>
0.747174

>  <SCORE.INTRA.SOLV.lig_0>
-31.4704

>  <SCORE.INTRA.VDW>
-11.2563

>  <SCORE.INTRA.VDW.0>
10.2807

>  <SCORE.INTRA.norm>
-0.444007

>  <SCORE.RESTR>
0

>  <SCORE.RESTR.CAVITY>
0

>  <SCORE.RESTR.norm>
0

>  <SCORE.SYSTEM>
0

>  <SCORE.SYSTEM.CONST>
0

>  <SCORE.SYSTEM.DIHEDRAL>
0

>  <SCORE.SYSTEM.SOLV>
0

>  <SCORE.SYSTEM.norm>
0

>  <SCORE.heavy>
24

>  <SCORE.norm>
-1.47621

>  <RMSD>
0.999

$$$$
ligand
 OpenBabel11021811493D
libRbt.so/2013.1/901 2013/11/27
 24 26  0  0  0  0  0  0  0  0999 V2000
    8.5850  -11.1237   -9.2991 N   0  0  0  0  0  0  0  0  0  0  0  0
    9.4882  -12.1617   -9.7693 C   0  0  0  0  0  0  0  0  0  0  0  0
   13.2434   -6.3422  -13.0477 O   0  0  0  0  0  0  0  0  0  0  0  0
   12.0031   -5.8364  -12.6821 C   0  0  0  0  0  0  0  0  0  0  0  0
    8.1092   -4.4540  -11.5934 N   0  0  0  0  0  0  0  0  0  0  0  0
   11.7468   -4.3538  -12.6276 C   0  0  0  0  0  0  0  0  0  0  0  0
    8.4046   -6.6804  -11.6320 N   0  0  0  0  0  0  0  0  0  0  0  0
   10.4689   -3.8072  -12.2808 C   0  0  0  0  0  0  0  0  0  0  0  0
    6.1310   -5.8458  -10.9912 N   0  0  0  0  0  0  0  0  0  0  0  0
    9.4275   -4.7508  -11.9666 C   0  0  0  0  0  0  0  0  0  0  0  0
   13.1032  -10.9820  -12.4545 N   0  0  0  0  0  0  0  0  0  0  0  0
    9.6631   -6.1694  -11.9999 C   0  0  0  0  0  0  0  0  0  0  0  0
   11.0043   -6.6933  -12.3773 C   0  0  0  0  0  0  0  0  0  0  0  0
    7.4933   -5.6560  -11.3983 C   0  0  0  0  0  0  0  0  0  0  0  0
   11.2309   -8.1930  -12.4161 C   0  0  0  0  0  0  0  0  0  0  0  0
   12.6843   -8.6241  -12.5812 C   0  0  1  0  0  0  0  0  0  0  0  0
   13.6500   -7.4898  -12.3892 C   0  0  0  0  0  0  0  0  0  0  0  0
   12.9942   -9.7814  -11.6438 C   0  0  0  0  0  0  0  0  0  0  0  0
    8.0714   -8.1171  -11.5871 C   0  0  0  0  0  0  0  0  0  0  0  0
   14.4891  -11.1286  -12.8785 C   0  0  0  0  0  0  0  0  0  0  0  0
   12.7227  -12.1098  -11.6185 C   0  0  0  0  0  0  0  0  0  0  0  0
    8.4049   -8.8316  -10.2660 C   0  0  0  0  0  0  0  0  0  0  0  0
    8.0879  -10.3297  -10.4317 C   0  0  0  0  0  0  0  0  0  0  0  0
    7.4895  -11.7669   -8.5825 C   0  0  0  0  0  0  0  0  0  0  0  0
  1 23  1  0  0  0  0
  1 24  1  0  0  0  0
  1  2  1  0  0  0  0
  3  4  1  0  0  0  0
  3 17  1  0  0  0  0
  4  6  2  0  0  0  0
  4 13  1  0  0  0  0
  5 10  1  0  0  0  0
  5 14  2  0  0  0  0
  6  8  1  0  0  0  0
  7 12  1  0  0  0  0
  7 14  1  0  0  0  0
  7 19  1  0  0  0  0
  8 10  2  0  0  0  0
  9 14  1  0  0  0  0
 10 12  1  0  0  0  0
 11 18  1  0  0  0  0
 11 20  1  0  0  0  0
 11 21  1  0  0  0  0
 12 13  2  0  0  0  0
 13 15  1  0  0  0  0
 15 16  1  0  0  0  0
 16 17  1  0  0  0  0
 16 18  1  1  0  0  0
 19 22  1  0  0  0  0
 22 23  1  0  0  0  0
M  END
>  <CHROM.1>
-122.84943473,86.71735337,89.74261204,107.04825317,-175.99525953,170.45141354
10.38594206,-8.11713012,-11.57434903,1.14213499,-0.37078691,2.86339580

>  <Name>
ligand

>  <RI>
0

>  <Rbt.Current_Directory>
/home/itssahil/PROJECTS/Mol_Feturizer/New_Systems/rnas/3TZR

>  <Rbt.Executable>
rbdock ($Id: //depot/dev/client3/rdock/2013.1/src/exe/rbdock.cxx#4 $)

>  <Rbt.Library>
libRbt.so (2013.1, Build901 2013/11/27)

>  <Rbt.Parameter_File>
/export/apps/rDock/src/rDock_2013.1_src/data/scripts/dock_solv.prm

>  <Rbt.Receptor>
prm/pocket_docking_3.prm

>  <SCORE>
-37.6161

>  <SCORE.INTER>
-27.9332

>  <SCORE.INTER.CONST>
1

>  <SCORE.INTER.POLAR>
-0.72111

>  <SCORE.INTER.ROT>
6

>  <SCORE.INTER.SOLV>
20.0197

>  <SCORE.INTER.VDW>
-30.4917

>  <SCORE.INTER.norm>
-1.16388

>  <SCORE.INTRA>
-9.68289

>  <SCORE.INTRA.DIHEDRAL>
4.92534

>  <SCORE.INTRA.DIHEDRAL.0>
4.94008

>  <SCORE.INTRA.POLAR>
0

>  <SCORE.INTRA.POLAR.0>
0

>  <SCORE.INTRA.REPUL>
0

>  <SCORE.INTRA.REPUL.0>
0

>  <SCORE.INTRA.SOLV>
-0.20691

>  <SCORE.INTRA.SOLV.lig_0>
-31.4704

>  <SCORE.INTRA.VDW>
-12.0421

>  <SCORE.INTRA.VDW.0>
10.2807

>  <SCORE.INTRA.norm>
-0.403454

>  <SCORE.RESTR>
0

>  <SCORE.RESTR.CAVITY>
0

>  <SCORE.RESTR.norm>
0

>  <SCORE.SYSTEM>
0

>  <SCORE.SYSTEM.CONST>
0

>  <SCORE.SYSTEM.DIHEDRAL>
0

>  <SCORE.SYSTEM.SOLV>
0

>  <SCORE.SYSTEM.norm>
0

>  <SCORE.heavy>
24

>  <SCORE.norm>
-1.56734

>  <RMSD>
1.000

$$$$
ligand
 OpenBabel11021811493D
libRbt.so/2013.1/901 2013/11/27
 24 26  0  0  0  0  0  0  0  0999 V2000
    6.3796  -10.3400  -10.8168 N   0  0  0  0  0  0  0  0  0  0  0  0
    7.3825  -11.1084  -10.0970 C   0  0  0  0  0  0  0  0  0  0  0  0
   13.2504   -6.3727  -13.1934 O   0  0  0  0  0  0  0  0  0  0  0  0
   12.0277   -5.8425  -12.8042 C   0  0  0  0  0  0  0  0  0  0  0  0
    8.1856   -4.3855  -11.6317 N   0  0  0  0  0  0  0  0  0  0  0  0
   11.7819   -4.3571  -12.8056 C   0  0  0  0  0  0  0  0  0  0  0  0
    8.4670   -6.6135  -11.5830 N   0  0  0  0  0  0  0  0  0  0  0  0
   10.5211   -3.7865  -12.4354 C   0  0  0  0  0  0  0  0  0  0  0  0
    6.2240   -5.7352  -10.8945 N   0  0  0  0  0  0  0  0  0  0  0  0
    9.4872   -4.7079  -12.0408 C   0  0  0  0  0  0  0  0  0  0  0  0
   12.2470  -10.9059  -12.0064 N   0  0  0  0  0  0  0  0  0  0  0  0
    9.7135   -6.1282  -12.0202 C   0  0  0  0  0  0  0  0  0  0  0  0
   11.0365   -6.6779  -12.4244 C   0  0  0  0  0  0  0  0  0  0  0  0
    7.5709   -5.5733  -11.3606 C   0  0  0  0  0  0  0  0  0  0  0  0
   11.2531   -8.1795  -12.4054 C   0  0  0  0  0  0  0  0  0  0  0  0
   12.6967   -8.6279  -12.6059 C   0  0  1  0  0  0  0  0  0  0  0  0
   13.6753   -7.4933  -12.5007 C   0  0  0  0  0  0  0  0  0  0  0  0
   13.0356   -9.7450  -11.6307 C   0  0  0  0  0  0  0  0  0  0  0  0
    8.1277   -8.0444  -11.4621 C   0  0  0  0  0  0  0  0  0  0  0  0
   13.0082  -11.6886  -12.9706 C   0  0  0  0  0  0  0  0  0  0  0  0
   12.0240  -11.6909  -10.8023 C   0  0  0  0  0  0  0  0  0  0  0  0
    7.0365   -8.5480  -12.4225 C   0  0  0  0  0  0  0  0  0  0  0  0
    6.8393  -10.0568  -12.1839 C   0  0  0  0  0  0  0  0  0  0  0  0
    5.1397  -11.1081  -10.8240 C   0  0  0  0  0  0  0  0  0  0  0  0
  1 23  1  0  0  0  0
  1 24  1  0  0  0  0
  1  2  1  0  0  0  0
  3  4  1  0  0  0  0
  3 17  1  0  0  0  0
  4  6  2  0  0  0  0
  4 13  1  0  0  0  0
  5 10  1  0  0  0  0
  5 14  2  0  0  0  0
  6  8  1  0  0  0  0
  7 12  1  0  0  0  0
  7 14  1  0  0  0  0
  7 19  1  0  0  0  0
  8 10  2  0  0  0  0
  9 14  1  0  0  0  0
 10 12  1  0  0  0  0
 11 18  1  0  0  0  0
 11 20  1  0  0  0  0
 11 21  1  0  0  0  0
 12 13  2  0  0  0  0
 13 15  1  0  0  0  0
 15 16  1  0  0  0  0
 16 17  1  0  0  0  0
 16 18  1  1  0  0  0
 19 22  1  0  0  0  0
 22 23  1  0  0  0  0
M  END
>  <CHROM.1>
-115.65475790,-114.15169316,89.46071611,67.17344337,178.55096259,62.03190612
9.86734171,-7.96328371,-11.89468128,-2.82887946,0.20034337,-0.11351992

>  <Name>
ligand

>  <RI>
144

>  <Rbt.Current_Directory>
/home/itssahil/PROJECTS/Mol_Feturizer/New_Systems/rnas/3TZR

>  <Rbt.Executable>
rbdock ($Id: //depot/dev/client3/rdock/2013.1/src/exe/rbdock.cxx#4 $)

>  <Rbt.Library>
libRbt.so (2013.1, Build901 2013/11/27)

>  <Rbt.Parameter_File>
/export/apps/rDock/src/rDock_2013.1_src/data/scripts/dock_solv.prm

>  <Rbt.Receptor>
prm/pocket_docking_8.prm

>  <SCORE>
-35.4727

>  <SCORE.INTER>
-24.7464

>  <SCORE.INTER.CONST>
1

>  <SCORE.INTER.POLAR>
0

>  <SCORE.INTER.ROT>
6

>  <SCORE.INTER.SOLV>
21.0488

>  <SCORE.INTER.VDW>
-31.1138

>  <SCORE.INTER.norm>
-1.0311

>  <SCORE.INTRA>
-10.7264

>  <SCORE.INTRA.DIHEDRAL>
-0.00590048

>  <SCORE.INTRA.DIHEDRAL.0>
4.94008

>  <SCORE.INTRA.POLAR>
0

>  <SCORE.INTRA.POLAR.0>
0

>  <SCORE.INTRA.REPUL>
0

>  <SCORE.INTRA.REPUL.0>
0

>  <SCORE.INTRA.SOLV>
0.728268

>  <SCORE.INTRA.SOLV.lig_0>
-31.4704

>  <SCORE.INTRA.VDW>
-11.0875

>  <SCORE.INTRA.VDW.0>
10.2807

>  <SCORE.INTRA.norm>
-0.446932

>  <SCORE.RESTR>
0

>  <SCORE.RESTR.CAVITY>
0

>  <SCORE.RESTR.norm>
0

>  <SCORE.SYSTEM>
0

>  <SCORE.SYSTEM.CONST>
0

>  <SCORE.SYSTEM.DIHEDRAL>
0

>  <SCORE.SYSTEM.SOLV>
0

>  <SCORE.SYSTEM.norm>
0

>  <SCORE.heavy>
24

>  <SCORE.norm>
-1.47803

>  <RMSD>
1.001

$$$$
ligand
 OpenBabel11021811493D
libRbt.so/2013.1/901 2013/11/27
 24 26  0  0  0  0  0  0  0  0999 V2000
    6.3610  -10.3548  -10.8160 N   0  0  0  0  0  0  0  0  0  0  0  0
    7.3537  -11.1361  -10.0962 C   0  0  0  0  0  0  0  0  0  0  0  0
   13.2509   -6.3585  -13.1823 O   0  0  0  0  0  0  0  0  0  0  0  0
   12.0240   -5.8354  -12.7966 C   0  0  0  0  0  0  0  0  0  0  0  0
    8.1700   -4.4007  -11.6358 N   0  0  0  0  0  0  0  0  0  0  0  0
   11.7705   -4.3513  -12.7958 C   0  0  0  0  0  0  0  0  0  0  0  0
    8.4627   -6.6274  -11.5908 N   0  0  0  0  0  0  0  0  0  0  0  0
   10.5055   -3.7881  -12.4292 C   0  0  0  0  0  0  0  0  0  0  0  0
    6.2126   -5.7621  -10.9090 N   0  0  0  0  0  0  0  0  0  0  0  0
    9.4748   -4.7155  -12.0406 C   0  0  0  0  0  0  0  0  0  0  0  0
   12.2513  -10.8931  -11.9964 N   0  0  0  0  0  0  0  0  0  0  0  0
    9.7083   -6.1347  -12.0222 C   0  0  0  0  0  0  0  0  0  0  0  0
   11.0357   -6.6767  -12.4224 C   0  0  0  0  0  0  0  0  0  0  0  0
    7.5604   -5.5923  -11.3696 C   0  0  0  0  0  0  0  0  0  0  0  0
   11.2599   -8.1772  -12.4058 C   0  0  0  0  0  0  0  0  0  0  0  0
   12.7067   -8.6177  -12.6018 C   0  0  1  0  0  0  0  0  0  0  0  0
   13.6789   -7.4783  -12.4904 C   0  0  0  0  0  0  0  0  0  0  0  0
   13.0475   -9.7353  -11.6276 C   0  0  0  0  0  0  0  0  0  0  0  0
    8.1304   -8.0603  -11.4743 C   0  0  0  0  0  0  0  0  0  0  0  0
   13.0089  -11.6887  -12.9530 C   0  0  0  0  0  0  0  0  0  0  0  0
   12.0198  -11.6673  -10.7870 C   0  0  0  0  0  0  0  0  0  0  0  0
    7.0222   -8.5602  -12.4171 C   0  0  0  0  0  0  0  0  0  0  0  0
    6.8285  -10.0697  -12.1801 C   0  0  0  0  0  0  0  0  0  0  0  0
    5.1137  -11.1107  -10.8314 C   0  0  0  0  0  0  0  0  0  0  0  0
  1 23  1  0  0  0  0
  1 24  1  0  0  0  0
  1  2  1  0  0  0  0
  3  4  1  0  0  0  0
  3 17  1  0  0  0  0
  4  6  2  0  0  0  0
  4 13  1  0  0  0  0
  5 10  1  0  0  0  0
  5 14  2  0  0  0  0
  6  8  1  0  0  0  0
  7 12  1  0  0  0  0
  7 14  1  0  0  0  0
  7 19  1  0  0  0  0
  8 10  2  0  0  0  0
  9 14  1  0  0  0  0
 10 12  1  0  0  0  0
 11 18  1  0  0  0  0
 11 20  1  0  0  0  0
 11 21  1  0  0  0  0
 12 13  2  0  0  0  0
 13 15  1  0  0  0  0
 15 16  1  0  0  0  0
 16 17  1  0  0  0  0
 16 18  1  1  0  0  0
 19 22  1  0  0  0  0
 22 23  1  0  0  0  0
M  END
>  <CHROM.1>
-116.45423566,-115.52573682,90.13199840,66.32488623,178.89476795,63.42718027
9.86094939,-7.96634959,-11.89245662,-2.81937238,0.19690039,-0.11475378

>  <Name>
ligand

>  <RI>
0

>  <Rbt.Current_Directory>
/home/itssahil/PROJECTS/Mol_Feturizer/New_Systems/rnas/3TZR

>  <Rbt.Executable>
rbdock ($Id: //depot/dev/client3/rdock/2013.1/src/exe/rbdock.cxx#4 $)

>  <Rbt.Library>
libRbt.so (2013.1, Build901 2013/11/27)

>  <Rbt.Parameter_File>
/export/apps/rDock/src/rDock_2013.1_src/data/scripts/dock_solv.prm

>  <Rbt.Receptor>
prm/pocket_docking_7.prm

>  <SCORE>
-35.4646

>  <SCORE.INTER>
-24.7701

>  <SCORE.INTER.CONST>
1

>  <SCORE.INTER.POLAR>
0

>  <SCORE.INTER.ROT>
6

>  <SCORE.INTER.SOLV>
20.9222

>  <SCORE.INTER.VDW>
-31.0875

>  <SCORE.INTER.norm>
-1.03209

>  <SCORE.INTRA>
-10.6945

>  <SCORE.INTRA.DIHEDRAL>
0.0435135

>  <SCORE.INTRA.DIHEDRAL.0>
4.94008

>  <SCORE.INTRA.POLAR>
0

>  <SCORE.INTRA.POLAR.0>
0

>  <SCORE.INTRA.REPUL>
0

>  <SCORE.INTRA.REPUL.0>
0

>  <SCORE.INTRA.SOLV>
0.770821

>  <SCORE.INTRA.SOLV.lig_0>
-31.4704

>  <SCORE.INTRA.VDW>
-11.1017

>  <SCORE.INTRA.VDW.0>
10.2807

>  <SCORE.INTRA.norm>
-0.445604

>  <SCORE.RESTR>
0

>  <SCORE.RESTR.CAVITY>
0

>  <SCORE.RESTR.norm>
0

>  <SCORE.SYSTEM>
0

>  <SCORE.SYSTEM.CONST>
0

>  <SCORE.SYSTEM.DIHEDRAL>
0

>  <SCORE.SYSTEM.SOLV>
0

>  <SCORE.SYSTEM.norm>
0

>  <SCORE.heavy>
24

>  <SCORE.norm>
-1.47769

>  <RMSD>
1.003

$$$$
ligand
 OpenBabel11021811493D
libRbt.so/2013.1/901 2013/11/27
 24 26  0  0  0  0  0  0  0  0999 V2000
    6.4287  -10.3631  -10.7464 N   0  0  0  0  0  0  0  0  0  0  0  0
    7.4699  -11.0891  -10.0371 C   0  0  0  0  0  0  0  0  0  0  0  0
   13.2431   -6.3072  -13.2095 O   0  0  0  0  0  0  0  0  0  0  0  0
   12.0135   -5.7975  -12.8147 C   0  0  0  0  0  0  0  0  0  0  0  0
    8.1529   -4.4049  -11.6249 N   0  0  0  0  0  0  0  0  0  0  0  0
   11.7429   -4.3163  -12.8147 C   0  0  0  0  0  0  0  0  0  0  0  0
    8.4715   -6.6279  -11.5780 N   0  0  0  0  0  0  0  0  0  0  0  0
   10.4745   -3.7670  -12.4388 C   0  0  0  0  0  0  0  0  0  0  0  0
    6.2173   -5.7872  -10.8793 N   0  0  0  0  0  0  0  0  0  0  0  0
    9.4578   -4.7055  -12.0399 C   0  0  0  0  0  0  0  0  0  0  0  0
   12.3018  -10.8490  -12.0032 N   0  0  0  0  0  0  0  0  0  0  0  0
    9.7078   -6.1219  -12.0206 C   0  0  0  0  0  0  0  0  0  0  0  0
   11.0380   -6.6493  -12.4307 C   0  0  0  0  0  0  0  0  0  0  0  0
    7.5592   -5.6028  -11.3514 C   0  0  0  0  0  0  0  0  0  0  0  0
   11.2797   -8.1471  -12.4130 C   0  0  0  0  0  0  0  0  0  0  0  0
   12.7297   -8.5713  -12.6201 C   0  0  1  0  0  0  0  0  0  0  0  0
   13.6897   -7.4206  -12.5189 C   0  0  0  0  0  0  0  0  0  0  0  0
   13.0915   -9.6829  -11.6466 C   0  0  0  0  0  0  0  0  0  0  0  0
    8.1567   -8.0643  -11.4559 C   0  0  0  0  0  0  0  0  0  0  0  0
   13.1003  -11.6974  -12.8775 C   0  0  0  0  0  0  0  0  0  0  0  0
   11.9945  -11.5615  -10.7730 C   0  0  0  0  0  0  0  0  0  0  0  0
    7.0351   -8.5753  -12.3766 C   0  0  0  0  0  0  0  0  0  0  0  0
    6.8519  -10.0839  -12.1261 C   0  0  0  0  0  0  0  0  0  0  0  0
    5.2143  -11.1704  -10.7186 C   0  0  0  0  0  0  0  0  0  0  0  0
  1 23  1  0  0  0  0
  1 24  1  0  0  0  0
  1  2  1  0  0  0  0
  3  4  1  0  0  0  0
  3 17  1  0  0  0  0
  4  6  2  0  0  0  0
  4 13  1  0  0  0  0
  5 10  1  0  0  0  0
  5 14  2  0  0  0  0
  6  8  1  0  0  0  0
  7 12  1  0  0  0  0
  7 14  1  0  0  0  0
  7 19  1  0  0  0  0
  8 10  2  0  0  0  0
  9 14  1  0  0  0  0
 10 12  1  0  0  0  0
 11 18  1  0  0  0  0
 11 20  1  0  0  0  0
 11 21  1  0  0  0  0
 12 13  2  0  0  0  0
 13 15  1  0  0  0  0
 15 16  1  0  0  0  0
 16 17  1  0  0  0  0
 16 18  1  1  0  0  0
 19 22  1  0  0  0  0
 22 23  1  0  0  0  0
M  END
>  <CHROM.1>
-114.00000785,-116.23009880,94.86460187,66.10624029,179.48805945,62.54298650
9.88210985,-7.94838316,-11.87630845,-2.80128768,0.20574725,-0.12434334

>  <Name>
ligand

>  <RI>
0

>  <Rbt.Current_Directory>
/home/itssahil/PROJECTS/Mol_Feturizer/New_Systems/rnas/3TZR

>  <Rbt.Executable>
rbdock ($Id: //depot/dev/client3/rdock/2013.1/src/exe/rbdock.cxx#4 $)

>  <Rbt.Library>
libRbt.so (2013.1, Build901 2013/11/27)

>  <Rbt.Parameter_File>
/export/apps/rDock/src/rDock_2013.1_src/data/scripts/dock_solv.prm

>  <Rbt.Receptor>
prm/blind_docking_100.prm

>  <SCORE>
-35.4278

>  <SCORE.INTER>
-24.779

>  <SCORE.INTER.CONST>
1

>  <SCORE.INTER.POLAR>
0

>  <SCORE.INTER.ROT>
6

>  <SCORE.INTER.SOLV>
20.7823

>  <SCORE.INTER.VDW>
-31.0468

>  <SCORE.INTER.norm>
-1.03246

>  <SCORE.INTRA>
-10.6487

>  <SCORE.INTRA.DIHEDRAL>
0.272597

>  <SCORE.INTRA.DIHEDRAL.0>
4.94008

>  <SCORE.INTRA.POLAR>
0

>  <SCORE.INTRA.POLAR.0>
0

>  <SCORE.INTRA.REPUL>
0

>  <SCORE.INTRA.REPUL.0>
0

>  <SCORE.INTRA.SOLV>
0.799696

>  <SCORE.INTRA.SOLV.lig_0>
-31.4704

>  <SCORE.INTRA.VDW>
-11.1849

>  <SCORE.INTRA.VDW.0>
10.2807

>  <SCORE.INTRA.norm>
-0.443696

>  <SCORE.RESTR>
0

>  <SCORE.RESTR.CAVITY>
0

>  <SCORE.RESTR.norm>
0

>  <SCORE.SYSTEM>
0

>  <SCORE.SYSTEM.CONST>
0

>  <SCORE.SYSTEM.DIHEDRAL>
0

>  <SCORE.SYSTEM.SOLV>
0

>  <SCORE.SYSTEM.norm>
0

>  <SCORE.heavy>
24

>  <SCORE.norm>
-1.47616

>  <RMSD>
1.004

$$$$
ligand
 OpenBabel11021811493D
libRbt.so/2013.1/901 2013/11/27
 24 26  0  0  0  0  0  0  0  0999 V2000
    6.3927  -10.3660  -10.8018 N   0  0  0  0  0  0  0  0  0  0  0  0
    7.3152  -11.2125  -10.0625 C   0  0  0  0  0  0  0  0  0  0  0  0
   13.2408   -6.2940  -13.2386 O   0  0  0  0  0  0  0  0  0  0  0  0
   12.0120   -5.7831  -12.8425 C   0  0  0  0  0  0  0  0  0  0  0  0
    8.1545   -4.3872  -11.6466 N   0  0  0  0  0  0  0  0  0  0  0  0
   11.7386   -4.3025  -12.8546 C   0  0  0  0  0  0  0  0  0  0  0  0
    8.4779   -6.6091  -11.5809 N   0  0  0  0  0  0  0  0  0  0  0  0
   10.4709   -3.7522  -12.4775 C   0  0  0  0  0  0  0  0  0  0  0  0
    6.2254   -5.7664  -10.8790 N   0  0  0  0  0  0  0  0  0  0  0  0
    9.4580   -4.6890  -12.0651 C   0  0  0  0  0  0  0  0  0  0  0  0
   12.4273  -10.8672  -12.0747 N   0  0  0  0  0  0  0  0  0  0  0  0
    9.7110   -6.1047  -12.0342 C   0  0  0  0  0  0  0  0  0  0  0  0
   11.0402   -6.6333  -12.4460 C   0  0  0  0  0  0  0  0  0  0  0  0
    7.5646   -5.5837  -11.3593 C   0  0  0  0  0  0  0  0  0  0  0  0
   11.2849   -8.1304  -12.4158 C   0  0  0  0  0  0  0  0  0  0  0  0
   12.7347   -8.5537  -12.6261 C   0  0  1  0  0  0  0  0  0  0  0  0
   13.6929   -7.4002  -12.5401 C   0  0  0  0  0  0  0  0  0  0  0  0
   13.1034   -9.6556  -11.6443 C   0  0  0  0  0  0  0  0  0  0  0  0
    8.1665   -8.0449  -11.4443 C   0  0  0  0  0  0  0  0  0  0  0  0
   13.2379  -11.5086  -13.1011 C   0  0  0  0  0  0  0  0  0  0  0  0
   12.3177  -11.7411  -10.9172 C   0  0  0  0  0  0  0  0  0  0  0  0
    7.0858   -8.5803  -12.3994 C   0  0  0  0  0  0  0  0  0  0  0  0
    6.9199  -10.0905  -12.1459 C   0  0  0  0  0  0  0  0  0  0  0  0
    5.1054  -11.0487  -10.8680 C   0  0  0  0  0  0  0  0  0  0  0  0
  1 23  1  0  0  0  0
  1 24  1  0  0  0  0
  1  2  1  0  0  0  0
  3  4  1  0  0  0  0
  3 17  1  0  0  0  0
  4  6  2  0  0  0  0
  4 13  1  0  0  0  0
  5 10  1  0  0  0  0
  5 14  2  0  0  0  0
  6  8  1  0  0  0  0
  7 12  1  0  0  0  0
  7 14  1  0  0  0  0
  7 19  1  0  0  0  0
  8 10  2  0  0  0  0
  9 14  1  0  0  0  0
 10 12  1  0  0  0  0
 11 18  1  0  0  0  0
 11 20  1  0  0  0  0
 11 21  1  0  0  0  0
 12 13  2  0  0  0  0
 13 15  1  0  0  0  0
 15 16  1  0  0  0  0
 16 17  1  0  0  0  0
 16 18  1  1  0  0  0
 19 22  1  0  0  0  0
 22 23  1  0  0  0  0
M  END
>  <CHROM.1>
-121.66447336,-113.57317379,83.90321832,72.26785282,178.44432594,65.31126001
9.90220020,-7.93794902,-11.91779472,-2.88352221,0.20608262,-0.11635241

>  <Name>
ligand

>  <RI>
0

>  <Rbt.Current_Directory>
/home/itssahil/PROJECTS/Mol_Feturizer/New_Systems/rnas/3TZR

>  <Rbt.Executable>
rbdock ($Id: //depot/dev/client3/rdock/2013.1/src/exe/rbdock.cxx#4 $)

>  <Rbt.Library>
libRbt.so (2013.1, Build901 2013/11/27)

>  <Rbt.Parameter_File>
/export/apps/rDock/src/rDock_2013.1_src/data/scripts/dock_solv.prm

>  <Rbt.Receptor>
prm/pocket_docking_4.prm

>  <SCORE>
-35.312

>  <SCORE.INTER>
-24.6759

>  <SCORE.INTER.CONST>
1

>  <SCORE.INTER.POLAR>
0

>  <SCORE.INTER.ROT>
6

>  <SCORE.INTER.SOLV>
21.031

>  <SCORE.INTER.VDW>
-31.061

>  <SCORE.INTER.norm>
-1.02816

>  <SCORE.INTRA>
-10.6361

>  <SCORE.INTRA.DIHEDRAL>
0.0923669

>  <SCORE.INTRA.DIHEDRAL.0>
4.94008

>  <SCORE.INTRA.POLAR>
0

>  <SCORE.INTRA.POLAR.0>
0

>  <SCORE.INTRA.REPUL>
0

>  <SCORE.INTRA.REPUL.0>
0

>  <SCORE.INTRA.SOLV>
0.698594

>  <SCORE.INTRA.SOLV.lig_0>
-31.4704

>  <SCORE.INTRA.VDW>
-11.0316

>  <SCORE.INTRA.VDW.0>
10.2807

>  <SCORE.INTRA.norm>
-0.44317

>  <SCORE.RESTR>
0

>  <SCORE.RESTR.CAVITY>
0

>  <SCORE.RESTR.norm>
0

>  <SCORE.SYSTEM>
0

>  <SCORE.SYSTEM.CONST>
0

>  <SCORE.SYSTEM.DIHEDRAL>
0

>  <SCORE.SYSTEM.SOLV>
0

>  <SCORE.SYSTEM.norm>
0

>  <SCORE.heavy>
24

>  <SCORE.norm>
-1.47133

>  <RMSD>
1.005

$$$$
ligand
 OpenBabel11021811493D
libRbt.so/2013.1/901 2013/11/27
 24 26  0  0  0  0  0  0  0  0999 V2000
    6.4150  -10.3388  -10.8016 N   0  0  0  0  0  0  0  0  0  0  0  0
    7.3759  -11.1504  -10.0722 C   0  0  0  0  0  0  0  0  0  0  0  0
   13.2533   -6.3574  -13.2060 O   0  0  0  0  0  0  0  0  0  0  0  0
   12.0294   -5.8294  -12.8175 C   0  0  0  0  0  0  0  0  0  0  0  0
    8.1843   -4.3802  -11.6454 N   0  0  0  0  0  0  0  0  0  0  0  0
   11.7757   -4.3454  -12.8337 C   0  0  0  0  0  0  0  0  0  0  0  0
    8.4775   -6.6061  -11.5744 N   0  0  0  0  0  0  0  0  0  0  0  0
   10.5135   -3.7776  -12.4645 C   0  0  0  0  0  0  0  0  0  0  0  0
    6.2326   -5.7322  -10.8863 N   0  0  0  0  0  0  0  0  0  0  0  0
    9.4859   -4.7001  -12.0562 C   0  0  0  0  0  0  0  0  0  0  0  0
   12.3284  -10.9025  -12.0069 N   0  0  0  0  0  0  0  0  0  0  0  0
    9.7198   -6.1189  -12.0216 C   0  0  0  0  0  0  0  0  0  0  0  0
   11.0440   -6.6659  -12.4251 C   0  0  0  0  0  0  0  0  0  0  0  0
    7.5768   -5.5682  -11.3595 C   0  0  0  0  0  0  0  0  0  0  0  0
   11.2686   -8.1661  -12.3912 C   0  0  0  0  0  0  0  0  0  0  0  0
   12.7138   -8.6091  -12.5927 C   0  0  1  0  0  0  0  0  0  0  0  0
   13.6867   -7.4683  -12.5032 C   0  0  0  0  0  0  0  0  0  0  0  0
   13.0623   -9.7141  -11.6070 C   0  0  0  0  0  0  0  0  0  0  0  0
    8.1462   -8.0374  -11.4371 C   0  0  0  0  0  0  0  0  0  0  0  0
   13.1717  -11.6878  -12.8979 C   0  0  0  0  0  0  0  0  0  0  0  0
   12.0417  -11.6650  -10.8020 C   0  0  0  0  0  0  0  0  0  0  0  0
    7.0921   -8.5690  -12.4235 C   0  0  0  0  0  0  0  0  0  0  0  0
    6.9009  -10.0750  -12.1635 C   0  0  0  0  0  0  0  0  0  0  0  0
    5.1430  -11.0523  -10.8226 C   0  0  0  0  0  0  0  0  0  0  0  0
  1 23  1  0  0  0  0
  1 24  1  0  0  0  0
  1  2  1  0  0  0  0
  3  4  1  0  0  0  0
  3 17  1  0  0  0  0
  4  6  2  0  0  0  0
  4 13  1  0  0  0  0
  5 10  1  0  0  0  0
  5 14  2  0  0  0  0
  6  8  1  0  0  0  0
  7 12  1  0  0  0  0
  7 14  1  0  0  0  0
  7 19  1  0  0  0  0
  8 10  2  0  0  0  0
  9 14  1  0  0  0  0
 10 12  1  0  0  0  0
 11 18  1  0  0  0  0
 11 20  1  0  0  0  0
 11 21  1  0  0  0  0
 12 13  2  0  0  0  0
 13 15  1  0  0  0  0
 15 16  1  0  0  0  0
 16 17  1  0  0  0  0
 16 18  1  1  0  0  0
 19 22  1  0  0  0  0
 22 23  1  0  0  0  0
M  END
>  <CHROM.1>
-118.78871925,-111.93874756,92.08013506,69.92988573,178.47871225,61.30169425
9.89042809,-7.95499638,-11.88922515,-2.85542646,0.20053649,-0.12074363

>  <Name>
ligand

>  <RI>
0

>  <Rbt.Current_Directory>
/home/itssahil/PROJECTS/Mol_Feturizer/New_Systems/rnas/3TZR

>  <Rbt.Executable>
rbdock ($Id: //depot/dev/client3/rdock/2013.1/src/exe/rbdock.cxx#4 $)

>  <Rbt.Library>
libRbt.so (2013.1, Build901 2013/11/27)

>  <Rbt.Parameter_File>
/export/apps/rDock/src/rDock_2013.1_src/data/scripts/dock_solv.prm

>  <Rbt.Receptor>
prm/pocket_docking_7.prm

>  <SCORE>
-35.455

>  <SCORE.INTER>
-24.6658

>  <SCORE.INTER.CONST>
1

>  <SCORE.INTER.POLAR>
0

>  <SCORE.INTER.ROT>
6

>  <SCORE.INTER.SOLV>
21.0285

>  <SCORE.INTER.VDW>
-31.0534

>  <SCORE.INTER.norm>
-1.02774

>  <SCORE.INTRA>
-10.7893

>  <SCORE.INTRA.DIHEDRAL>
0.319288

>  <SCORE.INTRA.DIHEDRAL.0>
4.94008

>  <SCORE.INTRA.POLAR>
0

>  <SCORE.INTRA.POLAR.0>
0

>  <SCORE.INTRA.REPUL>
0

>  <SCORE.INTRA.REPUL.0>
0

>  <SCORE.INTRA.SOLV>
0.660208

>  <SCORE.INTRA.SOLV.lig_0>
-31.4704

>  <SCORE.INTRA.VDW>
-11.279

>  <SCORE.INTRA.VDW.0>
10.2807

>  <SCORE.INTRA.norm>
-0.449552

>  <SCORE.RESTR>
0

>  <SCORE.RESTR.CAVITY>
0

>  <SCORE.RESTR.norm>
0

>  <SCORE.SYSTEM>
0

>  <SCORE.SYSTEM.CONST>
0

>  <SCORE.SYSTEM.DIHEDRAL>
0

>  <SCORE.SYSTEM.SOLV>
0

>  <SCORE.SYSTEM.norm>
0

>  <SCORE.heavy>
24

>  <SCORE.norm>
-1.47729

>  <RMSD>
1.005

$$$$
ligand
 OpenBabel11021811493D
libRbt.so/2013.1/901 2013/11/27
 24 26  0  0  0  0  0  0  0  0999 V2000
    6.4014  -10.3440  -10.7971 N   0  0  0  0  0  0  0  0  0  0  0  0
    7.4361  -11.1210  -10.1338 C   0  0  0  0  0  0  0  0  0  0  0  0
   13.2576   -6.3198  -13.2067 O   0  0  0  0  0  0  0  0  0  0  0  0
   12.0307   -5.8057  -12.8089 C   0  0  0  0  0  0  0  0  0  0  0  0
    8.1771   -4.3988  -11.6134 N   0  0  0  0  0  0  0  0  0  0  0  0
   11.7733   -4.3225  -12.7853 C   0  0  0  0  0  0  0  0  0  0  0  0
    8.4758   -6.6251  -11.6024 N   0  0  0  0  0  0  0  0  0  0  0  0
   10.5080   -3.7682  -12.4059 C   0  0  0  0  0  0  0  0  0  0  0  0
    6.2258   -5.7761  -10.8999 N   0  0  0  0  0  0  0  0  0  0  0  0
    9.4812   -4.7041  -12.0274 C   0  0  0  0  0  0  0  0  0  0  0  0
   12.3096  -10.8879  -12.1135 N   0  0  0  0  0  0  0  0  0  0  0  0
    9.7186   -6.1228  -12.0308 C   0  0  0  0  0  0  0  0  0  0  0  0
   11.0459   -6.6552  -12.4437 C   0  0  0  0  0  0  0  0  0  0  0  0
    7.5715   -5.5958  -11.3627 C   0  0  0  0  0  0  0  0  0  0  0  0
   11.2742   -8.1552  -12.4501 C   0  0  0  0  0  0  0  0  0  0  0  0
   12.7214   -8.5888  -12.6577 C   0  0  1  0  0  0  0  0  0  0  0  0
   13.6910   -7.4486  -12.5329 C   0  0  0  0  0  0  0  0  0  0  0  0
   13.0687   -9.7197  -11.7014 C   0  0  0  0  0  0  0  0  0  0  0  0
    8.1477   -8.0605  -11.5059 C   0  0  0  0  0  0  0  0  0  0  0  0
   13.1367  -11.6826  -13.0115 C   0  0  0  0  0  0  0  0  0  0  0  0
   12.0052  -11.6558  -10.9164 C   0  0  0  0  0  0  0  0  0  0  0  0
    6.9980   -8.5375  -12.4101 C   0  0  0  0  0  0  0  0  0  0  0  0
    6.7960  -10.0472  -12.1816 C   0  0  0  0  0  0  0  0  0  0  0  0
    5.1612  -11.1105  -10.7532 C   0  0  0  0  0  0  0  0  0  0  0  0
  1 23  1  0  0  0  0
  1 24  1  0  0  0  0
  1  2  1  0  0  0  0
  3  4  1  0  0  0  0
  3 17  1  0  0  0  0
  4  6  2  0  0  0  0
  4 13  1  0  0  0  0
  5 10  1  0  0  0  0
  5 14  2  0  0  0  0
  6  8  1  0  0  0  0
  7 12  1  0  0  0  0
  7 14  1  0  0  0  0
  7 19  1  0  0  0  0
  8 10  2  0  0  0  0
  9 14  1  0  0  0  0
 10 12  1  0  0  0  0
 11 18  1  0  0  0  0
 11 20  1  0  0  0  0
 11 21  1  0  0  0  0
 12 13  2  0  0  0  0
 13 15  1  0  0  0  0
 15 16  1  0  0  0  0
 16 17  1  0  0  0  0
 16 18  1  1  0  0  0
 19 22  1  0  0  0  0
 22 23  1  0  0  0  0
M  END
>  <CHROM.1>
-115.07561608,-117.95171410,93.33109388,68.30319243,179.95306475,62.42403123
9.88084985,-7.95231579,-11.91356201,-2.84653420,0.20760864,-0.10716545

>  <Name>
ligand

>  <RI>
0

>  <Rbt.Current_Directory>
/home/itssahil/PROJECTS/Mol_Feturizer/New_Systems/rnas/3TZR

>  <Rbt.Executable>
rbdock ($Id: //depot/dev/client3/rdock/2013.1/src/exe/rbdock.cxx#4 $)

>  <Rbt.Library>
libRbt.so (2013.1, Build901 2013/11/27)

>  <Rbt.Parameter_File>
/export/apps/rDock/src/rDock_2013.1_src/data/scripts/dock_solv.prm

>  <Rbt.Receptor>
prm/pocket_docking_3.prm

>  <SCORE>
-35.4283

>  <SCORE.INTER>
-24.8353

>  <SCORE.INTER.CONST>
1

>  <SCORE.INTER.POLAR>
0

>  <SCORE.INTER.ROT>
6

>  <SCORE.INTER.SOLV>
20.9308

>  <SCORE.INTER.VDW>
-31.1338

>  <SCORE.INTER.norm>
-1.0348

>  <SCORE.INTRA>
-10.593

>  <SCORE.INTRA.DIHEDRAL>
0.310463

>  <SCORE.INTRA.DIHEDRAL.0>
4.94008

>  <SCORE.INTRA.POLAR>
0

>  <SCORE.INTRA.POLAR.0>
0

>  <SCORE.INTRA.REPUL>
0

>  <SCORE.INTRA.REPUL.0>
0

>  <SCORE.INTRA.SOLV>
0.852328

>  <SCORE.INTRA.SOLV.lig_0>
-31.4704

>  <SCORE.INTRA.VDW>
-11.1744

>  <SCORE.INTRA.VDW.0>
10.2807

>  <SCORE.INTRA.norm>
-0.441376

>  <SCORE.RESTR>
0

>  <SCORE.RESTR.CAVITY>
0

>  <SCORE.RESTR.norm>
0

>  <SCORE.SYSTEM>
0

>  <SCORE.SYSTEM.CONST>
0

>  <SCORE.SYSTEM.DIHEDRAL>
0

>  <SCORE.SYSTEM.SOLV>
0

>  <SCORE.SYSTEM.norm>
0

>  <SCORE.heavy>
24

>  <SCORE.norm>
-1.47618

>  <RMSD>
1.006

$$$$
ligand
 OpenBabel11021811493D
libRbt.so/2013.1/901 2013/11/27
 24 26  0  0  0  0  0  0  0  0999 V2000
    8.5252  -11.1060   -9.3491 N   0  0  0  0  0  0  0  0  0  0  0  0
    9.5057  -12.1017   -9.7512 C   0  0  0  0  0  0  0  0  0  0  0  0
   13.2037   -6.3819  -13.1452 O   0  0  0  0  0  0  0  0  0  0  0  0
   11.9807   -5.8553  -12.7519 C   0  0  0  0  0  0  0  0  0  0  0  0
    8.1358   -4.4068  -11.5781 N   0  0  0  0  0  0  0  0  0  0  0  0
   11.7547   -4.3685  -12.6797 C   0  0  0  0  0  0  0  0  0  0  0  0
    8.3864   -6.6381  -11.6416 N   0  0  0  0  0  0  0  0  0  0  0  0
   10.4946   -3.8001  -12.3041 C   0  0  0  0  0  0  0  0  0  0  0  0
    6.1421   -5.7650  -10.9508 N   0  0  0  0  0  0  0  0  0  0  0  0
    9.4408   -4.7259  -11.9787 C   0  0  0  0  0  0  0  0  0  0  0  0
   13.0532  -11.0114  -12.5980 N   0  0  0  0  0  0  0  0  0  0  0  0
    9.6477   -6.1485  -12.0287 C   0  0  0  0  0  0  0  0  0  0  0  0
   10.9710   -6.6951  -12.4358 C   0  0  0  0  0  0  0  0  0  0  0  0
    7.5000   -5.5982  -11.3819 C   0  0  0  0  0  0  0  0  0  0  0  0
   11.1672   -8.1986  -12.4919 C   0  0  0  0  0  0  0  0  0  0  0  0
   12.6084   -8.6566  -12.6882 C   0  0  1  0  0  0  0  0  0  0  0  0
   13.5997   -7.5432  -12.5045 C   0  0  0  0  0  0  0  0  0  0  0  0
   12.9129   -9.8281  -11.7668 C   0  0  0  0  0  0  0  0  0  0  0  0
    8.0258   -8.0684  -11.6029 C   0  0  0  0  0  0  0  0  0  0  0  0
   14.4689  -11.3393  -12.6992 C   0  0  0  0  0  0  0  0  0  0  0  0
   12.3433  -12.0957  -11.9379 C   0  0  0  0  0  0  0  0  0  0  0  0
    8.6735   -8.8825  -10.4695 C   0  0  0  0  0  0  0  0  0  0  0  0
    8.1004  -10.3115  -10.5105 C   0  0  0  0  0  0  0  0  0  0  0  0
    7.3960  -11.8016   -8.7423 C   0  0  0  0  0  0  0  0  0  0  0  0
  1 23  1  0  0  0  0
  1 24  1  0  0  0  0
  1  2  1  0  0  0  0
  3  4  1  0  0  0  0
  3 17  1  0  0  0  0
  4  6  2  0  0  0  0
  4 13  1  0  0  0  0
  5 10  1  0  0  0  0
  5 14  2  0  0  0  0
  6  8  1  0  0  0  0
  7 12  1  0  0  0  0
  7 14  1  0  0  0  0
  7 19  1  0  0  0  0
  8 10  2  0  0  0  0
  9 14  1  0  0  0  0
 10 12  1  0  0  0  0
 11 18  1  0  0  0  0
 11 20  1  0  0  0  0
 11 21  1  0  0  0  0
 12 13  2  0  0  0  0
 13 15  1  0  0  0  0
 15 16  1  0  0  0  0
 16 17  1  0  0  0  0
 16 18  1  1  0  0  0
 19 22  1  0  0  0  0
 22 23  1  0  0  0  0
M  END
>  <CHROM.1>
-107.55749648,71.83668072,104.76985457,110.01212888,175.38765252,-172.13572174
10.35637706,-8.12253489,-11.63721212,1.17365056,-0.38315674,2.87942438

>  <Name>
ligand

>  <RI>
0

>  <Rbt.Current_Directory>
/home/itssahil/PROJECTS/Mol_Feturizer/New_Systems/rnas/3TZR

>  <Rbt.Executable>
rbdock ($Id: //depot/dev/client3/rdock/2013.1/src/exe/rbdock.cxx#4 $)

>  <Rbt.Library>
libRbt.so (2013.1, Build901 2013/11/27)

>  <Rbt.Parameter_File>
/export/apps/rDock/src/rDock_2013.1_src/data/scripts/dock_solv.prm

>  <Rbt.Receptor>
prm/blind_docking_100.prm

>  <SCORE>
-35.6369

>  <SCORE.INTER>
-26.0442

>  <SCORE.INTER.CONST>
1

>  <SCORE.INTER.POLAR>
-0.637552

>  <SCORE.INTER.ROT>
6

>  <SCORE.INTER.SOLV>
20.4379

>  <SCORE.INTER.VDW>
-29.6503

>  <SCORE.INTER.norm>
-1.08518

>  <SCORE.INTRA>
-9.59438

>  <SCORE.INTRA.DIHEDRAL>
5.63549

>  <SCORE.INTRA.DIHEDRAL.0>
4.94008

>  <SCORE.INTRA.POLAR>
0

>  <SCORE.INTRA.POLAR.0>
0

>  <SCORE.INTRA.REPUL>
0

>  <SCORE.INTRA.REPUL.0>
0

>  <SCORE.INTRA.SOLV>
-0.44693

>  <SCORE.INTRA.SOLV.lig_0>
-31.4704

>  <SCORE.INTRA.VDW>
-12.1887

>  <SCORE.INTRA.VDW.0>
10.2807

>  <SCORE.INTRA.norm>
-0.399766

>  <SCORE.RESTR>
0.00165254

>  <SCORE.RESTR.CAVITY>
0.00165254

>  <SCORE.RESTR.norm>
6.88558e-05

>  <SCORE.SYSTEM>
0

>  <SCORE.SYSTEM.CONST>
0

>  <SCORE.SYSTEM.DIHEDRAL>
0

>  <SCORE.SYSTEM.SOLV>
0

>  <SCORE.SYSTEM.norm>
0

>  <SCORE.heavy>
24

>  <SCORE.norm>
-1.48487

>  <RMSD>
1.007

$$$$
ligand
 OpenBabel11021811493D
libRbt.so/2013.1/901 2013/11/27
 24 26  0  0  0  0  0  0  0  0999 V2000
    7.1784  -10.9231  -11.2470 N   0  0  0  0  0  0  0  0  0  0  0  0
    6.3849  -12.1386  -11.3315 C   0  0  0  0  0  0  0  0  0  0  0  0
   13.1936   -6.2921  -13.2758 O   0  0  0  0  0  0  0  0  0  0  0  0
   11.9628   -5.7888  -12.8764 C   0  0  0  0  0  0  0  0  0  0  0  0
    8.1014   -4.4182  -11.6639 N   0  0  0  0  0  0  0  0  0  0  0  0
   11.6642   -4.3141  -12.9317 C   0  0  0  0  0  0  0  0  0  0  0  0
    8.4631   -6.6312  -11.5322 N   0  0  0  0  0  0  0  0  0  0  0  0
   10.3935   -3.7727  -12.5520 C   0  0  0  0  0  0  0  0  0  0  0  0
    6.2079   -5.8032  -10.8214 N   0  0  0  0  0  0  0  0  0  0  0  0
    9.4031   -4.7120  -12.0935 C   0  0  0  0  0  0  0  0  0  0  0  0
   12.4826  -10.8402  -11.9579 N   0  0  0  0  0  0  0  0  0  0  0  0
    9.6803   -6.1216  -12.0213 C   0  0  0  0  0  0  0  0  0  0  0  0
   11.0116   -6.6415  -12.4373 C   0  0  0  0  0  0  0  0  0  0  0  0
    7.5363   -5.6143  -11.3289 C   0  0  0  0  0  0  0  0  0  0  0  0
   11.2820   -8.1326  -12.3631 C   0  0  0  0  0  0  0  0  0  0  0  0
   12.7353   -8.5387  -12.5830 C   0  0  1  0  0  0  0  0  0  0  0  0
   13.6751   -7.3676  -12.5495 C   0  0  0  0  0  0  0  0  0  0  0  0
   13.1378   -9.6022  -11.5724 C   0  0  0  0  0  0  0  0  0  0  0  0
    8.1781   -8.0668  -11.3446 C   0  0  0  0  0  0  0  0  0  0  0  0
   13.3740  -11.5783  -12.8425 C   0  0  0  0  0  0  0  0  0  0  0  0
   12.2484  -11.6069  -10.7443 C   0  0  0  0  0  0  0  0  0  0  0  0
    7.1288   -8.6622  -12.2992 C   0  0  0  0  0  0  0  0  0  0  0  0
    6.3444   -9.7489  -11.5402 C   0  0  0  0  0  0  0  0  0  0  0  0
    7.7478  -10.8462   -9.9063 C   0  0  0  0  0  0  0  0  0  0  0  0
  1 23  1  0  0  0  0
  1 24  1  0  0  0  0
  1  2  1  0  0  0  0
  3  4  1  0  0  0  0
  3 17  1  0  0  0  0
  4  6  2  0  0  0  0
  4 13  1  0  0  0  0
  5 10  1  0  0  0  0
  5 14  2  0  0  0  0
  6  8  1  0  0  0  0
  7 12  1  0  0  0  0
  7 14  1  0  0  0  0
  7 19  1  0  0  0  0
  8 10  2  0  0  0  0
  9 14  1  0  0  0  0
 10 12  1  0  0  0  0
 11 18  1  0  0  0  0
 11 20  1  0  0  0  0
 11 21  1  0  0  0  0
 12 13  2  0  0  0  0
 13 15  1  0  0  0  0
 15 16  1  0  0  0  0
 16 17  1  0  0  0  0
 16 18  1  1  0  0  0
 19 22  1  0  0  0  0
 22 23  1  0  0  0  0
M  END
>  <CHROM.1>
-144.64542219,-111.42569857,91.11390305,72.64037203,-146.19549575,-68.76332010
9.97960051,-7.98453689,-11.88891508,-2.63412544,0.19840248,-0.12978132

>  <Name>
ligand

>  <RI>
0

>  <Rbt.Current_Directory>
/home/itssahil/PROJECTS/Mol_Feturizer/New_Systems/rnas/3TZR

>  <Rbt.Executable>
rbdock ($Id: //depot/dev/client3/rdock/2013.1/src/exe/rbdock.cxx#4 $)

>  <Rbt.Library>
libRbt.so (2013.1, Build901 2013/11/27)

>  <Rbt.Parameter_File>
/export/apps/rDock/src/rDock_2013.1_src/data/scripts/dock_solv.prm

>  <Rbt.Receptor>
prm/pocket_docking_6.prm

>  <SCORE>
-32.0689

>  <SCORE.INTER>
-23.527

>  <SCORE.INTER.CONST>
1

>  <SCORE.INTER.POLAR>
0

>  <SCORE.INTER.ROT>
6

>  <SCORE.INTER.SOLV>
19.6961

>  <SCORE.INTER.VDW>
-29.85

>  <SCORE.INTER.norm>
-0.98029

>  <SCORE.INTRA>
-8.54195

>  <SCORE.INTRA.DIHEDRAL>
3.16645

>  <SCORE.INTRA.DIHEDRAL.0>
4.94008

>  <SCORE.INTRA.POLAR>
0

>  <SCORE.INTRA.POLAR.0>
0

>  <SCORE.INTRA.REPUL>
0

>  <SCORE.INTRA.REPUL.0>
0

>  <SCORE.INTRA.SOLV>
1.20654

>  <SCORE.INTRA.SOLV.lig_0>
-31.4704

>  <SCORE.INTRA.VDW>
-10.7284

>  <SCORE.INTRA.VDW.0>
10.2807

>  <SCORE.INTRA.norm>
-0.355915

>  <SCORE.RESTR>
0

>  <SCORE.RESTR.CAVITY>
0

>  <SCORE.RESTR.norm>
0

>  <SCORE.SYSTEM>
0

>  <SCORE.SYSTEM.CONST>
0

>  <SCORE.SYSTEM.DIHEDRAL>
0

>  <SCORE.SYSTEM.SOLV>
0

>  <SCORE.SYSTEM.norm>
0

>  <SCORE.heavy>
24

>  <SCORE.norm>
-1.33621

>  <RMSD>
1.008

$$$$
ligand
 OpenBabel11021811493D
libRbt.so/2013.1/901 2013/11/27
 24 26  0  0  0  0  0  0  0  0999 V2000
    8.5403  -11.0874   -9.3206 N   0  0  0  0  0  0  0  0  0  0  0  0
    9.4536  -12.1117   -9.8011 C   0  0  0  0  0  0  0  0  0  0  0  0
   13.2555   -6.2959  -13.1057 O   0  0  0  0  0  0  0  0  0  0  0  0
   12.0132   -5.7958  -12.7392 C   0  0  0  0  0  0  0  0  0  0  0  0
    8.1139   -4.4313  -11.6471 N   0  0  0  0  0  0  0  0  0  0  0  0
   11.7496   -4.3144  -12.6862 C   0  0  0  0  0  0  0  0  0  0  0  0
    8.4202   -6.6563  -11.6834 N   0  0  0  0  0  0  0  0  0  0  0  0
   10.4695   -3.7737  -12.3383 C   0  0  0  0  0  0  0  0  0  0  0  0
    6.1433   -5.8322  -11.0406 N   0  0  0  0  0  0  0  0  0  0  0  0
    9.4332   -4.7220  -12.0217 C   0  0  0  0  0  0  0  0  0  0  0  0
   13.0429  -10.9504  -12.4924 N   0  0  0  0  0  0  0  0  0  0  0  0
    9.6758   -6.1395  -12.0535 C   0  0  0  0  0  0  0  0  0  0  0  0
   11.0190   -6.6572  -12.4320 C   0  0  0  0  0  0  0  0  0  0  0  0
    7.5042   -5.6361  -11.4498 C   0  0  0  0  0  0  0  0  0  0  0  0
   11.2530   -8.1559  -12.4693 C   0  0  0  0  0  0  0  0  0  0  0  0
   12.7082   -8.5800  -12.6358 C   0  0  1  0  0  0  0  0  0  0  0  0
   13.6685   -7.4407  -12.4464 C   0  0  0  0  0  0  0  0  0  0  0  0
   13.0251   -9.7346  -11.6974 C   0  0  0  0  0  0  0  0  0  0  0  0
    8.0942   -8.0946  -11.6363 C   0  0  0  0  0  0  0  0  0  0  0  0
   14.4240  -11.2519  -12.8439 C   0  0  0  0  0  0  0  0  0  0  0  0
   12.5005  -12.0192  -11.6685 C   0  0  0  0  0  0  0  0  0  0  0  0
    8.4067   -8.7995  -10.3050 C   0  0  0  0  0  0  0  0  0  0  0  0
    8.0348  -10.2875  -10.4454 C   0  0  0  0  0  0  0  0  0  0  0  0
    7.4516  -11.7485   -8.6100 C   0  0  0  0  0  0  0  0  0  0  0  0
  1 23  1  0  0  0  0
  1 24  1  0  0  0  0
  1  2  1  0  0  0  0
  3  4  1  0  0  0  0
  3 17  1  0  0  0  0
  4  6  2  0  0  0  0
  4 13  1  0  0  0  0
  5 10  1  0  0  0  0
  5 14  2  0  0  0  0
  6  8  1  0  0  0  0
  7 12  1  0  0  0  0
  7 14  1  0  0  0  0
  7 19  1  0  0  0  0
  8 10  2  0  0  0  0
  9 14  1  0  0  0  0
 10 12  1  0  0  0  0
 11 18  1  0  0  0  0
 11 20  1  0  0  0  0
 11 21  1  0  0  0  0
 12 13  2  0  0  0  0
 13 15  1  0  0  0  0
 15 16  1  0  0  0  0
 16 17  1  0  0  0  0
 16 18  1  1  0  0  0
 19 22  1  0  0  0  0
 22 23  1  0  0  0  0
M  END
>  <CHROM.1>
-119.59421959,87.89877561,97.02389348,102.98677867,-178.78836319,168.82765678
10.37181925,-8.08777970,-11.61756669,1.20895375,-0.37164823,2.86430990

>  <Name>
ligand

>  <RI>
0

>  <Rbt.Current_Directory>
/home/itssahil/PROJECTS/Mol_Feturizer/New_Systems/rnas/3TZR

>  <Rbt.Executable>
rbdock ($Id: //depot/dev/client3/rdock/2013.1/src/exe/rbdock.cxx#4 $)

>  <Rbt.Library>
libRbt.so (2013.1, Build901 2013/11/27)

>  <Rbt.Parameter_File>
/export/apps/rDock/src/rDock_2013.1_src/data/scripts/dock_solv.prm

>  <Rbt.Receptor>
prm/blind_docking_80.prm

>  <SCORE>
-37.4569

>  <SCORE.INTER>
-27.71

>  <SCORE.INTER.CONST>
1

>  <SCORE.INTER.POLAR>
-0.695915

>  <SCORE.INTER.ROT>
6

>  <SCORE.INTER.SOLV>
20.1014

>  <SCORE.INTER.VDW>
-30.4541

>  <SCORE.INTER.norm>
-1.15458

>  <SCORE.INTRA>
-9.74825

>  <SCORE.INTRA.DIHEDRAL>
5.06696

>  <SCORE.INTRA.DIHEDRAL.0>
4.94008

>  <SCORE.INTRA.POLAR>
0

>  <SCORE.INTRA.POLAR.0>
0

>  <SCORE.INTRA.REPUL>
0

>  <SCORE.INTRA.REPUL.0>
0

>  <SCORE.INTRA.SOLV>
-0.164088

>  <SCORE.INTRA.SOLV.lig_0>
-31.4704

>  <SCORE.INTRA.VDW>
-12.1997

>  <SCORE.INTRA.VDW.0>
10.2807

>  <SCORE.INTRA.norm>
-0.406177

>  <SCORE.RESTR>
0.00135991

>  <SCORE.RESTR.CAVITY>
0.00135991

>  <SCORE.RESTR.norm>
5.6663e-05

>  <SCORE.SYSTEM>
0

>  <SCORE.SYSTEM.CONST>
0

>  <SCORE.SYSTEM.DIHEDRAL>
0

>  <SCORE.SYSTEM.SOLV>
0

>  <SCORE.SYSTEM.norm>
0

>  <SCORE.heavy>
24

>  <SCORE.norm>
-1.5607

>  <RMSD>
1.009

$$$$
ligand
 OpenBabel11021811493D
libRbt.so/2013.1/901 2013/11/27
 24 26  0  0  0  0  0  0  0  0999 V2000
    8.5118  -11.0590   -9.2061 N   0  0  0  0  0  0  0  0  0  0  0  0
    9.3744  -12.1037   -9.7342 C   0  0  0  0  0  0  0  0  0  0  0  0
   13.2323   -6.2733  -13.1497 O   0  0  0  0  0  0  0  0  0  0  0  0
   11.9902   -5.7876  -12.7635 C   0  0  0  0  0  0  0  0  0  0  0  0
    8.0935   -4.4686  -11.6083 N   0  0  0  0  0  0  0  0  0  0  0  0
   11.7072   -4.3096  -12.7163 C   0  0  0  0  0  0  0  0  0  0  0  0
    8.4299   -6.6893  -11.6342 N   0  0  0  0  0  0  0  0  0  0  0  0
   10.4264   -3.7839  -12.3484 C   0  0  0  0  0  0  0  0  0  0  0  0
    6.1542   -5.8917  -10.9548 N   0  0  0  0  0  0  0  0  0  0  0  0
    9.4095   -4.7440  -12.0055 C   0  0  0  0  0  0  0  0  0  0  0  0
   12.4163  -10.8981  -12.2126 N   0  0  0  0  0  0  0  0  0  0  0  0
    9.6710   -6.1581  -12.0316 C   0  0  0  0  0  0  0  0  0  0  0  0
   11.0140   -6.6602  -12.4315 C   0  0  0  0  0  0  0  0  0  0  0  0
    7.5043   -5.6801  -11.3908 C   0  0  0  0  0  0  0  0  0  0  0  0
   11.2680   -8.1558  -12.4624 C   0  0  0  0  0  0  0  0  0  0  0  0
   12.7256   -8.5611  -12.6531 C   0  0  1  0  0  0  0  0  0  0  0  0
   13.6734   -7.4074  -12.4900 C   0  0  0  0  0  0  0  0  0  0  0  0
   13.0759   -9.7042  -11.7125 C   0  0  0  0  0  0  0  0  0  0  0  0
    8.1247   -8.1316  -11.5706 C   0  0  0  0  0  0  0  0  0  0  0  0
   13.1865  -11.4150  -13.3357 C   0  0  0  0  0  0  0  0  0  0  0  0
   12.4033  -11.8742  -11.1344 C   0  0  0  0  0  0  0  0  0  0  0  0
    8.2674   -8.7763  -10.1811 C   0  0  0  0  0  0  0  0  0  0  0  0
    7.9311  -10.2742  -10.3049 C   0  0  0  0  0  0  0  0  0  0  0  0
    7.4730  -11.6928   -8.4019 C   0  0  0  0  0  0  0  0  0  0  0  0
  1 23  1  0  0  0  0
  1 24  1  0  0  0  0
  1  2  1  0  0  0  0
  3  4  1  0  0  0  0
  3 17  1  0  0  0  0
  4  6  2  0  0  0  0
  4 13  1  0  0  0  0
  5 10  1  0  0  0  0
  5 14  2  0  0  0  0
  6  8  1  0  0  0  0
  7 12  1  0  0  0  0
  7 14  1  0  0  0  0
  7 19  1  0  0  0  0
  8 10  2  0  0  0  0
  9 14  1  0  0  0  0
 10 12  1  0  0  0  0
 11 18  1  0  0  0  0
 11 20  1  0  0  0  0
 11 21  1  0  0  0  0
 12 13  2  0  0  0  0
 13 15  1  0  0  0  0
 15 16  1  0  0  0  0
 16 17  1  0  0  0  0
 16 18  1  1  0  0  0
 19 22  1  0  0  0  0
 22 23  1  0  0  0  0
M  END
>  <CHROM.1>
-122.61895704,96.88677945,78.29966620,72.10889434,-179.26689890,158.28607070
10.26814286,-8.08633026,-11.56840432,1.51479158,-0.40148270,2.85732604

>  <Name>
ligand

>  <RI>
0

>  <Rbt.Current_Directory>
/home/itssahil/PROJECTS/Mol_Feturizer/New_Systems/rnas/3TZR

>  <Rbt.Executable>
rbdock ($Id: //depot/dev/client3/rdock/2013.1/src/exe/rbdock.cxx#4 $)

>  <Rbt.Library>
libRbt.so (2013.1, Build901 2013/11/27)

>  <Rbt.Parameter_File>
/export/apps/rDock/src/rDock_2013.1_src/data/scripts/dock_solv.prm

>  <Rbt.Receptor>
prm/blind_docking_100.prm

>  <SCORE>
-37.9455

>  <SCORE.INTER>
-27.7012

>  <SCORE.INTER.CONST>
1

>  <SCORE.INTER.POLAR>
-0.72111

>  <SCORE.INTER.ROT>
6

>  <SCORE.INTER.SOLV>
20.0752

>  <SCORE.INTER.VDW>
-30.3555

>  <SCORE.INTER.norm>
-1.15422

>  <SCORE.INTRA>
-10.2443

>  <SCORE.INTRA.DIHEDRAL>
1.41105

>  <SCORE.INTRA.DIHEDRAL.0>
4.94008

>  <SCORE.INTRA.POLAR>
0

>  <SCORE.INTRA.POLAR.0>
0

>  <SCORE.INTRA.REPUL>
0

>  <SCORE.INTRA.REPUL.0>
0

>  <SCORE.INTRA.SOLV>
0.163246

>  <SCORE.INTRA.SOLV.lig_0>
-31.4704

>  <SCORE.INTRA.VDW>
-11.0314

>  <SCORE.INTRA.VDW.0>
10.2807

>  <SCORE.INTRA.norm>
-0.426844

>  <SCORE.RESTR>
0

>  <SCORE.RESTR.CAVITY>
0

>  <SCORE.RESTR.norm>
0

>  <SCORE.SYSTEM>
0

>  <SCORE.SYSTEM.CONST>
0

>  <SCORE.SYSTEM.DIHEDRAL>
0

>  <SCORE.SYSTEM.SOLV>
0

>  <SCORE.SYSTEM.norm>
0

>  <SCORE.heavy>
24

>  <SCORE.norm>
-1.58106

>  <RMSD>
1.011

$$$$
ligand
 OpenBabel11021811493D
libRbt.so/2013.1/901 2013/11/27
 24 26  0  0  0  0  0  0  0  0999 V2000
    7.0970  -10.9103  -11.3187 N   0  0  0  0  0  0  0  0  0  0  0  0
    6.2713  -12.1071  -11.3334 C   0  0  0  0  0  0  0  0  0  0  0  0
   13.1391   -6.3078  -13.2080 O   0  0  0  0  0  0  0  0  0  0  0  0
   11.9049   -5.7917  -12.8362 C   0  0  0  0  0  0  0  0  0  0  0  0
    8.0324   -4.3815  -11.7076 N   0  0  0  0  0  0  0  0  0  0  0  0
   11.6171   -4.3159  -12.9145 C   0  0  0  0  0  0  0  0  0  0  0  0
    8.3770   -6.5950  -11.5428 N   0  0  0  0  0  0  0  0  0  0  0  0
   10.3437   -3.7616  -12.5636 C   0  0  0  0  0  0  0  0  0  0  0  0
    6.1154   -5.7438  -10.8813 N   0  0  0  0  0  0  0  0  0  0  0  0
    9.3393   -4.6889  -12.1110 C   0  0  0  0  0  0  0  0  0  0  0  0
   12.4710  -10.8609  -11.9096 N   0  0  0  0  0  0  0  0  0  0  0  0
    9.6059   -6.0993  -12.0168 C   0  0  0  0  0  0  0  0  0  0  0  0
   10.9407   -6.6328  -12.4033 C   0  0  0  0  0  0  0  0  0  0  0  0
    7.4536   -5.5697  -11.3679 C   0  0  0  0  0  0  0  0  0  0  0  0
   11.1998   -8.1246  -12.3064 C   0  0  0  0  0  0  0  0  0  0  0  0
   12.6540   -8.5427  -12.4961 C   0  0  1  0  0  0  0  0  0  0  0  0
   13.6008   -7.3774  -12.4605 C   0  0  0  0  0  0  0  0  0  0  0  0
   13.0318   -9.5963  -11.4659 C   0  0  0  0  0  0  0  0  0  0  0  0
    8.0793   -8.0263  -11.3428 C   0  0  0  0  0  0  0  0  0  0  0  0
   13.4470  -11.5245  -12.7634 C   0  0  0  0  0  0  0  0  0  0  0  0
   12.2237  -11.6686  -10.7255 C   0  0  0  0  0  0  0  0  0  0  0  0
    7.1732   -8.6677  -12.4078 C   0  0  0  0  0  0  0  0  0  0  0  0
    6.3049   -9.7401  -11.7235 C   0  0  0  0  0  0  0  0  0  0  0  0
    7.6329  -10.7463   -9.9721 C   0  0  0  0  0  0  0  0  0  0  0  0
  1 23  1  0  0  0  0
  1 24  1  0  0  0  0
  1  2  1  0  0  0  0
  3  4  1  0  0  0  0
  3 17  1  0  0  0  0
  4  6  2  0  0  0  0
  4 13  1  0  0  0  0
  5 10  1  0  0  0  0
  5 14  2  0  0  0  0
  6  8  1  0  0  0  0
  7 12  1  0  0  0  0
  7 14  1  0  0  0  0
  7 19  1  0  0  0  0
  8 10  2  0  0  0  0
  9 14  1  0  0  0  0
 10 12  1  0  0  0  0
 11 18  1  0  0  0  0
 11 20  1  0  0  0  0
 11 21  1  0  0  0  0
 12 13  2  0  0  0  0
 13 15  1  0  0  0  0
 15 16  1  0  0  0  0
 16 17  1  0  0  0  0
 16 18  1  1  0  0  0
 19 22  1  0  0  0  0
 22 23  1  0  0  0  0
M  END
>  <CHROM.1>
-150.75857222,-104.44029609,89.35775681,77.48636986,-146.42888292,-70.53270271
9.91920624,-7.96856024,-11.88726053,-2.81715266,0.17709989,-0.13009016

>  <Name>
ligand

>  <RI>
0

>  <Rbt.Current_Directory>
/home/itssahil/PROJECTS/Mol_Feturizer/New_Systems/rnas/3TZR

>  <Rbt.Executable>
rbdock ($Id: //depot/dev/client3/rdock/2013.1/src/exe/rbdock.cxx#4 $)

>  <Rbt.Library>
libRbt.so (2013.1, Build901 2013/11/27)

>  <Rbt.Parameter_File>
/export/apps/rDock/src/rDock_2013.1_src/data/scripts/dock_solv.prm

>  <Rbt.Receptor>
prm/pocket_docking_2.prm

>  <SCORE>
-31.7328

>  <SCORE.INTER>
-23.4897

>  <SCORE.INTER.CONST>
1

>  <SCORE.INTER.POLAR>
0

>  <SCORE.INTER.ROT>
6

>  <SCORE.INTER.SOLV>
19.9122

>  <SCORE.INTER.VDW>
-29.8972

>  <SCORE.INTER.norm>
-0.978736

>  <SCORE.INTRA>
-8.24847

>  <SCORE.INTRA.DIHEDRAL>
3.17875

>  <SCORE.INTRA.DIHEDRAL.0>
4.94008

>  <SCORE.INTRA.POLAR>
0

>  <SCORE.INTRA.POLAR.0>
0

>  <SCORE.INTRA.REPUL>
0

>  <SCORE.INTRA.REPUL.0>
0

>  <SCORE.INTRA.SOLV>
0.989764

>  <SCORE.INTRA.SOLV.lig_0>
-31.4704

>  <SCORE.INTRA.VDW>
-10.3327

>  <SCORE.INTRA.VDW.0>
10.2807

>  <SCORE.INTRA.norm>
-0.343686

>  <SCORE.RESTR>
0.00529091

>  <SCORE.RESTR.CAVITY>
0.00529091

>  <SCORE.RESTR.norm>
0.000220455

>  <SCORE.SYSTEM>
0

>  <SCORE.SYSTEM.CONST>
0

>  <SCORE.SYSTEM.DIHEDRAL>
0

>  <SCORE.SYSTEM.SOLV>
0

>  <SCORE.SYSTEM.norm>
0

>  <SCORE.heavy>
24

>  <SCORE.norm>
-1.3222

>  <RMSD>
1.011

$$$$
ligand
 OpenBabel11021811493D
libRbt.so/2013.1/901 2013/11/27
 24 26  0  0  0  0  0  0  0  0999 V2000
    8.4527  -10.8527   -9.4729 N   0  0  0  0  0  0  0  0  0  0  0  0
    8.7033  -12.1761  -10.0207 C   0  0  0  0  0  0  0  0  0  0  0  0
   13.3058   -6.3514  -13.0748 O   0  0  0  0  0  0  0  0  0  0  0  0
   12.0591   -5.8565  -12.7162 C   0  0  0  0  0  0  0  0  0  0  0  0
    8.1484   -4.5096  -11.6434 N   0  0  0  0  0  0  0  0  0  0  0  0
   11.7782   -4.3774  -12.7010 C   0  0  0  0  0  0  0  0  0  0  0  0
    8.4810   -6.7310  -11.6224 N   0  0  0  0  0  0  0  0  0  0  0  0
   10.4932   -3.8428  -12.3620 C   0  0  0  0  0  0  0  0  0  0  0  0
    6.1971   -5.9170  -10.9916 N   0  0  0  0  0  0  0  0  0  0  0  0
    9.4695   -4.7945  -12.0160 C   0  0  0  0  0  0  0  0  0  0  0  0
   12.9281  -11.0084  -12.2823 N   0  0  0  0  0  0  0  0  0  0  0  0
    9.7288   -6.2094  -12.0115 C   0  0  0  0  0  0  0  0  0  0  0  0
   11.0766   -6.7211  -12.3821 C   0  0  0  0  0  0  0  0  0  0  0  0
    7.5538   -5.7158  -11.4117 C   0  0  0  0  0  0  0  0  0  0  0  0
   11.3281   -8.2174  -12.3809 C   0  0  0  0  0  0  0  0  0  0  0  0
   12.7877   -8.6285  -12.5425 C   0  0  1  0  0  0  0  0  0  0  0  0
   13.7351   -7.4735  -12.3874 C   0  0  0  0  0  0  0  0  0  0  0  0
   13.1220   -9.7541  -11.5754 C   0  0  0  0  0  0  0  0  0  0  0  0
    8.1722   -8.1713  -11.5360 C   0  0  0  0  0  0  0  0  0  0  0  0
   14.1927  -11.3942  -12.8936 C   0  0  0  0  0  0  0  0  0  0  0  0
   12.5315  -12.0062  -11.3011 C   0  0  0  0  0  0  0  0  0  0  0  0
    7.5662   -8.6380  -10.2012 C   0  0  0  0  0  0  0  0  0  0  0  0
    7.4085  -10.1694  -10.2495 C   0  0  0  0  0  0  0  0  0  0  0  0
    8.0581  -11.0075   -8.0772 C   0  0  0  0  0  0  0  0  0  0  0  0
  1 23  1  0  0  0  0
  1 24  1  0  0  0  0
  1  2  1  0  0  0  0
  3  4  1  0  0  0  0
  3 17  1  0  0  0  0
  4  6  2  0  0  0  0
  4 13  1  0  0  0  0
  5 10  1  0  0  0  0
  5 14  2  0  0  0  0
  6  8  1  0  0  0  0
  7 12  1  0  0  0  0
  7 14  1  0  0  0  0
  7 19  1  0  0  0  0
  8 10  2  0  0  0  0
  9 14  1  0  0  0  0
 10 12  1  0  0  0  0
 11 18  1  0  0  0  0
 11 20  1  0  0  0  0
 11 21  1  0  0  0  0
 12 13  2  0  0  0  0
 13 15  1  0  0  0  0
 15 16  1  0  0  0  0
 16 17  1  0  0  0  0
 16 18  1  1  0  0  0
 19 22  1  0  0  0  0
 22 23  1  0  0  0  0
M  END
>  <CHROM.1>
-152.19463090,128.03043561,91.57712994,93.44142867,-175.81227489,103.27956245
10.32088631,-8.08364049,-11.54294631,1.04590477,-0.37149989,2.85700865

>  <Name>
ligand

>  <RI>
0

>  <Rbt.Current_Directory>
/home/itssahil/PROJECTS/Mol_Feturizer/New_Systems/rnas/3TZR

>  <Rbt.Executable>
rbdock ($Id: //depot/dev/client3/rdock/2013.1/src/exe/rbdock.cxx#4 $)

>  <Rbt.Library>
libRbt.so (2013.1, Build901 2013/11/27)

>  <Rbt.Parameter_File>
/export/apps/rDock/src/rDock_2013.1_src/data/scripts/dock_solv.prm

>  <Rbt.Receptor>
prm/blind_docking_100.prm

>  <SCORE>
-32.9485

>  <SCORE.INTER>
-25.1571

>  <SCORE.INTER.CONST>
1

>  <SCORE.INTER.POLAR>
-0.72111

>  <SCORE.INTER.ROT>
6

>  <SCORE.INTER.SOLV>
19.5953

>  <SCORE.INTER.VDW>
-28.4995

>  <SCORE.INTER.norm>
-1.04821

>  <SCORE.INTRA>
-7.79888

>  <SCORE.INTRA.DIHEDRAL>
6.19804

>  <SCORE.INTRA.DIHEDRAL.0>
4.94008

>  <SCORE.INTRA.POLAR>
0

>  <SCORE.INTRA.POLAR.0>
0

>  <SCORE.INTRA.REPUL>
0

>  <SCORE.INTRA.REPUL.0>
0

>  <SCORE.INTRA.SOLV>
0.877422

>  <SCORE.INTRA.SOLV.lig_0>
-31.4704

>  <SCORE.INTRA.VDW>
-11.3366

>  <SCORE.INTRA.VDW.0>
10.2807

>  <SCORE.INTRA.norm>
-0.324953

>  <SCORE.RESTR>
0.007492

>  <SCORE.RESTR.CAVITY>
0.007492

>  <SCORE.RESTR.norm>
0.000312166

>  <SCORE.SYSTEM>
0

>  <SCORE.SYSTEM.CONST>
0

>  <SCORE.SYSTEM.DIHEDRAL>
0

>  <SCORE.SYSTEM.SOLV>
0

>  <SCORE.SYSTEM.norm>
0

>  <SCORE.heavy>
24

>  <SCORE.norm>
-1.37285

>  <RMSD>
1.012

$$$$
ligand
 OpenBabel11021811493D
libRbt.so/2013.1/901 2013/11/27
 24 26  0  0  0  0  0  0  0  0999 V2000
    8.6777  -11.1454   -9.5727 N   0  0  0  0  0  0  0  0  0  0  0  0
    8.5515  -12.5519   -9.9196 C   0  0  0  0  0  0  0  0  0  0  0  0
   13.2884   -6.3555  -12.9203 O   0  0  0  0  0  0  0  0  0  0  0  0
   12.0141   -5.8546  -12.6900 C   0  0  0  0  0  0  0  0  0  0  0  0
    8.0215   -4.4899  -12.0152 N   0  0  0  0  0  0  0  0  0  0  0  0
   11.7345   -4.3758  -12.7310 C   0  0  0  0  0  0  0  0  0  0  0  0
    8.3485   -6.7101  -11.9183 N   0  0  0  0  0  0  0  0  0  0  0  0
   10.4239   -3.8356  -12.5246 C   0  0  0  0  0  0  0  0  0  0  0  0
    6.0164   -5.8857  -11.5206 N   0  0  0  0  0  0  0  0  0  0  0  0
    9.3714   -4.7811  -12.2567 C   0  0  0  0  0  0  0  0  0  0  0  0
   12.4982  -10.9714  -11.9665 N   0  0  0  0  0  0  0  0  0  0  0  0
    9.6277   -6.1954  -12.1994 C   0  0  0  0  0  0  0  0  0  0  0  0
   11.0038   -6.7132  -12.4319 C   0  0  0  0  0  0  0  0  0  0  0  0
    7.4067   -5.6918  -11.8159 C   0  0  0  0  0  0  0  0  0  0  0  0
   11.2526   -8.2089  -12.3770 C   0  0  0  0  0  0  0  0  0  0  0  0
   12.7205   -8.6220  -12.3930 C   0  0  1  0  0  0  0  0  0  0  0  0
   13.6504   -7.4631  -12.1732 C   0  0  0  0  0  0  0  0  0  0  0  0
   12.9618   -9.7275  -11.3763 C   0  0  0  0  0  0  0  0  0  0  0  0
    8.0316   -8.1487  -11.8321 C   0  0  0  0  0  0  0  0  0  0  0  0
   13.5856  -11.5454  -12.7474 C   0  0  0  0  0  0  0  0  0  0  0  0
   12.1486  -11.8687  -10.8764 C   0  0  0  0  0  0  0  0  0  0  0  0
    8.5392   -8.8622  -10.5672 C   0  0  0  0  0  0  0  0  0  0  0  0
    8.0139  -10.3100  -10.5837 C   0  0  0  0  0  0  0  0  0  0  0  0
    8.0870  -10.9494   -8.2536 C   0  0  0  0  0  0  0  0  0  0  0  0
  1 23  1  0  0  0  0
  1 24  1  0  0  0  0
  1  2  1  0  0  0  0
  3  4  1  0  0  0  0
  3 17  1  0  0  0  0
  4  6  2  0  0  0  0
  4 13  1  0  0  0  0
  5 10  1  0  0  0  0
  5 14  2  0  0  0  0
  6  8  1  0  0  0  0
  7 12  1  0  0  0  0
  7 14  1  0  0  0  0
  7 19  1  0  0  0  0
  8 10  2  0  0  0  0
  9 14  1  0  0  0  0
 10 12  1  0  0  0  0
 11 18  1  0  0  0  0
 11 20  1  0  0  0  0
 11 21  1  0  0  0  0
 12 13  2  0  0  0  0
 13 15  1  0  0  0  0
 15 16  1  0  0  0  0
 16 17  1  0  0  0  0
 16 18  1  1  0  0  0
 19 22  1  0  0  0  0
 22 23  1  0  0  0  0
M  END
>  <CHROM.1>
-158.92071297,73.81312056,86.91950366,78.81852451,174.94538187,167.77350764
10.26538190,-8.11682173,-11.61194940,1.38780711,-0.29968595,2.82849113

>  <Name>
ligand

>  <RI>
0

>  <Rbt.Current_Directory>
/home/itssahil/PROJECTS/Mol_Feturizer/New_Systems/rnas/3TZR

>  <Rbt.Executable>
rbdock ($Id: //depot/dev/client3/rdock/2013.1/src/exe/rbdock.cxx#4 $)

>  <Rbt.Library>
libRbt.so (2013.1, Build901 2013/11/27)

>  <Rbt.Parameter_File>
/export/apps/rDock/src/rDock_2013.1_src/data/scripts/dock_solv.prm

>  <Rbt.Receptor>
prm/pocket_docking_7.prm

>  <SCORE>
-37.9858

>  <SCORE.INTER>
-26.3437

>  <SCORE.INTER.CONST>
1

>  <SCORE.INTER.POLAR>
-0.717548

>  <SCORE.INTER.ROT>
6

>  <SCORE.INTER.SOLV>
19.8367

>  <SCORE.INTER.VDW>
-29.3828

>  <SCORE.INTER.norm>
-1.09765

>  <SCORE.INTRA>
-11.6421

>  <SCORE.INTRA.DIHEDRAL>
-0.199211

>  <SCORE.INTRA.DIHEDRAL.0>
4.94008

>  <SCORE.INTRA.POLAR>
0

>  <SCORE.INTRA.POLAR.0>
0

>  <SCORE.INTRA.REPUL>
0

>  <SCORE.INTRA.REPUL.0>
0

>  <SCORE.INTRA.SOLV>
-0.236203

>  <SCORE.INTRA.SOLV.lig_0>
-31.4704

>  <SCORE.INTRA.VDW>
-11.4244

>  <SCORE.INTRA.VDW.0>
10.2807

>  <SCORE.INTRA.norm>
-0.485088

>  <SCORE.RESTR>
0

>  <SCORE.RESTR.CAVITY>
0

>  <SCORE.RESTR.norm>
0

>  <SCORE.SYSTEM>
0

>  <SCORE.SYSTEM.CONST>
0

>  <SCORE.SYSTEM.DIHEDRAL>
0

>  <SCORE.SYSTEM.SOLV>
0

>  <SCORE.SYSTEM.norm>
0

>  <SCORE.heavy>
24

>  <SCORE.norm>
-1.58274

>  <RMSD>
1.012

$$$$
ligand
 OpenBabel11021811493D
libRbt.so/2013.1/901 2013/11/27
 24 26  0  0  0  0  0  0  0  0999 V2000
    7.3680  -10.7908  -10.9633 N   0  0  0  0  0  0  0  0  0  0  0  0
    6.0271  -10.8225  -11.5248 C   0  0  0  0  0  0  0  0  0  0  0  0
   13.2994   -6.2209  -13.0957 O   0  0  0  0  0  0  0  0  0  0  0  0
   12.0229   -5.7178  -12.8832 C   0  0  0  0  0  0  0  0  0  0  0  0
    8.0243   -4.3483  -12.2548 N   0  0  0  0  0  0  0  0  0  0  0  0
   11.7331   -4.2445  -12.9936 C   0  0  0  0  0  0  0  0  0  0  0  0
    8.3667   -6.5592  -12.0534 N   0  0  0  0  0  0  0  0  0  0  0  0
   10.4199   -3.7036  -12.8067 C   0  0  0  0  0  0  0  0  0  0  0  0
    6.0310   -5.7318  -11.6839 N   0  0  0  0  0  0  0  0  0  0  0  0
    9.3750   -4.6420  -12.4887 C   0  0  0  0  0  0  0  0  0  0  0  0
   12.7690  -10.8165  -11.9968 N   0  0  0  0  0  0  0  0  0  0  0  0
    9.6411   -6.0502  -12.3651 C   0  0  0  0  0  0  0  0  0  0  0  0
   11.0195   -6.5696  -12.5793 C   0  0  0  0  0  0  0  0  0  0  0  0
    7.4185   -5.5432  -11.9951 C   0  0  0  0  0  0  0  0  0  0  0  0
   11.2787   -8.0594  -12.4541 C   0  0  0  0  0  0  0  0  0  0  0  0
   12.7492   -8.4631  -12.4577 C   0  0  1  0  0  0  0  0  0  0  0  0
   13.6723   -7.2891  -12.2982 C   0  0  0  0  0  0  0  0  0  0  0  0
   13.0026   -9.5171  -11.3904 C   0  0  0  0  0  0  0  0  0  0  0  0
    8.0599   -7.9940  -11.8968 C   0  0  0  0  0  0  0  0  0  0  0  0
   13.9878  -11.2348  -12.6762 C   0  0  0  0  0  0  0  0  0  0  0  0
   12.4587  -11.7494  -10.9249 C   0  0  0  0  0  0  0  0  0  0  0  0
    8.5926   -8.6468  -10.6097 C   0  0  0  0  0  0  0  0  0  0  0  0
    7.5243   -9.6237  -10.0836 C   0  0  0  0  0  0  0  0  0  0  0  0
    7.5834  -12.0355  -10.2343 C   0  0  0  0  0  0  0  0  0  0  0  0
  1 23  1  0  0  0  0
  1 24  1  0  0  0  0
  1  2  1  0  0  0  0
  3  4  1  0  0  0  0
  3 17  1  0  0  0  0
  4  6  2  0  0  0  0
  4 13  1  0  0  0  0
  5 10  1  0  0  0  0
  5 14  2  0  0  0  0
  6  8  1  0  0  0  0
  7 12  1  0  0  0  0
  7 14  1  0  0  0  0
  7 19  1  0  0  0  0
  8 10  2  0  0  0  0
  9 14  1  0  0  0  0
 10 12  1  0  0  0  0
 11 18  1  0  0  0  0
 11 20  1  0  0  0  0
 11 21  1  0  0  0  0
 12 13  2  0  0  0  0
 13 15  1  0  0  0  0
 15 16  1  0  0  0  0
 16 17  1  0  0  0  0
 16 18  1  1  0  0  0
 19 22  1  0  0  0  0
 22 23  1  0  0  0  0
M  END
>  <CHROM.1>
-116.79474555,73.11171658,84.67002090,88.71852259,140.56101056,68.83352227
10.10590073,-7.90978927,-11.91656422,0.88468700,-0.17965098,2.91476847

>  <Name>
ligand

>  <RI>
0

>  <Rbt.Current_Directory>
/home/itssahil/PROJECTS/Mol_Feturizer/New_Systems/rnas/3TZR

>  <Rbt.Executable>
rbdock ($Id: //depot/dev/client3/rdock/2013.1/src/exe/rbdock.cxx#4 $)

>  <Rbt.Library>
libRbt.so (2013.1, Build901 2013/11/27)

>  <Rbt.Parameter_File>
/export/apps/rDock/src/rDock_2013.1_src/data/scripts/dock_solv.prm

>  <Rbt.Receptor>
prm/blind_docking_100.prm

>  <SCORE>
-32.1623

>  <SCORE.INTER>
-23.9088

>  <SCORE.INTER.CONST>
1

>  <SCORE.INTER.POLAR>
0

>  <SCORE.INTER.ROT>
6

>  <SCORE.INTER.SOLV>
20.7505

>  <SCORE.INTER.VDW>
-30.456

>  <SCORE.INTER.norm>
-0.996199

>  <SCORE.INTRA>
-8.25348

>  <SCORE.INTRA.DIHEDRAL>
6.33568

>  <SCORE.INTRA.DIHEDRAL.0>
4.94008

>  <SCORE.INTRA.POLAR>
0

>  <SCORE.INTRA.POLAR.0>
0

>  <SCORE.INTRA.REPUL>
0

>  <SCORE.INTRA.REPUL.0>
0

>  <SCORE.INTRA.SOLV>
-0.0314983

>  <SCORE.INTRA.SOLV.lig_0>
-31.4704

>  <SCORE.INTRA.VDW>
-11.4056

>  <SCORE.INTRA.VDW.0>
10.2807

>  <SCORE.INTRA.norm>
-0.343895

>  <SCORE.RESTR>
0

>  <SCORE.RESTR.CAVITY>
0

>  <SCORE.RESTR.norm>
0

>  <SCORE.SYSTEM>
0

>  <SCORE.SYSTEM.CONST>
0

>  <SCORE.SYSTEM.DIHEDRAL>
0

>  <SCORE.SYSTEM.SOLV>
0

>  <SCORE.SYSTEM.norm>
0

>  <SCORE.heavy>
24

>  <SCORE.norm>
-1.34009

>  <RMSD>
1.013

$$$$
ligand
 OpenBabel11021811493D
libRbt.so/2013.1/901 2013/11/27
 24 26  0  0  0  0  0  0  0  0999 V2000
    8.5349  -11.0843   -9.2270 N   0  0  0  0  0  0  0  0  0  0  0  0
    9.4200  -12.1294   -9.7155 C   0  0  0  0  0  0  0  0  0  0  0  0
   13.2778   -6.2826  -13.1210 O   0  0  0  0  0  0  0  0  0  0  0  0
   12.0256   -5.8045  -12.7588 C   0  0  0  0  0  0  0  0  0  0  0  0
    8.0996   -4.5095  -11.6777 N   0  0  0  0  0  0  0  0  0  0  0  0
   11.7306   -4.3284  -12.7241 C   0  0  0  0  0  0  0  0  0  0  0  0
    8.4533   -6.7277  -11.6863 N   0  0  0  0  0  0  0  0  0  0  0  0
   10.4397   -3.8107  -12.3810 C   0  0  0  0  0  0  0  0  0  0  0  0
    6.1602   -5.9442  -11.0502 N   0  0  0  0  0  0  0  0  0  0  0  0
    9.4243   -4.7768  -12.0507 C   0  0  0  0  0  0  0  0  0  0  0  0
   12.8775  -10.9548  -12.3717 N   0  0  0  0  0  0  0  0  0  0  0  0
    9.6970   -6.1891  -12.0650 C   0  0  0  0  0  0  0  0  0  0  0  0
   11.0505   -6.6829  -12.4391 C   0  0  0  0  0  0  0  0  0  0  0  0
    7.5160   -5.7244  -11.4641 C   0  0  0  0  0  0  0  0  0  0  0  0
   11.3162   -8.1766  -12.4578 C   0  0  0  0  0  0  0  0  0  0  0  0
   12.7800   -8.5717  -12.6213 C   0  0  1  0  0  0  0  0  0  0  0  0
   13.7161   -7.4099  -12.4479 C   0  0  0  0  0  0  0  0  0  0  0  0
   13.1227   -9.7072  -11.6688 C   0  0  0  0  0  0  0  0  0  0  0  0
    8.1580   -8.1720  -11.6204 C   0  0  0  0  0  0  0  0  0  0  0  0
   14.1446  -11.4457  -12.8965 C   0  0  0  0  0  0  0  0  0  0  0  0
   12.3448  -11.9030  -11.4060 C   0  0  0  0  0  0  0  0  0  0  0  0
    8.2991   -8.8122  -10.2287 C   0  0  0  0  0  0  0  0  0  0  0  0
    7.9853  -10.3151  -10.3524 C   0  0  0  0  0  0  0  0  0  0  0  0
    7.4745  -11.7156   -8.4496 C   0  0  0  0  0  0  0  0  0  0  0  0
  1 23  1  0  0  0  0
  1 24  1  0  0  0  0
  1  2  1  0  0  0  0
  3  4  1  0  0  0  0
  3 17  1  0  0  0  0
  4  6  2  0  0  0  0
  4 13  1  0  0  0  0
  5 10  1  0  0  0  0
  5 14  2  0  0  0  0
  6  8  1  0  0  0  0
  7 12  1  0  0  0  0
  7 14  1  0  0  0  0
  7 19  1  0  0  0  0
  8 10  2  0  0  0  0
  9 14  1  0  0  0  0
 10 12  1  0  0  0  0
 11 18  1  0  0  0  0
 11 20  1  0  0  0  0
 11 21  1  0  0  0  0
 12 13  2  0  0  0  0
 13 15  1  0  0  0  0
 15 16  1  0  0  0  0
 16 17  1  0  0  0  0
 16 18  1  1  0  0  0
 19 22  1  0  0  0  0
 22 23  1  0  0  0  0
M  END
>  <CHROM.1>
-123.07540765,96.13300341,98.05782920,90.61402616,-178.80505440,159.96579911
10.35516314,-8.11454953,-11.58582158,1.35445162,-0.37576855,2.84774674

>  <Name>
ligand

>  <RI>
0

>  <Rbt.Current_Directory>
/home/itssahil/PROJECTS/Mol_Feturizer/New_Systems/rnas/3TZR

>  <Rbt.Executable>
rbdock ($Id: //depot/dev/client3/rdock/2013.1/src/exe/rbdock.cxx#4 $)

>  <Rbt.Library>
libRbt.so (2013.1, Build901 2013/11/27)

>  <Rbt.Parameter_File>
/export/apps/rDock/src/rDock_2013.1_src/data/scripts/dock_solv.prm

>  <Rbt.Receptor>
prm/pocket_docking_3.prm

>  <SCORE>
-37.1796

>  <SCORE.INTER>
-27.4715

>  <SCORE.INTER.CONST>
1

>  <SCORE.INTER.POLAR>
-0.72111

>  <SCORE.INTER.ROT>
6

>  <SCORE.INTER.SOLV>
19.6722

>  <SCORE.INTER.VDW>
-30.068

>  <SCORE.INTER.norm>
-1.14464

>  <SCORE.INTRA>
-9.70813

>  <SCORE.INTRA.DIHEDRAL>
4.50273

>  <SCORE.INTRA.DIHEDRAL.0>
4.94008

>  <SCORE.INTRA.POLAR>
0

>  <SCORE.INTRA.POLAR.0>
0

>  <SCORE.INTRA.REPUL>
0

>  <SCORE.INTRA.REPUL.0>
0

>  <SCORE.INTRA.SOLV>
0.0545884

>  <SCORE.INTRA.SOLV.lig_0>
-31.4704

>  <SCORE.INTRA.VDW>
-11.9868

>  <SCORE.INTRA.VDW.0>
10.2807

>  <SCORE.INTRA.norm>
-0.404505

>  <SCORE.RESTR>
0

>  <SCORE.RESTR.CAVITY>
0

>  <SCORE.RESTR.norm>
0

>  <SCORE.SYSTEM>
0

>  <SCORE.SYSTEM.CONST>
0

>  <SCORE.SYSTEM.DIHEDRAL>
0

>  <SCORE.SYSTEM.SOLV>
0

>  <SCORE.SYSTEM.norm>
0

>  <SCORE.heavy>
24

>  <SCORE.norm>
-1.54915

>  <RMSD>
1.013

$$$$
ligand
 OpenBabel11021811493D
libRbt.so/2013.1/901 2013/11/27
 24 26  0  0  0  0  0  0  0  0999 V2000
    8.5745  -11.1280   -9.2655 N   0  0  0  0  0  0  0  0  0  0  0  0
    9.4614  -12.1872   -9.7192 C   0  0  0  0  0  0  0  0  0  0  0  0
   13.2581   -6.3230  -13.0706 O   0  0  0  0  0  0  0  0  0  0  0  0
   12.0170   -5.8293  -12.6913 C   0  0  0  0  0  0  0  0  0  0  0  0
    8.1218   -4.4843  -11.5613 N   0  0  0  0  0  0  0  0  0  0  0  0
   11.7505   -4.3491  -12.6223 C   0  0  0  0  0  0  0  0  0  0  0  0
    8.4328   -6.7081  -11.6209 N   0  0  0  0  0  0  0  0  0  0  0  0
   10.4715   -3.8147  -12.2611 C   0  0  0  0  0  0  0  0  0  0  0  0
    6.1583   -5.8954  -10.9557 N   0  0  0  0  0  0  0  0  0  0  0  0
    9.4393   -4.7684  -11.9470 C   0  0  0  0  0  0  0  0  0  0  0  0
   13.0166  -10.9890  -12.4924 N   0  0  0  0  0  0  0  0  0  0  0  0
    9.6848   -6.1849  -11.9941 C   0  0  0  0  0  0  0  0  0  0  0  0
   11.0268   -6.6959  -12.3861 C   0  0  0  0  0  0  0  0  0  0  0  0
    7.5160   -5.6923  -11.3717 C   0  0  0  0  0  0  0  0  0  0  0  0
   11.2638   -8.1936  -12.4393 C   0  0  0  0  0  0  0  0  0  0  0  0
   12.7189   -8.6128  -12.6192 C   0  0  1  0  0  0  0  0  0  0  0  0
   13.6779   -7.4732  -12.4250 C   0  0  0  0  0  0  0  0  0  0  0  0
   13.0443   -9.7756  -11.6940 C   0  0  0  0  0  0  0  0  0  0  0  0
    8.1103   -8.1475  -11.5856 C   0  0  0  0  0  0  0  0  0  0  0  0
   14.3881  -11.3680  -12.8041 C   0  0  0  0  0  0  0  0  0  0  0  0
   12.3902  -12.0268  -11.6886 C   0  0  0  0  0  0  0  0  0  0  0  0
    8.3307   -8.8408  -10.2300 C   0  0  0  0  0  0  0  0  0  0  0  0
    8.0824  -10.3500  -10.4114 C   0  0  0  0  0  0  0  0  0  0  0  0
    7.4740  -11.7423   -8.5313 C   0  0  0  0  0  0  0  0  0  0  0  0
  1 23  1  0  0  0  0
  1 24  1  0  0  0  0
  1  2  1  0  0  0  0
  3  4  1  0  0  0  0
  3 17  1  0  0  0  0
  4  6  2  0  0  0  0
  4 13  1  0  0  0  0
  5 10  1  0  0  0  0
  5 14  2  0  0  0  0
  6  8  1  0  0  0  0
  7 12  1  0  0  0  0
  7 14  1  0  0  0  0
  7 19  1  0  0  0  0
  8 10  2  0  0  0  0
  9 14  1  0  0  0  0
 10 12  1  0  0  0  0
 11 18  1  0  0  0  0
 11 20  1  0  0  0  0
 11 21  1  0  0  0  0
 12 13  2  0  0  0  0
 13 15  1  0  0  0  0
 15 16  1  0  0  0  0
 16 17  1  0  0  0  0
 16 18  1  1  0  0  0
 19 22  1  0  0  0  0
 22 23  1  0  0  0  0
M  END
>  <CHROM.1>
-126.92662614,92.43539754,101.15566167,101.15704964,-174.42274414,166.40955821
10.37159068,-8.13216649,-11.56899374,1.22489049,-0.38097565,2.86909809

>  <Name>
ligand

>  <RI>
0

>  <Rbt.Current_Directory>
/home/itssahil/PROJECTS/Mol_Feturizer/New_Systems/rnas/3TZR

>  <Rbt.Executable>
rbdock ($Id: //depot/dev/client3/rdock/2013.1/src/exe/rbdock.cxx#4 $)

>  <Rbt.Library>
libRbt.so (2013.1, Build901 2013/11/27)

>  <Rbt.Parameter_File>
/export/apps/rDock/src/rDock_2013.1_src/data/scripts/dock_solv.prm

>  <Rbt.Receptor>
prm/pocket_docking_6.prm

>  <SCORE>
-37.6698

>  <SCORE.INTER>
-28.0278

>  <SCORE.INTER.CONST>
1

>  <SCORE.INTER.POLAR>
-0.72111

>  <SCORE.INTER.ROT>
6

>  <SCORE.INTER.SOLV>
19.8747

>  <SCORE.INTER.VDW>
-30.5064

>  <SCORE.INTER.norm>
-1.16782

>  <SCORE.INTRA>
-9.64199

>  <SCORE.INTRA.DIHEDRAL>
5.34973

>  <SCORE.INTRA.DIHEDRAL.0>
4.94008

>  <SCORE.INTRA.POLAR>
0

>  <SCORE.INTRA.POLAR.0>
0

>  <SCORE.INTRA.REPUL>
0

>  <SCORE.INTRA.REPUL.0>
0

>  <SCORE.INTRA.SOLV>
-0.0708528

>  <SCORE.INTRA.SOLV.lig_0>
-31.4704

>  <SCORE.INTRA.VDW>
-12.2814

>  <SCORE.INTRA.VDW.0>
10.2807

>  <SCORE.INTRA.norm>
-0.40175

>  <SCORE.RESTR>
0

>  <SCORE.RESTR.CAVITY>
0

>  <SCORE.RESTR.norm>
0

>  <SCORE.SYSTEM>
0

>  <SCORE.SYSTEM.CONST>
0

>  <SCORE.SYSTEM.DIHEDRAL>
0

>  <SCORE.SYSTEM.SOLV>
0

>  <SCORE.SYSTEM.norm>
0

>  <SCORE.heavy>
24

>  <SCORE.norm>
-1.56957

>  <RMSD>
1.014

$$$$
ligand
 OpenBabel11021811493D
libRbt.so/2013.1/901 2013/11/27
 24 26  0  0  0  0  0  0  0  0999 V2000
    7.1961  -10.8054  -10.7662 N   0  0  0  0  0  0  0  0  0  0  0  0
    5.7631  -10.8353  -11.0107 C   0  0  0  0  0  0  0  0  0  0  0  0
   13.2305   -6.0251  -12.9456 O   0  0  0  0  0  0  0  0  0  0  0  0
   11.9236   -5.5904  -12.7700 C   0  0  0  0  0  0  0  0  0  0  0  0
    7.8413   -4.4328  -12.2664 N   0  0  0  0  0  0  0  0  0  0  0  0
   11.5700   -4.1280  -12.8277 C   0  0  0  0  0  0  0  0  0  0  0  0
    8.2779   -6.6330  -12.1485 N   0  0  0  0  0  0  0  0  0  0  0  0
   10.2259   -3.6560  -12.6777 C   0  0  0  0  0  0  0  0  0  0  0  0
    5.8919   -5.9296  -11.8508 N   0  0  0  0  0  0  0  0  0  0  0  0
    9.2133   -4.6542  -12.4506 C   0  0  0  0  0  0  0  0  0  0  0  0
   12.5609  -10.6632  -11.9781 N   0  0  0  0  0  0  0  0  0  0  0  0
    9.5396   -6.0533  -12.3779 C   0  0  0  0  0  0  0  0  0  0  0  0
   10.9489   -6.4997  -12.5512 C   0  0  0  0  0  0  0  0  0  0  0  0
    7.2814   -5.6646  -12.0887 C   0  0  0  0  0  0  0  0  0  0  0  0
   11.2721   -7.9805  -12.4809 C   0  0  0  0  0  0  0  0  0  0  0  0
   12.7586   -8.3172  -12.4346 C   0  0  1  0  0  0  0  0  0  0  0  0
   13.6176   -7.1116  -12.1803 C   0  0  0  0  0  0  0  0  0  0  0  0
   13.0140   -9.4075  -11.4050 C   0  0  0  0  0  0  0  0  0  0  0  0
    8.0323   -8.0859  -12.0706 C   0  0  0  0  0  0  0  0  0  0  0  0
   13.6421  -11.2222  -12.7784 C   0  0  0  0  0  0  0  0  0  0  0  0
   12.2506  -11.5599  -10.8758 C   0  0  0  0  0  0  0  0  0  0  0  0
    8.6778   -8.8017  -10.8715 C   0  0  0  0  0  0  0  0  0  0  0  0
    7.5733   -9.5498  -10.1016 C   0  0  0  0  0  0  0  0  0  0  0  0
    7.5400  -11.9619   -9.9466 C   0  0  0  0  0  0  0  0  0  0  0  0
  1 23  1  0  0  0  0
  1 24  1  0  0  0  0
  1  2  1  0  0  0  0
  3  4  1  0  0  0  0
  3 17  1  0  0  0  0
  4  6  2  0  0  0  0
  4 13  1  0  0  0  0
  5 10  1  0  0  0  0
  5 14  2  0  0  0  0
  6  8  1  0  0  0  0
  7 12  1  0  0  0  0
  7 14  1  0  0  0  0
  7 19  1  0  0  0  0
  8 10  2  0  0  0  0
  9 14  1  0  0  0  0
 10 12  1  0  0  0  0
 11 18  1  0  0  0  0
 11 20  1  0  0  0  0
 11 21  1  0  0  0  0
 12 13  2  0  0  0  0
 13 15  1  0  0  0  0
 15 16  1  0  0  0  0
 16 17  1  0  0  0  0
 16 18  1  1  0  0  0
 19 22  1  0  0  0  0
 22 23  1  0  0  0  0
M  END
>  <CHROM.1>
-125.33666378,66.34517343,85.73654845,75.26149031,124.77118601,78.20538044
9.99794015,-7.87512095,-11.87907022,-2.36189639,0.17167356,-0.23988956

>  <Name>
ligand

>  <RI>
144

>  <Rbt.Current_Directory>
/home/itssahil/PROJECTS/Mol_Feturizer/New_Systems/rnas/3TZR

>  <Rbt.Executable>
rbdock ($Id: //depot/dev/client3/rdock/2013.1/src/exe/rbdock.cxx#4 $)

>  <Rbt.Library>
libRbt.so (2013.1, Build901 2013/11/27)

>  <Rbt.Parameter_File>
/export/apps/rDock/src/rDock_2013.1_src/data/scripts/dock_solv.prm

>  <Rbt.Receptor>
prm/pocket_docking_8.prm

>  <SCORE>
-33.6517

>  <SCORE.INTER>
-25.7643

>  <SCORE.INTER.CONST>
1

>  <SCORE.INTER.POLAR>
0

>  <SCORE.INTER.ROT>
6

>  <SCORE.INTER.SOLV>
20.6101

>  <SCORE.INTER.VDW>
-31.6463

>  <SCORE.INTER.norm>
-1.07351

>  <SCORE.INTRA>
-7.88736

>  <SCORE.INTRA.DIHEDRAL>
6.96073

>  <SCORE.INTRA.DIHEDRAL.0>
4.94008

>  <SCORE.INTRA.POLAR>
0

>  <SCORE.INTRA.POLAR.0>
0

>  <SCORE.INTRA.REPUL>
0

>  <SCORE.INTRA.REPUL.0>
0

>  <SCORE.INTRA.SOLV>
0.00846149

>  <SCORE.INTRA.SOLV.lig_0>
-31.4704

>  <SCORE.INTRA.VDW>
-11.372

>  <SCORE.INTRA.VDW.0>
10.2807

>  <SCORE.INTRA.norm>
-0.32864

>  <SCORE.RESTR>
0

>  <SCORE.RESTR.CAVITY>
0

>  <SCORE.RESTR.norm>
0

>  <SCORE.SYSTEM>
0

>  <SCORE.SYSTEM.CONST>
0

>  <SCORE.SYSTEM.DIHEDRAL>
0

>  <SCORE.SYSTEM.SOLV>
0

>  <SCORE.SYSTEM.norm>
0

>  <SCORE.heavy>
24

>  <SCORE.norm>
-1.40215

>  <RMSD>
1.015

$$$$
ligand
 OpenBabel11021811493D
libRbt.so/2013.1/901 2013/11/27
 24 26  0  0  0  0  0  0  0  0999 V2000
    6.9097  -10.6572  -10.5881 N   0  0  0  0  0  0  0  0  0  0  0  0
    6.8281  -11.9398   -9.9080 C   0  0  0  0  0  0  0  0  0  0  0  0
   13.2819   -6.3434  -12.9258 O   0  0  0  0  0  0  0  0  0  0  0  0
   12.0091   -5.8191  -12.7449 C   0  0  0  0  0  0  0  0  0  0  0  0
    8.0196   -4.3833  -12.2143 N   0  0  0  0  0  0  0  0  0  0  0  0
   11.7451   -4.3421  -12.8705 C   0  0  0  0  0  0  0  0  0  0  0  0
    8.3225   -6.5979  -11.9922 N   0  0  0  0  0  0  0  0  0  0  0  0
   10.4367   -3.7796  -12.7163 C   0  0  0  0  0  0  0  0  0  0  0  0
    5.9924   -5.7319  -11.6801 N   0  0  0  0  0  0  0  0  0  0  0  0
    9.3704   -4.6995  -12.4162 C   0  0  0  0  0  0  0  0  0  0  0  0
   12.3817  -10.8832  -11.7191 N   0  0  0  0  0  0  0  0  0  0  0  0
    9.6114   -6.1109  -12.2784 C   0  0  0  0  0  0  0  0  0  0  0  0
   10.9859   -6.6531  -12.4586 C   0  0  0  0  0  0  0  0  0  0  0  0
    7.3894   -5.5670  -11.9612 C   0  0  0  0  0  0  0  0  0  0  0  0
   11.2187   -8.1459  -12.3188 C   0  0  0  0  0  0  0  0  0  0  0  0
   12.6823   -8.5727  -12.2871 C   0  0  1  0  0  0  0  0  0  0  0  0
   13.6201   -7.4122  -12.1139 C   0  0  0  0  0  0  0  0  0  0  0  0
   12.8952   -9.6238  -11.2083 C   0  0  0  0  0  0  0  0  0  0  0  0
    7.9896   -8.0268  -11.8342 C   0  0  0  0  0  0  0  0  0  0  0  0
   13.4330  -11.5311  -12.4916 C   0  0  0  0  0  0  0  0  0  0  0  0
   12.0325  -11.7093  -10.5741 C   0  0  0  0  0  0  0  0  0  0  0  0
    8.3920   -8.6538  -10.4882 C   0  0  0  0  0  0  0  0  0  0  0  0
    8.3014  -10.1856  -10.6206 C   0  0  0  0  0  0  0  0  0  0  0  0
    6.3760  -10.8241  -11.9352 C   0  0  0  0  0  0  0  0  0  0  0  0
  1 23  1  0  0  0  0
  1 24  1  0  0  0  0
  1  2  1  0  0  0  0
  3  4  1  0  0  0  0
  3 17  1  0  0  0  0
  4  6  2  0  0  0  0
  4 13  1  0  0  0  0
  5 10  1  0  0  0  0
  5 14  2  0  0  0  0
  6  8  1  0  0  0  0
  7 12  1  0  0  0  0
  7 14  1  0  0  0  0
  7 19  1  0  0  0  0
  8 10  2  0  0  0  0
  9 14  1  0  0  0  0
 10 12  1  0  0  0  0
 11 18  1  0  0  0  0
 11 20  1  0  0  0  0
 11 21  1  0  0  0  0
 12 13  2  0  0  0  0
 13 15  1  0  0  0  0
 15 16  1  0  0  0  0
 16 17  1  0  0  0  0
 16 18  1  1  0  0  0
 19 22  1  0  0  0  0
 22 23  1  0  0  0  0
M  END
>  <CHROM.1>
-144.79158284,77.41486962,86.01675592,76.65676408,-166.05759207,-75.87685299
10.00802257,-7.98555164,-11.81752531,1.75645726,-0.15377252,2.91319075

>  <Name>
ligand

>  <RI>
0

>  <Rbt.Current_Directory>
/home/itssahil/PROJECTS/Mol_Feturizer/New_Systems/rnas/3TZR

>  <Rbt.Executable>
rbdock ($Id: //depot/dev/client3/rdock/2013.1/src/exe/rbdock.cxx#4 $)

>  <Rbt.Library>
libRbt.so (2013.1, Build901 2013/11/27)

>  <Rbt.Parameter_File>
/export/apps/rDock/src/rDock_2013.1_src/data/scripts/dock_solv.prm

>  <Rbt.Receptor>
prm/pocket_docking_3.prm

>  <SCORE>
-35.0518

>  <SCORE.INTER>
-24.3937

>  <SCORE.INTER.CONST>
1

>  <SCORE.INTER.POLAR>
0

>  <SCORE.INTER.ROT>
6

>  <SCORE.INTER.SOLV>
20.5084

>  <SCORE.INTER.VDW>
-30.6986

>  <SCORE.INTER.norm>
-1.0164

>  <SCORE.INTRA>
-10.6581

>  <SCORE.INTRA.DIHEDRAL>
1.35936

>  <SCORE.INTRA.DIHEDRAL.0>
4.94008

>  <SCORE.INTRA.POLAR>
0

>  <SCORE.INTRA.POLAR.0>
0

>  <SCORE.INTRA.REPUL>
0

>  <SCORE.INTRA.REPUL.0>
0

>  <SCORE.INTRA.SOLV>
-0.130732

>  <SCORE.INTRA.SOLV.lig_0>
-31.4704

>  <SCORE.INTRA.VDW>
-11.2724

>  <SCORE.INTRA.VDW.0>
10.2807

>  <SCORE.INTRA.norm>
-0.444089

>  <SCORE.RESTR>
0

>  <SCORE.RESTR.CAVITY>
0

>  <SCORE.RESTR.norm>
0

>  <SCORE.SYSTEM>
0

>  <SCORE.SYSTEM.CONST>
0

>  <SCORE.SYSTEM.DIHEDRAL>
0

>  <SCORE.SYSTEM.SOLV>
0

>  <SCORE.SYSTEM.norm>
0

>  <SCORE.heavy>
24

>  <SCORE.norm>
-1.46049

>  <RMSD>
1.016

$$$$
ligand
 OpenBabel11021811493D
libRbt.so/2013.1/901 2013/11/27
 24 26  0  0  0  0  0  0  0  0999 V2000
    7.2589  -10.8397  -10.9378 N   0  0  0  0  0  0  0  0  0  0  0  0
    6.0221  -10.6809  -11.6856 C   0  0  0  0  0  0  0  0  0  0  0  0
   13.3212   -6.2782  -12.9355 O   0  0  0  0  0  0  0  0  0  0  0  0
   12.0409   -5.7737  -12.7508 C   0  0  0  0  0  0  0  0  0  0  0  0
    8.0308   -4.3990  -12.2139 N   0  0  0  0  0  0  0  0  0  0  0  0
   11.7607   -4.2969  -12.8377 C   0  0  0  0  0  0  0  0  0  0  0  0
    8.3577   -6.6153  -12.0507 N   0  0  0  0  0  0  0  0  0  0  0  0
   10.4447   -3.7539  -12.6788 C   0  0  0  0  0  0  0  0  0  0  0  0
    6.0153   -5.7849  -11.7341 N   0  0  0  0  0  0  0  0  0  0  0  0
    9.3868   -4.6940  -12.4132 C   0  0  0  0  0  0  0  0  0  0  0  0
   12.3626  -10.8347  -11.8158 N   0  0  0  0  0  0  0  0  0  0  0  0
    9.6432   -6.1058  -12.3125 C   0  0  0  0  0  0  0  0  0  0  0  0
   11.0253   -6.6271  -12.4962 C   0  0  0  0  0  0  0  0  0  0  0  0
    7.4125   -5.5963  -11.9989 C   0  0  0  0  0  0  0  0  0  0  0  0
   11.2743   -8.1204  -12.3959 C   0  0  0  0  0  0  0  0  0  0  0  0
   12.7426   -8.5311  -12.3638 C   0  0  1  0  0  0  0  0  0  0  0  0
   13.6653   -7.3652  -12.1508 C   0  0  0  0  0  0  0  0  0  0  0  0
   12.9591   -9.6093  -11.3127 C   0  0  0  0  0  0  0  0  0  0  0  0
    8.0404   -8.0517  -11.9350 C   0  0  0  0  0  0  0  0  0  0  0  0
   13.3491  -11.5260  -12.6348 C   0  0  0  0  0  0  0  0  0  0  0  0
   12.0154  -11.6556  -10.6664 C   0  0  0  0  0  0  0  0  0  0  0  0
    8.6045   -8.7545  -10.6882 C   0  0  0  0  0  0  0  0  0  0  0  0
    7.5033   -9.6567  -10.1004 C   0  0  0  0  0  0  0  0  0  0  0  0
    7.1464  -12.0474  -10.1276 C   0  0  0  0  0  0  0  0  0  0  0  0
  1 23  1  0  0  0  0
  1 24  1  0  0  0  0
  1  2  1  0  0  0  0
  3  4  1  0  0  0  0
  3 17  1  0  0  0  0
  4  6  2  0  0  0  0
  4 13  1  0  0  0  0
  5 10  1  0  0  0  0
  5 14  2  0  0  0  0
  6  8  1  0  0  0  0
  7 12  1  0  0  0  0
  7 14  1  0  0  0  0
  7 19  1  0  0  0  0
  8 10  2  0  0  0  0
  9 14  1  0  0  0  0
 10 12  1  0  0  0  0
 11 18  1  0  0  0  0
 11 20  1  0  0  0  0
 11 21  1  0  0  0  0
 12 13  2  0  0  0  0
 13 15  1  0  0  0  0
 15 16  1  0  0  0  0
 16 17  1  0  0  0  0
 16 18  1  1  0  0  0
 19 22  1  0  0  0  0
 22 23  1  0  0  0  0
M  END
>  <CHROM.1>
-104.55199030,69.54615492,86.78038224,71.91132383,136.20867822,71.98564391
10.01339769,-7.96025565,-11.85587540,2.00456779,-0.15776457,2.92420361

>  <Name>
ligand

>  <RI>
0

>  <Rbt.Current_Directory>
/home/itssahil/PROJECTS/Mol_Feturizer/New_Systems/rnas/3TZR

>  <Rbt.Executable>
rbdock ($Id: //depot/dev/client3/rdock/2013.1/src/exe/rbdock.cxx#4 $)

>  <Rbt.Library>
libRbt.so (2013.1, Build901 2013/11/27)

>  <Rbt.Parameter_File>
/export/apps/rDock/src/rDock_2013.1_src/data/scripts/dock_solv.prm

>  <Rbt.Receptor>
prm/pocket_docking_4.prm

>  <SCORE>
-33.393

>  <SCORE.INTER>
-24.6677

>  <SCORE.INTER.CONST>
1

>  <SCORE.INTER.POLAR>
0

>  <SCORE.INTER.ROT>
6

>  <SCORE.INTER.SOLV>
20.533

>  <SCORE.INTER.VDW>
-30.8895

>  <SCORE.INTER.norm>
-1.02782

>  <SCORE.INTRA>
-8.72531

>  <SCORE.INTRA.DIHEDRAL>
4.94449

>  <SCORE.INTRA.DIHEDRAL.0>
4.94008

>  <SCORE.INTRA.POLAR>
0

>  <SCORE.INTRA.POLAR.0>
0

>  <SCORE.INTRA.REPUL>
0

>  <SCORE.INTRA.REPUL.0>
0

>  <SCORE.INTRA.SOLV>
-0.0295476

>  <SCORE.INTRA.SOLV.lig_0>
-31.4704

>  <SCORE.INTRA.VDW>
-11.1828

>  <SCORE.INTRA.VDW.0>
10.2807

>  <SCORE.INTRA.norm>
-0.363555

>  <SCORE.RESTR>
0

>  <SCORE.RESTR.CAVITY>
0

>  <SCORE.RESTR.norm>
0

>  <SCORE.SYSTEM>
0

>  <SCORE.SYSTEM.CONST>
0

>  <SCORE.SYSTEM.DIHEDRAL>
0

>  <SCORE.SYSTEM.SOLV>
0

>  <SCORE.SYSTEM.norm>
0

>  <SCORE.heavy>
24

>  <SCORE.norm>
-1.39138

>  <RMSD>
1.016

$$$$
ligand
 OpenBabel11021811493D
libRbt.so/2013.1/901 2013/11/27
 24 26  0  0  0  0  0  0  0  0999 V2000
    6.3742  -10.3654  -10.8343 N   0  0  0  0  0  0  0  0  0  0  0  0
    7.3453  -11.1886  -10.1316 C   0  0  0  0  0  0  0  0  0  0  0  0
   13.2476   -6.3316  -13.1962 O   0  0  0  0  0  0  0  0  0  0  0  0
   12.0200   -5.8153  -12.8035 C   0  0  0  0  0  0  0  0  0  0  0  0
    8.1644   -4.4021  -11.6219 N   0  0  0  0  0  0  0  0  0  0  0  0
   11.7608   -4.3322  -12.7933 C   0  0  0  0  0  0  0  0  0  0  0  0
    8.4656   -6.6278  -11.5906 N   0  0  0  0  0  0  0  0  0  0  0  0
   10.4948   -3.7760  -12.4194 C   0  0  0  0  0  0  0  0  0  0  0  0
    6.2145   -5.7751  -10.8966 N   0  0  0  0  0  0  0  0  0  0  0  0
    9.4690   -4.7096  -12.0328 C   0  0  0  0  0  0  0  0  0  0  0  0
   12.2590  -10.8724  -12.0244 N   0  0  0  0  0  0  0  0  0  0  0  0
    9.7080   -6.1280  -12.0233 C   0  0  0  0  0  0  0  0  0  0  0  0
   11.0361   -6.6626  -12.4309 C   0  0  0  0  0  0  0  0  0  0  0  0
    7.5602   -5.5975  -11.3606 C   0  0  0  0  0  0  0  0  0  0  0  0
   11.2661   -8.1623  -12.4236 C   0  0  0  0  0  0  0  0  0  0  0  0
   12.7138   -8.5961  -12.6269 C   0  0  1  0  0  0  0  0  0  0  0  0
   13.6821   -7.4537  -12.5121 C   0  0  0  0  0  0  0  0  0  0  0  0
   13.0621   -9.7179  -11.6602 C   0  0  0  0  0  0  0  0  0  0  0  0
    8.1392   -8.0627  -11.4813 C   0  0  0  0  0  0  0  0  0  0  0  0
   13.0134  -11.6783  -12.9749 C   0  0  0  0  0  0  0  0  0  0  0  0
   12.0196  -11.6384  -10.8114 C   0  0  0  0  0  0  0  0  0  0  0  0
    7.0332   -8.5624  -12.4268 C   0  0  0  0  0  0  0  0  0  0  0  0
    6.8444  -10.0735  -12.1959 C   0  0  0  0  0  0  0  0  0  0  0  0
    5.1039  -11.0818  -10.8553 C   0  0  0  0  0  0  0  0  0  0  0  0
  1 23  1  0  0  0  0
  1 24  1  0  0  0  0
  1  2  1  0  0  0  0
  3  4  1  0  0  0  0
  3 17  1  0  0  0  0
  4  6  2  0  0  0  0
  4 13  1  0  0  0  0
  5 10  1  0  0  0  0
  5 14  2  0  0  0  0
  6  8  1  0  0  0  0
  7 12  1  0  0  0  0
  7 14  1  0  0  0  0
  7 19  1  0  0  0  0
  8 10  2  0  0  0  0
  9 14  1  0  0  0  0
 10 12  1  0  0  0  0
 11 18  1  0  0  0  0
 11 20  1  0  0  0  0
 11 21  1  0  0  0  0
 12 13  2  0  0  0  0
 13 15  1  0  0  0  0
 15 16  1  0  0  0  0
 16 17  1  0  0  0  0
 16 18  1  1  0  0  0
 19 22  1  0  0  0  0
 22 23  1  0  0  0  0
M  END
>  <CHROM.1>
-118.60947481,-115.32237233,91.06143508,65.74814880,178.96604045,63.55179655
9.86273592,-7.95889178,-11.90384674,-2.81065815,0.19840677,-0.11001111

>  <Name>
ligand

>  <RI>
0

>  <Rbt.Current_Directory>
/home/itssahil/PROJECTS/Mol_Feturizer/New_Systems/rnas/3TZR

>  <Rbt.Executable>
rbdock ($Id: //depot/dev/client3/rdock/2013.1/src/exe/rbdock.cxx#4 $)

>  <Rbt.Library>
libRbt.so (2013.1, Build901 2013/11/27)

>  <Rbt.Parameter_File>
/export/apps/rDock/src/rDock_2013.1_src/data/scripts/dock_solv.prm

>  <Rbt.Receptor>
prm/pocket_docking_6.prm

>  <SCORE>
-35.4607

>  <SCORE.INTER>
-24.7356

>  <SCORE.INTER.CONST>
1

>  <SCORE.INTER.POLAR>
0

>  <SCORE.INTER.ROT>
6

>  <SCORE.INTER.SOLV>
20.9103

>  <SCORE.INTER.VDW>
-31.0605

>  <SCORE.INTER.norm>
-1.03065

>  <SCORE.INTRA>
-10.7251

>  <SCORE.INTRA.DIHEDRAL>
0.0978002

>  <SCORE.INTRA.DIHEDRAL.0>
4.94008

>  <SCORE.INTRA.POLAR>
0

>  <SCORE.INTRA.POLAR.0>
0

>  <SCORE.INTRA.REPUL>
0

>  <SCORE.INTRA.REPUL.0>
0

>  <SCORE.INTRA.SOLV>
0.766333

>  <SCORE.INTRA.SOLV.lig_0>
-31.4704

>  <SCORE.INTRA.VDW>
-11.1572

>  <SCORE.INTRA.VDW.0>
10.2807

>  <SCORE.INTRA.norm>
-0.446881

>  <SCORE.RESTR>
0

>  <SCORE.RESTR.CAVITY>
0

>  <SCORE.RESTR.norm>
0

>  <SCORE.SYSTEM>
0

>  <SCORE.SYSTEM.CONST>
0

>  <SCORE.SYSTEM.DIHEDRAL>
0

>  <SCORE.SYSTEM.SOLV>
0

>  <SCORE.SYSTEM.norm>
0

>  <SCORE.heavy>
24

>  <SCORE.norm>
-1.47753

>  <RMSD>
1.017

$$$$
ligand
 OpenBabel11021811493D
libRbt.so/2013.1/901 2013/11/27
 24 26  0  0  0  0  0  0  0  0999 V2000
    8.5319  -11.1034   -9.2370 N   0  0  0  0  0  0  0  0  0  0  0  0
    9.4437  -12.1311   -9.7132 C   0  0  0  0  0  0  0  0  0  0  0  0
   13.2252   -6.2562  -13.1587 O   0  0  0  0  0  0  0  0  0  0  0  0
   11.9817   -5.7764  -12.7697 C   0  0  0  0  0  0  0  0  0  0  0  0
    8.0811   -4.4755  -11.6070 N   0  0  0  0  0  0  0  0  0  0  0  0
   11.6947   -4.2995  -12.7128 C   0  0  0  0  0  0  0  0  0  0  0  0
    8.4235   -6.6951  -11.6474 N   0  0  0  0  0  0  0  0  0  0  0  0
   10.4124   -3.7797  -12.3418 C   0  0  0  0  0  0  0  0  0  0  0  0
    6.1455   -5.9082  -10.9634 N   0  0  0  0  0  0  0  0  0  0  0  0
    9.3980   -4.7447  -12.0055 C   0  0  0  0  0  0  0  0  0  0  0  0
   12.4024  -10.8842  -12.2387 N   0  0  0  0  0  0  0  0  0  0  0  0
    9.6634   -6.1580  -12.0409 C   0  0  0  0  0  0  0  0  0  0  0  0
   11.0078   -6.6538  -12.4437 C   0  0  0  0  0  0  0  0  0  0  0  0
    7.4952   -5.6900  -11.3976 C   0  0  0  0  0  0  0  0  0  0  0  0
   11.2658   -8.1485  -12.4843 C   0  0  0  0  0  0  0  0  0  0  0  0
   12.7246   -8.5486  -12.6773 C   0  0  1  0  0  0  0  0  0  0  0  0
   13.6692   -7.3934  -12.5063 C   0  0  0  0  0  0  0  0  0  0  0  0
   13.0777   -9.6968  -11.7441 C   0  0  0  0  0  0  0  0  0  0  0  0
    8.1223   -8.1386  -11.5933 C   0  0  0  0  0  0  0  0  0  0  0  0
   13.1557  -11.4058  -13.3711 C   0  0  0  0  0  0  0  0  0  0  0  0
   12.3929  -11.8620  -11.1620 C   0  0  0  0  0  0  0  0  0  0  0  0
    8.4287   -8.8276  -10.2523 C   0  0  0  0  0  0  0  0  0  0  0  0
    8.0250  -10.3096  -10.3654 C   0  0  0  0  0  0  0  0  0  0  0  0
    7.4439  -11.7598   -8.5209 C   0  0  0  0  0  0  0  0  0  0  0  0
  1 23  1  0  0  0  0
  1 24  1  0  0  0  0
  1  2  1  0  0  0  0
  3  4  1  0  0  0  0
  3 17  1  0  0  0  0
  4  6  2  0  0  0  0
  4 13  1  0  0  0  0
  5 10  1  0  0  0  0
  5 14  2  0  0  0  0
  6  8  1  0  0  0  0
  7 12  1  0  0  0  0
  7 14  1  0  0  0  0
  7 19  1  0  0  0  0
  8 10  2  0  0  0  0
  9 14  1  0  0  0  0
 10 12  1  0  0  0  0
 11 18  1  0  0  0  0
 11 20  1  0  0  0  0
 11 21  1  0  0  0  0
 12 13  2  0  0  0  0
 13 15  1  0  0  0  0
 15 16  1  0  0  0  0
 16 17  1  0  0  0  0
 16 18  1  1  0  0  0
 19 22  1  0  0  0  0
 22 23  1  0  0  0  0
M  END
>  <CHROM.1>
-118.14040109,89.78824281,78.41470614,71.12364737,178.66993867,168.28511683
10.27489917,-8.09290368,-11.59100393,1.51196037,-0.39870497,2.86214145

>  <Name>
ligand

>  <RI>
0

>  <Rbt.Current_Directory>
/home/itssahil/PROJECTS/Mol_Feturizer/New_Systems/rnas/3TZR

>  <Rbt.Executable>
rbdock ($Id: //depot/dev/client3/rdock/2013.1/src/exe/rbdock.cxx#4 $)

>  <Rbt.Library>
libRbt.so (2013.1, Build901 2013/11/27)

>  <Rbt.Parameter_File>
/export/apps/rDock/src/rDock_2013.1_src/data/scripts/dock_solv.prm

>  <Rbt.Receptor>
prm/pocket_docking_4.prm

>  <SCORE>
-38.021

>  <SCORE.INTER>
-27.1878

>  <SCORE.INTER.CONST>
1

>  <SCORE.INTER.POLAR>
-0.694704

>  <SCORE.INTER.ROT>
6

>  <SCORE.INTER.SOLV>
19.9803

>  <SCORE.INTER.VDW>
-30.0696

>  <SCORE.INTER.norm>
-1.13282

>  <SCORE.INTRA>
-10.8333

>  <SCORE.INTRA.DIHEDRAL>
0.259111

>  <SCORE.INTRA.DIHEDRAL.0>
4.94008

>  <SCORE.INTRA.POLAR>
0

>  <SCORE.INTRA.POLAR.0>
0

>  <SCORE.INTRA.REPUL>
0

>  <SCORE.INTRA.REPUL.0>
0

>  <SCORE.INTRA.SOLV>
0.040009

>  <SCORE.INTRA.SOLV.lig_0>
-31.4704

>  <SCORE.INTRA.VDW>
-10.9828

>  <SCORE.INTRA.VDW.0>
10.2807

>  <SCORE.INTRA.norm>
-0.451386

>  <SCORE.RESTR>
0

>  <SCORE.RESTR.CAVITY>
0

>  <SCORE.RESTR.norm>
0

>  <SCORE.SYSTEM>
0

>  <SCORE.SYSTEM.CONST>
0

>  <SCORE.SYSTEM.DIHEDRAL>
0

>  <SCORE.SYSTEM.SOLV>
0

>  <SCORE.SYSTEM.norm>
0

>  <SCORE.heavy>
24

>  <SCORE.norm>
-1.58421

>  <RMSD>
1.018

$$$$
ligand
 OpenBabel11021811493D
libRbt.so/2013.1/901 2013/11/27
 24 26  0  0  0  0  0  0  0  0999 V2000
    6.8092  -10.6593  -10.6394 N   0  0  0  0  0  0  0  0  0  0  0  0
    6.6759  -11.8943   -9.8836 C   0  0  0  0  0  0  0  0  0  0  0  0
   13.3060   -6.3076  -12.8878 O   0  0  0  0  0  0  0  0  0  0  0  0
   12.0259   -5.7992  -12.7129 C   0  0  0  0  0  0  0  0  0  0  0  0
    8.0162   -4.4123  -12.2047 N   0  0  0  0  0  0  0  0  0  0  0  0
   11.7489   -4.3227  -12.8138 C   0  0  0  0  0  0  0  0  0  0  0  0
    8.3383   -6.6277  -12.0207 N   0  0  0  0  0  0  0  0  0  0  0  0
   10.4332   -3.7759  -12.6652 C   0  0  0  0  0  0  0  0  0  0  0  0
    5.9961   -5.7903  -11.7211 N   0  0  0  0  0  0  0  0  0  0  0  0
    9.3725   -4.7116  -12.3958 C   0  0  0  0  0  0  0  0  0  0  0  0
   12.3105  -10.8453  -11.7203 N   0  0  0  0  0  0  0  0  0  0  0  0
    9.6257   -6.1229  -12.2816 C   0  0  0  0  0  0  0  0  0  0  0  0
   11.0076   -6.6484  -12.4550 C   0  0  0  0  0  0  0  0  0  0  0  0
    7.3947   -5.6066  -11.9818 C   0  0  0  0  0  0  0  0  0  0  0  0
   11.2534   -8.1412  -12.3405 C   0  0  0  0  0  0  0  0  0  0  0  0
   12.7207   -8.5543  -12.2986 C   0  0  1  0  0  0  0  0  0  0  0  0
   13.6448   -7.3884  -12.0920 C   0  0  0  0  0  0  0  0  0  0  0  0
   12.9309   -9.6236  -11.2373 C   0  0  0  0  0  0  0  0  0  0  0  0
    8.0177   -8.0625  -11.8937 C   0  0  0  0  0  0  0  0  0  0  0  0
   13.2589  -11.5340  -12.5851 C   0  0  0  0  0  0  0  0  0  0  0  0
   12.0120  -11.6716  -10.5611 C   0  0  0  0  0  0  0  0  0  0  0  0
    8.3395   -8.6928  -10.5277 C   0  0  0  0  0  0  0  0  0  0  0  0
    8.2125  -10.2223  -10.6577 C   0  0  0  0  0  0  0  0  0  0  0  0
    6.3120  -10.8986  -11.9896 C   0  0  0  0  0  0  0  0  0  0  0  0
  1 23  1  0  0  0  0
  1 24  1  0  0  0  0
  1  2  1  0  0  0  0
  3  4  1  0  0  0  0
  3 17  1  0  0  0  0
  4  6  2  0  0  0  0
  4 13  1  0  0  0  0
  5 10  1  0  0  0  0
  5 14  2  0  0  0  0
  6  8  1  0  0  0  0
  7 12  1  0  0  0  0
  7 14  1  0  0  0  0
  7 19  1  0  0  0  0
  8 10  2  0  0  0  0
  9 14  1  0  0  0  0
 10 12  1  0  0  0  0
 11 18  1  0  0  0  0
 11 20  1  0  0  0  0
 11 21  1  0  0  0  0
 12 13  2  0  0  0  0
 13 15  1  0  0  0  0
 15 16  1  0  0  0  0
 16 17  1  0  0  0  0
 16 18  1  1  0  0  0
 19 22  1  0  0  0  0
 22 23  1  0  0  0  0
M  END
>  <CHROM.1>
-141.15725992,80.61241013,84.47809039,70.78065861,-168.84668335,-77.92785785
9.98664915,-7.99043184,-11.82793058,2.05081584,-0.14617183,2.92266144

>  <Name>
ligand

>  <RI>
144

>  <Rbt.Current_Directory>
/home/itssahil/PROJECTS/Mol_Feturizer/New_Systems/rnas/3TZR

>  <Rbt.Executable>
rbdock ($Id: //depot/dev/client3/rdock/2013.1/src/exe/rbdock.cxx#4 $)

>  <Rbt.Library>
libRbt.so (2013.1, Build901 2013/11/27)

>  <Rbt.Parameter_File>
/export/apps/rDock/src/rDock_2013.1_src/data/scripts/dock_solv.prm

>  <Rbt.Receptor>
prm/blind_docking_60.prm

>  <SCORE>
-35.5916

>  <SCORE.INTER>
-24.6541

>  <SCORE.INTER.CONST>
1

>  <SCORE.INTER.POLAR>
0

>  <SCORE.INTER.ROT>
6

>  <SCORE.INTER.SOLV>
20.5115

>  <SCORE.INTER.VDW>
-30.8732

>  <SCORE.INTER.norm>
-1.02725

>  <SCORE.INTRA>
-10.9376

>  <SCORE.INTRA.DIHEDRAL>
0.968366

>  <SCORE.INTRA.DIHEDRAL.0>
4.94008

>  <SCORE.INTRA.POLAR>
0

>  <SCORE.INTRA.POLAR.0>
0

>  <SCORE.INTRA.REPUL>
0

>  <SCORE.INTRA.REPUL.0>
0

>  <SCORE.INTRA.SOLV>
-0.0719157

>  <SCORE.INTRA.SOLV.lig_0>
-31.4704

>  <SCORE.INTRA.VDW>
-11.3858

>  <SCORE.INTRA.VDW.0>
10.2807

>  <SCORE.INTRA.norm>
-0.455732

>  <SCORE.RESTR>
0

>  <SCORE.RESTR.CAVITY>
0

>  <SCORE.RESTR.norm>
0

>  <SCORE.SYSTEM>
0

>  <SCORE.SYSTEM.CONST>
0

>  <SCORE.SYSTEM.DIHEDRAL>
0

>  <SCORE.SYSTEM.SOLV>
0

>  <SCORE.SYSTEM.norm>
0

>  <SCORE.heavy>
24

>  <SCORE.norm>
-1.48299

>  <RMSD>
1.020

$$$$
ligand
 OpenBabel11021811493D
libRbt.so/2013.1/901 2013/11/27
 24 26  0  0  0  0  0  0  0  0999 V2000
    6.3647  -10.3604  -10.7865 N   0  0  0  0  0  0  0  0  0  0  0  0
    7.2953  -11.2324  -10.0881 C   0  0  0  0  0  0  0  0  0  0  0  0
   13.2373   -6.3077  -13.2108 O   0  0  0  0  0  0  0  0  0  0  0  0
   12.0068   -5.8017  -12.8140 C   0  0  0  0  0  0  0  0  0  0  0  0
    8.1436   -4.4205  -11.6192 N   0  0  0  0  0  0  0  0  0  0  0  0
   11.7348   -4.3209  -12.8047 C   0  0  0  0  0  0  0  0  0  0  0  0
    8.4643   -6.6435  -11.5864 N   0  0  0  0  0  0  0  0  0  0  0  0
   10.4655   -3.7751  -12.4265 C   0  0  0  0  0  0  0  0  0  0  0  0
    6.2086   -5.8094  -10.8846 N   0  0  0  0  0  0  0  0  0  0  0  0
    9.4493   -4.7171  -12.0348 C   0  0  0  0  0  0  0  0  0  0  0  0
   12.3130  -10.8637  -12.0467 N   0  0  0  0  0  0  0  0  0  0  0  0
    9.7006   -6.1334  -12.0244 C   0  0  0  0  0  0  0  0  0  0  0  0
   11.0317   -6.6569  -12.4365 C   0  0  0  0  0  0  0  0  0  0  0  0
    7.5508   -5.6207  -11.3541 C   0  0  0  0  0  0  0  0  0  0  0  0
   11.2748   -8.1546  -12.4283 C   0  0  0  0  0  0  0  0  0  0  0  0
   12.7254   -8.5761  -12.6366 C   0  0  1  0  0  0  0  0  0  0  0  0
   13.6842   -7.4251  -12.5270 C   0  0  0  0  0  0  0  0  0  0  0  0
   13.0872   -9.6936  -11.6700 C   0  0  0  0  0  0  0  0  0  0  0  0
    8.1508   -8.0809  -11.4739 C   0  0  0  0  0  0  0  0  0  0  0  0
   13.1163  -11.6781  -12.9485 C   0  0  0  0  0  0  0  0  0  0  0  0
   12.0295  -11.6100  -10.8309 C   0  0  0  0  0  0  0  0  0  0  0  0
    7.0394   -8.5896  -12.4083 C   0  0  0  0  0  0  0  0  0  0  0  0
    6.8416  -10.0953  -12.1513 C   0  0  0  0  0  0  0  0  0  0  0  0
    5.0585  -11.0094  -10.7992 C   0  0  0  0  0  0  0  0  0  0  0  0
  1 23  1  0  0  0  0
  1 24  1  0  0  0  0
  1  2  1  0  0  0  0
  3  4  1  0  0  0  0
  3 17  1  0  0  0  0
  4  6  2  0  0  0  0
  4 13  1  0  0  0  0
  5 10  1  0  0  0  0
  5 14  2  0  0  0  0
  6  8  1  0  0  0  0
  7 12  1  0  0  0  0
  7 14  1  0  0  0  0
  7 19  1  0  0  0  0
  8 10  2  0  0  0  0
  9 14  1  0  0  0  0
 10 12  1  0  0  0  0
 11 18  1  0  0  0  0
 11 20  1  0  0  0  0
 11 21  1  0  0  0  0
 12 13  2  0  0  0  0
 13 15  1  0  0  0  0
 15 16  1  0  0  0  0
 16 17  1  0  0  0  0
 16 18  1  1  0  0  0
 19 22  1  0  0  0  0
 22 23  1  0  0  0  0
M  END
>  <CHROM.1>
-121.51127483,-115.69253164,93.37757805,66.89314209,-179.66891480,63.91547933
9.86235531,-7.95710573,-11.89753950,-2.83236850,0.20343062,-0.11514326

>  <Name>
ligand

>  <RI>
144

>  <Rbt.Current_Directory>
/home/itssahil/PROJECTS/Mol_Feturizer/New_Systems/rnas/3TZR

>  <Rbt.Executable>
rbdock ($Id: //depot/dev/client3/rdock/2013.1/src/exe/rbdock.cxx#4 $)

>  <Rbt.Library>
libRbt.so (2013.1, Build901 2013/11/27)

>  <Rbt.Parameter_File>
/export/apps/rDock/src/rDock_2013.1_src/data/scripts/dock_solv.prm

>  <Rbt.Receptor>
prm/blind_docking_60.prm

>  <SCORE>
-35.4068

>  <SCORE.INTER>
-24.6917

>  <SCORE.INTER.CONST>
1

>  <SCORE.INTER.POLAR>
0

>  <SCORE.INTER.ROT>
6

>  <SCORE.INTER.SOLV>
20.842

>  <SCORE.INTER.VDW>
-31.0085

>  <SCORE.INTER.norm>
-1.02882

>  <SCORE.INTRA>
-10.7151

>  <SCORE.INTRA.DIHEDRAL>
0.299419

>  <SCORE.INTRA.DIHEDRAL.0>
4.94008

>  <SCORE.INTRA.POLAR>
0

>  <SCORE.INTRA.POLAR.0>
0

>  <SCORE.INTRA.REPUL>
0

>  <SCORE.INTRA.REPUL.0>
0

>  <SCORE.INTRA.SOLV>
0.792115

>  <SCORE.INTRA.SOLV.lig_0>
-31.4704

>  <SCORE.INTRA.VDW>
-11.2609

>  <SCORE.INTRA.VDW.0>
10.2807

>  <SCORE.INTRA.norm>
-0.446462

>  <SCORE.RESTR>
0

>  <SCORE.RESTR.CAVITY>
0

>  <SCORE.RESTR.norm>
0

>  <SCORE.SYSTEM>
0

>  <SCORE.SYSTEM.CONST>
0

>  <SCORE.SYSTEM.DIHEDRAL>
0

>  <SCORE.SYSTEM.SOLV>
0

>  <SCORE.SYSTEM.norm>
0

>  <SCORE.heavy>
24

>  <SCORE.norm>
-1.47528

>  <RMSD>
1.020

$$$$
ligand
 OpenBabel11021811493D
libRbt.so/2013.1/901 2013/11/27
 24 26  0  0  0  0  0  0  0  0999 V2000
    8.6861  -11.1459   -9.5722 N   0  0  0  0  0  0  0  0  0  0  0  0
    8.5654  -12.5534   -9.9165 C   0  0  0  0  0  0  0  0  0  0  0  0
   13.3083   -6.4076  -12.8676 O   0  0  0  0  0  0  0  0  0  0  0  0
   12.0329   -5.8972  -12.6661 C   0  0  0  0  0  0  0  0  0  0  0  0
    8.0364   -4.5033  -12.0793 N   0  0  0  0  0  0  0  0  0  0  0  0
   11.7621   -4.4176  -12.7305 C   0  0  0  0  0  0  0  0  0  0  0  0
    8.3496   -6.7238  -11.9491 N   0  0  0  0  0  0  0  0  0  0  0  0
   10.4510   -3.8680  -12.5541 C   0  0  0  0  0  0  0  0  0  0  0  0
    6.0153   -5.8823  -11.6030 N   0  0  0  0  0  0  0  0  0  0  0  0
    9.3888   -4.8046  -12.2932 C   0  0  0  0  0  0  0  0  0  0  0  0
   12.3475  -10.9782  -11.8131 N   0  0  0  0  0  0  0  0  0  0  0  0
    9.6364   -6.2193  -12.2138 C   0  0  0  0  0  0  0  0  0  0  0  0
   11.0135   -6.7472  -12.4154 C   0  0  0  0  0  0  0  0  0  0  0  0
    7.4117   -5.6994  -11.8760 C   0  0  0  0  0  0  0  0  0  0  0  0
   11.2532   -8.2434  -12.3374 C   0  0  0  0  0  0  0  0  0  0  0  0
   12.7188   -8.6643  -12.3223 C   0  0  1  0  0  0  0  0  0  0  0  0
   13.6510   -7.5077  -12.1005 C   0  0  0  0  0  0  0  0  0  0  0  0
   12.9361   -9.7583  -11.2878 C   0  0  0  0  0  0  0  0  0  0  0  0
    8.0234   -8.1595  -11.8506 C   0  0  0  0  0  0  0  0  0  0  0  0
   13.3347  -11.6427  -12.6531 C   0  0  0  0  0  0  0  0  0  0  0  0
   12.0155  -11.8265  -10.6793 C   0  0  0  0  0  0  0  0  0  0  0  0
    8.6080   -8.8874  -10.6278 C   0  0  0  0  0  0  0  0  0  0  0  0
    8.0291  -10.3142  -10.5905 C   0  0  0  0  0  0  0  0  0  0  0  0
    8.0844  -10.9478   -8.2584 C   0  0  0  0  0  0  0  0  0  0  0  0
  1 23  1  0  0  0  0
  1 24  1  0  0  0  0
  1  2  1  0  0  0  0
  3  4  1  0  0  0  0
  3 17  1  0  0  0  0
  4  6  2  0  0  0  0
  4 13  1  0  0  0  0
  5 10  1  0  0  0  0
  5 14  2  0  0  0  0
  6  8  1  0  0  0  0
  7 12  1  0  0  0  0
  7 14  1  0  0  0  0
  7 19  1  0  0  0  0
  8 10  2  0  0  0  0
  9 14  1  0  0  0  0
 10 12  1  0  0  0  0
 11 18  1  0  0  0  0
 11 20  1  0  0  0  0
 11 21  1  0  0  0  0
 12 13  2  0  0  0  0
 13 15  1  0  0  0  0
 15 16  1  0  0  0  0
 16 17  1  0  0  0  0
 16 18  1  1  0  0  0
 19 22  1  0  0  0  0
 22 23  1  0  0  0  0
M  END
>  <CHROM.1>
-155.65405454,68.76141235,86.04779369,72.86472908,173.03027761,171.43444398
10.25010293,-8.13887990,-11.59299436,1.42058566,-0.28101111,2.82018000

>  <Name>
ligand

>  <RI>
0

>  <Rbt.Current_Directory>
/home/itssahil/PROJECTS/Mol_Feturizer/New_Systems/rnas/3TZR

>  <Rbt.Executable>
rbdock ($Id: //depot/dev/client3/rdock/2013.1/src/exe/rbdock.cxx#4 $)

>  <Rbt.Library>
libRbt.so (2013.1, Build901 2013/11/27)

>  <Rbt.Parameter_File>
/export/apps/rDock/src/rDock_2013.1_src/data/scripts/dock_solv.prm

>  <Rbt.Receptor>
prm/pocket_docking_5.prm

>  <SCORE>
-38.0339

>  <SCORE.INTER>
-26.1222

>  <SCORE.INTER.CONST>
1

>  <SCORE.INTER.POLAR>
-0.72111

>  <SCORE.INTER.ROT>
6

>  <SCORE.INTER.SOLV>
20.0081

>  <SCORE.INTER.VDW>
-29.2805

>  <SCORE.INTER.norm>
-1.08842

>  <SCORE.INTRA>
-11.9117

>  <SCORE.INTRA.DIHEDRAL>
-0.860233

>  <SCORE.INTRA.DIHEDRAL.0>
4.94008

>  <SCORE.INTRA.POLAR>
0

>  <SCORE.INTRA.POLAR.0>
0

>  <SCORE.INTRA.REPUL>
0

>  <SCORE.INTRA.REPUL.0>
0

>  <SCORE.INTRA.SOLV>
-0.143717

>  <SCORE.INTRA.SOLV.lig_0>
-31.4704

>  <SCORE.INTRA.VDW>
-11.4098

>  <SCORE.INTRA.VDW.0>
10.2807

>  <SCORE.INTRA.norm>
-0.496323

>  <SCORE.RESTR>
0

>  <SCORE.RESTR.CAVITY>
0

>  <SCORE.RESTR.norm>
0

>  <SCORE.SYSTEM>
0

>  <SCORE.SYSTEM.CONST>
0

>  <SCORE.SYSTEM.DIHEDRAL>
0

>  <SCORE.SYSTEM.SOLV>
0

>  <SCORE.SYSTEM.norm>
0

>  <SCORE.heavy>
24

>  <SCORE.norm>
-1.58475

>  <RMSD>
1.020

$$$$
ligand
 OpenBabel11021811493D
libRbt.so/2013.1/901 2013/11/27
 24 26  0  0  0  0  0  0  0  0999 V2000
    8.5535  -11.0040   -9.5231 N   0  0  0  0  0  0  0  0  0  0  0  0
    8.4511  -12.4270   -9.8039 C   0  0  0  0  0  0  0  0  0  0  0  0
   13.2776   -6.2787  -12.9653 O   0  0  0  0  0  0  0  0  0  0  0  0
   11.9925   -5.8036  -12.7409 C   0  0  0  0  0  0  0  0  0  0  0  0
    7.9705   -4.5203  -12.0808 N   0  0  0  0  0  0  0  0  0  0  0  0
   11.6782   -4.3327  -12.8084 C   0  0  0  0  0  0  0  0  0  0  0  0
    8.3496   -6.7301  -11.9440 N   0  0  0  0  0  0  0  0  0  0  0  0
   10.3558   -3.8195  -12.6084 C   0  0  0  0  0  0  0  0  0  0  0  0
    5.9997   -5.9532  -11.5553 N   0  0  0  0  0  0  0  0  0  0  0  0
    9.3263   -4.7843  -12.3204 C   0  0  0  0  0  0  0  0  0  0  0  0
   12.3730  -10.8407  -11.8114 N   0  0  0  0  0  0  0  0  0  0  0  0
    9.6158   -6.1909  -12.2378 C   0  0  0  0  0  0  0  0  0  0  0  0
   11.0031   -6.6806  -12.4644 C   0  0  0  0  0  0  0  0  0  0  0  0
    7.3844   -5.7323  -11.8578 C   0  0  0  0  0  0  0  0  0  0  0  0
   11.2870   -8.1689  -12.3826 C   0  0  0  0  0  0  0  0  0  0  0  0
   12.7641   -8.5477  -12.3950 C   0  0  1  0  0  0  0  0  0  0  0  0
   13.6671   -7.3636  -12.1990 C   0  0  0  0  0  0  0  0  0  0  0  0
   13.0334   -9.6284  -11.3588 C   0  0  0  0  0  0  0  0  0  0  0  0
    8.0666   -8.1738  -11.8305 C   0  0  0  0  0  0  0  0  0  0  0  0
   13.2484  -11.5169  -12.7592 C   0  0  0  0  0  0  0  0  0  0  0  0
   12.1640  -11.6855  -10.6460 C   0  0  0  0  0  0  0  0  0  0  0  0
    8.0251   -8.7281  -10.3960 C   0  0  0  0  0  0  0  0  0  0  0  0
    7.7287  -10.2378  -10.4680 C   0  0  0  0  0  0  0  0  0  0  0  0
    8.1255  -10.7821   -8.1465 C   0  0  0  0  0  0  0  0  0  0  0  0
  1 23  1  0  0  0  0
  1 24  1  0  0  0  0
  1  2  1  0  0  0  0
  3  4  1  0  0  0  0
  3 17  1  0  0  0  0
  4  6  2  0  0  0  0
  4 13  1  0  0  0  0
  5 10  1  0  0  0  0
  5 14  2  0  0  0  0
  6  8  1  0  0  0  0
  7 12  1  0  0  0  0
  7 14  1  0  0  0  0
  7 19  1  0  0  0  0
  8 10  2  0  0  0  0
  9 14  1  0  0  0  0
 10 12  1  0  0  0  0
 11 18  1  0  0  0  0
 11 20  1  0  0  0  0
 11 21  1  0  0  0  0
 12 13  2  0  0  0  0
 13 15  1  0  0  0  0
 15 16  1  0  0  0  0
 16 17  1  0  0  0  0
 16 18  1  1  0  0  0
 19 22  1  0  0  0  0
 22 23  1  0  0  0  0
M  END
>  <CHROM.1>
-168.40607614,98.87226123,83.51628759,68.17038028,-179.66843187,138.02974288
10.19968167,-8.05857770,-11.59307060,1.48332514,-0.29496987,2.80325355

>  <Name>
ligand

>  <RI>
0

>  <Rbt.Current_Directory>
/home/itssahil/PROJECTS/Mol_Feturizer/New_Systems/rnas/3TZR

>  <Rbt.Executable>
rbdock ($Id: //depot/dev/client3/rdock/2013.1/src/exe/rbdock.cxx#4 $)

>  <Rbt.Library>
libRbt.so (2013.1, Build901 2013/11/27)

>  <Rbt.Parameter_File>
/export/apps/rDock/src/rDock_2013.1_src/data/scripts/dock_solv.prm

>  <Rbt.Receptor>
prm/pocket_docking_2.prm

>  <SCORE>
-35.0788

>  <SCORE.INTER>
-25.974

>  <SCORE.INTER.CONST>
1

>  <SCORE.INTER.POLAR>
-0.710405

>  <SCORE.INTER.ROT>
6

>  <SCORE.INTER.SOLV>
19.7334

>  <SCORE.INTER.VDW>
-29.1258

>  <SCORE.INTER.norm>
-1.08225

>  <SCORE.INTRA>
-9.50222

>  <SCORE.INTRA.DIHEDRAL>
2.0349

>  <SCORE.INTRA.DIHEDRAL.0>
4.94008

>  <SCORE.INTRA.POLAR>
0

>  <SCORE.INTRA.POLAR.0>
0

>  <SCORE.INTRA.REPUL>
0.00173773

>  <SCORE.INTRA.REPUL.0>
0

>  <SCORE.INTRA.SOLV>
0.23487

>  <SCORE.INTRA.SOLV.lig_0>
-31.4704

>  <SCORE.INTRA.VDW>
-10.6458

>  <SCORE.INTRA.VDW.0>
10.2807

>  <SCORE.INTRA.norm>
-0.395926

>  <SCORE.RESTR>
0.397407

>  <SCORE.RESTR.CAVITY>
0.397407

>  <SCORE.RESTR.norm>
0.0165586

>  <SCORE.SYSTEM>
0

>  <SCORE.SYSTEM.CONST>
0

>  <SCORE.SYSTEM.DIHEDRAL>
0

>  <SCORE.SYSTEM.SOLV>
0

>  <SCORE.SYSTEM.norm>
0

>  <SCORE.heavy>
24

>  <SCORE.norm>
-1.46162

>  <RMSD>
1.021

$$$$
ligand
 OpenBabel11021811493D
libRbt.so/2013.1/901 2013/11/27
 24 26  0  0  0  0  0  0  0  0999 V2000
    7.0610  -10.8440  -11.5869 N   0  0  0  0  0  0  0  0  0  0  0  0
    6.2158  -12.0087  -11.7955 C   0  0  0  0  0  0  0  0  0  0  0  0
   13.3330   -6.6358  -13.1273 O   0  0  0  0  0  0  0  0  0  0  0  0
   12.1307   -6.0217  -12.8031 C   0  0  0  0  0  0  0  0  0  0  0  0
    8.3435   -4.3038  -11.8209 N   0  0  0  0  0  0  0  0  0  0  0  0
   11.9593   -4.5297  -12.9101 C   0  0  0  0  0  0  0  0  0  0  0  0
    8.5124   -6.5342  -11.6159 N   0  0  0  0  0  0  0  0  0  0  0  0
   10.7215   -3.8748  -12.6085 C   0  0  0  0  0  0  0  0  0  0  0  0
    6.3027   -5.5034  -11.0403 N   0  0  0  0  0  0  0  0  0  0  0  0
    9.6352   -4.7160  -12.1770 C   0  0  0  0  0  0  0  0  0  0  0  0
   12.4656  -11.1500  -11.8849 N   0  0  0  0  0  0  0  0  0  0  0  0
    9.7900   -6.1409  -12.0557 C   0  0  0  0  0  0  0  0  0  0  0  0
   11.0917   -6.7802  -12.3911 C   0  0  0  0  0  0  0  0  0  0  0  0
    7.6650   -5.4391  -11.4849 C   0  0  0  0  0  0  0  0  0  0  0  0
   11.2328   -8.2857  -12.2661 C   0  0  0  0  0  0  0  0  0  0  0  0
   12.6560   -8.8161  -12.4025 C   0  0  1  0  0  0  0  0  0  0  0  0
   13.6876   -7.7256  -12.3511 C   0  0  0  0  0  0  0  0  0  0  0  0
   12.9193   -9.8791  -11.3467 C   0  0  0  0  0  0  0  0  0  0  0  0
    8.0999   -7.9355  -11.4070 C   0  0  0  0  0  0  0  0  0  0  0  0
   13.6190  -11.8656  -12.4135 C   0  0  0  0  0  0  0  0  0  0  0  0
   11.8790  -11.9044  -10.7884 C   0  0  0  0  0  0  0  0  0  0  0  0
    7.1875   -8.5249  -12.4964 C   0  0  0  0  0  0  0  0  0  0  0  0
    6.3054   -9.6119  -11.8541 C   0  0  0  0  0  0  0  0  0  0  0  0
    7.5484  -10.8783  -10.2126 C   0  0  0  0  0  0  0  0  0  0  0  0
  1 23  1  0  0  0  0
  1 24  1  0  0  0  0
  1  2  1  0  0  0  0
  3  4  1  0  0  0  0
  3 17  1  0  0  0  0
  4  6  2  0  0  0  0
  4 13  1  0  0  0  0
  5 10  1  0  0  0  0
  5 14  2  0  0  0  0
  6  8  1  0  0  0  0
  7 12  1  0  0  0  0
  7 14  1  0  0  0  0
  7 19  1  0  0  0  0
  8 10  2  0  0  0  0
  9 14  1  0  0  0  0
 10 12  1  0  0  0  0
 11 18  1  0  0  0  0
 11 20  1  0  0  0  0
 11 21  1  0  0  0  0
 12 13  2  0  0  0  0
 13 15  1  0  0  0  0
 15 16  1  0  0  0  0
 16 17  1  0  0  0  0
 16 18  1  1  0  0  0
 19 22  1  0  0  0  0
 22 23  1  0  0  0  0
M  END
>  <CHROM.1>
-144.56236444,-104.13847186,98.47276792,86.36355078,-151.61947529,-74.87584549
10.00718119,-8.05882454,-11.93245848,2.42033573,0.13639928,-0.11268836

>  <Name>
ligand

>  <RI>
0

>  <Rbt.Current_Directory>
/home/itssahil/PROJECTS/Mol_Feturizer/New_Systems/rnas/3TZR

>  <Rbt.Executable>
rbdock ($Id: //depot/dev/client3/rdock/2013.1/src/exe/rbdock.cxx#4 $)

>  <Rbt.Library>
libRbt.so (2013.1, Build901 2013/11/27)

>  <Rbt.Parameter_File>
/export/apps/rDock/src/rDock_2013.1_src/data/scripts/dock_solv.prm

>  <Rbt.Receptor>
prm/blind_docking_80.prm

>  <SCORE>
-31.0223

>  <SCORE.INTER>
-22.5576

>  <SCORE.INTER.CONST>
1

>  <SCORE.INTER.POLAR>
0

>  <SCORE.INTER.ROT>
6

>  <SCORE.INTER.SOLV>
20.4296

>  <SCORE.INTER.VDW>
-29.4483

>  <SCORE.INTER.norm>
-0.939901

>  <SCORE.INTRA>
-8.46464

>  <SCORE.INTRA.DIHEDRAL>
4.82939

>  <SCORE.INTRA.DIHEDRAL.0>
4.94008

>  <SCORE.INTRA.POLAR>
0

>  <SCORE.INTRA.POLAR.0>
0

>  <SCORE.INTRA.REPUL>
0

>  <SCORE.INTRA.REPUL.0>
0

>  <SCORE.INTRA.SOLV>
0.85818

>  <SCORE.INTRA.SOLV.lig_0>
-31.4704

>  <SCORE.INTRA.VDW>
-11.3084

>  <SCORE.INTRA.VDW.0>
10.2807

>  <SCORE.INTRA.norm>
-0.352693

>  <SCORE.RESTR>
0

>  <SCORE.RESTR.CAVITY>
0

>  <SCORE.RESTR.norm>
0

>  <SCORE.SYSTEM>
0

>  <SCORE.SYSTEM.CONST>
0

>  <SCORE.SYSTEM.DIHEDRAL>
0

>  <SCORE.SYSTEM.SOLV>
0

>  <SCORE.SYSTEM.norm>
0

>  <SCORE.heavy>
24

>  <SCORE.norm>
-1.29259

>  <RMSD>
1.026

$$$$
ligand
 OpenBabel11021811493D
libRbt.so/2013.1/901 2013/11/27
 24 26  0  0  0  0  0  0  0  0999 V2000
    7.5421  -10.7594  -10.4900 N   0  0  0  0  0  0  0  0  0  0  0  0
    6.3989  -11.6016  -10.8034 C   0  0  0  0  0  0  0  0  0  0  0  0
   13.2250   -5.7889  -12.6622 O   0  0  0  0  0  0  0  0  0  0  0  0
   11.8850   -5.4503  -12.5304 C   0  0  0  0  0  0  0  0  0  0  0  0
    7.7144   -4.5853  -12.1884 N   0  0  0  0  0  0  0  0  0  0  0  0
   11.4463   -4.0136  -12.4293 C   0  0  0  0  0  0  0  0  0  0  0  0
    8.2775   -6.7560  -12.3167 N   0  0  0  0  0  0  0  0  0  0  0  0
   10.0685   -3.6367  -12.3209 C   0  0  0  0  0  0  0  0  0  0  0  0
    5.8380   -6.2243  -12.1101 N   0  0  0  0  0  0  0  0  0  0  0  0
    9.1067   -4.7081  -12.2969 C   0  0  0  0  0  0  0  0  0  0  0  0
   12.6542  -10.5311  -12.2888 N   0  0  0  0  0  0  0  0  0  0  0  0
    9.5133   -6.0855  -12.3773 C   0  0  0  0  0  0  0  0  0  0  0  0
   10.9560   -6.4305  -12.5007 C   0  0  0  0  0  0  0  0  0  0  0  0
    7.2212   -5.8575  -12.2093 C   0  0  0  0  0  0  0  0  0  0  0  0
   11.3647   -7.8888  -12.5939 C   0  0  0  0  0  0  0  0  0  0  0  0
   12.8629   -8.1497  -12.4805 C   0  0  1  0  0  0  0  0  0  0  0  0
   13.6268   -6.9438  -12.0134 C   0  0  0  0  0  0  0  0  0  0  0  0
   13.1161   -9.3497  -11.5805 C   0  0  0  0  0  0  0  0  0  0  0  0
    8.1175   -8.2176  -12.4410 C   0  0  0  0  0  0  0  0  0  0  0  0
   13.7651  -11.0697  -13.0619 C   0  0  0  0  0  0  0  0  0  0  0  0
   12.2330  -11.5019  -11.2910 C   0  0  0  0  0  0  0  0  0  0  0  0
    6.8213   -8.7933  -11.8451 C   0  0  0  0  0  0  0  0  0  0  0  0
    7.1368   -9.3474  -10.4430 C   0  0  0  0  0  0  0  0  0  0  0  0
    8.0889  -11.1959   -9.2103 C   0  0  0  0  0  0  0  0  0  0  0  0
  1 23  1  0  0  0  0
  1 24  1  0  0  0  0
  1  2  1  0  0  0  0
  3  4  1  0  0  0  0
  3 17  1  0  0  0  0
  4  6  2  0  0  0  0
  4 13  1  0  0  0  0
  5 10  1  0  0  0  0
  5 14  2  0  0  0  0
  6  8  1  0  0  0  0
  7 12  1  0  0  0  0
  7 14  1  0  0  0  0
  7 19  1  0  0  0  0
  8 10  2  0  0  0  0
  9 14  1  0  0  0  0
 10 12  1  0  0  0  0
 11 18  1  0  0  0  0
 11 20  1  0  0  0  0
 11 21  1  0  0  0  0
 12 13  2  0  0  0  0
 13 15  1  0  0  0  0
 15 16  1  0  0  0  0
 16 17  1  0  0  0  0
 16 18  1  1  0  0  0
 19 22  1  0  0  0  0
 22 23  1  0  0  0  0
M  END
>  <CHROM.1>
-71.37093931,158.23278783,90.60210055,69.60797230,-98.20309289,-89.83081877
9.96770001,-7.84472995,-11.91005857,-2.80374423,0.16033008,-0.21395141

>  <Name>
ligand

>  <RI>
0

>  <Rbt.Current_Directory>
/home/itssahil/PROJECTS/Mol_Feturizer/New_Systems/rnas/3TZR

>  <Rbt.Executable>
rbdock ($Id: //depot/dev/client3/rdock/2013.1/src/exe/rbdock.cxx#4 $)

>  <Rbt.Library>
libRbt.so (2013.1, Build901 2013/11/27)

>  <Rbt.Parameter_File>
/export/apps/rDock/src/rDock_2013.1_src/data/scripts/dock_solv.prm

>  <Rbt.Receptor>
prm/blind_docking_40.prm

>  <SCORE>
-29.7749

>  <SCORE.INTER>
-23.8418

>  <SCORE.INTER.CONST>
1

>  <SCORE.INTER.POLAR>
0

>  <SCORE.INTER.ROT>
6

>  <SCORE.INTER.SOLV>
20.3874

>  <SCORE.INTER.VDW>
-30.2903

>  <SCORE.INTER.norm>
-0.993408

>  <SCORE.INTRA>
-5.93456

>  <SCORE.INTRA.DIHEDRAL>
4.55814

>  <SCORE.INTRA.DIHEDRAL.0>
4.94008

>  <SCORE.INTRA.POLAR>
0

>  <SCORE.INTRA.POLAR.0>
0

>  <SCORE.INTRA.REPUL>
0

>  <SCORE.INTRA.REPUL.0>
0

>  <SCORE.INTRA.SOLV>
2.06884

>  <SCORE.INTRA.SOLV.lig_0>
-31.4704

>  <SCORE.INTRA.VDW>
-9.24805

>  <SCORE.INTRA.VDW.0>
10.2807

>  <SCORE.INTRA.norm>
-0.247273

>  <SCORE.RESTR>
0.00141249

>  <SCORE.RESTR.CAVITY>
0.00141249

>  <SCORE.RESTR.norm>
5.88537e-05

>  <SCORE.SYSTEM>
0

>  <SCORE.SYSTEM.CONST>
0

>  <SCORE.SYSTEM.DIHEDRAL>
0

>  <SCORE.SYSTEM.SOLV>
0

>  <SCORE.SYSTEM.norm>
0

>  <SCORE.heavy>
24

>  <SCORE.norm>
-1.24062

>  <RMSD>
1.027

$$$$
ligand
 OpenBabel11021811493D
libRbt.so/2013.1/901 2013/11/27
 24 26  0  0  0  0  0  0  0  0999 V2000
    8.6518  -11.1160   -9.5556 N   0  0  0  0  0  0  0  0  0  0  0  0
    8.5174  -12.5167   -9.9218 C   0  0  0  0  0  0  0  0  0  0  0  0
   13.3015   -6.3234  -12.9127 O   0  0  0  0  0  0  0  0  0  0  0  0
   12.0192   -5.8327  -12.7063 C   0  0  0  0  0  0  0  0  0  0  0  0
    8.0041   -4.5005  -12.1039 N   0  0  0  0  0  0  0  0  0  0  0  0
   11.7252   -4.3575  -12.7706 C   0  0  0  0  0  0  0  0  0  0  0  0
    8.3521   -6.7158  -11.9734 N   0  0  0  0  0  0  0  0  0  0  0  0
   10.4065   -3.8282  -12.5891 C   0  0  0  0  0  0  0  0  0  0  0  0
    6.0066   -5.9103  -11.6183 N   0  0  0  0  0  0  0  0  0  0  0  0
    9.3600   -4.7809  -12.3231 C   0  0  0  0  0  0  0  0  0  0  0  0
   12.4502  -10.9158  -11.8677 N   0  0  0  0  0  0  0  0  0  0  0  0
    9.6299   -6.1916  -12.2438 C   0  0  0  0  0  0  0  0  0  0  0  0
   11.0141   -6.6982  -12.4507 C   0  0  0  0  0  0  0  0  0  0  0  0
    7.3988   -5.7060  -11.8972 C   0  0  0  0  0  0  0  0  0  0  0  0
   11.2773   -8.1905  -12.3728 C   0  0  0  0  0  0  0  0  0  0  0  0
   12.7494   -8.5885  -12.3634 C   0  0  1  0  0  0  0  0  0  0  0  0
   13.6644   -7.4174  -12.1463 C   0  0  0  0  0  0  0  0  0  0  0  0
   12.9879   -9.6782  -11.3291 C   0  0  0  0  0  0  0  0  0  0  0  0
    8.0487   -8.1563  -11.8727 C   0  0  0  0  0  0  0  0  0  0  0  0
   13.4596  -11.5236  -12.7241 C   0  0  0  0  0  0  0  0  0  0  0  0
   12.1652  -11.7939  -10.7438 C   0  0  0  0  0  0  0  0  0  0  0  0
    8.5946   -8.8602  -10.6184 C   0  0  0  0  0  0  0  0  0  0  0  0
    7.9671  -10.2646  -10.5388 C   0  0  0  0  0  0  0  0  0  0  0  0
    8.0895  -10.9407   -8.2212 C   0  0  0  0  0  0  0  0  0  0  0  0
  1 23  1  0  0  0  0
  1 24  1  0  0  0  0
  1  2  1  0  0  0  0
  3  4  1  0  0  0  0
  3 17  1  0  0  0  0
  4  6  2  0  0  0  0
  4 13  1  0  0  0  0
  5 10  1  0  0  0  0
  5 14  2  0  0  0  0
  6  8  1  0  0  0  0
  7 12  1  0  0  0  0
  7 14  1  0  0  0  0
  7 19  1  0  0  0  0
  8 10  2  0  0  0  0
  9 14  1  0  0  0  0
 10 12  1  0  0  0  0
 11 18  1  0  0  0  0
 11 20  1  0  0  0  0
 11 21  1  0  0  0  0
 12 13  2  0  0  0  0
 13 15  1  0  0  0  0
 15 16  1  0  0  0  0
 16 17  1  0  0  0  0
 16 18  1  1  0  0  0
 19 22  1  0  0  0  0
 22 23  1  0  0  0  0
M  END
>  <CHROM.1>
-152.75228686,71.47518547,84.46282465,74.46907728,169.29004693,167.06312120
10.25935213,-8.09708856,-11.61802616,1.42303088,-0.28396331,2.81357387

>  <Name>
ligand

>  <RI>
144

>  <Rbt.Current_Directory>
/home/itssahil/PROJECTS/Mol_Feturizer/New_Systems/rnas/3TZR

>  <Rbt.Executable>
rbdock ($Id: //depot/dev/client3/rdock/2013.1/src/exe/rbdock.cxx#4 $)

>  <Rbt.Library>
libRbt.so (2013.1, Build901 2013/11/27)

>  <Rbt.Parameter_File>
/export/apps/rDock/src/rDock_2013.1_src/data/scripts/dock_solv.prm

>  <Rbt.Receptor>
prm/blind_docking_60.prm

>  <SCORE>
-38.005

>  <SCORE.INTER>
-26.4419

>  <SCORE.INTER.CONST>
1

>  <SCORE.INTER.POLAR>
-0.72111

>  <SCORE.INTER.ROT>
6

>  <SCORE.INTER.SOLV>
20.0207

>  <SCORE.INTER.VDW>
-29.4978

>  <SCORE.INTER.norm>
-1.10175

>  <SCORE.INTRA>
-11.563

>  <SCORE.INTRA.DIHEDRAL>
-0.0444746

>  <SCORE.INTRA.DIHEDRAL.0>
4.94008

>  <SCORE.INTRA.POLAR>
0

>  <SCORE.INTRA.POLAR.0>
0

>  <SCORE.INTRA.REPUL>
0

>  <SCORE.INTRA.REPUL.0>
0

>  <SCORE.INTRA.SOLV>
-0.23519

>  <SCORE.INTRA.SOLV.lig_0>
-31.4704

>  <SCORE.INTRA.VDW>
-11.4232

>  <SCORE.INTRA.VDW.0>
10.2807

>  <SCORE.INTRA.norm>
-0.481793

>  <SCORE.RESTR>
0

>  <SCORE.RESTR.CAVITY>
0

>  <SCORE.RESTR.norm>
0

>  <SCORE.SYSTEM>
0

>  <SCORE.SYSTEM.CONST>
0

>  <SCORE.SYSTEM.DIHEDRAL>
0

>  <SCORE.SYSTEM.SOLV>
0

>  <SCORE.SYSTEM.norm>
0

>  <SCORE.heavy>
24

>  <SCORE.norm>
-1.58354

>  <RMSD>
1.027

$$$$
ligand
 OpenBabel11021811493D
libRbt.so/2013.1/901 2013/11/27
 24 26  0  0  0  0  0  0  0  0999 V2000
    8.5437  -11.0786   -9.1908 N   0  0  0  0  0  0  0  0  0  0  0  0
    9.2902  -12.1741   -9.7882 C   0  0  0  0  0  0  0  0  0  0  0  0
   13.2570   -6.3238  -13.1409 O   0  0  0  0  0  0  0  0  0  0  0  0
   12.0122   -5.8425  -12.7582 C   0  0  0  0  0  0  0  0  0  0  0  0
    8.1080   -4.5377  -11.6120 N   0  0  0  0  0  0  0  0  0  0  0  0
   11.7197   -4.3660  -12.7247 C   0  0  0  0  0  0  0  0  0  0  0  0
    8.4587   -6.7564  -11.6173 N   0  0  0  0  0  0  0  0  0  0  0  0
   10.4358   -3.8451  -12.3606 C   0  0  0  0  0  0  0  0  0  0  0  0
    6.1785   -5.9671  -10.9433 N   0  0  0  0  0  0  0  0  0  0  0  0
    9.4254   -4.8084  -12.0077 C   0  0  0  0  0  0  0  0  0  0  0  0
   12.8628  -10.9922  -12.3634 N   0  0  0  0  0  0  0  0  0  0  0  0
    9.6960   -6.2211  -12.0207 C   0  0  0  0  0  0  0  0  0  0  0  0
   11.0419   -6.7182  -12.4171 C   0  0  0  0  0  0  0  0  0  0  0  0
    7.5268   -5.7509  -11.3825 C   0  0  0  0  0  0  0  0  0  0  0  0
   11.3054   -8.2124  -12.4341 C   0  0  0  0  0  0  0  0  0  0  0  0
   12.7655   -8.6101  -12.6223 C   0  0  1  0  0  0  0  0  0  0  0  0
   13.7060   -7.4488  -12.4709 C   0  0  0  0  0  0  0  0  0  0  0  0
   13.1240   -9.7419  -11.6712 C   0  0  0  0  0  0  0  0  0  0  0  0
    8.1629   -8.2000  -11.5398 C   0  0  0  0  0  0  0  0  0  0  0  0
   14.1292  -11.5253  -12.8472 C   0  0  0  0  0  0  0  0  0  0  0  0
   12.2784  -11.9115  -11.3996 C   0  0  0  0  0  0  0  0  0  0  0  0
    8.1556   -8.7976  -10.1221 C   0  0  0  0  0  0  0  0  0  0  0  0
    7.8546  -10.3040  -10.2327 C   0  0  0  0  0  0  0  0  0  0  0  0
    7.5955  -11.6436   -8.2373 C   0  0  0  0  0  0  0  0  0  0  0  0
  1 23  1  0  0  0  0
  1 24  1  0  0  0  0
  1  2  1  0  0  0  0
  3  4  1  0  0  0  0
  3 17  1  0  0  0  0
  4  6  2  0  0  0  0
  4 13  1  0  0  0  0
  5 10  1  0  0  0  0
  5 14  2  0  0  0  0
  6  8  1  0  0  0  0
  7 12  1  0  0  0  0
  7 14  1  0  0  0  0
  7 19  1  0  0  0  0
  8 10  2  0  0  0  0
  9 14  1  0  0  0  0
 10 12  1  0  0  0  0
 11 18  1  0  0  0  0
 11 20  1  0  0  0  0
 11 21  1  0  0  0  0
 12 13  2  0  0  0  0
 13 15  1  0  0  0  0
 15 16  1  0  0  0  0
 16 17  1  0  0  0  0
 16 18  1  1  0  0  0
 19 22  1  0  0  0  0
 22 23  1  0  0  0  0
M  END
>  <CHROM.1>
-128.07681380,103.49932268,101.11288987,90.53543947,-179.09991594,146.96259299
10.33718980,-8.13906982,-11.54482250,1.35691799,-0.39220767,2.84610638

>  <Name>
ligand

>  <RI>
0

>  <Rbt.Current_Directory>
/home/itssahil/PROJECTS/Mol_Feturizer/New_Systems/rnas/3TZR

>  <Rbt.Executable>
rbdock ($Id: //depot/dev/client3/rdock/2013.1/src/exe/rbdock.cxx#4 $)

>  <Rbt.Library>
libRbt.so (2013.1, Build901 2013/11/27)

>  <Rbt.Parameter_File>
/export/apps/rDock/src/rDock_2013.1_src/data/scripts/dock_solv.prm

>  <Rbt.Receptor>
prm/pocket_docking_7.prm

>  <SCORE>
-36.4382

>  <SCORE.INTER>
-27.7334

>  <SCORE.INTER.CONST>
1

>  <SCORE.INTER.POLAR>
-0.72111

>  <SCORE.INTER.ROT>
6

>  <SCORE.INTER.SOLV>
19.7446

>  <SCORE.INTER.VDW>
-30.2668

>  <SCORE.INTER.norm>
-1.15556

>  <SCORE.INTRA>
-8.70482

>  <SCORE.INTRA.DIHEDRAL>
6.36421

>  <SCORE.INTRA.DIHEDRAL.0>
4.94008

>  <SCORE.INTRA.POLAR>
0

>  <SCORE.INTRA.POLAR.0>
0

>  <SCORE.INTRA.REPUL>
0

>  <SCORE.INTRA.REPUL.0>
0

>  <SCORE.INTRA.SOLV>
0.203434

>  <SCORE.INTRA.SOLV.lig_0>
-31.4704

>  <SCORE.INTRA.VDW>
-11.9886

>  <SCORE.INTRA.VDW.0>
10.2807

>  <SCORE.INTRA.norm>
-0.362701

>  <SCORE.RESTR>
0

>  <SCORE.RESTR.CAVITY>
0

>  <SCORE.RESTR.norm>
0

>  <SCORE.SYSTEM>
0

>  <SCORE.SYSTEM.CONST>
0

>  <SCORE.SYSTEM.DIHEDRAL>
0

>  <SCORE.SYSTEM.SOLV>
0

>  <SCORE.SYSTEM.norm>
0

>  <SCORE.heavy>
24

>  <SCORE.norm>
-1.51826

>  <RMSD>
1.027

$$$$
ligand
 OpenBabel11021811493D
libRbt.so/2013.1/901 2013/11/27
 24 26  0  0  0  0  0  0  0  0999 V2000
    8.6664  -11.2057   -9.4018 N   0  0  0  0  0  0  0  0  0  0  0  0
    8.8487  -12.5409   -9.9480 C   0  0  0  0  0  0  0  0  0  0  0  0
   13.1666   -6.5828  -13.1638 O   0  0  0  0  0  0  0  0  0  0  0  0
   11.9680   -6.0147  -12.7534 C   0  0  0  0  0  0  0  0  0  0  0  0
    8.1927   -4.4365  -11.5225 N   0  0  0  0  0  0  0  0  0  0  0  0
   11.7878   -4.5210  -12.6973 C   0  0  0  0  0  0  0  0  0  0  0  0
    8.3758   -6.6750  -11.5601 N   0  0  0  0  0  0  0  0  0  0  0  0
   10.5530   -3.9103  -12.3043 C   0  0  0  0  0  0  0  0  0  0  0  0
    6.1729   -5.7261  -10.8364 N   0  0  0  0  0  0  0  0  0  0  0  0
    9.4792   -4.7998  -11.9448 C   0  0  0  0  0  0  0  0  0  0  0  0
   13.0219  -11.1739  -12.5598 N   0  0  0  0  0  0  0  0  0  0  0  0
    9.6428   -6.2285  -11.9792 C   0  0  0  0  0  0  0  0  0  0  0  0
   10.9407   -6.8198  -12.4053 C   0  0  0  0  0  0  0  0  0  0  0  0
    7.5261   -5.6057  -11.2970 C   0  0  0  0  0  0  0  0  0  0  0  0
   11.0911   -8.3291  -12.4445 C   0  0  0  0  0  0  0  0  0  0  0  0
   12.5138   -8.8324  -12.6633 C   0  0  1  0  0  0  0  0  0  0  0  0
   13.5412   -7.7468  -12.5152 C   0  0  0  0  0  0  0  0  0  0  0  0
   12.8023  -10.0002  -11.7322 C   0  0  0  0  0  0  0  0  0  0  0  0
    7.9738   -8.0932  -11.4942 C   0  0  0  0  0  0  0  0  0  0  0  0
   14.4573  -11.3674  -12.7149 C   0  0  0  0  0  0  0  0  0  0  0  0
   12.4444  -12.3132  -11.8643 C   0  0  0  0  0  0  0  0  0  0  0  0
    8.5213   -8.8797  -10.2907 C   0  0  0  0  0  0  0  0  0  0  0  0
    8.0222  -10.3332  -10.3940 C   0  0  0  0  0  0  0  0  0  0  0  0
    7.8592  -11.3175   -8.1922 C   0  0  0  0  0  0  0  0  0  0  0  0
  1 23  1  0  0  0  0
  1 24  1  0  0  0  0
  1  2  1  0  0  0  0
  3  4  1  0  0  0  0
  3 17  1  0  0  0  0
  4  6  2  0  0  0  0
  4 13  1  0  0  0  0
  5 10  1  0  0  0  0
  5 14  2  0  0  0  0
  6  8  1  0  0  0  0
  7 12  1  0  0  0  0
  7 14  1  0  0  0  0
  7 19  1  0  0  0  0
  8 10  2  0  0  0  0
  9 14  1  0  0  0  0
 10 12  1  0  0  0  0
 11 18  1  0  0  0  0
 11 20  1  0  0  0  0
 11 21  1  0  0  0  0
 12 13  2  0  0  0  0
 13 15  1  0  0  0  0
 15 16  1  0  0  0  0
 16 17  1  0  0  0  0
 16 18  1  1  0  0  0
 19 22  1  0  0  0  0
 22 23  1  0  0  0  0
M  END
>  <CHROM.1>
-146.03632128,77.05931508,98.17137986,115.55834492,-179.18938180,171.09031725
10.33537483,-8.21049318,-11.58115050,1.12997396,-0.41348365,2.87400241

>  <Name>
ligand

>  <RI>
0

>  <Rbt.Current_Directory>
/home/itssahil/PROJECTS/Mol_Feturizer/New_Systems/rnas/3TZR

>  <Rbt.Executable>
rbdock ($Id: //depot/dev/client3/rdock/2013.1/src/exe/rbdock.cxx#4 $)

>  <Rbt.Library>
libRbt.so (2013.1, Build901 2013/11/27)

>  <Rbt.Parameter_File>
/export/apps/rDock/src/rDock_2013.1_src/data/scripts/dock_solv.prm

>  <Rbt.Receptor>
prm/pocket_docking_6.prm

>  <SCORE>
-35.6056

>  <SCORE.INTER>
-25.8526

>  <SCORE.INTER.CONST>
1

>  <SCORE.INTER.POLAR>
-0.720351

>  <SCORE.INTER.ROT>
6

>  <SCORE.INTER.SOLV>
20.7241

>  <SCORE.INTER.VDW>
-29.3419

>  <SCORE.INTER.norm>
-1.07719

>  <SCORE.INTRA>
-9.75305

>  <SCORE.INTRA.DIHEDRAL>
4.88172

>  <SCORE.INTRA.DIHEDRAL.0>
4.94008

>  <SCORE.INTRA.POLAR>
0

>  <SCORE.INTRA.POLAR.0>
0

>  <SCORE.INTRA.REPUL>
0

>  <SCORE.INTRA.REPUL.0>
0

>  <SCORE.INTRA.SOLV>
-0.365369

>  <SCORE.INTRA.SOLV.lig_0>
-31.4704

>  <SCORE.INTRA.VDW>
-12.0112

>  <SCORE.INTRA.VDW.0>
10.2807

>  <SCORE.INTRA.norm>
-0.406377

>  <SCORE.RESTR>
0

>  <SCORE.RESTR.CAVITY>
0

>  <SCORE.RESTR.norm>
0

>  <SCORE.SYSTEM>
0

>  <SCORE.SYSTEM.CONST>
0

>  <SCORE.SYSTEM.DIHEDRAL>
0

>  <SCORE.SYSTEM.SOLV>
0

>  <SCORE.SYSTEM.norm>
0

>  <SCORE.heavy>
24

>  <SCORE.norm>
-1.48357

>  <RMSD>
1.028

$$$$
ligand
 OpenBabel11021811493D
libRbt.so/2013.1/901 2013/11/27
 24 26  0  0  0  0  0  0  0  0999 V2000
    7.0888  -10.9319  -11.3199 N   0  0  0  0  0  0  0  0  0  0  0  0
    6.2577  -12.1230  -11.3896 C   0  0  0  0  0  0  0  0  0  0  0  0
   13.1573   -6.2527  -13.2402 O   0  0  0  0  0  0  0  0  0  0  0  0
   11.9182   -5.7591  -12.8543 C   0  0  0  0  0  0  0  0  0  0  0  0
    8.0330   -4.4189  -11.6848 N   0  0  0  0  0  0  0  0  0  0  0  0
   11.6103   -4.2863  -12.9085 C   0  0  0  0  0  0  0  0  0  0  0  0
    8.4082   -6.6299  -11.5559 N   0  0  0  0  0  0  0  0  0  0  0  0
   10.3313   -3.7549  -12.5426 C   0  0  0  0  0  0  0  0  0  0  0  0
    6.1389   -5.8196  -10.8701 N   0  0  0  0  0  0  0  0  0  0  0  0
    9.3419   -4.7025  -12.0994 C   0  0  0  0  0  0  0  0  0  0  0  0
   12.4589  -10.8092  -11.9442 N   0  0  0  0  0  0  0  0  0  0  0  0
    9.6278   -6.1104  -12.0283 C   0  0  0  0  0  0  0  0  0  0  0  0
   10.9677   -6.6198  -12.4296 C   0  0  0  0  0  0  0  0  0  0  0  0
    7.4720   -5.6200  -11.3606 C   0  0  0  0  0  0  0  0  0  0  0  0
   11.2473   -8.1093  -12.3570 C   0  0  0  0  0  0  0  0  0  0  0  0
   12.7060   -8.5047  -12.5604 C   0  0  1  0  0  0  0  0  0  0  0  0
   13.6372   -7.3273  -12.5116 C   0  0  0  0  0  0  0  0  0  0  0  0
   13.1033   -9.5687  -11.5484 C   0  0  0  0  0  0  0  0  0  0  0  0
    8.1308   -8.0680  -11.3764 C   0  0  0  0  0  0  0  0  0  0  0  0
   13.3443  -11.5184  -12.8580 C   0  0  0  0  0  0  0  0  0  0  0  0
   12.2581  -11.6007  -10.7405 C   0  0  0  0  0  0  0  0  0  0  0  0
    7.1801   -8.6917  -12.4127 C   0  0  0  0  0  0  0  0  0  0  0  0
    6.3104   -9.7447  -11.7006 C   0  0  0  0  0  0  0  0  0  0  0  0
    7.6001  -10.8154   -9.9589 C   0  0  0  0  0  0  0  0  0  0  0  0
  1 23  1  0  0  0  0
  1 24  1  0  0  0  0
  1  2  1  0  0  0  0
  3  4  1  0  0  0  0
  3 17  1  0  0  0  0
  4  6  2  0  0  0  0
  4 13  1  0  0  0  0
  5 10  1  0  0  0  0
  5 14  2  0  0  0  0
  6  8  1  0  0  0  0
  7 12  1  0  0  0  0
  7 14  1  0  0  0  0
  7 19  1  0  0  0  0
  8 10  2  0  0  0  0
  9 14  1  0  0  0  0
 10 12  1  0  0  0  0
 11 18  1  0  0  0  0
 11 20  1  0  0  0  0
 11 21  1  0  0  0  0
 12 13  2  0  0  0  0
 13 15  1  0  0  0  0
 15 16  1  0  0  0  0
 16 17  1  0  0  0  0
 16 18  1  1  0  0  0
 19 22  1  0  0  0  0
 22 23  1  0  0  0  0
M  END
>  <CHROM.1>
-147.17628367,-106.92159799,89.16615080,72.51229215,-144.00596223,-70.66090484
9.93014457,-7.96869122,-11.90796547,-2.66992937,0.18255310,-0.12406572

>  <Name>
ligand

>  <RI>
0

>  <Rbt.Current_Directory>
/home/itssahil/PROJECTS/Mol_Feturizer/New_Systems/rnas/3TZR

>  <Rbt.Executable>
rbdock ($Id: //depot/dev/client3/rdock/2013.1/src/exe/rbdock.cxx#4 $)

>  <Rbt.Library>
libRbt.so (2013.1, Build901 2013/11/27)

>  <Rbt.Parameter_File>
/export/apps/rDock/src/rDock_2013.1_src/data/scripts/dock_solv.prm

>  <Rbt.Receptor>
prm/pocket_docking_2.prm

>  <SCORE>
-31.8631

>  <SCORE.INTER>
-23.5524

>  <SCORE.INTER.CONST>
1

>  <SCORE.INTER.POLAR>
0

>  <SCORE.INTER.ROT>
6

>  <SCORE.INTER.SOLV>
19.7363

>  <SCORE.INTER.VDW>
-29.8804

>  <SCORE.INTER.norm>
-0.981351

>  <SCORE.INTRA>
-8.35811

>  <SCORE.INTRA.DIHEDRAL>
3.29

>  <SCORE.INTRA.DIHEDRAL.0>
4.94008

>  <SCORE.INTRA.POLAR>
0

>  <SCORE.INTRA.POLAR.0>
0

>  <SCORE.INTRA.REPUL>
0

>  <SCORE.INTRA.REPUL.0>
0

>  <SCORE.INTRA.SOLV>
1.11851

>  <SCORE.INTRA.SOLV.lig_0>
-31.4704

>  <SCORE.INTRA.VDW>
-10.5624

>  <SCORE.INTRA.VDW.0>
10.2807

>  <SCORE.INTRA.norm>
-0.348254

>  <SCORE.RESTR>
0.0473894

>  <SCORE.RESTR.CAVITY>
0.0473894

>  <SCORE.RESTR.norm>
0.00197456

>  <SCORE.SYSTEM>
0

>  <SCORE.SYSTEM.CONST>
0

>  <SCORE.SYSTEM.DIHEDRAL>
0

>  <SCORE.SYSTEM.SOLV>
0

>  <SCORE.SYSTEM.norm>
0

>  <SCORE.heavy>
24

>  <SCORE.norm>
-1.32763

>  <RMSD>
1.029

$$$$
ligand
 OpenBabel11021811493D
libRbt.so/2013.1/901 2013/11/27
 24 26  0  0  0  0  0  0  0  0999 V2000
    7.5132  -10.7646  -10.6611 N   0  0  0  0  0  0  0  0  0  0  0  0
    6.4299  -11.6952  -10.9344 C   0  0  0  0  0  0  0  0  0  0  0  0
   13.2153   -5.8002  -12.6282 O   0  0  0  0  0  0  0  0  0  0  0  0
   11.8764   -5.4537  -12.5053 C   0  0  0  0  0  0  0  0  0  0  0  0
    7.7089   -4.5639  -12.1909 N   0  0  0  0  0  0  0  0  0  0  0  0
   11.4456   -4.0144  -12.4061 C   0  0  0  0  0  0  0  0  0  0  0  0
    8.2598   -6.7379  -12.3170 N   0  0  0  0  0  0  0  0  0  0  0  0
   10.0694   -3.6294  -12.3067 C   0  0  0  0  0  0  0  0  0  0  0  0
    5.8222   -6.1918  -12.1265 N   0  0  0  0  0  0  0  0  0  0  0  0
    9.1011   -4.6950  -12.2901 C   0  0  0  0  0  0  0  0  0  0  0  0
   12.6860  -10.5469  -12.2920 N   0  0  0  0  0  0  0  0  0  0  0  0
    9.5000   -6.0748  -12.3687 C   0  0  0  0  0  0  0  0  0  0  0  0
   10.9415   -6.4283  -12.4826 C   0  0  0  0  0  0  0  0  0  0  0  0
    7.2083   -5.8332  -12.2160 C   0  0  0  0  0  0  0  0  0  0  0  0
   11.3421   -7.8889  -12.5741 C   0  0  0  0  0  0  0  0  0  0  0  0
   12.8378   -8.1588  -12.4507 C   0  0  1  0  0  0  0  0  0  0  0  0
   13.6058   -6.9579  -11.9776 C   0  0  0  0  0  0  0  0  0  0  0  0
   13.0777   -9.3610  -11.5499 C   0  0  0  0  0  0  0  0  0  0  0  0
    8.0920   -8.1984  -12.4435 C   0  0  0  0  0  0  0  0  0  0  0  0
   13.8403  -11.0252  -13.0409 C   0  0  0  0  0  0  0  0  0  0  0  0
   12.2766  -11.5525  -11.3241 C   0  0  0  0  0  0  0  0  0  0  0  0
    6.7533   -8.7564  -11.9303 C   0  0  0  0  0  0  0  0  0  0  0  0
    6.9918   -9.3949  -10.5491 C   0  0  0  0  0  0  0  0  0  0  0  0
    8.1697  -11.1833   -9.4278 C   0  0  0  0  0  0  0  0  0  0  0  0
  1 23  1  0  0  0  0
  1 24  1  0  0  0  0
  1  2  1  0  0  0  0
  3  4  1  0  0  0  0
  3 17  1  0  0  0  0
  4  6  2  0  0  0  0
  4 13  1  0  0  0  0
  5 10  1  0  0  0  0
  5 14  2  0  0  0  0
  6  8  1  0  0  0  0
  7 12  1  0  0  0  0
  7 14  1  0  0  0  0
  7 19  1  0  0  0  0
  8 10  2  0  0  0  0
  9 14  1  0  0  0  0
 10 12  1  0  0  0  0
 11 18  1  0  0  0  0
 11 20  1  0  0  0  0
 11 21  1  0  0  0  0
 12 13  2  0  0  0  0
 13 15  1  0  0  0  0
 15 16  1  0  0  0  0
 16 17  1  0  0  0  0
 16 18  1  1  0  0  0
 19 22  1  0  0  0  0
 22 23  1  0  0  0  0
M  END
>  <CHROM.1>
-80.21969559,161.62171835,89.04291559,72.86119133,-102.16960662,-82.59809058
9.95954415,-7.84622534,-11.93337506,-2.92529820,0.14298637,-0.19654660

>  <Name>
ligand

>  <RI>
0

>  <Rbt.Current_Directory>
/home/itssahil/PROJECTS/Mol_Feturizer/New_Systems/rnas/3TZR

>  <Rbt.Executable>
rbdock ($Id: //depot/dev/client3/rdock/2013.1/src/exe/rbdock.cxx#4 $)

>  <Rbt.Library>
libRbt.so (2013.1, Build901 2013/11/27)

>  <Rbt.Parameter_File>
/export/apps/rDock/src/rDock_2013.1_src/data/scripts/dock_solv.prm

>  <Rbt.Receptor>
prm/pocket_docking_4.prm

>  <SCORE>
-29.6377

>  <SCORE.INTER>
-23.3688

>  <SCORE.INTER.CONST>
1

>  <SCORE.INTER.POLAR>
0

>  <SCORE.INTER.ROT>
6

>  <SCORE.INTER.SOLV>
20.4136

>  <SCORE.INTER.VDW>
-29.9837

>  <SCORE.INTER.norm>
-0.973701

>  <SCORE.INTRA>
-6.27459

>  <SCORE.INTRA.DIHEDRAL>
4.58545

>  <SCORE.INTRA.DIHEDRAL.0>
4.94008

>  <SCORE.INTRA.POLAR>
0

>  <SCORE.INTRA.POLAR.0>
0

>  <SCORE.INTRA.REPUL>
0

>  <SCORE.INTRA.REPUL.0>
0

>  <SCORE.INTRA.SOLV>
2.12596

>  <SCORE.INTRA.SOLV.lig_0>
-31.4704

>  <SCORE.INTRA.VDW>
-9.6303

>  <SCORE.INTRA.VDW.0>
10.2807

>  <SCORE.INTRA.norm>
-0.261441

>  <SCORE.RESTR>
0.00576654

>  <SCORE.RESTR.CAVITY>
0.00576654

>  <SCORE.RESTR.norm>
0.000240272

>  <SCORE.SYSTEM>
0

>  <SCORE.SYSTEM.CONST>
0

>  <SCORE.SYSTEM.DIHEDRAL>
0

>  <SCORE.SYSTEM.SOLV>
0

>  <SCORE.SYSTEM.norm>
0

>  <SCORE.heavy>
24

>  <SCORE.norm>
-1.2349

>  <RMSD>
1.029

$$$$
ligand
 OpenBabel11021811493D
libRbt.so/2013.1/901 2013/11/27
 24 26  0  0  0  0  0  0  0  0999 V2000
    8.6630  -11.1817   -9.4643 N   0  0  0  0  0  0  0  0  0  0  0  0
    8.5822  -12.5795   -9.8568 C   0  0  0  0  0  0  0  0  0  0  0  0
   13.2791   -6.4238  -13.0458 O   0  0  0  0  0  0  0  0  0  0  0  0
   12.0457   -5.8964  -12.6873 C   0  0  0  0  0  0  0  0  0  0  0  0
    8.1702   -4.4460  -11.6216 N   0  0  0  0  0  0  0  0  0  0  0  0
   11.8161   -4.4095  -12.6303 C   0  0  0  0  0  0  0  0  0  0  0  0
    8.4251   -6.6773  -11.6645 N   0  0  0  0  0  0  0  0  0  0  0  0
   10.5461   -3.8406  -12.2907 C   0  0  0  0  0  0  0  0  0  0  0  0
    6.1627   -5.8030  -11.0370 N   0  0  0  0  0  0  0  0  0  0  0  0
    9.4855   -4.7658  -11.9865 C   0  0  0  0  0  0  0  0  0  0  0  0
   12.2348  -11.0147  -12.1627 N   0  0  0  0  0  0  0  0  0  0  0  0
    9.6953   -6.1884  -12.0222 C   0  0  0  0  0  0  0  0  0  0  0  0
   11.0293   -6.7357  -12.3919 C   0  0  0  0  0  0  0  0  0  0  0  0
    7.5311   -5.6370  -11.4342 C   0  0  0  0  0  0  0  0  0  0  0  0
   11.2287   -8.2392  -12.4335 C   0  0  0  0  0  0  0  0  0  0  0  0
   12.6751   -8.6963  -12.5899 C   0  0  1  0  0  0  0  0  0  0  0  0
   13.6600   -7.5805  -12.3879 C   0  0  0  0  0  0  0  0  0  0  0  0
   12.9573   -9.8617  -11.6537 C   0  0  0  0  0  0  0  0  0  0  0  0
    8.0654   -8.1078  -11.6261 C   0  0  0  0  0  0  0  0  0  0  0  0
   13.0544  -11.6618  -13.1782 C   0  0  0  0  0  0  0  0  0  0  0  0
   12.0234  -11.9249  -11.0480 C   0  0  0  0  0  0  0  0  0  0  0  0
    8.4670   -8.8556  -10.3430 C   0  0  0  0  0  0  0  0  0  0  0  0
    8.0411  -10.3288  -10.4871 C   0  0  0  0  0  0  0  0  0  0  0  0
    7.9966  -11.0339   -8.1754 C   0  0  0  0  0  0  0  0  0  0  0  0
  1 23  1  0  0  0  0
  1 24  1  0  0  0  0
  1  2  1  0  0  0  0
  3  4  1  0  0  0  0
  3 17  1  0  0  0  0
  4  6  2  0  0  0  0
  4 13  1  0  0  0  0
  5 10  1  0  0  0  0
  5 14  2  0  0  0  0
  6  8  1  0  0  0  0
  7 12  1  0  0  0  0
  7 14  1  0  0  0  0
  7 19  1  0  0  0  0
  8 10  2  0  0  0  0
  9 14  1  0  0  0  0
 10 12  1  0  0  0  0
 11 18  1  0  0  0  0
 11 20  1  0  0  0  0
 11 21  1  0  0  0  0
 12 13  2  0  0  0  0
 13 15  1  0  0  0  0
 15 16  1  0  0  0  0
 16 17  1  0  0  0  0
 16 18  1  1  0  0  0
 19 22  1  0  0  0  0
 22 23  1  0  0  0  0
M  END
>  <CHROM.1>
-162.65673291,82.55328779,84.95867246,70.39804938,-178.95450210,166.25954982
10.25375022,-8.14455810,-11.55913956,1.48792818,-0.39185195,2.87999677

>  <Name>
ligand

>  <RI>
0

>  <Rbt.Current_Directory>
/home/itssahil/PROJECTS/Mol_Feturizer/New_Systems/rnas/3TZR

>  <Rbt.Executable>
rbdock ($Id: //depot/dev/client3/rdock/2013.1/src/exe/rbdock.cxx#4 $)

>  <Rbt.Library>
libRbt.so (2013.1, Build901 2013/11/27)

>  <Rbt.Parameter_File>
/export/apps/rDock/src/rDock_2013.1_src/data/scripts/dock_solv.prm

>  <Rbt.Receptor>
prm/pocket_docking_7.prm

>  <SCORE>
-38.0542

>  <SCORE.INTER>
-26.2544

>  <SCORE.INTER.CONST>
1

>  <SCORE.INTER.POLAR>
-0.713269

>  <SCORE.INTER.ROT>
6

>  <SCORE.INTER.SOLV>
20.131

>  <SCORE.INTER.VDW>
-29.4357

>  <SCORE.INTER.norm>
-1.09393

>  <SCORE.INTRA>
-11.7998

>  <SCORE.INTRA.DIHEDRAL>
-1.19528

>  <SCORE.INTRA.DIHEDRAL.0>
4.94008

>  <SCORE.INTRA.POLAR>
0

>  <SCORE.INTRA.POLAR.0>
0

>  <SCORE.INTRA.REPUL>
0

>  <SCORE.INTRA.REPUL.0>
0

>  <SCORE.INTRA.SOLV>
-0.039295

>  <SCORE.INTRA.SOLV.lig_0>
-31.4704

>  <SCORE.INTRA.VDW>
-11.1825

>  <SCORE.INTRA.VDW.0>
10.2807

>  <SCORE.INTRA.norm>
-0.491657

>  <SCORE.RESTR>
0

>  <SCORE.RESTR.CAVITY>
0

>  <SCORE.RESTR.norm>
0

>  <SCORE.SYSTEM>
0

>  <SCORE.SYSTEM.CONST>
0

>  <SCORE.SYSTEM.DIHEDRAL>
0

>  <SCORE.SYSTEM.SOLV>
0

>  <SCORE.SYSTEM.norm>
0

>  <SCORE.heavy>
24

>  <SCORE.norm>
-1.58559

>  <RMSD>
1.029

$$$$
ligand
 OpenBabel11021811493D
libRbt.so/2013.1/901 2013/11/27
 24 26  0  0  0  0  0  0  0  0999 V2000
    8.6691  -11.1380   -9.5577 N   0  0  0  0  0  0  0  0  0  0  0  0
    8.5314  -12.5431   -9.9056 C   0  0  0  0  0  0  0  0  0  0  0  0
   13.3069   -6.3412  -12.9514 O   0  0  0  0  0  0  0  0  0  0  0  0
   12.0315   -5.8452  -12.7169 C   0  0  0  0  0  0  0  0  0  0  0  0
    8.0359   -4.4958  -12.0290 N   0  0  0  0  0  0  0  0  0  0  0  0
   11.7459   -4.3675  -12.7579 C   0  0  0  0  0  0  0  0  0  0  0  0
    8.3720   -6.7146  -11.9319 N   0  0  0  0  0  0  0  0  0  0  0  0
   10.4339   -3.8323  -12.5471 C   0  0  0  0  0  0  0  0  0  0  0  0
    6.0380   -5.8991  -11.5265 N   0  0  0  0  0  0  0  0  0  0  0  0
    9.3861   -4.7818  -12.2750 C   0  0  0  0  0  0  0  0  0  0  0  0
   12.4194  -10.9349  -11.9362 N   0  0  0  0  0  0  0  0  0  0  0  0
    9.6482   -6.1950  -12.2178 C   0  0  0  0  0  0  0  0  0  0  0  0
   11.0254   -6.7076  -12.4548 C   0  0  0  0  0  0  0  0  0  0  0  0
    7.4265   -5.6999  -11.8268 C   0  0  0  0  0  0  0  0  0  0  0  0
   11.2804   -8.2023  -12.3998 C   0  0  0  0  0  0  0  0  0  0  0  0
   12.7498   -8.6095  -12.4207 C   0  0  1  0  0  0  0  0  0  0  0  0
   13.6759   -7.4469  -12.2049 C   0  0  0  0  0  0  0  0  0  0  0  0
   12.9990   -9.7135  -11.4043 C   0  0  0  0  0  0  0  0  0  0  0  0
    8.0610   -8.1543  -11.8438 C   0  0  0  0  0  0  0  0  0  0  0  0
   13.4264  -11.6104  -12.7433 C   0  0  0  0  0  0  0  0  0  0  0  0
   12.0523  -11.7729  -10.8054 C   0  0  0  0  0  0  0  0  0  0  0  0
    8.5706   -8.8638  -10.5774 C   0  0  0  0  0  0  0  0  0  0  0  0
    8.0059  -10.2967  -10.5641 C   0  0  0  0  0  0  0  0  0  0  0  0
    8.0866  -10.9396   -8.2353 C   0  0  0  0  0  0  0  0  0  0  0  0
  1 23  1  0  0  0  0
  1 24  1  0  0  0  0
  1  2  1  0  0  0  0
  3  4  1  0  0  0  0
  3 17  1  0  0  0  0
  4  6  2  0  0  0  0
  4 13  1  0  0  0  0
  5 10  1  0  0  0  0
  5 14  2  0  0  0  0
  6  8  1  0  0  0  0
  7 12  1  0  0  0  0
  7 14  1  0  0  0  0
  7 19  1  0  0  0  0
  8 10  2  0  0  0  0
  9 14  1  0  0  0  0
 10 12  1  0  0  0  0
 11 18  1  0  0  0  0
 11 20  1  0  0  0  0
 11 21  1  0  0  0  0
 12 13  2  0  0  0  0
 13 15  1  0  0  0  0
 15 16  1  0  0  0  0
 16 17  1  0  0  0  0
 16 18  1  1  0  0  0
 19 22  1  0  0  0  0
 22 23  1  0  0  0  0
M  END
>  <CHROM.1>
-157.20841685,74.06627768,89.01025336,73.29390739,172.74727021,167.44898076
10.26396403,-8.10998287,-11.61813576,1.43984126,-0.30150182,2.82502603

>  <Name>
ligand

>  <RI>
0

>  <Rbt.Current_Directory>
/home/itssahil/PROJECTS/Mol_Feturizer/New_Systems/rnas/3TZR

>  <Rbt.Executable>
rbdock ($Id: //depot/dev/client3/rdock/2013.1/src/exe/rbdock.cxx#4 $)

>  <Rbt.Library>
libRbt.so (2013.1, Build901 2013/11/27)

>  <Rbt.Parameter_File>
/export/apps/rDock/src/rDock_2013.1_src/data/scripts/dock_solv.prm

>  <Rbt.Receptor>
prm/pocket_docking_7.prm

>  <SCORE>
-38.0945

>  <SCORE.INTER>
-26.258

>  <SCORE.INTER.CONST>
1

>  <SCORE.INTER.POLAR>
-0.72111

>  <SCORE.INTER.ROT>
6

>  <SCORE.INTER.SOLV>
19.813

>  <SCORE.INTER.VDW>
-29.306

>  <SCORE.INTER.norm>
-1.09408

>  <SCORE.INTRA>
-11.8365

>  <SCORE.INTRA.DIHEDRAL>
-0.384084

>  <SCORE.INTRA.DIHEDRAL.0>
4.94008

>  <SCORE.INTRA.POLAR>
0

>  <SCORE.INTRA.POLAR.0>
0

>  <SCORE.INTRA.REPUL>
0

>  <SCORE.INTRA.REPUL.0>
0

>  <SCORE.INTRA.SOLV>
-0.173813

>  <SCORE.INTRA.SOLV.lig_0>
-31.4704

>  <SCORE.INTRA.VDW>
-11.5575

>  <SCORE.INTRA.VDW.0>
10.2807

>  <SCORE.INTRA.norm>
-0.493187

>  <SCORE.RESTR>
0

>  <SCORE.RESTR.CAVITY>
0

>  <SCORE.RESTR.norm>
0

>  <SCORE.SYSTEM>
0

>  <SCORE.SYSTEM.CONST>
0

>  <SCORE.SYSTEM.DIHEDRAL>
0

>  <SCORE.SYSTEM.SOLV>
0

>  <SCORE.SYSTEM.norm>
0

>  <SCORE.heavy>
24

>  <SCORE.norm>
-1.58727

>  <RMSD>
1.030

$$$$
ligand
 OpenBabel11021811493D
libRbt.so/2013.1/901 2013/11/27
 24 26  0  0  0  0  0  0  0  0999 V2000
    7.0336  -10.7465  -10.7756 N   0  0  0  0  0  0  0  0  0  0  0  0
    5.5812  -10.7896  -10.8303 C   0  0  0  0  0  0  0  0  0  0  0  0
   13.2299   -5.9974  -12.9282 O   0  0  0  0  0  0  0  0  0  0  0  0
   11.9158   -5.5796  -12.7653 C   0  0  0  0  0  0  0  0  0  0  0  0
    7.8141   -4.4745  -12.3032 N   0  0  0  0  0  0  0  0  0  0  0  0
   11.5461   -4.1208  -12.8118 C   0  0  0  0  0  0  0  0  0  0  0  0
    8.2747   -6.6708  -12.2034 N   0  0  0  0  0  0  0  0  0  0  0  0
   10.1948   -3.6659  -12.6744 C   0  0  0  0  0  0  0  0  0  0  0  0
    5.8770   -5.9981  -11.9296 N   0  0  0  0  0  0  0  0  0  0  0  0
    9.1909   -4.6782  -12.4716 C   0  0  0  0  0  0  0  0  0  0  0  0
   12.4702  -10.6279  -11.9602 N   0  0  0  0  0  0  0  0  0  0  0  0
    9.5324   -6.0741  -12.4098 C   0  0  0  0  0  0  0  0  0  0  0  0
   10.9490   -6.5024  -12.5693 C   0  0  0  0  0  0  0  0  0  0  0  0
    7.2663   -5.7145  -12.1463 C   0  0  0  0  0  0  0  0  0  0  0  0
   11.2884   -7.9801  -12.5108 C   0  0  0  0  0  0  0  0  0  0  0  0
   12.7780   -8.3002  -12.4485 C   0  0  1  0  0  0  0  0  0  0  0  0
   13.6196   -7.0877  -12.1698 C   0  0  0  0  0  0  0  0  0  0  0  0
   13.0325   -9.3988  -11.4275 C   0  0  0  0  0  0  0  0  0  0  0  0
    8.0449   -8.1272  -12.1446 C   0  0  0  0  0  0  0  0  0  0  0  0
   13.4903  -11.2944  -12.7583 C   0  0  0  0  0  0  0  0  0  0  0  0
   12.1042  -11.4668  -10.8298 C   0  0  0  0  0  0  0  0  0  0  0  0
    8.6358   -8.8400  -10.9160 C   0  0  0  0  0  0  0  0  0  0  0  0
    7.4825   -9.5007  -10.1377 C   0  0  0  0  0  0  0  0  0  0  0  0
    7.4939  -11.9157  -10.0351 C   0  0  0  0  0  0  0  0  0  0  0  0
  1 23  1  0  0  0  0
  1 24  1  0  0  0  0
  1  2  1  0  0  0  0
  3  4  1  0  0  0  0
  3 17  1  0  0  0  0
  4  6  2  0  0  0  0
  4 13  1  0  0  0  0
  5 10  1  0  0  0  0
  5 14  2  0  0  0  0
  6  8  1  0  0  0  0
  7 12  1  0  0  0  0
  7 14  1  0  0  0  0
  7 19  1  0  0  0  0
  8 10  2  0  0  0  0
  9 14  1  0  0  0  0
 10 12  1  0  0  0  0
 11 18  1  0  0  0  0
 11 20  1  0  0  0  0
 11 21  1  0  0  0  0
 12 13  2  0  0  0  0
 13 15  1  0  0  0  0
 15 16  1  0  0  0  0
 16 17  1  0  0  0  0
 16 18  1  1  0  0  0
 19 22  1  0  0  0  0
 22 23  1  0  0  0  0
M  END
>  <CHROM.1>
-134.71986963,68.65361359,89.03426953,69.19594223,119.71770914,77.64222335
9.95424144,-7.87340183,-11.89069941,-2.48017716,0.16572029,-0.24260841

>  <Name>
ligand

>  <RI>
0

>  <Rbt.Current_Directory>
/home/itssahil/PROJECTS/Mol_Feturizer/New_Systems/rnas/3TZR

>  <Rbt.Executable>
rbdock ($Id: //depot/dev/client3/rdock/2013.1/src/exe/rbdock.cxx#4 $)

>  <Rbt.Library>
libRbt.so (2013.1, Build901 2013/11/27)

>  <Rbt.Parameter_File>
/export/apps/rDock/src/rDock_2013.1_src/data/scripts/dock_solv.prm

>  <Rbt.Receptor>
prm/blind_docking_40.prm

>  <SCORE>
-33.433

>  <SCORE.INTER>
-25.1995

>  <SCORE.INTER.CONST>
1

>  <SCORE.INTER.POLAR>
0

>  <SCORE.INTER.ROT>
6

>  <SCORE.INTER.SOLV>
20.6987

>  <SCORE.INTER.VDW>
-31.2993

>  <SCORE.INTER.norm>
-1.04998

>  <SCORE.INTRA>
-8.23348

>  <SCORE.INTRA.DIHEDRAL>
6.43297

>  <SCORE.INTRA.DIHEDRAL.0>
4.94008

>  <SCORE.INTRA.POLAR>
0

>  <SCORE.INTRA.POLAR.0>
0

>  <SCORE.INTRA.REPUL>
0

>  <SCORE.INTRA.REPUL.0>
0

>  <SCORE.INTRA.SOLV>
0.178895

>  <SCORE.INTRA.SOLV.lig_0>
-31.4704

>  <SCORE.INTRA.VDW>
-11.5394

>  <SCORE.INTRA.VDW.0>
10.2807

>  <SCORE.INTRA.norm>
-0.343061

>  <SCORE.RESTR>
0

>  <SCORE.RESTR.CAVITY>
0

>  <SCORE.RESTR.norm>
0

>  <SCORE.SYSTEM>
0

>  <SCORE.SYSTEM.CONST>
0

>  <SCORE.SYSTEM.DIHEDRAL>
0

>  <SCORE.SYSTEM.SOLV>
0

>  <SCORE.SYSTEM.norm>
0

>  <SCORE.heavy>
24

>  <SCORE.norm>
-1.39304

>  <RMSD>
1.031

$$$$
ligand
 OpenBabel11021811493D
libRbt.so/2013.1/901 2013/11/27
 24 26  0  0  0  0  0  0  0  0999 V2000
    6.3664  -10.3541  -10.8289 N   0  0  0  0  0  0  0  0  0  0  0  0
    7.3354  -11.1673  -10.1120 C   0  0  0  0  0  0  0  0  0  0  0  0
   13.2340   -6.2831  -13.2090 O   0  0  0  0  0  0  0  0  0  0  0  0
   12.0035   -5.7786  -12.8103 C   0  0  0  0  0  0  0  0  0  0  0  0
    8.1401   -4.4020  -11.6110 N   0  0  0  0  0  0  0  0  0  0  0  0
   11.7327   -4.2977  -12.7918 C   0  0  0  0  0  0  0  0  0  0  0  0
    8.4590   -6.6254  -11.5920 N   0  0  0  0  0  0  0  0  0  0  0  0
   10.4633   -3.7534  -12.4115 C   0  0  0  0  0  0  0  0  0  0  0  0
    6.2031   -5.7941  -10.8874 N   0  0  0  0  0  0  0  0  0  0  0  0
    9.4460   -4.6970  -12.0269 C   0  0  0  0  0  0  0  0  0  0  0  0
   12.2936  -10.8413  -12.0657 N   0  0  0  0  0  0  0  0  0  0  0  0
    9.6962   -6.1135  -12.0254 C   0  0  0  0  0  0  0  0  0  0  0  0
   11.0273   -6.6355  -12.4394 C   0  0  0  0  0  0  0  0  0  0  0  0
    7.5461   -5.6034  -11.3542 C   0  0  0  0  0  0  0  0  0  0  0  0
   11.2692   -8.1334  -12.4405 C   0  0  0  0  0  0  0  0  0  0  0  0
   12.7197   -8.5547  -12.6499 C   0  0  1  0  0  0  0  0  0  0  0  0
   13.6793   -7.4052  -12.5319 C   0  0  0  0  0  0  0  0  0  0  0  0
   13.0796   -9.6786  -11.6900 C   0  0  0  0  0  0  0  0  0  0  0  0
    8.1442   -8.0633  -11.4891 C   0  0  0  0  0  0  0  0  0  0  0  0
   13.0840  -11.6581  -12.9767 C   0  0  0  0  0  0  0  0  0  0  0  0
   12.0133  -11.5903  -10.8509 C   0  0  0  0  0  0  0  0  0  0  0  0
    7.0389   -8.5667  -12.4334 C   0  0  0  0  0  0  0  0  0  0  0  0
    6.8439  -10.0751  -12.1908 C   0  0  0  0  0  0  0  0  0  0  0  0
    5.0981  -11.0741  -10.8500 C   0  0  0  0  0  0  0  0  0  0  0  0
  1 23  1  0  0  0  0
  1 24  1  0  0  0  0
  1  2  1  0  0  0  0
  3  4  1  0  0  0  0
  3 17  1  0  0  0  0
  4  6  2  0  0  0  0
  4 13  1  0  0  0  0
  5 10  1  0  0  0  0
  5 14  2  0  0  0  0
  6  8  1  0  0  0  0
  7 12  1  0  0  0  0
  7 14  1  0  0  0  0
  7 19  1  0  0  0  0
  8 10  2  0  0  0  0
  9 14  1  0  0  0  0
 10 12  1  0  0  0  0
 11 18  1  0  0  0  0
 11 20  1  0  0  0  0
 11 21  1  0  0  0  0
 12 13  2  0  0  0  0
 13 15  1  0  0  0  0
 15 16  1  0  0  0  0
 16 17  1  0  0  0  0
 16 18  1  1  0  0  0
 19 22  1  0  0  0  0
 22 23  1  0  0  0  0
M  END
>  <CHROM.1>
-118.23906851,-115.36838038,93.35399561,66.26124152,-179.96112397,63.67404460
9.86016509,-7.93937469,-11.90996497,-2.81875954,0.20176305,-0.10862850

>  <Name>
ligand

>  <RI>
0

>  <Rbt.Current_Directory>
/home/itssahil/PROJECTS/Mol_Feturizer/New_Systems/rnas/3TZR

>  <Rbt.Executable>
rbdock ($Id: //depot/dev/client3/rdock/2013.1/src/exe/rbdock.cxx#4 $)

>  <Rbt.Library>
libRbt.so (2013.1, Build901 2013/11/27)

>  <Rbt.Parameter_File>
/export/apps/rDock/src/rDock_2013.1_src/data/scripts/dock_solv.prm

>  <Rbt.Receptor>
prm/blind_docking_100.prm

>  <SCORE>
-35.4397

>  <SCORE.INTER>
-24.7405

>  <SCORE.INTER.CONST>
1

>  <SCORE.INTER.POLAR>
0

>  <SCORE.INTER.ROT>
6

>  <SCORE.INTER.SOLV>
20.9129

>  <SCORE.INTER.VDW>
-31.0646

>  <SCORE.INTER.norm>
-1.03085

>  <SCORE.INTRA>
-10.6992

>  <SCORE.INTRA.DIHEDRAL>
0.259231

>  <SCORE.INTRA.DIHEDRAL.0>
4.94008

>  <SCORE.INTRA.POLAR>
0

>  <SCORE.INTRA.POLAR.0>
0

>  <SCORE.INTRA.REPUL>
0

>  <SCORE.INTRA.REPUL.0>
0

>  <SCORE.INTRA.SOLV>
0.780171

>  <SCORE.INTRA.SOLV.lig_0>
-31.4704

>  <SCORE.INTRA.VDW>
-11.2189

>  <SCORE.INTRA.VDW.0>
10.2807

>  <SCORE.INTRA.norm>
-0.4458

>  <SCORE.RESTR>
0

>  <SCORE.RESTR.CAVITY>
0

>  <SCORE.RESTR.norm>
0

>  <SCORE.SYSTEM>
0

>  <SCORE.SYSTEM.CONST>
0

>  <SCORE.SYSTEM.DIHEDRAL>
0

>  <SCORE.SYSTEM.SOLV>
0

>  <SCORE.SYSTEM.norm>
0

>  <SCORE.heavy>
24

>  <SCORE.norm>
-1.47665

>  <RMSD>
1.032

$$$$
ligand
 OpenBabel11021811493D
libRbt.so/2013.1/901 2013/11/27
 24 26  0  0  0  0  0  0  0  0999 V2000
    8.6517  -11.1531   -9.4834 N   0  0  0  0  0  0  0  0  0  0  0  0
    8.5658  -12.5408   -9.9092 C   0  0  0  0  0  0  0  0  0  0  0  0
   13.2565   -6.3246  -12.9713 O   0  0  0  0  0  0  0  0  0  0  0  0
   12.0082   -5.8141  -12.6417 C   0  0  0  0  0  0  0  0  0  0  0  0
    8.0899   -4.4171  -11.6646 N   0  0  0  0  0  0  0  0  0  0  0  0
   11.7542   -4.3306  -12.6012 C   0  0  0  0  0  0  0  0  0  0  0  0
    8.3806   -6.6444  -11.6844 N   0  0  0  0  0  0  0  0  0  0  0  0
   10.4689   -3.7793  -12.2914 C   0  0  0  0  0  0  0  0  0  0  0  0
    6.0928   -5.8012  -11.1089 N   0  0  0  0  0  0  0  0  0  0  0  0
    9.4171   -4.7188  -12.0008 C   0  0  0  0  0  0  0  0  0  0  0  0
   12.3367  -10.9437  -12.1157 N   0  0  0  0  0  0  0  0  0  0  0  0
    9.6499   -6.1381  -12.0209 C   0  0  0  0  0  0  0  0  0  0  0  0
   10.9994   -6.6671  -12.3596 C   0  0  0  0  0  0  0  0  0  0  0  0
    7.4660   -5.6167  -11.4802 C   0  0  0  0  0  0  0  0  0  0  0  0
   11.2232   -8.1676  -12.3851 C   0  0  0  0  0  0  0  0  0  0  0  0
   12.6794   -8.6029  -12.5091 C   0  0  1  0  0  0  0  0  0  0  0  0
   13.6424   -7.4700  -12.2967 C   0  0  0  0  0  0  0  0  0  0  0  0
   12.9611   -9.7563  -11.5581 C   0  0  0  0  0  0  0  0  0  0  0  0
    8.0427   -8.0801  -11.6415 C   0  0  0  0  0  0  0  0  0  0  0  0
   13.2489  -11.5322  -13.0870 C   0  0  0  0  0  0  0  0  0  0  0  0
   12.1152  -11.8757  -11.0213 C   0  0  0  0  0  0  0  0  0  0  0  0
    8.5072   -8.8306  -10.3815 C   0  0  0  0  0  0  0  0  0  0  0  0
    7.9880  -10.2785  -10.4607 C   0  0  0  0  0  0  0  0  0  0  0  0
    8.0310  -11.0436   -8.1681 C   0  0  0  0  0  0  0  0  0  0  0  0
  1 23  1  0  0  0  0
  1 24  1  0  0  0  0
  1  2  1  0  0  0  0
  3  4  1  0  0  0  0
  3 17  1  0  0  0  0
  4  6  2  0  0  0  0
  4 13  1  0  0  0  0
  5 10  1  0  0  0  0
  5 14  2  0  0  0  0
  6  8  1  0  0  0  0
  7 12  1  0  0  0  0
  7 14  1  0  0  0  0
  7 19  1  0  0  0  0
  8 10  2  0  0  0  0
  9 14  1  0  0  0  0
 10 12  1  0  0  0  0
 11 18  1  0  0  0  0
 11 20  1  0  0  0  0
 11 21  1  0  0  0  0
 12 13  2  0  0  0  0
 13 15  1  0  0  0  0
 15 16  1  0  0  0  0
 16 17  1  0  0  0  0
 16 18  1  1  0  0  0
 19 22  1  0  0  0  0
 22 23  1  0  0  0  0
M  END
>  <CHROM.1>
-157.29004473,78.95457043,84.31578352,73.88721053,176.09175603,165.80085222
10.24584813,-8.08775775,-11.54288395,1.45153396,-0.36689892,2.87124893

>  <Name>
ligand

>  <RI>
0

>  <Rbt.Current_Directory>
/home/itssahil/PROJECTS/Mol_Feturizer/New_Systems/rnas/3TZR

>  <Rbt.Executable>
rbdock ($Id: //depot/dev/client3/rdock/2013.1/src/exe/rbdock.cxx#4 $)

>  <Rbt.Library>
libRbt.so (2013.1, Build901 2013/11/27)

>  <Rbt.Parameter_File>
/export/apps/rDock/src/rDock_2013.1_src/data/scripts/dock_solv.prm

>  <Rbt.Receptor>
prm/pocket_docking_5.prm

>  <SCORE>
-38.0875

>  <SCORE.INTER>
-26.3523

>  <SCORE.INTER.CONST>
1

>  <SCORE.INTER.POLAR>
-0.72021

>  <SCORE.INTER.ROT>
6

>  <SCORE.INTER.SOLV>
20.0892

>  <SCORE.INTER.VDW>
-29.4639

>  <SCORE.INTER.norm>
-1.09801

>  <SCORE.INTRA>
-11.7352

>  <SCORE.INTRA.DIHEDRAL>
-0.586113

>  <SCORE.INTRA.DIHEDRAL.0>
4.94008

>  <SCORE.INTRA.POLAR>
0

>  <SCORE.INTRA.POLAR.0>
0

>  <SCORE.INTRA.REPUL>
0

>  <SCORE.INTRA.REPUL.0>
0

>  <SCORE.INTRA.SOLV>
-0.148248

>  <SCORE.INTRA.SOLV.lig_0>
-31.4704

>  <SCORE.INTRA.VDW>
-11.368

>  <SCORE.INTRA.VDW.0>
10.2807

>  <SCORE.INTRA.norm>
-0.488966

>  <SCORE.RESTR>
0

>  <SCORE.RESTR.CAVITY>
0

>  <SCORE.RESTR.norm>
0

>  <SCORE.SYSTEM>
0

>  <SCORE.SYSTEM.CONST>
0

>  <SCORE.SYSTEM.DIHEDRAL>
0

>  <SCORE.SYSTEM.SOLV>
0

>  <SCORE.SYSTEM.norm>
0

>  <SCORE.heavy>
24

>  <SCORE.norm>
-1.58698

>  <RMSD>
1.032

$$$$
ligand
 OpenBabel11021811493D
libRbt.so/2013.1/901 2013/11/27
 24 26  0  0  0  0  0  0  0  0999 V2000
    7.7883  -10.4872  -10.5676 N   0  0  0  0  0  0  0  0  0  0  0  0
    6.3980  -10.8837  -10.7227 C   0  0  0  0  0  0  0  0  0  0  0  0
   13.8989   -7.4288  -12.9774 O   0  0  0  0  0  0  0  0  0  0  0  0
   12.7889   -6.6266  -12.7485 C   0  0  0  0  0  0  0  0  0  0  0  0
    9.2603   -4.3104  -12.0832 N   0  0  0  0  0  0  0  0  0  0  0  0
   12.8926   -5.1246  -12.7579 C   0  0  0  0  0  0  0  0  0  0  0  0
    9.0143   -6.5426  -12.0348 N   0  0  0  0  0  0  0  0  0  0  0  0
   11.7578   -4.2748  -12.5524 C   0  0  0  0  0  0  0  0  0  0  0  0
    6.9601   -5.1634  -11.6418 N   0  0  0  0  0  0  0  0  0  0  0  0
   10.4965   -4.9286  -12.3175 C   0  0  0  0  0  0  0  0  0  0  0  0
   12.8182  -11.8740  -12.2726 N   0  0  0  0  0  0  0  0  0  0  0  0
   10.3864   -6.3626  -12.2906 C   0  0  0  0  0  0  0  0  0  0  0  0
   11.5905   -7.2068  -12.5210 C   0  0  0  0  0  0  0  0  0  0  0  0
    8.3587   -5.3215  -11.9183 C   0  0  0  0  0  0  0  0  0  0  0  0
   11.4526   -8.7176  -12.4984 C   0  0  0  0  0  0  0  0  0  0  0  0
   12.7686   -9.4880  -12.5091 C   0  0  1  0  0  0  0  0  0  0  0  0
   13.9575   -8.6066  -12.2527 C   0  0  0  0  0  0  0  0  0  0  0  0
   12.7067  -10.6387  -11.5161 C   0  0  0  0  0  0  0  0  0  0  0  0
    8.3430   -7.8557  -11.9855 C   0  0  0  0  0  0  0  0  0  0  0  0
   14.2302  -12.2023  -12.4151 C   0  0  0  0  0  0  0  0  0  0  0  0
   12.1457  -12.9149  -11.5112 C   0  0  0  0  0  0  0  0  0  0  0  0
    7.3481   -8.0459  -10.8276 C   0  0  0  0  0  0  0  0  0  0  0  0
    7.8733   -9.1718   -9.9172 C   0  0  0  0  0  0  0  0  0  0  0  0
    8.4663  -11.5113   -9.7808 C   0  0  0  0  0  0  0  0  0  0  0  0
  1 23  1  0  0  0  0
  1 24  1  0  0  0  0
  1  2  1  0  0  0  0
  3  4  1  0  0  0  0
  3 17  1  0  0  0  0
  4  6  2  0  0  0  0
  4 13  1  0  0  0  0
  5 10  1  0  0  0  0
  5 14  2  0  0  0  0
  6  8  1  0  0  0  0
  7 12  1  0  0  0  0
  7 14  1  0  0  0  0
  7 19  1  0  0  0  0
  8 10  2  0  0  0  0
  9 14  1  0  0  0  0
 10 12  1  0  0  0  0
 11 18  1  0  0  0  0
 11 20  1  0  0  0  0
 11 21  1  0  0  0  0
 12 13  2  0  0  0  0
 13 15  1  0  0  0  0
 15 16  1  0  0  0  0
 16 17  1  0  0  0  0
 16 18  1  1  0  0  0
 19 22  1  0  0  0  0
 22 23  1  0  0  0  0
M  END
>  <CHROM.1>
-68.50026903,136.50148874,88.23065268,116.26433737,-116.31503367,-69.91788749
10.55507137,-8.29730162,-11.82949792,0.93129140,-0.27561687,2.95620834

>  <Name>
ligand

>  <RI>
0

>  <Rbt.Current_Directory>
/home/itssahil/PROJECTS/Mol_Feturizer/New_Systems/rnas/3TZR

>  <Rbt.Executable>
rbdock ($Id: //depot/dev/client3/rdock/2013.1/src/exe/rbdock.cxx#4 $)

>  <Rbt.Library>
libRbt.so (2013.1, Build901 2013/11/27)

>  <Rbt.Parameter_File>
/export/apps/rDock/src/rDock_2013.1_src/data/scripts/dock_solv.prm

>  <Rbt.Receptor>
prm/pocket_docking_7.prm

>  <SCORE>
-29.8444

>  <SCORE.INTER>
-24.5505

>  <SCORE.INTER.CONST>
1

>  <SCORE.INTER.POLAR>
0

>  <SCORE.INTER.ROT>
6

>  <SCORE.INTER.SOLV>
20.1767

>  <SCORE.INTER.VDW>
-30.6926

>  <SCORE.INTER.norm>
-1.02294

>  <SCORE.INTRA>
-5.29385

>  <SCORE.INTRA.DIHEDRAL>
8.30881

>  <SCORE.INTRA.DIHEDRAL.0>
4.94008

>  <SCORE.INTRA.POLAR>
0

>  <SCORE.INTRA.POLAR.0>
0

>  <SCORE.INTRA.REPUL>
0

>  <SCORE.INTRA.REPUL.0>
0

>  <SCORE.INTRA.SOLV>
1.12276

>  <SCORE.INTRA.SOLV.lig_0>
-31.4704

>  <SCORE.INTRA.VDW>
-10.0096

>  <SCORE.INTRA.VDW.0>
10.2807

>  <SCORE.INTRA.norm>
-0.220577

>  <SCORE.RESTR>
0

>  <SCORE.RESTR.CAVITY>
0

>  <SCORE.RESTR.norm>
0

>  <SCORE.SYSTEM>
0

>  <SCORE.SYSTEM.CONST>
0

>  <SCORE.SYSTEM.DIHEDRAL>
0

>  <SCORE.SYSTEM.SOLV>
0

>  <SCORE.SYSTEM.norm>
0

>  <SCORE.heavy>
24

>  <SCORE.norm>
-1.24352

>  <RMSD>
1.032

$$$$
ligand
 OpenBabel11021811493D
libRbt.so/2013.1/901 2013/11/27
 24 26  0  0  0  0  0  0  0  0999 V2000
    6.4268  -10.3638  -10.7905 N   0  0  0  0  0  0  0  0  0  0  0  0
    7.3700  -11.2128  -10.0807 C   0  0  0  0  0  0  0  0  0  0  0  0
   13.1944   -6.2202  -13.2635 O   0  0  0  0  0  0  0  0  0  0  0  0
   11.9624   -5.7268  -12.8553 C   0  0  0  0  0  0  0  0  0  0  0  0
    8.0968   -4.3856  -11.6236 N   0  0  0  0  0  0  0  0  0  0  0  0
   11.6721   -4.2494  -12.8525 C   0  0  0  0  0  0  0  0  0  0  0  0
    8.4457   -6.6042  -11.5799 N   0  0  0  0  0  0  0  0  0  0  0  0
   10.4007   -3.7170  -12.4628 C   0  0  0  0  0  0  0  0  0  0  0  0
    6.1881   -5.7935  -10.8568 N   0  0  0  0  0  0  0  0  0  0  0  0
    9.4010   -4.6689  -12.0527 C   0  0  0  0  0  0  0  0  0  0  0  0
   12.4062  -10.8024  -12.1108 N   0  0  0  0  0  0  0  0  0  0  0  0
    9.6702   -6.0818  -12.0361 C   0  0  0  0  0  0  0  0  0  0  0  0
   11.0027   -6.5915  -12.4607 C   0  0  0  0  0  0  0  0  0  0  0  0
    7.5223   -5.5913  -11.3435 C   0  0  0  0  0  0  0  0  0  0  0  0
   11.2646   -8.0859  -12.4455 C   0  0  0  0  0  0  0  0  0  0  0  0
   12.7178   -8.4908  -12.6683 C   0  0  1  0  0  0  0  0  0  0  0  0
   13.6633   -7.3273  -12.5778 C   0  0  0  0  0  0  0  0  0  0  0  0
   13.1050   -9.5972  -11.6987 C   0  0  0  0  0  0  0  0  0  0  0  0
    8.1514   -8.0447  -11.4543 C   0  0  0  0  0  0  0  0  0  0  0  0
   13.2430  -11.5179  -13.0646 C   0  0  0  0  0  0  0  0  0  0  0  0
   12.2053  -11.6185  -10.9238 C   0  0  0  0  0  0  0  0  0  0  0  0
    7.0776   -8.5857  -12.4141 C   0  0  0  0  0  0  0  0  0  0  0  0
    6.9093  -10.0942  -12.1525 C   0  0  0  0  0  0  0  0  0  0  0  0
    5.1349  -11.0406  -10.8112 C   0  0  0  0  0  0  0  0  0  0  0  0
  1 23  1  0  0  0  0
  1 24  1  0  0  0  0
  1  2  1  0  0  0  0
  3  4  1  0  0  0  0
  3 17  1  0  0  0  0
  4  6  2  0  0  0  0
  4 13  1  0  0  0  0
  5 10  1  0  0  0  0
  5 14  2  0  0  0  0
  6  8  1  0  0  0  0
  7 12  1  0  0  0  0
  7 14  1  0  0  0  0
  7 19  1  0  0  0  0
  8 10  2  0  0  0  0
  9 14  1  0  0  0  0
 10 12  1  0  0  0  0
 11 18  1  0  0  0  0
 11 20  1  0  0  0  0
 11 21  1  0  0  0  0
 12 13  2  0  0  0  0
 13 15  1  0  0  0  0
 15 16  1  0  0  0  0
 16 17  1  0  0  0  0
 16 18  1  1  0  0  0
 19 22  1  0  0  0  0
 22 23  1  0  0  0  0
M  END
>  <CHROM.1>
-121.49190729,-113.18394728,89.42806103,70.48154199,179.57277847,62.86189517
9.87645913,-7.90900151,-11.92261492,-2.85591427,0.21197628,-0.11617049

>  <Name>
ligand

>  <RI>
0

>  <Rbt.Current_Directory>
/home/itssahil/PROJECTS/Mol_Feturizer/New_Systems/rnas/3TZR

>  <Rbt.Executable>
rbdock ($Id: //depot/dev/client3/rdock/2013.1/src/exe/rbdock.cxx#4 $)

>  <Rbt.Library>
libRbt.so (2013.1, Build901 2013/11/27)

>  <Rbt.Parameter_File>
/export/apps/rDock/src/rDock_2013.1_src/data/scripts/dock_solv.prm

>  <Rbt.Receptor>
prm/blind_docking_100.prm

>  <SCORE>
-35.4188

>  <SCORE.INTER>
-24.6714

>  <SCORE.INTER.CONST>
1

>  <SCORE.INTER.POLAR>
0

>  <SCORE.INTER.ROT>
6

>  <SCORE.INTER.SOLV>
21.0518

>  <SCORE.INTER.VDW>
-31.0648

>  <SCORE.INTER.norm>
-1.02797

>  <SCORE.INTRA>
-10.7486

>  <SCORE.INTRA.DIHEDRAL>
0.213513

>  <SCORE.INTRA.DIHEDRAL.0>
4.94008

>  <SCORE.INTRA.POLAR>
0

>  <SCORE.INTRA.POLAR.0>
0

>  <SCORE.INTRA.REPUL>
0

>  <SCORE.INTRA.REPUL.0>
0

>  <SCORE.INTRA.SOLV>
0.707821

>  <SCORE.INTRA.SOLV.lig_0>
-31.4704

>  <SCORE.INTRA.VDW>
-11.2093

>  <SCORE.INTRA.VDW.0>
10.2807

>  <SCORE.INTRA.norm>
-0.447858

>  <SCORE.RESTR>
0.00113972

>  <SCORE.RESTR.CAVITY>
0.00113972

>  <SCORE.RESTR.norm>
4.74884e-05

>  <SCORE.SYSTEM>
0

>  <SCORE.SYSTEM.CONST>
0

>  <SCORE.SYSTEM.DIHEDRAL>
0

>  <SCORE.SYSTEM.SOLV>
0

>  <SCORE.SYSTEM.norm>
0

>  <SCORE.heavy>
24

>  <SCORE.norm>
-1.47578

>  <RMSD>
1.034

$$$$
ligand
 OpenBabel11021811493D
libRbt.so/2013.1/901 2013/11/27
 24 26  0  0  0  0  0  0  0  0999 V2000
    6.3470  -10.3457  -10.7913 N   0  0  0  0  0  0  0  0  0  0  0  0
    7.1510  -11.2867  -10.0281 C   0  0  0  0  0  0  0  0  0  0  0  0
   13.1960   -6.2415  -13.2500 O   0  0  0  0  0  0  0  0  0  0  0  0
   11.9643   -5.7419  -12.8487 C   0  0  0  0  0  0  0  0  0  0  0  0
    8.0995   -4.3819  -11.6353 N   0  0  0  0  0  0  0  0  0  0  0  0
   11.6738   -4.2647  -12.8690 C   0  0  0  0  0  0  0  0  0  0  0  0
    8.4486   -6.5995  -11.5570 N   0  0  0  0  0  0  0  0  0  0  0  0
   10.4026   -3.7263  -12.4867 C   0  0  0  0  0  0  0  0  0  0  0  0
    6.1915   -5.7778  -10.8450 N   0  0  0  0  0  0  0  0  0  0  0  0
    9.4034   -4.6717  -12.0610 C   0  0  0  0  0  0  0  0  0  0  0  0
   12.5511  -10.8426  -12.1219 N   0  0  0  0  0  0  0  0  0  0  0  0
    9.6727   -6.0842  -12.0222 C   0  0  0  0  0  0  0  0  0  0  0  0
   11.0050   -6.6004  -12.4398 C   0  0  0  0  0  0  0  0  0  0  0  0
    7.5253   -5.5831  -11.3358 C   0  0  0  0  0  0  0  0  0  0  0  0
   11.2670   -8.0944  -12.4012 C   0  0  0  0  0  0  0  0  0  0  0  0
   12.7201   -8.5025  -12.6188 C   0  0  1  0  0  0  0  0  0  0  0  0
   13.6656   -7.3377  -12.5473 C   0  0  0  0  0  0  0  0  0  0  0  0
   13.1082   -9.5934  -11.6322 C   0  0  0  0  0  0  0  0  0  0  0  0
    8.1546   -8.0378  -11.4085 C   0  0  0  0  0  0  0  0  0  0  0  0
   13.4893  -11.4257  -13.0714 C   0  0  0  0  0  0  0  0  0  0  0  0
   12.3934  -11.7285  -10.9792 C   0  0  0  0  0  0  0  0  0  0  0  0
    7.1273   -8.6080  -12.4015 C   0  0  0  0  0  0  0  0  0  0  0  0
    6.9529  -10.1102  -12.1096 C   0  0  0  0  0  0  0  0  0  0  0  0
    5.0026  -10.8970  -10.9177 C   0  0  0  0  0  0  0  0  0  0  0  0
  1 23  1  0  0  0  0
  1 24  1  0  0  0  0
  1  2  1  0  0  0  0
  3  4  1  0  0  0  0
  3 17  1  0  0  0  0
  4  6  2  0  0  0  0
  4 13  1  0  0  0  0
  5 10  1  0  0  0  0
  5 14  2  0  0  0  0
  6  8  1  0  0  0  0
  7 12  1  0  0  0  0
  7 14  1  0  0  0  0
  7 19  1  0  0  0  0
  8 10  2  0  0  0  0
  9 14  1  0  0  0  0
 10 12  1  0  0  0  0
 11 18  1  0  0  0  0
 11 20  1  0  0  0  0
 11 21  1  0  0  0  0
 12 13  2  0  0  0  0
 13 15  1  0  0  0  0
 15 16  1  0  0  0  0
 16 17  1  0  0  0  0
 16 18  1  1  0  0  0
 19 22  1  0  0  0  0
 22 23  1  0  0  0  0
M  END
>  <CHROM.1>
-128.25426091,-110.49616912,85.78486387,77.76259596,179.58977693,65.75572108
9.88865528,-7.91170734,-11.91443389,-2.94327642,0.20729282,-0.11810883

>  <Name>
ligand

>  <RI>
0

>  <Rbt.Current_Directory>
/home/itssahil/PROJECTS/Mol_Feturizer/New_Systems/rnas/3TZR

>  <Rbt.Executable>
rbdock ($Id: //depot/dev/client3/rdock/2013.1/src/exe/rbdock.cxx#4 $)

>  <Rbt.Library>
libRbt.so (2013.1, Build901 2013/11/27)

>  <Rbt.Parameter_File>
/export/apps/rDock/src/rDock_2013.1_src/data/scripts/dock_solv.prm

>  <Rbt.Receptor>
prm/blind_docking_100.prm

>  <SCORE>
-35.1692

>  <SCORE.INTER>
-24.5443

>  <SCORE.INTER.CONST>
1

>  <SCORE.INTER.POLAR>
0

>  <SCORE.INTER.ROT>
6

>  <SCORE.INTER.SOLV>
21.167

>  <SCORE.INTER.VDW>
-31.0186

>  <SCORE.INTER.norm>
-1.02268

>  <SCORE.INTRA>
-10.6248

>  <SCORE.INTRA.DIHEDRAL>
0.601726

>  <SCORE.INTRA.DIHEDRAL.0>
4.94008

>  <SCORE.INTRA.POLAR>
0

>  <SCORE.INTRA.POLAR.0>
0

>  <SCORE.INTRA.REPUL>
0

>  <SCORE.INTRA.REPUL.0>
0

>  <SCORE.INTRA.SOLV>
0.615394

>  <SCORE.INTRA.SOLV.lig_0>
-31.4704

>  <SCORE.INTRA.VDW>
-11.2334

>  <SCORE.INTRA.VDW.0>
10.2807

>  <SCORE.INTRA.norm>
-0.442701

>  <SCORE.RESTR>
0

>  <SCORE.RESTR.CAVITY>
0

>  <SCORE.RESTR.norm>
0

>  <SCORE.SYSTEM>
0

>  <SCORE.SYSTEM.CONST>
0

>  <SCORE.SYSTEM.DIHEDRAL>
0

>  <SCORE.SYSTEM.SOLV>
0

>  <SCORE.SYSTEM.norm>
0

>  <SCORE.heavy>
24

>  <SCORE.norm>
-1.46538

>  <RMSD>
1.034

$$$$
ligand
 OpenBabel11021811493D
libRbt.so/2013.1/901 2013/11/27
 24 26  0  0  0  0  0  0  0  0999 V2000
    8.6676  -11.1406   -9.5552 N   0  0  0  0  0  0  0  0  0  0  0  0
    8.5383  -12.5372   -9.9387 C   0  0  0  0  0  0  0  0  0  0  0  0
   13.3617   -6.4069  -13.0624 O   0  0  0  0  0  0  0  0  0  0  0  0
   12.1084   -5.8858  -12.7698 C   0  0  0  0  0  0  0  0  0  0  0  0
    8.1756   -4.4567  -11.9041 N   0  0  0  0  0  0  0  0  0  0  0  0
   11.8576   -4.4012  -12.7710 C   0  0  0  0  0  0  0  0  0  0  0  0
    8.4609   -6.6844  -11.8633 N   0  0  0  0  0  0  0  0  0  0  0  0
   10.5679   -3.8396  -12.5000 C   0  0  0  0  0  0  0  0  0  0  0  0
    6.1644   -5.8225  -11.3534 N   0  0  0  0  0  0  0  0  0  0  0  0
    9.5082   -4.7695  -12.2068 C   0  0  0  0  0  0  0  0  0  0  0  0
   12.2687  -10.9550  -12.0196 N   0  0  0  0  0  0  0  0  0  0  0  0
    9.7377   -6.1893  -12.1873 C   0  0  0  0  0  0  0  0  0  0  0  0
   11.0922   -6.7293  -12.4865 C   0  0  0  0  0  0  0  0  0  0  0  0
    7.5451   -5.6500  -11.7024 C   0  0  0  0  0  0  0  0  0  0  0  0
   11.3125   -8.2305  -12.4705 C   0  0  0  0  0  0  0  0  0  0  0  0
   12.7697   -8.6718  -12.5553 C   0  0  1  0  0  0  0  0  0  0  0  0
   13.7314   -7.5360  -12.3522 C   0  0  0  0  0  0  0  0  0  0  0  0
   13.0300   -9.8019  -11.5708 C   0  0  0  0  0  0  0  0  0  0  0  0
    8.1185   -8.1179  -11.7915 C   0  0  0  0  0  0  0  0  0  0  0  0
   13.0944  -11.7230  -12.9417 C   0  0  0  0  0  0  0  0  0  0  0  0
   11.9623  -11.7595  -10.8471 C   0  0  0  0  0  0  0  0  0  0  0  0
    8.5458   -8.8352  -10.4994 C   0  0  0  0  0  0  0  0  0  0  0  0
    8.0072  -10.2775  -10.5448 C   0  0  0  0  0  0  0  0  0  0  0  0
    8.0757  -10.9776   -8.2321 C   0  0  0  0  0  0  0  0  0  0  0  0
  1 23  1  0  0  0  0
  1 24  1  0  0  0  0
  1  2  1  0  0  0  0
  3  4  1  0  0  0  0
  3 17  1  0  0  0  0
  4  6  2  0  0  0  0
  4 13  1  0  0  0  0
  5 10  1  0  0  0  0
  5 14  2  0  0  0  0
  6  8  1  0  0  0  0
  7 12  1  0  0  0  0
  7 14  1  0  0  0  0
  7 19  1  0  0  0  0
  8 10  2  0  0  0  0
  9 14  1  0  0  0  0
 10 12  1  0  0  0  0
 11 18  1  0  0  0  0
 11 20  1  0  0  0  0
 11 21  1  0  0  0  0
 12 13  2  0  0  0  0
 13 15  1  0  0  0  0
 15 16  1  0  0  0  0
 16 17  1  0  0  0  0
 16 18  1  1  0  0  0
 19 22  1  0  0  0  0
 22 23  1  0  0  0  0
M  END
>  <CHROM.1>
-158.36238895,79.45260032,88.97410925,66.55028539,175.24293802,164.03144786
10.28947130,-8.12293263,-11.63281558,1.51726751,-0.34387815,2.84758852

>  <Name>
ligand

>  <RI>
144

>  <Rbt.Current_Directory>
/home/itssahil/PROJECTS/Mol_Feturizer/New_Systems/rnas/3TZR

>  <Rbt.Executable>
rbdock ($Id: //depot/dev/client3/rdock/2013.1/src/exe/rbdock.cxx#4 $)

>  <Rbt.Library>
libRbt.so (2013.1, Build901 2013/11/27)

>  <Rbt.Parameter_File>
/export/apps/rDock/src/rDock_2013.1_src/data/scripts/dock_solv.prm

>  <Rbt.Receptor>
prm/blind_docking_60.prm

>  <SCORE>
-38.0634

>  <SCORE.INTER>
-26.26

>  <SCORE.INTER.CONST>
1

>  <SCORE.INTER.POLAR>
-0.718563

>  <SCORE.INTER.ROT>
6

>  <SCORE.INTER.SOLV>
19.821

>  <SCORE.INTER.VDW>
-29.3184

>  <SCORE.INTER.norm>
-1.09417

>  <SCORE.INTRA>
-11.8034

>  <SCORE.INTRA.DIHEDRAL>
-0.638336

>  <SCORE.INTRA.DIHEDRAL.0>
4.94008

>  <SCORE.INTRA.POLAR>
0

>  <SCORE.INTRA.POLAR.0>
0

>  <SCORE.INTRA.REPUL>
0

>  <SCORE.INTRA.REPUL.0>
0

>  <SCORE.INTRA.SOLV>
-0.0122389

>  <SCORE.INTRA.SOLV.lig_0>
-31.4704

>  <SCORE.INTRA.VDW>
-11.4781

>  <SCORE.INTRA.VDW.0>
10.2807

>  <SCORE.INTRA.norm>
-0.491809

>  <SCORE.RESTR>
0

>  <SCORE.RESTR.CAVITY>
0

>  <SCORE.RESTR.norm>
0

>  <SCORE.SYSTEM>
0

>  <SCORE.SYSTEM.CONST>
0

>  <SCORE.SYSTEM.DIHEDRAL>
0

>  <SCORE.SYSTEM.SOLV>
0

>  <SCORE.SYSTEM.norm>
0

>  <SCORE.heavy>
24

>  <SCORE.norm>
-1.58597

>  <RMSD>
1.036

$$$$
ligand
 OpenBabel11021811493D
libRbt.so/2013.1/901 2013/11/27
 24 26  0  0  0  0  0  0  0  0999 V2000
    7.1216  -10.8910  -11.3291 N   0  0  0  0  0  0  0  0  0  0  0  0
    6.2943  -12.0835  -11.4174 C   0  0  0  0  0  0  0  0  0  0  0  0
   13.2066   -6.2862  -13.2395 O   0  0  0  0  0  0  0  0  0  0  0  0
   11.9777   -5.7747  -12.8445 C   0  0  0  0  0  0  0  0  0  0  0  0
    8.1208   -4.3783  -11.6472 N   0  0  0  0  0  0  0  0  0  0  0  0
   11.6926   -4.2970  -12.8910 C   0  0  0  0  0  0  0  0  0  0  0  0
    8.4618   -6.5954  -11.5293 N   0  0  0  0  0  0  0  0  0  0  0  0
   10.4243   -3.7470  -12.5157 C   0  0  0  0  0  0  0  0  0  0  0  0
    6.2095   -5.7523  -10.8272 N   0  0  0  0  0  0  0  0  0  0  0  0
    9.4226   -4.6807  -12.0705 C   0  0  0  0  0  0  0  0  0  0  0  0
   12.4205  -10.8288  -11.9406 N   0  0  0  0  0  0  0  0  0  0  0  0
    9.6868   -6.0932  -12.0067 C   0  0  0  0  0  0  0  0  0  0  0  0
   11.0161   -6.6220  -12.4178 C   0  0  0  0  0  0  0  0  0  0  0  0
    7.5428   -5.5716  -11.3246 C   0  0  0  0  0  0  0  0  0  0  0  0
   11.2726   -8.1160  -12.3527 C   0  0  0  0  0  0  0  0  0  0  0  0
   12.7237   -8.5335  -12.5661 C   0  0  1  0  0  0  0  0  0  0  0  0
   13.6737   -7.3711  -12.5180 C   0  0  0  0  0  0  0  0  0  0  0  0
   13.1100   -9.6078  -11.5607 C   0  0  0  0  0  0  0  0  0  0  0  0
    8.1628   -8.0296  -11.3540 C   0  0  0  0  0  0  0  0  0  0  0  0
   13.2886  -11.5926  -12.8265 C   0  0  0  0  0  0  0  0  0  0  0  0
   12.1704  -11.5859  -10.7242 C   0  0  0  0  0  0  0  0  0  0  0  0
    7.2021   -8.6358  -12.3914 C   0  0  0  0  0  0  0  0  0  0  0  0
    6.3386   -9.7002  -11.6887 C   0  0  0  0  0  0  0  0  0  0  0  0
    7.6346  -10.7955   -9.9671 C   0  0  0  0  0  0  0  0  0  0  0  0
  1 23  1  0  0  0  0
  1 24  1  0  0  0  0
  1  2  1  0  0  0  0
  3  4  1  0  0  0  0
  3 17  1  0  0  0  0
  4  6  2  0  0  0  0
  4 13  1  0  0  0  0
  5 10  1  0  0  0  0
  5 14  2  0  0  0  0
  6  8  1  0  0  0  0
  7 12  1  0  0  0  0
  7 14  1  0  0  0  0
  7 19  1  0  0  0  0
  8 10  2  0  0  0  0
  9 14  1  0  0  0  0
 10 12  1  0  0  0  0
 11 18  1  0  0  0  0
 11 20  1  0  0  0  0
 11 21  1  0  0  0  0
 12 13  2  0  0  0  0
 13 15  1  0  0  0  0
 15 16  1  0  0  0  0
 16 17  1  0  0  0  0
 16 18  1  1  0  0  0
 19 22  1  0  0  0  0
 22 23  1  0  0  0  0
M  END
>  <CHROM.1>
-146.85914449,-106.62644822,91.55527522,71.27685157,-145.25948291,-70.37340662
9.96332326,-7.95991340,-11.89589823,-2.58359413,0.18735049,-0.11666028

>  <Name>
ligand

>  <RI>
0

>  <Rbt.Current_Directory>
/home/itssahil/PROJECTS/Mol_Feturizer/New_Systems/rnas/3TZR

>  <Rbt.Executable>
rbdock ($Id: //depot/dev/client3/rdock/2013.1/src/exe/rbdock.cxx#4 $)

>  <Rbt.Library>
libRbt.so (2013.1, Build901 2013/11/27)

>  <Rbt.Parameter_File>
/export/apps/rDock/src/rDock_2013.1_src/data/scripts/dock_solv.prm

>  <Rbt.Receptor>
prm/blind_docking_80.prm

>  <SCORE>
-32.0899

>  <SCORE.INTER>
-23.5249

>  <SCORE.INTER.CONST>
1

>  <SCORE.INTER.POLAR>
0

>  <SCORE.INTER.ROT>
6

>  <SCORE.INTER.SOLV>
19.9509

>  <SCORE.INTER.VDW>
-29.9335

>  <SCORE.INTER.norm>
-0.980203

>  <SCORE.INTRA>
-8.56501

>  <SCORE.INTRA.DIHEDRAL>
3.16735

>  <SCORE.INTRA.DIHEDRAL.0>
4.94008

>  <SCORE.INTRA.POLAR>
0

>  <SCORE.INTRA.POLAR.0>
0

>  <SCORE.INTRA.REPUL>
0

>  <SCORE.INTRA.REPUL.0>
0

>  <SCORE.INTRA.SOLV>
1.08599

>  <SCORE.INTRA.SOLV.lig_0>
-31.4704

>  <SCORE.INTRA.VDW>
-10.6917

>  <SCORE.INTRA.VDW.0>
10.2807

>  <SCORE.INTRA.norm>
-0.356875

>  <SCORE.RESTR>
0

>  <SCORE.RESTR.CAVITY>
0

>  <SCORE.RESTR.norm>
0

>  <SCORE.SYSTEM>
0

>  <SCORE.SYSTEM.CONST>
0

>  <SCORE.SYSTEM.DIHEDRAL>
0

>  <SCORE.SYSTEM.SOLV>
0

>  <SCORE.SYSTEM.norm>
0

>  <SCORE.heavy>
24

>  <SCORE.norm>
-1.33708

>  <RMSD>
1.036

$$$$
ligand
 OpenBabel11021811493D
libRbt.so/2013.1/901 2013/11/27
 24 26  0  0  0  0  0  0  0  0999 V2000
    6.5592  -10.6917  -11.3278 N   0  0  0  0  0  0  0  0  0  0  0  0
    5.2565  -10.4367  -10.7344 C   0  0  0  0  0  0  0  0  0  0  0  0
   13.3230   -6.3189  -12.8839 O   0  0  0  0  0  0  0  0  0  0  0  0
   12.0395   -5.8212  -12.7033 C   0  0  0  0  0  0  0  0  0  0  0  0
    8.0205   -4.4677  -12.1789 N   0  0  0  0  0  0  0  0  0  0  0  0
   11.7515   -4.3460  -12.7924 C   0  0  0  0  0  0  0  0  0  0  0  0
    8.3590   -6.6820  -12.0125 N   0  0  0  0  0  0  0  0  0  0  0  0
   10.4322   -3.8100  -12.6378 C   0  0  0  0  0  0  0  0  0  0  0  0
    6.0112   -5.8640  -11.7033 N   0  0  0  0  0  0  0  0  0  0  0  0
    9.3786   -4.7555  -12.3741 C   0  0  0  0  0  0  0  0  0  0  0  0
   12.5597  -10.9170  -11.8369 N   0  0  0  0  0  0  0  0  0  0  0  0
    9.6423   -6.1658  -12.2713 C   0  0  0  0  0  0  0  0  0  0  0  0
   11.0277   -6.6798  -12.4507 C   0  0  0  0  0  0  0  0  0  0  0  0
    7.4081   -5.6681  -11.9644 C   0  0  0  0  0  0  0  0  0  0  0  0
   11.2846   -8.1716  -12.3481 C   0  0  0  0  0  0  0  0  0  0  0  0
   12.7549   -8.5743  -12.3115 C   0  0  1  0  0  0  0  0  0  0  0  0
   13.6707   -7.4033  -12.0971 C   0  0  0  0  0  0  0  0  0  0  0  0
   12.9744   -9.6503  -11.2588 C   0  0  0  0  0  0  0  0  0  0  0  0
    8.0490   -8.1200  -11.8963 C   0  0  0  0  0  0  0  0  0  0  0  0
   13.6771  -11.4676  -12.5920 C   0  0  0  0  0  0  0  0  0  0  0  0
   12.2213  -11.8085  -10.7387 C   0  0  0  0  0  0  0  0  0  0  0  0
    7.6179   -8.5917  -10.4969 C   0  0  0  0  0  0  0  0  0  0  0  0
    7.6227  -10.1319  -10.4817 C   0  0  0  0  0  0  0  0  0  0  0  0
    6.7113  -12.1339  -11.4839 C   0  0  0  0  0  0  0  0  0  0  0  0
  1 23  1  0  0  0  0
  1 24  1  0  0  0  0
  1  2  1  0  0  0  0
  3  4  1  0  0  0  0
  3 17  1  0  0  0  0
  4  6  2  0  0  0  0
  4 13  1  0  0  0  0
  5 10  1  0  0  0  0
  5 14  2  0  0  0  0
  6  8  1  0  0  0  0
  7 12  1  0  0  0  0
  7 14  1  0  0  0  0
  7 19  1  0  0  0  0
  8 10  2  0  0  0  0
  9 14  1  0  0  0  0
 10 12  1  0  0  0  0
 11 18  1  0  0  0  0
 11 20  1  0  0  0  0
 11 21  1  0  0  0  0
 12 13  2  0  0  0  0
 13 15  1  0  0  0  0
 15 16  1  0  0  0  0
 16 17  1  0  0  0  0
 16 18  1  1  0  0  0
 19 22  1  0  0  0  0
 22 23  1  0  0  0  0
M  END
>  <CHROM.1>
-69.59793092,113.15295687,85.19418109,79.88999572,-168.30622274,-68.59623308
9.92459010,-8.00394998,-11.87339734,-2.87435765,0.13586309,-0.17599434

>  <Name>
ligand

>  <RI>
0

>  <Rbt.Current_Directory>
/home/itssahil/PROJECTS/Mol_Feturizer/New_Systems/rnas/3TZR

>  <Rbt.Executable>
rbdock ($Id: //depot/dev/client3/rdock/2013.1/src/exe/rbdock.cxx#4 $)

>  <Rbt.Library>
libRbt.so (2013.1, Build901 2013/11/27)

>  <Rbt.Parameter_File>
/export/apps/rDock/src/rDock_2013.1_src/data/scripts/dock_solv.prm

>  <Rbt.Receptor>
prm/pocket_docking_2.prm

>  <SCORE>
-31.7989

>  <SCORE.INTER>
-21.8771

>  <SCORE.INTER.CONST>
1

>  <SCORE.INTER.POLAR>
0

>  <SCORE.INTER.ROT>
6

>  <SCORE.INTER.SOLV>
20.19

>  <SCORE.INTER.VDW>
-28.9148

>  <SCORE.INTER.norm>
-0.911547

>  <SCORE.INTRA>
-10.0967

>  <SCORE.INTRA.DIHEDRAL>
-0.580094

>  <SCORE.INTRA.DIHEDRAL.0>
4.94008

>  <SCORE.INTRA.POLAR>
0

>  <SCORE.INTRA.POLAR.0>
0

>  <SCORE.INTRA.REPUL>
0

>  <SCORE.INTRA.REPUL.0>
0

>  <SCORE.INTRA.SOLV>
0.519038

>  <SCORE.INTRA.SOLV.lig_0>
-31.4704

>  <SCORE.INTRA.VDW>
-10.0662

>  <SCORE.INTRA.VDW.0>
10.2807

>  <SCORE.INTRA.norm>
-0.420698

>  <SCORE.RESTR>
0.174941

>  <SCORE.RESTR.CAVITY>
0.174941

>  <SCORE.RESTR.norm>
0.00728921

>  <SCORE.SYSTEM>
0

>  <SCORE.SYSTEM.CONST>
0

>  <SCORE.SYSTEM.DIHEDRAL>
0

>  <SCORE.SYSTEM.SOLV>
0

>  <SCORE.SYSTEM.norm>
0

>  <SCORE.heavy>
24

>  <SCORE.norm>
-1.32495

>  <RMSD>
1.036

$$$$
ligand
 OpenBabel11021811493D
libRbt.so/2013.1/901 2013/11/27
 24 26  0  0  0  0  0  0  0  0999 V2000
    6.8003  -10.6618  -10.5239 N   0  0  0  0  0  0  0  0  0  0  0  0
    6.6385  -11.9379   -9.8460 C   0  0  0  0  0  0  0  0  0  0  0  0
   13.2507   -6.2923  -13.0923 O   0  0  0  0  0  0  0  0  0  0  0  0
   12.0015   -5.7808  -12.7673 C   0  0  0  0  0  0  0  0  0  0  0  0
    8.0817   -4.3823  -11.7985 N   0  0  0  0  0  0  0  0  0  0  0  0
   11.7371   -4.2986  -12.7696 C   0  0  0  0  0  0  0  0  0  0  0  0
    8.3885   -6.6070  -11.7534 N   0  0  0  0  0  0  0  0  0  0  0  0
   10.4505   -3.7471  -12.4654 C   0  0  0  0  0  0  0  0  0  0  0  0
    6.0995   -5.7629  -11.1836 N   0  0  0  0  0  0  0  0  0  0  0  0
    9.4081   -4.6848  -12.1372 C   0  0  0  0  0  0  0  0  0  0  0  0
   12.1863  -10.8263  -11.9604 N   0  0  0  0  0  0  0  0  0  0  0  0
    9.6511   -6.1024  -12.1162 C   0  0  0  0  0  0  0  0  0  0  0  0
   11.0015   -6.6319  -12.4506 C   0  0  0  0  0  0  0  0  0  0  0  0
    7.4681   -5.5801  -11.5725 C   0  0  0  0  0  0  0  0  0  0  0  0
   11.2359   -8.1308  -12.4326 C   0  0  0  0  0  0  0  0  0  0  0  0
   12.6942   -8.5595  -12.5561 C   0  0  1  0  0  0  0  0  0  0  0  0
   13.6507   -7.4139  -12.3867 C   0  0  0  0  0  0  0  0  0  0  0  0
   12.9925   -9.6814  -11.5731 C   0  0  0  0  0  0  0  0  0  0  0  0
    8.0614   -8.0431  -11.6640 C   0  0  0  0  0  0  0  0  0  0  0  0
   12.9480  -11.6277  -12.9087 C   0  0  0  0  0  0  0  0  0  0  0  0
   11.9246  -11.6029  -10.7588 C   0  0  0  0  0  0  0  0  0  0  0  0
    8.3164   -8.6946  -10.2938 C   0  0  0  0  0  0  0  0  0  0  0  0
    8.2011  -10.2221  -10.4544 C   0  0  0  0  0  0  0  0  0  0  0  0
    6.3649  -10.8249  -11.9064 C   0  0  0  0  0  0  0  0  0  0  0  0
  1 23  1  0  0  0  0
  1 24  1  0  0  0  0
  1  2  1  0  0  0  0
  3  4  1  0  0  0  0
  3 17  1  0  0  0  0
  4  6  2  0  0  0  0
  4 13  1  0  0  0  0
  5 10  1  0  0  0  0
  5 14  2  0  0  0  0
  6  8  1  0  0  0  0
  7 12  1  0  0  0  0
  7 14  1  0  0  0  0
  7 19  1  0  0  0  0
  8 10  2  0  0  0  0
  9 14  1  0  0  0  0
 10 12  1  0  0  0  0
 11 18  1  0  0  0  0
 11 20  1  0  0  0  0
 11 21  1  0  0  0  0
 12 13  2  0  0  0  0
 13 15  1  0  0  0  0
 15 16  1  0  0  0  0
 16 17  1  0  0  0  0
 16 18  1  1  0  0  0
 19 22  1  0  0  0  0
 22 23  1  0  0  0  0
M  END
>  <CHROM.1>
-143.63630682,89.29764382,89.52826731,64.18018680,-168.60433687,-77.49322638
9.97554518,-7.98203812,-11.78479313,2.16865562,-0.23455566,2.97441922

>  <Name>
ligand

>  <RI>
0

>  <Rbt.Current_Directory>
/home/itssahil/PROJECTS/Mol_Feturizer/New_Systems/rnas/3TZR

>  <Rbt.Executable>
rbdock ($Id: //depot/dev/client3/rdock/2013.1/src/exe/rbdock.cxx#4 $)

>  <Rbt.Library>
libRbt.so (2013.1, Build901 2013/11/27)

>  <Rbt.Parameter_File>
/export/apps/rDock/src/rDock_2013.1_src/data/scripts/dock_solv.prm

>  <Rbt.Receptor>
prm/blind_docking_100.prm

>  <SCORE>
-35.2851

>  <SCORE.INTER>
-24.3765

>  <SCORE.INTER.CONST>
1

>  <SCORE.INTER.POLAR>
0

>  <SCORE.INTER.ROT>
6

>  <SCORE.INTER.SOLV>
19.9106

>  <SCORE.INTER.VDW>
-30.4878

>  <SCORE.INTER.norm>
-1.01569

>  <SCORE.INTRA>
-10.9115

>  <SCORE.INTRA.DIHEDRAL>
0.801538

>  <SCORE.INTRA.DIHEDRAL.0>
4.94008

>  <SCORE.INTRA.POLAR>
0

>  <SCORE.INTRA.POLAR.0>
0

>  <SCORE.INTRA.REPUL>
0

>  <SCORE.INTRA.REPUL.0>
0

>  <SCORE.INTRA.SOLV>
0.0791924

>  <SCORE.INTRA.SOLV.lig_0>
-31.4704

>  <SCORE.INTRA.VDW>
-11.3519

>  <SCORE.INTRA.VDW.0>
10.2807

>  <SCORE.INTRA.norm>
-0.454648

>  <SCORE.RESTR>
0.00292214

>  <SCORE.RESTR.CAVITY>
0.00292214

>  <SCORE.RESTR.norm>
0.000121756

>  <SCORE.SYSTEM>
0

>  <SCORE.SYSTEM.CONST>
0

>  <SCORE.SYSTEM.DIHEDRAL>
0

>  <SCORE.SYSTEM.SOLV>
0

>  <SCORE.SYSTEM.norm>
0

>  <SCORE.heavy>
24

>  <SCORE.norm>
-1.47021

>  <RMSD>
1.037

$$$$
ligand
 OpenBabel11021811493D
libRbt.so/2013.1/901 2013/11/27
 24 26  0  0  0  0  0  0  0  0999 V2000
    8.5666  -11.1242   -9.2188 N   0  0  0  0  0  0  0  0  0  0  0  0
    9.4086  -12.1896   -9.7386 C   0  0  0  0  0  0  0  0  0  0  0  0
   13.2523   -6.3719  -13.1525 O   0  0  0  0  0  0  0  0  0  0  0  0
   12.0197   -5.8814  -12.7427 C   0  0  0  0  0  0  0  0  0  0  0  0
    8.1500   -4.5460  -11.5177 N   0  0  0  0  0  0  0  0  0  0  0  0
   11.7532   -4.4018  -12.6613 C   0  0  0  0  0  0  0  0  0  0  0  0
    8.4621   -6.7691  -11.5940 N   0  0  0  0  0  0  0  0  0  0  0  0
   10.4821   -3.8705  -12.2685 C   0  0  0  0  0  0  0  0  0  0  0  0
    6.2025   -5.9621  -10.8731 N   0  0  0  0  0  0  0  0  0  0  0  0
    9.4586   -4.8268  -11.9348 C   0  0  0  0  0  0  0  0  0  0  0  0
   13.1441  -11.0241  -12.6116 N   0  0  0  0  0  0  0  0  0  0  0  0
    9.7046   -6.2428  -11.9936 C   0  0  0  0  0  0  0  0  0  0  0  0
   11.0377   -6.7505  -12.4186 C   0  0  0  0  0  0  0  0  0  0  0  0
    7.5501   -5.7555  -11.3193 C   0  0  0  0  0  0  0  0  0  0  0  0
   11.2752   -8.2476  -12.4836 C   0  0  0  0  0  0  0  0  0  0  0  0
   12.7263   -8.6642  -12.6987 C   0  0  1  0  0  0  0  0  0  0  0  0
   13.6881   -7.5243  -12.5217 C   0  0  0  0  0  0  0  0  0  0  0  0
   13.0742   -9.8305  -11.7862 C   0  0  0  0  0  0  0  0  0  0  0  0
    8.1421   -8.2091  -11.5574 C   0  0  0  0  0  0  0  0  0  0  0  0
   14.5385  -11.4325  -12.7155 C   0  0  0  0  0  0  0  0  0  0  0  0
   12.3759  -12.0629  -11.9436 C   0  0  0  0  0  0  0  0  0  0  0  0
    8.1500   -8.8522  -10.1599 C   0  0  0  0  0  0  0  0  0  0  0  0
    7.9571  -10.3714  -10.3243 C   0  0  0  0  0  0  0  0  0  0  0  0
    7.5493  -11.7268   -8.3647 C   0  0  0  0  0  0  0  0  0  0  0  0
  1 23  1  0  0  0  0
  1 24  1  0  0  0  0
  1  2  1  0  0  0  0
  3  4  1  0  0  0  0
  3 17  1  0  0  0  0
  4  6  2  0  0  0  0
  4 13  1  0  0  0  0
  5 10  1  0  0  0  0
  5 14  2  0  0  0  0
  6  8  1  0  0  0  0
  7 12  1  0  0  0  0
  7 14  1  0  0  0  0
  7 19  1  0  0  0  0
  8 10  2  0  0  0  0
  9 14  1  0  0  0  0
 10 12  1  0  0  0  0
 11 18  1  0  0  0  0
 11 20  1  0  0  0  0
 11 21  1  0  0  0  0
 12 13  2  0  0  0  0
 13 15  1  0  0  0  0
 15 16  1  0  0  0  0
 16 17  1  0  0  0  0
 16 18  1  1  0  0  0
 19 22  1  0  0  0  0
 22 23  1  0  0  0  0
M  END
>  <CHROM.1>
-129.96720974,102.99596997,109.09566293,106.03613825,-173.64406314,152.63163775
10.38247951,-8.17543604,-11.57802601,1.14899249,-0.40147280,2.86668711

>  <Name>
ligand

>  <RI>
144

>  <Rbt.Current_Directory>
/home/itssahil/PROJECTS/Mol_Feturizer/New_Systems/rnas/3TZR

>  <Rbt.Executable>
rbdock ($Id: //depot/dev/client3/rdock/2013.1/src/exe/rbdock.cxx#4 $)

>  <Rbt.Library>
libRbt.so (2013.1, Build901 2013/11/27)

>  <Rbt.Parameter_File>
/export/apps/rDock/src/rDock_2013.1_src/data/scripts/dock_solv.prm

>  <Rbt.Receptor>
prm/blind_docking_60.prm

>  <SCORE>
-36.3432

>  <SCORE.INTER>
-27.9817

>  <SCORE.INTER.CONST>
1

>  <SCORE.INTER.POLAR>
-0.72111

>  <SCORE.INTER.ROT>
6

>  <SCORE.INTER.SOLV>
19.8686

>  <SCORE.INTER.VDW>
-30.4736

>  <SCORE.INTER.norm>
-1.1659

>  <SCORE.INTRA>
-8.36155

>  <SCORE.INTRA.DIHEDRAL>
7.85305

>  <SCORE.INTRA.DIHEDRAL.0>
4.94008

>  <SCORE.INTRA.POLAR>
0

>  <SCORE.INTRA.POLAR.0>
0

>  <SCORE.INTRA.REPUL>
0

>  <SCORE.INTRA.REPUL.0>
0

>  <SCORE.INTRA.SOLV>
0.0810741

>  <SCORE.INTRA.SOLV.lig_0>
-31.4704

>  <SCORE.INTRA.VDW>
-12.3286

>  <SCORE.INTRA.VDW.0>
10.2807

>  <SCORE.INTRA.norm>
-0.348398

>  <SCORE.RESTR>
0

>  <SCORE.RESTR.CAVITY>
0

>  <SCORE.RESTR.norm>
0

>  <SCORE.SYSTEM>
0

>  <SCORE.SYSTEM.CONST>
0

>  <SCORE.SYSTEM.DIHEDRAL>
0

>  <SCORE.SYSTEM.SOLV>
0

>  <SCORE.SYSTEM.norm>
0

>  <SCORE.heavy>
24

>  <SCORE.norm>
-1.5143

>  <RMSD>
1.037

$$$$
ligand
 OpenBabel11021811493D
libRbt.so/2013.1/901 2013/11/27
 24 26  0  0  0  0  0  0  0  0999 V2000
    7.5201  -10.7040  -10.8529 N   0  0  0  0  0  0  0  0  0  0  0  0
    6.4311  -11.4910  -11.4088 C   0  0  0  0  0  0  0  0  0  0  0  0
   13.8845   -7.4544  -13.0164 O   0  0  0  0  0  0  0  0  0  0  0  0
   12.7752   -6.6471  -12.8029 C   0  0  0  0  0  0  0  0  0  0  0  0
    9.2485   -4.3181  -12.1730 N   0  0  0  0  0  0  0  0  0  0  0  0
   12.8670   -5.1475  -12.9010 C   0  0  0  0  0  0  0  0  0  0  0  0
    9.0211   -6.5453  -11.9902 N   0  0  0  0  0  0  0  0  0  0  0  0
   11.7319   -4.2943  -12.7129 C   0  0  0  0  0  0  0  0  0  0  0  0
    6.9679   -5.1583  -11.6196 N   0  0  0  0  0  0  0  0  0  0  0  0
   10.4826   -4.9412  -12.4059 C   0  0  0  0  0  0  0  0  0  0  0  0
   12.0318  -11.7114  -11.8972 N   0  0  0  0  0  0  0  0  0  0  0  0
   10.3842   -6.3719  -12.2940 C   0  0  0  0  0  0  0  0  0  0  0  0
   11.5880   -7.2206  -12.5092 C   0  0  0  0  0  0  0  0  0  0  0  0
    8.3596   -5.3235  -11.9254 C   0  0  0  0  0  0  0  0  0  0  0  0
   11.4623   -8.7284  -12.3965 C   0  0  0  0  0  0  0  0  0  0  0  0
   12.7834   -9.4901  -12.3997 C   0  0  1  0  0  0  0  0  0  0  0  0
   13.9721   -8.5883  -12.2274 C   0  0  0  0  0  0  0  0  0  0  0  0
   12.7576  -10.5824  -11.3411 C   0  0  0  0  0  0  0  0  0  0  0  0
    8.3615   -7.8574  -11.8472 C   0  0  0  0  0  0  0  0  0  0  0  0
   12.9488  -12.4908  -12.7178 C   0  0  0  0  0  0  0  0  0  0  0  0
   11.5607  -12.5194  -10.7832 C   0  0  0  0  0  0  0  0  0  0  0  0
    8.1384   -8.3304  -10.4003 C   0  0  0  0  0  0  0  0  0  0  0  0
    7.0250   -9.3947  -10.4045 C   0  0  0  0  0  0  0  0  0  0  0  0
    8.1039  -11.4557   -9.7477 C   0  0  0  0  0  0  0  0  0  0  0  0
  1 23  1  0  0  0  0
  1 24  1  0  0  0  0
  1  2  1  0  0  0  0
  3  4  1  0  0  0  0
  3 17  1  0  0  0  0
  4  6  2  0  0  0  0
  4 13  1  0  0  0  0
  5 10  1  0  0  0  0
  5 14  2  0  0  0  0
  6  8  1  0  0  0  0
  7 12  1  0  0  0  0
  7 14  1  0  0  0  0
  7 19  1  0  0  0  0
  8 10  2  0  0  0  0
  9 14  1  0  0  0  0
 10 12  1  0  0  0  0
 11 18  1  0  0  0  0
 11 20  1  0  0  0  0
 11 21  1  0  0  0  0
 12 13  2  0  0  0  0
 13 15  1  0  0  0  0
 15 16  1  0  0  0  0
 16 17  1  0  0  0  0
 16 18  1  1  0  0  0
 19 22  1  0  0  0  0
 22 23  1  0  0  0  0
M  END
>  <CHROM.1>
-154.74198509,100.77234023,82.78280544,80.58420722,159.36126389,78.25749412
10.40762508,-8.34435958,-11.83465517,1.61883680,-0.24683584,2.96982878

>  <Name>
ligand

>  <RI>
0

>  <Rbt.Current_Directory>
/home/itssahil/PROJECTS/Mol_Feturizer/New_Systems/rnas/3TZR

>  <Rbt.Executable>
rbdock ($Id: //depot/dev/client3/rdock/2013.1/src/exe/rbdock.cxx#4 $)

>  <Rbt.Library>
libRbt.so (2013.1, Build901 2013/11/27)

>  <Rbt.Parameter_File>
/export/apps/rDock/src/rDock_2013.1_src/data/scripts/dock_solv.prm

>  <Rbt.Receptor>
prm/pocket_docking_3.prm

>  <SCORE>
-33.1683

>  <SCORE.INTER>
-23.27

>  <SCORE.INTER.CONST>
1

>  <SCORE.INTER.POLAR>
0

>  <SCORE.INTER.ROT>
6

>  <SCORE.INTER.SOLV>
20.2095

>  <SCORE.INTER.VDW>
-29.8498

>  <SCORE.INTER.norm>
-0.969583

>  <SCORE.INTRA>
-9.89833

>  <SCORE.INTRA.DIHEDRAL>
2.02972

>  <SCORE.INTRA.DIHEDRAL.0>
4.94008

>  <SCORE.INTRA.POLAR>
0

>  <SCORE.INTRA.POLAR.0>
0

>  <SCORE.INTRA.REPUL>
0

>  <SCORE.INTRA.REPUL.0>
0

>  <SCORE.INTRA.SOLV>
0.600517

>  <SCORE.INTRA.SOLV.lig_0>
-31.4704

>  <SCORE.INTRA.VDW>
-11.2135

>  <SCORE.INTRA.VDW.0>
10.2807

>  <SCORE.INTRA.norm>
-0.412431

>  <SCORE.RESTR>
0

>  <SCORE.RESTR.CAVITY>
0

>  <SCORE.RESTR.norm>
0

>  <SCORE.SYSTEM>
0

>  <SCORE.SYSTEM.CONST>
0

>  <SCORE.SYSTEM.DIHEDRAL>
0

>  <SCORE.SYSTEM.SOLV>
0

>  <SCORE.SYSTEM.norm>
0

>  <SCORE.heavy>
24

>  <SCORE.norm>
-1.38201

>  <RMSD>
1.037

$$$$
ligand
 OpenBabel11021811493D
libRbt.so/2013.1/901 2013/11/27
 24 26  0  0  0  0  0  0  0  0999 V2000
    8.6557  -11.1544   -9.4695 N   0  0  0  0  0  0  0  0  0  0  0  0
    8.6033  -12.5436   -9.8958 C   0  0  0  0  0  0  0  0  0  0  0  0
   13.2633   -6.2992  -12.9715 O   0  0  0  0  0  0  0  0  0  0  0  0
   12.0126   -5.7990  -12.6349 C   0  0  0  0  0  0  0  0  0  0  0  0
    8.0884   -4.4338  -11.6369 N   0  0  0  0  0  0  0  0  0  0  0  0
   11.7489   -4.3175  -12.5851 C   0  0  0  0  0  0  0  0  0  0  0  0
    8.3939   -6.6589  -11.6704 N   0  0  0  0  0  0  0  0  0  0  0  0
   10.4610   -3.7765  -12.2680 C   0  0  0  0  0  0  0  0  0  0  0  0
    6.1024   -5.8344  -11.0825 N   0  0  0  0  0  0  0  0  0  0  0  0
    9.4164   -4.7247  -11.9792 C   0  0  0  0  0  0  0  0  0  0  0  0
   12.8544  -10.9703  -12.3379 N   0  0  0  0  0  0  0  0  0  0  0  0
    9.6587   -6.1423  -12.0082 C   0  0  0  0  0  0  0  0  0  0  0  0
   11.0105   -6.6603  -12.3544 C   0  0  0  0  0  0  0  0  0  0  0  0
    7.4731   -5.6385  -11.4574 C   0  0  0  0  0  0  0  0  0  0  0  0
   11.2442   -8.1590  -12.3891 C   0  0  0  0  0  0  0  0  0  0  0  0
   12.7029   -8.5839  -12.5204 C   0  0  1  0  0  0  0  0  0  0  0  0
   13.6590   -7.4458  -12.3047 C   0  0  0  0  0  0  0  0  0  0  0  0
   12.9955   -9.7408  -11.5770 C   0  0  0  0  0  0  0  0  0  0  0  0
    8.0658   -8.0971  -11.6346 C   0  0  0  0  0  0  0  0  0  0  0  0
   14.1664  -11.3556  -12.8400 C   0  0  0  0  0  0  0  0  0  0  0  0
   12.3561  -11.9914  -11.4298 C   0  0  0  0  0  0  0  0  0  0  0  0
    8.4222   -8.8235  -10.3262 C   0  0  0  0  0  0  0  0  0  0  0  0
    7.9823  -10.2941  -10.4529 C   0  0  0  0  0  0  0  0  0  0  0  0
    8.0208  -11.0582   -8.1599 C   0  0  0  0  0  0  0  0  0  0  0  0
  1 23  1  0  0  0  0
  1 24  1  0  0  0  0
  1  2  1  0  0  0  0
  3  4  1  0  0  0  0
  3 17  1  0  0  0  0
  4  6  2  0  0  0  0
  4 13  1  0  0  0  0
  5 10  1  0  0  0  0
  5 14  2  0  0  0  0
  6  8  1  0  0  0  0
  7 12  1  0  0  0  0
  7 14  1  0  0  0  0
  7 19  1  0  0  0  0
  8 10  2  0  0  0  0
  9 14  1  0  0  0  0
 10 12  1  0  0  0  0
 11 18  1  0  0  0  0
 11 20  1  0  0  0  0
 11 21  1  0  0  0  0
 12 13  2  0  0  0  0
 13 15  1  0  0  0  0
 15 16  1  0  0  0  0
 16 17  1  0  0  0  0
 16 18  1  1  0  0  0
 19 22  1  0  0  0  0
 22 23  1  0  0  0  0
M  END
>  <CHROM.1>
-159.90919141,84.40814754,94.15099970,95.45661808,178.64778373,161.28545566
10.32563186,-8.08650563,-11.55010491,1.27999285,-0.36331921,2.86927960

>  <Name>
ligand

>  <RI>
144

>  <Rbt.Current_Directory>
/home/itssahil/PROJECTS/Mol_Feturizer/New_Systems/rnas/3TZR

>  <Rbt.Executable>
rbdock ($Id: //depot/dev/client3/rdock/2013.1/src/exe/rbdock.cxx#4 $)

>  <Rbt.Library>
libRbt.so (2013.1, Build901 2013/11/27)

>  <Rbt.Parameter_File>
/export/apps/rDock/src/rDock_2013.1_src/data/scripts/dock_solv.prm

>  <Rbt.Receptor>
prm/blind_docking_60.prm

>  <SCORE>
-36.9151

>  <SCORE.INTER>
-26.7471

>  <SCORE.INTER.CONST>
1

>  <SCORE.INTER.POLAR>
-0.72111

>  <SCORE.INTER.ROT>
6

>  <SCORE.INTER.SOLV>
19.9621

>  <SCORE.INTER.VDW>
-29.6817

>  <SCORE.INTER.norm>
-1.11446

>  <SCORE.INTRA>
-10.168

>  <SCORE.INTRA.DIHEDRAL>
2.96214

>  <SCORE.INTRA.DIHEDRAL.0>
4.94008

>  <SCORE.INTRA.POLAR>
0

>  <SCORE.INTRA.POLAR.0>
0

>  <SCORE.INTRA.REPUL>
0

>  <SCORE.INTRA.REPUL.0>
0

>  <SCORE.INTRA.SOLV>
-0.166443

>  <SCORE.INTRA.SOLV.lig_0>
-31.4704

>  <SCORE.INTRA.VDW>
-11.5658

>  <SCORE.INTRA.VDW.0>
10.2807

>  <SCORE.INTRA.norm>
-0.423666

>  <SCORE.RESTR>
0

>  <SCORE.RESTR.CAVITY>
0

>  <SCORE.RESTR.norm>
0

>  <SCORE.SYSTEM>
0

>  <SCORE.SYSTEM.CONST>
0

>  <SCORE.SYSTEM.DIHEDRAL>
0

>  <SCORE.SYSTEM.SOLV>
0

>  <SCORE.SYSTEM.norm>
0

>  <SCORE.heavy>
24

>  <SCORE.norm>
-1.53813

>  <RMSD>
1.038

$$$$
ligand
 OpenBabel11021811493D
libRbt.so/2013.1/901 2013/11/27
 24 26  0  0  0  0  0  0  0  0999 V2000
    8.6487  -11.1331   -9.5229 N   0  0  0  0  0  0  0  0  0  0  0  0
    8.5544  -12.5335   -9.9030 C   0  0  0  0  0  0  0  0  0  0  0  0
   13.2926   -6.3237  -12.9540 O   0  0  0  0  0  0  0  0  0  0  0  0
   12.0154   -5.8342  -12.7155 C   0  0  0  0  0  0  0  0  0  0  0  0
    8.0152   -4.5054  -12.0144 N   0  0  0  0  0  0  0  0  0  0  0  0
   11.7212   -4.3583  -12.7594 C   0  0  0  0  0  0  0  0  0  0  0  0
    8.3642   -6.7220  -11.9124 N   0  0  0  0  0  0  0  0  0  0  0  0
   10.4072   -3.8299  -12.5447 C   0  0  0  0  0  0  0  0  0  0  0  0
    6.0274   -5.9186  -11.4993 N   0  0  0  0  0  0  0  0  0  0  0  0
    9.3659   -4.7845  -12.2653 C   0  0  0  0  0  0  0  0  0  0  0  0
   12.3114  -10.8828  -11.8507 N   0  0  0  0  0  0  0  0  0  0  0  0
    9.6362   -6.1960  -12.2052 C   0  0  0  0  0  0  0  0  0  0  0  0
   11.0153   -6.7015  -12.4466 C   0  0  0  0  0  0  0  0  0  0  0  0
    7.4135   -5.7124  -11.8061 C   0  0  0  0  0  0  0  0  0  0  0  0
   11.2790   -8.1946  -12.3884 C   0  0  0  0  0  0  0  0  0  0  0  0
   12.7506   -8.5936  -12.4145 C   0  0  1  0  0  0  0  0  0  0  0  0
   13.6710   -7.4252  -12.2059 C   0  0  0  0  0  0  0  0  0  0  0  0
   13.0103   -9.6932  -11.3959 C   0  0  0  0  0  0  0  0  0  0  0  0
    8.0618   -8.1632  -11.8188 C   0  0  0  0  0  0  0  0  0  0  0  0
   13.1580  -11.5766  -12.8118 C   0  0  0  0  0  0  0  0  0  0  0  0
   12.0893  -11.7300  -10.6894 C   0  0  0  0  0  0  0  0  0  0  0  0
    8.5163   -8.8505  -10.5196 C   0  0  0  0  0  0  0  0  0  0  0  0
    7.9665  -10.2893  -10.5144 C   0  0  0  0  0  0  0  0  0  0  0  0
    8.0534  -10.9818   -8.2000 C   0  0  0  0  0  0  0  0  0  0  0  0
  1 23  1  0  0  0  0
  1 24  1  0  0  0  0
  1  2  1  0  0  0  0
  3  4  1  0  0  0  0
  3 17  1  0  0  0  0
  4  6  2  0  0  0  0
  4 13  1  0  0  0  0
  5 10  1  0  0  0  0
  5 14  2  0  0  0  0
  6  8  1  0  0  0  0
  7 12  1  0  0  0  0
  7 14  1  0  0  0  0
  7 19  1  0  0  0  0
  8 10  2  0  0  0  0
  9 14  1  0  0  0  0
 10 12  1  0  0  0  0
 11 18  1  0  0  0  0
 11 20  1  0  0  0  0
 11 21  1  0  0  0  0
 12 13  2  0  0  0  0
 13 15  1  0  0  0  0
 15 16  1  0  0  0  0
 16 17  1  0  0  0  0
 16 18  1  1  0  0  0
 19 22  1  0  0  0  0
 22 23  1  0  0  0  0
M  END
>  <CHROM.1>
-155.59964185,77.11848152,84.07615249,67.18847880,172.86816525,163.82587805
10.23676368,-8.10250434,-11.59788765,1.48279799,-0.30295774,2.82095752

>  <Name>
ligand

>  <RI>
0

>  <Rbt.Current_Directory>
/home/itssahil/PROJECTS/Mol_Feturizer/New_Systems/rnas/3TZR

>  <Rbt.Executable>
rbdock ($Id: //depot/dev/client3/rdock/2013.1/src/exe/rbdock.cxx#4 $)

>  <Rbt.Library>
libRbt.so (2013.1, Build901 2013/11/27)

>  <Rbt.Parameter_File>
/export/apps/rDock/src/rDock_2013.1_src/data/scripts/dock_solv.prm

>  <Rbt.Receptor>
prm/pocket_docking_4.prm

>  <SCORE>
-38.1222

>  <SCORE.INTER>
-26.4063

>  <SCORE.INTER.CONST>
1

>  <SCORE.INTER.POLAR>
-0.717138

>  <SCORE.INTER.ROT>
6

>  <SCORE.INTER.SOLV>
19.7897

>  <SCORE.INTER.VDW>
-29.4103

>  <SCORE.INTER.norm>
-1.10026

>  <SCORE.INTRA>
-11.7159

>  <SCORE.INTRA.DIHEDRAL>
-0.630253

>  <SCORE.INTRA.DIHEDRAL.0>
4.94008

>  <SCORE.INTRA.POLAR>
0

>  <SCORE.INTRA.POLAR.0>
0

>  <SCORE.INTRA.REPUL>
0

>  <SCORE.INTRA.REPUL.0>
0

>  <SCORE.INTRA.SOLV>
-0.0567282

>  <SCORE.INTRA.SOLV.lig_0>
-31.4704

>  <SCORE.INTRA.VDW>
-11.3724

>  <SCORE.INTRA.VDW.0>
10.2807

>  <SCORE.INTRA.norm>
-0.488164

>  <SCORE.RESTR>
0

>  <SCORE.RESTR.CAVITY>
0

>  <SCORE.RESTR.norm>
0

>  <SCORE.SYSTEM>
0

>  <SCORE.SYSTEM.CONST>
0

>  <SCORE.SYSTEM.DIHEDRAL>
0

>  <SCORE.SYSTEM.SOLV>
0

>  <SCORE.SYSTEM.norm>
0

>  <SCORE.heavy>
24

>  <SCORE.norm>
-1.58843

>  <RMSD>
1.039

$$$$
ligand
 OpenBabel11021811493D
libRbt.so/2013.1/901 2013/11/27
 24 26  0  0  0  0  0  0  0  0999 V2000
    8.6894  -11.2004   -9.4764 N   0  0  0  0  0  0  0  0  0  0  0  0
    8.7374  -12.5812   -9.9294 C   0  0  0  0  0  0  0  0  0  0  0  0
   13.2373   -6.3341  -12.9484 O   0  0  0  0  0  0  0  0  0  0  0  0
   11.9857   -5.8341  -12.6147 C   0  0  0  0  0  0  0  0  0  0  0  0
    8.0589   -4.4697  -11.6264 N   0  0  0  0  0  0  0  0  0  0  0  0
   11.7220   -4.3526  -12.5641 C   0  0  0  0  0  0  0  0  0  0  0  0
    8.3643   -6.6948  -11.6616 N   0  0  0  0  0  0  0  0  0  0  0  0
   10.4332   -3.8119  -12.2499 C   0  0  0  0  0  0  0  0  0  0  0  0
    6.0711   -5.8708  -11.0793 N   0  0  0  0  0  0  0  0  0  0  0  0
    9.3878   -4.7604  -11.9653 C   0  0  0  0  0  0  0  0  0  0  0  0
   12.3384  -10.9624  -12.1179 N   0  0  0  0  0  0  0  0  0  0  0  0
    9.6300   -6.1779  -11.9951 C   0  0  0  0  0  0  0  0  0  0  0  0
   10.9828   -6.6956  -12.3381 C   0  0  0  0  0  0  0  0  0  0  0  0
    7.4429   -5.6746  -11.4500 C   0  0  0  0  0  0  0  0  0  0  0  0
   11.2165   -8.1944  -12.3739 C   0  0  0  0  0  0  0  0  0  0  0  0
   12.6754   -8.6192  -12.5015 C   0  0  1  0  0  0  0  0  0  0  0  0
   13.6311   -7.4815  -12.2818 C   0  0  0  0  0  0  0  0  0  0  0  0
   12.9653   -9.7772  -11.5586 C   0  0  0  0  0  0  0  0  0  0  0  0
    8.0359   -8.1330  -11.6283 C   0  0  0  0  0  0  0  0  0  0  0  0
   13.2329  -11.5295  -13.1180 C   0  0  0  0  0  0  0  0  0  0  0  0
   12.1505  -11.9112  -11.0317 C   0  0  0  0  0  0  0  0  0  0  0  0
    8.4466   -8.8748  -10.3447 C   0  0  0  0  0  0  0  0  0  0  0  0
    8.0430  -10.3541  -10.4895 C   0  0  0  0  0  0  0  0  0  0  0  0
    7.9613  -11.1632   -8.2131 C   0  0  0  0  0  0  0  0  0  0  0  0
  1 23  1  0  0  0  0
  1 24  1  0  0  0  0
  1  2  1  0  0  0  0
  3  4  1  0  0  0  0
  3 17  1  0  0  0  0
  4  6  2  0  0  0  0
  4 13  1  0  0  0  0
  5 10  1  0  0  0  0
  5 14  2  0  0  0  0
  6  8  1  0  0  0  0
  7 12  1  0  0  0  0
  7 14  1  0  0  0  0
  7 19  1  0  0  0  0
  8 10  2  0  0  0  0
  9 14  1  0  0  0  0
 10 12  1  0  0  0  0
 11 18  1  0  0  0  0
 11 20  1  0  0  0  0
 11 21  1  0  0  0  0
 12 13  2  0  0  0  0
 13 15  1  0  0  0  0
 15 16  1  0  0  0  0
 16 17  1  0  0  0  0
 16 18  1  1  0  0  0
 19 22  1  0  0  0  0
 22 23  1  0  0  0  0
M  END
>  <CHROM.1>
-157.39753655,81.73887730,83.18492022,73.39206203,-179.43546451,165.53523955
10.24135319,-8.12674154,-11.53225283,1.43530245,-0.36637116,2.87503209

>  <Name>
ligand

>  <RI>
0

>  <Rbt.Current_Directory>
/home/itssahil/PROJECTS/Mol_Feturizer/New_Systems/rnas/3TZR

>  <Rbt.Executable>
rbdock ($Id: //depot/dev/client3/rdock/2013.1/src/exe/rbdock.cxx#4 $)

>  <Rbt.Library>
libRbt.so (2013.1, Build901 2013/11/27)

>  <Rbt.Parameter_File>
/export/apps/rDock/src/rDock_2013.1_src/data/scripts/dock_solv.prm

>  <Rbt.Receptor>
prm/pocket_docking_6.prm

>  <SCORE>
-37.9136

>  <SCORE.INTER>
-26.2197

>  <SCORE.INTER.CONST>
1

>  <SCORE.INTER.POLAR>
-0.72111

>  <SCORE.INTER.ROT>
6

>  <SCORE.INTER.SOLV>
19.8206

>  <SCORE.INTER.VDW>
-29.283

>  <SCORE.INTER.norm>
-1.09249

>  <SCORE.INTRA>
-11.694

>  <SCORE.INTRA.DIHEDRAL>
-0.72055

>  <SCORE.INTRA.DIHEDRAL.0>
4.94008

>  <SCORE.INTRA.POLAR>
0

>  <SCORE.INTRA.POLAR.0>
0

>  <SCORE.INTRA.REPUL>
0

>  <SCORE.INTRA.REPUL.0>
0

>  <SCORE.INTRA.SOLV>
-0.0675261

>  <SCORE.INTRA.SOLV.lig_0>
-31.4704

>  <SCORE.INTRA.VDW>
-11.2999

>  <SCORE.INTRA.VDW.0>
10.2807

>  <SCORE.INTRA.norm>
-0.487248

>  <SCORE.RESTR>
0

>  <SCORE.RESTR.CAVITY>
0

>  <SCORE.RESTR.norm>
0

>  <SCORE.SYSTEM>
0

>  <SCORE.SYSTEM.CONST>
0

>  <SCORE.SYSTEM.DIHEDRAL>
0

>  <SCORE.SYSTEM.SOLV>
0

>  <SCORE.SYSTEM.norm>
0

>  <SCORE.heavy>
24

>  <SCORE.norm>
-1.57974

>  <RMSD>
1.042

$$$$
ligand
 OpenBabel11021811493D
libRbt.so/2013.1/901 2013/11/27
 24 26  0  0  0  0  0  0  0  0999 V2000
    8.4700  -10.8762   -9.4944 N   0  0  0  0  0  0  0  0  0  0  0  0
    8.6326  -12.2464   -9.9530 C   0  0  0  0  0  0  0  0  0  0  0  0
   13.3004   -6.2997  -13.1610 O   0  0  0  0  0  0  0  0  0  0  0  0
   12.0579   -5.8127  -12.7780 C   0  0  0  0  0  0  0  0  0  0  0  0
    8.1597   -4.4896  -11.6323 N   0  0  0  0  0  0  0  0  0  0  0  0
   11.7754   -4.3345  -12.7343 C   0  0  0  0  0  0  0  0  0  0  0  0
    8.4952   -6.7105  -11.6530 N   0  0  0  0  0  0  0  0  0  0  0  0
   10.4942   -3.8075  -12.3697 C   0  0  0  0  0  0  0  0  0  0  0  0
    6.2187   -5.9106  -10.9791 N   0  0  0  0  0  0  0  0  0  0  0  0
    9.4763   -4.7664  -12.0266 C   0  0  0  0  0  0  0  0  0  0  0  0
   12.3547  -10.8815  -12.1199 N   0  0  0  0  0  0  0  0  0  0  0  0
    9.7373   -6.1807  -12.0493 C   0  0  0  0  0  0  0  0  0  0  0  0
   11.0807   -6.6842  -12.4459 C   0  0  0  0  0  0  0  0  0  0  0  0
    7.5696   -5.7004  -11.4133 C   0  0  0  0  0  0  0  0  0  0  0  0
   11.3341   -8.1799  -12.4732 C   0  0  0  0  0  0  0  0  0  0  0  0
   12.7919   -8.5863  -12.6606 C   0  0  1  0  0  0  0  0  0  0  0  0
   13.7399   -7.4326  -12.4982 C   0  0  0  0  0  0  0  0  0  0  0  0
   13.1401   -9.7275  -11.7170 C   0  0  0  0  0  0  0  0  0  0  0  0
    8.1893   -8.1525  -11.5869 C   0  0  0  0  0  0  0  0  0  0  0  0
   13.0692  -11.5786  -13.1807 C   0  0  0  0  0  0  0  0  0  0  0  0
   12.2270  -11.7497  -10.9600 C   0  0  0  0  0  0  0  0  0  0  0  0
    7.6324   -8.6487  -10.2414 C   0  0  0  0  0  0  0  0  0  0  0  0
    7.4720  -10.1786  -10.3177 C   0  0  0  0  0  0  0  0  0  0  0  0
    8.0679  -10.9123   -8.0929 C   0  0  0  0  0  0  0  0  0  0  0  0
  1 23  1  0  0  0  0
  1 24  1  0  0  0  0
  1  2  1  0  0  0  0
  3  4  1  0  0  0  0
  3 17  1  0  0  0  0
  4  6  2  0  0  0  0
  4 13  1  0  0  0  0
  5 10  1  0  0  0  0
  5 14  2  0  0  0  0
  6  8  1  0  0  0  0
  7 12  1  0  0  0  0
  7 14  1  0  0  0  0
  7 19  1  0  0  0  0
  8 10  2  0  0  0  0
  9 14  1  0  0  0  0
 10 12  1  0  0  0  0
 11 18  1  0  0  0  0
 11 20  1  0  0  0  0
 11 21  1  0  0  0  0
 12 13  2  0  0  0  0
 13 15  1  0  0  0  0
 15 16  1  0  0  0  0
 16 17  1  0  0  0  0
 16 18  1  1  0  0  0
 19 22  1  0  0  0  0
 22 23  1  0  0  0  0
M  END
>  <CHROM.1>
-158.67945466,126.63990367,85.21488429,65.34563892,-175.83591723,108.52165171
10.23936794,-8.05562326,-11.57079398,1.58761099,-0.39051870,2.86659622

>  <Name>
ligand

>  <RI>
0

>  <Rbt.Current_Directory>
/home/itssahil/PROJECTS/Mol_Feturizer/New_Systems/rnas/3TZR

>  <Rbt.Executable>
rbdock ($Id: //depot/dev/client3/rdock/2013.1/src/exe/rbdock.cxx#4 $)

>  <Rbt.Library>
libRbt.so (2013.1, Build901 2013/11/27)

>  <Rbt.Parameter_File>
/export/apps/rDock/src/rDock_2013.1_src/data/scripts/dock_solv.prm

>  <Rbt.Receptor>
prm/pocket_docking_6.prm

>  <SCORE>
-34.3246

>  <SCORE.INTER>
-25.6087

>  <SCORE.INTER.CONST>
1

>  <SCORE.INTER.POLAR>
-0.717507

>  <SCORE.INTER.ROT>
6

>  <SCORE.INTER.SOLV>
19.7034

>  <SCORE.INTER.VDW>
-28.8486

>  <SCORE.INTER.norm>
-1.06703

>  <SCORE.INTRA>
-8.71589

>  <SCORE.INTRA.DIHEDRAL>
3.03564

>  <SCORE.INTRA.DIHEDRAL.0>
4.94008

>  <SCORE.INTRA.POLAR>
0

>  <SCORE.INTRA.POLAR.0>
0

>  <SCORE.INTRA.REPUL>
0

>  <SCORE.INTRA.REPUL.0>
0

>  <SCORE.INTRA.SOLV>
0.98735

>  <SCORE.INTRA.SOLV.lig_0>
-31.4704

>  <SCORE.INTRA.VDW>
-10.7274

>  <SCORE.INTRA.VDW.0>
10.2807

>  <SCORE.INTRA.norm>
-0.363162

>  <SCORE.RESTR>
0

>  <SCORE.RESTR.CAVITY>
0

>  <SCORE.RESTR.norm>
0

>  <SCORE.SYSTEM>
0

>  <SCORE.SYSTEM.CONST>
0

>  <SCORE.SYSTEM.DIHEDRAL>
0

>  <SCORE.SYSTEM.SOLV>
0

>  <SCORE.SYSTEM.norm>
0

>  <SCORE.heavy>
24

>  <SCORE.norm>
-1.43019

>  <RMSD>
1.042

$$$$
ligand
 OpenBabel11021811493D
libRbt.so/2013.1/901 2013/11/27
 24 26  0  0  0  0  0  0  0  0999 V2000
    8.6586  -11.1570   -9.4723 N   0  0  0  0  0  0  0  0  0  0  0  0
    8.5828  -12.5479   -9.8894 C   0  0  0  0  0  0  0  0  0  0  0  0
   13.2530   -6.3856  -13.1070 O   0  0  0  0  0  0  0  0  0  0  0  0
   12.0186   -5.8643  -12.7432 C   0  0  0  0  0  0  0  0  0  0  0  0
    8.1409   -4.4333  -11.6593 N   0  0  0  0  0  0  0  0  0  0  0  0
   11.7795   -4.3786  -12.6935 C   0  0  0  0  0  0  0  0  0  0  0  0
    8.4105   -6.6631  -11.6907 N   0  0  0  0  0  0  0  0  0  0  0  0
   10.5080   -3.8161  -12.3485 C   0  0  0  0  0  0  0  0  0  0  0  0
    6.1466   -5.8001  -11.0527 N   0  0  0  0  0  0  0  0  0  0  0  0
    9.4557   -4.7465  -12.0314 C   0  0  0  0  0  0  0  0  0  0  0  0
   12.2226  -10.9705  -12.1727 N   0  0  0  0  0  0  0  0  0  0  0  0
    9.6749   -6.1679  -12.0601 C   0  0  0  0  0  0  0  0  0  0  0  0
   11.0099   -6.7085  -12.4357 C   0  0  0  0  0  0  0  0  0  0  0  0
    7.5111   -5.6274  -11.4604 C   0  0  0  0  0  0  0  0  0  0  0  0
   11.2191   -8.2109  -12.4696 C   0  0  0  0  0  0  0  0  0  0  0  0
   12.6674   -8.6594  -12.6333 C   0  0  1  0  0  0  0  0  0  0  0  0
   13.6461   -7.5358  -12.4448 C   0  0  0  0  0  0  0  0  0  0  0  0
   12.9638   -9.8171  -11.6921 C   0  0  0  0  0  0  0  0  0  0  0  0
    8.0606   -8.0957  -11.6411 C   0  0  0  0  0  0  0  0  0  0  0  0
   13.0274  -11.6500  -13.1788 C   0  0  0  0  0  0  0  0  0  0  0  0
   12.0052  -11.8540  -11.0379 C   0  0  0  0  0  0  0  0  0  0  0  0
    8.4687   -8.8311  -10.3529 C   0  0  0  0  0  0  0  0  0  0  0  0
    7.9941  -10.2927  -10.4581 C   0  0  0  0  0  0  0  0  0  0  0  0
    8.0312  -11.0428   -8.1605 C   0  0  0  0  0  0  0  0  0  0  0  0
  1 23  1  0  0  0  0
  1 24  1  0  0  0  0
  1  2  1  0  0  0  0
  3  4  1  0  0  0  0
  3 17  1  0  0  0  0
  4  6  2  0  0  0  0
  4 13  1  0  0  0  0
  5 10  1  0  0  0  0
  5 14  2  0  0  0  0
  6  8  1  0  0  0  0
  7 12  1  0  0  0  0
  7 14  1  0  0  0  0
  7 19  1  0  0  0  0
  8 10  2  0  0  0  0
  9 14  1  0  0  0  0
 10 12  1  0  0  0  0
 11 18  1  0  0  0  0
 11 20  1  0  0  0  0
 11 21  1  0  0  0  0
 12 13  2  0  0  0  0
 13 15  1  0  0  0  0
 15 16  1  0  0  0  0
 16 17  1  0  0  0  0
 16 18  1  1  0  0  0
 19 22  1  0  0  0  0
 22 23  1  0  0  0  0
M  END
>  <CHROM.1>
-159.28150839,82.89634568,86.21286633,69.19023605,178.43886967,163.68974974
10.23853721,-8.11798293,-11.58595150,1.49992297,-0.39469777,2.87173231

>  <Name>
ligand

>  <RI>
0

>  <Rbt.Current_Directory>
/home/itssahil/PROJECTS/Mol_Feturizer/New_Systems/rnas/3TZR

>  <Rbt.Executable>
rbdock ($Id: //depot/dev/client3/rdock/2013.1/src/exe/rbdock.cxx#4 $)

>  <Rbt.Library>
libRbt.so (2013.1, Build901 2013/11/27)

>  <Rbt.Parameter_File>
/export/apps/rDock/src/rDock_2013.1_src/data/scripts/dock_solv.prm

>  <Rbt.Receptor>
prm/pocket_docking_7.prm

>  <SCORE>
-38.1306

>  <SCORE.INTER>
-26.3928

>  <SCORE.INTER.CONST>
1

>  <SCORE.INTER.POLAR>
-0.72111

>  <SCORE.INTER.ROT>
6

>  <SCORE.INTER.SOLV>
20.178

>  <SCORE.INTER.VDW>
-29.5175

>  <SCORE.INTER.norm>
-1.0997

>  <SCORE.INTRA>
-11.7378

>  <SCORE.INTRA.DIHEDRAL>
-0.749882

>  <SCORE.INTRA.DIHEDRAL.0>
4.94008

>  <SCORE.INTRA.POLAR>
0

>  <SCORE.INTRA.POLAR.0>
0

>  <SCORE.INTRA.REPUL>
0

>  <SCORE.INTRA.REPUL.0>
0

>  <SCORE.INTRA.SOLV>
-0.029283

>  <SCORE.INTRA.SOLV.lig_0>
-31.4704

>  <SCORE.INTRA.VDW>
-11.3482

>  <SCORE.INTRA.VDW.0>
10.2807

>  <SCORE.INTRA.norm>
-0.489075

>  <SCORE.RESTR>
0

>  <SCORE.RESTR.CAVITY>
0

>  <SCORE.RESTR.norm>
0

>  <SCORE.SYSTEM>
0

>  <SCORE.SYSTEM.CONST>
0

>  <SCORE.SYSTEM.DIHEDRAL>
0

>  <SCORE.SYSTEM.SOLV>
0

>  <SCORE.SYSTEM.norm>
0

>  <SCORE.heavy>
24

>  <SCORE.norm>
-1.58878

>  <RMSD>
1.044

$$$$
ligand
 OpenBabel11021811493D
libRbt.so/2013.1/901 2013/11/27
 24 26  0  0  0  0  0  0  0  0999 V2000
    7.0570  -10.6499  -10.4308 N   0  0  0  0  0  0  0  0  0  0  0  0
    7.0362  -11.8757   -9.6489 C   0  0  0  0  0  0  0  0  0  0  0  0
   13.1416   -6.0886  -13.0453 O   0  0  0  0  0  0  0  0  0  0  0  0
   11.8536   -5.6276  -12.8080 C   0  0  0  0  0  0  0  0  0  0  0  0
    7.8250   -4.3893  -12.1037 N   0  0  0  0  0  0  0  0  0  0  0  0
   11.5165   -4.1630  -12.8997 C   0  0  0  0  0  0  0  0  0  0  0  0
    8.2391   -6.5902  -11.9290 N   0  0  0  0  0  0  0  0  0  0  0  0
   10.1903   -3.6651  -12.6870 C   0  0  0  0  0  0  0  0  0  0  0  0
    5.8850   -5.8395  -11.5150 N   0  0  0  0  0  0  0  0  0  0  0  0
    9.1803   -4.6386  -12.3616 C   0  0  0  0  0  0  0  0  0  0  0  0
   12.7101  -10.7065  -11.9629 N   0  0  0  0  0  0  0  0  0  0  0  0
    9.4919   -6.0388  -12.2558 C   0  0  0  0  0  0  0  0  0  0  0  0
   10.8822   -6.5130  -12.4967 C   0  0  0  0  0  0  0  0  0  0  0  0
    7.2609   -5.6049  -11.8461 C   0  0  0  0  0  0  0  0  0  0  0  0
   11.1895   -7.9950  -12.3899 C   0  0  0  0  0  0  0  0  0  0  0  0
   12.6716   -8.3526  -12.4204 C   0  0  1  0  0  0  0  0  0  0  0  0
   13.5602   -7.1519  -12.2642 C   0  0  0  0  0  0  0  0  0  0  0  0
   12.9747   -9.4079  -11.3675 C   0  0  0  0  0  0  0  0  0  0  0  0
    7.9795   -8.0352  -11.7816 C   0  0  0  0  0  0  0  0  0  0  0  0
   13.8591  -11.0852  -12.7740 C   0  0  0  0  0  0  0  0  0  0  0  0
   12.5396  -11.6586  -10.8766 C   0  0  0  0  0  0  0  0  0  0  0  0
    8.6019   -8.6947  -10.5388 C   0  0  0  0  0  0  0  0  0  0  0  0
    8.4426  -10.2211  -10.6689 C   0  0  0  0  0  0  0  0  0  0  0  0
    6.3578  -10.9012  -11.6859 C   0  0  0  0  0  0  0  0  0  0  0  0
  1 23  1  0  0  0  0
  1 24  1  0  0  0  0
  1  2  1  0  0  0  0
  3  4  1  0  0  0  0
  3 17  1  0  0  0  0
  4  6  2  0  0  0  0
  4 13  1  0  0  0  0
  5 10  1  0  0  0  0
  5 14  2  0  0  0  0
  6  8  1  0  0  0  0
  7 12  1  0  0  0  0
  7 14  1  0  0  0  0
  7 19  1  0  0  0  0
  8 10  2  0  0  0  0
  9 14  1  0  0  0  0
 10 12  1  0  0  0  0
 11 18  1  0  0  0  0
 11 20  1  0  0  0  0
 11 21  1  0  0  0  0
 12 13  2  0  0  0  0
 13 15  1  0  0  0  0
 15 16  1  0  0  0  0
 16 17  1  0  0  0  0
 16 18  1  1  0  0  0
 19 22  1  0  0  0  0
 22 23  1  0  0  0  0
M  END
>  <CHROM.1>
-139.54644006,70.69759732,80.90601998,86.03385771,-170.37510467,-73.99476365
10.02737168,-7.88915116,-11.83632317,1.37746624,-0.19161170,2.90962416

>  <Name>
ligand

>  <RI>
0

>  <Rbt.Current_Directory>
/home/itssahil/PROJECTS/Mol_Feturizer/New_Systems/rnas/3TZR

>  <Rbt.Executable>
rbdock ($Id: //depot/dev/client3/rdock/2013.1/src/exe/rbdock.cxx#4 $)

>  <Rbt.Library>
libRbt.so (2013.1, Build901 2013/11/27)

>  <Rbt.Parameter_File>
/export/apps/rDock/src/rDock_2013.1_src/data/scripts/dock_solv.prm

>  <Rbt.Receptor>
prm/pocket_docking_3.prm

>  <SCORE>
-34.1662

>  <SCORE.INTER>
-24.0055

>  <SCORE.INTER.CONST>
1

>  <SCORE.INTER.POLAR>
0

>  <SCORE.INTER.ROT>
6

>  <SCORE.INTER.SOLV>
20.2096

>  <SCORE.INTER.VDW>
-30.3402

>  <SCORE.INTER.norm>
-1.00023

>  <SCORE.INTRA>
-10.1608

>  <SCORE.INTRA.DIHEDRAL>
1.88515

>  <SCORE.INTRA.DIHEDRAL.0>
4.94008

>  <SCORE.INTRA.POLAR>
0

>  <SCORE.INTRA.POLAR.0>
0

>  <SCORE.INTRA.REPUL>
0

>  <SCORE.INTRA.REPUL.0>
0

>  <SCORE.INTRA.SOLV>
-0.277896

>  <SCORE.INTRA.SOLV.lig_0>
-31.4704

>  <SCORE.INTRA.VDW>
-10.9644

>  <SCORE.INTRA.VDW.0>
10.2807

>  <SCORE.INTRA.norm>
-0.423365

>  <SCORE.RESTR>
0

>  <SCORE.RESTR.CAVITY>
0

>  <SCORE.RESTR.norm>
0

>  <SCORE.SYSTEM>
0

>  <SCORE.SYSTEM.CONST>
0

>  <SCORE.SYSTEM.DIHEDRAL>
0

>  <SCORE.SYSTEM.SOLV>
0

>  <SCORE.SYSTEM.norm>
0

>  <SCORE.heavy>
24

>  <SCORE.norm>
-1.42359

>  <RMSD>
1.045

$$$$
ligand
 OpenBabel11021811493D
libRbt.so/2013.1/901 2013/11/27
 24 26  0  0  0  0  0  0  0  0999 V2000
    8.5699  -11.1055   -9.3597 N   0  0  0  0  0  0  0  0  0  0  0  0
    9.5046  -12.1404   -9.7714 C   0  0  0  0  0  0  0  0  0  0  0  0
   13.7551   -7.5319  -13.1292 O   0  0  0  0  0  0  0  0  0  0  0  0
   12.6483   -6.7628  -12.7957 C   0  0  0  0  0  0  0  0  0  0  0  0
    9.1302   -4.5505  -11.8019 N   0  0  0  0  0  0  0  0  0  0  0  0
   12.7138   -5.2586  -12.7858 C   0  0  0  0  0  0  0  0  0  0  0  0
    8.9441   -6.7889  -11.7747 N   0  0  0  0  0  0  0  0  0  0  0  0
   11.5791   -4.4422  -12.4727 C   0  0  0  0  0  0  0  0  0  0  0  0
    6.8957   -5.4702  -11.1900 N   0  0  0  0  0  0  0  0  0  0  0  0
   10.3579   -5.1324  -12.1477 C   0  0  0  0  0  0  0  0  0  0  0  0
   13.6095  -11.8205  -12.2253 N   0  0  0  0  0  0  0  0  0  0  0  0
   10.2857   -6.5690  -12.1384 C   0  0  0  0  0  0  0  0  0  0  0  0
   11.4872   -7.3776  -12.4818 C   0  0  0  0  0  0  0  0  0  0  0  0
    8.2704   -5.5873  -11.5826 C   0  0  0  0  0  0  0  0  0  0  0  0
   11.3889   -8.8917  -12.4759 C   0  0  0  0  0  0  0  0  0  0  0  0
   12.7181   -9.6273  -12.6082 C   0  0  1  0  0  0  0  0  0  0  0  0
   13.9020   -8.7195  -12.4335 C   0  0  0  0  0  0  0  0  0  0  0  0
   12.7663  -10.7953  -11.6348 C   0  0  0  0  0  0  0  0  0  0  0  0
    8.3116   -8.1196  -11.6950 C   0  0  0  0  0  0  0  0  0  0  0  0
   14.0529  -12.7191  -11.1681 C   0  0  0  0  0  0  0  0  0  0  0  0
   12.7991  -12.5531  -13.1856 C   0  0  0  0  0  0  0  0  0  0  0  0
    8.3990   -8.8114  -10.3237 C   0  0  0  0  0  0  0  0  0  0  0  0
    8.1390  -10.3165  -10.5226 C   0  0  0  0  0  0  0  0  0  0  0  0
    7.4357  -11.7522   -8.7095 C   0  0  0  0  0  0  0  0  0  0  0  0
  1 23  1  0  0  0  0
  1 24  1  0  0  0  0
  1  2  1  0  0  0  0
  3  4  1  0  0  0  0
  3 17  1  0  0  0  0
  4  6  2  0  0  0  0
  4 13  1  0  0  0  0
  5 10  1  0  0  0  0
  5 14  2  0  0  0  0
  6  8  1  0  0  0  0
  7 12  1  0  0  0  0
  7 14  1  0  0  0  0
  7 19  1  0  0  0  0
  8 10  2  0  0  0  0
  9 14  1  0  0  0  0
 10 12  1  0  0  0  0
 11 18  1  0  0  0  0
 11 20  1  0  0  0  0
 11 21  1  0  0  0  0
 12 13  2  0  0  0  0
 13 15  1  0  0  0  0
 15 16  1  0  0  0  0
 16 17  1  0  0  0  0
 16 18  1  1  0  0  0
 19 22  1  0  0  0  0
 22 23  1  0  0  0  0
M  END
>  <CHROM.1>
-124.60548594,90.34334284,160.45488852,150.33150574,-161.20083297,163.83570391
10.73761169,-8.60111418,-11.64946200,1.12134128,-0.39730997,2.88269688

>  <Name>
ligand

>  <RI>
144

>  <Rbt.Current_Directory>
/home/itssahil/PROJECTS/Mol_Feturizer/New_Systems/rnas/3TZR

>  <Rbt.Executable>
rbdock ($Id: //depot/dev/client3/rdock/2013.1/src/exe/rbdock.cxx#4 $)

>  <Rbt.Library>
libRbt.so (2013.1, Build901 2013/11/27)

>  <Rbt.Parameter_File>
/export/apps/rDock/src/rDock_2013.1_src/data/scripts/dock_solv.prm

>  <Rbt.Receptor>
prm/pocket_docking_8.prm

>  <SCORE>
-35.5722

>  <SCORE.INTER>
-26.001

>  <SCORE.INTER.CONST>
1

>  <SCORE.INTER.POLAR>
-0.706944

>  <SCORE.INTER.ROT>
6

>  <SCORE.INTER.SOLV>
19.8316

>  <SCORE.INTER.VDW>
-29.1881

>  <SCORE.INTER.norm>
-1.08338

>  <SCORE.INTRA>
-9.57121

>  <SCORE.INTRA.DIHEDRAL>
4.16539

>  <SCORE.INTRA.DIHEDRAL.0>
4.94008

>  <SCORE.INTRA.POLAR>
0

>  <SCORE.INTRA.POLAR.0>
0

>  <SCORE.INTRA.REPUL>
0

>  <SCORE.INTRA.REPUL.0>
0

>  <SCORE.INTRA.SOLV>
-0.131259

>  <SCORE.INTRA.SOLV.lig_0>
-31.4704

>  <SCORE.INTRA.VDW>
-11.5883

>  <SCORE.INTRA.VDW.0>
10.2807

>  <SCORE.INTRA.norm>
-0.398801

>  <SCORE.RESTR>
0

>  <SCORE.RESTR.CAVITY>
0

>  <SCORE.RESTR.norm>
0

>  <SCORE.SYSTEM>
0

>  <SCORE.SYSTEM.CONST>
0

>  <SCORE.SYSTEM.DIHEDRAL>
0

>  <SCORE.SYSTEM.SOLV>
0

>  <SCORE.SYSTEM.norm>
0

>  <SCORE.heavy>
24

>  <SCORE.norm>
-1.48218

>  <RMSD>
1.045

$$$$
ligand
 OpenBabel11021811493D
libRbt.so/2013.1/901 2013/11/27
 24 26  0  0  0  0  0  0  0  0999 V2000
    6.3686  -10.3567  -10.8106 N   0  0  0  0  0  0  0  0  0  0  0  0
    7.2399  -11.3040  -10.1341 C   0  0  0  0  0  0  0  0  0  0  0  0
   13.2359   -6.2990  -13.2248 O   0  0  0  0  0  0  0  0  0  0  0  0
   12.0101   -5.7832  -12.8261 C   0  0  0  0  0  0  0  0  0  0  0  0
    8.1603   -4.3716  -11.6239 N   0  0  0  0  0  0  0  0  0  0  0  0
   11.7456   -4.3010  -12.8289 C   0  0  0  0  0  0  0  0  0  0  0  0
    8.4700   -6.5957  -11.5724 N   0  0  0  0  0  0  0  0  0  0  0  0
   10.4811   -3.7454  -12.4491 C   0  0  0  0  0  0  0  0  0  0  0  0
    6.2221   -5.7439  -10.8665 N   0  0  0  0  0  0  0  0  0  0  0  0
    9.4622   -4.6786  -12.0435 C   0  0  0  0  0  0  0  0  0  0  0  0
   12.2804  -10.8335  -12.0022 N   0  0  0  0  0  0  0  0  0  0  0  0
    9.7065   -6.0960  -12.0215 C   0  0  0  0  0  0  0  0  0  0  0  0
   11.0327   -6.6300  -12.4358 C   0  0  0  0  0  0  0  0  0  0  0  0
    7.5629   -5.5663  -11.3447 C   0  0  0  0  0  0  0  0  0  0  0  0
   11.2683   -8.1287  -12.4152 C   0  0  0  0  0  0  0  0  0  0  0  0
   12.7157   -8.5595  -12.6273 C   0  0  1  0  0  0  0  0  0  0  0  0
   13.6808   -7.4125  -12.5331 C   0  0  0  0  0  0  0  0  0  0  0  0
   13.0769   -9.6699  -11.6523 C   0  0  0  0  0  0  0  0  0  0  0  0
    8.1498   -8.0305  -11.4453 C   0  0  0  0  0  0  0  0  0  0  0  0
   13.0610  -11.6745  -12.8995 C   0  0  0  0  0  0  0  0  0  0  0  0
   11.9986  -11.5560  -10.7717 C   0  0  0  0  0  0  0  0  0  0  0  0
    7.0488   -8.5476  -12.3872 C   0  0  0  0  0  0  0  0  0  0  0  0
    6.8838  -10.0613  -12.1551 C   0  0  0  0  0  0  0  0  0  0  0  0
    5.0311  -10.9353  -10.8717 C   0  0  0  0  0  0  0  0  0  0  0  0
  1 23  1  0  0  0  0
  1 24  1  0  0  0  0
  1  2  1  0  0  0  0
  3  4  1  0  0  0  0
  3 17  1  0  0  0  0
  4  6  2  0  0  0  0
  4 13  1  0  0  0  0
  5 10  1  0  0  0  0
  5 14  2  0  0  0  0
  6  8  1  0  0  0  0
  7 12  1  0  0  0  0
  7 14  1  0  0  0  0
  7 19  1  0  0  0  0
  8 10  2  0  0  0  0
  9 14  1  0  0  0  0
 10 12  1  0  0  0  0
 11 18  1  0  0  0  0
 11 20  1  0  0  0  0
 11 21  1  0  0  0  0
 12 13  2  0  0  0  0
 13 15  1  0  0  0  0
 15 16  1  0  0  0  0
 16 17  1  0  0  0  0
 16 18  1  1  0  0  0
 19 22  1  0  0  0  0
 22 23  1  0  0  0  0
M  END
>  <CHROM.1>
-126.43800253,-114.61736868,93.72835933,66.07435650,177.96797720,65.93669120
9.85801882,-7.92853011,-11.89526531,-2.80395023,0.20004889,-0.11604131

>  <Name>
ligand

>  <RI>
0

>  <Rbt.Current_Directory>
/home/itssahil/PROJECTS/Mol_Feturizer/New_Systems/rnas/3TZR

>  <Rbt.Executable>
rbdock ($Id: //depot/dev/client3/rdock/2013.1/src/exe/rbdock.cxx#4 $)

>  <Rbt.Library>
libRbt.so (2013.1, Build901 2013/11/27)

>  <Rbt.Parameter_File>
/export/apps/rDock/src/rDock_2013.1_src/data/scripts/dock_solv.prm

>  <Rbt.Receptor>
prm/blind_docking_40.prm

>  <SCORE>
-35.3978

>  <SCORE.INTER>
-24.5785

>  <SCORE.INTER.CONST>
1

>  <SCORE.INTER.POLAR>
0

>  <SCORE.INTER.ROT>
6

>  <SCORE.INTER.SOLV>
21.0716

>  <SCORE.INTER.VDW>
-31.0095

>  <SCORE.INTER.norm>
-1.0241

>  <SCORE.INTRA>
-10.8193

>  <SCORE.INTRA.DIHEDRAL>
0.305048

>  <SCORE.INTRA.DIHEDRAL.0>
4.94008

>  <SCORE.INTRA.POLAR>
0

>  <SCORE.INTRA.POLAR.0>
0

>  <SCORE.INTRA.REPUL>
0

>  <SCORE.INTRA.REPUL.0>
0

>  <SCORE.INTRA.SOLV>
0.728086

>  <SCORE.INTRA.SOLV.lig_0>
-31.4704

>  <SCORE.INTRA.VDW>
-11.3359

>  <SCORE.INTRA.VDW.0>
10.2807

>  <SCORE.INTRA.norm>
-0.450805

>  <SCORE.RESTR>
0

>  <SCORE.RESTR.CAVITY>
0

>  <SCORE.RESTR.norm>
0

>  <SCORE.SYSTEM>
0

>  <SCORE.SYSTEM.CONST>
0

>  <SCORE.SYSTEM.DIHEDRAL>
0

>  <SCORE.SYSTEM.SOLV>
0

>  <SCORE.SYSTEM.norm>
0

>  <SCORE.heavy>
24

>  <SCORE.norm>
-1.47491

>  <RMSD>
1.047

$$$$
ligand
 OpenBabel11021811493D
libRbt.so/2013.1/901 2013/11/27
 24 26  0  0  0  0  0  0  0  0999 V2000
    8.5739  -11.1233   -9.2606 N   0  0  0  0  0  0  0  0  0  0  0  0
    9.4757  -12.1804   -9.6894 C   0  0  0  0  0  0  0  0  0  0  0  0
   13.2608   -6.2344  -13.1136 O   0  0  0  0  0  0  0  0  0  0  0  0
   12.0126   -5.7630  -12.7295 C   0  0  0  0  0  0  0  0  0  0  0  0
    8.0984   -4.4879  -11.5842 N   0  0  0  0  0  0  0  0  0  0  0  0
   11.7197   -4.2878  -12.6599 C   0  0  0  0  0  0  0  0  0  0  0  0
    8.4492   -6.7057  -11.6443 N   0  0  0  0  0  0  0  0  0  0  0  0
   10.4327   -3.7763  -12.2937 C   0  0  0  0  0  0  0  0  0  0  0  0
    6.1630   -5.9339  -10.9702 N   0  0  0  0  0  0  0  0  0  0  0  0
    9.4192   -4.7483  -11.9752 C   0  0  0  0  0  0  0  0  0  0  0  0
   12.9532  -10.9183  -12.4934 N   0  0  0  0  0  0  0  0  0  0  0  0
    9.6900   -6.1602  -12.0227 C   0  0  0  0  0  0  0  0  0  0  0  0
   11.0394   -6.6471  -12.4200 C   0  0  0  0  0  0  0  0  0  0  0  0
    7.5152   -5.7065  -11.3917 C   0  0  0  0  0  0  0  0  0  0  0  0
   11.3031   -8.1404  -12.4737 C   0  0  0  0  0  0  0  0  0  0  0  0
   12.7648   -8.5333  -12.6593 C   0  0  1  0  0  0  0  0  0  0  0  0
   13.7039   -7.3766  -12.4693 C   0  0  0  0  0  0  0  0  0  0  0  0
   13.1149   -9.6897  -11.7350 C   0  0  0  0  0  0  0  0  0  0  0  0
    8.1527   -8.1507  -11.6072 C   0  0  0  0  0  0  0  0  0  0  0  0
   14.2746  -11.4268  -12.8357 C   0  0  0  0  0  0  0  0  0  0  0  0
   12.2655  -11.8725  -11.6378 C   0  0  0  0  0  0  0  0  0  0  0  0
    8.4077   -8.8429  -10.2572 C   0  0  0  0  0  0  0  0  0  0  0  0
    8.1128  -10.3459  -10.4196 C   0  0  0  0  0  0  0  0  0  0  0  0
    7.4544  -11.7403   -8.5581 C   0  0  0  0  0  0  0  0  0  0  0  0
  1 23  1  0  0  0  0
  1 24  1  0  0  0  0
  1  2  1  0  0  0  0
  3  4  1  0  0  0  0
  3 17  1  0  0  0  0
  4  6  2  0  0  0  0
  4 13  1  0  0  0  0
  5 10  1  0  0  0  0
  5 14  2  0  0  0  0
  6  8  1  0  0  0  0
  7 12  1  0  0  0  0
  7 14  1  0  0  0  0
  7 19  1  0  0  0  0
  8 10  2  0  0  0  0
  9 14  1  0  0  0  0
 10 12  1  0  0  0  0
 11 18  1  0  0  0  0
 11 20  1  0  0  0  0
 11 21  1  0  0  0  0
 12 13  2  0  0  0  0
 13 15  1  0  0  0  0
 15 16  1  0  0  0  0
 16 17  1  0  0  0  0
 16 18  1  1  0  0  0
 19 22  1  0  0  0  0
 22 23  1  0  0  0  0
M  END
>  <CHROM.1>
-124.46370197,91.70953832,105.13611904,94.60680262,-177.29915178,169.02399694
10.36893926,-8.09931650,-11.58970889,1.32153814,-0.38138486,2.86593740

>  <Name>
ligand

>  <RI>
0

>  <Rbt.Current_Directory>
/home/itssahil/PROJECTS/Mol_Feturizer/New_Systems/rnas/3TZR

>  <Rbt.Executable>
rbdock ($Id: //depot/dev/client3/rdock/2013.1/src/exe/rbdock.cxx#4 $)

>  <Rbt.Library>
libRbt.so (2013.1, Build901 2013/11/27)

>  <Rbt.Parameter_File>
/export/apps/rDock/src/rDock_2013.1_src/data/scripts/dock_solv.prm

>  <Rbt.Receptor>
prm/pocket_docking_5.prm

>  <SCORE>
-37.224

>  <SCORE.INTER>
-27.2513

>  <SCORE.INTER.CONST>
1

>  <SCORE.INTER.POLAR>
-0.72111

>  <SCORE.INTER.ROT>
6

>  <SCORE.INTER.SOLV>
19.7962

>  <SCORE.INTER.VDW>
-29.9626

>  <SCORE.INTER.norm>
-1.13547

>  <SCORE.INTRA>
-9.97262

>  <SCORE.INTRA.DIHEDRAL>
4.47208

>  <SCORE.INTRA.DIHEDRAL.0>
4.94008

>  <SCORE.INTRA.POLAR>
0

>  <SCORE.INTRA.POLAR.0>
0

>  <SCORE.INTRA.REPUL>
0

>  <SCORE.INTRA.REPUL.0>
0

>  <SCORE.INTRA.SOLV>
-0.0515365

>  <SCORE.INTRA.SOLV.lig_0>
-31.4704

>  <SCORE.INTRA.VDW>
-12.1829

>  <SCORE.INTRA.VDW.0>
10.2807

>  <SCORE.INTRA.norm>
-0.415526

>  <SCORE.RESTR>
0

>  <SCORE.RESTR.CAVITY>
0

>  <SCORE.RESTR.norm>
0

>  <SCORE.SYSTEM>
0

>  <SCORE.SYSTEM.CONST>
0

>  <SCORE.SYSTEM.DIHEDRAL>
0

>  <SCORE.SYSTEM.SOLV>
0

>  <SCORE.SYSTEM.norm>
0

>  <SCORE.heavy>
24

>  <SCORE.norm>
-1.551

>  <RMSD>
1.048

$$$$
ligand
 OpenBabel11021811493D
libRbt.so/2013.1/901 2013/11/27
 24 26  0  0  0  0  0  0  0  0999 V2000
    7.1488  -10.8896  -11.2449 N   0  0  0  0  0  0  0  0  0  0  0  0
    6.4045  -12.1343  -11.3496 C   0  0  0  0  0  0  0  0  0  0  0  0
   13.1197   -6.1526  -13.1654 O   0  0  0  0  0  0  0  0  0  0  0  0
   11.8678   -5.6771  -12.7987 C   0  0  0  0  0  0  0  0  0  0  0  0
    7.9461   -4.3939  -11.6887 N   0  0  0  0  0  0  0  0  0  0  0  0
   11.5384   -4.2093  -12.8604 C   0  0  0  0  0  0  0  0  0  0  0  0
    8.3528   -6.5986  -11.5498 N   0  0  0  0  0  0  0  0  0  0  0  0
   10.2463   -3.6966  -12.5144 C   0  0  0  0  0  0  0  0  0  0  0  0
    6.0617   -5.8216  -10.8988 N   0  0  0  0  0  0  0  0  0  0  0  0
    9.2650   -4.6583  -12.0836 C   0  0  0  0  0  0  0  0  0  0  0  0
   12.4402  -10.7075  -11.8484 N   0  0  0  0  0  0  0  0  0  0  0  0
    9.5712   -6.0616  -12.0054 C   0  0  0  0  0  0  0  0  0  0  0  0
   10.9243   -6.5513  -12.3861 C   0  0  0  0  0  0  0  0  0  0  0  0
    7.3987   -5.6027  -11.3703 C   0  0  0  0  0  0  0  0  0  0  0  0
   11.2254   -8.0363  -12.3062 C   0  0  0  0  0  0  0  0  0  0  0  0
   12.6927   -8.4099  -12.4876 C   0  0  1  0  0  0  0  0  0  0  0  0
   13.6052   -7.2184  -12.4276 C   0  0  0  0  0  0  0  0  0  0  0  0
   13.0913   -9.4659  -11.4676 C   0  0  0  0  0  0  0  0  0  0  0  0
    8.0947   -8.0404  -11.3713 C   0  0  0  0  0  0  0  0  0  0  0  0
   13.2773  -11.3862  -12.8284 C   0  0  0  0  0  0  0  0  0  0  0  0
   12.3237  -11.5248  -10.6509 C   0  0  0  0  0  0  0  0  0  0  0  0
    7.0905   -8.6589  -12.3593 C   0  0  0  0  0  0  0  0  0  0  0  0
    6.2962   -9.7532  -11.6217 C   0  0  0  0  0  0  0  0  0  0  0  0
    7.6258  -10.7611   -9.8726 C   0  0  0  0  0  0  0  0  0  0  0  0
  1 23  1  0  0  0  0
  1 24  1  0  0  0  0
  1  2  1  0  0  0  0
  3  4  1  0  0  0  0
  3 17  1  0  0  0  0
  4  6  2  0  0  0  0
  4 13  1  0  0  0  0
  5 10  1  0  0  0  0
  5 14  2  0  0  0  0
  6  8  1  0  0  0  0
  7 12  1  0  0  0  0
  7 14  1  0  0  0  0
  7 19  1  0  0  0  0
  8 10  2  0  0  0  0
  9 14  1  0  0  0  0
 10 12  1  0  0  0  0
 11 18  1  0  0  0  0
 11 20  1  0  0  0  0
 11 21  1  0  0  0  0
 12 13  2  0  0  0  0
 13 15  1  0  0  0  0
 15 16  1  0  0  0  0
 16 17  1  0  0  0  0
 16 18  1  1  0  0  0
 19 22  1  0  0  0  0
 22 23  1  0  0  0  0
M  END
>  <CHROM.1>
-144.48664201,-111.10241269,85.42341912,70.88598839,-145.58505844,-66.60312867
9.90241303,-7.91107004,-11.86134031,-2.63029312,0.17392111,-0.13524437

>  <Name>
ligand

>  <RI>
0

>  <Rbt.Current_Directory>
/home/itssahil/PROJECTS/Mol_Feturizer/New_Systems/rnas/3TZR

>  <Rbt.Executable>
rbdock ($Id: //depot/dev/client3/rdock/2013.1/src/exe/rbdock.cxx#4 $)

>  <Rbt.Library>
libRbt.so (2013.1, Build901 2013/11/27)

>  <Rbt.Parameter_File>
/export/apps/rDock/src/rDock_2013.1_src/data/scripts/dock_solv.prm

>  <Rbt.Receptor>
prm/pocket_docking_2.prm

>  <SCORE>
-31.7163

>  <SCORE.INTER>
-23.2412

>  <SCORE.INTER.CONST>
1

>  <SCORE.INTER.POLAR>
0

>  <SCORE.INTER.ROT>
6

>  <SCORE.INTER.SOLV>
19.6937

>  <SCORE.INTER.VDW>
-29.6587

>  <SCORE.INTER.norm>
-0.968385

>  <SCORE.INTRA>
-8.47509

>  <SCORE.INTRA.DIHEDRAL>
2.65158

>  <SCORE.INTRA.DIHEDRAL.0>
4.94008

>  <SCORE.INTRA.POLAR>
0

>  <SCORE.INTRA.POLAR.0>
0

>  <SCORE.INTRA.REPUL>
0

>  <SCORE.INTRA.REPUL.0>
0

>  <SCORE.INTRA.SOLV>
1.21852

>  <SCORE.INTRA.SOLV.lig_0>
-31.4704

>  <SCORE.INTRA.VDW>
-10.4101

>  <SCORE.INTRA.VDW.0>
10.2807

>  <SCORE.INTRA.norm>
-0.353129

>  <SCORE.RESTR>
0

>  <SCORE.RESTR.CAVITY>
0

>  <SCORE.RESTR.norm>
0

>  <SCORE.SYSTEM>
0

>  <SCORE.SYSTEM.CONST>
0

>  <SCORE.SYSTEM.DIHEDRAL>
0

>  <SCORE.SYSTEM.SOLV>
0

>  <SCORE.SYSTEM.norm>
0

>  <SCORE.heavy>
24

>  <SCORE.norm>
-1.32151

>  <RMSD>
1.049

$$$$
ligand
 OpenBabel11021811493D
libRbt.so/2013.1/901 2013/11/27
 24 26  0  0  0  0  0  0  0  0999 V2000
    6.6187  -10.3893  -10.7046 N   0  0  0  0  0  0  0  0  0  0  0  0
    6.3840  -11.7347  -10.2054 C   0  0  0  0  0  0  0  0  0  0  0  0
   13.6902   -6.9335  -12.9245 O   0  0  0  0  0  0  0  0  0  0  0  0
   12.5115   -6.2393  -12.6868 C   0  0  0  0  0  0  0  0  0  0  0  0
    8.7860   -4.2667  -11.9882 N   0  0  0  0  0  0  0  0  0  0  0  0
   12.4651   -4.7352  -12.7339 C   0  0  0  0  0  0  0  0  0  0  0  0
    8.7642   -6.5103  -11.8816 N   0  0  0  0  0  0  0  0  0  0  0  0
   11.2565   -3.9966  -12.5201 C   0  0  0  0  0  0  0  0  0  0  0  0
    6.5924   -5.3311  -11.4701 N   0  0  0  0  0  0  0  0  0  0  0  0
   10.0720   -4.7656  -12.2387 C   0  0  0  0  0  0  0  0  0  0  0  0
   12.5764  -11.4493  -12.0585 N   0  0  0  0  0  0  0  0  0  0  0  0
   10.1055   -6.2022  -12.1756 C   0  0  0  0  0  0  0  0  0  0  0  0
   11.3821   -6.9290  -12.4161 C   0  0  0  0  0  0  0  0  0  0  0  0
    7.9933   -5.3573  -11.7774 C   0  0  0  0  0  0  0  0  0  0  0  0
   11.3955   -8.4450  -12.3548 C   0  0  0  0  0  0  0  0  0  0  0  0
   12.7810   -9.0816  -12.3801 C   0  0  1  0  0  0  0  0  0  0  0  0
   13.8818   -8.0808  -12.1741 C   0  0  0  0  0  0  0  0  0  0  0  0
   12.8560  -10.2069  -11.3593 C   0  0  0  0  0  0  0  0  0  0  0  0
    8.2279   -7.8816  -11.7850 C   0  0  0  0  0  0  0  0  0  0  0  0
   13.8359  -12.0038  -12.5361 C   0  0  0  0  0  0  0  0  0  0  0  0
   11.9686  -12.3615  -11.1025 C   0  0  0  0  0  0  0  0  0  0  0  0
    8.1792   -8.4732  -10.3657 C   0  0  0  0  0  0  0  0  0  0  0  0
    8.0187  -10.0006  -10.4825 C   0  0  0  0  0  0  0  0  0  0  0  0
    6.2823  -10.3676  -12.1237 C   0  0  0  0  0  0  0  0  0  0  0  0
  1 23  1  0  0  0  0
  1 24  1  0  0  0  0
  1  2  1  0  0  0  0
  3  4  1  0  0  0  0
  3 17  1  0  0  0  0
  4  6  2  0  0  0  0
  4 13  1  0  0  0  0
  5 10  1  0  0  0  0
  5 14  2  0  0  0  0
  6  8  1  0  0  0  0
  7 12  1  0  0  0  0
  7 14  1  0  0  0  0
  7 19  1  0  0  0  0
  8 10  2  0  0  0  0
  9 14  1  0  0  0  0
 10 12  1  0  0  0  0
 11 18  1  0  0  0  0
 11 20  1  0  0  0  0
 11 21  1  0  0  0  0
 12 13  2  0  0  0  0
 13 15  1  0  0  0  0
 15 16  1  0  0  0  0
 16 17  1  0  0  0  0
 16 18  1  1  0  0  0
 19 22  1  0  0  0  0
 22 23  1  0  0  0  0
M  END
>  <CHROM.1>
-153.52433679,95.01375611,90.57453999,95.59559716,-162.89979825,-81.84923685
10.25755031,-8.13333613,-11.83029009,2.73244232,0.19666214,-0.14683446

>  <Name>
ligand

>  <RI>
0

>  <Rbt.Current_Directory>
/home/itssahil/PROJECTS/Mol_Feturizer/New_Systems/rnas/3TZR

>  <Rbt.Executable>
rbdock ($Id: //depot/dev/client3/rdock/2013.1/src/exe/rbdock.cxx#4 $)

>  <Rbt.Library>
libRbt.so (2013.1, Build901 2013/11/27)

>  <Rbt.Parameter_File>
/export/apps/rDock/src/rDock_2013.1_src/data/scripts/dock_solv.prm

>  <Rbt.Receptor>
prm/pocket_docking_5.prm

>  <SCORE>
-33.5282

>  <SCORE.INTER>
-24.8736

>  <SCORE.INTER.CONST>
1

>  <SCORE.INTER.POLAR>
0

>  <SCORE.INTER.ROT>
6

>  <SCORE.INTER.SOLV>
21.0293

>  <SCORE.INTER.VDW>
-31.1921

>  <SCORE.INTER.norm>
-1.0364

>  <SCORE.INTRA>
-8.65459

>  <SCORE.INTRA.DIHEDRAL>
4.56356

>  <SCORE.INTRA.DIHEDRAL.0>
4.94008

>  <SCORE.INTRA.POLAR>
0

>  <SCORE.INTRA.POLAR.0>
0

>  <SCORE.INTRA.REPUL>
0

>  <SCORE.INTRA.REPUL.0>
0

>  <SCORE.INTRA.SOLV>
0.0734785

>  <SCORE.INTRA.SOLV.lig_0>
-31.4704

>  <SCORE.INTRA.VDW>
-10.9731

>  <SCORE.INTRA.VDW.0>
10.2807

>  <SCORE.INTRA.norm>
-0.360608

>  <SCORE.RESTR>
0

>  <SCORE.RESTR.CAVITY>
0

>  <SCORE.RESTR.norm>
0

>  <SCORE.SYSTEM>
0

>  <SCORE.SYSTEM.CONST>
0

>  <SCORE.SYSTEM.DIHEDRAL>
0

>  <SCORE.SYSTEM.SOLV>
0

>  <SCORE.SYSTEM.norm>
0

>  <SCORE.heavy>
24

>  <SCORE.norm>
-1.39701

>  <RMSD>
1.049

$$$$
ligand
 OpenBabel11021811493D
libRbt.so/2013.1/901 2013/11/27
 24 26  0  0  0  0  0  0  0  0999 V2000
    7.0633  -10.7831  -10.8233 N   0  0  0  0  0  0  0  0  0  0  0  0
    5.6138  -10.7372  -10.9286 C   0  0  0  0  0  0  0  0  0  0  0  0
   13.2099   -5.9318  -12.9052 O   0  0  0  0  0  0  0  0  0  0  0  0
   11.8896   -5.5370  -12.7359 C   0  0  0  0  0  0  0  0  0  0  0  0
    7.7711   -4.5021  -12.2607 N   0  0  0  0  0  0  0  0  0  0  0  0
   11.5006   -4.0825  -12.7363 C   0  0  0  0  0  0  0  0  0  0  0  0
    8.2605   -6.6942  -12.2308 N   0  0  0  0  0  0  0  0  0  0  0  0
   10.1426   -3.6503  -12.5916 C   0  0  0  0  0  0  0  0  0  0  0  0
    5.8526   -6.0627  -11.9485 N   0  0  0  0  0  0  0  0  0  0  0  0
    9.1513   -4.6819  -12.4279 C   0  0  0  0  0  0  0  0  0  0  0  0
   12.5182  -10.6036  -12.1003 N   0  0  0  0  0  0  0  0  0  0  0  0
    9.5112   -6.0745  -12.4104 C   0  0  0  0  0  0  0  0  0  0  0  0
   10.9342   -6.4785  -12.5760 C   0  0  0  0  0  0  0  0  0  0  0  0
    7.2391   -5.7538  -12.1479 C   0  0  0  0  0  0  0  0  0  0  0  0
   11.2930   -7.9527  -12.5644 C   0  0  0  0  0  0  0  0  0  0  0  0
   12.7865   -8.2550  -12.5043 C   0  0  1  0  0  0  0  0  0  0  0  0
   13.6102   -7.0414  -12.1810 C   0  0  0  0  0  0  0  0  0  0  0  0
   13.0504   -9.3833  -11.5187 C   0  0  0  0  0  0  0  0  0  0  0  0
    8.0500   -8.1547  -12.2214 C   0  0  0  0  0  0  0  0  0  0  0  0
   13.5601  -11.2222  -12.9089 C   0  0  0  0  0  0  0  0  0  0  0  0
   12.1561  -11.4883  -11.0041 C   0  0  0  0  0  0  0  0  0  0  0  0
    8.6921   -8.9070  -11.0432 C   0  0  0  0  0  0  0  0  0  0  0  0
    7.5685   -9.5480  -10.2071 C   0  0  0  0  0  0  0  0  0  0  0  0
    7.4231  -11.9546  -10.0323 C   0  0  0  0  0  0  0  0  0  0  0  0
  1 23  1  0  0  0  0
  1 24  1  0  0  0  0
  1  2  1  0  0  0  0
  3  4  1  0  0  0  0
  3 17  1  0  0  0  0
  4  6  2  0  0  0  0
  4 13  1  0  0  0  0
  5 10  1  0  0  0  0
  5 14  2  0  0  0  0
  6  8  1  0  0  0  0
  7 12  1  0  0  0  0
  7 14  1  0  0  0  0
  7 19  1  0  0  0  0
  8 10  2  0  0  0  0
  9 14  1  0  0  0  0
 10 12  1  0  0  0  0
 11 18  1  0  0  0  0
 11 20  1  0  0  0  0
 11 21  1  0  0  0  0
 12 13  2  0  0  0  0
 13 15  1  0  0  0  0
 15 16  1  0  0  0  0
 16 17  1  0  0  0  0
 16 18  1  1  0  0  0
 19 22  1  0  0  0  0
 22 23  1  0  0  0  0
M  END
>  <CHROM.1>
-128.81581675,66.30594413,89.00712943,69.71035558,116.63556035,78.80852028
9.95582197,-7.87034773,-11.92952357,-2.54865520,0.16752425,-0.22329799

>  <Name>
ligand

>  <RI>
0

>  <Rbt.Current_Directory>
/home/itssahil/PROJECTS/Mol_Feturizer/New_Systems/rnas/3TZR

>  <Rbt.Executable>
rbdock ($Id: //depot/dev/client3/rdock/2013.1/src/exe/rbdock.cxx#4 $)

>  <Rbt.Library>
libRbt.so (2013.1, Build901 2013/11/27)

>  <Rbt.Parameter_File>
/export/apps/rDock/src/rDock_2013.1_src/data/scripts/dock_solv.prm

>  <Rbt.Receptor>
prm/pocket_docking_3.prm

>  <SCORE>
-33.5339

>  <SCORE.INTER>
-25.5027

>  <SCORE.INTER.CONST>
1

>  <SCORE.INTER.POLAR>
0

>  <SCORE.INTER.ROT>
6

>  <SCORE.INTER.SOLV>
20.6194

>  <SCORE.INTER.VDW>
-31.4749

>  <SCORE.INTER.norm>
-1.06261

>  <SCORE.INTRA>
-8.03122

>  <SCORE.INTRA.DIHEDRAL>
6.75562

>  <SCORE.INTRA.DIHEDRAL.0>
4.94008

>  <SCORE.INTRA.POLAR>
0

>  <SCORE.INTRA.POLAR.0>
0

>  <SCORE.INTRA.REPUL>
0

>  <SCORE.INTRA.REPUL.0>
0

>  <SCORE.INTRA.SOLV>
0.151146

>  <SCORE.INTRA.SOLV.lig_0>
-31.4704

>  <SCORE.INTRA.VDW>
-11.4846

>  <SCORE.INTRA.VDW.0>
10.2807

>  <SCORE.INTRA.norm>
-0.334634

>  <SCORE.RESTR>
0

>  <SCORE.RESTR.CAVITY>
0

>  <SCORE.RESTR.norm>
0

>  <SCORE.SYSTEM>
0

>  <SCORE.SYSTEM.CONST>
0

>  <SCORE.SYSTEM.DIHEDRAL>
0

>  <SCORE.SYSTEM.SOLV>
0

>  <SCORE.SYSTEM.norm>
0

>  <SCORE.heavy>
24

>  <SCORE.norm>
-1.39725

>  <RMSD>
1.054

$$$$
ligand
 OpenBabel11021811493D
libRbt.so/2013.1/901 2013/11/27
 24 26  0  0  0  0  0  0  0  0999 V2000
    8.5666  -11.1440   -9.2119 N   0  0  0  0  0  0  0  0  0  0  0  0
    9.4926  -12.1475   -9.7117 C   0  0  0  0  0  0  0  0  0  0  0  0
   13.7040   -7.3832  -13.1824 O   0  0  0  0  0  0  0  0  0  0  0  0
   12.5630   -6.6902  -12.8010 C   0  0  0  0  0  0  0  0  0  0  0  0
    8.9480   -4.7175  -11.6612 N   0  0  0  0  0  0  0  0  0  0  0  0
   12.5400   -5.1855  -12.7521 C   0  0  0  0  0  0  0  0  0  0  0  0
    8.8948   -6.9629  -11.6901 N   0  0  0  0  0  0  0  0  0  0  0  0
   11.3679   -4.4464  -12.3890 C   0  0  0  0  0  0  0  0  0  0  0  0
    6.7883   -5.7840  -11.0195 N   0  0  0  0  0  0  0  0  0  0  0  0
   10.1983   -5.2162  -12.0528 C   0  0  0  0  0  0  0  0  0  0  0  0
   13.6856  -11.7685  -12.4624 N   0  0  0  0  0  0  0  0  0  0  0  0
   10.2111   -6.6543  -12.0806 C   0  0  0  0  0  0  0  0  0  0  0  0
   11.4488   -7.3809  -12.4753 C   0  0  0  0  0  0  0  0  0  0  0  0
    8.1568   -5.8089  -11.4489 C   0  0  0  0  0  0  0  0  0  0  0  0
   11.4400   -8.8978  -12.5080 C   0  0  0  0  0  0  0  0  0  0  0  0
   12.8063   -9.5492  -12.6929 C   0  0  1  0  0  0  0  0  0  0  0  0
   13.9388   -8.5774  -12.5230 C   0  0  0  0  0  0  0  0  0  0  0  0
   12.9487  -10.7368  -11.7530 C   0  0  0  0  0  0  0  0  0  0  0  0
    8.3441   -8.3306  -11.6308 C   0  0  0  0  0  0  0  0  0  0  0  0
   14.3026  -12.6520  -11.4823 C   0  0  0  0  0  0  0  0  0  0  0  0
   12.7293  -12.5153  -13.2645 C   0  0  0  0  0  0  0  0  0  0  0  0
    8.1424   -8.9007  -10.2162 C   0  0  0  0  0  0  0  0  0  0  0  0
    7.9433  -10.4237  -10.3312 C   0  0  0  0  0  0  0  0  0  0  0  0
    7.5653  -11.8191   -8.3939 C   0  0  0  0  0  0  0  0  0  0  0  0
  1 23  1  0  0  0  0
  1 24  1  0  0  0  0
  1  2  1  0  0  0  0
  3  4  1  0  0  0  0
  3 17  1  0  0  0  0
  4  6  2  0  0  0  0
  4 13  1  0  0  0  0
  5 10  1  0  0  0  0
  5 14  2  0  0  0  0
  6  8  1  0  0  0  0
  7 12  1  0  0  0  0
  7 14  1  0  0  0  0
  7 19  1  0  0  0  0
  8 10  2  0  0  0  0
  9 14  1  0  0  0  0
 10 12  1  0  0  0  0
 11 18  1  0  0  0  0
 11 20  1  0  0  0  0
 11 21  1  0  0  0  0
 12 13  2  0  0  0  0
 13 15  1  0  0  0  0
 15 16  1  0  0  0  0
 16 17  1  0  0  0  0
 16 18  1  1  0  0  0
 19 22  1  0  0  0  0
 22 23  1  0  0  0  0
M  END
>  <CHROM.1>
-124.78668164,106.92136696,157.15630533,142.83862961,-164.63534678,143.60258576
10.70308564,-8.63513156,-11.62299796,0.98485894,-0.42438832,2.87953116

>  <Name>
ligand

>  <RI>
0

>  <Rbt.Current_Directory>
/home/itssahil/PROJECTS/Mol_Feturizer/New_Systems/rnas/3TZR

>  <Rbt.Executable>
rbdock ($Id: //depot/dev/client3/rdock/2013.1/src/exe/rbdock.cxx#4 $)

>  <Rbt.Library>
libRbt.so (2013.1, Build901 2013/11/27)

>  <Rbt.Parameter_File>
/export/apps/rDock/src/rDock_2013.1_src/data/scripts/dock_solv.prm

>  <Rbt.Receptor>
prm/blind_docking_100.prm

>  <SCORE>
-34.5546

>  <SCORE.INTER>
-26.8909

>  <SCORE.INTER.CONST>
1

>  <SCORE.INTER.POLAR>
-0.712517

>  <SCORE.INTER.ROT>
6

>  <SCORE.INTER.SOLV>
19.3564

>  <SCORE.INTER.VDW>
-29.6043

>  <SCORE.INTER.norm>
-1.12045

>  <SCORE.INTRA>
-7.71036

>  <SCORE.INTRA.DIHEDRAL>
7.64344

>  <SCORE.INTRA.DIHEDRAL.0>
4.94008

>  <SCORE.INTRA.POLAR>
0

>  <SCORE.INTRA.POLAR.0>
0

>  <SCORE.INTRA.REPUL>
0

>  <SCORE.INTRA.REPUL.0>
0

>  <SCORE.INTRA.SOLV>
0.182923

>  <SCORE.INTRA.SOLV.lig_0>
-31.4704

>  <SCORE.INTRA.VDW>
-11.6235

>  <SCORE.INTRA.VDW.0>
10.2807

>  <SCORE.INTRA.norm>
-0.321265

>  <SCORE.RESTR>
0.0466063

>  <SCORE.RESTR.CAVITY>
0.0466063

>  <SCORE.RESTR.norm>
0.00194193

>  <SCORE.SYSTEM>
0

>  <SCORE.SYSTEM.CONST>
0

>  <SCORE.SYSTEM.DIHEDRAL>
0

>  <SCORE.SYSTEM.SOLV>
0

>  <SCORE.SYSTEM.norm>
0

>  <SCORE.heavy>
24

>  <SCORE.norm>
-1.43978

>  <RMSD>
1.055

$$$$
ligand
 OpenBabel11021811493D
libRbt.so/2013.1/901 2013/11/27
 24 26  0  0  0  0  0  0  0  0999 V2000
    6.3738  -10.3255  -10.7967 N   0  0  0  0  0  0  0  0  0  0  0  0
    7.4659  -10.9622  -10.0783 C   0  0  0  0  0  0  0  0  0  0  0  0
   13.1676   -6.0771  -13.0898 O   0  0  0  0  0  0  0  0  0  0  0  0
   11.9013   -5.6129  -12.7601 C   0  0  0  0  0  0  0  0  0  0  0  0
    7.9360   -4.3633  -11.7734 N   0  0  0  0  0  0  0  0  0  0  0  0
   11.5753   -4.1431  -12.7826 C   0  0  0  0  0  0  0  0  0  0  0  0
    8.3357   -6.5724  -11.6970 N   0  0  0  0  0  0  0  0  0  0  0  0
   10.2697   -3.6409  -12.4739 C   0  0  0  0  0  0  0  0  0  0  0  0
    6.0190   -5.8152  -11.1171 N   0  0  0  0  0  0  0  0  0  0  0  0
    9.2705   -4.6157  -12.1207 C   0  0  0  0  0  0  0  0  0  0  0  0
   12.4241  -10.6735  -11.9645 N   0  0  0  0  0  0  0  0  0  0  0  0
    9.5727   -6.0215  -12.0803 C   0  0  0  0  0  0  0  0  0  0  0  0
   10.9407   -6.4996  -12.4202 C   0  0  0  0  0  0  0  0  0  0  0  0
    7.3751   -5.5818  -11.5226 C   0  0  0  0  0  0  0  0  0  0  0  0
   11.2376   -7.9871  -12.3814 C   0  0  0  0  0  0  0  0  0  0  0  0
   12.7112   -8.3566  -12.5131 C   0  0  1  0  0  0  0  0  0  0  0  0
   13.6207   -7.1698  -12.3710 C   0  0  0  0  0  0  0  0  0  0  0  0
   13.0654   -9.4495  -11.5160 C   0  0  0  0  0  0  0  0  0  0  0  0
    8.0697   -8.0192  -11.5821 C   0  0  0  0  0  0  0  0  0  0  0  0
   13.3196  -11.3507  -12.8924 C   0  0  0  0  0  0  0  0  0  0  0  0
   12.2072  -11.5078  -10.7929 C   0  0  0  0  0  0  0  0  0  0  0  0
    6.9257   -8.5524  -12.4618 C   0  0  0  0  0  0  0  0  0  0  0  0
    6.7659  -10.0596  -12.1881 C   0  0  0  0  0  0  0  0  0  0  0  0
    5.2144  -11.2083  -10.7332 C   0  0  0  0  0  0  0  0  0  0  0  0
  1 23  1  0  0  0  0
  1 24  1  0  0  0  0
  1  2  1  0  0  0  0
  3  4  1  0  0  0  0
  3 17  1  0  0  0  0
  4  6  2  0  0  0  0
  4 13  1  0  0  0  0
  5 10  1  0  0  0  0
  5 14  2  0  0  0  0
  6  8  1  0  0  0  0
  7 12  1  0  0  0  0
  7 14  1  0  0  0  0
  7 19  1  0  0  0  0
  8 10  2  0  0  0  0
  9 14  1  0  0  0  0
 10 12  1  0  0  0  0
 11 18  1  0  0  0  0
 11 20  1  0  0  0  0
 11 21  1  0  0  0  0
 12 13  2  0  0  0  0
 13 15  1  0  0  0  0
 15 16  1  0  0  0  0
 16 17  1  0  0  0  0
 16 18  1  1  0  0  0
 19 22  1  0  0  0  0
 22 23  1  0  0  0  0
M  END
>  <CHROM.1>
-110.80092079,-121.65625773,87.74787475,70.54190694,-178.53480568,63.16470831
9.81877086,-7.83150539,-11.90007390,-2.85337637,0.16858564,-0.14294441

>  <Name>
ligand

>  <RI>
0

>  <Rbt.Current_Directory>
/home/itssahil/PROJECTS/Mol_Feturizer/New_Systems/rnas/3TZR

>  <Rbt.Executable>
rbdock ($Id: //depot/dev/client3/rdock/2013.1/src/exe/rbdock.cxx#4 $)

>  <Rbt.Library>
libRbt.so (2013.1, Build901 2013/11/27)

>  <Rbt.Parameter_File>
/export/apps/rDock/src/rDock_2013.1_src/data/scripts/dock_solv.prm

>  <Rbt.Receptor>
prm/pocket_docking_2.prm

>  <SCORE>
-35.0188

>  <SCORE.INTER>
-24.661

>  <SCORE.INTER.CONST>
1

>  <SCORE.INTER.POLAR>
0

>  <SCORE.INTER.ROT>
6

>  <SCORE.INTER.SOLV>
20.7201

>  <SCORE.INTER.VDW>
-30.9473

>  <SCORE.INTER.norm>
-1.02754

>  <SCORE.INTRA>
-10.368

>  <SCORE.INTRA.DIHEDRAL>
0.0516258

>  <SCORE.INTRA.DIHEDRAL.0>
4.94008

>  <SCORE.INTRA.POLAR>
0

>  <SCORE.INTRA.POLAR.0>
0

>  <SCORE.INTRA.REPUL>
0

>  <SCORE.INTRA.REPUL.0>
0

>  <SCORE.INTRA.SOLV>
0.971753

>  <SCORE.INTRA.SOLV.lig_0>
-31.4704

>  <SCORE.INTRA.VDW>
-10.8797

>  <SCORE.INTRA.VDW.0>
10.2807

>  <SCORE.INTRA.norm>
-0.432001

>  <SCORE.RESTR>
0.0101413

>  <SCORE.RESTR.CAVITY>
0.0101413

>  <SCORE.RESTR.norm>
0.000422552

>  <SCORE.SYSTEM>
0

>  <SCORE.SYSTEM.CONST>
0

>  <SCORE.SYSTEM.DIHEDRAL>
0

>  <SCORE.SYSTEM.SOLV>
0

>  <SCORE.SYSTEM.norm>
0

>  <SCORE.heavy>
24

>  <SCORE.norm>
-1.45912

>  <RMSD>
1.056

$$$$
ligand
 OpenBabel11021811493D
libRbt.so/2013.1/901 2013/11/27
 24 26  0  0  0  0  0  0  0  0999 V2000
    8.6861  -11.2007   -9.4797 N   0  0  0  0  0  0  0  0  0  0  0  0
    8.5995  -12.5951   -9.8830 C   0  0  0  0  0  0  0  0  0  0  0  0
   13.2729   -6.3451  -13.0504 O   0  0  0  0  0  0  0  0  0  0  0  0
   12.0311   -5.8404  -12.6884 C   0  0  0  0  0  0  0  0  0  0  0  0
    8.1326   -4.4608  -11.6125 N   0  0  0  0  0  0  0  0  0  0  0  0
   11.7769   -4.3578  -12.6228 C   0  0  0  0  0  0  0  0  0  0  0  0
    8.4246   -6.6873  -11.6683 N   0  0  0  0  0  0  0  0  0  0  0  0
   10.4977   -3.8121  -12.2794 C   0  0  0  0  0  0  0  0  0  0  0  0
    6.1484   -5.8544  -11.0347 N   0  0  0  0  0  0  0  0  0  0  0  0
    9.4528   -4.7566  -11.9799 C   0  0  0  0  0  0  0  0  0  0  0  0
   12.2474  -10.9389  -12.1503 N   0  0  0  0  0  0  0  0  0  0  0  0
    9.6863   -6.1752  -12.0238 C   0  0  0  0  0  0  0  0  0  0  0  0
   11.0290   -6.6981  -12.3972 C   0  0  0  0  0  0  0  0  0  0  0  0
    7.5135   -5.6634  -11.4316 C   0  0  0  0  0  0  0  0  0  0  0  0
   11.2534   -8.1979  -12.4475 C   0  0  0  0  0  0  0  0  0  0  0  0
   12.7071   -8.6300  -12.6071 C   0  0  1  0  0  0  0  0  0  0  0  0
   13.6734   -7.4990  -12.3993 C   0  0  0  0  0  0  0  0  0  0  0  0
   13.0092   -9.7957  -11.6777 C   0  0  0  0  0  0  0  0  0  0  0  0
    8.0888   -8.1238  -11.6378 C   0  0  0  0  0  0  0  0  0  0  0  0
   13.0320  -11.6290  -13.1652 C   0  0  0  0  0  0  0  0  0  0  0  0
   12.0304  -11.8197  -11.0133 C   0  0  0  0  0  0  0  0  0  0  0  0
    8.5162   -8.8752  -10.3652 C   0  0  0  0  0  0  0  0  0  0  0  0
    8.0523  -10.3388  -10.4875 C   0  0  0  0  0  0  0  0  0  0  0  0
    8.0355  -11.0635   -8.1815 C   0  0  0  0  0  0  0  0  0  0  0  0
  1 23  1  0  0  0  0
  1 24  1  0  0  0  0
  1  2  1  0  0  0  0
  3  4  1  0  0  0  0
  3 17  1  0  0  0  0
  4  6  2  0  0  0  0
  4 13  1  0  0  0  0
  5 10  1  0  0  0  0
  5 14  2  0  0  0  0
  6  8  1  0  0  0  0
  7 12  1  0  0  0  0
  7 14  1  0  0  0  0
  7 19  1  0  0  0  0
  8 10  2  0  0  0  0
  9 14  1  0  0  0  0
 10 12  1  0  0  0  0
 11 18  1  0  0  0  0
 11 20  1  0  0  0  0
 11 21  1  0  0  0  0
 12 13  2  0  0  0  0
 13 15  1  0  0  0  0
 15 16  1  0  0  0  0
 16 17  1  0  0  0  0
 16 18  1  1  0  0  0
 19 22  1  0  0  0  0
 22 23  1  0  0  0  0
M  END
>  <CHROM.1>
-160.79868223,81.96262385,86.78329186,67.31140375,178.34017519,166.40867359
10.25739848,-8.12227522,-11.56199930,1.51235020,-0.38622938,2.87868621

>  <Name>
ligand

>  <RI>
0

>  <Rbt.Current_Directory>
/home/itssahil/PROJECTS/Mol_Feturizer/New_Systems/rnas/3TZR

>  <Rbt.Executable>
rbdock ($Id: //depot/dev/client3/rdock/2013.1/src/exe/rbdock.cxx#4 $)

>  <Rbt.Library>
libRbt.so (2013.1, Build901 2013/11/27)

>  <Rbt.Parameter_File>
/export/apps/rDock/src/rDock_2013.1_src/data/scripts/dock_solv.prm

>  <Rbt.Receptor>
prm/pocket_docking_7.prm

>  <SCORE>
-38.1299

>  <SCORE.INTER>
-26.238

>  <SCORE.INTER.CONST>
1

>  <SCORE.INTER.POLAR>
-0.717143

>  <SCORE.INTER.ROT>
6

>  <SCORE.INTER.SOLV>
19.9165

>  <SCORE.INTER.VDW>
-29.3403

>  <SCORE.INTER.norm>
-1.09325

>  <SCORE.INTRA>
-11.8919

>  <SCORE.INTRA.DIHEDRAL>
-1.17856

>  <SCORE.INTRA.DIHEDRAL.0>
4.94008

>  <SCORE.INTRA.POLAR>
0

>  <SCORE.INTRA.POLAR.0>
0

>  <SCORE.INTRA.REPUL>
0

>  <SCORE.INTRA.REPUL.0>
0

>  <SCORE.INTRA.SOLV>
-0.0227065

>  <SCORE.INTRA.SOLV.lig_0>
-31.4704

>  <SCORE.INTRA.VDW>
-11.2913

>  <SCORE.INTRA.VDW.0>
10.2807

>  <SCORE.INTRA.norm>
-0.495497

>  <SCORE.RESTR>
0

>  <SCORE.RESTR.CAVITY>
0

>  <SCORE.RESTR.norm>
0

>  <SCORE.SYSTEM>
0

>  <SCORE.SYSTEM.CONST>
0

>  <SCORE.SYSTEM.DIHEDRAL>
0

>  <SCORE.SYSTEM.SOLV>
0

>  <SCORE.SYSTEM.norm>
0

>  <SCORE.heavy>
24

>  <SCORE.norm>
-1.58874

>  <RMSD>
1.056

$$$$
ligand
 OpenBabel11021811493D
libRbt.so/2013.1/901 2013/11/27
 24 26  0  0  0  0  0  0  0  0999 V2000
    7.2288  -10.9083  -10.9052 N   0  0  0  0  0  0  0  0  0  0  0  0
    5.9256  -10.5473  -11.4395 C   0  0  0  0  0  0  0  0  0  0  0  0
   13.3835   -6.3547  -13.0065 O   0  0  0  0  0  0  0  0  0  0  0  0
   12.1523   -5.8343  -12.6309 C   0  0  0  0  0  0  0  0  0  0  0  0
    8.2808   -4.3989  -11.5308 N   0  0  0  0  0  0  0  0  0  0  0  0
   11.9533   -4.3544  -12.4375 C   0  0  0  0  0  0  0  0  0  0  0  0
    8.4886   -6.6214  -11.7809 N   0  0  0  0  0  0  0  0  0  0  0  0
   10.6869   -3.7900  -12.0777 C   0  0  0  0  0  0  0  0  0  0  0  0
    6.2290   -5.7566  -11.1307 N   0  0  0  0  0  0  0  0  0  0  0  0
    9.5985   -4.7141  -11.8908 C   0  0  0  0  0  0  0  0  0  0  0  0
   13.1782  -10.9967  -12.8847 N   0  0  0  0  0  0  0  0  0  0  0  0
    9.7786   -6.1315  -12.0574 C   0  0  0  0  0  0  0  0  0  0  0  0
   11.1102   -6.6731  -12.4434 C   0  0  0  0  0  0  0  0  0  0  0  0
    7.6112   -5.5866  -11.4749 C   0  0  0  0  0  0  0  0  0  0  0  0
   11.2782   -8.1702  -12.6238 C   0  0  0  0  0  0  0  0  0  0  0  0
   12.7182   -8.6451  -12.7861 C   0  0  1  0  0  0  0  0  0  0  0  0
   13.7209   -7.5777  -12.4529 C   0  0  0  0  0  0  0  0  0  0  0  0
   12.9490   -9.9008  -11.9590 C   0  0  0  0  0  0  0  0  0  0  0  0
    8.0972   -8.0400  -11.8889 C   0  0  0  0  0  0  0  0  0  0  0  0
   14.4927  -11.5629  -12.6136 C   0  0  0  0  0  0  0  0  0  0  0  0
   12.1516  -11.9975  -12.6399 C   0  0  0  0  0  0  0  0  0  0  0  0
    8.8385   -9.0035  -10.9459 C   0  0  0  0  0  0  0  0  0  0  0  0
    7.7912   -9.7897  -10.1352 C   0  0  0  0  0  0  0  0  0  0  0  0
    7.0640  -12.0942  -10.0721 C   0  0  0  0  0  0  0  0  0  0  0  0
  1 23  1  0  0  0  0
  1 24  1  0  0  0  0
  1  2  1  0  0  0  0
  3  4  1  0  0  0  0
  3 17  1  0  0  0  0
  4  6  2  0  0  0  0
  4 13  1  0  0  0  0
  5 10  1  0  0  0  0
  5 14  2  0  0  0  0
  6  8  1  0  0  0  0
  7 12  1  0  0  0  0
  7 14  1  0  0  0  0
  7 19  1  0  0  0  0
  8 10  2  0  0  0  0
  9 14  1  0  0  0  0
 10 12  1  0  0  0  0
 11 18  1  0  0  0  0
 11 20  1  0  0  0  0
 11 21  1  0  0  0  0
 12 13  2  0  0  0  0
 13 15  1  0  0  0  0
 15 16  1  0  0  0  0
 16 17  1  0  0  0  0
 16 18  1  1  0  0  0
 19 22  1  0  0  0  0
 22 23  1  0  0  0  0
M  END
>  <CHROM.1>
-100.59252093,62.44785389,120.84573051,112.91394264,125.47273138,80.44307461
10.19514331,-8.03910445,-11.89981729,2.87147137,0.26285487,-0.07586391

>  <Name>
ligand

>  <RI>
144

>  <Rbt.Current_Directory>
/home/itssahil/PROJECTS/Mol_Feturizer/New_Systems/rnas/3TZR

>  <Rbt.Executable>
rbdock ($Id: //depot/dev/client3/rdock/2013.1/src/exe/rbdock.cxx#4 $)

>  <Rbt.Library>
libRbt.so (2013.1, Build901 2013/11/27)

>  <Rbt.Parameter_File>
/export/apps/rDock/src/rDock_2013.1_src/data/scripts/dock_solv.prm

>  <Rbt.Receptor>
prm/blind_docking_60.prm

>  <SCORE>
-29.5535

>  <SCORE.INTER>
-24.2865

>  <SCORE.INTER.CONST>
1

>  <SCORE.INTER.POLAR>
0

>  <SCORE.INTER.ROT>
6

>  <SCORE.INTER.SOLV>
20.5722

>  <SCORE.INTER.VDW>
-30.6484

>  <SCORE.INTER.norm>
-1.01194

>  <SCORE.INTRA>
-5.27567

>  <SCORE.INTRA.DIHEDRAL>
12.3486

>  <SCORE.INTRA.DIHEDRAL.0>
4.94008

>  <SCORE.INTRA.POLAR>
0

>  <SCORE.INTRA.POLAR.0>
0

>  <SCORE.INTRA.REPUL>
0

>  <SCORE.INTRA.REPUL.0>
0

>  <SCORE.INTRA.SOLV>
-0.195768

>  <SCORE.INTRA.SOLV.lig_0>
-31.4704

>  <SCORE.INTRA.VDW>
-11.3521

>  <SCORE.INTRA.VDW.0>
10.2807

>  <SCORE.INTRA.norm>
-0.21982

>  <SCORE.RESTR>
0.00865962

>  <SCORE.RESTR.CAVITY>
0.00865962

>  <SCORE.RESTR.norm>
0.000360818

>  <SCORE.SYSTEM>
0

>  <SCORE.SYSTEM.CONST>
0

>  <SCORE.SYSTEM.DIHEDRAL>
0

>  <SCORE.SYSTEM.SOLV>
0

>  <SCORE.SYSTEM.norm>
0

>  <SCORE.heavy>
24

>  <SCORE.norm>
-1.2314

>  <RMSD>
1.057

$$$$
ligand
 OpenBabel11021811493D
libRbt.so/2013.1/901 2013/11/27
 24 26  0  0  0  0  0  0  0  0999 V2000
    8.5610  -11.0364   -9.4675 N   0  0  0  0  0  0  0  0  0  0  0  0
    9.4736  -12.0762   -9.9152 C   0  0  0  0  0  0  0  0  0  0  0  0
   13.2364   -6.0491  -13.0128 O   0  0  0  0  0  0  0  0  0  0  0  0
   11.9397   -5.6191  -12.7650 C   0  0  0  0  0  0  0  0  0  0  0  0
    7.8872   -4.4757  -12.0379 N   0  0  0  0  0  0  0  0  0  0  0  0
   11.5818   -4.1568  -12.7863 C   0  0  0  0  0  0  0  0  0  0  0  0
    8.3322   -6.6763  -11.9697 N   0  0  0  0  0  0  0  0  0  0  0  0
   10.2465   -3.6892  -12.5616 C   0  0  0  0  0  0  0  0  0  0  0  0
    5.9638   -5.9812  -11.5410 N   0  0  0  0  0  0  0  0  0  0  0  0
    9.2482   -4.6921  -12.2950 C   0  0  0  0  0  0  0  0  0  0  0  0
   12.8365  -10.7205  -12.1579 N   0  0  0  0  0  0  0  0  0  0  0  0
    9.5796   -6.0913  -12.2565 C   0  0  0  0  0  0  0  0  0  0  0  0
   10.9788   -6.5329  -12.5076 C   0  0  0  0  0  0  0  0  0  0  0  0
    7.3389   -5.7106  -11.8468 C   0  0  0  0  0  0  0  0  0  0  0  0
   11.3070   -8.0138  -12.4723 C   0  0  0  0  0  0  0  0  0  0  0  0
   12.7945   -8.3481  -12.5066 C   0  0  1  0  0  0  0  0  0  0  0  0
   13.6638   -7.1441  -12.2819 C   0  0  0  0  0  0  0  0  0  0  0  0
   13.1039   -9.4505  -11.5050 C   0  0  0  0  0  0  0  0  0  0  0  0
    8.0928   -8.1305  -11.8972 C   0  0  0  0  0  0  0  0  0  0  0  0
   13.9967  -11.0795  -12.9621 C   0  0  0  0  0  0  0  0  0  0  0  0
   12.6344  -11.7140  -11.1150 C   0  0  0  0  0  0  0  0  0  0  0  0
    8.5234   -8.8063  -10.5839 C   0  0  0  0  0  0  0  0  0  0  0  0
    8.0551  -10.2732  -10.6173 C   0  0  0  0  0  0  0  0  0  0  0  0
    7.4725  -11.6736   -8.7351 C   0  0  0  0  0  0  0  0  0  0  0  0
  1 23  1  0  0  0  0
  1 24  1  0  0  0  0
  1  2  1  0  0  0  0
  3  4  1  0  0  0  0
  3 17  1  0  0  0  0
  4  6  2  0  0  0  0
  4 13  1  0  0  0  0
  5 10  1  0  0  0  0
  5 14  2  0  0  0  0
  6  8  1  0  0  0  0
  7 12  1  0  0  0  0
  7 14  1  0  0  0  0
  7 19  1  0  0  0  0
  8 10  2  0  0  0  0
  9 14  1  0  0  0  0
 10 12  1  0  0  0  0
 11 18  1  0  0  0  0
 11 20  1  0  0  0  0
 11 21  1  0  0  0  0
 12 13  2  0  0  0  0
 13 15  1  0  0  0  0
 15 16  1  0  0  0  0
 16 17  1  0  0  0  0
 16 18  1  1  0  0  0
 19 22  1  0  0  0  0
 22 23  1  0  0  0  0
M  END
>  <CHROM.1>
-114.98792018,79.69277692,82.50769290,84.84170283,173.52088849,173.36689164
10.31005963,-7.98680459,-11.70417999,1.33470649,-0.28919229,2.82499255

>  <Name>
ligand

>  <RI>
0

>  <Rbt.Current_Directory>
/home/itssahil/PROJECTS/Mol_Feturizer/New_Systems/rnas/3TZR

>  <Rbt.Executable>
rbdock ($Id: //depot/dev/client3/rdock/2013.1/src/exe/rbdock.cxx#4 $)

>  <Rbt.Library>
libRbt.so (2013.1, Build901 2013/11/27)

>  <Rbt.Parameter_File>
/export/apps/rDock/src/rDock_2013.1_src/data/scripts/dock_solv.prm

>  <Rbt.Receptor>
prm/pocket_docking_6.prm

>  <SCORE>
-37.6489

>  <SCORE.INTER>
-26.8772

>  <SCORE.INTER.CONST>
1

>  <SCORE.INTER.POLAR>
-0.718377

>  <SCORE.INTER.ROT>
6

>  <SCORE.INTER.SOLV>
19.9627

>  <SCORE.INTER.VDW>
-29.7778

>  <SCORE.INTER.norm>
-1.11988

>  <SCORE.INTRA>
-10.7717

>  <SCORE.INTRA.DIHEDRAL>
1.67079

>  <SCORE.INTRA.DIHEDRAL.0>
4.94008

>  <SCORE.INTRA.POLAR>
0

>  <SCORE.INTRA.POLAR.0>
0

>  <SCORE.INTRA.REPUL>
0

>  <SCORE.INTRA.REPUL.0>
0

>  <SCORE.INTRA.SOLV>
-0.193041

>  <SCORE.INTRA.SOLV.lig_0>
-31.4704

>  <SCORE.INTRA.VDW>
-11.5106

>  <SCORE.INTRA.VDW.0>
10.2807

>  <SCORE.INTRA.norm>
-0.448821

>  <SCORE.RESTR>
0

>  <SCORE.RESTR.CAVITY>
0

>  <SCORE.RESTR.norm>
0

>  <SCORE.SYSTEM>
0

>  <SCORE.SYSTEM.CONST>
0

>  <SCORE.SYSTEM.DIHEDRAL>
0

>  <SCORE.SYSTEM.SOLV>
0

>  <SCORE.SYSTEM.norm>
0

>  <SCORE.heavy>
24

>  <SCORE.norm>
-1.5687

>  <RMSD>
1.058

$$$$
ligand
 OpenBabel11021811493D
libRbt.so/2013.1/901 2013/11/27
 24 26  0  0  0  0  0  0  0  0999 V2000
    6.8570  -10.6378  -10.4586 N   0  0  0  0  0  0  0  0  0  0  0  0
    6.8080  -11.9009   -9.7399 C   0  0  0  0  0  0  0  0  0  0  0  0
   13.1757   -6.0846  -13.0246 O   0  0  0  0  0  0  0  0  0  0  0  0
   11.8875   -5.6218  -12.7919 C   0  0  0  0  0  0  0  0  0  0  0  0
    7.8577   -4.3778  -12.1045 N   0  0  0  0  0  0  0  0  0  0  0  0
   11.5565   -4.1550  -12.8669 C   0  0  0  0  0  0  0  0  0  0  0  0
    8.2622   -6.5823  -11.9556 N   0  0  0  0  0  0  0  0  0  0  0  0
   10.2304   -3.6549  -12.6585 C   0  0  0  0  0  0  0  0  0  0  0  0
    5.9076   -5.8283  -11.5511 N   0  0  0  0  0  0  0  0  0  0  0  0
    9.2142   -4.6287  -12.3545 C   0  0  0  0  0  0  0  0  0  0  0  0
   12.3770  -10.6612  -11.8570 N   0  0  0  0  0  0  0  0  0  0  0  0
    9.5198   -6.0314  -12.2647 C   0  0  0  0  0  0  0  0  0  0  0  0
   10.9103   -6.5076  -12.5003 C   0  0  0  0  0  0  0  0  0  0  0  0
    7.2870   -5.5946  -11.8676 C   0  0  0  0  0  0  0  0  0  0  0  0
   11.2112   -7.9921  -12.4107 C   0  0  0  0  0  0  0  0  0  0  0  0
   12.6922   -8.3549  -12.4337 C   0  0  1  0  0  0  0  0  0  0  0  0
   13.5839   -7.1596  -12.2542 C   0  0  0  0  0  0  0  0  0  0  0  0
   12.9827   -9.4251  -11.3924 C   0  0  0  0  0  0  0  0  0  0  0  0
    7.9962   -8.0282  -11.8294 C   0  0  0  0  0  0  0  0  0  0  0  0
   13.2939  -11.3026  -12.7896 C   0  0  0  0  0  0  0  0  0  0  0  0
   12.1799  -11.5146  -10.6957 C   0  0  0  0  0  0  0  0  0  0  0  0
    8.3662   -8.6520  -10.4727 C   0  0  0  0  0  0  0  0  0  0  0  0
    8.2480  -10.1829  -10.5947 C   0  0  0  0  0  0  0  0  0  0  0  0
    6.2347  -10.8344  -11.7630 C   0  0  0  0  0  0  0  0  0  0  0  0
  1 23  1  0  0  0  0
  1 24  1  0  0  0  0
  1  2  1  0  0  0  0
  3  4  1  0  0  0  0
  3 17  1  0  0  0  0
  4  6  2  0  0  0  0
  4 13  1  0  0  0  0
  5 10  1  0  0  0  0
  5 14  2  0  0  0  0
  6  8  1  0  0  0  0
  7 12  1  0  0  0  0
  7 14  1  0  0  0  0
  7 19  1  0  0  0  0
  8 10  2  0  0  0  0
  9 14  1  0  0  0  0
 10 12  1  0  0  0  0
 11 18  1  0  0  0  0
 11 20  1  0  0  0  0
 11 21  1  0  0  0  0
 12 13  2  0  0  0  0
 13 15  1  0  0  0  0
 15 16  1  0  0  0  0
 16 17  1  0  0  0  0
 16 18  1  1  0  0  0
 19 22  1  0  0  0  0
 22 23  1  0  0  0  0
M  END
>  <CHROM.1>
-143.27048134,81.95250762,83.43803417,70.41308096,-170.64829074,-80.99374906
9.94481383,-7.88184224,-11.83104920,2.15530893,-0.18457734,2.91866958

>  <Name>
ligand

>  <RI>
0

>  <Rbt.Current_Directory>
/home/itssahil/PROJECTS/Mol_Feturizer/New_Systems/rnas/3TZR

>  <Rbt.Executable>
rbdock ($Id: //depot/dev/client3/rdock/2013.1/src/exe/rbdock.cxx#4 $)

>  <Rbt.Library>
libRbt.so (2013.1, Build901 2013/11/27)

>  <Rbt.Parameter_File>
/export/apps/rDock/src/rDock_2013.1_src/data/scripts/dock_solv.prm

>  <Rbt.Receptor>
prm/pocket_docking_5.prm

>  <SCORE>
-35.5897

>  <SCORE.INTER>
-24.8147

>  <SCORE.INTER.CONST>
1

>  <SCORE.INTER.POLAR>
0

>  <SCORE.INTER.ROT>
6

>  <SCORE.INTER.SOLV>
20.3784

>  <SCORE.INTER.VDW>
-30.9359

>  <SCORE.INTER.norm>
-1.03395

>  <SCORE.INTRA>
-10.775

>  <SCORE.INTRA.DIHEDRAL>
1.00875

>  <SCORE.INTRA.DIHEDRAL.0>
4.94008

>  <SCORE.INTRA.POLAR>
0

>  <SCORE.INTRA.POLAR.0>
0

>  <SCORE.INTRA.REPUL>
0

>  <SCORE.INTRA.REPUL.0>
0

>  <SCORE.INTRA.SOLV>
-0.0712374

>  <SCORE.INTRA.SOLV.lig_0>
-31.4704

>  <SCORE.INTRA.VDW>
-11.2437

>  <SCORE.INTRA.VDW.0>
10.2807

>  <SCORE.INTRA.norm>
-0.448958

>  <SCORE.RESTR>
0

>  <SCORE.RESTR.CAVITY>
0

>  <SCORE.RESTR.norm>
0

>  <SCORE.SYSTEM>
0

>  <SCORE.SYSTEM.CONST>
0

>  <SCORE.SYSTEM.DIHEDRAL>
0

>  <SCORE.SYSTEM.SOLV>
0

>  <SCORE.SYSTEM.norm>
0

>  <SCORE.heavy>
24

>  <SCORE.norm>
-1.4829

>  <RMSD>
1.061

$$$$
ligand
 OpenBabel11021811493D
libRbt.so/2013.1/901 2013/11/27
 24 26  0  0  0  0  0  0  0  0999 V2000
    6.7041  -10.5836  -10.4476 N   0  0  0  0  0  0  0  0  0  0  0  0
    6.5325  -11.8698   -9.7915 C   0  0  0  0  0  0  0  0  0  0  0  0
   13.2574   -6.2074  -13.1876 O   0  0  0  0  0  0  0  0  0  0  0  0
   11.9937   -5.7220  -12.8792 C   0  0  0  0  0  0  0  0  0  0  0  0
    8.0341   -4.4063  -11.9577 N   0  0  0  0  0  0  0  0  0  0  0  0
   11.6900   -4.2478  -12.9173 C   0  0  0  0  0  0  0  0  0  0  0  0
    8.3997   -6.6204  -11.8592 N   0  0  0  0  0  0  0  0  0  0  0  0
   10.3879   -3.7239  -12.6308 C   0  0  0  0  0  0  0  0  0  0  0  0
    6.0867   -5.8245  -11.3175 N   0  0  0  0  0  0  0  0  0  0  0  0
    9.3694   -4.6811  -12.2843 C   0  0  0  0  0  0  0  0  0  0  0  0
   12.4058  -10.7761  -12.0227 N   0  0  0  0  0  0  0  0  0  0  0  0
    9.6500   -6.0908  -12.2292 C   0  0  0  0  0  0  0  0  0  0  0  0
   11.0153   -6.5918  -12.5462 C   0  0  0  0  0  0  0  0  0  0  0  0
    7.4516   -5.6144  -11.7057 C   0  0  0  0  0  0  0  0  0  0  0  0
   11.2895   -8.0831  -12.4921 C   0  0  0  0  0  0  0  0  0  0  0  0
   12.7591   -8.4755  -12.6003 C   0  0  1  0  0  0  0  0  0  0  0  0
   13.6841   -7.3012  -12.4544 C   0  0  0  0  0  0  0  0  0  0  0  0
   13.0830   -9.5658  -11.5901 C   0  0  0  0  0  0  0  0  0  0  0  0
    8.1106   -8.0622  -11.7372 C   0  0  0  0  0  0  0  0  0  0  0  0
   13.3441  -11.5791  -12.7952 C   0  0  0  0  0  0  0  0  0  0  0  0
   12.0038  -11.5025  -10.8285 C   0  0  0  0  0  0  0  0  0  0  0  0
    8.2779   -8.6524  -10.3264 C   0  0  0  0  0  0  0  0  0  0  0  0
    8.1175  -10.1815  -10.4185 C   0  0  0  0  0  0  0  0  0  0  0  0
    6.2166  -10.7051  -11.8169 C   0  0  0  0  0  0  0  0  0  0  0  0
  1 23  1  0  0  0  0
  1 24  1  0  0  0  0
  1  2  1  0  0  0  0
  3  4  1  0  0  0  0
  3 17  1  0  0  0  0
  4  6  2  0  0  0  0
  4 13  1  0  0  0  0
  5 10  1  0  0  0  0
  5 14  2  0  0  0  0
  6  8  1  0  0  0  0
  7 12  1  0  0  0  0
  7 14  1  0  0  0  0
  7 19  1  0  0  0  0
  8 10  2  0  0  0  0
  9 14  1  0  0  0  0
 10 12  1  0  0  0  0
 11 18  1  0  0  0  0
 11 20  1  0  0  0  0
 11 21  1  0  0  0  0
 12 13  2  0  0  0  0
 13 15  1  0  0  0  0
 15 16  1  0  0  0  0
 16 17  1  0  0  0  0
 16 18  1  1  0  0  0
 19 22  1  0  0  0  0
 22 23  1  0  0  0  0
M  END
>  <CHROM.1>
-147.52121659,93.60670213,95.39130272,69.31837289,-172.75131637,-81.17282488
9.99040015,-7.93762652,-11.84173399,-2.44857419,0.22916247,-0.19968242

>  <Name>
ligand

>  <RI>
0

>  <Rbt.Current_Directory>
/home/itssahil/PROJECTS/Mol_Feturizer/New_Systems/rnas/3TZR

>  <Rbt.Executable>
rbdock ($Id: //depot/dev/client3/rdock/2013.1/src/exe/rbdock.cxx#4 $)

>  <Rbt.Library>
libRbt.so (2013.1, Build901 2013/11/27)

>  <Rbt.Parameter_File>
/export/apps/rDock/src/rDock_2013.1_src/data/scripts/dock_solv.prm

>  <Rbt.Receptor>
prm/blind_docking_40.prm

>  <SCORE>
-35.5111

>  <SCORE.INTER>
-24.7819

>  <SCORE.INTER.CONST>
1

>  <SCORE.INTER.POLAR>
0

>  <SCORE.INTER.ROT>
6

>  <SCORE.INTER.SOLV>
19.9496

>  <SCORE.INTER.VDW>
-30.7711

>  <SCORE.INTER.norm>
-1.03258

>  <SCORE.INTRA>
-10.7291

>  <SCORE.INTRA.DIHEDRAL>
1.32923

>  <SCORE.INTRA.DIHEDRAL.0>
4.94008

>  <SCORE.INTRA.POLAR>
0

>  <SCORE.INTRA.POLAR.0>
0

>  <SCORE.INTRA.REPUL>
0

>  <SCORE.INTRA.REPUL.0>
0

>  <SCORE.INTRA.SOLV>
0.0868531

>  <SCORE.INTRA.SOLV.lig_0>
-31.4704

>  <SCORE.INTRA.VDW>
-11.4372

>  <SCORE.INTRA.VDW.0>
10.2807

>  <SCORE.INTRA.norm>
-0.447047

>  <SCORE.RESTR>
0

>  <SCORE.RESTR.CAVITY>
0

>  <SCORE.RESTR.norm>
0

>  <SCORE.SYSTEM>
0

>  <SCORE.SYSTEM.CONST>
0

>  <SCORE.SYSTEM.DIHEDRAL>
0

>  <SCORE.SYSTEM.SOLV>
0

>  <SCORE.SYSTEM.norm>
0

>  <SCORE.heavy>
24

>  <SCORE.norm>
-1.47963

>  <RMSD>
1.064

$$$$
ligand
 OpenBabel11021811493D
libRbt.so/2013.1/901 2013/11/27
 24 26  0  0  0  0  0  0  0  0999 V2000
    6.5843  -10.2438  -11.0439 N   0  0  0  0  0  0  0  0  0  0  0  0
    7.5643  -10.9900  -10.2713 C   0  0  0  0  0  0  0  0  0  0  0  0
   13.5074   -6.8408  -13.1893 O   0  0  0  0  0  0  0  0  0  0  0  0
   12.3554   -6.1458  -12.8463 C   0  0  0  0  0  0  0  0  0  0  0  0
    8.7110   -4.1728  -11.8050 N   0  0  0  0  0  0  0  0  0  0  0  0
   12.2856   -4.6454  -12.9499 C   0  0  0  0  0  0  0  0  0  0  0  0
    8.7290   -6.4099  -11.6038 N   0  0  0  0  0  0  0  0  0  0  0  0
   11.1006   -3.9074  -12.6289 C   0  0  0  0  0  0  0  0  0  0  0  0
    6.6047   -5.2303  -10.9937 N   0  0  0  0  0  0  0  0  0  0  0  0
    9.9657   -4.6724  -12.1812 C   0  0  0  0  0  0  0  0  0  0  0  0
   12.1008  -11.1993  -11.7976 N   0  0  0  0  0  0  0  0  0  0  0  0
   10.0238   -6.1047  -12.0630 C   0  0  0  0  0  0  0  0  0  0  0  0
   11.2731   -6.8317  -12.4187 C   0  0  0  0  0  0  0  0  0  0  0  0
    7.9612   -5.2592  -11.4592 C   0  0  0  0  0  0  0  0  0  0  0  0
   11.3120   -8.3435  -12.2967 C   0  0  0  0  0  0  0  0  0  0  0  0
   12.6931   -8.9704  -12.4553 C   0  0  1  0  0  0  0  0  0  0  0  0
   13.7980   -7.9537  -12.4192 C   0  0  0  0  0  0  0  0  0  0  0  0
   12.8987  -10.0507  -11.4042 C   0  0  0  0  0  0  0  0  0  0  0  0
    8.2243   -7.7798  -11.3893 C   0  0  0  0  0  0  0  0  0  0  0  0
   12.9015  -12.0372  -12.6801 C   0  0  0  0  0  0  0  0  0  0  0  0
   11.7688  -11.9356  -10.5880 C   0  0  0  0  0  0  0  0  0  0  0  0
    7.2457   -8.2980  -12.4573 C   0  0  0  0  0  0  0  0  0  0  0  0
    7.1588   -9.8306  -12.3322 C   0  0  0  0  0  0  0  0  0  0  0  0
    5.4148  -11.0943  -11.2345 C   0  0  0  0  0  0  0  0  0  0  0  0
  1 23  1  0  0  0  0
  1 24  1  0  0  0  0
  1  2  1  0  0  0  0
  3  4  1  0  0  0  0
  3 17  1  0  0  0  0
  4  6  2  0  0  0  0
  4 13  1  0  0  0  0
  5 10  1  0  0  0  0
  5 14  2  0  0  0  0
  6  8  1  0  0  0  0
  7 12  1  0  0  0  0
  7 14  1  0  0  0  0
  7 19  1  0  0  0  0
  8 10  2  0  0  0  0
  9 14  1  0  0  0  0
 10 12  1  0  0  0  0
 11 18  1  0  0  0  0
 11 20  1  0  0  0  0
 11 21  1  0  0  0  0
 12 13  2  0  0  0  0
 13 15  1  0  0  0  0
 15 16  1  0  0  0  0
 16 17  1  0  0  0  0
 16 18  1  1  0  0  0
 19 22  1  0  0  0  0
 22 23  1  0  0  0  0
M  END
>  <CHROM.1>
-116.36931291,-104.73664323,88.03784866,74.00338242,163.00096423,64.25553183
10.06897985,-8.01619057,-11.91642618,2.55126276,-0.17359318,3.02286175

>  <Name>
ligand

>  <RI>
144

>  <Rbt.Current_Directory>
/home/itssahil/PROJECTS/Mol_Feturizer/New_Systems/rnas/3TZR

>  <Rbt.Executable>
rbdock ($Id: //depot/dev/client3/rdock/2013.1/src/exe/rbdock.cxx#4 $)

>  <Rbt.Library>
libRbt.so (2013.1, Build901 2013/11/27)

>  <Rbt.Parameter_File>
/export/apps/rDock/src/rDock_2013.1_src/data/scripts/dock_solv.prm

>  <Rbt.Receptor>
prm/blind_docking_60.prm

>  <SCORE>
-33.3741

>  <SCORE.INTER>
-22.8473

>  <SCORE.INTER.CONST>
1

>  <SCORE.INTER.POLAR>
0

>  <SCORE.INTER.ROT>
6

>  <SCORE.INTER.SOLV>
22.376

>  <SCORE.INTER.VDW>
-30.2902

>  <SCORE.INTER.norm>
-0.95197

>  <SCORE.INTRA>
-10.5269

>  <SCORE.INTRA.DIHEDRAL>
1.39252

>  <SCORE.INTRA.DIHEDRAL.0>
4.94008

>  <SCORE.INTRA.POLAR>
0

>  <SCORE.INTRA.POLAR.0>
0

>  <SCORE.INTRA.REPUL>
0

>  <SCORE.INTRA.REPUL.0>
0

>  <SCORE.INTRA.SOLV>
0.383476

>  <SCORE.INTRA.SOLV.lig_0>
-31.4704

>  <SCORE.INTRA.VDW>
-11.4149

>  <SCORE.INTRA.VDW.0>
10.2807

>  <SCORE.INTRA.norm>
-0.43862

>  <SCORE.RESTR>
0

>  <SCORE.RESTR.CAVITY>
0

>  <SCORE.RESTR.norm>
0

>  <SCORE.SYSTEM>
0

>  <SCORE.SYSTEM.CONST>
0

>  <SCORE.SYSTEM.DIHEDRAL>
0

>  <SCORE.SYSTEM.SOLV>
0

>  <SCORE.SYSTEM.norm>
0

>  <SCORE.heavy>
24

>  <SCORE.norm>
-1.39059

>  <RMSD>
1.066

$$$$
ligand
 OpenBabel11021811493D
libRbt.so/2013.1/901 2013/11/27
 24 26  0  0  0  0  0  0  0  0999 V2000
    8.5912  -11.1323   -9.3616 N   0  0  0  0  0  0  0  0  0  0  0  0
    9.5132  -12.1834   -9.7606 C   0  0  0  0  0  0  0  0  0  0  0  0
   13.2322   -6.2183  -13.0942 O   0  0  0  0  0  0  0  0  0  0  0  0
   11.9900   -5.7419  -12.6969 C   0  0  0  0  0  0  0  0  0  0  0  0
    8.0922   -4.4493  -11.5158 N   0  0  0  0  0  0  0  0  0  0  0  0
   11.7153   -4.2655  -12.5886 C   0  0  0  0  0  0  0  0  0  0  0  0
    8.4158   -6.6689  -11.6342 N   0  0  0  0  0  0  0  0  0  0  0  0
   10.4349   -3.7481  -12.2082 C   0  0  0  0  0  0  0  0  0  0  0  0
    6.1396   -5.8870  -10.9384 N   0  0  0  0  0  0  0  0  0  0  0  0
    9.4096   -4.7156  -11.9144 C   0  0  0  0  0  0  0  0  0  0  0  0
   13.1350  -10.8816  -12.6557 N   0  0  0  0  0  0  0  0  0  0  0  0
    9.6631   -6.1290  -11.9991 C   0  0  0  0  0  0  0  0  0  0  0  0
   11.0062   -6.6218  -12.4100 C   0  0  0  0  0  0  0  0  0  0  0  0
    7.4943   -5.6653  -11.3548 C   0  0  0  0  0  0  0  0  0  0  0  0
   11.2515   -8.1162  -12.5028 C   0  0  0  0  0  0  0  0  0  0  0  0
   12.7082   -8.5221  -12.6998 C   0  0  1  0  0  0  0  0  0  0  0  0
   13.6615   -7.3823  -12.4803 C   0  0  0  0  0  0  0  0  0  0  0  0
   13.0445   -9.7064  -11.8063 C   0  0  0  0  0  0  0  0  0  0  0  0
    8.1016   -8.1107  -11.6346 C   0  0  0  0  0  0  0  0  0  0  0  0
   14.5242  -11.3180  -12.6935 C   0  0  0  0  0  0  0  0  0  0  0  0
   12.3098  -11.9186  -12.0564 C   0  0  0  0  0  0  0  0  0  0  0  0
    8.3221   -8.8352  -10.2955 C   0  0  0  0  0  0  0  0  0  0  0  0
    8.1733  -10.3496  -10.5335 C   0  0  0  0  0  0  0  0  0  0  0  0
    7.4472  -11.7575   -8.7075 C   0  0  0  0  0  0  0  0  0  0  0  0
  1 23  1  0  0  0  0
  1 24  1  0  0  0  0
  1  2  1  0  0  0  0
  3  4  1  0  0  0  0
  3 17  1  0  0  0  0
  4  6  2  0  0  0  0
  4 13  1  0  0  0  0
  5 10  1  0  0  0  0
  5 14  2  0  0  0  0
  6  8  1  0  0  0  0
  7 12  1  0  0  0  0
  7 14  1  0  0  0  0
  7 19  1  0  0  0  0
  8 10  2  0  0  0  0
  9 14  1  0  0  0  0
 10 12  1  0  0  0  0
 11 18  1  0  0  0  0
 11 20  1  0  0  0  0
 11 21  1  0  0  0  0
 12 13  2  0  0  0  0
 13 15  1  0  0  0  0
 15 16  1  0  0  0  0
 16 17  1  0  0  0  0
 16 18  1  1  0  0  0
 19 22  1  0  0  0  0
 22 23  1  0  0  0  0
M  END
>  <CHROM.1>
-130.27798926,92.87707159,111.64579553,106.02979479,-170.79894785,170.29699620
10.37145618,-8.08034368,-11.62043892,1.18628719,-0.37898277,2.88859661

>  <Name>
ligand

>  <RI>
144

>  <Rbt.Current_Directory>
/home/itssahil/PROJECTS/Mol_Feturizer/New_Systems/rnas/3TZR

>  <Rbt.Executable>
rbdock ($Id: //depot/dev/client3/rdock/2013.1/src/exe/rbdock.cxx#4 $)

>  <Rbt.Library>
libRbt.so (2013.1, Build901 2013/11/27)

>  <Rbt.Parameter_File>
/export/apps/rDock/src/rDock_2013.1_src/data/scripts/dock_solv.prm

>  <Rbt.Receptor>
prm/blind_docking_60.prm

>  <SCORE>
-36.8782

>  <SCORE.INTER>
-27.4132

>  <SCORE.INTER.CONST>
1

>  <SCORE.INTER.POLAR>
-0.709203

>  <SCORE.INTER.ROT>
6

>  <SCORE.INTER.SOLV>
19.9514

>  <SCORE.INTER.VDW>
-30.1619

>  <SCORE.INTER.norm>
-1.14222

>  <SCORE.INTRA>
-9.46505

>  <SCORE.INTRA.DIHEDRAL>
6.07622

>  <SCORE.INTRA.DIHEDRAL.0>
4.94008

>  <SCORE.INTRA.POLAR>
0

>  <SCORE.INTRA.POLAR.0>
0

>  <SCORE.INTRA.REPUL>
0

>  <SCORE.INTRA.REPUL.0>
0

>  <SCORE.INTRA.SOLV>
-0.0956896

>  <SCORE.INTRA.SOLV.lig_0>
-31.4704

>  <SCORE.INTRA.VDW>
-12.4553

>  <SCORE.INTRA.VDW.0>
10.2807

>  <SCORE.INTRA.norm>
-0.394377

>  <SCORE.RESTR>
0

>  <SCORE.RESTR.CAVITY>
0

>  <SCORE.RESTR.norm>
0

>  <SCORE.SYSTEM>
0

>  <SCORE.SYSTEM.CONST>
0

>  <SCORE.SYSTEM.DIHEDRAL>
0

>  <SCORE.SYSTEM.SOLV>
0

>  <SCORE.SYSTEM.norm>
0

>  <SCORE.heavy>
24

>  <SCORE.norm>
-1.53659

>  <RMSD>
1.066

$$$$
ligand
 OpenBabel11021811493D
libRbt.so/2013.1/901 2013/11/27
 24 26  0  0  0  0  0  0  0  0999 V2000
    7.1798  -10.7436  -10.6227 N   0  0  0  0  0  0  0  0  0  0  0  0
    5.7900  -10.6220  -11.0324 C   0  0  0  0  0  0  0  0  0  0  0  0
   13.2080   -5.9382  -12.9717 O   0  0  0  0  0  0  0  0  0  0  0  0
   11.8918   -5.5321  -12.7965 C   0  0  0  0  0  0  0  0  0  0  0  0
    7.7850   -4.4638  -12.2952 N   0  0  0  0  0  0  0  0  0  0  0  0
   11.5077   -4.0772  -12.8460 C   0  0  0  0  0  0  0  0  0  0  0  0
    8.2676   -6.6550  -12.1898 N   0  0  0  0  0  0  0  0  0  0  0  0
   10.1536   -3.6344  -12.6963 C   0  0  0  0  0  0  0  0  0  0  0  0
    5.8666   -6.0038  -11.8933 N   0  0  0  0  0  0  0  0  0  0  0  0
    9.1617   -4.6552  -12.4776 C   0  0  0  0  0  0  0  0  0  0  0  0
   12.7176  -10.6050  -12.0672 N   0  0  0  0  0  0  0  0  0  0  0  0
    9.5172   -6.0475  -12.4127 C   0  0  0  0  0  0  0  0  0  0  0  0
   10.9361   -6.4630  -12.5855 C   0  0  0  0  0  0  0  0  0  0  0  0
    7.2508   -5.7081  -12.1264 C   0  0  0  0  0  0  0  0  0  0  0  0
   11.2901   -7.9371  -12.5236 C   0  0  0  0  0  0  0  0  0  0  0  0
   12.7833   -8.2428  -12.4758 C   0  0  1  0  0  0  0  0  0  0  0  0
   13.6162   -7.0210  -12.2122 C   0  0  0  0  0  0  0  0  0  0  0  0
   13.0594   -9.3338  -11.4524 C   0  0  0  0  0  0  0  0  0  0  0  0
    8.0524   -8.1132  -12.1214 C   0  0  0  0  0  0  0  0  0  0  0  0
   13.8689  -11.0752  -12.8258 C   0  0  0  0  0  0  0  0  0  0  0  0
   12.4185  -11.5421  -10.9959 C   0  0  0  0  0  0  0  0  0  0  0  0
    8.7446   -8.8288  -10.9486 C   0  0  0  0  0  0  0  0  0  0  0  0
    7.6594   -9.4714  -10.0643 C   0  0  0  0  0  0  0  0  0  0  0  0
    7.2704  -11.8195   -9.6420 C   0  0  0  0  0  0  0  0  0  0  0  0
  1 23  1  0  0  0  0
  1 24  1  0  0  0  0
  1  2  1  0  0  0  0
  3  4  1  0  0  0  0
  3 17  1  0  0  0  0
  4  6  2  0  0  0  0
  4 13  1  0  0  0  0
  5 10  1  0  0  0  0
  5 14  2  0  0  0  0
  6  8  1  0  0  0  0
  7 12  1  0  0  0  0
  7 14  1  0  0  0  0
  7 19  1  0  0  0  0
  8 10  2  0  0  0  0
  9 14  1  0  0  0  0
 10 12  1  0  0  0  0
 11 18  1  0  0  0  0
 11 20  1  0  0  0  0
 11 21  1  0  0  0  0
 12 13  2  0  0  0  0
 13 15  1  0  0  0  0
 15 16  1  0  0  0  0
 16 17  1  0  0  0  0
 16 18  1  1  0  0  0
 19 22  1  0  0  0  0
 22 23  1  0  0  0  0
M  END
>  <CHROM.1>
-113.53239091,64.61246054,85.52738168,79.00019953,118.30706694,80.11609221
10.00653607,-7.82969567,-11.89550744,-2.77871403,0.18158126,-0.25651629

>  <Name>
ligand

>  <RI>
144

>  <Rbt.Current_Directory>
/home/itssahil/PROJECTS/Mol_Feturizer/New_Systems/rnas/3TZR

>  <Rbt.Executable>
rbdock ($Id: //depot/dev/client3/rdock/2013.1/src/exe/rbdock.cxx#4 $)

>  <Rbt.Library>
libRbt.so (2013.1, Build901 2013/11/27)

>  <Rbt.Parameter_File>
/export/apps/rDock/src/rDock_2013.1_src/data/scripts/dock_solv.prm

>  <Rbt.Receptor>
prm/blind_docking_60.prm

>  <SCORE>
-33.5573

>  <SCORE.INTER>
-26.2063

>  <SCORE.INTER.CONST>
1

>  <SCORE.INTER.POLAR>
0

>  <SCORE.INTER.ROT>
6

>  <SCORE.INTER.SOLV>
20.8138

>  <SCORE.INTER.VDW>
-32.0088

>  <SCORE.INTER.norm>
-1.09193

>  <SCORE.INTRA>
-7.35102

>  <SCORE.INTRA.DIHEDRAL>
7.60774

>  <SCORE.INTRA.DIHEDRAL.0>
4.94008

>  <SCORE.INTRA.POLAR>
0

>  <SCORE.INTRA.POLAR.0>
0

>  <SCORE.INTRA.REPUL>
0

>  <SCORE.INTRA.REPUL.0>
0

>  <SCORE.INTRA.SOLV>
0.128638

>  <SCORE.INTRA.SOLV.lig_0>
-31.4704

>  <SCORE.INTRA.VDW>
-11.2192

>  <SCORE.INTRA.VDW.0>
10.2807

>  <SCORE.INTRA.norm>
-0.306293

>  <SCORE.RESTR>
0

>  <SCORE.RESTR.CAVITY>
0

>  <SCORE.RESTR.norm>
0

>  <SCORE.SYSTEM>
0

>  <SCORE.SYSTEM.CONST>
0

>  <SCORE.SYSTEM.DIHEDRAL>
0

>  <SCORE.SYSTEM.SOLV>
0

>  <SCORE.SYSTEM.norm>
0

>  <SCORE.heavy>
24

>  <SCORE.norm>
-1.39822

>  <RMSD>
1.068

$$$$
ligand
 OpenBabel11021811493D
libRbt.so/2013.1/901 2013/11/27
 24 26  0  0  0  0  0  0  0  0999 V2000
    7.5156  -10.7315  -10.9229 N   0  0  0  0  0  0  0  0  0  0  0  0
    6.4563  -11.5440  -11.4992 C   0  0  0  0  0  0  0  0  0  0  0  0
   13.8102   -7.5632  -13.2772 O   0  0  0  0  0  0  0  0  0  0  0  0
   12.7710   -6.7219  -12.9032 C   0  0  0  0  0  0  0  0  0  0  0  0
    9.4484   -4.2764  -11.7900 N   0  0  0  0  0  0  0  0  0  0  0  0
   12.9578   -5.2296  -12.8327 C   0  0  0  0  0  0  0  0  0  0  0  0
    9.0822   -6.4918  -11.8524 N   0  0  0  0  0  0  0  0  0  0  0  0
   11.8945   -4.3381  -12.4769 C   0  0  0  0  0  0  0  0  0  0  0  0
    7.1501   -5.0377  -11.1970 N   0  0  0  0  0  0  0  0  0  0  0  0
   10.6232   -4.9405  -12.1698 C   0  0  0  0  0  0  0  0  0  0  0  0
   13.4321  -11.8134  -12.4819 N   0  0  0  0  0  0  0  0  0  0  0  0
   10.4352   -6.3658  -12.2183 C   0  0  0  0  0  0  0  0  0  0  0  0
   11.5657   -7.2537  -12.6046 C   0  0  0  0  0  0  0  0  0  0  0  0
    8.5088   -5.2488  -11.6058 C   0  0  0  0  0  0  0  0  0  0  0  0
   11.3454   -8.7539  -12.6595 C   0  0  0  0  0  0  0  0  0  0  0  0
   12.6101   -9.5880  -12.8330 C   0  0  1  0  0  0  0  0  0  0  0  0
   13.8643   -8.7865  -12.6317 C   0  0  0  0  0  0  0  0  0  0  0  0
   12.5689  -10.7953  -11.9084 C   0  0  0  0  0  0  0  0  0  0  0  0
    8.3447   -7.7694  -11.8215 C   0  0  0  0  0  0  0  0  0  0  0  0
   13.9689  -12.6269  -11.3994 C   0  0  0  0  0  0  0  0  0  0  0  0
   12.6136  -12.6377  -13.3572 C   0  0  0  0  0  0  0  0  0  0  0  0
    8.1061   -8.3606  -10.4214 C   0  0  0  0  0  0  0  0  0  0  0  0
    6.9905   -9.4175  -10.5252 C   0  0  0  0  0  0  0  0  0  0  0  0
    8.0658  -11.4498   -9.7789 C   0  0  0  0  0  0  0  0  0  0  0  0
  1 23  1  0  0  0  0
  1 24  1  0  0  0  0
  1  2  1  0  0  0  0
  3  4  1  0  0  0  0
  3 17  1  0  0  0  0
  4  6  2  0  0  0  0
  4 13  1  0  0  0  0
  5 10  1  0  0  0  0
  5 14  2  0  0  0  0
  6  8  1  0  0  0  0
  7 12  1  0  0  0  0
  7 14  1  0  0  0  0
  7 19  1  0  0  0  0
  8 10  2  0  0  0  0
  9 14  1  0  0  0  0
 10 12  1  0  0  0  0
 11 18  1  0  0  0  0
 11 20  1  0  0  0  0
 11 21  1  0  0  0  0
 12 13  2  0  0  0  0
 13 15  1  0  0  0  0
 15 16  1  0  0  0  0
 16 17  1  0  0  0  0
 16 18  1  1  0  0  0
 19 22  1  0  0  0  0
 22 23  1  0  0  0  0
M  END
>  <CHROM.1>
-158.27219160,103.81762224,150.80613581,155.91946687,162.96347434,85.08337313
10.56991203,-8.38653017,-11.94623114,0.93913443,-0.29434363,3.04755000

>  <Name>
ligand

>  <RI>
0

>  <Rbt.Current_Directory>
/home/itssahil/PROJECTS/Mol_Feturizer/New_Systems/rnas/3TZR

>  <Rbt.Executable>
rbdock ($Id: //depot/dev/client3/rdock/2013.1/src/exe/rbdock.cxx#4 $)

>  <Rbt.Library>
libRbt.so (2013.1, Build901 2013/11/27)

>  <Rbt.Parameter_File>
/export/apps/rDock/src/rDock_2013.1_src/data/scripts/dock_solv.prm

>  <Rbt.Receptor>
prm/blind_docking_40.prm

>  <SCORE>
-31.7333

>  <SCORE.INTER>
-22.544

>  <SCORE.INTER.CONST>
1

>  <SCORE.INTER.POLAR>
0

>  <SCORE.INTER.ROT>
6

>  <SCORE.INTER.SOLV>
20.8951

>  <SCORE.INTER.VDW>
-29.5944

>  <SCORE.INTER.norm>
-0.939335

>  <SCORE.INTRA>
-9.21221

>  <SCORE.INTRA.DIHEDRAL>
3.23647

>  <SCORE.INTRA.DIHEDRAL.0>
4.94008

>  <SCORE.INTRA.POLAR>
0

>  <SCORE.INTRA.POLAR.0>
0

>  <SCORE.INTRA.REPUL>
0

>  <SCORE.INTRA.REPUL.0>
0

>  <SCORE.INTRA.SOLV>
0.535007

>  <SCORE.INTRA.SOLV.lig_0>
-31.4704

>  <SCORE.INTRA.VDW>
-11.0979

>  <SCORE.INTRA.VDW.0>
10.2807

>  <SCORE.INTRA.norm>
-0.383842

>  <SCORE.RESTR>
0.0229291

>  <SCORE.RESTR.CAVITY>
0.0229291

>  <SCORE.RESTR.norm>
0.000955381

>  <SCORE.SYSTEM>
0

>  <SCORE.SYSTEM.CONST>
0

>  <SCORE.SYSTEM.DIHEDRAL>
0

>  <SCORE.SYSTEM.SOLV>
0

>  <SCORE.SYSTEM.norm>
0

>  <SCORE.heavy>
24

>  <SCORE.norm>
-1.32222

>  <RMSD>
1.069

$$$$
ligand
 OpenBabel11021811493D
libRbt.so/2013.1/901 2013/11/27
 24 26  0  0  0  0  0  0  0  0999 V2000
    8.6436  -11.1620   -9.4043 N   0  0  0  0  0  0  0  0  0  0  0  0
    8.7457  -12.5247   -9.9012 C   0  0  0  0  0  0  0  0  0  0  0  0
   13.2494   -6.3272  -13.0888 O   0  0  0  0  0  0  0  0  0  0  0  0
   12.0100   -5.8295  -12.7095 C   0  0  0  0  0  0  0  0  0  0  0  0
    8.1193   -4.4719  -11.5788 N   0  0  0  0  0  0  0  0  0  0  0  0
   11.7471   -4.3484  -12.6442 C   0  0  0  0  0  0  0  0  0  0  0  0
    8.4248   -6.6966  -11.6328 N   0  0  0  0  0  0  0  0  0  0  0  0
   10.4698   -3.8099  -12.2830 C   0  0  0  0  0  0  0  0  0  0  0  0
    6.1530   -5.8765  -10.9673 N   0  0  0  0  0  0  0  0  0  0  0  0
    9.4357   -4.7602  -11.9652 C   0  0  0  0  0  0  0  0  0  0  0  0
   12.2680  -10.9252  -12.1612 N   0  0  0  0  0  0  0  0  0  0  0  0
    9.6777   -6.1774  -12.0088 C   0  0  0  0  0  0  0  0  0  0  0  0
   11.0180   -6.6928  -12.4009 C   0  0  0  0  0  0  0  0  0  0  0  0
    7.5108   -5.6779  -11.3853 C   0  0  0  0  0  0  0  0  0  0  0  0
   11.2512   -8.1912  -12.4504 C   0  0  0  0  0  0  0  0  0  0  0  0
   12.7051   -8.6144  -12.6307 C   0  0  1  0  0  0  0  0  0  0  0  0
   13.6671   -7.4767  -12.4406 C   0  0  0  0  0  0  0  0  0  0  0  0
   13.0287   -9.7755  -11.7028 C   0  0  0  0  0  0  0  0  0  0  0  0
    8.0988   -8.1351  -11.5933 C   0  0  0  0  0  0  0  0  0  0  0  0
   13.0307  -11.5974  -13.2044 C   0  0  0  0  0  0  0  0  0  0  0  0
   12.0966  -11.8170  -11.0251 C   0  0  0  0  0  0  0  0  0  0  0  0
    8.3486   -8.8322  -10.2448 C   0  0  0  0  0  0  0  0  0  0  0  0
    7.9498  -10.3134  -10.3836 C   0  0  0  0  0  0  0  0  0  0  0  0
    7.9290  -11.1958   -8.1332 C   0  0  0  0  0  0  0  0  0  0  0  0
  1 23  1  0  0  0  0
  1 24  1  0  0  0  0
  1  2  1  0  0  0  0
  3  4  1  0  0  0  0
  3 17  1  0  0  0  0
  4  6  2  0  0  0  0
  4 13  1  0  0  0  0
  5 10  1  0  0  0  0
  5 14  2  0  0  0  0
  6  8  1  0  0  0  0
  7 12  1  0  0  0  0
  7 14  1  0  0  0  0
  7 19  1  0  0  0  0
  8 10  2  0  0  0  0
  9 14  1  0  0  0  0
 10 12  1  0  0  0  0
 11 18  1  0  0  0  0
 11 20  1  0  0  0  0
 11 21  1  0  0  0  0
 12 13  2  0  0  0  0
 13 15  1  0  0  0  0
 15 16  1  0  0  0  0
 16 17  1  0  0  0  0
 16 18  1  1  0  0  0
 19 22  1  0  0  0  0
 22 23  1  0  0  0  0
M  END
>  <CHROM.1>
-154.35346105,91.13331029,85.66858484,67.34981854,179.70424083,156.05035635
10.24465970,-8.11679520,-11.54766166,1.52900974,-0.39900247,2.87387957

>  <Name>
ligand

>  <RI>
0

>  <Rbt.Current_Directory>
/home/itssahil/PROJECTS/Mol_Feturizer/New_Systems/rnas/3TZR

>  <Rbt.Executable>
rbdock ($Id: //depot/dev/client3/rdock/2013.1/src/exe/rbdock.cxx#4 $)

>  <Rbt.Library>
libRbt.so (2013.1, Build901 2013/11/27)

>  <Rbt.Parameter_File>
/export/apps/rDock/src/rDock_2013.1_src/data/scripts/dock_solv.prm

>  <Rbt.Receptor>
prm/pocket_docking_7.prm

>  <SCORE>
-37.838

>  <SCORE.INTER>
-26.6666

>  <SCORE.INTER.CONST>
1

>  <SCORE.INTER.POLAR>
-0.72111

>  <SCORE.INTER.ROT>
6

>  <SCORE.INTER.SOLV>
19.9984

>  <SCORE.INTER.VDW>
-29.6402

>  <SCORE.INTER.norm>
-1.11111

>  <SCORE.INTRA>
-11.1715

>  <SCORE.INTRA.DIHEDRAL>
0.365632

>  <SCORE.INTRA.DIHEDRAL.0>
4.94008

>  <SCORE.INTRA.POLAR>
0

>  <SCORE.INTRA.POLAR.0>
0

>  <SCORE.INTRA.REPUL>
0

>  <SCORE.INTRA.REPUL.0>
0

>  <SCORE.INTRA.SOLV>
0.103717

>  <SCORE.INTRA.SOLV.lig_0>
-31.4704

>  <SCORE.INTRA.VDW>
-11.4061

>  <SCORE.INTRA.VDW.0>
10.2807

>  <SCORE.INTRA.norm>
-0.465478

>  <SCORE.RESTR>
0

>  <SCORE.RESTR.CAVITY>
0

>  <SCORE.RESTR.norm>
0

>  <SCORE.SYSTEM>
0

>  <SCORE.SYSTEM.CONST>
0

>  <SCORE.SYSTEM.DIHEDRAL>
0

>  <SCORE.SYSTEM.SOLV>
0

>  <SCORE.SYSTEM.norm>
0

>  <SCORE.heavy>
24

>  <SCORE.norm>
-1.57659

>  <RMSD>
1.070

$$$$
ligand
 OpenBabel11021811493D
libRbt.so/2013.1/901 2013/11/27
 24 26  0  0  0  0  0  0  0  0999 V2000
    7.0342  -10.9047  -11.5430 N   0  0  0  0  0  0  0  0  0  0  0  0
    6.2104  -12.0801  -11.7758 C   0  0  0  0  0  0  0  0  0  0  0  0
   13.2513   -6.3090  -13.1865 O   0  0  0  0  0  0  0  0  0  0  0  0
   12.0192   -5.8021  -12.7956 C   0  0  0  0  0  0  0  0  0  0  0  0
    8.1512   -4.4180  -11.6201 N   0  0  0  0  0  0  0  0  0  0  0  0
   11.7498   -4.3209  -12.7829 C   0  0  0  0  0  0  0  0  0  0  0  0
    8.4677   -6.6417  -11.5928 N   0  0  0  0  0  0  0  0  0  0  0  0
   10.4792   -3.7741  -12.4108 C   0  0  0  0  0  0  0  0  0  0  0  0
    6.2092   -5.8059  -10.9022 N   0  0  0  0  0  0  0  0  0  0  0  0
    9.4589   -4.7156  -12.0285 C   0  0  0  0  0  0  0  0  0  0  0  0
   12.2950  -10.8606  -12.0297 N   0  0  0  0  0  0  0  0  0  0  0  0
    9.7076   -6.1323  -12.0214 C   0  0  0  0  0  0  0  0  0  0  0  0
   11.0403   -6.6569  -12.4271 C   0  0  0  0  0  0  0  0  0  0  0  0
    7.5546   -5.6180  -11.3627 C   0  0  0  0  0  0  0  0  0  0  0  0
   11.2806   -8.1550  -12.4224 C   0  0  0  0  0  0  0  0  0  0  0  0
   12.7318   -8.5784  -12.6232 C   0  0  1  0  0  0  0  0  0  0  0  0
   13.6919   -7.4296  -12.5037 C   0  0  0  0  0  0  0  0  0  0  0  0
   13.0856   -9.6998  -11.6581 C   0  0  0  0  0  0  0  0  0  0  0  0
    8.1509   -8.0789  -11.4872 C   0  0  0  0  0  0  0  0  0  0  0  0
   13.0813  -11.6827  -12.9395 C   0  0  0  0  0  0  0  0  0  0  0  0
   12.0135  -11.6055  -10.8125 C   0  0  0  0  0  0  0  0  0  0  0  0
    7.1277   -8.6065  -12.5077 C   0  0  0  0  0  0  0  0  0  0  0  0
    6.2666   -9.6820  -11.8191 C   0  0  0  0  0  0  0  0  0  0  0  0
    7.4931  -10.9402  -10.1590 C   0  0  0  0  0  0  0  0  0  0  0  0
  1 23  1  0  0  0  0
  1 24  1  0  0  0  0
  1  2  1  0  0  0  0
  3  4  1  0  0  0  0
  3 17  1  0  0  0  0
  4  6  2  0  0  0  0
  4 13  1  0  0  0  0
  5 10  1  0  0  0  0
  5 14  2  0  0  0  0
  6  8  1  0  0  0  0
  7 12  1  0  0  0  0
  7 14  1  0  0  0  0
  7 19  1  0  0  0  0
  8 10  2  0  0  0  0
  9 14  1  0  0  0  0
 10 12  1  0  0  0  0
 11 18  1  0  0  0  0
 11 20  1  0  0  0  0
 11 21  1  0  0  0  0
 12 13  2  0  0  0  0
 13 15  1  0  0  0  0
 15 16  1  0  0  0  0
 16 17  1  0  0  0  0
 16 18  1  1  0  0  0
 19 22  1  0  0  0  0
 22 23  1  0  0  0  0
M  END
>  <CHROM.1>
-141.41232774,-110.89669867,93.17901913,65.95677628,-144.40440752,-69.80571477
9.93353839,-7.99902260,-11.96177871,-2.52595007,0.16836868,-0.07886125

>  <Name>
ligand

>  <RI>
0

>  <Rbt.Current_Directory>
/home/itssahil/PROJECTS/Mol_Feturizer/New_Systems/rnas/3TZR

>  <Rbt.Executable>
rbdock ($Id: //depot/dev/client3/rdock/2013.1/src/exe/rbdock.cxx#4 $)

>  <Rbt.Library>
libRbt.so (2013.1, Build901 2013/11/27)

>  <Rbt.Parameter_File>
/export/apps/rDock/src/rDock_2013.1_src/data/scripts/dock_solv.prm

>  <Rbt.Receptor>
prm/blind_docking_100.prm

>  <SCORE>
-31.8855

>  <SCORE.INTER>
-23.2967

>  <SCORE.INTER.CONST>
1

>  <SCORE.INTER.POLAR>
0

>  <SCORE.INTER.ROT>
6

>  <SCORE.INTER.SOLV>
19.8388

>  <SCORE.INTER.VDW>
-29.7441

>  <SCORE.INTER.norm>
-0.970695

>  <SCORE.INTRA>
-8.59648

>  <SCORE.INTRA.DIHEDRAL>
3.39666

>  <SCORE.INTRA.DIHEDRAL.0>
4.94008

>  <SCORE.INTRA.POLAR>
0

>  <SCORE.INTRA.POLAR.0>
0

>  <SCORE.INTRA.REPUL>
0

>  <SCORE.INTRA.REPUL.0>
0

>  <SCORE.INTRA.SOLV>
1.23465

>  <SCORE.INTRA.SOLV.lig_0>
-31.4704

>  <SCORE.INTRA.VDW>
-10.9121

>  <SCORE.INTRA.VDW.0>
10.2807

>  <SCORE.INTRA.norm>
-0.358187

>  <SCORE.RESTR>
0.00767124

>  <SCORE.RESTR.CAVITY>
0.00767124

>  <SCORE.RESTR.norm>
0.000319635

>  <SCORE.SYSTEM>
0

>  <SCORE.SYSTEM.CONST>
0

>  <SCORE.SYSTEM.DIHEDRAL>
0

>  <SCORE.SYSTEM.SOLV>
0

>  <SCORE.SYSTEM.norm>
0

>  <SCORE.heavy>
24

>  <SCORE.norm>
-1.32856

>  <RMSD>
1.073

$$$$
ligand
 OpenBabel11021811493D
libRbt.so/2013.1/901 2013/11/27
 24 26  0  0  0  0  0  0  0  0999 V2000
    6.7017  -10.6180  -10.5460 N   0  0  0  0  0  0  0  0  0  0  0  0
    6.5868  -11.8905   -9.8518 C   0  0  0  0  0  0  0  0  0  0  0  0
   13.2260   -6.1042  -13.0060 O   0  0  0  0  0  0  0  0  0  0  0  0
   11.9373   -5.6414  -12.7765 C   0  0  0  0  0  0  0  0  0  0  0  0
    7.9056   -4.3964  -12.1022 N   0  0  0  0  0  0  0  0  0  0  0  0
   11.6108   -4.1726  -12.8322 C   0  0  0  0  0  0  0  0  0  0  0  0
    8.3030   -6.6040  -11.9831 N   0  0  0  0  0  0  0  0  0  0  0  0
   10.2845   -3.6720  -12.6268 C   0  0  0  0  0  0  0  0  0  0  0  0
    5.9472   -5.8495  -11.5858 N   0  0  0  0  0  0  0  0  0  0  0  0
    9.2633   -4.6474  -12.3453 C   0  0  0  0  0  0  0  0  0  0  0  0
   12.3618  -10.6828  -11.8877 N   0  0  0  0  0  0  0  0  0  0  0  0
    9.5644   -6.0521  -12.2740 C   0  0  0  0  0  0  0  0  0  0  0  0
   10.9554   -6.5287  -12.5058 C   0  0  0  0  0  0  0  0  0  0  0  0
    7.3297   -5.6149  -11.8881 C   0  0  0  0  0  0  0  0  0  0  0  0
   11.2516   -8.0151  -12.4360 C   0  0  0  0  0  0  0  0  0  0  0  0
   12.7317   -8.3817  -12.4528 C   0  0  1  0  0  0  0  0  0  0  0  0
   13.6252   -7.1918  -12.2486 C   0  0  0  0  0  0  0  0  0  0  0  0
   13.0111   -9.4682  -11.4254 C   0  0  0  0  0  0  0  0  0  0  0  0
    8.0320   -8.0509  -11.8806 C   0  0  0  0  0  0  0  0  0  0  0  0
   13.2927  -11.4074  -12.7423 C   0  0  0  0  0  0  0  0  0  0  0  0
   12.0461  -11.4830  -10.7149 C   0  0  0  0  0  0  0  0  0  0  0  0
    8.2557   -8.6679  -10.4892 C   0  0  0  0  0  0  0  0  0  0  0  0
    8.1084  -10.1965  -10.6074 C   0  0  0  0  0  0  0  0  0  0  0  0
    6.1386  -10.7784  -11.8819 C   0  0  0  0  0  0  0  0  0  0  0  0
  1 23  1  0  0  0  0
  1 24  1  0  0  0  0
  1  2  1  0  0  0  0
  3  4  1  0  0  0  0
  3 17  1  0  0  0  0
  4  6  2  0  0  0  0
  4 13  1  0  0  0  0
  5 10  1  0  0  0  0
  5 14  2  0  0  0  0
  6  8  1  0  0  0  0
  7 12  1  0  0  0  0
  7 14  1  0  0  0  0
  7 19  1  0  0  0  0
  8 10  2  0  0  0  0
  9 14  1  0  0  0  0
 10 12  1  0  0  0  0
 11 18  1  0  0  0  0
 11 20  1  0  0  0  0
 11 21  1  0  0  0  0
 12 13  2  0  0  0  0
 13 15  1  0  0  0  0
 15 16  1  0  0  0  0
 16 17  1  0  0  0  0
 16 18  1  1  0  0  0
 19 22  1  0  0  0  0
 22 23  1  0  0  0  0
M  END
>  <CHROM.1>
-144.68426486,87.84790835,88.81388484,68.25148985,-172.67455275,-83.23473722
9.93426740,-7.89828150,-11.85149010,2.35050296,-0.17567107,2.93216344

>  <Name>
ligand

>  <RI>
0

>  <Rbt.Current_Directory>
/home/itssahil/PROJECTS/Mol_Feturizer/New_Systems/rnas/3TZR

>  <Rbt.Executable>
rbdock ($Id: //depot/dev/client3/rdock/2013.1/src/exe/rbdock.cxx#4 $)

>  <Rbt.Library>
libRbt.so (2013.1, Build901 2013/11/27)

>  <Rbt.Parameter_File>
/export/apps/rDock/src/rDock_2013.1_src/data/scripts/dock_solv.prm

>  <Rbt.Receptor>
prm/blind_docking_40.prm

>  <SCORE>
-35.7039

>  <SCORE.INTER>
-24.9338

>  <SCORE.INTER.CONST>
1

>  <SCORE.INTER.POLAR>
0

>  <SCORE.INTER.ROT>
6

>  <SCORE.INTER.SOLV>
20.3236

>  <SCORE.INTER.VDW>
-30.9971

>  <SCORE.INTER.norm>
-1.03891

>  <SCORE.INTRA>
-10.7701

>  <SCORE.INTRA.DIHEDRAL>
1.30657

>  <SCORE.INTRA.DIHEDRAL.0>
4.94008

>  <SCORE.INTRA.POLAR>
0

>  <SCORE.INTRA.POLAR.0>
0

>  <SCORE.INTRA.REPUL>
0

>  <SCORE.INTRA.REPUL.0>
0

>  <SCORE.INTRA.SOLV>
0.00541094

>  <SCORE.INTRA.SOLV.lig_0>
-31.4704

>  <SCORE.INTRA.VDW>
-11.4261

>  <SCORE.INTRA.VDW.0>
10.2807

>  <SCORE.INTRA.norm>
-0.448754

>  <SCORE.RESTR>
0

>  <SCORE.RESTR.CAVITY>
0

>  <SCORE.RESTR.norm>
0

>  <SCORE.SYSTEM>
0

>  <SCORE.SYSTEM.CONST>
0

>  <SCORE.SYSTEM.DIHEDRAL>
0

>  <SCORE.SYSTEM.SOLV>
0

>  <SCORE.SYSTEM.norm>
0

>  <SCORE.heavy>
24

>  <SCORE.norm>
-1.48766

>  <RMSD>
1.073

$$$$
ligand
 OpenBabel11021811493D
libRbt.so/2013.1/901 2013/11/27
 24 26  0  0  0  0  0  0  0  0999 V2000
    7.0159  -10.6132  -10.5199 N   0  0  0  0  0  0  0  0  0  0  0  0
    7.0514  -11.8592   -9.7712 C   0  0  0  0  0  0  0  0  0  0  0  0
   13.7115   -7.4565  -13.2683 O   0  0  0  0  0  0  0  0  0  0  0  0
   12.6491   -6.6420  -12.8999 C   0  0  0  0  0  0  0  0  0  0  0  0
    9.2599   -4.2842  -11.7985 N   0  0  0  0  0  0  0  0  0  0  0  0
   12.7848   -5.1428  -12.8709 C   0  0  0  0  0  0  0  0  0  0  0  0
    8.9704   -6.5117  -11.7979 N   0  0  0  0  0  0  0  0  0  0  0  0
   11.6963   -4.2795  -12.5216 C   0  0  0  0  0  0  0  0  0  0  0  0
    6.9986   -5.1085  -11.1501 N   0  0  0  0  0  0  0  0  0  0  0  0
   10.4515   -4.9171  -12.1792 C   0  0  0  0  0  0  0  0  0  0  0  0
   13.3353  -11.7675  -12.4452 N   0  0  0  0  0  0  0  0  0  0  0  0
   10.3127   -6.3488  -12.1880 C   0  0  0  0  0  0  0  0  0  0  0  0
   11.4677   -7.2071  -12.5689 C   0  0  0  0  0  0  0  0  0  0  0  0
    8.3577   -5.2833  -11.5745 C   0  0  0  0  0  0  0  0  0  0  0  0
   11.2991   -8.7149  -12.5816 C   0  0  0  0  0  0  0  0  0  0  0  0
   12.5895   -9.5091  -12.7532 C   0  0  1  0  0  0  0  0  0  0  0  0
   13.8178   -8.6598  -12.5923 C   0  0  0  0  0  0  0  0  0  0  0  0
   12.6041  -10.6923  -11.7972 C   0  0  0  0  0  0  0  0  0  0  0  0
    8.2785   -7.8129  -11.7224 C   0  0  0  0  0  0  0  0  0  0  0  0
   13.9159  -12.6176  -11.4146 C   0  0  0  0  0  0  0  0  0  0  0  0
   12.3813  -12.5318  -13.2333 C   0  0  0  0  0  0  0  0  0  0  0  0
    8.4518   -8.5773  -10.3986 C   0  0  0  0  0  0  0  0  0  0  0  0
    8.3767  -10.0865  -10.6970 C   0  0  0  0  0  0  0  0  0  0  0  0
    6.3786  -10.8752  -11.8054 C   0  0  0  0  0  0  0  0  0  0  0  0
  1 23  1  0  0  0  0
  1 24  1  0  0  0  0
  1  2  1  0  0  0  0
  3  4  1  0  0  0  0
  3 17  1  0  0  0  0
  4  6  2  0  0  0  0
  4 13  1  0  0  0  0
  5 10  1  0  0  0  0
  5 14  2  0  0  0  0
  6  8  1  0  0  0  0
  7 12  1  0  0  0  0
  7 14  1  0  0  0  0
  7 19  1  0  0  0  0
  8 10  2  0  0  0  0
  9 14  1  0  0  0  0
 10 12  1  0  0  0  0
 11 18  1  0  0  0  0
 11 20  1  0  0  0  0
 11 21  1  0  0  0  0
 12 13  2  0  0  0  0
 13 15  1  0  0  0  0
 15 16  1  0  0  0  0
 16 17  1  0  0  0  0
 16 18  1  1  0  0  0
 19 22  1  0  0  0  0
 22 23  1  0  0  0  0
M  END
>  <CHROM.1>
-134.44621652,85.90451214,153.15892375,147.84915276,-149.92409253,-93.91289437
10.48705387,-8.37627031,-11.92060879,1.00819039,-0.28877283,3.03349464

>  <Name>
ligand

>  <RI>
0

>  <Rbt.Current_Directory>
/home/itssahil/PROJECTS/Mol_Feturizer/New_Systems/rnas/3TZR

>  <Rbt.Executable>
rbdock ($Id: //depot/dev/client3/rdock/2013.1/src/exe/rbdock.cxx#4 $)

>  <Rbt.Library>
libRbt.so (2013.1, Build901 2013/11/27)

>  <Rbt.Parameter_File>
/export/apps/rDock/src/rDock_2013.1_src/data/scripts/dock_solv.prm

>  <Rbt.Receptor>
prm/blind_docking_40.prm

>  <SCORE>
-29.9056

>  <SCORE.INTER>
-22.4599

>  <SCORE.INTER.CONST>
1

>  <SCORE.INTER.POLAR>
0

>  <SCORE.INTER.ROT>
6

>  <SCORE.INTER.SOLV>
21.1731

>  <SCORE.INTER.VDW>
-29.631

>  <SCORE.INTER.norm>
-0.93583

>  <SCORE.INTRA>
-7.44889

>  <SCORE.INTRA.DIHEDRAL>
8.56059

>  <SCORE.INTRA.DIHEDRAL.0>
4.94008

>  <SCORE.INTRA.POLAR>
0

>  <SCORE.INTRA.POLAR.0>
0

>  <SCORE.INTRA.REPUL>
0

>  <SCORE.INTRA.REPUL.0>
0

>  <SCORE.INTRA.SOLV>
-0.092897

>  <SCORE.INTRA.SOLV.lig_0>
-31.4704

>  <SCORE.INTRA.VDW>
-11.6827

>  <SCORE.INTRA.VDW.0>
10.2807

>  <SCORE.INTRA.norm>
-0.31037

>  <SCORE.RESTR>
0.00318235

>  <SCORE.RESTR.CAVITY>
0.00318235

>  <SCORE.RESTR.norm>
0.000132598

>  <SCORE.SYSTEM>
0

>  <SCORE.SYSTEM.CONST>
0

>  <SCORE.SYSTEM.DIHEDRAL>
0

>  <SCORE.SYSTEM.SOLV>
0

>  <SCORE.SYSTEM.norm>
0

>  <SCORE.heavy>
24

>  <SCORE.norm>
-1.24607

>  <RMSD>
1.075

$$$$
ligand
 OpenBabel11021811493D
libRbt.so/2013.1/901 2013/11/27
 24 26  0  0  0  0  0  0  0  0999 V2000
    7.0339  -10.5456  -10.1120 N   0  0  0  0  0  0  0  0  0  0  0  0
    8.1808  -11.3154   -9.6579 C   0  0  0  0  0  0  0  0  0  0  0  0
   13.1051   -5.7866  -12.5450 O   0  0  0  0  0  0  0  0  0  0  0  0
   11.7715   -5.4189  -12.4263 C   0  0  0  0  0  0  0  0  0  0  0  0
    7.6177   -4.4608  -12.1316 N   0  0  0  0  0  0  0  0  0  0  0  0
   11.3666   -3.9761  -12.2808 C   0  0  0  0  0  0  0  0  0  0  0  0
    8.1292   -6.6390  -12.3290 N   0  0  0  0  0  0  0  0  0  0  0  0
    9.9967   -3.5684  -12.1846 C   0  0  0  0  0  0  0  0  0  0  0  0
    5.7000   -6.0531  -12.1491 N   0  0  0  0  0  0  0  0  0  0  0  0
    9.0084   -4.6150  -12.2183 C   0  0  0  0  0  0  0  0  0  0  0  0
   12.4232  -10.5248  -12.3629 N   0  0  0  0  0  0  0  0  0  0  0  0
    9.3822   -5.9986  -12.3414 C   0  0  0  0  0  0  0  0  0  0  0  0
   10.8181   -6.3756  -12.4502 C   0  0  0  0  0  0  0  0  0  0  0  0
    7.0936   -5.7184  -12.2085 C   0  0  0  0  0  0  0  0  0  0  0  0
   11.1923   -7.8394  -12.5892 C   0  0  0  0  0  0  0  0  0  0  0  0
   12.6810   -8.1424  -12.4571 C   0  0  1  0  0  0  0  0  0  0  0  0
   13.4652   -6.9741  -11.9317 C   0  0  0  0  0  0  0  0  0  0  0  0
   12.8864   -9.3803  -11.5972 C   0  0  0  0  0  0  0  0  0  0  0  0
    7.9355   -8.0906  -12.5099 C   0  0  0  0  0  0  0  0  0  0  0  0
   13.5053  -10.9676  -13.2316 C   0  0  0  0  0  0  0  0  0  0  0  0
   12.0902  -11.5778  -11.4164 C   0  0  0  0  0  0  0  0  0  0  0  0
    8.4971   -8.9772  -11.3850 C   0  0  0  0  0  0  0  0  0  0  0  0
    7.4098   -9.1379  -10.3060 C   0  0  0  0  0  0  0  0  0  0  0  0
    6.5519  -11.1404  -11.3535 C   0  0  0  0  0  0  0  0  0  0  0  0
  1 23  1  0  0  0  0
  1 24  1  0  0  0  0
  1  2  1  0  0  0  0
  3  4  1  0  0  0  0
  3 17  1  0  0  0  0
  4  6  2  0  0  0  0
  4 13  1  0  0  0  0
  5 10  1  0  0  0  0
  5 14  2  0  0  0  0
  6  8  1  0  0  0  0
  7 12  1  0  0  0  0
  7 14  1  0  0  0  0
  7 19  1  0  0  0  0
  8 10  2  0  0  0  0
  9 14  1  0  0  0  0
 10 12  1  0  0  0  0
 11 18  1  0  0  0  0
 11 20  1  0  0  0  0
 11 21  1  0  0  0  0
 12 13  2  0  0  0  0
 13 15  1  0  0  0  0
 15 16  1  0  0  0  0
 16 17  1  0  0  0  0
 16 18  1  1  0  0  0
 19 22  1  0  0  0  0
 22 23  1  0  0  0  0
M  END
>  <CHROM.1>
61.74728715,66.44444919,84.63842178,70.22749532,88.28000951,119.79883167
9.92303847,-7.77556683,-11.90356496,0.85474134,-0.16989704,2.95810437

>  <Name>
ligand

>  <RI>
0

>  <Rbt.Current_Directory>
/home/itssahil/PROJECTS/Mol_Feturizer/New_Systems/rnas/3TZR

>  <Rbt.Executable>
rbdock ($Id: //depot/dev/client3/rdock/2013.1/src/exe/rbdock.cxx#4 $)

>  <Rbt.Library>
libRbt.so (2013.1, Build901 2013/11/27)

>  <Rbt.Parameter_File>
/export/apps/rDock/src/rDock_2013.1_src/data/scripts/dock_solv.prm

>  <Rbt.Receptor>
prm/pocket_docking_2.prm

>  <SCORE>
-28.096

>  <SCORE.INTER>
-24.1729

>  <SCORE.INTER.CONST>
1

>  <SCORE.INTER.POLAR>
0

>  <SCORE.INTER.ROT>
6

>  <SCORE.INTER.SOLV>
21.6109

>  <SCORE.INTER.VDW>
-30.9189

>  <SCORE.INTER.norm>
-1.00721

>  <SCORE.INTRA>
-4.01653

>  <SCORE.INTRA.DIHEDRAL>
5.57276

>  <SCORE.INTRA.DIHEDRAL.0>
4.94008

>  <SCORE.INTRA.POLAR>
0

>  <SCORE.INTRA.POLAR.0>
0

>  <SCORE.INTRA.REPUL>
0

>  <SCORE.INTRA.REPUL.0>
0

>  <SCORE.INTRA.SOLV>
0.344658

>  <SCORE.INTRA.SOLV.lig_0>
-31.4704

>  <SCORE.INTRA.VDW>
-6.97524

>  <SCORE.INTRA.VDW.0>
10.2807

>  <SCORE.INTRA.norm>
-0.167355

>  <SCORE.RESTR>
0.093486

>  <SCORE.RESTR.CAVITY>
0.093486

>  <SCORE.RESTR.norm>
0.00389525

>  <SCORE.SYSTEM>
0

>  <SCORE.SYSTEM.CONST>
0

>  <SCORE.SYSTEM.DIHEDRAL>
0

>  <SCORE.SYSTEM.SOLV>
0

>  <SCORE.SYSTEM.norm>
0

>  <SCORE.heavy>
24

>  <SCORE.norm>
-1.17067

>  <RMSD>
1.075

$$$$
ligand
 OpenBabel11021811493D
libRbt.so/2013.1/901 2013/11/27
 24 26  0  0  0  0  0  0  0  0999 V2000
    6.9220  -10.6292  -10.6783 N   0  0  0  0  0  0  0  0  0  0  0  0
    6.7945  -11.8307   -9.8693 C   0  0  0  0  0  0  0  0  0  0  0  0
   13.2335   -6.1768  -13.0584 O   0  0  0  0  0  0  0  0  0  0  0  0
   11.9558   -5.6852  -12.8272 C   0  0  0  0  0  0  0  0  0  0  0  0
    7.9542   -4.3505  -12.1455 N   0  0  0  0  0  0  0  0  0  0  0  0
   11.6591   -4.2108  -12.8980 C   0  0  0  0  0  0  0  0  0  0  0  0
    8.3072   -6.5643  -12.0032 N   0  0  0  0  0  0  0  0  0  0  0  0
   10.3443   -3.6808  -12.6912 C   0  0  0  0  0  0  0  0  0  0  0  0
    5.9696   -5.7573  -11.6019 N   0  0  0  0  0  0  0  0  0  0  0  0
    9.3051   -4.6319  -12.3930 C   0  0  0  0  0  0  0  0  0  0  0  0
   12.3096  -10.7326  -11.8992 N   0  0  0  0  0  0  0  0  0  0  0  0
    9.5779   -6.0416  -12.3073 C   0  0  0  0  0  0  0  0  0  0  0  0
   10.9576   -6.5491  -12.5411 C   0  0  0  0  0  0  0  0  0  0  0  0
    7.3549   -5.5545  -11.9143 C   0  0  0  0  0  0  0  0  0  0  0  0
   11.2239   -8.0404  -12.4559 C   0  0  0  0  0  0  0  0  0  0  0  0
   12.6961   -8.4373  -12.4765 C   0  0  1  0  0  0  0  0  0  0  0  0
   13.6148   -7.2637  -12.2907 C   0  0  0  0  0  0  0  0  0  0  0  0
   12.9591   -9.5175  -11.4383 C   0  0  0  0  0  0  0  0  0  0  0  0
    8.0074   -8.0040  -11.8827 C   0  0  0  0  0  0  0  0  0  0  0  0
   13.2351  -11.4508  -12.7650 C   0  0  0  0  0  0  0  0  0  0  0  0
   12.0074  -11.5383  -10.7265 C   0  0  0  0  0  0  0  0  0  0  0  0
    8.4536   -8.6638  -10.5665 C   0  0  0  0  0  0  0  0  0  0  0  0
    8.3242  -10.1907  -10.7214 C   0  0  0  0  0  0  0  0  0  0  0  0
    6.4196  -10.9276  -12.0147 C   0  0  0  0  0  0  0  0  0  0  0  0
  1 23  1  0  0  0  0
  1 24  1  0  0  0  0
  1  2  1  0  0  0  0
  3  4  1  0  0  0  0
  3 17  1  0  0  0  0
  4  6  2  0  0  0  0
  4 13  1  0  0  0  0
  5 10  1  0  0  0  0
  5 14  2  0  0  0  0
  6  8  1  0  0  0  0
  7 12  1  0  0  0  0
  7 14  1  0  0  0  0
  7 19  1  0  0  0  0
  8 10  2  0  0  0  0
  9 14  1  0  0  0  0
 10 12  1  0  0  0  0
 11 18  1  0  0  0  0
 11 20  1  0  0  0  0
 11 21  1  0  0  0  0
 12 13  2  0  0  0  0
 13 15  1  0  0  0  0
 15 16  1  0  0  0  0
 16 17  1  0  0  0  0
 16 18  1  1  0  0  0
 19 22  1  0  0  0  0
 22 23  1  0  0  0  0
M  END
>  <CHROM.1>
-137.46434653,77.63958145,87.41113878,69.60161561,-168.84281132,-74.11669985
9.98212344,-7.91242291,-11.89638399,1.95666570,-0.17799237,2.93422832

>  <Name>
ligand

>  <RI>
144

>  <Rbt.Current_Directory>
/home/itssahil/PROJECTS/Mol_Feturizer/New_Systems/rnas/3TZR

>  <Rbt.Executable>
rbdock ($Id: //depot/dev/client3/rdock/2013.1/src/exe/rbdock.cxx#4 $)

>  <Rbt.Library>
libRbt.so (2013.1, Build901 2013/11/27)

>  <Rbt.Parameter_File>
/export/apps/rDock/src/rDock_2013.1_src/data/scripts/dock_solv.prm

>  <Rbt.Receptor>
prm/blind_docking_60.prm

>  <SCORE>
-34.9705

>  <SCORE.INTER>
-23.8034

>  <SCORE.INTER.CONST>
1

>  <SCORE.INTER.POLAR>
0

>  <SCORE.INTER.ROT>
6

>  <SCORE.INTER.SOLV>
20.6493

>  <SCORE.INTER.VDW>
-30.352

>  <SCORE.INTER.norm>
-0.991809

>  <SCORE.INTRA>
-11.167

>  <SCORE.INTRA.DIHEDRAL>
0.842565

>  <SCORE.INTRA.DIHEDRAL.0>
4.94008

>  <SCORE.INTRA.POLAR>
0

>  <SCORE.INTRA.POLAR.0>
0

>  <SCORE.INTRA.REPUL>
0

>  <SCORE.INTRA.REPUL.0>
0

>  <SCORE.INTRA.SOLV>
-0.0812701

>  <SCORE.INTRA.SOLV.lig_0>
-31.4704

>  <SCORE.INTRA.VDW>
-11.5477

>  <SCORE.INTRA.VDW.0>
10.2807

>  <SCORE.INTRA.norm>
-0.465294

>  <SCORE.RESTR>
0

>  <SCORE.RESTR.CAVITY>
0

>  <SCORE.RESTR.norm>
0

>  <SCORE.SYSTEM>
0

>  <SCORE.SYSTEM.CONST>
0

>  <SCORE.SYSTEM.DIHEDRAL>
0

>  <SCORE.SYSTEM.SOLV>
0

>  <SCORE.SYSTEM.norm>
0

>  <SCORE.heavy>
24

>  <SCORE.norm>
-1.4571

>  <RMSD>
1.077

$$$$
ligand
 OpenBabel11021811493D
libRbt.so/2013.1/901 2013/11/27
 24 26  0  0  0  0  0  0  0  0999 V2000
    8.6499  -11.1584   -9.3739 N   0  0  0  0  0  0  0  0  0  0  0  0
    9.0378  -12.4440   -9.9316 C   0  0  0  0  0  0  0  0  0  0  0  0
   13.2278   -6.2014  -13.1165 O   0  0  0  0  0  0  0  0  0  0  0  0
   11.9763   -5.7368  -12.7346 C   0  0  0  0  0  0  0  0  0  0  0  0
    8.0532   -4.4830  -11.5962 N   0  0  0  0  0  0  0  0  0  0  0  0
   11.6753   -4.2632  -12.6656 C   0  0  0  0  0  0  0  0  0  0  0  0
    8.4162   -6.6989  -11.6557 N   0  0  0  0  0  0  0  0  0  0  0  0
   10.3849   -3.7588  -12.3017 C   0  0  0  0  0  0  0  0  0  0  0  0
    6.1247   -5.9396  -10.9855 N   0  0  0  0  0  0  0  0  0  0  0  0
    9.3761   -4.7363  -11.9848 C   0  0  0  0  0  0  0  0  0  0  0  0
   12.4189  -10.8405  -12.2372 N   0  0  0  0  0  0  0  0  0  0  0  0
    9.6547   -6.1467  -12.0319 C   0  0  0  0  0  0  0  0  0  0  0  0
   11.0074   -6.6262  -12.4268 C   0  0  0  0  0  0  0  0  0  0  0  0
    7.4764   -5.7048  -11.4047 C   0  0  0  0  0  0  0  0  0  0  0  0
   11.2794   -8.1180  -12.4800 C   0  0  0  0  0  0  0  0  0  0  0  0
   12.7435   -8.5029  -12.6630 C   0  0  1  0  0  0  0  0  0  0  0  0
   13.6759   -7.3411  -12.4715 C   0  0  0  0  0  0  0  0  0  0  0  0
   13.0983   -9.6574  -11.7381 C   0  0  0  0  0  0  0  0  0  0  0  0
    8.1276   -8.1455  -11.6190 C   0  0  0  0  0  0  0  0  0  0  0  0
   13.2446  -11.4441  -13.2744 C   0  0  0  0  0  0  0  0  0  0  0  0
   12.2753  -11.7645  -11.1231 C   0  0  0  0  0  0  0  0  0  0  0  0
    8.4322   -8.8462  -10.2837 C   0  0  0  0  0  0  0  0  0  0  0  0
    8.0185  -10.3248  -10.4067 C   0  0  0  0  0  0  0  0  0  0  0  0
    7.7387  -11.4035   -8.2617 C   0  0  0  0  0  0  0  0  0  0  0  0
  1 23  1  0  0  0  0
  1 24  1  0  0  0  0
  1  2  1  0  0  0  0
  3  4  1  0  0  0  0
  3 17  1  0  0  0  0
  4  6  2  0  0  0  0
  4 13  1  0  0  0  0
  5 10  1  0  0  0  0
  5 14  2  0  0  0  0
  6  8  1  0  0  0  0
  7 12  1  0  0  0  0
  7 14  1  0  0  0  0
  7 19  1  0  0  0  0
  8 10  2  0  0  0  0
  9 14  1  0  0  0  0
 10 12  1  0  0  0  0
 11 18  1  0  0  0  0
 11 20  1  0  0  0  0
 11 21  1  0  0  0  0
 12 13  2  0  0  0  0
 13 15  1  0  0  0  0
 15 16  1  0  0  0  0
 16 17  1  0  0  0  0
 16 18  1  1  0  0  0
 19 22  1  0  0  0  0
 22 23  1  0  0  0  0
M  END
>  <CHROM.1>
-141.21695658,89.58503025,84.83815151,70.10370990,177.64434331,161.64890627
10.27080998,-8.07776491,-11.58324372,1.51324180,-0.39245040,2.86865265

>  <Name>
ligand

>  <RI>
0

>  <Rbt.Current_Directory>
/home/itssahil/PROJECTS/Mol_Feturizer/New_Systems/rnas/3TZR

>  <Rbt.Executable>
rbdock ($Id: //depot/dev/client3/rdock/2013.1/src/exe/rbdock.cxx#4 $)

>  <Rbt.Library>
libRbt.so (2013.1, Build901 2013/11/27)

>  <Rbt.Parameter_File>
/export/apps/rDock/src/rDock_2013.1_src/data/scripts/dock_solv.prm

>  <Rbt.Receptor>
prm/blind_docking_100.prm

>  <SCORE>
-37.4082

>  <SCORE.INTER>
-26.149

>  <SCORE.INTER.CONST>
1

>  <SCORE.INTER.POLAR>
-0.72111

>  <SCORE.INTER.ROT>
6

>  <SCORE.INTER.SOLV>
19.8611

>  <SCORE.INTER.VDW>
-29.2493

>  <SCORE.INTER.norm>
-1.08954

>  <SCORE.INTRA>
-11.2592

>  <SCORE.INTRA.DIHEDRAL>
0.575907

>  <SCORE.INTRA.DIHEDRAL.0>
4.94008

>  <SCORE.INTRA.POLAR>
0

>  <SCORE.INTRA.POLAR.0>
0

>  <SCORE.INTRA.REPUL>
0

>  <SCORE.INTRA.REPUL.0>
0

>  <SCORE.INTRA.SOLV>
0.0462132

>  <SCORE.INTRA.SOLV.lig_0>
-31.4704

>  <SCORE.INTRA.VDW>
-11.5703

>  <SCORE.INTRA.VDW.0>
10.2807

>  <SCORE.INTRA.norm>
-0.469133

>  <SCORE.RESTR>
0

>  <SCORE.RESTR.CAVITY>
0

>  <SCORE.RESTR.norm>
0

>  <SCORE.SYSTEM>
0

>  <SCORE.SYSTEM.CONST>
0

>  <SCORE.SYSTEM.DIHEDRAL>
0

>  <SCORE.SYSTEM.SOLV>
0

>  <SCORE.SYSTEM.norm>
0

>  <SCORE.heavy>
24

>  <SCORE.norm>
-1.55867

>  <RMSD>
1.078

$$$$
ligand
 OpenBabel11021811493D
libRbt.so/2013.1/901 2013/11/27
 24 26  0  0  0  0  0  0  0  0999 V2000
    6.7555  -10.5991  -10.5530 N   0  0  0  0  0  0  0  0  0  0  0  0
    6.5782  -11.8547   -9.8415 C   0  0  0  0  0  0  0  0  0  0  0  0
   13.1812   -6.0723  -13.1151 O   0  0  0  0  0  0  0  0  0  0  0  0
   11.9110   -5.6092  -12.7990 C   0  0  0  0  0  0  0  0  0  0  0  0
    7.9335   -4.3620  -11.8595 N   0  0  0  0  0  0  0  0  0  0  0  0
   11.5925   -4.1376  -12.7940 C   0  0  0  0  0  0  0  0  0  0  0  0
    8.3212   -6.5743  -11.8263 N   0  0  0  0  0  0  0  0  0  0  0  0
   10.2836   -3.6358  -12.4987 C   0  0  0  0  0  0  0  0  0  0  0  0
    5.9975   -5.8186  -11.2733 N   0  0  0  0  0  0  0  0  0  0  0  0
    9.2733   -4.6133  -12.1871 C   0  0  0  0  0  0  0  0  0  0  0  0
   12.9519  -10.7340  -12.3490 N   0  0  0  0  0  0  0  0  0  0  0  0
    9.5679   -6.0212  -12.1732 C   0  0  0  0  0  0  0  0  0  0  0  0
   10.9399   -6.4985  -12.4979 C   0  0  0  0  0  0  0  0  0  0  0  0
    7.3621   -5.5830  -11.6475 C   0  0  0  0  0  0  0  0  0  0  0  0
   11.2290   -7.9879  -12.4875 C   0  0  0  0  0  0  0  0  0  0  0  0
   12.7031   -8.3620  -12.5996 C   0  0  1  0  0  0  0  0  0  0  0  0
   13.6153   -7.1834  -12.4131 C   0  0  0  0  0  0  0  0  0  0  0  0
   13.0329   -9.4792  -11.6213 C   0  0  0  0  0  0  0  0  0  0  0  0
    8.0462   -8.0220  -11.7497 C   0  0  0  0  0  0  0  0  0  0  0  0
   14.2606  -11.0216  -12.9204 C   0  0  0  0  0  0  0  0  0  0  0  0
   12.5939  -11.7708  -11.3937 C   0  0  0  0  0  0  0  0  0  0  0  0
    8.3389   -8.6789  -10.3898 C   0  0  0  0  0  0  0  0  0  0  0  0
    8.1707  -10.2024  -10.5412 C   0  0  0  0  0  0  0  0  0  0  0  0
    6.2675  -10.7780  -11.9158 C   0  0  0  0  0  0  0  0  0  0  0  0
  1 23  1  0  0  0  0
  1 24  1  0  0  0  0
  1  2  1  0  0  0  0
  3  4  1  0  0  0  0
  3 17  1  0  0  0  0
  4  6  2  0  0  0  0
  4 13  1  0  0  0  0
  5 10  1  0  0  0  0
  5 14  2  0  0  0  0
  6  8  1  0  0  0  0
  7 12  1  0  0  0  0
  7 14  1  0  0  0  0
  7 19  1  0  0  0  0
  8 10  2  0  0  0  0
  9 14  1  0  0  0  0
 10 12  1  0  0  0  0
 11 18  1  0  0  0  0
 11 20  1  0  0  0  0
 11 21  1  0  0  0  0
 12 13  2  0  0  0  0
 13 15  1  0  0  0  0
 15 16  1  0  0  0  0
 16 17  1  0  0  0  0
 16 18  1  1  0  0  0
 19 22  1  0  0  0  0
 22 23  1  0  0  0  0
M  END
>  <CHROM.1>
-142.45965070,88.10148883,89.51541995,95.89320373,-172.85729995,-77.37909557
10.04356626,-7.87706690,-11.87371197,-3.03475890,0.22775319,-0.17006316

>  <Name>
ligand

>  <RI>
144

>  <Rbt.Current_Directory>
/home/itssahil/PROJECTS/Mol_Feturizer/New_Systems/rnas/3TZR

>  <Rbt.Executable>
rbdock ($Id: //depot/dev/client3/rdock/2013.1/src/exe/rbdock.cxx#4 $)

>  <Rbt.Library>
libRbt.so (2013.1, Build901 2013/11/27)

>  <Rbt.Parameter_File>
/export/apps/rDock/src/rDock_2013.1_src/data/scripts/dock_solv.prm

>  <Rbt.Receptor>
prm/blind_docking_60.prm

>  <SCORE>
-34.3798

>  <SCORE.INTER>
-24.8728

>  <SCORE.INTER.CONST>
1

>  <SCORE.INTER.POLAR>
0

>  <SCORE.INTER.ROT>
6

>  <SCORE.INTER.SOLV>
20.3046

>  <SCORE.INTER.VDW>
-30.9501

>  <SCORE.INTER.norm>
-1.03637

>  <SCORE.INTRA>
-9.50705

>  <SCORE.INTRA.DIHEDRAL>
3.82047

>  <SCORE.INTRA.DIHEDRAL.0>
4.94008

>  <SCORE.INTRA.POLAR>
0

>  <SCORE.INTRA.POLAR.0>
0

>  <SCORE.INTRA.REPUL>
0

>  <SCORE.INTRA.REPUL.0>
0

>  <SCORE.INTRA.SOLV>
-0.0431499

>  <SCORE.INTRA.SOLV.lig_0>
-31.4704

>  <SCORE.INTRA.VDW>
-11.3957

>  <SCORE.INTRA.VDW.0>
10.2807

>  <SCORE.INTRA.norm>
-0.396127

>  <SCORE.RESTR>
0

>  <SCORE.RESTR.CAVITY>
0

>  <SCORE.RESTR.norm>
0

>  <SCORE.SYSTEM>
0

>  <SCORE.SYSTEM.CONST>
0

>  <SCORE.SYSTEM.DIHEDRAL>
0

>  <SCORE.SYSTEM.SOLV>
0

>  <SCORE.SYSTEM.norm>
0

>  <SCORE.heavy>
24

>  <SCORE.norm>
-1.43249

>  <RMSD>
1.078

$$$$
ligand
 OpenBabel11021811493D
libRbt.so/2013.1/901 2013/11/27
 24 26  0  0  0  0  0  0  0  0999 V2000
    6.9750  -10.8817  -11.6244 N   0  0  0  0  0  0  0  0  0  0  0  0
    6.1155  -12.0358  -11.8332 C   0  0  0  0  0  0  0  0  0  0  0  0
   13.2347   -6.3875  -13.1959 O   0  0  0  0  0  0  0  0  0  0  0  0
   12.0171   -5.8535  -12.7956 C   0  0  0  0  0  0  0  0  0  0  0  0
    8.1898   -4.3841  -11.5910 N   0  0  0  0  0  0  0  0  0  0  0  0
   11.7817   -4.3665  -12.7782 C   0  0  0  0  0  0  0  0  0  0  0  0
    8.4557   -6.6144  -11.5702 N   0  0  0  0  0  0  0  0  0  0  0  0
   10.5264   -3.7918  -12.3963 C   0  0  0  0  0  0  0  0  0  0  0  0
    6.2215   -5.7289  -10.8626 N   0  0  0  0  0  0  0  0  0  0  0  0
    9.4875   -4.7106  -12.0090 C   0  0  0  0  0  0  0  0  0  0  0  0
   12.2158  -10.9324  -12.0694 N   0  0  0  0  0  0  0  0  0  0  0  0
    9.7039   -6.1326  -12.0063 C   0  0  0  0  0  0  0  0  0  0  0  0
   11.0215   -6.6865  -12.4221 C   0  0  0  0  0  0  0  0  0  0  0  0
    7.5677   -5.5708  -11.3319 C   0  0  0  0  0  0  0  0  0  0  0  0
   11.2277   -8.1897  -12.4220 C   0  0  0  0  0  0  0  0  0  0  0  0
   12.6674   -8.6457  -12.6335 C   0  0  1  0  0  0  0  0  0  0  0  0
   13.6543   -7.5192  -12.5183 C   0  0  0  0  0  0  0  0  0  0  0  0
   13.0021   -9.7768  -11.6730 C   0  0  0  0  0  0  0  0  0  0  0  0
    8.1069   -8.0444  -11.4653 C   0  0  0  0  0  0  0  0  0  0  0  0
   12.9941  -11.7168  -13.0186 C   0  0  0  0  0  0  0  0  0  0  0  0
   11.9617  -11.7193  -10.8728 C   0  0  0  0  0  0  0  0  0  0  0  0
    7.1575   -8.5743  -12.5537 C   0  0  0  0  0  0  0  0  0  0  0  0
    6.2442   -9.6418  -11.9224 C   0  0  0  0  0  0  0  0  0  0  0  0
    7.4360  -10.9048  -10.2408 C   0  0  0  0  0  0  0  0  0  0  0  0
  1 23  1  0  0  0  0
  1 24  1  0  0  0  0
  1  2  1  0  0  0  0
  3  4  1  0  0  0  0
  3 17  1  0  0  0  0
  4  6  2  0  0  0  0
  4 13  1  0  0  0  0
  5 10  1  0  0  0  0
  5 14  2  0  0  0  0
  6  8  1  0  0  0  0
  7 12  1  0  0  0  0
  7 14  1  0  0  0  0
  7 19  1  0  0  0  0
  8 10  2  0  0  0  0
  9 14  1  0  0  0  0
 10 12  1  0  0  0  0
 11 18  1  0  0  0  0
 11 20  1  0  0  0  0
 11 21  1  0  0  0  0
 12 13  2  0  0  0  0
 13 15  1  0  0  0  0
 15 16  1  0  0  0  0
 16 17  1  0  0  0  0
 16 18  1  1  0  0  0
 19 22  1  0  0  0  0
 22 23  1  0  0  0  0
M  END
>  <CHROM.1>
-144.94993599,-105.87665212,90.72145752,67.83620461,-145.42376939,-71.66508015
9.90705277,-8.01227366,-11.98013527,-2.49377265,0.17001290,-0.06251817

>  <Name>
ligand

>  <RI>
0

>  <Rbt.Current_Directory>
/home/itssahil/PROJECTS/Mol_Feturizer/New_Systems/rnas/3TZR

>  <Rbt.Executable>
rbdock ($Id: //depot/dev/client3/rdock/2013.1/src/exe/rbdock.cxx#4 $)

>  <Rbt.Library>
libRbt.so (2013.1, Build901 2013/11/27)

>  <Rbt.Parameter_File>
/export/apps/rDock/src/rDock_2013.1_src/data/scripts/dock_solv.prm

>  <Rbt.Receptor>
prm/blind_docking_80.prm

>  <SCORE>
-31.9989

>  <SCORE.INTER>
-23.3093

>  <SCORE.INTER.CONST>
1

>  <SCORE.INTER.POLAR>
0

>  <SCORE.INTER.ROT>
6

>  <SCORE.INTER.SOLV>
20.2974

>  <SCORE.INTER.VDW>
-29.9054

>  <SCORE.INTER.norm>
-0.971223

>  <SCORE.INTRA>
-8.68956

>  <SCORE.INTRA.DIHEDRAL>
3.09116

>  <SCORE.INTRA.DIHEDRAL.0>
4.94008

>  <SCORE.INTRA.POLAR>
0

>  <SCORE.INTRA.POLAR.0>
0

>  <SCORE.INTRA.REPUL>
0

>  <SCORE.INTRA.REPUL.0>
0

>  <SCORE.INTRA.SOLV>
1.06237

>  <SCORE.INTRA.SOLV.lig_0>
-31.4704

>  <SCORE.INTRA.VDW>
-10.7663

>  <SCORE.INTRA.VDW.0>
10.2807

>  <SCORE.INTRA.norm>
-0.362065

>  <SCORE.RESTR>
0

>  <SCORE.RESTR.CAVITY>
0

>  <SCORE.RESTR.norm>
0

>  <SCORE.SYSTEM>
0

>  <SCORE.SYSTEM.CONST>
0

>  <SCORE.SYSTEM.DIHEDRAL>
0

>  <SCORE.SYSTEM.SOLV>
0

>  <SCORE.SYSTEM.norm>
0

>  <SCORE.heavy>
24

>  <SCORE.norm>
-1.33329

>  <RMSD>
1.078

$$$$
ligand
 OpenBabel11021811493D
libRbt.so/2013.1/901 2013/11/27
 24 26  0  0  0  0  0  0  0  0999 V2000
    6.8831  -10.7523  -11.0730 N   0  0  0  0  0  0  0  0  0  0  0  0
    5.5179  -10.8600  -11.5617 C   0  0  0  0  0  0  0  0  0  0  0  0
   13.2286   -5.9718  -12.9072 O   0  0  0  0  0  0  0  0  0  0  0  0
   11.9179   -5.5392  -12.7565 C   0  0  0  0  0  0  0  0  0  0  0  0
    7.8246   -4.3874  -12.3349 N   0  0  0  0  0  0  0  0  0  0  0  0
   11.5673   -4.0754  -12.7897 C   0  0  0  0  0  0  0  0  0  0  0  0
    8.2560   -6.5905  -12.2563 N   0  0  0  0  0  0  0  0  0  0  0  0
   10.2200   -3.6049  -12.6646 C   0  0  0  0  0  0  0  0  0  0  0  0
    5.8635   -5.8905  -12.0059 N   0  0  0  0  0  0  0  0  0  0  0  0
    9.2009   -4.6066  -12.4876 C   0  0  0  0  0  0  0  0  0  0  0  0
   12.5280  -10.6297  -12.0649 N   0  0  0  0  0  0  0  0  0  0  0  0
    9.5238   -6.0074  -12.4387 C   0  0  0  0  0  0  0  0  0  0  0  0
   10.9369   -6.4519  -12.5847 C   0  0  0  0  0  0  0  0  0  0  0  0
    7.2592   -5.6221  -12.2007 C   0  0  0  0  0  0  0  0  0  0  0  0
   11.2567   -7.9344  -12.5401 C   0  0  0  0  0  0  0  0  0  0  0  0
   12.7413   -8.2743  -12.4620 C   0  0  1  0  0  0  0  0  0  0  0  0
   13.5943   -7.0762  -12.1572 C   0  0  0  0  0  0  0  0  0  0  0  0
   12.9682   -9.3885  -11.4515 C   0  0  0  0  0  0  0  0  0  0  0  0
    8.0071   -8.0444  -12.2186 C   0  0  0  0  0  0  0  0  0  0  0  0
   13.6497  -11.2088  -12.7916 C   0  0  0  0  0  0  0  0  0  0  0  0
   12.1205  -11.5257  -10.9940 C   0  0  0  0  0  0  0  0  0  0  0  0
    8.3416   -8.7375  -10.8865 C   0  0  0  0  0  0  0  0  0  0  0  0
    7.0792   -9.4662  -10.3889 C   0  0  0  0  0  0  0  0  0  0  0  0
    7.1320  -11.8733  -10.1737 C   0  0  0  0  0  0  0  0  0  0  0  0
  1 23  1  0  0  0  0
  1 24  1  0  0  0  0
  1  2  1  0  0  0  0
  3  4  1  0  0  0  0
  3 17  1  0  0  0  0
  4  6  2  0  0  0  0
  4 13  1  0  0  0  0
  5 10  1  0  0  0  0
  5 14  2  0  0  0  0
  6  8  1  0  0  0  0
  7 12  1  0  0  0  0
  7 14  1  0  0  0  0
  7 19  1  0  0  0  0
  8 10  2  0  0  0  0
  9 14  1  0  0  0  0
 10 12  1  0  0  0  0
 11 18  1  0  0  0  0
 11 20  1  0  0  0  0
 11 21  1  0  0  0  0
 12 13  2  0  0  0  0
 13 15  1  0  0  0  0
 15 16  1  0  0  0  0
 16 17  1  0  0  0  0
 16 18  1  1  0  0  0
 19 22  1  0  0  0  0
 22 23  1  0  0  0  0
M  END
>  <CHROM.1>
-130.63003497,79.26676999,88.70193939,75.20003932,123.85598317,79.85144764
9.90079378,-7.83172776,-11.98044590,-2.64306320,0.13680767,-0.20588439

>  <Name>
ligand

>  <RI>
0

>  <Rbt.Current_Directory>
/home/itssahil/PROJECTS/Mol_Feturizer/New_Systems/rnas/3TZR

>  <Rbt.Executable>
rbdock ($Id: //depot/dev/client3/rdock/2013.1/src/exe/rbdock.cxx#4 $)

>  <Rbt.Library>
libRbt.so (2013.1, Build901 2013/11/27)

>  <Rbt.Parameter_File>
/export/apps/rDock/src/rDock_2013.1_src/data/scripts/dock_solv.prm

>  <Rbt.Receptor>
prm/pocket_docking_2.prm

>  <SCORE>
-32.5433

>  <SCORE.INTER>
-24.7827

>  <SCORE.INTER.CONST>
1

>  <SCORE.INTER.POLAR>
0

>  <SCORE.INTER.ROT>
6

>  <SCORE.INTER.SOLV>
21.2056

>  <SCORE.INTER.VDW>
-31.1903

>  <SCORE.INTER.norm>
-1.03261

>  <SCORE.INTRA>
-7.88241

>  <SCORE.INTRA.DIHEDRAL>
7.30778

>  <SCORE.INTRA.DIHEDRAL.0>
4.94008

>  <SCORE.INTRA.POLAR>
0

>  <SCORE.INTRA.POLAR.0>
0

>  <SCORE.INTRA.REPUL>
0

>  <SCORE.INTRA.REPUL.0>
0

>  <SCORE.INTRA.SOLV>
0.432896

>  <SCORE.INTRA.SOLV.lig_0>
-31.4704

>  <SCORE.INTRA.VDW>
-11.7527

>  <SCORE.INTRA.VDW.0>
10.2807

>  <SCORE.INTRA.norm>
-0.328434

>  <SCORE.RESTR>
0.121831

>  <SCORE.RESTR.CAVITY>
0.121831

>  <SCORE.RESTR.norm>
0.00507628

>  <SCORE.SYSTEM>
0

>  <SCORE.SYSTEM.CONST>
0

>  <SCORE.SYSTEM.DIHEDRAL>
0

>  <SCORE.SYSTEM.SOLV>
0

>  <SCORE.SYSTEM.norm>
0

>  <SCORE.heavy>
24

>  <SCORE.norm>
-1.35597

>  <RMSD>
1.078

$$$$
ligand
 OpenBabel11021811493D
libRbt.so/2013.1/901 2013/11/27
 24 26  0  0  0  0  0  0  0  0999 V2000
    6.7870  -10.6048  -10.5679 N   0  0  0  0  0  0  0  0  0  0  0  0
    6.6699  -11.8418   -9.8127 C   0  0  0  0  0  0  0  0  0  0  0  0
   13.2015   -6.1008  -13.0099 O   0  0  0  0  0  0  0  0  0  0  0  0
   11.9135   -5.6323  -12.7876 C   0  0  0  0  0  0  0  0  0  0  0  0
    7.8839   -4.3700  -12.1339 N   0  0  0  0  0  0  0  0  0  0  0  0
   11.5911   -4.1634  -12.8587 C   0  0  0  0  0  0  0  0  0  0  0  0
    8.2751   -6.5774  -11.9918 N   0  0  0  0  0  0  0  0  0  0  0  0
   10.2657   -3.6572  -12.6611 C   0  0  0  0  0  0  0  0  0  0  0  0
    5.9206   -5.8127  -11.6068 N   0  0  0  0  0  0  0  0  0  0  0  0
    9.2414   -4.6270  -12.3718 C   0  0  0  0  0  0  0  0  0  0  0  0
   12.3723  -10.6802  -11.8754 N   0  0  0  0  0  0  0  0  0  0  0  0
    9.5386   -6.0317  -12.2858 C   0  0  0  0  0  0  0  0  0  0  0  0
   10.9288   -6.5143  -12.5100 C   0  0  0  0  0  0  0  0  0  0  0  0
    7.3044   -5.5848  -11.9086 C   0  0  0  0  0  0  0  0  0  0  0  0
   11.2209   -8.0007  -12.4246 C   0  0  0  0  0  0  0  0  0  0  0  0
   12.7001   -8.3713  -12.4348 C   0  0  1  0  0  0  0  0  0  0  0  0
   13.5963   -7.1818  -12.2407 C   0  0  0  0  0  0  0  0  0  0  0  0
   12.9746   -9.4481  -11.3959 C   0  0  0  0  0  0  0  0  0  0  0  0
    8.0002   -8.0224  -11.8752 C   0  0  0  0  0  0  0  0  0  0  0  0
   13.3480  -11.3809  -12.6993 C   0  0  0  0  0  0  0  0  0  0  0  0
   12.0419  -11.4869  -10.7111 C   0  0  0  0  0  0  0  0  0  0  0  0
    8.3363   -8.6509  -10.5119 C   0  0  0  0  0  0  0  0  0  0  0  0
    8.1924  -10.1795  -10.6342 C   0  0  0  0  0  0  0  0  0  0  0  0
    6.2401  -10.8342  -11.9005 C   0  0  0  0  0  0  0  0  0  0  0  0
  1 23  1  0  0  0  0
  1 24  1  0  0  0  0
  1  2  1  0  0  0  0
  3  4  1  0  0  0  0
  3 17  1  0  0  0  0
  4  6  2  0  0  0  0
  4 13  1  0  0  0  0
  5 10  1  0  0  0  0
  5 14  2  0  0  0  0
  6  8  1  0  0  0  0
  7 12  1  0  0  0  0
  7 14  1  0  0  0  0
  7 19  1  0  0  0  0
  8 10  2  0  0  0  0
  9 14  1  0  0  0  0
 10 12  1  0  0  0  0
 11 18  1  0  0  0  0
 11 20  1  0  0  0  0
 11 21  1  0  0  0  0
 12 13  2  0  0  0  0
 13 15  1  0  0  0  0
 15 16  1  0  0  0  0
 16 17  1  0  0  0  0
 16 18  1  1  0  0  0
 19 22  1  0  0  0  0
 22 23  1  0  0  0  0
M  END
>  <CHROM.1>
-141.52608638,82.71635796,88.73158470,70.67489286,-171.55061289,-78.99382547
9.93911355,-7.88355275,-11.85565779,2.22178297,-0.17329777,2.92570085

>  <Name>
ligand

>  <RI>
0

>  <Rbt.Current_Directory>
/home/itssahil/PROJECTS/Mol_Feturizer/New_Systems/rnas/3TZR

>  <Rbt.Executable>
rbdock ($Id: //depot/dev/client3/rdock/2013.1/src/exe/rbdock.cxx#4 $)

>  <Rbt.Library>
libRbt.so (2013.1, Build901 2013/11/27)

>  <Rbt.Parameter_File>
/export/apps/rDock/src/rDock_2013.1_src/data/scripts/dock_solv.prm

>  <Rbt.Receptor>
prm/blind_docking_40.prm

>  <SCORE>
-35.5785

>  <SCORE.INTER>
-24.5955

>  <SCORE.INTER.CONST>
1

>  <SCORE.INTER.POLAR>
0

>  <SCORE.INTER.ROT>
6

>  <SCORE.INTER.SOLV>
20.5312

>  <SCORE.INTER.VDW>
-30.8408

>  <SCORE.INTER.norm>
-1.02481

>  <SCORE.INTRA>
-10.9829

>  <SCORE.INTRA.DIHEDRAL>
1.14331

>  <SCORE.INTRA.DIHEDRAL.0>
4.94008

>  <SCORE.INTRA.POLAR>
0

>  <SCORE.INTRA.POLAR.0>
0

>  <SCORE.INTRA.REPUL>
0

>  <SCORE.INTRA.REPUL.0>
0

>  <SCORE.INTRA.SOLV>
-0.0633555

>  <SCORE.INTRA.SOLV.lig_0>
-31.4704

>  <SCORE.INTRA.VDW>
-11.5229

>  <SCORE.INTRA.VDW.0>
10.2807

>  <SCORE.INTRA.norm>
-0.457623

>  <SCORE.RESTR>
0

>  <SCORE.RESTR.CAVITY>
0

>  <SCORE.RESTR.norm>
0

>  <SCORE.SYSTEM>
0

>  <SCORE.SYSTEM.CONST>
0

>  <SCORE.SYSTEM.DIHEDRAL>
0

>  <SCORE.SYSTEM.SOLV>
0

>  <SCORE.SYSTEM.norm>
0

>  <SCORE.heavy>
24

>  <SCORE.norm>
-1.48244

>  <RMSD>
1.080

$$$$
ligand
 OpenBabel11021811493D
libRbt.so/2013.1/901 2013/11/27
 24 26  0  0  0  0  0  0  0  0999 V2000
    7.0312  -10.8231  -10.7662 N   0  0  0  0  0  0  0  0  0  0  0  0
    5.5825  -10.9467  -10.7876 C   0  0  0  0  0  0  0  0  0  0  0  0
   13.1446   -5.7574  -12.7033 O   0  0  0  0  0  0  0  0  0  0  0  0
   11.8109   -5.3980  -12.5621 C   0  0  0  0  0  0  0  0  0  0  0  0
    7.6569   -4.4684  -12.1894 N   0  0  0  0  0  0  0  0  0  0  0  0
   11.3947   -3.9543  -12.4648 C   0  0  0  0  0  0  0  0  0  0  0  0
    8.1862   -6.6480  -12.3112 N   0  0  0  0  0  0  0  0  0  0  0  0
   10.0238   -3.5561  -12.3467 C   0  0  0  0  0  0  0  0  0  0  0  0
    5.7568   -6.0785  -12.0868 N   0  0  0  0  0  0  0  0  0  0  0  0
    9.0462   -4.6128  -12.3091 C   0  0  0  0  0  0  0  0  0  0  0  0
   12.4154  -10.4732  -12.2560 N   0  0  0  0  0  0  0  0  0  0  0  0
    9.4314   -5.9965  -12.3856 C   0  0  0  0  0  0  0  0  0  0  0  0
   10.8676   -6.3639  -12.5194 C   0  0  0  0  0  0  0  0  0  0  0  0
    7.1445   -5.7332  -12.1995 C   0  0  0  0  0  0  0  0  0  0  0  0
   11.2535   -7.8286  -12.6085 C   0  0  0  0  0  0  0  0  0  0  0  0
   12.7485   -8.1115  -12.5063 C   0  0  1  0  0  0  0  0  0  0  0  0
   13.5344   -6.9149  -12.0520 C   0  0  0  0  0  0  0  0  0  0  0  0
   12.9913   -9.3106  -11.6023 C   0  0  0  0  0  0  0  0  0  0  0  0
    8.0032   -8.1076  -12.4265 C   0  0  0  0  0  0  0  0  0  0  0  0
   13.4140  -11.0413  -13.1514 C   0  0  0  0  0  0  0  0  0  0  0  0
   12.0801  -11.4362  -11.2189 C   0  0  0  0  0  0  0  0  0  0  0  0
    8.5865   -8.9398  -11.2715 C   0  0  0  0  0  0  0  0  0  0  0  0
    7.4201   -9.4522  -10.4060 C   0  0  0  0  0  0  0  0  0  0  0  0
    7.5541  -11.7905   -9.8081 C   0  0  0  0  0  0  0  0  0  0  0  0
  1 23  1  0  0  0  0
  1 24  1  0  0  0  0
  1  2  1  0  0  0  0
  3  4  1  0  0  0  0
  3 17  1  0  0  0  0
  4  6  2  0  0  0  0
  4 13  1  0  0  0  0
  5 10  1  0  0  0  0
  5 14  2  0  0  0  0
  6  8  1  0  0  0  0
  7 12  1  0  0  0  0
  7 14  1  0  0  0  0
  7 19  1  0  0  0  0
  8 10  2  0  0  0  0
  9 14  1  0  0  0  0
 10 12  1  0  0  0  0
 11 18  1  0  0  0  0
 11 20  1  0  0  0  0
 11 21  1  0  0  0  0
 12 13  2  0  0  0  0
 13 15  1  0  0  0  0
 15 16  1  0  0  0  0
 16 17  1  0  0  0  0
 16 18  1  1  0  0  0
 19 22  1  0  0  0  0
 22 23  1  0  0  0  0
M  END
>  <CHROM.1>
-137.84715942,67.35034744,87.23778258,65.39934196,106.53164542,96.70415685
9.88338216,-7.79871121,-11.93075760,-2.47447998,0.16431643,-0.19628782

>  <Name>
ligand

>  <RI>
0

>  <Rbt.Current_Directory>
/home/itssahil/PROJECTS/Mol_Feturizer/New_Systems/rnas/3TZR

>  <Rbt.Executable>
rbdock ($Id: //depot/dev/client3/rdock/2013.1/src/exe/rbdock.cxx#4 $)

>  <Rbt.Library>
libRbt.so (2013.1, Build901 2013/11/27)

>  <Rbt.Parameter_File>
/export/apps/rDock/src/rDock_2013.1_src/data/scripts/dock_solv.prm

>  <Rbt.Receptor>
prm/pocket_docking_2.prm

>  <SCORE>
-32.4207

>  <SCORE.INTER>
-25.3085

>  <SCORE.INTER.CONST>
1

>  <SCORE.INTER.POLAR>
0

>  <SCORE.INTER.ROT>
6

>  <SCORE.INTER.SOLV>
21.3309

>  <SCORE.INTER.VDW>
-31.5826

>  <SCORE.INTER.norm>
-1.05452

>  <SCORE.INTRA>
-7.25446

>  <SCORE.INTRA.DIHEDRAL>
7.93687

>  <SCORE.INTRA.DIHEDRAL.0>
4.94008

>  <SCORE.INTRA.POLAR>
0

>  <SCORE.INTRA.POLAR.0>
0

>  <SCORE.INTRA.REPUL>
0

>  <SCORE.INTRA.REPUL.0>
0

>  <SCORE.INTRA.SOLV>
0.280949

>  <SCORE.INTRA.SOLV.lig_0>
-31.4704

>  <SCORE.INTRA.VDW>
-11.3634

>  <SCORE.INTRA.VDW.0>
10.2807

>  <SCORE.INTRA.norm>
-0.302269

>  <SCORE.RESTR>
0.142276

>  <SCORE.RESTR.CAVITY>
0.142276

>  <SCORE.RESTR.norm>
0.00592818

>  <SCORE.SYSTEM>
0

>  <SCORE.SYSTEM.CONST>
0

>  <SCORE.SYSTEM.DIHEDRAL>
0

>  <SCORE.SYSTEM.SOLV>
0

>  <SCORE.SYSTEM.norm>
0

>  <SCORE.heavy>
24

>  <SCORE.norm>
-1.35086

>  <RMSD>
1.080

$$$$
ligand
 OpenBabel11021811493D
libRbt.so/2013.1/901 2013/11/27
 24 26  0  0  0  0  0  0  0  0999 V2000
    7.1760  -10.8410  -11.2480 N   0  0  0  0  0  0  0  0  0  0  0  0
    6.1359  -10.6302  -12.2421 C   0  0  0  0  0  0  0  0  0  0  0  0
   13.5079   -6.7744  -13.1478 O   0  0  0  0  0  0  0  0  0  0  0  0
   12.3411   -6.1300  -12.7593 C   0  0  0  0  0  0  0  0  0  0  0  0
    8.6512   -4.3063  -11.6112 N   0  0  0  0  0  0  0  0  0  0  0  0
   12.2840   -4.6323  -12.6153 C   0  0  0  0  0  0  0  0  0  0  0  0
    8.6476   -6.5458  -11.7848 N   0  0  0  0  0  0  0  0  0  0  0  0
   11.0857   -3.9413  -12.2432 C   0  0  0  0  0  0  0  0  0  0  0  0
    6.4967   -5.4542  -11.1076 N   0  0  0  0  0  0  0  0  0  0  0  0
    9.9234   -4.7540  -11.9940 C   0  0  0  0  0  0  0  0  0  0  0  0
   13.2148  -11.3137  -12.8218 N   0  0  0  0  0  0  0  0  0  0  0  0
    9.9682   -6.1868  -12.1130 C   0  0  0  0  0  0  0  0  0  0  0  0
   11.2327   -6.8620  -12.5138 C   0  0  0  0  0  0  0  0  0  0  0  0
    7.8778   -5.4245  -11.4941 C   0  0  0  0  0  0  0  0  0  0  0  0
   11.2578   -8.3736  -12.6434 C   0  0  0  0  0  0  0  0  0  0  0  0
   12.6429   -8.9847  -12.8260 C   0  0  1  0  0  0  0  0  0  0  0  0
   13.7484   -8.0037  -12.5587 C   0  0  0  0  0  0  0  0  0  0  0  0
   12.7824  -10.2274  -11.9596 C   0  0  0  0  0  0  0  0  0  0  0  0
    8.1251   -7.9250  -11.8303 C   0  0  0  0  0  0  0  0  0  0  0  0
   14.6199  -11.5865  -12.5514 C   0  0  0  0  0  0  0  0  0  0  0  0
   12.4142  -12.4814  -12.4884 C   0  0  0  0  0  0  0  0  0  0  0  0
    8.4449   -8.7934  -10.6013 C   0  0  0  0  0  0  0  0  0  0  0  0
    7.2330   -9.7017  -10.3211 C   0  0  0  0  0  0  0  0  0  0  0  0
    6.8827  -12.0833  -10.5422 C   0  0  0  0  0  0  0  0  0  0  0  0
  1 23  1  0  0  0  0
  1 24  1  0  0  0  0
  1  2  1  0  0  0  0
  3  4  1  0  0  0  0
  3 17  1  0  0  0  0
  4  6  2  0  0  0  0
  4 13  1  0  0  0  0
  5 10  1  0  0  0  0
  5 14  2  0  0  0  0
  6  8  1  0  0  0  0
  7 12  1  0  0  0  0
  7 14  1  0  0  0  0
  7 19  1  0  0  0  0
  8 10  2  0  0  0  0
  9 14  1  0  0  0  0
 10 12  1  0  0  0  0
 11 18  1  0  0  0  0
 11 20  1  0  0  0  0
 11 21  1  0  0  0  0
 12 13  2  0  0  0  0
 13 15  1  0  0  0  0
 15 16  1  0  0  0  0
 16 17  1  0  0  0  0
 16 18  1  1  0  0  0
 19 22  1  0  0  0  0
 22 23  1  0  0  0  0
M  END
>  <CHROM.1>
-104.88851949,81.77800845,106.17201641,126.91826630,143.50062355,77.42532879
10.27128509,-8.14459747,-11.99404429,2.65196256,0.23886080,-0.04679347

>  <Name>
ligand

>  <RI>
0

>  <Rbt.Current_Directory>
/home/itssahil/PROJECTS/Mol_Feturizer/New_Systems/rnas/3TZR

>  <Rbt.Executable>
rbdock ($Id: //depot/dev/client3/rdock/2013.1/src/exe/rbdock.cxx#4 $)

>  <Rbt.Library>
libRbt.so (2013.1, Build901 2013/11/27)

>  <Rbt.Parameter_File>
/export/apps/rDock/src/rDock_2013.1_src/data/scripts/dock_solv.prm

>  <Rbt.Receptor>
prm/blind_docking_40.prm

>  <SCORE>
-30.0674

>  <SCORE.INTER>
-23.4635

>  <SCORE.INTER.CONST>
1

>  <SCORE.INTER.POLAR>
0

>  <SCORE.INTER.ROT>
6

>  <SCORE.INTER.SOLV>
21.396

>  <SCORE.INTER.VDW>
-30.3743

>  <SCORE.INTER.norm>
-0.977647

>  <SCORE.INTRA>
-6.60386

>  <SCORE.INTRA.DIHEDRAL>
10.2846

>  <SCORE.INTRA.DIHEDRAL.0>
4.94008

>  <SCORE.INTRA.POLAR>
0

>  <SCORE.INTRA.POLAR.0>
0

>  <SCORE.INTRA.REPUL>
0

>  <SCORE.INTRA.REPUL.0>
0

>  <SCORE.INTRA.SOLV>
0.176853

>  <SCORE.INTRA.SOLV.lig_0>
-31.4704

>  <SCORE.INTRA.VDW>
-11.8346

>  <SCORE.INTRA.VDW.0>
10.2807

>  <SCORE.INTRA.norm>
-0.275161

>  <SCORE.RESTR>
0

>  <SCORE.RESTR.CAVITY>
0

>  <SCORE.RESTR.norm>
0

>  <SCORE.SYSTEM>
0

>  <SCORE.SYSTEM.CONST>
0

>  <SCORE.SYSTEM.DIHEDRAL>
0

>  <SCORE.SYSTEM.SOLV>
0

>  <SCORE.SYSTEM.norm>
0

>  <SCORE.heavy>
24

>  <SCORE.norm>
-1.25281

>  <RMSD>
1.082

$$$$
ligand
 OpenBabel11021811493D
libRbt.so/2013.1/901 2013/11/27
 24 26  0  0  0  0  0  0  0  0999 V2000
    8.5355  -11.0640   -9.2308 N   0  0  0  0  0  0  0  0  0  0  0  0
    9.4046  -12.1173   -9.7304 C   0  0  0  0  0  0  0  0  0  0  0  0
   13.2433   -6.1007  -13.1693 O   0  0  0  0  0  0  0  0  0  0  0  0
   11.9926   -5.6603  -12.7575 C   0  0  0  0  0  0  0  0  0  0  0  0
    8.0740   -4.4815  -11.5273 N   0  0  0  0  0  0  0  0  0  0  0  0
   11.6691   -4.1925  -12.6689 C   0  0  0  0  0  0  0  0  0  0  0  0
    8.4718   -6.6905  -11.6144 N   0  0  0  0  0  0  0  0  0  0  0  0
   10.3784   -3.7127  -12.2740 C   0  0  0  0  0  0  0  0  0  0  0  0
    6.1826   -5.9750  -10.8904 N   0  0  0  0  0  0  0  0  0  0  0  0
    9.3925   -4.7095  -11.9454 C   0  0  0  0  0  0  0  0  0  0  0  0
   12.4546  -10.7390  -12.2566 N   0  0  0  0  0  0  0  0  0  0  0  0
    9.6931   -6.1146  -12.0109 C   0  0  0  0  0  0  0  0  0  0  0  0
   11.0450   -6.5683  -12.4379 C   0  0  0  0  0  0  0  0  0  0  0  0
    7.5213   -5.7144  -11.3351 C   0  0  0  0  0  0  0  0  0  0  0  0
   11.3401   -8.0548  -12.5102 C   0  0  0  0  0  0  0  0  0  0  0  0
   12.8063   -8.4139  -12.7269 C   0  0  1  0  0  0  0  0  0  0  0  0
   13.7233   -7.2385  -12.5439 C   0  0  0  0  0  0  0  0  0  0  0  0
   13.1989   -9.5703  -11.8200 C   0  0  0  0  0  0  0  0  0  0  0  0
    8.2077   -8.1420  -11.5849 C   0  0  0  0  0  0  0  0  0  0  0  0
   13.1624  -11.3456  -13.3760 C   0  0  0  0  0  0  0  0  0  0  0  0
   12.4095  -11.6705  -11.1404 C   0  0  0  0  0  0  0  0  0  0  0  0
    8.2035   -8.7844  -10.1871 C   0  0  0  0  0  0  0  0  0  0  0  0
    7.9686  -10.2979  -10.3498 C   0  0  0  0  0  0  0  0  0  0  0  0
    7.4866  -11.6844   -8.4293 C   0  0  0  0  0  0  0  0  0  0  0  0
  1 23  1  0  0  0  0
  1 24  1  0  0  0  0
  1  2  1  0  0  0  0
  3  4  1  0  0  0  0
  3 17  1  0  0  0  0
  4  6  2  0  0  0  0
  4 13  1  0  0  0  0
  5 10  1  0  0  0  0
  5 14  2  0  0  0  0
  6  8  1  0  0  0  0
  7 12  1  0  0  0  0
  7 14  1  0  0  0  0
  7 19  1  0  0  0  0
  8 10  2  0  0  0  0
  9 14  1  0  0  0  0
 10 12  1  0  0  0  0
 11 18  1  0  0  0  0
 11 20  1  0  0  0  0
 11 21  1  0  0  0  0
 12 13  2  0  0  0  0
 13 15  1  0  0  0  0
 15 16  1  0  0  0  0
 16 17  1  0  0  0  0
 16 18  1  1  0  0  0
 19 22  1  0  0  0  0
 22 23  1  0  0  0  0
M  END
>  <CHROM.1>
-127.32252153,104.54770094,82.93451326,66.08562443,-177.83780740,153.91058534
10.28970706,-8.02526755,-11.57366792,1.61827513,-0.40258022,2.86777030

>  <Name>
ligand

>  <RI>
144

>  <Rbt.Current_Directory>
/home/itssahil/PROJECTS/Mol_Feturizer/New_Systems/rnas/3TZR

>  <Rbt.Executable>
rbdock ($Id: //depot/dev/client3/rdock/2013.1/src/exe/rbdock.cxx#4 $)

>  <Rbt.Library>
libRbt.so (2013.1, Build901 2013/11/27)

>  <Rbt.Parameter_File>
/export/apps/rDock/src/rDock_2013.1_src/data/scripts/dock_solv.prm

>  <Rbt.Receptor>
prm/blind_docking_60.prm

>  <SCORE>
-37.2416

>  <SCORE.INTER>
-27.1614

>  <SCORE.INTER.CONST>
1

>  <SCORE.INTER.POLAR>
-0.72111

>  <SCORE.INTER.ROT>
6

>  <SCORE.INTER.SOLV>
19.9816

>  <SCORE.INTER.VDW>
-29.9644

>  <SCORE.INTER.norm>
-1.13173

>  <SCORE.INTRA>
-10.0802

>  <SCORE.INTRA.DIHEDRAL>
1.81923

>  <SCORE.INTRA.DIHEDRAL.0>
4.94008

>  <SCORE.INTRA.POLAR>
0

>  <SCORE.INTRA.POLAR.0>
0

>  <SCORE.INTRA.REPUL>
0

>  <SCORE.INTRA.REPUL.0>
0

>  <SCORE.INTRA.SOLV>
0.314045

>  <SCORE.INTRA.SOLV.lig_0>
-31.4704

>  <SCORE.INTRA.VDW>
-11.1469

>  <SCORE.INTRA.VDW.0>
10.2807

>  <SCORE.INTRA.norm>
-0.420009

>  <SCORE.RESTR>
0

>  <SCORE.RESTR.CAVITY>
0

>  <SCORE.RESTR.norm>
0

>  <SCORE.SYSTEM>
0

>  <SCORE.SYSTEM.CONST>
0

>  <SCORE.SYSTEM.DIHEDRAL>
0

>  <SCORE.SYSTEM.SOLV>
0

>  <SCORE.SYSTEM.norm>
0

>  <SCORE.heavy>
24

>  <SCORE.norm>
-1.55173

>  <RMSD>
1.082

$$$$
ligand
 OpenBabel11021811493D
libRbt.so/2013.1/901 2013/11/27
 24 26  0  0  0  0  0  0  0  0999 V2000
    7.3965  -10.8713  -10.8402 N   0  0  0  0  0  0  0  0  0  0  0  0
    6.0425  -10.8150  -11.3672 C   0  0  0  0  0  0  0  0  0  0  0  0
   13.2066   -5.9740  -12.9481 O   0  0  0  0  0  0  0  0  0  0  0  0
   11.8970   -5.5443  -12.7804 C   0  0  0  0  0  0  0  0  0  0  0  0
    7.8074   -4.4027  -12.3003 N   0  0  0  0  0  0  0  0  0  0  0  0
   11.5375   -4.0837  -12.8448 C   0  0  0  0  0  0  0  0  0  0  0  0
    8.2530   -6.6006  -12.1727 N   0  0  0  0  0  0  0  0  0  0  0  0
   10.1906   -3.6170  -12.7028 C   0  0  0  0  0  0  0  0  0  0  0  0
    5.8625   -5.9065  -11.8888 N   0  0  0  0  0  0  0  0  0  0  0  0
    9.1812   -4.6188  -12.4771 C   0  0  0  0  0  0  0  0  0  0  0  0
   12.4835  -10.5988  -11.9375 N   0  0  0  0  0  0  0  0  0  0  0  0
    9.5132   -6.0162  -12.3981 C   0  0  0  0  0  0  0  0  0  0  0  0
   10.9253   -6.4571  -12.5631 C   0  0  0  0  0  0  0  0  0  0  0  0
    7.2520   -5.6363  -12.1210 C   0  0  0  0  0  0  0  0  0  0  0  0
   11.2544   -7.9362  -12.4861 C   0  0  0  0  0  0  0  0  0  0  0  0
   12.7422   -8.2663  -12.4315 C   0  0  1  0  0  0  0  0  0  0  0  0
   13.5948   -7.0562  -12.1773 C   0  0  0  0  0  0  0  0  0  0  0  0
   12.9973   -9.3520  -11.3970 C   0  0  0  0  0  0  0  0  0  0  0  0
    8.0132   -8.0543  -12.0910 C   0  0  0  0  0  0  0  0  0  0  0  0
   13.5092  -11.1923  -12.7845 C   0  0  0  0  0  0  0  0  0  0  0  0
   12.2030  -11.4793  -10.8143 C   0  0  0  0  0  0  0  0  0  0  0  0
    8.7564   -8.7837  -10.9586 C   0  0  0  0  0  0  0  0  0  0  0  0
    7.7315   -9.6117  -10.1608 C   0  0  0  0  0  0  0  0  0  0  0  0
    7.4798  -12.0043   -9.9255 C   0  0  0  0  0  0  0  0  0  0  0  0
  1 23  1  0  0  0  0
  1 24  1  0  0  0  0
  1  2  1  0  0  0  0
  3  4  1  0  0  0  0
  3 17  1  0  0  0  0
  4  6  2  0  0  0  0
  4 13  1  0  0  0  0
  5 10  1  0  0  0  0
  5 14  2  0  0  0  0
  6  8  1  0  0  0  0
  7 12  1  0  0  0  0
  7 14  1  0  0  0  0
  7 19  1  0  0  0  0
  8 10  2  0  0  0  0
  9 14  1  0  0  0  0
 10 12  1  0  0  0  0
 11 18  1  0  0  0  0
 11 20  1  0  0  0  0
 11 21  1  0  0  0  0
 12 13  2  0  0  0  0
 13 15  1  0  0  0  0
 15 16  1  0  0  0  0
 16 17  1  0  0  0  0
 16 18  1  1  0  0  0
 19 22  1  0  0  0  0
 22 23  1  0  0  0  0
M  END
>  <CHROM.1>
-108.89609361,61.17518107,84.82416152,72.10060653,128.29702529,79.44207140
9.99870778,-7.84683473,-11.90961285,1.90833542,-0.15594123,2.90370518

>  <Name>
ligand

>  <RI>
0

>  <Rbt.Current_Directory>
/home/itssahil/PROJECTS/Mol_Feturizer/New_Systems/rnas/3TZR

>  <Rbt.Executable>
rbdock ($Id: //depot/dev/client3/rdock/2013.1/src/exe/rbdock.cxx#4 $)

>  <Rbt.Library>
libRbt.so (2013.1, Build901 2013/11/27)

>  <Rbt.Parameter_File>
/export/apps/rDock/src/rDock_2013.1_src/data/scripts/dock_solv.prm

>  <Rbt.Receptor>
prm/pocket_docking_3.prm

>  <SCORE>
-33.6081

>  <SCORE.INTER>
-25.861

>  <SCORE.INTER.CONST>
1

>  <SCORE.INTER.POLAR>
0

>  <SCORE.INTER.ROT>
6

>  <SCORE.INTER.SOLV>
20.8018

>  <SCORE.INTER.VDW>
-31.7746

>  <SCORE.INTER.norm>
-1.07754

>  <SCORE.INTRA>
-7.74708

>  <SCORE.INTRA.DIHEDRAL>
6.42242

>  <SCORE.INTRA.DIHEDRAL.0>
4.94008

>  <SCORE.INTRA.POLAR>
0

>  <SCORE.INTRA.POLAR.0>
0

>  <SCORE.INTRA.REPUL>
0

>  <SCORE.INTRA.REPUL.0>
0

>  <SCORE.INTRA.SOLV>
-0.178784

>  <SCORE.INTRA.SOLV.lig_0>
-31.4704

>  <SCORE.INTRA.VDW>
-10.8689

>  <SCORE.INTRA.VDW.0>
10.2807

>  <SCORE.INTRA.norm>
-0.322795

>  <SCORE.RESTR>
0

>  <SCORE.RESTR.CAVITY>
0

>  <SCORE.RESTR.norm>
0

>  <SCORE.SYSTEM>
0

>  <SCORE.SYSTEM.CONST>
0

>  <SCORE.SYSTEM.DIHEDRAL>
0

>  <SCORE.SYSTEM.SOLV>
0

>  <SCORE.SYSTEM.norm>
0

>  <SCORE.heavy>
24

>  <SCORE.norm>
-1.40034

>  <RMSD>
1.082

$$$$
ligand
 OpenBabel11021811493D
libRbt.so/2013.1/901 2013/11/27
 24 26  0  0  0  0  0  0  0  0999 V2000
    8.5319  -11.0525   -9.2530 N   0  0  0  0  0  0  0  0  0  0  0  0
    9.4244  -12.1013   -9.7196 C   0  0  0  0  0  0  0  0  0  0  0  0
   13.2409   -6.0872  -13.1206 O   0  0  0  0  0  0  0  0  0  0  0  0
   11.9819   -5.6437  -12.7384 C   0  0  0  0  0  0  0  0  0  0  0  0
    8.0385   -4.4559  -11.5991 N   0  0  0  0  0  0  0  0  0  0  0  0
   11.6563   -4.1753  -12.6689 C   0  0  0  0  0  0  0  0  0  0  0  0
    8.4385   -6.6654  -11.6593 N   0  0  0  0  0  0  0  0  0  0  0  0
   10.3577   -3.6926  -12.3047 C   0  0  0  0  0  0  0  0  0  0  0  0
    6.1347   -5.9446  -10.9887 N   0  0  0  0  0  0  0  0  0  0  0  0
    9.3655   -4.6869  -11.9880 C   0  0  0  0  0  0  0  0  0  0  0  0
   12.8705  -10.7831  -12.4428 N   0  0  0  0  0  0  0  0  0  0  0  0
    9.6675   -6.0924  -12.0355 C   0  0  0  0  0  0  0  0  0  0  0  0
   11.0280   -6.5492  -12.4308 C   0  0  0  0  0  0  0  0  0  0  0  0
    7.4822   -5.6872  -11.4079 C   0  0  0  0  0  0  0  0  0  0  0  0
   11.3248   -8.0362  -12.4844 C   0  0  0  0  0  0  0  0  0  0  0  0
   12.7952   -8.3966  -12.6678 C   0  0  1  0  0  0  0  0  0  0  0  0
   13.7081   -7.2195  -12.4759 C   0  0  0  0  0  0  0  0  0  0  0  0
   13.1692   -9.5453  -11.7433 C   0  0  0  0  0  0  0  0  0  0  0  0
    8.1740   -8.1166  -11.6231 C   0  0  0  0  0  0  0  0  0  0  0  0
   14.1208  -11.3542  -12.9250 C   0  0  0  0  0  0  0  0  0  0  0  0
   12.2532  -11.6878  -11.4858 C   0  0  0  0  0  0  0  0  0  0  0  0
    8.2841   -8.7737  -10.2364 C   0  0  0  0  0  0  0  0  0  0  0  0
    8.0124  -10.2818  -10.3917 C   0  0  0  0  0  0  0  0  0  0  0  0
    7.4507  -11.6792   -8.5009 C   0  0  0  0  0  0  0  0  0  0  0  0
  1 23  1  0  0  0  0
  1 24  1  0  0  0  0
  1  2  1  0  0  0  0
  3  4  1  0  0  0  0
  3 17  1  0  0  0  0
  4  6  2  0  0  0  0
  4 13  1  0  0  0  0
  5 10  1  0  0  0  0
  5 14  2  0  0  0  0
  6  8  1  0  0  0  0
  7 12  1  0  0  0  0
  7 14  1  0  0  0  0
  7 19  1  0  0  0  0
  8 10  2  0  0  0  0
  9 14  1  0  0  0  0
 10 12  1  0  0  0  0
 11 18  1  0  0  0  0
 11 20  1  0  0  0  0
 11 21  1  0  0  0  0
 12 13  2  0  0  0  0
 13 15  1  0  0  0  0
 15 16  1  0  0  0  0
 16 17  1  0  0  0  0
 16 18  1  1  0  0  0
 19 22  1  0  0  0  0
 22 23  1  0  0  0  0
M  END
>  <CHROM.1>
-125.15131472,98.51171537,103.47755717,87.32658292,-178.65301547,160.49058693
10.33357611,-8.01182770,-11.58854030,1.42098447,-0.37756578,2.86093003

>  <Name>
ligand

>  <RI>
0

>  <Rbt.Current_Directory>
/home/itssahil/PROJECTS/Mol_Feturizer/New_Systems/rnas/3TZR

>  <Rbt.Executable>
rbdock ($Id: //depot/dev/client3/rdock/2013.1/src/exe/rbdock.cxx#4 $)

>  <Rbt.Library>
libRbt.so (2013.1, Build901 2013/11/27)

>  <Rbt.Parameter_File>
/export/apps/rDock/src/rDock_2013.1_src/data/scripts/dock_solv.prm

>  <Rbt.Receptor>
prm/blind_docking_100.prm

>  <SCORE>
-36.8627

>  <SCORE.INTER>
-27.0844

>  <SCORE.INTER.CONST>
1

>  <SCORE.INTER.POLAR>
-0.72111

>  <SCORE.INTER.ROT>
6

>  <SCORE.INTER.SOLV>
19.8966

>  <SCORE.INTER.VDW>
-29.8847

>  <SCORE.INTER.norm>
-1.12851

>  <SCORE.INTRA>
-9.77839

>  <SCORE.INTRA.DIHEDRAL>
4.26064

>  <SCORE.INTRA.DIHEDRAL.0>
4.94008

>  <SCORE.INTRA.POLAR>
0

>  <SCORE.INTRA.POLAR.0>
0

>  <SCORE.INTRA.REPUL>
0

>  <SCORE.INTRA.REPUL.0>
0

>  <SCORE.INTRA.SOLV>
0.103172

>  <SCORE.INTRA.SOLV.lig_0>
-31.4704

>  <SCORE.INTRA.VDW>
-11.9603

>  <SCORE.INTRA.VDW.0>
10.2807

>  <SCORE.INTRA.norm>
-0.407433

>  <SCORE.RESTR>
0

>  <SCORE.RESTR.CAVITY>
0

>  <SCORE.RESTR.norm>
0

>  <SCORE.SYSTEM>
0

>  <SCORE.SYSTEM.CONST>
0

>  <SCORE.SYSTEM.DIHEDRAL>
0

>  <SCORE.SYSTEM.SOLV>
0

>  <SCORE.SYSTEM.norm>
0

>  <SCORE.heavy>
24

>  <SCORE.norm>
-1.53595

>  <RMSD>
1.083

$$$$
ligand
 OpenBabel11021811493D
libRbt.so/2013.1/901 2013/11/27
 24 26  0  0  0  0  0  0  0  0999 V2000
    8.6657  -11.1264   -9.5790 N   0  0  0  0  0  0  0  0  0  0  0  0
    8.5379  -12.5231   -9.9626 C   0  0  0  0  0  0  0  0  0  0  0  0
   13.2269   -6.1630  -13.0039 O   0  0  0  0  0  0  0  0  0  0  0  0
   11.9430   -5.7052  -12.7396 C   0  0  0  0  0  0  0  0  0  0  0  0
    7.9255   -4.4747  -11.9626 N   0  0  0  0  0  0  0  0  0  0  0  0
   11.6186   -4.2350  -12.7469 C   0  0  0  0  0  0  0  0  0  0  0  0
    8.3205   -6.6854  -11.9147 N   0  0  0  0  0  0  0  0  0  0  0  0
   10.2967   -3.7386  -12.5051 C   0  0  0  0  0  0  0  0  0  0  0  0
    5.9731   -5.9395  -11.4566 N   0  0  0  0  0  0  0  0  0  0  0  0
    9.2785   -4.7204  -12.2353 C   0  0  0  0  0  0  0  0  0  0  0  0
   12.4398  -10.7891  -12.0461 N   0  0  0  0  0  0  0  0  0  0  0  0
    9.5780   -6.1271  -12.2102 C   0  0  0  0  0  0  0  0  0  0  0  0
   10.9641   -6.5986  -12.4788 C   0  0  0  0  0  0  0  0  0  0  0  0
    7.3509   -5.6981  -11.7747 C   0  0  0  0  0  0  0  0  0  0  0  0
   11.2585   -8.0869  -12.4574 C   0  0  0  0  0  0  0  0  0  0  0  0
   12.7375   -8.4550  -12.5095 C   0  0  1  0  0  0  0  0  0  0  0  0
   13.6365   -7.2728  -12.2853 C   0  0  0  0  0  0  0  0  0  0  0  0
   13.0317   -9.5715  -11.5191 C   0  0  0  0  0  0  0  0  0  0  0  0
    8.0485   -8.1343  -11.8501 C   0  0  0  0  0  0  0  0  0  0  0  0
   13.4633  -11.5187  -12.7824 C   0  0  0  0  0  0  0  0  0  0  0  0
   11.9896  -11.5821  -10.9130 C   0  0  0  0  0  0  0  0  0  0  0  0
    8.5917   -8.8534  -10.6033 C   0  0  0  0  0  0  0  0  0  0  0  0
    7.9795  -10.2659  -10.5532 C   0  0  0  0  0  0  0  0  0  0  0  0
    8.0999  -10.9698   -8.2438 C   0  0  0  0  0  0  0  0  0  0  0  0
  1 23  1  0  0  0  0
  1 24  1  0  0  0  0
  1  2  1  0  0  0  0
  3  4  1  0  0  0  0
  3 17  1  0  0  0  0
  4  6  2  0  0  0  0
  4 13  1  0  0  0  0
  5 10  1  0  0  0  0
  5 14  2  0  0  0  0
  6  8  1  0  0  0  0
  7 12  1  0  0  0  0
  7 14  1  0  0  0  0
  7 19  1  0  0  0  0
  8 10  2  0  0  0  0
  9 14  1  0  0  0  0
 10 12  1  0  0  0  0
 11 18  1  0  0  0  0
 11 20  1  0  0  0  0
 11 21  1  0  0  0  0
 12 13  2  0  0  0  0
 13 15  1  0  0  0  0
 15 16  1  0  0  0  0
 16 17  1  0  0  0  0
 16 18  1  1  0  0  0
 19 22  1  0  0  0  0
 22 23  1  0  0  0  0
M  END
>  <CHROM.1>
-153.36286747,74.30674101,95.02926016,71.57803556,168.48876005,167.04697485
10.22382989,-8.03211790,-11.64088686,1.45863676,-0.30879802,2.83234980

>  <Name>
ligand

>  <RI>
0

>  <Rbt.Current_Directory>
/home/itssahil/PROJECTS/Mol_Feturizer/New_Systems/rnas/3TZR

>  <Rbt.Executable>
rbdock ($Id: //depot/dev/client3/rdock/2013.1/src/exe/rbdock.cxx#4 $)

>  <Rbt.Library>
libRbt.so (2013.1, Build901 2013/11/27)

>  <Rbt.Parameter_File>
/export/apps/rDock/src/rDock_2013.1_src/data/scripts/dock_solv.prm

>  <Rbt.Receptor>
prm/blind_docking_40.prm

>  <SCORE>
-37.8516

>  <SCORE.INTER>
-26.1371

>  <SCORE.INTER.CONST>
1

>  <SCORE.INTER.POLAR>
-0.717781

>  <SCORE.INTER.ROT>
6

>  <SCORE.INTER.SOLV>
19.7925

>  <SCORE.INTER.VDW>
-29.2296

>  <SCORE.INTER.norm>
-1.08905

>  <SCORE.INTRA>
-11.7145

>  <SCORE.INTRA.DIHEDRAL>
0.41367

>  <SCORE.INTRA.DIHEDRAL.0>
4.94008

>  <SCORE.INTRA.POLAR>
0

>  <SCORE.INTRA.POLAR.0>
0

>  <SCORE.INTRA.REPUL>
0

>  <SCORE.INTRA.REPUL.0>
0

>  <SCORE.INTRA.SOLV>
-0.172406

>  <SCORE.INTRA.SOLV.lig_0>
-31.4704

>  <SCORE.INTRA.VDW>
-11.8351

>  <SCORE.INTRA.VDW.0>
10.2807

>  <SCORE.INTRA.norm>
-0.488104

>  <SCORE.RESTR>
0

>  <SCORE.RESTR.CAVITY>
0

>  <SCORE.RESTR.norm>
0

>  <SCORE.SYSTEM>
0

>  <SCORE.SYSTEM.CONST>
0

>  <SCORE.SYSTEM.DIHEDRAL>
0

>  <SCORE.SYSTEM.SOLV>
0

>  <SCORE.SYSTEM.norm>
0

>  <SCORE.heavy>
24

>  <SCORE.norm>
-1.57715

>  <RMSD>
1.087

$$$$
ligand
 OpenBabel11021811493D
libRbt.so/2013.1/901 2013/11/27
 24 26  0  0  0  0  0  0  0  0999 V2000
    7.1710  -10.7620  -10.7448 N   0  0  0  0  0  0  0  0  0  0  0  0
    5.8330  -10.5564  -11.2757 C   0  0  0  0  0  0  0  0  0  0  0  0
   13.2112   -5.9623  -12.9314 O   0  0  0  0  0  0  0  0  0  0  0  0
   11.8952   -5.5501  -12.7703 C   0  0  0  0  0  0  0  0  0  0  0  0
    7.7882   -4.4628  -12.3123 N   0  0  0  0  0  0  0  0  0  0  0  0
   11.5179   -4.0936  -12.8273 C   0  0  0  0  0  0  0  0  0  0  0  0
    8.2603   -6.6558  -12.1965 N   0  0  0  0  0  0  0  0  0  0  0  0
   10.1643   -3.6447  -12.6920 C   0  0  0  0  0  0  0  0  0  0  0  0
    5.8594   -5.9936  -11.9253 N   0  0  0  0  0  0  0  0  0  0  0  0
    9.1659   -4.6606  -12.4806 C   0  0  0  0  0  0  0  0  0  0  0  0
   12.5551  -10.6057  -11.9652 N   0  0  0  0  0  0  0  0  0  0  0  0
    9.5147   -6.0542  -12.4086 C   0  0  0  0  0  0  0  0  0  0  0  0
   10.9334   -6.4764  -12.5664 C   0  0  0  0  0  0  0  0  0  0  0  0
    7.2470   -5.7044  -12.1455 C   0  0  0  0  0  0  0  0  0  0  0  0
   11.2804   -7.9518  -12.4971 C   0  0  0  0  0  0  0  0  0  0  0  0
   12.7718   -8.2637  -12.4339 C   0  0  1  0  0  0  0  0  0  0  0  0
   13.6073   -7.0448  -12.1652 C   0  0  0  0  0  0  0  0  0  0  0  0
   13.0330   -9.3533  -11.4050 C   0  0  0  0  0  0  0  0  0  0  0  0
    8.0381   -8.1129  -12.1265 C   0  0  0  0  0  0  0  0  0  0  0  0
   13.6105  -11.1736  -12.7931 C   0  0  0  0  0  0  0  0  0  0  0  0
   12.2667  -11.4993  -10.8545 C   0  0  0  0  0  0  0  0  0  0  0  0
    8.7367   -8.8323  -10.9597 C   0  0  0  0  0  0  0  0  0  0  0  0
    7.6608   -9.5314  -10.1076 C   0  0  0  0  0  0  0  0  0  0  0  0
    7.1158  -11.8653   -9.7923 C   0  0  0  0  0  0  0  0  0  0  0  0
  1 23  1  0  0  0  0
  1 24  1  0  0  0  0
  1  2  1  0  0  0  0
  3  4  1  0  0  0  0
  3 17  1  0  0  0  0
  4  6  2  0  0  0  0
  4 13  1  0  0  0  0
  5 10  1  0  0  0  0
  5 14  2  0  0  0  0
  6  8  1  0  0  0  0
  7 12  1  0  0  0  0
  7 14  1  0  0  0  0
  7 19  1  0  0  0  0
  8 10  2  0  0  0  0
  9 14  1  0  0  0  0
 10 12  1  0  0  0  0
 11 18  1  0  0  0  0
 11 20  1  0  0  0  0
 11 21  1  0  0  0  0
 12 13  2  0  0  0  0
 13 15  1  0  0  0  0
 15 16  1  0  0  0  0
 16 17  1  0  0  0  0
 16 18  1  1  0  0  0
 19 22  1  0  0  0  0
 22 23  1  0  0  0  0
M  END
>  <CHROM.1>
-106.50760059,63.54358208,85.18820116,72.85926106,121.23186392,76.47460704
9.97236010,-7.84135041,-11.90073282,-2.58891504,0.16090947,-0.24732462

>  <Name>
ligand

>  <RI>
0

>  <Rbt.Current_Directory>
/home/itssahil/PROJECTS/Mol_Feturizer/New_Systems/rnas/3TZR

>  <Rbt.Executable>
rbdock ($Id: //depot/dev/client3/rdock/2013.1/src/exe/rbdock.cxx#4 $)

>  <Rbt.Library>
libRbt.so (2013.1, Build901 2013/11/27)

>  <Rbt.Parameter_File>
/export/apps/rDock/src/rDock_2013.1_src/data/scripts/dock_solv.prm

>  <Rbt.Receptor>
prm/pocket_docking_3.prm

>  <SCORE>
-33.7817

>  <SCORE.INTER>
-26.0892

>  <SCORE.INTER.CONST>
1

>  <SCORE.INTER.POLAR>
0

>  <SCORE.INTER.ROT>
6

>  <SCORE.INTER.SOLV>
20.703

>  <SCORE.INTER.VDW>
-31.8938

>  <SCORE.INTER.norm>
-1.08705

>  <SCORE.INTRA>
-7.69252

>  <SCORE.INTRA.DIHEDRAL>
6.33582

>  <SCORE.INTRA.DIHEDRAL.0>
4.94008

>  <SCORE.INTRA.POLAR>
0

>  <SCORE.INTRA.POLAR.0>
0

>  <SCORE.INTRA.REPUL>
0

>  <SCORE.INTRA.REPUL.0>
0

>  <SCORE.INTRA.SOLV>
0.189985

>  <SCORE.INTRA.SOLV.lig_0>
-31.4704

>  <SCORE.INTRA.VDW>
-10.9554

>  <SCORE.INTRA.VDW.0>
10.2807

>  <SCORE.INTRA.norm>
-0.320522

>  <SCORE.RESTR>
0

>  <SCORE.RESTR.CAVITY>
0

>  <SCORE.RESTR.norm>
0

>  <SCORE.SYSTEM>
0

>  <SCORE.SYSTEM.CONST>
0

>  <SCORE.SYSTEM.DIHEDRAL>
0

>  <SCORE.SYSTEM.SOLV>
0

>  <SCORE.SYSTEM.norm>
0

>  <SCORE.heavy>
24

>  <SCORE.norm>
-1.40757

>  <RMSD>
1.088

$$$$
ligand
 OpenBabel11021811493D
libRbt.so/2013.1/901 2013/11/27
 24 26  0  0  0  0  0  0  0  0999 V2000
    7.1039  -10.6893  -11.5959 N   0  0  0  0  0  0  0  0  0  0  0  0
    6.2766  -11.8618  -11.8305 C   0  0  0  0  0  0  0  0  0  0  0  0
   13.6346   -7.1552  -13.1617 O   0  0  0  0  0  0  0  0  0  0  0  0
   12.4935   -6.4263  -12.8542 C   0  0  0  0  0  0  0  0  0  0  0  0
    8.8786   -4.3463  -11.9244 N   0  0  0  0  0  0  0  0  0  0  0  0
   12.4690   -4.9251  -12.9663 C   0  0  0  0  0  0  0  0  0  0  0  0
    8.8278   -6.5820  -11.7131 N   0  0  0  0  0  0  0  0  0  0  0  0
   11.2968   -4.1524  -12.6820 C   0  0  0  0  0  0  0  0  0  0  0  0
    6.7213   -5.3401  -11.1680 N   0  0  0  0  0  0  0  0  0  0  0  0
   10.1287   -4.8829  -12.2630 C   0  0  0  0  0  0  0  0  0  0  0  0
   12.1747  -11.5125  -11.8541 N   0  0  0  0  0  0  0  0  0  0  0  0
   10.1430   -6.3157  -12.1370 C   0  0  0  0  0  0  0  0  0  0  0  0
   11.3807   -7.0793  -12.4543 C   0  0  0  0  0  0  0  0  0  0  0  0
    8.0890   -5.4095  -11.5951 C   0  0  0  0  0  0  0  0  0  0  0  0
   11.3735   -8.5910  -12.3247 C   0  0  0  0  0  0  0  0  0  0  0  0
   12.7402   -9.2573  -12.4417 C   0  0  1  0  0  0  0  0  0  0  0  0
   13.8720   -8.2718  -12.3789 C   0  0  0  0  0  0  0  0  0  0  0  0
   12.8857  -10.3375  -11.3805 C   0  0  0  0  0  0  0  0  0  0  0  0
    8.2787   -7.9360  -11.5068 C   0  0  0  0  0  0  0  0  0  0  0  0
   13.1063  -12.3455  -12.6026 C   0  0  0  0  0  0  0  0  0  0  0  0
   11.6982  -12.2355  -10.6854 C   0  0  0  0  0  0  0  0  0  0  0  0
    7.2011   -8.3723  -12.5144 C   0  0  0  0  0  0  0  0  0  0  0  0
    6.3358   -9.4635  -11.8565 C   0  0  0  0  0  0  0  0  0  0  0  0
    7.5743  -10.7356  -10.2161 C   0  0  0  0  0  0  0  0  0  0  0  0
  1 23  1  0  0  0  0
  1 24  1  0  0  0  0
  1  2  1  0  0  0  0
  3  4  1  0  0  0  0
  3 17  1  0  0  0  0
  4  6  2  0  0  0  0
  4 13  1  0  0  0  0
  5 10  1  0  0  0  0
  5 14  2  0  0  0  0
  6  8  1  0  0  0  0
  7 12  1  0  0  0  0
  7 14  1  0  0  0  0
  7 19  1  0  0  0  0
  8 10  2  0  0  0  0
  9 14  1  0  0  0  0
 10 12  1  0  0  0  0
 11 18  1  0  0  0  0
 11 20  1  0  0  0  0
 11 21  1  0  0  0  0
 12 13  2  0  0  0  0
 13 15  1  0  0  0  0
 15 16  1  0  0  0  0
 16 17  1  0  0  0  0
 16 18  1  1  0  0  0
 19 22  1  0  0  0  0
 22 23  1  0  0  0  0
M  END
>  <CHROM.1>
-142.74711085,-111.13759298,90.86693117,79.51633322,-156.09515673,-65.65602120
10.17343321,-8.23663571,-11.98396825,1.33402705,-0.14789505,3.03190364

>  <Name>
ligand

>  <RI>
0

>  <Rbt.Current_Directory>
/home/itssahil/PROJECTS/Mol_Feturizer/New_Systems/rnas/3TZR

>  <Rbt.Executable>
rbdock ($Id: //depot/dev/client3/rdock/2013.1/src/exe/rbdock.cxx#4 $)

>  <Rbt.Library>
libRbt.so (2013.1, Build901 2013/11/27)

>  <Rbt.Parameter_File>
/export/apps/rDock/src/rDock_2013.1_src/data/scripts/dock_solv.prm

>  <Rbt.Receptor>
prm/pocket_docking_3.prm

>  <SCORE>
-31.2562

>  <SCORE.INTER>
-22.0922

>  <SCORE.INTER.CONST>
1

>  <SCORE.INTER.POLAR>
0

>  <SCORE.INTER.ROT>
6

>  <SCORE.INTER.SOLV>
20.7431

>  <SCORE.INTER.VDW>
-29.2425

>  <SCORE.INTER.norm>
-0.920507

>  <SCORE.INTRA>
-9.16407

>  <SCORE.INTRA.DIHEDRAL>
2.35985

>  <SCORE.INTRA.DIHEDRAL.0>
4.94008

>  <SCORE.INTRA.POLAR>
0

>  <SCORE.INTRA.POLAR.0>
0

>  <SCORE.INTRA.REPUL>
0

>  <SCORE.INTRA.REPUL.0>
0

>  <SCORE.INTRA.SOLV>
1.00389

>  <SCORE.INTRA.SOLV.lig_0>
-31.4704

>  <SCORE.INTRA.VDW>
-10.8459

>  <SCORE.INTRA.VDW.0>
10.2807

>  <SCORE.INTRA.norm>
-0.381836

>  <SCORE.RESTR>
0

>  <SCORE.RESTR.CAVITY>
0

>  <SCORE.RESTR.norm>
0

>  <SCORE.SYSTEM>
0

>  <SCORE.SYSTEM.CONST>
0

>  <SCORE.SYSTEM.DIHEDRAL>
0

>  <SCORE.SYSTEM.SOLV>
0

>  <SCORE.SYSTEM.norm>
0

>  <SCORE.heavy>
24

>  <SCORE.norm>
-1.30234

>  <RMSD>
1.089

$$$$
ligand
 OpenBabel11021811493D
libRbt.so/2013.1/901 2013/11/27
 24 26  0  0  0  0  0  0  0  0999 V2000
    6.6598  -10.0866  -10.6933 N   0  0  0  0  0  0  0  0  0  0  0  0
    7.7229  -10.7292   -9.9375 C   0  0  0  0  0  0  0  0  0  0  0  0
   13.5931   -7.2512  -13.1045 O   0  0  0  0  0  0  0  0  0  0  0  0
   12.4903   -6.4565  -12.8213 C   0  0  0  0  0  0  0  0  0  0  0  0
    8.9869   -4.1704  -11.9502 N   0  0  0  0  0  0  0  0  0  0  0  0
   12.5170   -4.9688  -13.0514 C   0  0  0  0  0  0  0  0  0  0  0  0
    8.8614   -6.3791  -11.5607 N   0  0  0  0  0  0  0  0  0  0  0  0
   11.3840   -4.1310  -12.7938 C   0  0  0  0  0  0  0  0  0  0  0  0
    6.8211   -5.0169  -11.0523 N   0  0  0  0  0  0  0  0  0  0  0  0
   10.2046   -4.7803  -12.2830 C   0  0  0  0  0  0  0  0  0  0  0  0
   12.1363  -11.4830  -11.4702 N   0  0  0  0  0  0  0  0  0  0  0  0
   10.1706   -6.1984  -12.0442 C   0  0  0  0  0  0  0  0  0  0  0  0
   11.3683   -7.0322  -12.3373 C   0  0  0  0  0  0  0  0  0  0  0  0
    8.1704   -5.1729  -11.5138 C   0  0  0  0  0  0  0  0  0  0  0  0
   11.3101   -8.5277  -12.0880 C   0  0  0  0  0  0  0  0  0  0  0  0
   12.6468   -9.2540  -12.1931 C   0  0  1  0  0  0  0  0  0  0  0  0
   13.8153   -8.3117  -12.2431 C   0  0  0  0  0  0  0  0  0  0  0  0
   12.7880  -10.2529  -11.0545 C   0  0  0  0  0  0  0  0  0  0  0  0
    8.2703   -7.6903  -11.2311 C   0  0  0  0  0  0  0  0  0  0  0  0
   13.1548  -12.4029  -11.9582 C   0  0  0  0  0  0  0  0  0  0  0  0
   11.4829  -12.0483  -10.3002 C   0  0  0  0  0  0  0  0  0  0  0  0
    7.2552   -8.2326  -12.2520 C   0  0  0  0  0  0  0  0  0  0  0  0
    7.1267   -9.7537  -12.0467 C   0  0  0  0  0  0  0  0  0  0  0  0
    5.5204  -10.9962  -10.7354 C   0  0  0  0  0  0  0  0  0  0  0  0
  1 23  1  0  0  0  0
  1 24  1  0  0  0  0
  1  2  1  0  0  0  0
  3  4  1  0  0  0  0
  3 17  1  0  0  0  0
  4  6  2  0  0  0  0
  4 13  1  0  0  0  0
  5 10  1  0  0  0  0
  5 14  2  0  0  0  0
  6  8  1  0  0  0  0
  7 12  1  0  0  0  0
  7 14  1  0  0  0  0
  7 19  1  0  0  0  0
  8 10  2  0  0  0  0
  9 14  1  0  0  0  0
 10 12  1  0  0  0  0
 11 18  1  0  0  0  0
 11 20  1  0  0  0  0
 11 21  1  0  0  0  0
 12 13  2  0  0  0  0
 13 15  1  0  0  0  0
 15 16  1  0  0  0  0
 16 17  1  0  0  0  0
 16 18  1  1  0  0  0
 19 22  1  0  0  0  0
 22 23  1  0  0  0  0
M  END
>  <CHROM.1>
-111.25430229,-104.69155028,98.49976983,85.32771159,160.01770939,60.10661657
10.15950536,-8.11288952,-11.74676399,1.11874779,-0.18656017,2.95151477

>  <Name>
ligand

>  <RI>
0

>  <Rbt.Current_Directory>
/home/itssahil/PROJECTS/Mol_Feturizer/New_Systems/rnas/3TZR

>  <Rbt.Executable>
rbdock ($Id: //depot/dev/client3/rdock/2013.1/src/exe/rbdock.cxx#4 $)

>  <Rbt.Library>
libRbt.so (2013.1, Build901 2013/11/27)

>  <Rbt.Parameter_File>
/export/apps/rDock/src/rDock_2013.1_src/data/scripts/dock_solv.prm

>  <Rbt.Receptor>
prm/pocket_docking_4.prm

>  <SCORE>
-32.8492

>  <SCORE.INTER>
-23.1184

>  <SCORE.INTER.CONST>
1

>  <SCORE.INTER.POLAR>
0

>  <SCORE.INTER.ROT>
6

>  <SCORE.INTER.SOLV>
22.3917

>  <SCORE.INTER.VDW>
-30.4762

>  <SCORE.INTER.norm>
-0.963268

>  <SCORE.INTRA>
-9.73079

>  <SCORE.INTRA.DIHEDRAL>
3.49106

>  <SCORE.INTRA.DIHEDRAL.0>
4.94008

>  <SCORE.INTRA.POLAR>
0

>  <SCORE.INTRA.POLAR.0>
0

>  <SCORE.INTRA.REPUL>
0

>  <SCORE.INTRA.REPUL.0>
0

>  <SCORE.INTRA.SOLV>
0.383428

>  <SCORE.INTRA.SOLV.lig_0>
-31.4704

>  <SCORE.INTRA.VDW>
-11.668

>  <SCORE.INTRA.VDW.0>
10.2807

>  <SCORE.INTRA.norm>
-0.40545

>  <SCORE.RESTR>
0

>  <SCORE.RESTR.CAVITY>
0

>  <SCORE.RESTR.norm>
0

>  <SCORE.SYSTEM>
0

>  <SCORE.SYSTEM.CONST>
0

>  <SCORE.SYSTEM.DIHEDRAL>
0

>  <SCORE.SYSTEM.SOLV>
0

>  <SCORE.SYSTEM.norm>
0

>  <SCORE.heavy>
24

>  <SCORE.norm>
-1.36872

>  <RMSD>
1.095

$$$$
ligand
 OpenBabel11021811493D
libRbt.so/2013.1/901 2013/11/27
 24 26  0  0  0  0  0  0  0  0999 V2000
    8.5204  -11.0171   -9.4006 N   0  0  0  0  0  0  0  0  0  0  0  0
    8.6926  -12.3561   -9.9407 C   0  0  0  0  0  0  0  0  0  0  0  0
   13.2614   -6.2778  -13.2101 O   0  0  0  0  0  0  0  0  0  0  0  0
   12.0253   -5.8035  -12.7917 C   0  0  0  0  0  0  0  0  0  0  0  0
    8.1477   -4.5200  -11.5366 N   0  0  0  0  0  0  0  0  0  0  0  0
   11.7329   -4.3279  -12.7285 C   0  0  0  0  0  0  0  0  0  0  0  0
    8.4993   -6.7381  -11.5843 N   0  0  0  0  0  0  0  0  0  0  0  0
   10.4575   -3.8138  -12.3272 C   0  0  0  0  0  0  0  0  0  0  0  0
    6.2346   -5.9613  -10.8463 N   0  0  0  0  0  0  0  0  0  0  0  0
    9.4558   -4.7834  -11.9664 C   0  0  0  0  0  0  0  0  0  0  0  0
   12.3524  -10.8653  -12.1615 N   0  0  0  0  0  0  0  0  0  0  0  0
    9.7268   -6.1954  -12.0075 C   0  0  0  0  0  0  0  0  0  0  0  0
   11.0636   -6.6852  -12.4422 C   0  0  0  0  0  0  0  0  0  0  0  0
    7.5725   -5.7371  -11.3128 C   0  0  0  0  0  0  0  0  0  0  0  0
   11.3274   -8.1787  -12.4884 C   0  0  0  0  0  0  0  0  0  0  0  0
   12.7830   -8.5722  -12.7160 C   0  0  1  0  0  0  0  0  0  0  0  0
   13.7261   -7.4126  -12.5681 C   0  0  0  0  0  0  0  0  0  0  0  0
   13.1636   -9.7184  -11.7911 C   0  0  0  0  0  0  0  0  0  0  0  0
    8.2060   -8.1829  -11.5225 C   0  0  0  0  0  0  0  0  0  0  0  0
   13.1483  -11.7375  -13.0146 C   0  0  0  0  0  0  0  0  0  0  0  0
   11.9993  -11.5647  -10.9360 C   0  0  0  0  0  0  0  0  0  0  0  0
    7.8531   -8.7262  -10.1271 C   0  0  0  0  0  0  0  0  0  0  0  0
    7.6020  -10.2411  -10.2461 C   0  0  0  0  0  0  0  0  0  0  0  0
    8.0107  -11.1397   -8.0396 C   0  0  0  0  0  0  0  0  0  0  0  0
  1 23  1  0  0  0  0
  1 24  1  0  0  0  0
  1  2  1  0  0  0  0
  3  4  1  0  0  0  0
  3 17  1  0  0  0  0
  4  6  2  0  0  0  0
  4 13  1  0  0  0  0
  5 10  1  0  0  0  0
  5 14  2  0  0  0  0
  6  8  1  0  0  0  0
  7 12  1  0  0  0  0
  7 14  1  0  0  0  0
  7 19  1  0  0  0  0
  8 10  2  0  0  0  0
  9 14  1  0  0  0  0
 10 12  1  0  0  0  0
 11 18  1  0  0  0  0
 11 20  1  0  0  0  0
 11 21  1  0  0  0  0
 12 13  2  0  0  0  0
 13 15  1  0  0  0  0
 15 16  1  0  0  0  0
 16 17  1  0  0  0  0
 16 18  1  1  0  0  0
 19 22  1  0  0  0  0
 22 23  1  0  0  0  0
M  END
>  <CHROM.1>
-154.55308555,119.47514426,98.68783265,63.91961239,-179.09719884,120.53331261
10.24292093,-8.08645363,-11.53598212,1.65784413,-0.40888639,2.86667067

>  <Name>
ligand

>  <RI>
0

>  <Rbt.Current_Directory>
/home/itssahil/PROJECTS/Mol_Feturizer/New_Systems/rnas/3TZR

>  <Rbt.Executable>
rbdock ($Id: //depot/dev/client3/rdock/2013.1/src/exe/rbdock.cxx#4 $)

>  <Rbt.Library>
libRbt.so (2013.1, Build901 2013/11/27)

>  <Rbt.Parameter_File>
/export/apps/rDock/src/rDock_2013.1_src/data/scripts/dock_solv.prm

>  <Rbt.Receptor>
prm/pocket_docking_6.prm

>  <SCORE>
-34.8801

>  <SCORE.INTER>
-26.2102

>  <SCORE.INTER.CONST>
1

>  <SCORE.INTER.POLAR>
-0.706052

>  <SCORE.INTER.ROT>
6

>  <SCORE.INTER.SOLV>
19.787

>  <SCORE.INTER.VDW>
-29.3156

>  <SCORE.INTER.norm>
-1.09209

>  <SCORE.INTRA>
-8.6699

>  <SCORE.INTRA.DIHEDRAL>
4.53236

>  <SCORE.INTRA.DIHEDRAL.0>
4.94008

>  <SCORE.INTRA.POLAR>
0

>  <SCORE.INTRA.POLAR.0>
0

>  <SCORE.INTRA.REPUL>
0

>  <SCORE.INTRA.REPUL.0>
0

>  <SCORE.INTRA.SOLV>
0.847719

>  <SCORE.INTRA.SOLV.lig_0>
-31.4704

>  <SCORE.INTRA.VDW>
-11.3599

>  <SCORE.INTRA.VDW.0>
10.2807

>  <SCORE.INTRA.norm>
-0.361246

>  <SCORE.RESTR>
0

>  <SCORE.RESTR.CAVITY>
0

>  <SCORE.RESTR.norm>
0

>  <SCORE.SYSTEM>
0

>  <SCORE.SYSTEM.CONST>
0

>  <SCORE.SYSTEM.DIHEDRAL>
0

>  <SCORE.SYSTEM.SOLV>
0

>  <SCORE.SYSTEM.norm>
0

>  <SCORE.heavy>
24

>  <SCORE.norm>
-1.45334

>  <RMSD>
1.095

$$$$
ligand
 OpenBabel11021811493D
libRbt.so/2013.1/901 2013/11/27
 24 26  0  0  0  0  0  0  0  0999 V2000
    7.0854  -10.7791  -11.0484 N   0  0  0  0  0  0  0  0  0  0  0  0
    5.7618  -10.4744  -11.5675 C   0  0  0  0  0  0  0  0  0  0  0  0
   13.2345   -6.0039  -12.8902 O   0  0  0  0  0  0  0  0  0  0  0  0
   11.9218   -5.5814  -12.7289 C   0  0  0  0  0  0  0  0  0  0  0  0
    7.8233   -4.4607  -12.2757 N   0  0  0  0  0  0  0  0  0  0  0  0
   11.5609   -4.1198  -12.7507 C   0  0  0  0  0  0  0  0  0  0  0  0
    8.2703   -6.6611  -12.2138 N   0  0  0  0  0  0  0  0  0  0  0  0
   10.2112   -3.6595  -12.6146 C   0  0  0  0  0  0  0  0  0  0  0  0
    5.8746   -5.9794  -11.9447 N   0  0  0  0  0  0  0  0  0  0  0  0
    9.2001   -4.6694  -12.4379 C   0  0  0  0  0  0  0  0  0  0  0  0
   12.6653  -10.6832  -12.1089 N   0  0  0  0  0  0  0  0  0  0  0  0
    9.5329   -6.0682  -12.3999 C   0  0  0  0  0  0  0  0  0  0  0  0
   10.9482   -6.5019  -12.5572 C   0  0  0  0  0  0  0  0  0  0  0  0
    7.2671   -5.7001  -12.1460 C   0  0  0  0  0  0  0  0  0  0  0  0
   11.2784   -7.9824  -12.5240 C   0  0  0  0  0  0  0  0  0  0  0  0
   12.7657   -8.3125  -12.4569 C   0  0  1  0  0  0  0  0  0  0  0  0
   13.6122   -7.1105  -12.1495 C   0  0  0  0  0  0  0  0  0  0  0  0
   13.0063   -9.4316  -11.4549 C   0  0  0  0  0  0  0  0  0  0  0  0
    8.0316   -8.1170  -12.1839 C   0  0  0  0  0  0  0  0  0  0  0  0
   13.8298  -11.1493  -12.8496 C   0  0  0  0  0  0  0  0  0  0  0  0
   12.3281  -11.6421  -11.0685 C   0  0  0  0  0  0  0  0  0  0  0  0
    8.6911   -8.8707  -11.0161 C   0  0  0  0  0  0  0  0  0  0  0  0
    7.5965   -9.6480  -10.2611 C   0  0  0  0  0  0  0  0  0  0  0  0
    6.9866  -11.9869  -10.2367 C   0  0  0  0  0  0  0  0  0  0  0  0
  1 23  1  0  0  0  0
  1 24  1  0  0  0  0
  1  2  1  0  0  0  0
  3  4  1  0  0  0  0
  3 17  1  0  0  0  0
  4  6  2  0  0  0  0
  4 13  1  0  0  0  0
  5 10  1  0  0  0  0
  5 14  2  0  0  0  0
  6  8  1  0  0  0  0
  7 12  1  0  0  0  0
  7 14  1  0  0  0  0
  7 19  1  0  0  0  0
  8 10  2  0  0  0  0
  9 14  1  0  0  0  0
 10 12  1  0  0  0  0
 11 18  1  0  0  0  0
 11 20  1  0  0  0  0
 11 21  1  0  0  0  0
 12 13  2  0  0  0  0
 13 15  1  0  0  0  0
 15 16  1  0  0  0  0
 16 17  1  0  0  0  0
 16 18  1  1  0  0  0
 19 22  1  0  0  0  0
 22 23  1  0  0  0  0
M  END
>  <CHROM.1>
-105.79499162,64.62471387,85.67645782,79.39074575,124.67135069,70.36078159
9.98204800,-7.87472006,-11.96968516,-2.87603705,0.14306842,-0.20302996

>  <Name>
ligand

>  <RI>
144

>  <Rbt.Current_Directory>
/home/itssahil/PROJECTS/Mol_Feturizer/New_Systems/rnas/3TZR

>  <Rbt.Executable>
rbdock ($Id: //depot/dev/client3/rdock/2013.1/src/exe/rbdock.cxx#4 $)

>  <Rbt.Library>
libRbt.so (2013.1, Build901 2013/11/27)

>  <Rbt.Parameter_File>
/export/apps/rDock/src/rDock_2013.1_src/data/scripts/dock_solv.prm

>  <Rbt.Receptor>
prm/blind_docking_60.prm

>  <SCORE>
-33.3236

>  <SCORE.INTER>
-25.7126

>  <SCORE.INTER.CONST>
1

>  <SCORE.INTER.POLAR>
0

>  <SCORE.INTER.ROT>
6

>  <SCORE.INTER.SOLV>
20.6404

>  <SCORE.INTER.VDW>
-31.6219

>  <SCORE.INTER.norm>
-1.07136

>  <SCORE.INTRA>
-7.61099

>  <SCORE.INTRA.DIHEDRAL>
6.34165

>  <SCORE.INTRA.DIHEDRAL.0>
4.94008

>  <SCORE.INTRA.POLAR>
0

>  <SCORE.INTRA.POLAR.0>
0

>  <SCORE.INTRA.REPUL>
0

>  <SCORE.INTRA.REPUL.0>
0

>  <SCORE.INTRA.SOLV>
0.263221

>  <SCORE.INTRA.SOLV.lig_0>
-31.4704

>  <SCORE.INTRA.VDW>
-10.9134

>  <SCORE.INTRA.VDW.0>
10.2807

>  <SCORE.INTRA.norm>
-0.317124

>  <SCORE.RESTR>
0

>  <SCORE.RESTR.CAVITY>
0

>  <SCORE.RESTR.norm>
0

>  <SCORE.SYSTEM>
0

>  <SCORE.SYSTEM.CONST>
0

>  <SCORE.SYSTEM.DIHEDRAL>
0

>  <SCORE.SYSTEM.SOLV>
0

>  <SCORE.SYSTEM.norm>
0

>  <SCORE.heavy>
24

>  <SCORE.norm>
-1.38848

>  <RMSD>
1.096

$$$$
ligand
 OpenBabel11021811493D
libRbt.so/2013.1/901 2013/11/27
 24 26  0  0  0  0  0  0  0  0999 V2000
    6.2455  -10.2933  -10.8930 N   0  0  0  0  0  0  0  0  0  0  0  0
    7.2262  -11.0970  -10.1814 C   0  0  0  0  0  0  0  0  0  0  0  0
   13.2125   -6.0809  -13.0327 O   0  0  0  0  0  0  0  0  0  0  0  0
   11.9280   -5.6269  -12.7650 C   0  0  0  0  0  0  0  0  0  0  0  0
    7.9095   -4.4092  -11.9724 N   0  0  0  0  0  0  0  0  0  0  0  0
   11.5917   -4.1598  -12.8037 C   0  0  0  0  0  0  0  0  0  0  0  0
    8.3227   -6.6150  -11.8762 N   0  0  0  0  0  0  0  0  0  0  0  0
   10.2687   -3.6681  -12.5589 C   0  0  0  0  0  0  0  0  0  0  0  0
    5.9747   -5.8765  -11.4096 N   0  0  0  0  0  0  0  0  0  0  0  0
    9.2614   -4.6509  -12.2544 C   0  0  0  0  0  0  0  0  0  0  0  0
   12.4405  -10.6802  -11.9368 N   0  0  0  0  0  0  0  0  0  0  0  0
    9.5724   -6.0542  -12.1991 C   0  0  0  0  0  0  0  0  0  0  0  0
   10.9591   -6.5214  -12.4720 C   0  0  0  0  0  0  0  0  0  0  0  0
    7.3469   -5.6322  -11.7488 C   0  0  0  0  0  0  0  0  0  0  0  0
   11.2657   -8.0064  -12.4184 C   0  0  0  0  0  0  0  0  0  0  0  0
   12.7469   -8.3641  -12.4783 C   0  0  1  0  0  0  0  0  0  0  0  0
   13.6389   -7.1701  -12.2925 C   0  0  0  0  0  0  0  0  0  0  0  0
   13.0610   -9.4543  -11.4648 C   0  0  0  0  0  0  0  0  0  0  0  0
    8.0631   -8.0640  -11.7740 C   0  0  0  0  0  0  0  0  0  0  0  0
   13.4036  -11.3974  -12.7612 C   0  0  0  0  0  0  0  0  0  0  0  0
   12.1036  -11.4775  -10.7678 C   0  0  0  0  0  0  0  0  0  0  0  0
    6.8695   -8.5807  -12.5957 C   0  0  0  0  0  0  0  0  0  0  0  0
    6.6759  -10.0761  -12.2816 C   0  0  0  0  0  0  0  0  0  0  0  0
    4.9646  -10.9888  -10.8387 C   0  0  0  0  0  0  0  0  0  0  0  0
  1 23  1  0  0  0  0
  1 24  1  0  0  0  0
  1  2  1  0  0  0  0
  3  4  1  0  0  0  0
  3 17  1  0  0  0  0
  4  6  2  0  0  0  0
  4 13  1  0  0  0  0
  5 10  1  0  0  0  0
  5 14  2  0  0  0  0
  6  8  1  0  0  0  0
  7 12  1  0  0  0  0
  7 14  1  0  0  0  0
  7 19  1  0  0  0  0
  8 10  2  0  0  0  0
  9 14  1  0  0  0  0
 10 12  1  0  0  0  0
 11 18  1  0  0  0  0
 11 20  1  0  0  0  0
 11 21  1  0  0  0  0
 12 13  2  0  0  0  0
 13 15  1  0  0  0  0
 15 16  1  0  0  0  0
 16 17  1  0  0  0  0
 16 18  1  1  0  0  0
 19 22  1  0  0  0  0
 22 23  1  0  0  0  0
M  END
>  <CHROM.1>
-119.03591477,-127.89564111,91.08680084,69.97408207,-175.40044662,66.92685490
9.78671194,-7.84632492,-11.96744424,-2.87073389,0.13309459,-0.15890655

>  <Name>
ligand

>  <RI>
0

>  <Rbt.Current_Directory>
/home/itssahil/PROJECTS/Mol_Feturizer/New_Systems/rnas/3TZR

>  <Rbt.Executable>
rbdock ($Id: //depot/dev/client3/rdock/2013.1/src/exe/rbdock.cxx#4 $)

>  <Rbt.Library>
libRbt.so (2013.1, Build901 2013/11/27)

>  <Rbt.Parameter_File>
/export/apps/rDock/src/rDock_2013.1_src/data/scripts/dock_solv.prm

>  <Rbt.Receptor>
prm/blind_docking_40.prm

>  <SCORE>
-34.7706

>  <SCORE.INTER>
-24.5671

>  <SCORE.INTER.CONST>
1

>  <SCORE.INTER.POLAR>
0

>  <SCORE.INTER.ROT>
6

>  <SCORE.INTER.SOLV>
20.8263

>  <SCORE.INTER.VDW>
-30.9202

>  <SCORE.INTER.norm>
-1.02363

>  <SCORE.INTRA>
-10.2035

>  <SCORE.INTRA.DIHEDRAL>
0.612029

>  <SCORE.INTRA.DIHEDRAL.0>
4.94008

>  <SCORE.INTRA.POLAR>
0

>  <SCORE.INTRA.POLAR.0>
0

>  <SCORE.INTRA.REPUL>
0

>  <SCORE.INTRA.REPUL.0>
0

>  <SCORE.INTRA.SOLV>
1.17037

>  <SCORE.INTRA.SOLV.lig_0>
-31.4704

>  <SCORE.INTRA.VDW>
-11.0947

>  <SCORE.INTRA.VDW.0>
10.2807

>  <SCORE.INTRA.norm>
-0.425147

>  <SCORE.RESTR>
0

>  <SCORE.RESTR.CAVITY>
0

>  <SCORE.RESTR.norm>
0

>  <SCORE.SYSTEM>
0

>  <SCORE.SYSTEM.CONST>
0

>  <SCORE.SYSTEM.DIHEDRAL>
0

>  <SCORE.SYSTEM.SOLV>
0

>  <SCORE.SYSTEM.norm>
0

>  <SCORE.heavy>
24

>  <SCORE.norm>
-1.44877

>  <RMSD>
1.099

$$$$
ligand
 OpenBabel11021811493D
libRbt.so/2013.1/901 2013/11/27
 24 26  0  0  0  0  0  0  0  0999 V2000
    7.4243  -10.5947  -11.0159 N   0  0  0  0  0  0  0  0  0  0  0  0
    6.2296  -10.5318  -11.8423 C   0  0  0  0  0  0  0  0  0  0  0  0
   13.6769   -7.0143  -12.8579 O   0  0  0  0  0  0  0  0  0  0  0  0
   12.5135   -6.2734  -12.6990 C   0  0  0  0  0  0  0  0  0  0  0  0
    8.8311   -4.1565  -12.2323 N   0  0  0  0  0  0  0  0  0  0  0  0
   12.5100   -4.7763  -12.8592 C   0  0  0  0  0  0  0  0  0  0  0  0
    8.7446   -6.3844  -11.9590 N   0  0  0  0  0  0  0  0  0  0  0  0
   11.3183   -3.9923  -12.7280 C   0  0  0  0  0  0  0  0  0  0  0  0
    6.5987   -5.1209  -11.6848 N   0  0  0  0  0  0  0  0  0  0  0  0
   10.1074   -4.7065  -12.4163 C   0  0  0  0  0  0  0  0  0  0  0  0
   11.9157  -11.2611  -11.5195 N   0  0  0  0  0  0  0  0  0  0  0  0
   10.0996   -6.1347  -12.2454 C   0  0  0  0  0  0  0  0  0  0  0  0
   11.3600   -6.9108  -12.4025 C   0  0  0  0  0  0  0  0  0  0  0  0
    8.0042   -5.2070  -11.9582 C   0  0  0  0  0  0  0  0  0  0  0  0
   11.3300   -8.4177  -12.2280 C   0  0  0  0  0  0  0  0  0  0  0  0
   12.6974   -9.0907  -12.1750 C   0  0  1  0  0  0  0  0  0  0  0  0
   13.8213   -8.1065  -12.0200 C   0  0  0  0  0  0  0  0  0  0  0  0
   12.7204  -10.1376  -11.0715 C   0  0  0  0  0  0  0  0  0  0  0  0
    8.1685   -7.7299  -11.7721 C   0  0  0  0  0  0  0  0  0  0  0  0
   12.7234  -12.0803  -12.4130 C   0  0  0  0  0  0  0  0  0  0  0  0
   11.5485  -12.0325  -10.3424 C   0  0  0  0  0  0  0  0  0  0  0  0
    8.5848   -8.4530  -10.4795 C   0  0  0  0  0  0  0  0  0  0  0  0
    7.4707   -9.4464  -10.0996 C   0  0  0  0  0  0  0  0  0  0  0  0
    7.4024  -11.8557  -10.2833 C   0  0  0  0  0  0  0  0  0  0  0  0
  1 23  1  0  0  0  0
  1 24  1  0  0  0  0
  1  2  1  0  0  0  0
  3  4  1  0  0  0  0
  3 17  1  0  0  0  0
  4  6  2  0  0  0  0
  4 13  1  0  0  0  0
  5 10  1  0  0  0  0
  5 14  2  0  0  0  0
  6  8  1  0  0  0  0
  7 12  1  0  0  0  0
  7 14  1  0  0  0  0
  7 19  1  0  0  0  0
  8 10  2  0  0  0  0
  9 14  1  0  0  0  0
 10 12  1  0  0  0  0
 11 18  1  0  0  0  0
 11 20  1  0  0  0  0
 11 21  1  0  0  0  0
 12 13  2  0  0  0  0
 13 15  1  0  0  0  0
 15 16  1  0  0  0  0
 16 17  1  0  0  0  0
 16 18  1  1  0  0  0
 19 22  1  0  0  0  0
 22 23  1  0  0  0  0
M  END
>  <CHROM.1>
-109.94828150,70.57915627,80.80307452,72.53666713,153.42213819,71.28966688
10.21991720,-8.07841408,-11.77360932,1.64194192,-0.17034330,2.93862195

>  <Name>
ligand

>  <RI>
0

>  <Rbt.Current_Directory>
/home/itssahil/PROJECTS/Mol_Feturizer/New_Systems/rnas/3TZR

>  <Rbt.Executable>
rbdock ($Id: //depot/dev/client3/rdock/2013.1/src/exe/rbdock.cxx#4 $)

>  <Rbt.Library>
libRbt.so (2013.1, Build901 2013/11/27)

>  <Rbt.Parameter_File>
/export/apps/rDock/src/rDock_2013.1_src/data/scripts/dock_solv.prm

>  <Rbt.Receptor>
prm/pocket_docking_4.prm

>  <SCORE>
-33.4399

>  <SCORE.INTER>
-23.3652

>  <SCORE.INTER.CONST>
1

>  <SCORE.INTER.POLAR>
0

>  <SCORE.INTER.ROT>
6

>  <SCORE.INTER.SOLV>
21.5482

>  <SCORE.INTER.VDW>
-30.3595

>  <SCORE.INTER.norm>
-0.973549

>  <SCORE.INTRA>
-10.1013

>  <SCORE.INTRA.DIHEDRAL>
2.48644

>  <SCORE.INTRA.DIHEDRAL.0>
4.94008

>  <SCORE.INTRA.POLAR>
0

>  <SCORE.INTRA.POLAR.0>
0

>  <SCORE.INTRA.REPUL>
0

>  <SCORE.INTRA.REPUL.0>
0

>  <SCORE.INTRA.SOLV>
-0.179087

>  <SCORE.INTRA.SOLV.lig_0>
-31.4704

>  <SCORE.INTRA.VDW>
-11.255

>  <SCORE.INTRA.VDW.0>
10.2807

>  <SCORE.INTRA.norm>
-0.420888

>  <SCORE.RESTR>
0.0266471

>  <SCORE.RESTR.CAVITY>
0.0266471

>  <SCORE.RESTR.norm>
0.0011103

>  <SCORE.SYSTEM>
0

>  <SCORE.SYSTEM.CONST>
0

>  <SCORE.SYSTEM.DIHEDRAL>
0

>  <SCORE.SYSTEM.SOLV>
0

>  <SCORE.SYSTEM.norm>
0

>  <SCORE.heavy>
24

>  <SCORE.norm>
-1.39333

>  <RMSD>
1.099

$$$$
ligand
 OpenBabel11021811493D
libRbt.so/2013.1/901 2013/11/27
 24 26  0  0  0  0  0  0  0  0999 V2000
    7.2861  -10.8356  -10.6932 N   0  0  0  0  0  0  0  0  0  0  0  0
    5.9929  -10.6672  -11.3362 C   0  0  0  0  0  0  0  0  0  0  0  0
   13.1500   -5.9326  -12.9172 O   0  0  0  0  0  0  0  0  0  0  0  0
   11.8323   -5.5268  -12.7536 C   0  0  0  0  0  0  0  0  0  0  0  0
    7.7209   -4.4587  -12.2912 N   0  0  0  0  0  0  0  0  0  0  0  0
   11.4510   -4.0707  -12.7883 C   0  0  0  0  0  0  0  0  0  0  0  0
    8.1988   -6.6519  -12.2093 N   0  0  0  0  0  0  0  0  0  0  0  0
   10.0957   -3.6278  -12.6501 C   0  0  0  0  0  0  0  0  0  0  0  0
    5.7952   -6.0009  -11.9351 N   0  0  0  0  0  0  0  0  0  0  0  0
    9.0996   -4.6498  -12.4582 C   0  0  0  0  0  0  0  0  0  0  0  0
   12.4041  -10.5723  -11.9801 N   0  0  0  0  0  0  0  0  0  0  0  0
    9.4522   -6.0434  -12.4078 C   0  0  0  0  0  0  0  0  0  0  0  0
   10.8725   -6.4589  -12.5678 C   0  0  0  0  0  0  0  0  0  0  0  0
    7.1827   -5.7043  -12.1462 C   0  0  0  0  0  0  0  0  0  0  0  0
   11.2236   -7.9343  -12.5213 C   0  0  0  0  0  0  0  0  0  0  0  0
   12.7156   -8.2430  -12.4584 C   0  0  1  0  0  0  0  0  0  0  0  0
   13.5468   -7.0263  -12.1674 C   0  0  0  0  0  0  0  0  0  0  0  0
   12.9767   -9.3484  -11.4464 C   0  0  0  0  0  0  0  0  0  0  0  0
    7.9807   -8.1106  -12.1636 C   0  0  0  0  0  0  0  0  0  0  0  0
   13.3904  -11.2043  -12.8459 C   0  0  0  0  0  0  0  0  0  0  0  0
   12.1082  -11.4436  -10.8537 C   0  0  0  0  0  0  0  0  0  0  0  0
    8.7629   -8.8616  -11.0724 C   0  0  0  0  0  0  0  0  0  0  0  0
    7.7510   -9.5552  -10.1411 C   0  0  0  0  0  0  0  0  0  0  0  0
    7.1443  -11.8424   -9.6474 C   0  0  0  0  0  0  0  0  0  0  0  0
  1 23  1  0  0  0  0
  1 24  1  0  0  0  0
  1  2  1  0  0  0  0
  3  4  1  0  0  0  0
  3 17  1  0  0  0  0
  4  6  2  0  0  0  0
  4 13  1  0  0  0  0
  5 10  1  0  0  0  0
  5 14  2  0  0  0  0
  6  8  1  0  0  0  0
  7 12  1  0  0  0  0
  7 14  1  0  0  0  0
  7 19  1  0  0  0  0
  8 10  2  0  0  0  0
  9 14  1  0  0  0  0
 10 12  1  0  0  0  0
 11 18  1  0  0  0  0
 11 20  1  0  0  0  0
 11 21  1  0  0  0  0
 12 13  2  0  0  0  0
 13 15  1  0  0  0  0
 15 16  1  0  0  0  0
 16 17  1  0  0  0  0
 16 18  1  1  0  0  0
 19 22  1  0  0  0  0
 22 23  1  0  0  0  0
M  END
>  <CHROM.1>
-98.95807691,59.05567510,86.25713059,68.18327147,119.78909607,82.21252449
9.92710760,-7.84031502,-11.90442248,2.22378698,-0.16397211,2.89671434

>  <Name>
ligand

>  <RI>
0

>  <Rbt.Current_Directory>
/home/itssahil/PROJECTS/Mol_Feturizer/New_Systems/rnas/3TZR

>  <Rbt.Executable>
rbdock ($Id: //depot/dev/client3/rdock/2013.1/src/exe/rbdock.cxx#4 $)

>  <Rbt.Library>
libRbt.so (2013.1, Build901 2013/11/27)

>  <Rbt.Parameter_File>
/export/apps/rDock/src/rDock_2013.1_src/data/scripts/dock_solv.prm

>  <Rbt.Receptor>
prm/pocket_docking_7.prm

>  <SCORE>
-33.4136

>  <SCORE.INTER>
-26.2024

>  <SCORE.INTER.CONST>
1

>  <SCORE.INTER.POLAR>
0

>  <SCORE.INTER.ROT>
6

>  <SCORE.INTER.SOLV>
20.7666

>  <SCORE.INTER.VDW>
-31.9905

>  <SCORE.INTER.norm>
-1.09177

>  <SCORE.INTRA>
-7.26125

>  <SCORE.INTRA.DIHEDRAL>
6.38506

>  <SCORE.INTRA.DIHEDRAL.0>
4.94008

>  <SCORE.INTRA.POLAR>
0

>  <SCORE.INTRA.POLAR.0>
0

>  <SCORE.INTRA.REPUL>
0

>  <SCORE.INTRA.REPUL.0>
0

>  <SCORE.INTRA.SOLV>
-0.0244911

>  <SCORE.INTRA.SOLV.lig_0>
-31.4704

>  <SCORE.INTRA.VDW>
-10.4415

>  <SCORE.INTRA.VDW.0>
10.2807

>  <SCORE.INTRA.norm>
-0.302552

>  <SCORE.RESTR>
0.0500266

>  <SCORE.RESTR.CAVITY>
0.0500266

>  <SCORE.RESTR.norm>
0.00208444

>  <SCORE.SYSTEM>
0

>  <SCORE.SYSTEM.CONST>
0

>  <SCORE.SYSTEM.DIHEDRAL>
0

>  <SCORE.SYSTEM.SOLV>
0

>  <SCORE.SYSTEM.norm>
0

>  <SCORE.heavy>
24

>  <SCORE.norm>
-1.39223

>  <RMSD>
1.101

$$$$
ligand
 OpenBabel11021811493D
libRbt.so/2013.1/901 2013/11/27
 24 26  0  0  0  0  0  0  0  0999 V2000
    6.0809  -10.1916  -11.0889 N   0  0  0  0  0  0  0  0  0  0  0  0
    7.0279  -11.0904  -10.4492 C   0  0  0  0  0  0  0  0  0  0  0  0
   13.6770   -7.0183  -13.0187 O   0  0  0  0  0  0  0  0  0  0  0  0
   12.4949   -6.3862  -12.6567 C   0  0  0  0  0  0  0  0  0  0  0  0
    8.7610   -4.6015  -11.5928 N   0  0  0  0  0  0  0  0  0  0  0  0
   12.4195   -4.8895  -12.5117 C   0  0  0  0  0  0  0  0  0  0  0  0
    8.7839   -6.8406  -11.7700 N   0  0  0  0  0  0  0  0  0  0  0  0
   11.2059   -4.2111  -12.1668 C   0  0  0  0  0  0  0  0  0  0  0  0
    6.6069   -5.7717  -11.1418 N   0  0  0  0  0  0  0  0  0  0  0  0
   10.0463   -5.0358  -11.9463 C   0  0  0  0  0  0  0  0  0  0  0  0
   13.3531  -11.5774  -12.7202 N   0  0  0  0  0  0  0  0  0  0  0  0
   10.1082   -6.4679  -12.0665 C   0  0  0  0  0  0  0  0  0  0  0  0
   11.3885   -7.1297  -12.4385 C   0  0  0  0  0  0  0  0  0  0  0  0
    7.9963   -5.7275  -11.4957 C   0  0  0  0  0  0  0  0  0  0  0  0
   11.4317   -8.6407  -12.5698 C   0  0  0  0  0  0  0  0  0  0  0  0
   12.8268   -9.2377  -12.7208 C   0  0  1  0  0  0  0  0  0  0  0  0
   13.9158   -8.2462  -12.4260 C   0  0  0  0  0  0  0  0  0  0  0  0
   12.9583  -10.4804  -11.8534 C   0  0  0  0  0  0  0  0  0  0  0  0
    8.2765   -8.2249  -11.8300 C   0  0  0  0  0  0  0  0  0  0  0  0
   14.7760  -11.8256  -12.5318 C   0  0  0  0  0  0  0  0  0  0  0  0
   12.5918  -12.7492  -12.3164 C   0  0  0  0  0  0  0  0  0  0  0  0
    6.9584   -8.4124  -12.6008 C   0  0  0  0  0  0  0  0  0  0  0  0
    6.5179   -9.8814  -12.4576 C   0  0  0  0  0  0  0  0  0  0  0  0
    4.7719  -10.8349  -11.0844 C   0  0  0  0  0  0  0  0  0  0  0  0
  1 23  1  0  0  0  0
  1 24  1  0  0  0  0
  1  2  1  0  0  0  0
  3  4  1  0  0  0  0
  3 17  1  0  0  0  0
  4  6  2  0  0  0  0
  4 13  1  0  0  0  0
  5 10  1  0  0  0  0
  5 14  2  0  0  0  0
  6  8  1  0  0  0  0
  7 12  1  0  0  0  0
  7 14  1  0  0  0  0
  7 19  1  0  0  0  0
  8 10  2  0  0  0  0
  9 14  1  0  0  0  0
 10 12  1  0  0  0  0
 11 18  1  0  0  0  0
 11 20  1  0  0  0  0
 11 21  1  0  0  0  0
 12 13  2  0  0  0  0
 13 15  1  0  0  0  0
 15 16  1  0  0  0  0
 16 17  1  0  0  0  0
 16 18  1  1  0  0  0
 19 22  1  0  0  0  0
 22 23  1  0  0  0  0
M  END
>  <CHROM.1>
-111.21654981,-131.15697245,102.91745882,123.94866178,-175.13007284,69.84350899
10.18957170,-8.28319168,-12.05346916,2.97977605,0.16417247,-0.02509138

>  <Name>
ligand

>  <RI>
0

>  <Rbt.Current_Directory>
/home/itssahil/PROJECTS/Mol_Feturizer/New_Systems/rnas/3TZR

>  <Rbt.Executable>
rbdock ($Id: //depot/dev/client3/rdock/2013.1/src/exe/rbdock.cxx#4 $)

>  <Rbt.Library>
libRbt.so (2013.1, Build901 2013/11/27)

>  <Rbt.Parameter_File>
/export/apps/rDock/src/rDock_2013.1_src/data/scripts/dock_solv.prm

>  <Rbt.Receptor>
prm/pocket_docking_5.prm

>  <SCORE>
-32.2091

>  <SCORE.INTER>
-24.609

>  <SCORE.INTER.CONST>
1

>  <SCORE.INTER.POLAR>
0

>  <SCORE.INTER.ROT>
6

>  <SCORE.INTER.SOLV>
20.8316

>  <SCORE.INTER.VDW>
-30.9499

>  <SCORE.INTER.norm>
-1.02538

>  <SCORE.INTRA>
-7.60005

>  <SCORE.INTRA.DIHEDRAL>
6.13705

>  <SCORE.INTRA.DIHEDRAL.0>
4.94008

>  <SCORE.INTRA.POLAR>
0

>  <SCORE.INTRA.POLAR.0>
0

>  <SCORE.INTRA.REPUL>
0

>  <SCORE.INTRA.REPUL.0>
0

>  <SCORE.INTRA.SOLV>
1.2249

>  <SCORE.INTRA.SOLV.lig_0>
-31.4704

>  <SCORE.INTRA.VDW>
-11.281

>  <SCORE.INTRA.VDW.0>
10.2807

>  <SCORE.INTRA.norm>
-0.316669

>  <SCORE.RESTR>
0

>  <SCORE.RESTR.CAVITY>
0

>  <SCORE.RESTR.norm>
0

>  <SCORE.SYSTEM>
0

>  <SCORE.SYSTEM.CONST>
0

>  <SCORE.SYSTEM.DIHEDRAL>
0

>  <SCORE.SYSTEM.SOLV>
0

>  <SCORE.SYSTEM.norm>
0

>  <SCORE.heavy>
24

>  <SCORE.norm>
-1.34204

>  <RMSD>
1.102

$$$$
ligand
 OpenBabel11021811493D
libRbt.so/2013.1/901 2013/11/27
 24 26  0  0  0  0  0  0  0  0999 V2000
    8.1102  -10.6113  -10.1714 N   0  0  0  0  0  0  0  0  0  0  0  0
    8.0870  -11.3383   -8.9123 C   0  0  0  0  0  0  0  0  0  0  0  0
   13.6707   -6.8445  -12.9269 O   0  0  0  0  0  0  0  0  0  0  0  0
   12.4839   -6.1993  -12.6060 C   0  0  0  0  0  0  0  0  0  0  0  0
    8.7350   -4.3693  -11.6809 N   0  0  0  0  0  0  0  0  0  0  0  0
   12.4340   -4.7090  -12.3976 C   0  0  0  0  0  0  0  0  0  0  0  0
    8.7175   -6.5983  -11.9582 N   0  0  0  0  0  0  0  0  0  0  0  0
   11.2178   -4.0160  -12.0934 C   0  0  0  0  0  0  0  0  0  0  0  0
    6.5319   -5.5034  -11.4097 N   0  0  0  0  0  0  0  0  0  0  0  0
   10.0287   -4.8200  -11.9784 C   0  0  0  0  0  0  0  0  0  0  0  0
   13.2629  -11.3954  -12.8464 N   0  0  0  0  0  0  0  0  0  0  0  0
   10.0651   -6.2465  -12.1598 C   0  0  0  0  0  0  0  0  0  0  0  0
   11.3499   -6.9235  -12.4865 C   0  0  0  0  0  0  0  0  0  0  0  0
    7.9405   -5.4788  -11.6798 C   0  0  0  0  0  0  0  0  0  0  0  0
   11.3666   -8.4278  -12.6838 C   0  0  0  0  0  0  0  0  0  0  0  0
   12.7542   -9.0527  -12.7803 C   0  0  1  0  0  0  0  0  0  0  0  0
   13.8461   -8.1030  -12.3779 C   0  0  0  0  0  0  0  0  0  0  0  0
   12.8059  -10.3354  -11.9642 C   0  0  0  0  0  0  0  0  0  0  0  0
    8.1833   -7.9653  -12.1105 C   0  0  0  0  0  0  0  0  0  0  0  0
   14.6750  -11.6378  -12.5840 C   0  0  0  0  0  0  0  0  0  0  0  0
   12.4923  -12.5882  -12.5318 C   0  0  0  0  0  0  0  0  0  0  0  0
    7.2283   -8.4291  -10.9971 C   0  0  0  0  0  0  0  0  0  0  0  0
    8.0546   -9.1634   -9.9245 C   0  0  0  0  0  0  0  0  0  0  0  0
    9.3276  -10.9801  -10.8850 C   0  0  0  0  0  0  0  0  0  0  0  0
  1 23  1  0  0  0  0
  1 24  1  0  0  0  0
  1  2  1  0  0  0  0
  3  4  1  0  0  0  0
  3 17  1  0  0  0  0
  4  6  2  0  0  0  0
  4 13  1  0  0  0  0
  5 10  1  0  0  0  0
  5 14  2  0  0  0  0
  6  8  1  0  0  0  0
  7 12  1  0  0  0  0
  7 14  1  0  0  0  0
  7 19  1  0  0  0  0
  8 10  2  0  0  0  0
  9 14  1  0  0  0  0
 10 12  1  0  0  0  0
 11 18  1  0  0  0  0
 11 20  1  0  0  0  0
 11 21  1  0  0  0  0
 12 13  2  0  0  0  0
 13 15  1  0  0  0  0
 15 16  1  0  0  0  0
 16 17  1  0  0  0  0
 16 18  1  1  0  0  0
 19 22  1  0  0  0  0
 22 23  1  0  0  0  0
M  END
>  <CHROM.1>
-143.93502397,135.43371238,101.14054900,125.53129348,-92.70213984,-92.25457404
10.56676781,-8.13176005,-11.82008964,0.78932997,-0.34148088,2.96927925

>  <Name>
ligand

>  <RI>
0

>  <Rbt.Current_Directory>
/home/itssahil/PROJECTS/Mol_Feturizer/New_Systems/rnas/3TZR

>  <Rbt.Executable>
rbdock ($Id: //depot/dev/client3/rdock/2013.1/src/exe/rbdock.cxx#4 $)

>  <Rbt.Library>
libRbt.so (2013.1, Build901 2013/11/27)

>  <Rbt.Parameter_File>
/export/apps/rDock/src/rDock_2013.1_src/data/scripts/dock_solv.prm

>  <Rbt.Receptor>
prm/blind_docking_40.prm

>  <SCORE>
-10.2667

>  <SCORE.INTER>
-4.30999

>  <SCORE.INTER.CONST>
1

>  <SCORE.INTER.POLAR>
0

>  <SCORE.INTER.ROT>
6

>  <SCORE.INTER.SOLV>
20.7345

>  <SCORE.INTER.VDW>
-17.3848

>  <SCORE.INTER.norm>
-0.179583

>  <SCORE.INTRA>
-5.95715

>  <SCORE.INTRA.DIHEDRAL>
10.9135

>  <SCORE.INTRA.DIHEDRAL.0>
4.94008

>  <SCORE.INTRA.POLAR>
0

>  <SCORE.INTRA.POLAR.0>
0

>  <SCORE.INTRA.REPUL>
0

>  <SCORE.INTRA.REPUL.0>
0

>  <SCORE.INTRA.SOLV>
1.31216

>  <SCORE.INTRA.SOLV.lig_0>
-31.4704

>  <SCORE.INTRA.VDW>
-12.07

>  <SCORE.INTRA.VDW.0>
10.2807

>  <SCORE.INTRA.norm>
-0.248214

>  <SCORE.RESTR>
0.000413255

>  <SCORE.RESTR.CAVITY>
0.000413255

>  <SCORE.RESTR.norm>
1.7219e-05

>  <SCORE.SYSTEM>
0

>  <SCORE.SYSTEM.CONST>
0

>  <SCORE.SYSTEM.DIHEDRAL>
0

>  <SCORE.SYSTEM.SOLV>
0

>  <SCORE.SYSTEM.norm>
0

>  <SCORE.heavy>
24

>  <SCORE.norm>
-0.42778

>  <RMSD>
1.104

$$$$
ligand
 OpenBabel11021811493D
libRbt.so/2013.1/901 2013/11/27
 24 26  0  0  0  0  0  0  0  0999 V2000
    6.5795  -10.1080  -11.0242 N   0  0  0  0  0  0  0  0  0  0  0  0
    7.7733  -10.5851  -10.3449 C   0  0  0  0  0  0  0  0  0  0  0  0
   13.6064   -7.0869  -13.1632 O   0  0  0  0  0  0  0  0  0  0  0  0
   12.4848   -6.3159  -12.8890 C   0  0  0  0  0  0  0  0  0  0  0  0
    8.9255   -4.1040  -12.0533 N   0  0  0  0  0  0  0  0  0  0  0  0
   12.4971   -4.8216  -13.0733 C   0  0  0  0  0  0  0  0  0  0  0  0
    8.8199   -6.3249  -11.7343 N   0  0  0  0  0  0  0  0  0  0  0  0
   11.3453   -4.0072  -12.8242 C   0  0  0  0  0  0  0  0  0  0  0  0
    6.7467   -5.0060  -11.2456 N   0  0  0  0  0  0  0  0  0  0  0  0
   10.1609   -4.6873  -12.3682 C   0  0  0  0  0  0  0  0  0  0  0  0
   12.0948  -11.3603  -11.6700 N   0  0  0  0  0  0  0  0  0  0  0  0
   10.1400   -6.1123  -12.1732 C   0  0  0  0  0  0  0  0  0  0  0  0
   11.3574   -6.9209  -12.4558 C   0  0  0  0  0  0  0  0  0  0  0  0
    8.1109   -5.1301  -11.6715 C   0  0  0  0  0  0  0  0  0  0  0  0
   11.3131   -8.4239  -12.2534 C   0  0  0  0  0  0  0  0  0  0  0  0
   12.6624   -9.1289  -12.3408 C   0  0  1  0  0  0  0  0  0  0  0  0
   13.8185   -8.1701  -12.3280 C   0  0  0  0  0  0  0  0  0  0  0  0
   12.7845  -10.1601  -11.2291 C   0  0  0  0  0  0  0  0  0  0  0  0
    8.2381   -7.6533  -11.4619 C   0  0  0  0  0  0  0  0  0  0  0  0
   12.9986  -12.1276  -12.5163 C   0  0  0  0  0  0  0  0  0  0  0  0
   11.7583  -12.1316  -10.4837 C   0  0  0  0  0  0  0  0  0  0  0  0
    7.0426   -8.0450  -12.3474 C   0  0  0  0  0  0  0  0  0  0  0  0
    6.9253   -9.5807  -12.3519 C   0  0  0  0  0  0  0  0  0  0  0  0
    5.6405  -11.2196  -11.1244 C   0  0  0  0  0  0  0  0  0  0  0  0
  1 23  1  0  0  0  0
  1 24  1  0  0  0  0
  1  2  1  0  0  0  0
  3  4  1  0  0  0  0
  3 17  1  0  0  0  0
  4  6  2  0  0  0  0
  4 13  1  0  0  0  0
  5 10  1  0  0  0  0
  5 14  2  0  0  0  0
  6  8  1  0  0  0  0
  7 12  1  0  0  0  0
  7 14  1  0  0  0  0
  7 19  1  0  0  0  0
  8 10  2  0  0  0  0
  9 14  1  0  0  0  0
 10 12  1  0  0  0  0
 11 18  1  0  0  0  0
 11 20  1  0  0  0  0
 11 21  1  0  0  0  0
 12 13  2  0  0  0  0
 13 15  1  0  0  0  0
 15 16  1  0  0  0  0
 16 17  1  0  0  0  0
 16 18  1  1  0  0  0
 19 22  1  0  0  0  0
 22 23  1  0  0  0  0
M  END
>  <CHROM.1>
-98.86113119,-117.62471265,82.83065247,82.07724978,157.50076570,65.64922105
10.13461870,-8.02589515,-11.93658166,2.18453931,0.15843024,-0.15683048

>  <Name>
ligand

>  <RI>
0

>  <Rbt.Current_Directory>
/home/itssahil/PROJECTS/Mol_Feturizer/New_Systems/rnas/3TZR

>  <Rbt.Executable>
rbdock ($Id: //depot/dev/client3/rdock/2013.1/src/exe/rbdock.cxx#4 $)

>  <Rbt.Library>
libRbt.so (2013.1, Build901 2013/11/27)

>  <Rbt.Parameter_File>
/export/apps/rDock/src/rDock_2013.1_src/data/scripts/dock_solv.prm

>  <Rbt.Receptor>
prm/pocket_docking_4.prm

>  <SCORE>
-32.5177

>  <SCORE.INTER>
-23.3743

>  <SCORE.INTER.CONST>
1

>  <SCORE.INTER.POLAR>
0

>  <SCORE.INTER.ROT>
6

>  <SCORE.INTER.SOLV>
22.5836

>  <SCORE.INTER.VDW>
-30.7108

>  <SCORE.INTER.norm>
-0.973931

>  <SCORE.INTRA>
-9.14976

>  <SCORE.INTRA.DIHEDRAL>
2.11296

>  <SCORE.INTRA.DIHEDRAL.0>
4.94008

>  <SCORE.INTRA.POLAR>
0

>  <SCORE.INTRA.POLAR.0>
0

>  <SCORE.INTRA.REPUL>
0

>  <SCORE.INTRA.REPUL.0>
0

>  <SCORE.INTRA.SOLV>
0.642883

>  <SCORE.INTRA.SOLV.lig_0>
-31.4704

>  <SCORE.INTRA.VDW>
-10.5277

>  <SCORE.INTRA.VDW.0>
10.2807

>  <SCORE.INTRA.norm>
-0.38124

>  <SCORE.RESTR>
0.00639875

>  <SCORE.RESTR.CAVITY>
0.00639875

>  <SCORE.RESTR.norm>
0.000266614

>  <SCORE.SYSTEM>
0

>  <SCORE.SYSTEM.CONST>
0

>  <SCORE.SYSTEM.DIHEDRAL>
0

>  <SCORE.SYSTEM.SOLV>
0

>  <SCORE.SYSTEM.norm>
0

>  <SCORE.heavy>
24

>  <SCORE.norm>
-1.3549

>  <RMSD>
1.104

$$$$
ligand
 OpenBabel11021811493D
libRbt.so/2013.1/901 2013/11/27
 24 26  0  0  0  0  0  0  0  0999 V2000
    7.3983  -10.8387  -11.0417 N   0  0  0  0  0  0  0  0  0  0  0  0
    6.2113  -10.6139  -11.8508 C   0  0  0  0  0  0  0  0  0  0  0  0
   13.2339   -6.1068  -13.0434 O   0  0  0  0  0  0  0  0  0  0  0  0
   11.9451   -5.6404  -12.8219 C   0  0  0  0  0  0  0  0  0  0  0  0
    7.9131   -4.3849  -12.1690 N   0  0  0  0  0  0  0  0  0  0  0  0
   11.6180   -4.1731  -12.9045 C   0  0  0  0  0  0  0  0  0  0  0  0
    8.3115   -6.5898  -12.0093 N   0  0  0  0  0  0  0  0  0  0  0  0
   10.2915   -3.6693  -12.7079 C   0  0  0  0  0  0  0  0  0  0  0  0
    5.9556   -5.8291  -11.6251 N   0  0  0  0  0  0  0  0  0  0  0  0
    9.2708   -4.6398  -12.4080 C   0  0  0  0  0  0  0  0  0  0  0  0
   12.6904  -10.7274  -11.9897 N   0  0  0  0  0  0  0  0  0  0  0  0
    9.5726   -6.0428  -12.3109 C   0  0  0  0  0  0  0  0  0  0  0  0
   10.9637   -6.5230  -12.5345 C   0  0  0  0  0  0  0  0  0  0  0  0
    7.3379   -5.5995  -11.9322 C   0  0  0  0  0  0  0  0  0  0  0  0
   11.2606   -8.0077  -12.4373 C   0  0  0  0  0  0  0  0  0  0  0  0
   12.7409   -8.3739  -12.4480 C   0  0  1  0  0  0  0  0  0  0  0  0
   13.6339   -7.1801  -12.2661 C   0  0  0  0  0  0  0  0  0  0  0  0
   13.0212   -9.4411  -11.4008 C   0  0  0  0  0  0  0  0  0  0  0  0
    8.0412   -8.0346  -11.8800 C   0  0  0  0  0  0  0  0  0  0  0  0
   13.9082  -11.3131  -12.5334 C   0  0  0  0  0  0  0  0  0  0  0  0
   12.1695  -11.5733  -10.9274 C   0  0  0  0  0  0  0  0  0  0  0  0
    8.6195   -8.7048  -10.6218 C   0  0  0  0  0  0  0  0  0  0  0  0
    7.5913   -9.7263  -10.1006 C   0  0  0  0  0  0  0  0  0  0  0  0
    7.2331  -12.1051  -10.3372 C   0  0  0  0  0  0  0  0  0  0  0  0
  1 23  1  0  0  0  0
  1 24  1  0  0  0  0
  1  2  1  0  0  0  0
  3  4  1  0  0  0  0
  3 17  1  0  0  0  0
  4  6  2  0  0  0  0
  4 13  1  0  0  0  0
  5 10  1  0  0  0  0
  5 14  2  0  0  0  0
  6  8  1  0  0  0  0
  7 12  1  0  0  0  0
  7 14  1  0  0  0  0
  7 19  1  0  0  0  0
  8 10  2  0  0  0  0
  9 14  1  0  0  0  0
 10 12  1  0  0  0  0
 11 18  1  0  0  0  0
 11 20  1  0  0  0  0
 11 21  1  0  0  0  0
 12 13  2  0  0  0  0
 13 15  1  0  0  0  0
 15 16  1  0  0  0  0
 16 17  1  0  0  0  0
 16 18  1  1  0  0  0
 19 22  1  0  0  0  0
 22 23  1  0  0  0  0
M  END
>  <CHROM.1>
-98.25294447,71.70811915,95.33306934,83.05497513,140.99608255,65.82496641
10.04387369,-7.88684085,-11.90269319,1.51349149,-0.16379502,2.93326857

>  <Name>
ligand

>  <RI>
0

>  <Rbt.Current_Directory>
/home/itssahil/PROJECTS/Mol_Feturizer/New_Systems/rnas/3TZR

>  <Rbt.Executable>
rbdock ($Id: //depot/dev/client3/rdock/2013.1/src/exe/rbdock.cxx#4 $)

>  <Rbt.Library>
libRbt.so (2013.1, Build901 2013/11/27)

>  <Rbt.Parameter_File>
/export/apps/rDock/src/rDock_2013.1_src/data/scripts/dock_solv.prm

>  <Rbt.Receptor>
prm/blind_docking_100.prm

>  <SCORE>
-32.5142

>  <SCORE.INTER>
-24.0969

>  <SCORE.INTER.CONST>
1

>  <SCORE.INTER.POLAR>
0

>  <SCORE.INTER.ROT>
6

>  <SCORE.INTER.SOLV>
20.2292

>  <SCORE.INTER.VDW>
-30.4076

>  <SCORE.INTER.norm>
-1.00404

>  <SCORE.INTRA>
-8.41737

>  <SCORE.INTRA.DIHEDRAL>
5.35052

>  <SCORE.INTRA.DIHEDRAL.0>
4.94008

>  <SCORE.INTRA.POLAR>
0

>  <SCORE.INTRA.POLAR.0>
0

>  <SCORE.INTRA.REPUL>
0

>  <SCORE.INTRA.REPUL.0>
0

>  <SCORE.INTRA.SOLV>
-0.0692594

>  <SCORE.INTRA.SOLV.lig_0>
-31.4704

>  <SCORE.INTRA.VDW>
-11.058

>  <SCORE.INTRA.VDW.0>
10.2807

>  <SCORE.INTRA.norm>
-0.350724

>  <SCORE.RESTR>
0

>  <SCORE.RESTR.CAVITY>
0

>  <SCORE.RESTR.norm>
0

>  <SCORE.SYSTEM>
0

>  <SCORE.SYSTEM.CONST>
0

>  <SCORE.SYSTEM.DIHEDRAL>
0

>  <SCORE.SYSTEM.SOLV>
0

>  <SCORE.SYSTEM.norm>
0

>  <SCORE.heavy>
24

>  <SCORE.norm>
-1.35476

>  <RMSD>
1.105

$$$$
ligand
 OpenBabel11021811493D
libRbt.so/2013.1/901 2013/11/27
 24 26  0  0  0  0  0  0  0  0999 V2000
    6.6812  -10.5987  -10.6639 N   0  0  0  0  0  0  0  0  0  0  0  0
    6.4825  -11.8746   -9.9955 C   0  0  0  0  0  0  0  0  0  0  0  0
   13.2041   -6.0691  -13.0047 O   0  0  0  0  0  0  0  0  0  0  0  0
   11.9108   -5.6181  -12.7768 C   0  0  0  0  0  0  0  0  0  0  0  0
    7.8672   -4.4101  -12.1073 N   0  0  0  0  0  0  0  0  0  0  0  0
   11.5706   -4.1526  -12.8354 C   0  0  0  0  0  0  0  0  0  0  0  0
    8.2853   -6.6136  -11.9839 N   0  0  0  0  0  0  0  0  0  0  0  0
   10.2394   -3.6642  -12.6318 C   0  0  0  0  0  0  0  0  0  0  0  0
    5.9223   -5.8807  -11.5895 N   0  0  0  0  0  0  0  0  0  0  0  0
    9.2273   -4.6487  -12.3491 C   0  0  0  0  0  0  0  0  0  0  0  0
   12.3845  -10.6543  -11.8797 N   0  0  0  0  0  0  0  0  0  0  0  0
    9.5417   -6.0504  -12.2751 C   0  0  0  0  0  0  0  0  0  0  0  0
   10.9372   -6.5142  -12.5051 C   0  0  0  0  0  0  0  0  0  0  0  0
    7.3027   -5.6336  -11.8913 C   0  0  0  0  0  0  0  0  0  0  0  0
   11.2475   -7.9976  -12.4324 C   0  0  0  0  0  0  0  0  0  0  0  0
   12.7310   -8.3502  -12.4476 C   0  0  1  0  0  0  0  0  0  0  0  0
   13.6131   -7.1515  -12.2450 C   0  0  0  0  0  0  0  0  0  0  0  0
   13.0200   -9.4321  -11.4181 C   0  0  0  0  0  0  0  0  0  0  0  0
    8.0280   -8.0628  -11.8789 C   0  0  0  0  0  0  0  0  0  0  0  0
   13.2791  -11.3121  -12.8225 C   0  0  0  0  0  0  0  0  0  0  0  0
   12.1808  -11.5063  -10.7187 C   0  0  0  0  0  0  0  0  0  0  0  0
    8.2600   -8.6758  -10.4870 C   0  0  0  0  0  0  0  0  0  0  0  0
    8.0953  -10.2032  -10.5965 C   0  0  0  0  0  0  0  0  0  0  0  0
    6.2358  -10.7370  -12.0459 C   0  0  0  0  0  0  0  0  0  0  0  0
  1 23  1  0  0  0  0
  1 24  1  0  0  0  0
  1  2  1  0  0  0  0
  3  4  1  0  0  0  0
  3 17  1  0  0  0  0
  4  6  2  0  0  0  0
  4 13  1  0  0  0  0
  5 10  1  0  0  0  0
  5 14  2  0  0  0  0
  6  8  1  0  0  0  0
  7 12  1  0  0  0  0
  7 14  1  0  0  0  0
  7 19  1  0  0  0  0
  8 10  2  0  0  0  0
  9 14  1  0  0  0  0
 10 12  1  0  0  0  0
 11 18  1  0  0  0  0
 11 20  1  0  0  0  0
 11 21  1  0  0  0  0
 12 13  2  0  0  0  0
 13 15  1  0  0  0  0
 15 16  1  0  0  0  0
 16 17  1  0  0  0  0
 16 18  1  1  0  0  0
 19 22  1  0  0  0  0
 22 23  1  0  0  0  0
M  END
>  <CHROM.1>
-146.16638536,87.70567304,83.95035648,68.34965394,-173.93353466,-77.09344315
9.92625335,-7.88504160,-11.87364366,2.41601881,-0.16639041,2.93915400

>  <Name>
ligand

>  <RI>
0

>  <Rbt.Current_Directory>
/home/itssahil/PROJECTS/Mol_Feturizer/New_Systems/rnas/3TZR

>  <Rbt.Executable>
rbdock ($Id: //depot/dev/client3/rdock/2013.1/src/exe/rbdock.cxx#4 $)

>  <Rbt.Library>
libRbt.so (2013.1, Build901 2013/11/27)

>  <Rbt.Parameter_File>
/export/apps/rDock/src/rDock_2013.1_src/data/scripts/dock_solv.prm

>  <Rbt.Receptor>
prm/pocket_docking_3.prm

>  <SCORE>
-35.8943

>  <SCORE.INTER>
-25.0002

>  <SCORE.INTER.CONST>
1

>  <SCORE.INTER.POLAR>
0

>  <SCORE.INTER.ROT>
6

>  <SCORE.INTER.SOLV>
20.3318

>  <SCORE.INTER.VDW>
-31.0441

>  <SCORE.INTER.norm>
-1.04168

>  <SCORE.INTRA>
-10.894

>  <SCORE.INTRA.DIHEDRAL>
0.0929343

>  <SCORE.INTRA.DIHEDRAL.0>
4.94008

>  <SCORE.INTRA.POLAR>
0

>  <SCORE.INTRA.POLAR.0>
0

>  <SCORE.INTRA.REPUL>
0

>  <SCORE.INTRA.REPUL.0>
0

>  <SCORE.INTRA.SOLV>
0.0117702

>  <SCORE.INTRA.SOLV.lig_0>
-31.4704

>  <SCORE.INTRA.VDW>
-10.9464

>  <SCORE.INTRA.VDW.0>
10.2807

>  <SCORE.INTRA.norm>
-0.453917

>  <SCORE.RESTR>
0

>  <SCORE.RESTR.CAVITY>
0

>  <SCORE.RESTR.norm>
0

>  <SCORE.SYSTEM>
0

>  <SCORE.SYSTEM.CONST>
0

>  <SCORE.SYSTEM.DIHEDRAL>
0

>  <SCORE.SYSTEM.SOLV>
0

>  <SCORE.SYSTEM.norm>
0

>  <SCORE.heavy>
24

>  <SCORE.norm>
-1.49559

>  <RMSD>
1.107

$$$$
ligand
 OpenBabel11021811493D
libRbt.so/2013.1/901 2013/11/27
 24 26  0  0  0  0  0  0  0  0999 V2000
    8.5840  -11.1139   -9.3271 N   0  0  0  0  0  0  0  0  0  0  0  0
    9.4982  -12.1962   -9.6546 C   0  0  0  0  0  0  0  0  0  0  0  0
   13.2384   -6.0257  -13.1823 O   0  0  0  0  0  0  0  0  0  0  0  0
   11.9806   -5.6033  -12.7732 C   0  0  0  0  0  0  0  0  0  0  0  0
    8.0420   -4.4799  -11.5550 N   0  0  0  0  0  0  0  0  0  0  0  0
   11.6443   -4.1401  -12.6593 C   0  0  0  0  0  0  0  0  0  0  0  0
    8.4587   -6.6835  -11.6809 N   0  0  0  0  0  0  0  0  0  0  0  0
   10.3464   -3.6784  -12.2666 C   0  0  0  0  0  0  0  0  0  0  0  0
    6.1575   -6.0005  -10.9635 N   0  0  0  0  0  0  0  0  0  0  0  0
    9.3659   -4.6892  -11.9658 C   0  0  0  0  0  0  0  0  0  0  0  0
   12.4461  -10.6764  -12.3368 N   0  0  0  0  0  0  0  0  0  0  0  0
    9.6785   -6.0903  -12.0557 C   0  0  0  0  0  0  0  0  0  0  0  0
   11.0377   -6.5248  -12.4794 C   0  0  0  0  0  0  0  0  0  0  0  0
    7.4978   -5.7206  -11.3913 C   0  0  0  0  0  0  0  0  0  0  0  0
   11.3457   -8.0073  -12.5776 C   0  0  0  0  0  0  0  0  0  0  0  0
   12.8165   -8.3503  -12.7881 C   0  0  1  0  0  0  0  0  0  0  0  0
   13.7223   -7.1714  -12.5747 C   0  0  0  0  0  0  0  0  0  0  0  0
   13.2108   -9.5208  -11.9002 C   0  0  0  0  0  0  0  0  0  0  0  0
    8.2062   -8.1374  -11.6816 C   0  0  0  0  0  0  0  0  0  0  0  0
   13.1548  -11.3084  -13.4414 C   0  0  0  0  0  0  0  0  0  0  0  0
   12.3653  -11.5967  -11.2135 C   0  0  0  0  0  0  0  0  0  0  0  0
    8.3669   -8.8364  -10.3206 C   0  0  0  0  0  0  0  0  0  0  0  0
    8.2378  -10.3557  -10.5378 C   0  0  0  0  0  0  0  0  0  0  0  0
    7.3974  -11.6946   -8.7090 C   0  0  0  0  0  0  0  0  0  0  0  0
  1 23  1  0  0  0  0
  1 24  1  0  0  0  0
  1  2  1  0  0  0  0
  3  4  1  0  0  0  0
  3 17  1  0  0  0  0
  4  6  2  0  0  0  0
  4 13  1  0  0  0  0
  5 10  1  0  0  0  0
  5 14  2  0  0  0  0
  6  8  1  0  0  0  0
  7 12  1  0  0  0  0
  7 14  1  0  0  0  0
  7 19  1  0  0  0  0
  8 10  2  0  0  0  0
  9 14  1  0  0  0  0
 10 12  1  0  0  0  0
 11 18  1  0  0  0  0
 11 20  1  0  0  0  0
 11 21  1  0  0  0  0
 12 13  2  0  0  0  0
 13 15  1  0  0  0  0
 15 16  1  0  0  0  0
 16 17  1  0  0  0  0
 16 18  1  1  0  0  0
 19 22  1  0  0  0  0
 22 23  1  0  0  0  0
M  END
>  <CHROM.1>
-132.14756079,97.28406468,85.06805949,64.20170462,-173.19298139,171.17852300
10.30040649,-8.00744582,-11.63864748,1.59917902,-0.39197902,2.87755649

>  <Name>
ligand

>  <RI>
144

>  <Rbt.Current_Directory>
/home/itssahil/PROJECTS/Mol_Feturizer/New_Systems/rnas/3TZR

>  <Rbt.Executable>
rbdock ($Id: //depot/dev/client3/rdock/2013.1/src/exe/rbdock.cxx#4 $)

>  <Rbt.Library>
libRbt.so (2013.1, Build901 2013/11/27)

>  <Rbt.Parameter_File>
/export/apps/rDock/src/rDock_2013.1_src/data/scripts/dock_solv.prm

>  <Rbt.Receptor>
prm/pocket_docking_8.prm

>  <SCORE>
-37.4921

>  <SCORE.INTER>
-26.3672

>  <SCORE.INTER.CONST>
1

>  <SCORE.INTER.POLAR>
-0.72111

>  <SCORE.INTER.ROT>
6

>  <SCORE.INTER.SOLV>
19.7837

>  <SCORE.INTER.VDW>
-29.369

>  <SCORE.INTER.norm>
-1.09863

>  <SCORE.INTRA>
-11.1249

>  <SCORE.INTRA.DIHEDRAL>
0.00259657

>  <SCORE.INTRA.DIHEDRAL.0>
4.94008

>  <SCORE.INTRA.POLAR>
0

>  <SCORE.INTRA.POLAR.0>
0

>  <SCORE.INTRA.REPUL>
0

>  <SCORE.INTRA.REPUL.0>
0

>  <SCORE.INTRA.SOLV>
0.197152

>  <SCORE.INTRA.SOLV.lig_0>
-31.4704

>  <SCORE.INTRA.VDW>
-11.2248

>  <SCORE.INTRA.VDW.0>
10.2807

>  <SCORE.INTRA.norm>
-0.463538

>  <SCORE.RESTR>
0

>  <SCORE.RESTR.CAVITY>
0

>  <SCORE.RESTR.norm>
0

>  <SCORE.SYSTEM>
0

>  <SCORE.SYSTEM.CONST>
0

>  <SCORE.SYSTEM.DIHEDRAL>
0

>  <SCORE.SYSTEM.SOLV>
0

>  <SCORE.SYSTEM.norm>
0

>  <SCORE.heavy>
24

>  <SCORE.norm>
-1.56217

>  <RMSD>
1.108

$$$$
ligand
 OpenBabel11021811493D
libRbt.so/2013.1/901 2013/11/27
 24 26  0  0  0  0  0  0  0  0999 V2000
    8.5758  -11.1118   -9.3473 N   0  0  0  0  0  0  0  0  0  0  0  0
    9.5228  -12.1806   -9.6214 C   0  0  0  0  0  0  0  0  0  0  0  0
   13.2149   -6.0254  -13.1112 O   0  0  0  0  0  0  0  0  0  0  0  0
   11.9505   -5.5998  -12.7267 C   0  0  0  0  0  0  0  0  0  0  0  0
    7.9918   -4.4669  -11.5847 N   0  0  0  0  0  0  0  0  0  0  0  0
   11.6136   -4.1358  -12.6262 C   0  0  0  0  0  0  0  0  0  0  0  0
    8.4085   -6.6715  -11.6922 N   0  0  0  0  0  0  0  0  0  0  0  0
   10.3093   -3.6710  -12.2590 C   0  0  0  0  0  0  0  0  0  0  0  0
    6.0956   -5.9828  -11.0194 N   0  0  0  0  0  0  0  0  0  0  0  0
    9.3227   -4.6794  -11.9707 C   0  0  0  0  0  0  0  0  0  0  0  0
   12.9644  -10.7351  -12.5748 N   0  0  0  0  0  0  0  0  0  0  0  0
    9.6355   -6.0812  -12.0480 C   0  0  0  0  0  0  0  0  0  0  0  0
   11.0016   -6.5190  -12.4452 C   0  0  0  0  0  0  0  0  0  0  0  0
    7.4436   -5.7062  -11.4246 C   0  0  0  0  0  0  0  0  0  0  0  0
   11.3098   -8.0022  -12.5305 C   0  0  0  0  0  0  0  0  0  0  0  0
   12.7838   -8.3477  -12.7131 C   0  0  1  0  0  0  0  0  0  0  0  0
   13.6868   -7.1685  -12.4893 C   0  0  0  0  0  0  0  0  0  0  0  0
   13.1610   -9.5141  -11.8124 C   0  0  0  0  0  0  0  0  0  0  0  0
    8.1547   -8.1251  -11.6902 C   0  0  0  0  0  0  0  0  0  0  0  0
   14.2693  -11.3151  -12.8621 C   0  0  0  0  0  0  0  0  0  0  0  0
   12.1920  -11.6477  -11.7465 C   0  0  0  0  0  0  0  0  0  0  0  0
    8.3817   -8.8334  -10.3435 C   0  0  0  0  0  0  0  0  0  0  0  0
    8.2942  -10.3537  -10.5746 C   0  0  0  0  0  0  0  0  0  0  0  0
    7.3615  -11.7106   -8.8049 C   0  0  0  0  0  0  0  0  0  0  0  0
  1 23  1  0  0  0  0
  1 24  1  0  0  0  0
  1  2  1  0  0  0  0
  3  4  1  0  0  0  0
  3 17  1  0  0  0  0
  4  6  2  0  0  0  0
  4 13  1  0  0  0  0
  5 10  1  0  0  0  0
  5 14  2  0  0  0  0
  6  8  1  0  0  0  0
  7 12  1  0  0  0  0
  7 14  1  0  0  0  0
  7 19  1  0  0  0  0
  8 10  2  0  0  0  0
  9 14  1  0  0  0  0
 10 12  1  0  0  0  0
 11 18  1  0  0  0  0
 11 20  1  0  0  0  0
 11 21  1  0  0  0  0
 12 13  2  0  0  0  0
 13 15  1  0  0  0  0
 15 16  1  0  0  0  0
 16 17  1  0  0  0  0
 16 18  1  1  0  0  0
 19 22  1  0  0  0  0
 22 23  1  0  0  0  0
M  END
>  <CHROM.1>
-132.46420440,93.37186884,110.41396467,91.25104742,-171.03586315,176.77233679
10.34113127,-8.00723514,-11.63829249,1.36114131,-0.36675564,2.87611236

>  <Name>
ligand

>  <RI>
0

>  <Rbt.Current_Directory>
/home/itssahil/PROJECTS/Mol_Feturizer/New_Systems/rnas/3TZR

>  <Rbt.Executable>
rbdock ($Id: //depot/dev/client3/rdock/2013.1/src/exe/rbdock.cxx#4 $)

>  <Rbt.Library>
libRbt.so (2013.1, Build901 2013/11/27)

>  <Rbt.Parameter_File>
/export/apps/rDock/src/rDock_2013.1_src/data/scripts/dock_solv.prm

>  <Rbt.Receptor>
prm/pocket_docking_3.prm

>  <SCORE>
-36.727

>  <SCORE.INTER>
-26.3884

>  <SCORE.INTER.CONST>
1

>  <SCORE.INTER.POLAR>
-0.714787

>  <SCORE.INTER.ROT>
6

>  <SCORE.INTER.SOLV>
19.73

>  <SCORE.INTER.VDW>
-29.3863

>  <SCORE.INTER.norm>
-1.09951

>  <SCORE.INTRA>
-10.3387

>  <SCORE.INTRA.DIHEDRAL>
3.88717

>  <SCORE.INTRA.DIHEDRAL.0>
4.94008

>  <SCORE.INTRA.POLAR>
0

>  <SCORE.INTRA.POLAR.0>
0

>  <SCORE.INTRA.REPUL>
0

>  <SCORE.INTRA.REPUL.0>
0

>  <SCORE.INTRA.SOLV>
-0.0256761

>  <SCORE.INTRA.SOLV.lig_0>
-31.4704

>  <SCORE.INTRA.VDW>
-12.2694

>  <SCORE.INTRA.VDW.0>
10.2807

>  <SCORE.INTRA.norm>
-0.430778

>  <SCORE.RESTR>
0

>  <SCORE.RESTR.CAVITY>
0

>  <SCORE.RESTR.norm>
0

>  <SCORE.SYSTEM>
0

>  <SCORE.SYSTEM.CONST>
0

>  <SCORE.SYSTEM.DIHEDRAL>
0

>  <SCORE.SYSTEM.SOLV>
0

>  <SCORE.SYSTEM.norm>
0

>  <SCORE.heavy>
24

>  <SCORE.norm>
-1.53029

>  <RMSD>
1.111

$$$$
ligand
 OpenBabel11021811493D
libRbt.so/2013.1/901 2013/11/27
 24 26  0  0  0  0  0  0  0  0999 V2000
    6.9054  -10.7930  -11.2523 N   0  0  0  0  0  0  0  0  0  0  0  0
    5.6574  -10.6177  -11.9776 C   0  0  0  0  0  0  0  0  0  0  0  0
   13.2285   -6.0294  -12.8944 O   0  0  0  0  0  0  0  0  0  0  0  0
   11.9203   -5.5948  -12.7278 C   0  0  0  0  0  0  0  0  0  0  0  0
    7.8341   -4.4360  -12.2605 N   0  0  0  0  0  0  0  0  0  0  0  0
   11.5751   -4.1294  -12.7323 C   0  0  0  0  0  0  0  0  0  0  0  0
    8.2576   -6.6416  -12.2246 N   0  0  0  0  0  0  0  0  0  0  0  0
   10.2304   -3.6563  -12.5905 C   0  0  0  0  0  0  0  0  0  0  0  0
    5.8693   -5.9376  -11.9470 N   0  0  0  0  0  0  0  0  0  0  0  0
    9.2085   -4.6574  -12.4255 C   0  0  0  0  0  0  0  0  0  0  0  0
   12.5417  -10.7032  -12.1432 N   0  0  0  0  0  0  0  0  0  0  0  0
    9.5265   -6.0600  -12.4040 C   0  0  0  0  0  0  0  0  0  0  0  0
   10.9370   -6.5069  -12.5668 C   0  0  0  0  0  0  0  0  0  0  0  0
    7.2648   -5.6708  -12.1453 C   0  0  0  0  0  0  0  0  0  0  0  0
   11.2515   -7.9911  -12.5511 C   0  0  0  0  0  0  0  0  0  0  0  0
   12.7351   -8.3378  -12.4882 C   0  0  1  0  0  0  0  0  0  0  0  0
   13.5945   -7.1486  -12.1669 C   0  0  0  0  0  0  0  0  0  0  0  0
   12.9639   -9.4711  -11.4996 C   0  0  0  0  0  0  0  0  0  0  0  0
    8.0034   -8.0951  -12.2119 C   0  0  0  0  0  0  0  0  0  0  0  0
   13.6711  -11.2469  -12.8853 C   0  0  0  0  0  0  0  0  0  0  0  0
   12.1493  -11.6317  -11.0947 C   0  0  0  0  0  0  0  0  0  0  0  0
    8.3982   -8.8233  -10.9155 C   0  0  0  0  0  0  0  0  0  0  0  0
    7.1769   -9.6165  -10.4140 C   0  0  0  0  0  0  0  0  0  0  0  0
    6.7944  -12.0032  -10.4457 C   0  0  0  0  0  0  0  0  0  0  0  0
  1 23  1  0  0  0  0
  1 24  1  0  0  0  0
  1  2  1  0  0  0  0
  3  4  1  0  0  0  0
  3 17  1  0  0  0  0
  4  6  2  0  0  0  0
  4 13  1  0  0  0  0
  5 10  1  0  0  0  0
  5 14  2  0  0  0  0
  6  8  1  0  0  0  0
  7 12  1  0  0  0  0
  7 14  1  0  0  0  0
  7 19  1  0  0  0  0
  8 10  2  0  0  0  0
  9 14  1  0  0  0  0
 10 12  1  0  0  0  0
 11 18  1  0  0  0  0
 11 20  1  0  0  0  0
 11 21  1  0  0  0  0
 12 13  2  0  0  0  0
 13 15  1  0  0  0  0
 15 16  1  0  0  0  0
 16 17  1  0  0  0  0
 16 18  1  1  0  0  0
 19 22  1  0  0  0  0
 22 23  1  0  0  0  0
M  END
>  <CHROM.1>
-112.05565084,76.81218095,88.00534742,76.38367347,126.63699851,72.39040548
9.90340816,-7.88454394,-12.01818225,-2.75040550,0.12906084,-0.17287132

>  <Name>
ligand

>  <RI>
0

>  <Rbt.Current_Directory>
/home/itssahil/PROJECTS/Mol_Feturizer/New_Systems/rnas/3TZR

>  <Rbt.Executable>
rbdock ($Id: //depot/dev/client3/rdock/2013.1/src/exe/rbdock.cxx#4 $)

>  <Rbt.Library>
libRbt.so (2013.1, Build901 2013/11/27)

>  <Rbt.Parameter_File>
/export/apps/rDock/src/rDock_2013.1_src/data/scripts/dock_solv.prm

>  <Rbt.Receptor>
prm/pocket_docking_3.prm

>  <SCORE>
-33.0873

>  <SCORE.INTER>
-25.0068

>  <SCORE.INTER.CONST>
1

>  <SCORE.INTER.POLAR>
0

>  <SCORE.INTER.ROT>
6

>  <SCORE.INTER.SOLV>
20.773

>  <SCORE.INTER.VDW>
-31.1955

>  <SCORE.INTER.norm>
-1.04195

>  <SCORE.INTRA>
-8.08055

>  <SCORE.INTRA.DIHEDRAL>
6.53548

>  <SCORE.INTRA.DIHEDRAL.0>
4.94008

>  <SCORE.INTRA.POLAR>
0

>  <SCORE.INTRA.POLAR.0>
0

>  <SCORE.INTRA.REPUL>
0

>  <SCORE.INTRA.REPUL.0>
0

>  <SCORE.INTRA.SOLV>
0.43734

>  <SCORE.INTRA.SOLV.lig_0>
-31.4704

>  <SCORE.INTRA.VDW>
-11.567

>  <SCORE.INTRA.VDW.0>
10.2807

>  <SCORE.INTRA.norm>
-0.336689

>  <SCORE.RESTR>
0

>  <SCORE.RESTR.CAVITY>
0

>  <SCORE.RESTR.norm>
0

>  <SCORE.SYSTEM>
0

>  <SCORE.SYSTEM.CONST>
0

>  <SCORE.SYSTEM.DIHEDRAL>
0

>  <SCORE.SYSTEM.SOLV>
0

>  <SCORE.SYSTEM.norm>
0

>  <SCORE.heavy>
24

>  <SCORE.norm>
-1.37864

>  <RMSD>
1.114

$$$$
ligand
 OpenBabel11021811493D
libRbt.so/2013.1/901 2013/11/27
 24 26  0  0  0  0  0  0  0  0999 V2000
    7.2284  -10.7757  -10.8736 N   0  0  0  0  0  0  0  0  0  0  0  0
    5.9149  -10.6014  -11.4726 C   0  0  0  0  0  0  0  0  0  0  0  0
   13.2263   -5.9502  -13.0195 O   0  0  0  0  0  0  0  0  0  0  0  0
   11.9177   -5.5286  -12.8259 C   0  0  0  0  0  0  0  0  0  0  0  0
    7.8313   -4.4120  -12.2657 N   0  0  0  0  0  0  0  0  0  0  0  0
   11.5486   -4.0699  -12.8795 C   0  0  0  0  0  0  0  0  0  0  0  0
    8.2919   -6.6076  -12.1525 N   0  0  0  0  0  0  0  0  0  0  0  0
   10.2020   -3.6114  -12.7110 C   0  0  0  0  0  0  0  0  0  0  0  0
    5.9033   -5.9282  -11.8217 N   0  0  0  0  0  0  0  0  0  0  0  0
    9.2028   -4.6197  -12.4690 C   0  0  0  0  0  0  0  0  0  0  0  0
   12.5779  -10.5873  -12.0218 N   0  0  0  0  0  0  0  0  0  0  0  0
    9.5442   -6.0153  -12.4000 C   0  0  0  0  0  0  0  0  0  0  0  0
   10.9555   -6.4475  -12.5928 C   0  0  0  0  0  0  0  0  0  0  0  0
    7.2866   -5.6492  -12.0793 C   0  0  0  0  0  0  0  0  0  0  0  0
   11.2946   -7.9249  -12.5261 C   0  0  0  0  0  0  0  0  0  0  0  0
   12.7850   -8.2465  -12.5004 C   0  0  1  0  0  0  0  0  0  0  0  0
   13.6352   -7.0321  -12.2590 C   0  0  0  0  0  0  0  0  0  0  0  0
   13.0658   -9.3334  -11.4739 C   0  0  0  0  0  0  0  0  0  0  0  0
    8.0621   -8.0629  -12.0703 C   0  0  0  0  0  0  0  0  0  0  0  0
   13.6466  -11.1974  -12.8013 C   0  0  0  0  0  0  0  0  0  0  0  0
   12.2328  -11.4487  -10.9018 C   0  0  0  0  0  0  0  0  0  0  0  0
    8.7056   -8.7660  -10.8627 C   0  0  0  0  0  0  0  0  0  0  0  0
    7.6135   -9.5677  -10.1300 C   0  0  0  0  0  0  0  0  0  0  0  0
    7.1760  -11.9415   -9.9986 C   0  0  0  0  0  0  0  0  0  0  0  0
  1 23  1  0  0  0  0
  1 24  1  0  0  0  0
  1  2  1  0  0  0  0
  3  4  1  0  0  0  0
  3 17  1  0  0  0  0
  4  6  2  0  0  0  0
  4 13  1  0  0  0  0
  5 10  1  0  0  0  0
  5 14  2  0  0  0  0
  6  8  1  0  0  0  0
  7 12  1  0  0  0  0
  7 14  1  0  0  0  0
  7 19  1  0  0  0  0
  8 10  2  0  0  0  0
  9 14  1  0  0  0  0
 10 12  1  0  0  0  0
 11 18  1  0  0  0  0
 11 20  1  0  0  0  0
 11 21  1  0  0  0  0
 12 13  2  0  0  0  0
 13 15  1  0  0  0  0
 15 16  1  0  0  0  0
 16 17  1  0  0  0  0
 16 18  1  1  0  0  0
 19 22  1  0  0  0  0
 22 23  1  0  0  0  0
M  END
>  <CHROM.1>
-106.89160598,67.64875596,88.63415016,73.44444766,126.93872884,73.61647918
9.99765675,-7.82230731,-11.93342770,-2.49177301,0.16692973,-0.22986858

>  <Name>
ligand

>  <RI>
0

>  <Rbt.Current_Directory>
/home/itssahil/PROJECTS/Mol_Feturizer/New_Systems/rnas/3TZR

>  <Rbt.Executable>
rbdock ($Id: //depot/dev/client3/rdock/2013.1/src/exe/rbdock.cxx#4 $)

>  <Rbt.Library>
libRbt.so (2013.1, Build901 2013/11/27)

>  <Rbt.Parameter_File>
/export/apps/rDock/src/rDock_2013.1_src/data/scripts/dock_solv.prm

>  <Rbt.Receptor>
prm/pocket_docking_3.prm

>  <SCORE>
-33.6077

>  <SCORE.INTER>
-25.4729

>  <SCORE.INTER.CONST>
1

>  <SCORE.INTER.POLAR>
0

>  <SCORE.INTER.ROT>
6

>  <SCORE.INTER.SOLV>
20.7709

>  <SCORE.INTER.VDW>
-31.5056

>  <SCORE.INTER.norm>
-1.06137

>  <SCORE.INTRA>
-8.13487

>  <SCORE.INTRA.DIHEDRAL>
6.17336

>  <SCORE.INTRA.DIHEDRAL.0>
4.94008

>  <SCORE.INTRA.POLAR>
0

>  <SCORE.INTRA.POLAR.0>
0

>  <SCORE.INTRA.REPUL>
0

>  <SCORE.INTRA.REPUL.0>
0

>  <SCORE.INTRA.SOLV>
0.159662

>  <SCORE.INTRA.SOLV.lig_0>
-31.4704

>  <SCORE.INTRA.VDW>
-11.3014

>  <SCORE.INTRA.VDW.0>
10.2807

>  <SCORE.INTRA.norm>
-0.338953

>  <SCORE.RESTR>
0

>  <SCORE.RESTR.CAVITY>
0

>  <SCORE.RESTR.norm>
0

>  <SCORE.SYSTEM>
0

>  <SCORE.SYSTEM.CONST>
0

>  <SCORE.SYSTEM.DIHEDRAL>
0

>  <SCORE.SYSTEM.SOLV>
0

>  <SCORE.SYSTEM.norm>
0

>  <SCORE.heavy>
24

>  <SCORE.norm>
-1.40032

>  <RMSD>
1.115

$$$$
ligand
 OpenBabel11021811493D
libRbt.so/2013.1/901 2013/11/27
 24 26  0  0  0  0  0  0  0  0999 V2000
    7.5101  -10.5862  -10.9217 N   0  0  0  0  0  0  0  0  0  0  0  0
    6.3785  -10.6595  -11.8319 C   0  0  0  0  0  0  0  0  0  0  0  0
   13.7016   -7.1165  -12.8374 O   0  0  0  0  0  0  0  0  0  0  0  0
   12.5519   -6.3478  -12.7149 C   0  0  0  0  0  0  0  0  0  0  0  0
    8.9088   -4.1437  -12.3560 N   0  0  0  0  0  0  0  0  0  0  0  0
   12.5803   -4.8570  -12.9242 C   0  0  0  0  0  0  0  0  0  0  0  0
    8.7745   -6.3592  -12.0107 N   0  0  0  0  0  0  0  0  0  0  0  0
   11.4035   -4.0455  -12.8311 C   0  0  0  0  0  0  0  0  0  0  0  0
    6.6521   -5.0448  -11.8004 N   0  0  0  0  0  0  0  0  0  0  0  0
   10.1755   -4.7248  -12.5086 C   0  0  0  0  0  0  0  0  0  0  0  0
   11.9672  -11.3427  -11.4328 N   0  0  0  0  0  0  0  0  0  0  0  0
   10.1371   -6.1461  -12.2911 C   0  0  0  0  0  0  0  0  0  0  0  0
   11.3830   -6.9520  -12.4097 C   0  0  0  0  0  0  0  0  0  0  0  0
    8.0582   -5.1679  -12.0562 C   0  0  0  0  0  0  0  0  0  0  0  0
   11.3207   -8.4514  -12.1861 C   0  0  0  0  0  0  0  0  0  0  0  0
   12.6736   -9.1493  -12.0969 C   0  0  1  0  0  0  0  0  0  0  0  0
   13.8157   -8.1831  -11.9626 C   0  0  0  0  0  0  0  0  0  0  0  0
   12.6648  -10.1595  -10.9596 C   0  0  0  0  0  0  0  0  0  0  0  0
    8.1695   -7.6861  -11.7858 C   0  0  0  0  0  0  0  0  0  0  0  0
   12.9117  -12.1721  -12.1689 C   0  0  0  0  0  0  0  0  0  0  0  0
   11.4868  -12.0633  -10.2642 C   0  0  0  0  0  0  0  0  0  0  0  0
    8.5342   -8.3609  -10.4522 C   0  0  0  0  0  0  0  0  0  0  0  0
    7.4252   -9.3702  -10.1004 C   0  0  0  0  0  0  0  0  0  0  0  0
    7.5031  -11.7862  -10.0926 C   0  0  0  0  0  0  0  0  0  0  0  0
  1 23  1  0  0  0  0
  1 24  1  0  0  0  0
  1  2  1  0  0  0  0
  3  4  1  0  0  0  0
  3 17  1  0  0  0  0
  4  6  2  0  0  0  0
  4 13  1  0  0  0  0
  5 10  1  0  0  0  0
  5 14  2  0  0  0  0
  6  8  1  0  0  0  0
  7 12  1  0  0  0  0
  7 14  1  0  0  0  0
  7 19  1  0  0  0  0
  8 10  2  0  0  0  0
  9 14  1  0  0  0  0
 10 12  1  0  0  0  0
 11 18  1  0  0  0  0
 11 20  1  0  0  0  0
 11 21  1  0  0  0  0
 12 13  2  0  0  0  0
 13 15  1  0  0  0  0
 15 16  1  0  0  0  0
 16 17  1  0  0  0  0
 16 18  1  1  0  0  0
 19 22  1  0  0  0  0
 22 23  1  0  0  0  0
M  END
>  <CHROM.1>
-111.65854993,71.86008097,83.74207027,78.73371809,156.17295628,75.18548481
10.25692273,-8.09766931,-11.75625546,1.57181498,-0.16828792,2.91004300

>  <Name>
ligand

>  <RI>
0

>  <Rbt.Current_Directory>
/home/itssahil/PROJECTS/Mol_Feturizer/New_Systems/rnas/3TZR

>  <Rbt.Executable>
rbdock ($Id: //depot/dev/client3/rdock/2013.1/src/exe/rbdock.cxx#4 $)

>  <Rbt.Library>
libRbt.so (2013.1, Build901 2013/11/27)

>  <Rbt.Parameter_File>
/export/apps/rDock/src/rDock_2013.1_src/data/scripts/dock_solv.prm

>  <Rbt.Receptor>
prm/pocket_docking_4.prm

>  <SCORE>
-33.3709

>  <SCORE.INTER>
-23.3385

>  <SCORE.INTER.CONST>
1

>  <SCORE.INTER.POLAR>
0

>  <SCORE.INTER.ROT>
6

>  <SCORE.INTER.SOLV>
21.6783

>  <SCORE.INTER.VDW>
-30.3851

>  <SCORE.INTER.norm>
-0.972436

>  <SCORE.INTRA>
-10.0685

>  <SCORE.INTRA.DIHEDRAL>
3.2817

>  <SCORE.INTRA.DIHEDRAL.0>
4.94008

>  <SCORE.INTRA.POLAR>
0

>  <SCORE.INTRA.POLAR.0>
0

>  <SCORE.INTRA.REPUL>
0

>  <SCORE.INTRA.REPUL.0>
0

>  <SCORE.INTRA.SOLV>
-0.174075

>  <SCORE.INTRA.SOLV.lig_0>
-31.4704

>  <SCORE.INTRA.VDW>
-11.6223

>  <SCORE.INTRA.VDW.0>
10.2807

>  <SCORE.INTRA.norm>
-0.41952

>  <SCORE.RESTR>
0.0360408

>  <SCORE.RESTR.CAVITY>
0.0360408

>  <SCORE.RESTR.norm>
0.0015017

>  <SCORE.SYSTEM>
0

>  <SCORE.SYSTEM.CONST>
0

>  <SCORE.SYSTEM.DIHEDRAL>
0

>  <SCORE.SYSTEM.SOLV>
0

>  <SCORE.SYSTEM.norm>
0

>  <SCORE.heavy>
24

>  <SCORE.norm>
-1.39045

>  <RMSD>
1.115

$$$$
ligand
 OpenBabel11021811493D
libRbt.so/2013.1/901 2013/11/27
 24 26  0  0  0  0  0  0  0  0999 V2000
    6.1304  -10.1373  -11.2003 N   0  0  0  0  0  0  0  0  0  0  0  0
    7.0272  -11.0422  -10.4995 C   0  0  0  0  0  0  0  0  0  0  0  0
   13.6669   -6.9557  -13.0872 O   0  0  0  0  0  0  0  0  0  0  0  0
   12.4946   -6.3006  -12.7342 C   0  0  0  0  0  0  0  0  0  0  0  0
    8.7894   -4.4468  -11.6887 N   0  0  0  0  0  0  0  0  0  0  0  0
   12.4299   -4.7985  -12.6553 C   0  0  0  0  0  0  0  0  0  0  0  0
    8.7969   -6.6917  -11.7655 N   0  0  0  0  0  0  0  0  0  0  0  0
   11.2261   -4.0978  -12.3208 C   0  0  0  0  0  0  0  0  0  0  0  0
    6.6369   -5.5822  -11.1493 N   0  0  0  0  0  0  0  0  0  0  0  0
   10.0659   -4.9046  -12.0439 C   0  0  0  0  0  0  0  0  0  0  0  0
   13.2421  -11.5114  -12.5884 N   0  0  0  0  0  0  0  0  0  0  0  0
   10.1179   -6.3409  -12.1007 C   0  0  0  0  0  0  0  0  0  0  0  0
   11.3881   -7.0267  -12.4641 C   0  0  0  0  0  0  0  0  0  0  0  0
    8.0203   -5.5626  -11.5282 C   0  0  0  0  0  0  0  0  0  0  0  0
   11.4208   -8.5423  -12.5282 C   0  0  0  0  0  0  0  0  0  0  0  0
   12.8098   -9.1542  -12.6757 C   0  0  1  0  0  0  0  0  0  0  0  0
   13.9091   -8.1572  -12.4442 C   0  0  0  0  0  0  0  0  0  0  0  0
   12.9493  -10.3576  -11.7556 C   0  0  0  0  0  0  0  0  0  0  0  0
    8.2810   -8.0741  -11.7546 C   0  0  0  0  0  0  0  0  0  0  0  0
   14.6830  -11.7250  -12.5913 C   0  0  0  0  0  0  0  0  0  0  0  0
   12.5759  -12.6596  -11.9939 C   0  0  0  0  0  0  0  0  0  0  0  0
    7.0545   -8.3284  -12.6478 C   0  0  0  0  0  0  0  0  0  0  0  0
    6.6685   -9.8148  -12.5295 C   0  0  0  0  0  0  0  0  0  0  0  0
    4.8250  -10.7803  -11.2997 C   0  0  0  0  0  0  0  0  0  0  0  0
  1 23  1  0  0  0  0
  1 24  1  0  0  0  0
  1  2  1  0  0  0  0
  3  4  1  0  0  0  0
  3 17  1  0  0  0  0
  4  6  2  0  0  0  0
  4 13  1  0  0  0  0
  5 10  1  0  0  0  0
  5 14  2  0  0  0  0
  6  8  1  0  0  0  0
  7 12  1  0  0  0  0
  7 14  1  0  0  0  0
  7 19  1  0  0  0  0
  8 10  2  0  0  0  0
  9 14  1  0  0  0  0
 10 12  1  0  0  0  0
 11 18  1  0  0  0  0
 11 20  1  0  0  0  0
 11 21  1  0  0  0  0
 12 13  2  0  0  0  0
 13 15  1  0  0  0  0
 15 16  1  0  0  0  0
 16 17  1  0  0  0  0
 16 18  1  1  0  0  0
 19 22  1  0  0  0  0
 22 23  1  0  0  0  0
M  END
>  <CHROM.1>
-113.98539498,-123.27814855,97.01013668,120.50054751,179.19704944,69.09887761
10.19891324,-8.18098680,-12.07589260,2.97305525,0.15416274,-0.04311972

>  <Name>
ligand

>  <RI>
0

>  <Rbt.Current_Directory>
/home/itssahil/PROJECTS/Mol_Feturizer/New_Systems/rnas/3TZR

>  <Rbt.Executable>
rbdock ($Id: //depot/dev/client3/rdock/2013.1/src/exe/rbdock.cxx#4 $)

>  <Rbt.Library>
libRbt.so (2013.1, Build901 2013/11/27)

>  <Rbt.Parameter_File>
/export/apps/rDock/src/rDock_2013.1_src/data/scripts/dock_solv.prm

>  <Rbt.Receptor>
prm/pocket_docking_5.prm

>  <SCORE>
-32.3532

>  <SCORE.INTER>
-24.3417

>  <SCORE.INTER.CONST>
1

>  <SCORE.INTER.POLAR>
0

>  <SCORE.INTER.ROT>
6

>  <SCORE.INTER.SOLV>
21.4662

>  <SCORE.INTER.VDW>
-30.9832

>  <SCORE.INTER.norm>
-1.01424

>  <SCORE.INTRA>
-8.01149

>  <SCORE.INTRA.DIHEDRAL>
5.73754

>  <SCORE.INTRA.DIHEDRAL.0>
4.94008

>  <SCORE.INTRA.POLAR>
0

>  <SCORE.INTRA.POLAR.0>
0

>  <SCORE.INTRA.REPUL>
0

>  <SCORE.INTRA.REPUL.0>
0

>  <SCORE.INTRA.SOLV>
0.951972

>  <SCORE.INTRA.SOLV.lig_0>
-31.4704

>  <SCORE.INTRA.VDW>
-11.3563

>  <SCORE.INTRA.VDW.0>
10.2807

>  <SCORE.INTRA.norm>
-0.333812

>  <SCORE.RESTR>
0

>  <SCORE.RESTR.CAVITY>
0

>  <SCORE.RESTR.norm>
0

>  <SCORE.SYSTEM>
0

>  <SCORE.SYSTEM.CONST>
0

>  <SCORE.SYSTEM.DIHEDRAL>
0

>  <SCORE.SYSTEM.SOLV>
0

>  <SCORE.SYSTEM.norm>
0

>  <SCORE.heavy>
24

>  <SCORE.norm>
-1.34805

>  <RMSD>
1.119

$$$$
ligand
 OpenBabel11021811493D
libRbt.so/2013.1/901 2013/11/27
 24 26  0  0  0  0  0  0  0  0999 V2000
    6.4762  -10.5353  -10.6037 N   0  0  0  0  0  0  0  0  0  0  0  0
    6.1743  -11.8472  -10.0540 C   0  0  0  0  0  0  0  0  0  0  0  0
   13.2193   -6.1098  -13.1452 O   0  0  0  0  0  0  0  0  0  0  0  0
   11.9601   -5.6488  -12.7851 C   0  0  0  0  0  0  0  0  0  0  0  0
    8.0152   -4.4073  -11.7102 N   0  0  0  0  0  0  0  0  0  0  0  0
   11.6444   -4.1770  -12.7531 C   0  0  0  0  0  0  0  0  0  0  0  0
    8.4000   -6.6204  -11.7148 N   0  0  0  0  0  0  0  0  0  0  0  0
   10.3461   -3.6769  -12.4122 C   0  0  0  0  0  0  0  0  0  0  0  0
    6.0955   -5.8681  -11.0824 N   0  0  0  0  0  0  0  0  0  0  0  0
    9.3439   -4.6566  -12.0814 C   0  0  0  0  0  0  0  0  0  0  0  0
   12.3998  -10.7210  -12.1305 N   0  0  0  0  0  0  0  0  0  0  0  0
    9.6364   -6.0649  -12.0931 C   0  0  0  0  0  0  0  0  0  0  0  0
   10.9971   -6.5402  -12.4650 C   0  0  0  0  0  0  0  0  0  0  0  0
    7.4485   -5.6299  -11.4952 C   0  0  0  0  0  0  0  0  0  0  0  0
   11.2838   -8.0301  -12.4809 C   0  0  0  0  0  0  0  0  0  0  0  0
   12.7532   -8.4049  -12.6423 C   0  0  1  0  0  0  0  0  0  0  0  0
   13.6726   -7.2298  -12.4698 C   0  0  0  0  0  0  0  0  0  0  0  0
   13.1107   -9.5340  -11.6876 C   0  0  0  0  0  0  0  0  0  0  0  0
    8.1249   -8.0685  -11.6469 C   0  0  0  0  0  0  0  0  0  0  0  0
   13.2000  -11.3846  -13.1510 C   0  0  0  0  0  0  0  0  0  0  0  0
   12.2490  -11.5955  -10.9781 C   0  0  0  0  0  0  0  0  0  0  0  0
    8.0871   -8.6679  -10.2305 C   0  0  0  0  0  0  0  0  0  0  0  0
    7.8827  -10.1896  -10.3535 C   0  0  0  0  0  0  0  0  0  0  0  0
    6.1847  -10.5649  -12.0326 C   0  0  0  0  0  0  0  0  0  0  0  0
  1 23  1  0  0  0  0
  1 24  1  0  0  0  0
  1  2  1  0  0  0  0
  3  4  1  0  0  0  0
  3 17  1  0  0  0  0
  4  6  2  0  0  0  0
  4 13  1  0  0  0  0
  5 10  1  0  0  0  0
  5 14  2  0  0  0  0
  6  8  1  0  0  0  0
  7 12  1  0  0  0  0
  7 14  1  0  0  0  0
  7 19  1  0  0  0  0
  8 10  2  0  0  0  0
  9 14  1  0  0  0  0
 10 12  1  0  0  0  0
 11 18  1  0  0  0  0
 11 20  1  0  0  0  0
 11 21  1  0  0  0  0
 12 13  2  0  0  0  0
 13 15  1  0  0  0  0
 15 16  1  0  0  0  0
 16 17  1  0  0  0  0
 16 18  1  1  0  0  0
 19 22  1  0  0  0  0
 22 23  1  0  0  0  0
M  END
>  <CHROM.1>
-150.75731228,104.03561905,85.72122507,67.61985903,-176.33593514,-79.60649953
9.94078216,-7.89979750,-11.82393137,-2.64652501,0.24037708,-0.14156155

>  <Name>
ligand

>  <RI>
0

>  <Rbt.Current_Directory>
/home/itssahil/PROJECTS/Mol_Feturizer/New_Systems/rnas/3TZR

>  <Rbt.Executable>
rbdock ($Id: //depot/dev/client3/rdock/2013.1/src/exe/rbdock.cxx#4 $)

>  <Rbt.Library>
libRbt.so (2013.1, Build901 2013/11/27)

>  <Rbt.Parameter_File>
/export/apps/rDock/src/rDock_2013.1_src/data/scripts/dock_solv.prm

>  <Rbt.Receptor>
prm/pocket_docking_6.prm

>  <SCORE>
-35.5991

>  <SCORE.INTER>
-25.1545

>  <SCORE.INTER.CONST>
1

>  <SCORE.INTER.POLAR>
0

>  <SCORE.INTER.ROT>
6

>  <SCORE.INTER.SOLV>
20.0666

>  <SCORE.INTER.VDW>
-31.0585

>  <SCORE.INTER.norm>
-1.0481

>  <SCORE.INTRA>
-10.4446

>  <SCORE.INTRA.DIHEDRAL>
0.0621459

>  <SCORE.INTRA.DIHEDRAL.0>
4.94008

>  <SCORE.INTRA.POLAR>
0

>  <SCORE.INTRA.POLAR.0>
0

>  <SCORE.INTRA.REPUL>
0

>  <SCORE.INTRA.REPUL.0>
0

>  <SCORE.INTRA.SOLV>
0.281369

>  <SCORE.INTRA.SOLV.lig_0>
-31.4704

>  <SCORE.INTRA.VDW>
-10.6164

>  <SCORE.INTRA.VDW.0>
10.2807

>  <SCORE.INTRA.norm>
-0.435192

>  <SCORE.RESTR>
0

>  <SCORE.RESTR.CAVITY>
0

>  <SCORE.RESTR.norm>
0

>  <SCORE.SYSTEM>
0

>  <SCORE.SYSTEM.CONST>
0

>  <SCORE.SYSTEM.DIHEDRAL>
0

>  <SCORE.SYSTEM.SOLV>
0

>  <SCORE.SYSTEM.norm>
0

>  <SCORE.heavy>
24

>  <SCORE.norm>
-1.48329

>  <RMSD>
1.119

$$$$
ligand
 OpenBabel11021811493D
libRbt.so/2013.1/901 2013/11/27
 24 26  0  0  0  0  0  0  0  0999 V2000
    6.6682  -10.5492  -10.5684 N   0  0  0  0  0  0  0  0  0  0  0  0
    6.4549  -11.8103   -9.8767 C   0  0  0  0  0  0  0  0  0  0  0  0
   13.1606   -5.9928  -13.0765 O   0  0  0  0  0  0  0  0  0  0  0  0
   11.8758   -5.5545  -12.7846 C   0  0  0  0  0  0  0  0  0  0  0  0
    7.8576   -4.3851  -11.9212 N   0  0  0  0  0  0  0  0  0  0  0  0
   11.5293   -4.0893  -12.7831 C   0  0  0  0  0  0  0  0  0  0  0  0
    8.2866   -6.5897  -11.8844 N   0  0  0  0  0  0  0  0  0  0  0  0
   10.2056   -3.6131  -12.5128 C   0  0  0  0  0  0  0  0  0  0  0  0
    5.9385   -5.8794  -11.3759 N   0  0  0  0  0  0  0  0  0  0  0  0
    9.2081   -4.6102  -12.2228 C   0  0  0  0  0  0  0  0  0  0  0  0
   12.7742  -10.6684  -12.2555 N   0  0  0  0  0  0  0  0  0  0  0  0
    9.5291   -6.0122  -12.2058 C   0  0  0  0  0  0  0  0  0  0  0  0
   10.9161   -6.4627  -12.5043 C   0  0  0  0  0  0  0  0  0  0  0  0
    7.3055   -5.6171  -11.7227 C   0  0  0  0  0  0  0  0  0  0  0  0
   11.2331   -7.9465  -12.4910 C   0  0  0  0  0  0  0  0  0  0  0  0
   12.7160   -8.2923  -12.5747 C   0  0  1  0  0  0  0  0  0  0  0  0
   13.6018   -7.0970  -12.3681 C   0  0  0  0  0  0  0  0  0  0  0  0
   13.0477   -9.4052  -11.5921 C   0  0  0  0  0  0  0  0  0  0  0  0
    8.0377   -8.0425  -11.8160 C   0  0  0  0  0  0  0  0  0  0  0  0
   14.0397  -11.2474  -12.6859 C   0  0  0  0  0  0  0  0  0  0  0  0
   12.1383  -11.5437  -11.2835 C   0  0  0  0  0  0  0  0  0  0  0  0
    8.3396   -8.7011  -10.4588 C   0  0  0  0  0  0  0  0  0  0  0  0
    8.0997  -10.2167  -10.5916 C   0  0  0  0  0  0  0  0  0  0  0  0
    6.1328  -10.6773  -11.9191 C   0  0  0  0  0  0  0  0  0  0  0  0
  1 23  1  0  0  0  0
  1 24  1  0  0  0  0
  1  2  1  0  0  0  0
  3  4  1  0  0  0  0
  3 17  1  0  0  0  0
  4  6  2  0  0  0  0
  4 13  1  0  0  0  0
  5 10  1  0  0  0  0
  5 14  2  0  0  0  0
  6  8  1  0  0  0  0
  7 12  1  0  0  0  0
  7 14  1  0  0  0  0
  7 19  1  0  0  0  0
  8 10  2  0  0  0  0
  9 14  1  0  0  0  0
 10 12  1  0  0  0  0
 11 18  1  0  0  0  0
 11 20  1  0  0  0  0
 11 21  1  0  0  0  0
 12 13  2  0  0  0  0
 13 15  1  0  0  0  0
 15 16  1  0  0  0  0
 16 17  1  0  0  0  0
 16 18  1  1  0  0  0
 19 22  1  0  0  0  0
 22 23  1  0  0  0  0
M  END
>  <CHROM.1>
-144.21702801,87.07199080,102.39976644,85.93194091,-176.91863726,-77.02370723
9.96519673,-7.85167999,-11.87297297,-2.80967194,0.20619400,-0.17749539

>  <Name>
ligand

>  <RI>
0

>  <Rbt.Current_Directory>
/home/itssahil/PROJECTS/Mol_Feturizer/New_Systems/rnas/3TZR

>  <Rbt.Executable>
rbdock ($Id: //depot/dev/client3/rdock/2013.1/src/exe/rbdock.cxx#4 $)

>  <Rbt.Library>
libRbt.so (2013.1, Build901 2013/11/27)

>  <Rbt.Parameter_File>
/export/apps/rDock/src/rDock_2013.1_src/data/scripts/dock_solv.prm

>  <Rbt.Receptor>
prm/blind_docking_40.prm

>  <SCORE>
-34.7202

>  <SCORE.INTER>
-24.478

>  <SCORE.INTER.CONST>
1

>  <SCORE.INTER.POLAR>
0

>  <SCORE.INTER.ROT>
6

>  <SCORE.INTER.SOLV>
20.1962

>  <SCORE.INTER.VDW>
-30.6507

>  <SCORE.INTER.norm>
-1.01992

>  <SCORE.INTRA>
-10.2427

>  <SCORE.INTRA.DIHEDRAL>
2.96383

>  <SCORE.INTRA.DIHEDRAL.0>
4.94008

>  <SCORE.INTRA.POLAR>
0

>  <SCORE.INTRA.POLAR.0>
0

>  <SCORE.INTRA.REPUL>
0

>  <SCORE.INTRA.REPUL.0>
0

>  <SCORE.INTRA.SOLV>
-0.0546229

>  <SCORE.INTRA.SOLV.lig_0>
-31.4704

>  <SCORE.INTRA.VDW>
-11.6973

>  <SCORE.INTRA.VDW.0>
10.2807

>  <SCORE.INTRA.norm>
-0.426779

>  <SCORE.RESTR>
0.000543374

>  <SCORE.RESTR.CAVITY>
0.000543374

>  <SCORE.RESTR.norm>
2.26406e-05

>  <SCORE.SYSTEM>
0

>  <SCORE.SYSTEM.CONST>
0

>  <SCORE.SYSTEM.DIHEDRAL>
0

>  <SCORE.SYSTEM.SOLV>
0

>  <SCORE.SYSTEM.norm>
0

>  <SCORE.heavy>
24

>  <SCORE.norm>
-1.44667

>  <RMSD>
1.122

$$$$
ligand
 OpenBabel11021811493D
libRbt.so/2013.1/901 2013/11/27
 24 26  0  0  0  0  0  0  0  0999 V2000
    6.0258  -10.2064  -11.1792 N   0  0  0  0  0  0  0  0  0  0  0  0
    6.9271  -11.1276  -10.5060 C   0  0  0  0  0  0  0  0  0  0  0  0
   13.4725   -6.8335  -13.1711 O   0  0  0  0  0  0  0  0  0  0  0  0
   12.2936   -6.2252  -12.7611 C   0  0  0  0  0  0  0  0  0  0  0  0
    8.5709   -4.5159  -11.5450 N   0  0  0  0  0  0  0  0  0  0  0  0
   12.1929   -4.7300  -12.6161 C   0  0  0  0  0  0  0  0  0  0  0  0
    8.6334   -6.7546  -11.7184 N   0  0  0  0  0  0  0  0  0  0  0  0
   10.9808   -4.0762  -12.2220 C   0  0  0  0  0  0  0  0  0  0  0  0
    6.4627   -5.7297  -11.0015 N   0  0  0  0  0  0  0  0  0  0  0  0
    9.8491   -4.9243  -11.9512 C   0  0  0  0  0  0  0  0  0  0  0  0
   13.3195  -11.3813  -12.8407 N   0  0  0  0  0  0  0  0  0  0  0  0
    9.9360   -6.3551  -12.0709 C   0  0  0  0  0  0  0  0  0  0  0  0
   11.2132   -6.9911  -12.4951 C   0  0  0  0  0  0  0  0  0  0  0  0
    7.8348   -5.6574  -11.4135 C   0  0  0  0  0  0  0  0  0  0  0  0
   11.2826   -8.5012  -12.6250 C   0  0  0  0  0  0  0  0  0  0  0  0
   12.6824   -9.0693  -12.8332 C   0  0  1  0  0  0  0  0  0  0  0  0
   13.7617   -8.0544  -12.5865 C   0  0  0  0  0  0  0  0  0  0  0  0
   12.8763  -10.3065  -11.9695 C   0  0  0  0  0  0  0  0  0  0  0  0
    8.1532   -8.1493  -11.7541 C   0  0  0  0  0  0  0  0  0  0  0  0
   14.7414  -11.6026  -12.6142 C   0  0  0  0  0  0  0  0  0  0  0  0
   12.5720  -12.5749  -12.4771 C   0  0  0  0  0  0  0  0  0  0  0  0
    6.9270   -8.4030  -12.6479 C   0  0  0  0  0  0  0  0  0  0  0  0
    6.5333   -9.8867  -12.5211 C   0  0  0  0  0  0  0  0  0  0  0  0
    4.7086  -10.8291  -11.2462 C   0  0  0  0  0  0  0  0  0  0  0  0
  1 23  1  0  0  0  0
  1 24  1  0  0  0  0
  1  2  1  0  0  0  0
  3  4  1  0  0  0  0
  3 17  1  0  0  0  0
  4  6  2  0  0  0  0
  4 13  1  0  0  0  0
  5 10  1  0  0  0  0
  5 14  2  0  0  0  0
  6  8  1  0  0  0  0
  7 12  1  0  0  0  0
  7 14  1  0  0  0  0
  7 19  1  0  0  0  0
  8 10  2  0  0  0  0
  9 14  1  0  0  0  0
 10 12  1  0  0  0  0
 11 18  1  0  0  0  0
 11 20  1  0  0  0  0
 11 21  1  0  0  0  0
 12 13  2  0  0  0  0
 13 15  1  0  0  0  0
 15 16  1  0  0  0  0
 16 17  1  0  0  0  0
 16 18  1  1  0  0  0
 19 22  1  0  0  0  0
 22 23  1  0  0  0  0
M  END
>  <CHROM.1>
-114.48803882,-122.14927618,105.45690843,126.63227421,-177.76651966,67.52241302
10.06695216,-8.17612326,-12.11013155,2.99308217,0.17834642,-0.01210616

>  <Name>
ligand

>  <RI>
0

>  <Rbt.Current_Directory>
/home/itssahil/PROJECTS/Mol_Feturizer/New_Systems/rnas/3TZR

>  <Rbt.Executable>
rbdock ($Id: //depot/dev/client3/rdock/2013.1/src/exe/rbdock.cxx#4 $)

>  <Rbt.Library>
libRbt.so (2013.1, Build901 2013/11/27)

>  <Rbt.Parameter_File>
/export/apps/rDock/src/rDock_2013.1_src/data/scripts/dock_solv.prm

>  <Rbt.Receptor>
prm/blind_docking_100.prm

>  <SCORE>
-32.1533

>  <SCORE.INTER>
-24.1485

>  <SCORE.INTER.CONST>
1

>  <SCORE.INTER.POLAR>
0

>  <SCORE.INTER.ROT>
6

>  <SCORE.INTER.SOLV>
21.6194

>  <SCORE.INTER.VDW>
-30.9055

>  <SCORE.INTER.norm>
-1.00619

>  <SCORE.INTRA>
-8.00476

>  <SCORE.INTRA.DIHEDRAL>
5.96678

>  <SCORE.INTRA.DIHEDRAL.0>
4.94008

>  <SCORE.INTRA.POLAR>
0

>  <SCORE.INTRA.POLAR.0>
0

>  <SCORE.INTRA.REPUL>
0

>  <SCORE.INTRA.REPUL.0>
0

>  <SCORE.INTRA.SOLV>
0.963654

>  <SCORE.INTRA.SOLV.lig_0>
-31.4704

>  <SCORE.INTRA.VDW>
-11.47

>  <SCORE.INTRA.VDW.0>
10.2807

>  <SCORE.INTRA.norm>
-0.333532

>  <SCORE.RESTR>
0

>  <SCORE.RESTR.CAVITY>
0

>  <SCORE.RESTR.norm>
0

>  <SCORE.SYSTEM>
0

>  <SCORE.SYSTEM.CONST>
0

>  <SCORE.SYSTEM.DIHEDRAL>
0

>  <SCORE.SYSTEM.SOLV>
0

>  <SCORE.SYSTEM.norm>
0

>  <SCORE.heavy>
24

>  <SCORE.norm>
-1.33972

>  <RMSD>
1.124

$$$$
ligand
 OpenBabel11021811493D
libRbt.so/2013.1/901 2013/11/27
 24 26  0  0  0  0  0  0  0  0999 V2000
    6.6402  -10.5291  -10.6828 N   0  0  0  0  0  0  0  0  0  0  0  0
    6.4052  -11.8110  -10.0380 C   0  0  0  0  0  0  0  0  0  0  0  0
   13.2271   -6.0178  -13.0213 O   0  0  0  0  0  0  0  0  0  0  0  0
   11.9313   -5.5746  -12.7932 C   0  0  0  0  0  0  0  0  0  0  0  0
    7.8804   -4.3907  -12.1237 N   0  0  0  0  0  0  0  0  0  0  0  0
   11.5831   -4.1107  -12.8472 C   0  0  0  0  0  0  0  0  0  0  0  0
    8.3104   -6.5923  -12.0073 N   0  0  0  0  0  0  0  0  0  0  0  0
   10.2491   -3.6302  -12.6433 C   0  0  0  0  0  0  0  0  0  0  0  0
    5.9430   -5.8735  -11.6128 N   0  0  0  0  0  0  0  0  0  0  0  0
    9.2421   -4.6211  -12.3650 C   0  0  0  0  0  0  0  0  0  0  0  0
   12.7003  -10.6618  -12.0432 N   0  0  0  0  0  0  0  0  0  0  0  0
    9.5640   -6.0213  -12.2953 C   0  0  0  0  0  0  0  0  0  0  0  0
   10.9622   -6.4768  -12.5255 C   0  0  0  0  0  0  0  0  0  0  0  0
    7.3224   -5.6179  -11.9124 C   0  0  0  0  0  0  0  0  0  0  0  0
   11.2804   -7.9587  -12.4575 C   0  0  0  0  0  0  0  0  0  0  0  0
   12.7659   -8.3033  -12.4724 C   0  0  1  0  0  0  0  0  0  0  0  0
   13.6412   -7.1005  -12.2648 C   0  0  0  0  0  0  0  0  0  0  0  0
   13.0597   -9.3870  -11.4461 C   0  0  0  0  0  0  0  0  0  0  0  0
    8.0608   -8.0432  -11.9074 C   0  0  0  0  0  0  0  0  0  0  0  0
   13.8306  -11.1387  -12.8286 C   0  0  0  0  0  0  0  0  0  0  0  0
   12.4283  -11.5913  -10.9580 C   0  0  0  0  0  0  0  0  0  0  0  0
    8.2793   -8.6566  -10.5136 C   0  0  0  0  0  0  0  0  0  0  0  0
    8.0661  -10.1787  -10.6150 C   0  0  0  0  0  0  0  0  0  0  0  0
    6.1846  -10.6271  -12.0649 C   0  0  0  0  0  0  0  0  0  0  0  0
  1 23  1  0  0  0  0
  1 24  1  0  0  0  0
  1  2  1  0  0  0  0
  3  4  1  0  0  0  0
  3 17  1  0  0  0  0
  4  6  2  0  0  0  0
  4 13  1  0  0  0  0
  5 10  1  0  0  0  0
  5 14  2  0  0  0  0
  6  8  1  0  0  0  0
  7 12  1  0  0  0  0
  7 14  1  0  0  0  0
  7 19  1  0  0  0  0
  8 10  2  0  0  0  0
  9 14  1  0  0  0  0
 10 12  1  0  0  0  0
 11 18  1  0  0  0  0
 11 20  1  0  0  0  0
 11 21  1  0  0  0  0
 12 13  2  0  0  0  0
 13 15  1  0  0  0  0
 15 16  1  0  0  0  0
 16 17  1  0  0  0  0
 16 18  1  1  0  0  0
 19 22  1  0  0  0  0
 22 23  1  0  0  0  0
M  END
>  <CHROM.1>
-147.62673517,88.37280575,85.19747533,80.91658862,-176.32217756,-76.75143874
9.98370504,-7.84703341,-11.91061804,-2.78562427,0.16846901,-0.19825598

>  <Name>
ligand

>  <RI>
144

>  <Rbt.Current_Directory>
/home/itssahil/PROJECTS/Mol_Feturizer/New_Systems/rnas/3TZR

>  <Rbt.Executable>
rbdock ($Id: //depot/dev/client3/rdock/2013.1/src/exe/rbdock.cxx#4 $)

>  <Rbt.Library>
libRbt.so (2013.1, Build901 2013/11/27)

>  <Rbt.Parameter_File>
/export/apps/rDock/src/rDock_2013.1_src/data/scripts/dock_solv.prm

>  <Rbt.Receptor>
prm/blind_docking_60.prm

>  <SCORE>
-35.723

>  <SCORE.INTER>
-25.3248

>  <SCORE.INTER.CONST>
1

>  <SCORE.INTER.POLAR>
0

>  <SCORE.INTER.ROT>
6

>  <SCORE.INTER.SOLV>
20.5676

>  <SCORE.INTER.VDW>
-31.339

>  <SCORE.INTER.norm>
-1.0552

>  <SCORE.INTRA>
-10.3983

>  <SCORE.INTRA.DIHEDRAL>
1.08337

>  <SCORE.INTRA.DIHEDRAL.0>
4.94008

>  <SCORE.INTRA.POLAR>
0

>  <SCORE.INTRA.POLAR.0>
0

>  <SCORE.INTRA.REPUL>
0

>  <SCORE.INTRA.REPUL.0>
0

>  <SCORE.INTRA.SOLV>
-0.00454086

>  <SCORE.INTRA.SOLV.lig_0>
-31.4704

>  <SCORE.INTRA.VDW>
-10.9377

>  <SCORE.INTRA.VDW.0>
10.2807

>  <SCORE.INTRA.norm>
-0.433262

>  <SCORE.RESTR>
0

>  <SCORE.RESTR.CAVITY>
0

>  <SCORE.RESTR.norm>
0

>  <SCORE.SYSTEM>
0

>  <SCORE.SYSTEM.CONST>
0

>  <SCORE.SYSTEM.DIHEDRAL>
0

>  <SCORE.SYSTEM.SOLV>
0

>  <SCORE.SYSTEM.norm>
0

>  <SCORE.heavy>
24

>  <SCORE.norm>
-1.48846

>  <RMSD>
1.125

$$$$
ligand
 OpenBabel11021811493D
libRbt.so/2013.1/901 2013/11/27
 24 26  0  0  0  0  0  0  0  0999 V2000
    6.6565  -10.3401  -11.0184 N   0  0  0  0  0  0  0  0  0  0  0  0
    6.2617  -11.5418  -10.3012 C   0  0  0  0  0  0  0  0  0  0  0  0
   13.4187   -6.4947  -12.8928 O   0  0  0  0  0  0  0  0  0  0  0  0
   12.1706   -5.9003  -12.7633 C   0  0  0  0  0  0  0  0  0  0  0  0
    8.2488   -4.2445  -12.3935 N   0  0  0  0  0  0  0  0  0  0  0  0
   11.9942   -4.4112  -12.8996 C   0  0  0  0  0  0  0  0  0  0  0  0
    8.4193   -6.4719  -12.1591 N   0  0  0  0  0  0  0  0  0  0  0  0
   10.7139   -3.7767  -12.7981 C   0  0  0  0  0  0  0  0  0  0  0  0
    6.1302   -5.4774  -11.9409 N   0  0  0  0  0  0  0  0  0  0  0  0
    9.5870   -4.6355  -12.5409 C   0  0  0  0  0  0  0  0  0  0  0  0
   12.4267  -11.0206  -11.7883 N   0  0  0  0  0  0  0  0  0  0  0  0
    9.7437   -6.0577  -12.3933 C   0  0  0  0  0  0  0  0  0  0  0  0
   11.0921   -6.6757  -12.5181 C   0  0  0  0  0  0  0  0  0  0  0  0
    7.5443   -5.3908  -12.1657 C   0  0  0  0  0  0  0  0  0  0  0  0
   11.2360   -8.1788  -12.3689 C   0  0  0  0  0  0  0  0  0  0  0  0
   12.6713   -8.6858  -12.2783 C   0  0  1  0  0  0  0  0  0  0  0  0
   13.6642   -7.5787  -12.0679 C   0  0  0  0  0  0  0  0  0  0  0  0
   12.7822   -9.7446  -11.1917 C   0  0  0  0  0  0  0  0  0  0  0  0
    8.0017   -7.8798  -12.0143 C   0  0  0  0  0  0  0  0  0  0  0  0
   13.6245  -11.6053  -12.3758 C   0  0  0  0  0  0  0  0  0  0  0  0
   11.9325  -11.8786  -10.7228 C   0  0  0  0  0  0  0  0  0  0  0  0
    8.3385   -8.5330  -10.6627 C   0  0  0  0  0  0  0  0  0  0  0  0
    8.0764  -10.0464  -10.7771 C   0  0  0  0  0  0  0  0  0  0  0  0
    6.3938  -10.5526  -12.4372 C   0  0  0  0  0  0  0  0  0  0  0  0
  1 23  1  0  0  0  0
  1 24  1  0  0  0  0
  1  2  1  0  0  0  0
  3  4  1  0  0  0  0
  3 17  1  0  0  0  0
  4  6  2  0  0  0  0
  4 13  1  0  0  0  0
  5 10  1  0  0  0  0
  5 14  2  0  0  0  0
  6  8  1  0  0  0  0
  7 12  1  0  0  0  0
  7 14  1  0  0  0  0
  7 19  1  0  0  0  0
  8 10  2  0  0  0  0
  9 14  1  0  0  0  0
 10 12  1  0  0  0  0
 11 18  1  0  0  0  0
 11 20  1  0  0  0  0
 11 21  1  0  0  0  0
 12 13  2  0  0  0  0
 13 15  1  0  0  0  0
 15 16  1  0  0  0  0
 16 17  1  0  0  0  0
 16 18  1  1  0  0  0
 19 22  1  0  0  0  0
 22 23  1  0  0  0  0
M  END
>  <CHROM.1>
-142.70552209,76.29432768,87.21582123,85.81295092,-169.62985021,-63.84931981
10.03821292,-7.93973637,-11.95008501,1.12008369,-0.11585045,2.93307008

>  <Name>
ligand

>  <RI>
0

>  <Rbt.Current_Directory>
/home/itssahil/PROJECTS/Mol_Feturizer/New_Systems/rnas/3TZR

>  <Rbt.Executable>
rbdock ($Id: //depot/dev/client3/rdock/2013.1/src/exe/rbdock.cxx#4 $)

>  <Rbt.Library>
libRbt.so (2013.1, Build901 2013/11/27)

>  <Rbt.Parameter_File>
/export/apps/rDock/src/rDock_2013.1_src/data/scripts/dock_solv.prm

>  <Rbt.Receptor>
prm/pocket_docking_2.prm

>  <SCORE>
-33.3161

>  <SCORE.INTER>
-23.3278

>  <SCORE.INTER.CONST>
1

>  <SCORE.INTER.POLAR>
0

>  <SCORE.INTER.ROT>
6

>  <SCORE.INTER.SOLV>
22.3265

>  <SCORE.INTER.VDW>
-30.5941

>  <SCORE.INTER.norm>
-0.971993

>  <SCORE.INTRA>
-10.2601

>  <SCORE.INTRA.DIHEDRAL>
1.48348

>  <SCORE.INTRA.DIHEDRAL.0>
4.94008

>  <SCORE.INTRA.POLAR>
0

>  <SCORE.INTRA.POLAR.0>
0

>  <SCORE.INTRA.REPUL>
0

>  <SCORE.INTRA.REPUL.0>
0

>  <SCORE.INTRA.SOLV>
-0.181081

>  <SCORE.INTRA.SOLV.lig_0>
-31.4704

>  <SCORE.INTRA.VDW>
-10.9113

>  <SCORE.INTRA.VDW.0>
10.2807

>  <SCORE.INTRA.norm>
-0.427505

>  <SCORE.RESTR>
0.271854

>  <SCORE.RESTR.CAVITY>
0.271854

>  <SCORE.RESTR.norm>
0.0113273

>  <SCORE.SYSTEM>
0

>  <SCORE.SYSTEM.CONST>
0

>  <SCORE.SYSTEM.DIHEDRAL>
0

>  <SCORE.SYSTEM.SOLV>
0

>  <SCORE.SYSTEM.norm>
0

>  <SCORE.heavy>
24

>  <SCORE.norm>
-1.38817

>  <RMSD>
1.126

$$$$
ligand
 OpenBabel11021811493D
libRbt.so/2013.1/901 2013/11/27
 24 26  0  0  0  0  0  0  0  0999 V2000
    8.2117  -10.8666   -9.4644 N   0  0  0  0  0  0  0  0  0  0  0  0
    7.4656  -12.1127   -9.5350 C   0  0  0  0  0  0  0  0  0  0  0  0
   13.1648   -5.8448  -13.0628 O   0  0  0  0  0  0  0  0  0  0  0  0
   11.8492   -5.4891  -12.7973 C   0  0  0  0  0  0  0  0  0  0  0  0
    7.7463   -4.5729  -12.0318 N   0  0  0  0  0  0  0  0  0  0  0  0
   11.4323   -4.0456  -12.7002 C   0  0  0  0  0  0  0  0  0  0  0  0
    8.2796   -6.7521  -12.1434 N   0  0  0  0  0  0  0  0  0  0  0  0
   10.0769   -3.6520  -12.4551 C   0  0  0  0  0  0  0  0  0  0  0  0
    5.8806   -6.1903  -11.6900 N   0  0  0  0  0  0  0  0  0  0  0  0
    9.1176   -4.7127  -12.2877 C   0  0  0  0  0  0  0  0  0  0  0  0
   13.0734  -10.5755  -12.6475 N   0  0  0  0  0  0  0  0  0  0  0  0
    9.5051   -6.0959  -12.3628 C   0  0  0  0  0  0  0  0  0  0  0  0
   10.9236   -6.4588  -12.6311 C   0  0  0  0  0  0  0  0  0  0  0  0
    7.2467   -5.8404  -11.9531 C   0  0  0  0  0  0  0  0  0  0  0  0
   11.3114   -7.9232  -12.7163 C   0  0  0  0  0  0  0  0  0  0  0  0
   12.8114   -8.1942  -12.7583 C   0  0  1  0  0  0  0  0  0  0  0  0
   13.6288   -6.9801  -12.4211 C   0  0  0  0  0  0  0  0  0  0  0  0
   13.1551   -9.3645  -11.8492 C   0  0  0  0  0  0  0  0  0  0  0  0
    8.0988   -8.2155  -12.1971 C   0  0  0  0  0  0  0  0  0  0  0  0
   14.4028  -10.8828  -13.1575 C   0  0  0  0  0  0  0  0  0  0  0  0
   12.6228  -11.6462  -11.7723 C   0  0  0  0  0  0  0  0  0  0  0  0
    8.7332   -9.0025  -11.0374 C   0  0  0  0  0  0  0  0  0  0  0  0
    7.6431   -9.8792  -10.3929 C   0  0  0  0  0  0  0  0  0  0  0  0
    8.1635  -10.3873   -8.0877 C   0  0  0  0  0  0  0  0  0  0  0  0
  1 23  1  0  0  0  0
  1 24  1  0  0  0  0
  1  2  1  0  0  0  0
  3  4  1  0  0  0  0
  3 17  1  0  0  0  0
  4  6  2  0  0  0  0
  4 13  1  0  0  0  0
  5 10  1  0  0  0  0
  5 14  2  0  0  0  0
  6  8  1  0  0  0  0
  7 12  1  0  0  0  0
  7 14  1  0  0  0  0
  7 19  1  0  0  0  0
  8 10  2  0  0  0  0
  9 14  1  0  0  0  0
 10 12  1  0  0  0  0
 11 18  1  0  0  0  0
 11 20  1  0  0  0  0
 11 21  1  0  0  0  0
 12 13  2  0  0  0  0
 13 15  1  0  0  0  0
 15 16  1  0  0  0  0
 16 17  1  0  0  0  0
 16 18  1  1  0  0  0
 19 22  1  0  0  0  0
 22 23  1  0  0  0  0
M  END
>  <CHROM.1>
-143.68751392,70.82813562,94.06326935,90.33308801,125.75480141,168.17517175
10.21274059,-7.87738818,-11.80296095,-2.47687581,0.32628415,-0.31676733

>  <Name>
ligand

>  <RI>
0

>  <Rbt.Current_Directory>
/home/itssahil/PROJECTS/Mol_Feturizer/New_Systems/rnas/3TZR

>  <Rbt.Executable>
rbdock ($Id: //depot/dev/client3/rdock/2013.1/src/exe/rbdock.cxx#4 $)

>  <Rbt.Library>
libRbt.so (2013.1, Build901 2013/11/27)

>  <Rbt.Parameter_File>
/export/apps/rDock/src/rDock_2013.1_src/data/scripts/dock_solv.prm

>  <Rbt.Receptor>
prm/pocket_docking_7.prm

>  <SCORE>
-26.7628

>  <SCORE.INTER>
-19.181

>  <SCORE.INTER.CONST>
1

>  <SCORE.INTER.POLAR>
-0.28768

>  <SCORE.INTER.ROT>
6

>  <SCORE.INTER.SOLV>
20.47

>  <SCORE.INTER.VDW>
-26.2517

>  <SCORE.INTER.norm>
-0.799207

>  <SCORE.INTRA>
-7.68247

>  <SCORE.INTRA.DIHEDRAL>
7.87792

>  <SCORE.INTRA.DIHEDRAL.0>
4.94008

>  <SCORE.INTRA.POLAR>
0

>  <SCORE.INTRA.POLAR.0>
0

>  <SCORE.INTRA.REPUL>
0

>  <SCORE.INTRA.REPUL.0>
0

>  <SCORE.INTRA.SOLV>
-0.0433998

>  <SCORE.INTRA.SOLV.lig_0>
-31.4704

>  <SCORE.INTRA.VDW>
-11.5997

>  <SCORE.INTRA.VDW.0>
10.2807

>  <SCORE.INTRA.norm>
-0.320103

>  <SCORE.RESTR>
0.100666

>  <SCORE.RESTR.CAVITY>
0.100666

>  <SCORE.RESTR.norm>
0.00419443

>  <SCORE.SYSTEM>
0

>  <SCORE.SYSTEM.CONST>
0

>  <SCORE.SYSTEM.DIHEDRAL>
0

>  <SCORE.SYSTEM.SOLV>
0

>  <SCORE.SYSTEM.norm>
0

>  <SCORE.heavy>
24

>  <SCORE.norm>
-1.11512

>  <RMSD>
1.127

$$$$
ligand
 OpenBabel11021811493D
libRbt.so/2013.1/901 2013/11/27
 24 26  0  0  0  0  0  0  0  0999 V2000
    6.8014  -10.0838  -10.8449 N   0  0  0  0  0  0  0  0  0  0  0  0
    7.8156  -10.8059  -10.0936 C   0  0  0  0  0  0  0  0  0  0  0  0
   13.5820   -7.1292  -13.2462 O   0  0  0  0  0  0  0  0  0  0  0  0
   12.4819   -6.3477  -12.9195 C   0  0  0  0  0  0  0  0  0  0  0  0
    8.9871   -4.1023  -11.9179 N   0  0  0  0  0  0  0  0  0  0  0  0
   12.5012   -4.8531  -13.1005 C   0  0  0  0  0  0  0  0  0  0  0  0
    8.8732   -6.3229  -11.5999 N   0  0  0  0  0  0  0  0  0  0  0  0
   11.3703   -4.0277  -12.7974 C   0  0  0  0  0  0  0  0  0  0  0  0
    6.8379   -4.9845  -11.0145 N   0  0  0  0  0  0  0  0  0  0  0  0
   10.2008   -4.6971  -12.2899 C   0  0  0  0  0  0  0  0  0  0  0  0
   11.9284  -11.3068  -11.5925 N   0  0  0  0  0  0  0  0  0  0  0  0
   10.1742   -6.1224  -12.0977 C   0  0  0  0  0  0  0  0  0  0  0  0
   11.3691   -6.9425  -12.4372 C   0  0  0  0  0  0  0  0  0  0  0  0
    8.1800   -5.1211  -11.5021 C   0  0  0  0  0  0  0  0  0  0  0  0
   11.3186   -8.4456  -12.2367 C   0  0  0  0  0  0  0  0  0  0  0  0
   12.6553   -9.1640  -12.3869 C   0  0  1  0  0  0  0  0  0  0  0  0
   13.8205   -8.2170  -12.4241 C   0  0  0  0  0  0  0  0  0  0  0  0
   12.8170  -10.1996  -11.2844 C   0  0  0  0  0  0  0  0  0  0  0  0
    8.2907   -7.6462  -11.3047 C   0  0  0  0  0  0  0  0  0  0  0  0
   12.6212  -12.2179  -12.4936 C   0  0  0  0  0  0  0  0  0  0  0  0
   11.6270  -11.9862  -10.3423 C   0  0  0  0  0  0  0  0  0  0  0  0
    7.4015   -8.2382  -12.4117 C   0  0  0  0  0  0  0  0  0  0  0  0
    7.2986   -9.7589  -12.1894 C   0  0  0  0  0  0  0  0  0  0  0  0
    5.6065  -10.9176  -10.9099 C   0  0  0  0  0  0  0  0  0  0  0  0
  1 23  1  0  0  0  0
  1 24  1  0  0  0  0
  1  2  1  0  0  0  0
  3  4  1  0  0  0  0
  3 17  1  0  0  0  0
  4  6  2  0  0  0  0
  4 13  1  0  0  0  0
  5 10  1  0  0  0  0
  5 14  2  0  0  0  0
  6  8  1  0  0  0  0
  7 12  1  0  0  0  0
  7 14  1  0  0  0  0
  7 19  1  0  0  0  0
  8 10  2  0  0  0  0
  9 14  1  0  0  0  0
 10 12  1  0  0  0  0
 11 18  1  0  0  0  0
 11 20  1  0  0  0  0
 11 21  1  0  0  0  0
 12 13  2  0  0  0  0
 13 15  1  0  0  0  0
 15 16  1  0  0  0  0
 16 17  1  0  0  0  0
 16 18  1  1  0  0  0
 19 22  1  0  0  0  0
 22 23  1  0  0  0  0
M  END
>  <CHROM.1>
-116.54996339,-97.13937200,85.74620602,73.20227254,159.98172075,55.80509340
10.16333627,-8.04320529,-11.86455997,1.72554016,-0.20315672,2.98340999

>  <Name>
ligand

>  <RI>
0

>  <Rbt.Current_Directory>
/home/itssahil/PROJECTS/Mol_Feturizer/New_Systems/rnas/3TZR

>  <Rbt.Executable>
rbdock ($Id: //depot/dev/client3/rdock/2013.1/src/exe/rbdock.cxx#4 $)

>  <Rbt.Library>
libRbt.so (2013.1, Build901 2013/11/27)

>  <Rbt.Parameter_File>
/export/apps/rDock/src/rDock_2013.1_src/data/scripts/dock_solv.prm

>  <Rbt.Receptor>
prm/blind_docking_80.prm

>  <SCORE>
-33.2374

>  <SCORE.INTER>
-22.7947

>  <SCORE.INTER.CONST>
1

>  <SCORE.INTER.POLAR>
0

>  <SCORE.INTER.ROT>
6

>  <SCORE.INTER.SOLV>
22.9054

>  <SCORE.INTER.VDW>
-30.4316

>  <SCORE.INTER.norm>
-0.949778

>  <SCORE.INTRA>
-10.4572

>  <SCORE.INTRA.DIHEDRAL>
1.50881

>  <SCORE.INTRA.DIHEDRAL.0>
4.94008

>  <SCORE.INTRA.POLAR>
0

>  <SCORE.INTRA.POLAR.0>
0

>  <SCORE.INTRA.REPUL>
0

>  <SCORE.INTRA.REPUL.0>
0

>  <SCORE.INTRA.SOLV>
0.316654

>  <SCORE.INTRA.SOLV.lig_0>
-31.4704

>  <SCORE.INTRA.VDW>
-11.3699

>  <SCORE.INTRA.VDW.0>
10.2807

>  <SCORE.INTRA.norm>
-0.435715

>  <SCORE.RESTR>
0.0144185

>  <SCORE.RESTR.CAVITY>
0.0144185

>  <SCORE.RESTR.norm>
0.00060077

>  <SCORE.SYSTEM>
0

>  <SCORE.SYSTEM.CONST>
0

>  <SCORE.SYSTEM.DIHEDRAL>
0

>  <SCORE.SYSTEM.SOLV>
0

>  <SCORE.SYSTEM.norm>
0

>  <SCORE.heavy>
24

>  <SCORE.norm>
-1.38489

>  <RMSD>
1.129

$$$$
ligand
 OpenBabel11021811493D
libRbt.so/2013.1/901 2013/11/27
 24 26  0  0  0  0  0  0  0  0999 V2000
    6.6250  -10.5531  -10.6695 N   0  0  0  0  0  0  0  0  0  0  0  0
    6.4034  -11.8470  -10.0442 C   0  0  0  0  0  0  0  0  0  0  0  0
   13.2007   -5.9986  -13.0330 O   0  0  0  0  0  0  0  0  0  0  0  0
   11.9120   -5.5573  -12.7638 C   0  0  0  0  0  0  0  0  0  0  0  0
    7.8820   -4.3783  -11.9716 N   0  0  0  0  0  0  0  0  0  0  0  0
   11.5690   -4.0913  -12.7685 C   0  0  0  0  0  0  0  0  0  0  0  0
    8.3050   -6.5839  -11.9271 N   0  0  0  0  0  0  0  0  0  0  0  0
   10.2419   -3.6119  -12.5216 C   0  0  0  0  0  0  0  0  0  0  0  0
    5.9500   -5.8681  -11.4601 N   0  0  0  0  0  0  0  0  0  0  0  0
    9.2370   -4.6067  -12.2493 C   0  0  0  0  0  0  0  0  0  0  0  0
   12.5063  -10.6418  -12.0941 N   0  0  0  0  0  0  0  0  0  0  0  0
    9.5544   -6.0095  -12.2265 C   0  0  0  0  0  0  0  0  0  0  0  0
   10.9453   -6.4632  -12.5004 C   0  0  0  0  0  0  0  0  0  0  0  0
    7.3235   -5.6091  -11.7828 C   0  0  0  0  0  0  0  0  0  0  0  0
   11.2586   -7.9477  -12.4815 C   0  0  0  0  0  0  0  0  0  0  0  0
   12.7419   -8.2970  -12.5390 C   0  0  1  0  0  0  0  0  0  0  0  0
   13.6267   -7.1038  -12.3168 C   0  0  0  0  0  0  0  0  0  0  0  0
   13.0537   -9.4106  -11.5507 C   0  0  0  0  0  0  0  0  0  0  0  0
    8.0516   -8.0362  -11.8630 C   0  0  0  0  0  0  0  0  0  0  0  0
   13.5285  -11.2797  -12.9127 C   0  0  0  0  0  0  0  0  0  0  0  0
   12.1675  -11.5023  -10.9715 C   0  0  0  0  0  0  0  0  0  0  0  0
    8.2658   -8.6838  -10.4840 C   0  0  0  0  0  0  0  0  0  0  0  0
    8.0517  -10.2027  -10.6234 C   0  0  0  0  0  0  0  0  0  0  0  0
    6.1422  -10.6258  -12.0440 C   0  0  0  0  0  0  0  0  0  0  0  0
  1 23  1  0  0  0  0
  1 24  1  0  0  0  0
  1  2  1  0  0  0  0
  3  4  1  0  0  0  0
  3 17  1  0  0  0  0
  4  6  2  0  0  0  0
  4 13  1  0  0  0  0
  5 10  1  0  0  0  0
  5 14  2  0  0  0  0
  6  8  1  0  0  0  0
  7 12  1  0  0  0  0
  7 14  1  0  0  0  0
  7 19  1  0  0  0  0
  8 10  2  0  0  0  0
  9 14  1  0  0  0  0
 10 12  1  0  0  0  0
 11 18  1  0  0  0  0
 11 20  1  0  0  0  0
 11 21  1  0  0  0  0
 12 13  2  0  0  0  0
 13 15  1  0  0  0  0
 15 16  1  0  0  0  0
 16 17  1  0  0  0  0
 16 18  1  1  0  0  0
 19 22  1  0  0  0  0
 22 23  1  0  0  0  0
M  END
>  <CHROM.1>
-147.07380634,89.76550655,90.26252729,73.06884342,-176.21301715,-78.18296993
9.93876197,-7.84764352,-11.88682502,-2.59702212,0.18816494,-0.17317835

>  <Name>
ligand

>  <RI>
144

>  <Rbt.Current_Directory>
/home/itssahil/PROJECTS/Mol_Feturizer/New_Systems/rnas/3TZR

>  <Rbt.Executable>
rbdock ($Id: //depot/dev/client3/rdock/2013.1/src/exe/rbdock.cxx#4 $)

>  <Rbt.Library>
libRbt.so (2013.1, Build901 2013/11/27)

>  <Rbt.Parameter_File>
/export/apps/rDock/src/rDock_2013.1_src/data/scripts/dock_solv.prm

>  <Rbt.Receptor>
prm/blind_docking_60.prm

>  <SCORE>
-35.7161

>  <SCORE.INTER>
-24.9029

>  <SCORE.INTER.CONST>
1

>  <SCORE.INTER.POLAR>
0

>  <SCORE.INTER.ROT>
6

>  <SCORE.INTER.SOLV>
20.2998

>  <SCORE.INTER.VDW>
-30.9685

>  <SCORE.INTER.norm>
-1.03762

>  <SCORE.INTRA>
-10.8132

>  <SCORE.INTRA.DIHEDRAL>
0.796868

>  <SCORE.INTRA.DIHEDRAL.0>
4.94008

>  <SCORE.INTRA.POLAR>
0

>  <SCORE.INTRA.POLAR.0>
0

>  <SCORE.INTRA.REPUL>
0

>  <SCORE.INTRA.REPUL.0>
0

>  <SCORE.INTRA.SOLV>
0.00833226

>  <SCORE.INTRA.SOLV.lig_0>
-31.4704

>  <SCORE.INTRA.VDW>
-11.2158

>  <SCORE.INTRA.VDW.0>
10.2807

>  <SCORE.INTRA.norm>
-0.450552

>  <SCORE.RESTR>
0

>  <SCORE.RESTR.CAVITY>
0

>  <SCORE.RESTR.norm>
0

>  <SCORE.SYSTEM>
0

>  <SCORE.SYSTEM.CONST>
0

>  <SCORE.SYSTEM.DIHEDRAL>
0

>  <SCORE.SYSTEM.SOLV>
0

>  <SCORE.SYSTEM.norm>
0

>  <SCORE.heavy>
24

>  <SCORE.norm>
-1.48817

>  <RMSD>
1.130

$$$$
ligand
 OpenBabel11021811493D
libRbt.so/2013.1/901 2013/11/27
 24 26  0  0  0  0  0  0  0  0999 V2000
    8.5790  -11.1076   -9.3692 N   0  0  0  0  0  0  0  0  0  0  0  0
    9.5123  -12.1436   -9.7814 C   0  0  0  0  0  0  0  0  0  0  0  0
   13.7975   -7.7597  -13.1775 O   0  0  0  0  0  0  0  0  0  0  0  0
   12.7230   -6.9465  -12.8427 C   0  0  0  0  0  0  0  0  0  0  0  0
    9.2985   -4.5942  -11.8434 N   0  0  0  0  0  0  0  0  0  0  0  0
   12.8467   -5.4459  -12.8419 C   0  0  0  0  0  0  0  0  0  0  0  0
    9.0262   -6.8235  -11.8022 N   0  0  0  0  0  0  0  0  0  0  0  0
   11.7462   -4.5845  -12.5276 C   0  0  0  0  0  0  0  0  0  0  0  0
    7.0335   -5.4233  -11.2146 N   0  0  0  0  0  0  0  0  0  0  0  0
   10.5009   -5.2251  -12.1922 C   0  0  0  0  0  0  0  0  0  0  0  0
   13.5739  -11.9934  -12.1999 N   0  0  0  0  0  0  0  0  0  0  0  0
   10.3733   -6.6577  -12.1742 C   0  0  0  0  0  0  0  0  0  0  0  0
   11.5408   -7.5142  -12.5191 C   0  0  0  0  0  0  0  0  0  0  0  0
    8.4005   -5.5957  -11.6136 C   0  0  0  0  0  0  0  0  0  0  0  0
   11.3841   -9.0233  -12.5039 C   0  0  0  0  0  0  0  0  0  0  0  0
   12.6832   -9.8104  -12.6387 C   0  0  1  0  0  0  0  0  0  0  0  0
   13.9021   -8.9482  -12.4756 C   0  0  0  0  0  0  0  0  0  0  0  0
   12.6914  -10.9739  -11.6588 C   0  0  0  0  0  0  0  0  0  0  0  0
    8.3432   -8.1283  -11.7114 C   0  0  0  0  0  0  0  0  0  0  0  0
   14.0585  -12.8157  -11.0996 C   0  0  0  0  0  0  0  0  0  0  0  0
   12.7905  -12.8084  -13.1151 C   0  0  0  0  0  0  0  0  0  0  0  0
    8.4103   -8.8147  -10.3362 C   0  0  0  0  0  0  0  0  0  0  0  0
    8.1467  -10.3195  -10.5321 C   0  0  0  0  0  0  0  0  0  0  0  0
    7.4454  -11.7529   -8.7165 C   0  0  0  0  0  0  0  0  0  0  0  0
  1 23  1  0  0  0  0
  1 24  1  0  0  0  0
  1  2  1  0  0  0  0
  3  4  1  0  0  0  0
  3 17  1  0  0  0  0
  4  6  2  0  0  0  0
  4 13  1  0  0  0  0
  5 10  1  0  0  0  0
  5 14  2  0  0  0  0
  6  8  1  0  0  0  0
  7 12  1  0  0  0  0
  7 14  1  0  0  0  0
  7 19  1  0  0  0  0
  8 10  2  0  0  0  0
  9 14  1  0  0  0  0
 10 12  1  0  0  0  0
 11 18  1  0  0  0  0
 11 20  1  0  0  0  0
 11 21  1  0  0  0  0
 12 13  2  0  0  0  0
 13 15  1  0  0  0  0
 15 16  1  0  0  0  0
 16 17  1  0  0  0  0
 16 18  1  1  0  0  0
 19 22  1  0  0  0  0
 22 23  1  0  0  0  0
M  END
>  <CHROM.1>
-124.50494835,90.39230369,155.77804449,154.63097881,-158.98233645,162.93596930
10.78213899,-8.69921099,-11.66768784,1.12972843,-0.40621011,2.88264254

>  <Name>
ligand

>  <RI>
0

>  <Rbt.Current_Directory>
/home/itssahil/PROJECTS/Mol_Feturizer/New_Systems/rnas/3TZR

>  <Rbt.Executable>
rbdock ($Id: //depot/dev/client3/rdock/2013.1/src/exe/rbdock.cxx#4 $)

>  <Rbt.Library>
libRbt.so (2013.1, Build901 2013/11/27)

>  <Rbt.Parameter_File>
/export/apps/rDock/src/rDock_2013.1_src/data/scripts/dock_solv.prm

>  <Rbt.Receptor>
prm/pocket_docking_3.prm

>  <SCORE>
-35.6469

>  <SCORE.INTER>
-25.8607

>  <SCORE.INTER.CONST>
1

>  <SCORE.INTER.POLAR>
-0.715045

>  <SCORE.INTER.ROT>
6

>  <SCORE.INTER.SOLV>
19.5531

>  <SCORE.INTER.VDW>
-28.9747

>  <SCORE.INTER.norm>
-1.07753

>  <SCORE.INTRA>
-9.78617

>  <SCORE.INTRA.DIHEDRAL>
4.24262

>  <SCORE.INTRA.DIHEDRAL.0>
4.94008

>  <SCORE.INTRA.POLAR>
0

>  <SCORE.INTRA.POLAR.0>
0

>  <SCORE.INTRA.REPUL>
0

>  <SCORE.INTRA.REPUL.0>
0

>  <SCORE.INTRA.SOLV>
-0.112174

>  <SCORE.INTRA.SOLV.lig_0>
-31.4704

>  <SCORE.INTRA.VDW>
-11.8514

>  <SCORE.INTRA.VDW.0>
10.2807

>  <SCORE.INTRA.norm>
-0.407757

>  <SCORE.RESTR>
0

>  <SCORE.RESTR.CAVITY>
0

>  <SCORE.RESTR.norm>
0

>  <SCORE.SYSTEM>
0

>  <SCORE.SYSTEM.CONST>
0

>  <SCORE.SYSTEM.DIHEDRAL>
0

>  <SCORE.SYSTEM.SOLV>
0

>  <SCORE.SYSTEM.norm>
0

>  <SCORE.heavy>
24

>  <SCORE.norm>
-1.48529

>  <RMSD>
1.130

$$$$
ligand
 OpenBabel11021811493D
libRbt.so/2013.1/901 2013/11/27
 24 26  0  0  0  0  0  0  0  0999 V2000
    6.0216  -10.2439  -11.1332 N   0  0  0  0  0  0  0  0  0  0  0  0
    6.8962  -11.2097  -10.4878 C   0  0  0  0  0  0  0  0  0  0  0  0
   13.6058   -7.4898  -13.2175 O   0  0  0  0  0  0  0  0  0  0  0  0
   12.4893   -6.7607  -12.8308 C   0  0  0  0  0  0  0  0  0  0  0  0
    8.9439   -4.6729  -11.6773 N   0  0  0  0  0  0  0  0  0  0  0  0
   12.5212   -5.2571  -12.7605 C   0  0  0  0  0  0  0  0  0  0  0  0
    8.8086   -6.9142  -11.7383 N   0  0  0  0  0  0  0  0  0  0  0  0
   11.3754   -4.4806  -12.3917 C   0  0  0  0  0  0  0  0  0  0  0  0
    6.7438   -5.6683  -11.0593 N   0  0  0  0  0  0  0  0  0  0  0  0
   10.1769   -5.2116  -12.0710 C   0  0  0  0  0  0  0  0  0  0  0  0
   13.5498  -11.8262  -12.5012 N   0  0  0  0  0  0  0  0  0  0  0  0
   10.1371   -6.6486  -12.1192 C   0  0  0  0  0  0  0  0  0  0  0  0
   11.3491   -7.4146  -12.5193 C   0  0  0  0  0  0  0  0  0  0  0  0
    8.1124   -5.7374  -11.4836 C   0  0  0  0  0  0  0  0  0  0  0  0
   11.2848   -8.9296  -12.5736 C   0  0  0  0  0  0  0  0  0  0  0  0
   12.6272   -9.6281  -12.7623 C   0  0  1  0  0  0  0  0  0  0  0  0
   13.7937   -8.7009  -12.5742 C   0  0  0  0  0  0  0  0  0  0  0  0
   12.7217  -10.8332  -11.8388 C   0  0  0  0  0  0  0  0  0  0  0  0
    8.2079   -8.2614  -11.7006 C   0  0  0  0  0  0  0  0  0  0  0  0
   14.2251  -12.6183  -11.4822 C   0  0  0  0  0  0  0  0  0  0  0  0
   12.6683  -12.6790  -13.2830 C   0  0  0  0  0  0  0  0  0  0  0  0
    6.9705   -8.4582  -12.5933 C   0  0  0  0  0  0  0  0  0  0  0  0
    6.5191   -9.9263  -12.4794 C   0  0  0  0  0  0  0  0  0  0  0  0
    4.6794  -10.8124  -11.1856 C   0  0  0  0  0  0  0  0  0  0  0  0
  1 23  1  0  0  0  0
  1 24  1  0  0  0  0
  1  2  1  0  0  0  0
  3  4  1  0  0  0  0
  3 17  1  0  0  0  0
  4  6  2  0  0  0  0
  4 13  1  0  0  0  0
  5 10  1  0  0  0  0
  5 14  2  0  0  0  0
  6  8  1  0  0  0  0
  7 12  1  0  0  0  0
  7 14  1  0  0  0  0
  7 19  1  0  0  0  0
  8 10  2  0  0  0  0
  9 14  1  0  0  0  0
 10 12  1  0  0  0  0
 11 18  1  0  0  0  0
 11 20  1  0  0  0  0
 11 21  1  0  0  0  0
 12 13  2  0  0  0  0
 13 15  1  0  0  0  0
 15 16  1  0  0  0  0
 16 17  1  0  0  0  0
 16 18  1  1  0  0  0
 19 22  1  0  0  0  0
 22 23  1  0  0  0  0
M  END
>  <CHROM.1>
-114.46611706,-121.00940099,150.72499941,149.03252544,177.45933735,66.65453174
10.16108452,-8.48743875,-12.09243605,2.87440054,0.16896391,-0.04093848

>  <Name>
ligand

>  <RI>
0

>  <Rbt.Current_Directory>
/home/itssahil/PROJECTS/Mol_Feturizer/New_Systems/rnas/3TZR

>  <Rbt.Executable>
rbdock ($Id: //depot/dev/client3/rdock/2013.1/src/exe/rbdock.cxx#4 $)

>  <Rbt.Library>
libRbt.so (2013.1, Build901 2013/11/27)

>  <Rbt.Parameter_File>
/export/apps/rDock/src/rDock_2013.1_src/data/scripts/dock_solv.prm

>  <Rbt.Receptor>
prm/blind_docking_80.prm

>  <SCORE>
-31.8406

>  <SCORE.INTER>
-22.6145

>  <SCORE.INTER.CONST>
1

>  <SCORE.INTER.POLAR>
0

>  <SCORE.INTER.ROT>
6

>  <SCORE.INTER.SOLV>
20.8321

>  <SCORE.INTER.VDW>
-29.6204

>  <SCORE.INTER.norm>
-0.942271

>  <SCORE.INTRA>
-9.23193

>  <SCORE.INTRA.DIHEDRAL>
2.82384

>  <SCORE.INTRA.DIHEDRAL.0>
4.94008

>  <SCORE.INTRA.POLAR>
0

>  <SCORE.INTRA.POLAR.0>
0

>  <SCORE.INTRA.REPUL>
0

>  <SCORE.INTRA.REPUL.0>
0

>  <SCORE.INTRA.SOLV>
0.895528

>  <SCORE.INTRA.SOLV.lig_0>
-31.4704

>  <SCORE.INTRA.VDW>
-11.0916

>  <SCORE.INTRA.VDW.0>
10.2807

>  <SCORE.INTRA.norm>
-0.384664

>  <SCORE.RESTR>
0.00582466

>  <SCORE.RESTR.CAVITY>
0.00582466

>  <SCORE.RESTR.norm>
0.000242694

>  <SCORE.SYSTEM>
0

>  <SCORE.SYSTEM.CONST>
0

>  <SCORE.SYSTEM.DIHEDRAL>
0

>  <SCORE.SYSTEM.SOLV>
0

>  <SCORE.SYSTEM.norm>
0

>  <SCORE.heavy>
24

>  <SCORE.norm>
-1.32669

>  <RMSD>
1.133

$$$$
ligand
 OpenBabel11021811493D
libRbt.so/2013.1/901 2013/11/27
 24 26  0  0  0  0  0  0  0  0999 V2000
    6.8263  -10.8971  -10.0070 N   0  0  0  0  0  0  0  0  0  0  0  0
    7.9938  -11.4744   -9.3604 C   0  0  0  0  0  0  0  0  0  0  0  0
   12.8772   -5.6049  -12.7276 O   0  0  0  0  0  0  0  0  0  0  0  0
   11.5381   -5.2619  -12.5972 C   0  0  0  0  0  0  0  0  0  0  0  0
    7.3701   -4.3863  -12.2500 N   0  0  0  0  0  0  0  0  0  0  0  0
   11.0982   -3.8225  -12.5592 C   0  0  0  0  0  0  0  0  0  0  0  0
    7.9353   -6.5601  -12.2818 N   0  0  0  0  0  0  0  0  0  0  0  0
    9.7211   -3.4425  -12.4534 C   0  0  0  0  0  0  0  0  0  0  0  0
    5.4974   -6.0219  -12.0734 N   0  0  0  0  0  0  0  0  0  0  0  0
    8.7614   -4.5126  -12.3681 C   0  0  0  0  0  0  0  0  0  0  0  0
   11.9142  -10.2056  -11.8672 N   0  0  0  0  0  0  0  0  0  0  0  0
    9.1693   -5.8918  -12.3877 C   0  0  0  0  0  0  0  0  0  0  0  0
   10.6111   -6.2407  -12.5108 C   0  0  0  0  0  0  0  0  0  0  0  0
    6.8789   -5.6587  -12.2052 C   0  0  0  0  0  0  0  0  0  0  0  0
   11.0211   -7.7012  -12.5395 C   0  0  0  0  0  0  0  0  0  0  0  0
   12.5209   -7.9548  -12.4306 C   0  0  1  0  0  0  0  0  0  0  0  0
   13.2880   -6.7273  -12.0296 C   0  0  0  0  0  0  0  0  0  0  0  0
   12.7860   -9.1106  -11.4777 C   0  0  0  0  0  0  0  0  0  0  0  0
    7.7764   -8.0261  -12.3351 C   0  0  0  0  0  0  0  0  0  0  0  0
   12.4953  -10.8683  -13.0269 C   0  0  0  0  0  0  0  0  0  0  0  0
   11.8530  -11.1342  -10.7495 C   0  0  0  0  0  0  0  0  0  0  0  0
    7.5426   -8.7148  -10.9795 C   0  0  0  0  0  0  0  0  0  0  0  0
    7.2197  -10.1983  -11.2388 C   0  0  0  0  0  0  0  0  0  0  0  0
    5.8847  -11.9751  -10.2878 C   0  0  0  0  0  0  0  0  0  0  0  0
  1 23  1  0  0  0  0
  1 24  1  0  0  0  0
  1  2  1  0  0  0  0
  3  4  1  0  0  0  0
  3 17  1  0  0  0  0
  4  6  2  0  0  0  0
  4 13  1  0  0  0  0
  5 10  1  0  0  0  0
  5 14  2  0  0  0  0
  6  8  1  0  0  0  0
  7 12  1  0  0  0  0
  7 14  1  0  0  0  0
  7 19  1  0  0  0  0
  8 10  2  0  0  0  0
  9 14  1  0  0  0  0
 10 12  1  0  0  0  0
 11 18  1  0  0  0  0
 11 20  1  0  0  0  0
 11 21  1  0  0  0  0
 12 13  2  0  0  0  0
 13 15  1  0  0  0  0
 15 16  1  0  0  0  0
 16 17  1  0  0  0  0
 16 18  1  1  0  0  0
 19 22  1  0  0  0  0
 22 23  1  0  0  0  0
M  END
>  <CHROM.1>
-90.65581196,103.18828406,78.61583528,49.09916891,172.79316206,-173.26212164
9.61489130,-7.74596859,-11.83060340,2.05614876,-0.14670035,2.88776509

>  <Name>
ligand

>  <RI>
144

>  <Rbt.Current_Directory>
/home/itssahil/PROJECTS/Mol_Feturizer/New_Systems/rnas/3TZR

>  <Rbt.Executable>
rbdock ($Id: //depot/dev/client3/rdock/2013.1/src/exe/rbdock.cxx#4 $)

>  <Rbt.Library>
libRbt.so (2013.1, Build901 2013/11/27)

>  <Rbt.Parameter_File>
/export/apps/rDock/src/rDock_2013.1_src/data/scripts/dock_solv.prm

>  <Rbt.Receptor>
prm/blind_docking_20.prm

>  <SCORE>
-31.0378

>  <SCORE.INTER>
-22.8241

>  <SCORE.INTER.CONST>
1

>  <SCORE.INTER.POLAR>
0

>  <SCORE.INTER.ROT>
6

>  <SCORE.INTER.SOLV>
21.5578

>  <SCORE.INTER.VDW>
-30.002

>  <SCORE.INTER.norm>
-0.951005

>  <SCORE.INTRA>
-10.6319

>  <SCORE.INTRA.DIHEDRAL>
-1.02991

>  <SCORE.INTRA.DIHEDRAL.0>
4.94008

>  <SCORE.INTRA.POLAR>
0

>  <SCORE.INTRA.POLAR.0>
0

>  <SCORE.INTRA.REPUL>
0

>  <SCORE.INTRA.REPUL.0>
0

>  <SCORE.INTRA.SOLV>
0.243409

>  <SCORE.INTRA.SOLV.lig_0>
-31.4704

>  <SCORE.INTRA.VDW>
-10.2386

>  <SCORE.INTRA.VDW.0>
10.2807

>  <SCORE.INTRA.norm>
-0.442995

>  <SCORE.RESTR>
2.41815

>  <SCORE.RESTR.CAVITY>
2.41815

>  <SCORE.RESTR.norm>
0.100756

>  <SCORE.SYSTEM>
0

>  <SCORE.SYSTEM.CONST>
0

>  <SCORE.SYSTEM.DIHEDRAL>
0

>  <SCORE.SYSTEM.SOLV>
0

>  <SCORE.SYSTEM.norm>
0

>  <SCORE.heavy>
24

>  <SCORE.norm>
-1.29324

>  <RMSD>
1.134

$$$$
ligand
 OpenBabel11021811493D
libRbt.so/2013.1/901 2013/11/27
 24 26  0  0  0  0  0  0  0  0999 V2000
    6.9131  -10.7425  -11.2290 N   0  0  0  0  0  0  0  0  0  0  0  0
    5.6676  -10.4317  -11.9121 C   0  0  0  0  0  0  0  0  0  0  0  0
   13.2332   -6.0121  -12.8920 O   0  0  0  0  0  0  0  0  0  0  0  0
   11.9211   -5.5878  -12.7306 C   0  0  0  0  0  0  0  0  0  0  0  0
    7.8242   -4.4613  -12.2766 N   0  0  0  0  0  0  0  0  0  0  0  0
   11.5621   -4.1258  -12.7537 C   0  0  0  0  0  0  0  0  0  0  0  0
    8.2685   -6.6623  -12.2126 N   0  0  0  0  0  0  0  0  0  0  0  0
   10.2131   -3.6636  -12.6175 C   0  0  0  0  0  0  0  0  0  0  0  0
    5.8738   -5.9772  -11.9431 N   0  0  0  0  0  0  0  0  0  0  0  0
    9.2007   -4.6719  -12.4393 C   0  0  0  0  0  0  0  0  0  0  0  0
   12.5625  -10.6782  -12.0696 N   0  0  0  0  0  0  0  0  0  0  0  0
    9.5318   -6.0712  -12.4000 C   0  0  0  0  0  0  0  0  0  0  0  0
   10.9464   -6.5068  -12.5575 C   0  0  0  0  0  0  0  0  0  0  0  0
    7.2666   -5.6999  -12.1454 C   0  0  0  0  0  0  0  0  0  0  0  0
   11.2747   -7.9877  -12.5229 C   0  0  0  0  0  0  0  0  0  0  0  0
   12.7616   -8.3197  -12.4562 C   0  0  1  0  0  0  0  0  0  0  0  0
   13.6098   -7.1185  -12.1504 C   0  0  0  0  0  0  0  0  0  0  0  0
   13.0013   -9.4380  -11.4531 C   0  0  0  0  0  0  0  0  0  0  0  0
    8.0279   -8.1178  -12.1811 C   0  0  0  0  0  0  0  0  0  0  0  0
   13.6667  -11.2225  -12.8483 C   0  0  0  0  0  0  0  0  0  0  0  0
   12.2146  -11.5992  -10.9990 C   0  0  0  0  0  0  0  0  0  0  0  0
    8.4868   -8.8356  -10.9001 C   0  0  0  0  0  0  0  0  0  0  0  0
    7.2962   -9.6363  -10.3402 C   0  0  0  0  0  0  0  0  0  0  0  0
    6.7230  -11.9804  -10.4815 C   0  0  0  0  0  0  0  0  0  0  0  0
  1 23  1  0  0  0  0
  1 24  1  0  0  0  0
  1  2  1  0  0  0  0
  3  4  1  0  0  0  0
  3 17  1  0  0  0  0
  4  6  2  0  0  0  0
  4 13  1  0  0  0  0
  5 10  1  0  0  0  0
  5 14  2  0  0  0  0
  6  8  1  0  0  0  0
  7 12  1  0  0  0  0
  7 14  1  0  0  0  0
  7 19  1  0  0  0  0
  8 10  2  0  0  0  0
  9 14  1  0  0  0  0
 10 12  1  0  0  0  0
 11 18  1  0  0  0  0
 11 20  1  0  0  0  0
 11 21  1  0  0  0  0
 12 13  2  0  0  0  0
 13 15  1  0  0  0  0
 15 16  1  0  0  0  0
 16 17  1  0  0  0  0
 16 18  1  1  0  0  0
 19 22  1  0  0  0  0
 22 23  1  0  0  0  0
M  END
>  <CHROM.1>
-106.75854000,74.22092961,86.61486388,75.13063972,126.63100474,66.75971434
9.91857536,-7.87259308,-11.99807008,-2.81200241,0.12526183,-0.18489728

>  <Name>
ligand

>  <RI>
0

>  <Rbt.Current_Directory>
/home/itssahil/PROJECTS/Mol_Feturizer/New_Systems/rnas/3TZR

>  <Rbt.Executable>
rbdock ($Id: //depot/dev/client3/rdock/2013.1/src/exe/rbdock.cxx#4 $)

>  <Rbt.Library>
libRbt.so (2013.1, Build901 2013/11/27)

>  <Rbt.Parameter_File>
/export/apps/rDock/src/rDock_2013.1_src/data/scripts/dock_solv.prm

>  <Rbt.Receptor>
prm/blind_docking_80.prm

>  <SCORE>
-33.1582

>  <SCORE.INTER>
-25.1384

>  <SCORE.INTER.CONST>
1

>  <SCORE.INTER.POLAR>
0

>  <SCORE.INTER.ROT>
6

>  <SCORE.INTER.SOLV>
20.588

>  <SCORE.INTER.VDW>
-31.2216

>  <SCORE.INTER.norm>
-1.04743

>  <SCORE.INTRA>
-8.01981

>  <SCORE.INTRA.DIHEDRAL>
5.74941

>  <SCORE.INTRA.DIHEDRAL.0>
4.94008

>  <SCORE.INTRA.POLAR>
0

>  <SCORE.INTRA.POLAR.0>
0

>  <SCORE.INTRA.REPUL>
0

>  <SCORE.INTRA.REPUL.0>
0

>  <SCORE.INTRA.SOLV>
0.609114

>  <SCORE.INTRA.SOLV.lig_0>
-31.4704

>  <SCORE.INTRA.VDW>
-11.1991

>  <SCORE.INTRA.VDW.0>
10.2807

>  <SCORE.INTRA.norm>
-0.334159

>  <SCORE.RESTR>
0

>  <SCORE.RESTR.CAVITY>
0

>  <SCORE.RESTR.norm>
0

>  <SCORE.SYSTEM>
0

>  <SCORE.SYSTEM.CONST>
0

>  <SCORE.SYSTEM.DIHEDRAL>
0

>  <SCORE.SYSTEM.SOLV>
0

>  <SCORE.SYSTEM.norm>
0

>  <SCORE.heavy>
24

>  <SCORE.norm>
-1.38159

>  <RMSD>
1.137

$$$$
ligand
 OpenBabel11021811493D
libRbt.so/2013.1/901 2013/11/27
 24 26  0  0  0  0  0  0  0  0999 V2000
    6.4881   -9.9534  -11.0984 N   0  0  0  0  0  0  0  0  0  0  0  0
    7.5239  -10.5562  -10.2750 C   0  0  0  0  0  0  0  0  0  0  0  0
   13.4769   -7.6551  -13.0819 O   0  0  0  0  0  0  0  0  0  0  0  0
   12.4668   -6.7519  -12.7788 C   0  0  0  0  0  0  0  0  0  0  0  0
    9.2308   -4.1176  -11.8581 N   0  0  0  0  0  0  0  0  0  0  0  0
   12.6741   -5.2676  -12.9226 C   0  0  0  0  0  0  0  0  0  0  0  0
    8.8365   -6.3137  -11.5987 N   0  0  0  0  0  0  0  0  0  0  0  0
   11.6398   -4.3167  -12.6434 C   0  0  0  0  0  0  0  0  0  0  0  0
    6.9555   -4.7491  -11.0596 N   0  0  0  0  0  0  0  0  0  0  0  0
   10.3780   -4.8485  -12.1975 C   0  0  0  0  0  0  0  0  0  0  0  0
   13.2136  -11.6757  -11.6201 N   0  0  0  0  0  0  0  0  0  0  0  0
   10.1715   -6.2634  -12.0411 C   0  0  0  0  0  0  0  0  0  0  0  0
   11.2715   -7.2161  -12.3542 C   0  0  0  0  0  0  0  0  0  0  0  0
    8.2902   -5.0386  -11.4985 C   0  0  0  0  0  0  0  0  0  0  0  0
   11.0315   -8.7055  -12.1923 C   0  0  0  0  0  0  0  0  0  0  0  0
   12.2766   -9.5782  -12.3084 C   0  0  1  0  0  0  0  0  0  0  0  0
   13.5483   -8.7795  -12.2778 C   0  0  0  0  0  0  0  0  0  0  0  0
   12.2665  -10.6470  -11.2259 C   0  0  0  0  0  0  0  0  0  0  0  0
    8.0867   -7.5616  -11.3583 C   0  0  0  0  0  0  0  0  0  0  0  0
   13.4746  -12.5286  -10.4684 C   0  0  0  0  0  0  0  0  0  0  0  0
   12.5950  -12.4562  -12.6800 C   0  0  0  0  0  0  0  0  0  0  0  0
    7.2137   -8.0439  -12.5297 C   0  0  0  0  0  0  0  0  0  0  0  0
    7.0369   -9.5689  -12.4067 C   0  0  0  0  0  0  0  0  0  0  0  0
    5.4046  -10.9191  -11.2423 C   0  0  0  0  0  0  0  0  0  0  0  0
  1 23  1  0  0  0  0
  1 24  1  0  0  0  0
  1  2  1  0  0  0  0
  3  4  1  0  0  0  0
  3 17  1  0  0  0  0
  4  6  2  0  0  0  0
  4 13  1  0  0  0  0
  5 10  1  0  0  0  0
  5 14  2  0  0  0  0
  6  8  1  0  0  0  0
  7 12  1  0  0  0  0
  7 14  1  0  0  0  0
  7 19  1  0  0  0  0
  8 10  2  0  0  0  0
  9 14  1  0  0  0  0
 10 12  1  0  0  0  0
 11 18  1  0  0  0  0
 11 20  1  0  0  0  0
 11 21  1  0  0  0  0
 12 13  2  0  0  0  0
 13 15  1  0  0  0  0
 15 16  1  0  0  0  0
 16 17  1  0  0  0  0
 16 18  1  1  0  0  0
 19 22  1  0  0  0  0
 22 23  1  0  0  0  0
M  END
>  <CHROM.1>
-106.32842762,-95.24274015,165.94816872,162.64435800,154.48661545,55.31081418
10.20658157,-8.20289059,-11.88270216,2.39706021,0.14585313,-0.12343795

>  <Name>
ligand

>  <RI>
0

>  <Rbt.Current_Directory>
/home/itssahil/PROJECTS/Mol_Feturizer/New_Systems/rnas/3TZR

>  <Rbt.Executable>
rbdock ($Id: //depot/dev/client3/rdock/2013.1/src/exe/rbdock.cxx#4 $)

>  <Rbt.Library>
libRbt.so (2013.1, Build901 2013/11/27)

>  <Rbt.Parameter_File>
/export/apps/rDock/src/rDock_2013.1_src/data/scripts/dock_solv.prm

>  <Rbt.Receptor>
prm/pocket_docking_2.prm

>  <SCORE>
-30.5633

>  <SCORE.INTER>
-21.7196

>  <SCORE.INTER.CONST>
1

>  <SCORE.INTER.POLAR>
0

>  <SCORE.INTER.ROT>
6

>  <SCORE.INTER.SOLV>
23.2524

>  <SCORE.INTER.VDW>
-29.8306

>  <SCORE.INTER.norm>
-0.904985

>  <SCORE.INTRA>
-8.9385

>  <SCORE.INTRA.DIHEDRAL>
1.87551

>  <SCORE.INTRA.DIHEDRAL.0>
4.94008

>  <SCORE.INTRA.POLAR>
0

>  <SCORE.INTRA.POLAR.0>
0

>  <SCORE.INTRA.REPUL>
0

>  <SCORE.INTRA.REPUL.0>
0

>  <SCORE.INTRA.SOLV>
0.253873

>  <SCORE.INTRA.SOLV.lig_0>
-31.4704

>  <SCORE.INTRA.VDW>
-10.0032

>  <SCORE.INTRA.VDW.0>
10.2807

>  <SCORE.INTRA.norm>
-0.372437

>  <SCORE.RESTR>
0.0948183

>  <SCORE.RESTR.CAVITY>
0.0948183

>  <SCORE.RESTR.norm>
0.00395076

>  <SCORE.SYSTEM>
0

>  <SCORE.SYSTEM.CONST>
0

>  <SCORE.SYSTEM.DIHEDRAL>
0

>  <SCORE.SYSTEM.SOLV>
0

>  <SCORE.SYSTEM.norm>
0

>  <SCORE.heavy>
24

>  <SCORE.norm>
-1.27347

>  <RMSD>
1.137

$$$$
ligand
 OpenBabel11021811493D
libRbt.so/2013.1/901 2013/11/27
 24 26  0  0  0  0  0  0  0  0999 V2000
    7.6812  -10.3960  -10.5961 N   0  0  0  0  0  0  0  0  0  0  0  0
    6.2817  -10.7514  -10.7671 C   0  0  0  0  0  0  0  0  0  0  0  0
   13.8904   -7.8274  -13.1021 O   0  0  0  0  0  0  0  0  0  0  0  0
   12.8567   -6.9408  -12.8317 C   0  0  0  0  0  0  0  0  0  0  0  0
    9.5495   -4.3538  -12.0385 N   0  0  0  0  0  0  0  0  0  0  0  0
   13.0849   -5.4526  -12.8167 C   0  0  0  0  0  0  0  0  0  0  0  0
    9.1196   -6.5585  -12.0240 N   0  0  0  0  0  0  0  0  0  0  0  0
   12.0299   -4.5160  -12.5682 C   0  0  0  0  0  0  0  0  0  0  0  0
    7.1970   -5.0219  -11.5561 N   0  0  0  0  0  0  0  0  0  0  0  0
   10.7242   -5.0676  -12.3141 C   0  0  0  0  0  0  0  0  0  0  0  0
   13.4615  -11.9509  -12.0375 N   0  0  0  0  0  0  0  0  0  0  0  0
   10.4957   -6.4877  -12.3102 C   0  0  0  0  0  0  0  0  0  0  0  0
   11.6197   -7.4241  -12.5851 C   0  0  0  0  0  0  0  0  0  0  0  0
    8.5709   -5.2898  -11.8696 C   0  0  0  0  0  0  0  0  0  0  0  0
   11.3569   -8.9184  -12.5863 C   0  0  0  0  0  0  0  0  0  0  0  0
   12.6036   -9.7948  -12.6430 C   0  0  1  0  0  0  0  0  0  0  0  0
   13.8673   -9.0202  -12.4002 C   0  0  0  0  0  0  0  0  0  0  0  0
   12.4689  -10.9560  -11.6695 C   0  0  0  0  0  0  0  0  0  0  0  0
    8.3426   -7.8122  -11.9817 C   0  0  0  0  0  0  0  0  0  0  0  0
   13.7538  -12.7665  -10.8665 C   0  0  0  0  0  0  0  0  0  0  0  0
   12.8823  -12.7803  -13.0824 C   0  0  0  0  0  0  0  0  0  0  0  0
    7.3479   -7.9338  -10.8144 C   0  0  0  0  0  0  0  0  0  0  0  0
    7.7977   -9.0994   -9.9137 C   0  0  0  0  0  0  0  0  0  0  0  0
    8.3277  -11.4564   -9.8313 C   0  0  0  0  0  0  0  0  0  0  0  0
  1 23  1  0  0  0  0
  1 24  1  0  0  0  0
  1  2  1  0  0  0  0
  3  4  1  0  0  0  0
  3 17  1  0  0  0  0
  4  6  2  0  0  0  0
  4 13  1  0  0  0  0
  5 10  1  0  0  0  0
  5 14  2  0  0  0  0
  6  8  1  0  0  0  0
  7 12  1  0  0  0  0
  7 14  1  0  0  0  0
  7 19  1  0  0  0  0
  8 10  2  0  0  0  0
  9 14  1  0  0  0  0
 10 12  1  0  0  0  0
 11 18  1  0  0  0  0
 11 20  1  0  0  0  0
 11 21  1  0  0  0  0
 12 13  2  0  0  0  0
 13 15  1  0  0  0  0
 15 16  1  0  0  0  0
 16 17  1  0  0  0  0
 16 18  1  1  0  0  0
 19 22  1  0  0  0  0
 22 23  1  0  0  0  0
M  END
>  <CHROM.1>
-70.24931754,137.32367074,156.38219935,163.38337202,-115.63062843,-66.67619041
10.61761318,-8.41502806,-11.85415546,2.29600036,0.29143736,-0.18266690

>  <Name>
ligand

>  <RI>
0

>  <Rbt.Current_Directory>
/home/itssahil/PROJECTS/Mol_Feturizer/New_Systems/rnas/3TZR

>  <Rbt.Executable>
rbdock ($Id: //depot/dev/client3/rdock/2013.1/src/exe/rbdock.cxx#4 $)

>  <Rbt.Library>
libRbt.so (2013.1, Build901 2013/11/27)

>  <Rbt.Parameter_File>
/export/apps/rDock/src/rDock_2013.1_src/data/scripts/dock_solv.prm

>  <Rbt.Receptor>
prm/pocket_docking_7.prm

>  <SCORE>
-31.4053

>  <SCORE.INTER>
-24.2648

>  <SCORE.INTER.CONST>
1

>  <SCORE.INTER.POLAR>
0

>  <SCORE.INTER.ROT>
6

>  <SCORE.INTER.SOLV>
19.8559

>  <SCORE.INTER.VDW>
-30.3952

>  <SCORE.INTER.norm>
-1.01103

>  <SCORE.INTRA>
-7.14055

>  <SCORE.INTRA.DIHEDRAL>
3.81126

>  <SCORE.INTRA.DIHEDRAL.0>
4.94008

>  <SCORE.INTRA.POLAR>
0

>  <SCORE.INTRA.POLAR.0>
0

>  <SCORE.INTRA.REPUL>
0

>  <SCORE.INTRA.REPUL.0>
0

>  <SCORE.INTRA.SOLV>
1.24018

>  <SCORE.INTRA.SOLV.lig_0>
-31.4704

>  <SCORE.INTRA.VDW>
-9.66627

>  <SCORE.INTRA.VDW.0>
10.2807

>  <SCORE.INTRA.norm>
-0.297523

>  <SCORE.RESTR>
0

>  <SCORE.RESTR.CAVITY>
0

>  <SCORE.RESTR.norm>
0

>  <SCORE.SYSTEM>
0

>  <SCORE.SYSTEM.CONST>
0

>  <SCORE.SYSTEM.DIHEDRAL>
0

>  <SCORE.SYSTEM.SOLV>
0

>  <SCORE.SYSTEM.norm>
0

>  <SCORE.heavy>
24

>  <SCORE.norm>
-1.30856

>  <RMSD>
1.137

$$$$
ligand
 OpenBabel11021811493D
libRbt.so/2013.1/901 2013/11/27
 24 26  0  0  0  0  0  0  0  0999 V2000
    6.1484  -10.3389  -11.3158 N   0  0  0  0  0  0  0  0  0  0  0  0
    5.3609  -11.3248  -10.5932 C   0  0  0  0  0  0  0  0  0  0  0  0
   13.3359   -6.3607  -12.9589 O   0  0  0  0  0  0  0  0  0  0  0  0
   12.0784   -5.8490  -12.6683 C   0  0  0  0  0  0  0  0  0  0  0  0
    8.1323   -4.4461  -11.8200 N   0  0  0  0  0  0  0  0  0  0  0  0
   11.8345   -4.3651  -12.5936 C   0  0  0  0  0  0  0  0  0  0  0  0
    8.4061   -6.6744  -11.8953 N   0  0  0  0  0  0  0  0  0  0  0  0
   10.5413   -3.8116  -12.3232 C   0  0  0  0  0  0  0  0  0  0  0  0
    6.1019   -5.8280  -11.3941 N   0  0  0  0  0  0  0  0  0  0  0  0
    9.4704   -4.7498  -12.1074 C   0  0  0  0  0  0  0  0  0  0  0  0
   12.9732  -11.0291  -12.4863 N   0  0  0  0  0  0  0  0  0  0  0  0
    9.6928   -6.1699  -12.1607 C   0  0  0  0  0  0  0  0  0  0  0  0
   11.0516   -6.7007  -12.4565 C   0  0  0  0  0  0  0  0  0  0  0  0
    7.4915   -5.6449  -11.6997 C   0  0  0  0  0  0  0  0  0  0  0  0
   11.2644   -8.2018  -12.5181 C   0  0  0  0  0  0  0  0  0  0  0  0
   12.7212   -8.6465  -12.5920 C   0  0  1  0  0  0  0  0  0  0  0  0
   13.6829   -7.5294  -12.3034 C   0  0  0  0  0  0  0  0  0  0  0  0
   12.9521   -9.8306  -11.6653 C   0  0  0  0  0  0  0  0  0  0  0  0
    8.0553   -8.1076  -11.9110 C   0  0  0  0  0  0  0  0  0  0  0  0
   14.3545  -11.3158  -12.8491 C   0  0  0  0  0  0  0  0  0  0  0  0
   12.4394  -12.1181  -11.6834 C   0  0  0  0  0  0  0  0  0  0  0  0
    7.9203   -8.7697  -10.5289 C   0  0  0  0  0  0  0  0  0  0  0  0
    7.4939  -10.2356  -10.7333 C   0  0  0  0  0  0  0  0  0  0  0  0
    6.2075  -10.7442  -12.7157 C   0  0  0  0  0  0  0  0  0  0  0  0
  1 23  1  0  0  0  0
  1 24  1  0  0  0  0
  1  2  1  0  0  0  0
  3  4  1  0  0  0  0
  3 17  1  0  0  0  0
  4  6  2  0  0  0  0
  4 13  1  0  0  0  0
  5 10  1  0  0  0  0
  5 14  2  0  0  0  0
  6  8  1  0  0  0  0
  7 12  1  0  0  0  0
  7 14  1  0  0  0  0
  7 19  1  0  0  0  0
  8 10  2  0  0  0  0
  9 14  1  0  0  0  0
 10 12  1  0  0  0  0
 11 18  1  0  0  0  0
 11 20  1  0  0  0  0
 11 21  1  0  0  0  0
 12 13  2  0  0  0  0
 13 15  1  0  0  0  0
 15 16  1  0  0  0  0
 16 17  1  0  0  0  0
 16 18  1  1  0  0  0
 19 22  1  0  0  0  0
 22 23  1  0  0  0  0
M  END
>  <CHROM.1>
-133.58299854,102.54009053,93.18701770,101.52560138,177.56387033,-65.67615295
9.98149626,-8.00757551,-11.99002189,-3.13658828,0.16788264,-0.07475064

>  <Name>
ligand

>  <RI>
144

>  <Rbt.Current_Directory>
/home/itssahil/PROJECTS/Mol_Feturizer/New_Systems/rnas/3TZR

>  <Rbt.Executable>
rbdock ($Id: //depot/dev/client3/rdock/2013.1/src/exe/rbdock.cxx#4 $)

>  <Rbt.Library>
libRbt.so (2013.1, Build901 2013/11/27)

>  <Rbt.Parameter_File>
/export/apps/rDock/src/rDock_2013.1_src/data/scripts/dock_solv.prm

>  <Rbt.Receptor>
prm/pocket_docking_8.prm

>  <SCORE>
-34.5487

>  <SCORE.INTER>
-25.2691

>  <SCORE.INTER.CONST>
1

>  <SCORE.INTER.POLAR>
0

>  <SCORE.INTER.ROT>
6

>  <SCORE.INTER.SOLV>
20.5203

>  <SCORE.INTER.VDW>
-31.2861

>  <SCORE.INTER.norm>
-1.05288

>  <SCORE.INTRA>
-9.27962

>  <SCORE.INTRA.DIHEDRAL>
4.04792

>  <SCORE.INTRA.DIHEDRAL.0>
4.94008

>  <SCORE.INTRA.POLAR>
0

>  <SCORE.INTRA.POLAR.0>
0

>  <SCORE.INTRA.REPUL>
0

>  <SCORE.INTRA.REPUL.0>
0

>  <SCORE.INTRA.SOLV>
0.275294

>  <SCORE.INTRA.SOLV.lig_0>
-31.4704

>  <SCORE.INTRA.VDW>
-11.4412

>  <SCORE.INTRA.VDW.0>
10.2807

>  <SCORE.INTRA.norm>
-0.386651

>  <SCORE.RESTR>
0

>  <SCORE.RESTR.CAVITY>
0

>  <SCORE.RESTR.norm>
0

>  <SCORE.SYSTEM>
0

>  <SCORE.SYSTEM.CONST>
0

>  <SCORE.SYSTEM.DIHEDRAL>
0

>  <SCORE.SYSTEM.SOLV>
0

>  <SCORE.SYSTEM.norm>
0

>  <SCORE.heavy>
24

>  <SCORE.norm>
-1.43953

>  <RMSD>
1.137

$$$$
ligand
 OpenBabel11021811493D
libRbt.so/2013.1/901 2013/11/27
 24 26  0  0  0  0  0  0  0  0999 V2000
    6.9689  -10.8038  -11.2560 N   0  0  0  0  0  0  0  0  0  0  0  0
    5.8136  -10.5674  -12.1068 C   0  0  0  0  0  0  0  0  0  0  0  0
   13.2323   -6.0251  -12.9042 O   0  0  0  0  0  0  0  0  0  0  0  0
   11.9235   -5.5932  -12.7357 C   0  0  0  0  0  0  0  0  0  0  0  0
    7.8357   -4.4435  -12.2593 N   0  0  0  0  0  0  0  0  0  0  0  0
   11.5724   -4.1293  -12.7592 C   0  0  0  0  0  0  0  0  0  0  0  0
    8.2682   -6.6467  -12.1941 N   0  0  0  0  0  0  0  0  0  0  0  0
   10.2268   -3.6595  -12.6157 C   0  0  0  0  0  0  0  0  0  0  0  0
    5.8789   -5.9480  -11.9116 N   0  0  0  0  0  0  0  0  0  0  0  0
    9.2099   -4.6620  -12.4298 C   0  0  0  0  0  0  0  0  0  0  0  0
   12.5066  -10.6802  -12.0551 N   0  0  0  0  0  0  0  0  0  0  0  0
    9.5336   -6.0629  -12.3900 C   0  0  0  0  0  0  0  0  0  0  0  0
   10.9448   -6.5066  -12.5552 C   0  0  0  0  0  0  0  0  0  0  0  0
    7.2720   -5.6788  -12.1226 C   0  0  0  0  0  0  0  0  0  0  0  0
   11.2652   -7.9893  -12.5200 C   0  0  0  0  0  0  0  0  0  0  0  0
   12.7506   -8.3293  -12.4615 C   0  0  1  0  0  0  0  0  0  0  0  0
   13.6073   -7.1322  -12.1628 C   0  0  0  0  0  0  0  0  0  0  0  0
   12.9901   -9.4472  -11.4580 C   0  0  0  0  0  0  0  0  0  0  0  0
    8.0198   -8.1008  -12.1587 C   0  0  0  0  0  0  0  0  0  0  0  0
   13.5803  -11.2598  -12.8509 C   0  0  0  0  0  0  0  0  0  0  0  0
   12.1562  -11.5831  -10.9700 C   0  0  0  0  0  0  0  0  0  0  0  0
    8.4025   -8.8045  -10.8452 C   0  0  0  0  0  0  0  0  0  0  0  0
    7.2006   -9.6473  -10.3789 C   0  0  0  0  0  0  0  0  0  0  0  0
    6.7205  -12.0143  -10.4810 C   0  0  0  0  0  0  0  0  0  0  0  0
  1 23  1  0  0  0  0
  1 24  1  0  0  0  0
  1  2  1  0  0  0  0
  3  4  1  0  0  0  0
  3 17  1  0  0  0  0
  4  6  2  0  0  0  0
  4 13  1  0  0  0  0
  5 10  1  0  0  0  0
  5 14  2  0  0  0  0
  6  8  1  0  0  0  0
  7 12  1  0  0  0  0
  7 14  1  0  0  0  0
  7 19  1  0  0  0  0
  8 10  2  0  0  0  0
  9 14  1  0  0  0  0
 10 12  1  0  0  0  0
 11 18  1  0  0  0  0
 11 20  1  0  0  0  0
 11 21  1  0  0  0  0
 12 13  2  0  0  0  0
 13 15  1  0  0  0  0
 15 16  1  0  0  0  0
 16 17  1  0  0  0  0
 16 18  1  1  0  0  0
 19 22  1  0  0  0  0
 22 23  1  0  0  0  0
M  END
>  <CHROM.1>
-104.95355995,77.85199215,87.01791647,73.57020416,129.27894771,69.65837271
9.91119336,-7.88058955,-12.00187520,-2.69523707,0.12397856,-0.17781545

>  <Name>
ligand

>  <RI>
0

>  <Rbt.Current_Directory>
/home/itssahil/PROJECTS/Mol_Feturizer/New_Systems/rnas/3TZR

>  <Rbt.Executable>
rbdock ($Id: //depot/dev/client3/rdock/2013.1/src/exe/rbdock.cxx#4 $)

>  <Rbt.Library>
libRbt.so (2013.1, Build901 2013/11/27)

>  <Rbt.Parameter_File>
/export/apps/rDock/src/rDock_2013.1_src/data/scripts/dock_solv.prm

>  <Rbt.Receptor>
prm/pocket_docking_3.prm

>  <SCORE>
-33.2028

>  <SCORE.INTER>
-24.9957

>  <SCORE.INTER.CONST>
1

>  <SCORE.INTER.POLAR>
0

>  <SCORE.INTER.ROT>
6

>  <SCORE.INTER.SOLV>
20.6442

>  <SCORE.INTER.VDW>
-31.1452

>  <SCORE.INTER.norm>
-1.04149

>  <SCORE.INTRA>
-8.20708

>  <SCORE.INTRA.DIHEDRAL>
5.59541

>  <SCORE.INTRA.DIHEDRAL.0>
4.94008

>  <SCORE.INTRA.POLAR>
0

>  <SCORE.INTRA.POLAR.0>
0

>  <SCORE.INTRA.REPUL>
0

>  <SCORE.INTRA.REPUL.0>
0

>  <SCORE.INTRA.SOLV>
0.507836

>  <SCORE.INTRA.SOLV.lig_0>
-31.4704

>  <SCORE.INTRA.VDW>
-11.2587

>  <SCORE.INTRA.VDW.0>
10.2807

>  <SCORE.INTRA.norm>
-0.341962

>  <SCORE.RESTR>
0

>  <SCORE.RESTR.CAVITY>
0

>  <SCORE.RESTR.norm>
0

>  <SCORE.SYSTEM>
0

>  <SCORE.SYSTEM.CONST>
0

>  <SCORE.SYSTEM.DIHEDRAL>
0

>  <SCORE.SYSTEM.SOLV>
0

>  <SCORE.SYSTEM.norm>
0

>  <SCORE.heavy>
24

>  <SCORE.norm>
-1.38345

>  <RMSD>
1.138

$$$$
ligand
 OpenBabel11021811493D
libRbt.so/2013.1/901 2013/11/27
 24 26  0  0  0  0  0  0  0  0999 V2000
    7.2188  -10.6755  -11.0312 N   0  0  0  0  0  0  0  0  0  0  0  0
    6.5214  -11.9103  -10.7101 C   0  0  0  0  0  0  0  0  0  0  0  0
   13.2321   -5.8195  -12.8034 O   0  0  0  0  0  0  0  0  0  0  0  0
   11.8901   -5.4900  -12.6684 C   0  0  0  0  0  0  0  0  0  0  0  0
    7.7149   -4.6575  -12.3027 N   0  0  0  0  0  0  0  0  0  0  0  0
   11.4328   -4.0555  -12.6582 C   0  0  0  0  0  0  0  0  0  0  0  0
    8.3065   -6.8244  -12.2916 N   0  0  0  0  0  0  0  0  0  0  0  0
   10.0521   -3.6899  -12.5483 C   0  0  0  0  0  0  0  0  0  0  0  0
    5.8641   -6.3113  -12.0729 N   0  0  0  0  0  0  0  0  0  0  0  0
    9.1064   -4.7695  -12.4306 C   0  0  0  0  0  0  0  0  0  0  0  0
   12.6242  -10.5109  -12.0340 N   0  0  0  0  0  0  0  0  0  0  0  0
    9.5312   -6.1437  -12.4235 C   0  0  0  0  0  0  0  0  0  0  0  0
   10.9761   -6.4777  -12.5520 C   0  0  0  0  0  0  0  0  0  0  0  0
    7.2397   -5.9344  -12.2253 C   0  0  0  0  0  0  0  0  0  0  0  0
   11.4038   -7.9335  -12.5521 C   0  0  0  0  0  0  0  0  0  0  0  0
   12.9075   -8.1663  -12.4512 C   0  0  1  0  0  0  0  0  0  0  0  0
   13.6629   -6.9210  -12.0845 C   0  0  0  0  0  0  0  0  0  0  0  0
   13.1952   -9.2974  -11.4755 C   0  0  0  0  0  0  0  0  0  0  0  0
    8.1652   -8.2931  -12.3110 C   0  0  0  0  0  0  0  0  0  0  0  0
   13.6705  -11.2251  -12.7530 C   0  0  0  0  0  0  0  0  0  0  0  0
   12.1491  -11.3215  -10.9237 C   0  0  0  0  0  0  0  0  0  0  0  0
    6.7538   -8.8167  -12.6280 C   0  0  0  0  0  0  0  0  0  0  0  0
    6.2575   -9.6341  -11.4205 C   0  0  0  0  0  0  0  0  0  0  0  0
    7.9896  -10.2731   -9.8602 C   0  0  0  0  0  0  0  0  0  0  0  0
  1 23  1  0  0  0  0
  1 24  1  0  0  0  0
  1  2  1  0  0  0  0
  3  4  1  0  0  0  0
  3 17  1  0  0  0  0
  4  6  2  0  0  0  0
  4 13  1  0  0  0  0
  5 10  1  0  0  0  0
  5 14  2  0  0  0  0
  6  8  1  0  0  0  0
  7 12  1  0  0  0  0
  7 14  1  0  0  0  0
  7 19  1  0  0  0  0
  8 10  2  0  0  0  0
  9 14  1  0  0  0  0
 10 12  1  0  0  0  0
 11 18  1  0  0  0  0
 11 20  1  0  0  0  0
 11 21  1  0  0  0  0
 12 13  2  0  0  0  0
 13 15  1  0  0  0  0
 15 16  1  0  0  0  0
 16 17  1  0  0  0  0
 16 18  1  1  0  0  0
 19 22  1  0  0  0  0
 22 23  1  0  0  0  0
M  END
>  <CHROM.1>
-138.22381534,-160.14460048,95.63027776,64.32755053,-118.84570475,-52.93987147
9.91920531,-7.85192608,-12.02224512,-2.88574537,0.09470975,-0.20535672

>  <Name>
ligand

>  <RI>
0

>  <Rbt.Current_Directory>
/home/itssahil/PROJECTS/Mol_Feturizer/New_Systems/rnas/3TZR

>  <Rbt.Executable>
rbdock ($Id: //depot/dev/client3/rdock/2013.1/src/exe/rbdock.cxx#4 $)

>  <Rbt.Library>
libRbt.so (2013.1, Build901 2013/11/27)

>  <Rbt.Parameter_File>
/export/apps/rDock/src/rDock_2013.1_src/data/scripts/dock_solv.prm

>  <Rbt.Receptor>
prm/blind_docking_40.prm

>  <SCORE>
-27.311

>  <SCORE.INTER>
-22.3345

>  <SCORE.INTER.CONST>
1

>  <SCORE.INTER.POLAR>
0

>  <SCORE.INTER.ROT>
6

>  <SCORE.INTER.SOLV>
19.8266

>  <SCORE.INTER.VDW>
-29.0985

>  <SCORE.INTER.norm>
-0.930604

>  <SCORE.INTRA>
-5.04896

>  <SCORE.INTRA.DIHEDRAL>
5.60691

>  <SCORE.INTRA.DIHEDRAL.0>
4.94008

>  <SCORE.INTRA.POLAR>
0

>  <SCORE.INTRA.POLAR.0>
0

>  <SCORE.INTRA.REPUL>
0

>  <SCORE.INTRA.REPUL.0>
0

>  <SCORE.INTRA.SOLV>
2.58168

>  <SCORE.INTRA.SOLV.lig_0>
-31.4704

>  <SCORE.INTRA.VDW>
-9.14326

>  <SCORE.INTRA.VDW.0>
10.2807

>  <SCORE.INTRA.norm>
-0.210373

>  <SCORE.RESTR>
0.0724239

>  <SCORE.RESTR.CAVITY>
0.0724239

>  <SCORE.RESTR.norm>
0.00301766

>  <SCORE.SYSTEM>
0

>  <SCORE.SYSTEM.CONST>
0

>  <SCORE.SYSTEM.DIHEDRAL>
0

>  <SCORE.SYSTEM.SOLV>
0

>  <SCORE.SYSTEM.norm>
0

>  <SCORE.heavy>
24

>  <SCORE.norm>
-1.13796

>  <RMSD>
1.140

$$$$
ligand
 OpenBabel11021811493D
libRbt.so/2013.1/901 2013/11/27
 24 26  0  0  0  0  0  0  0  0999 V2000
    8.4926  -10.9509   -9.4326 N   0  0  0  0  0  0  0  0  0  0  0  0
    8.5456  -12.2986   -9.9759 C   0  0  0  0  0  0  0  0  0  0  0  0
   13.2203   -6.0860  -13.2233 O   0  0  0  0  0  0  0  0  0  0  0  0
   11.9684   -5.6348  -12.8271 C   0  0  0  0  0  0  0  0  0  0  0  0
    8.0469   -4.4247  -11.6371 N   0  0  0  0  0  0  0  0  0  0  0  0
   11.6377   -4.1662  -12.7993 C   0  0  0  0  0  0  0  0  0  0  0  0
    8.4556   -6.6335  -11.6326 N   0  0  0  0  0  0  0  0  0  0  0  0
   10.3456   -3.6766  -12.4214 C   0  0  0  0  0  0  0  0  0  0  0  0
    6.1646   -5.8995  -10.9333 N   0  0  0  0  0  0  0  0  0  0  0  0
    9.3655   -4.6635  -12.0487 C   0  0  0  0  0  0  0  0  0  0  0  0
   12.4662  -10.6890  -12.1226 N   0  0  0  0  0  0  0  0  0  0  0  0
    9.6730   -6.0687  -12.0561 C   0  0  0  0  0  0  0  0  0  0  0  0
   11.0261   -6.5332  -12.4673 C   0  0  0  0  0  0  0  0  0  0  0  0
    7.5008   -5.6511  -11.3920 C   0  0  0  0  0  0  0  0  0  0  0  0
   11.3285   -8.0200  -12.4780 C   0  0  0  0  0  0  0  0  0  0  0  0
   12.7959   -8.3807  -12.6832 C   0  0  1  0  0  0  0  0  0  0  0  0
   13.7075   -7.1942  -12.5521 C   0  0  0  0  0  0  0  0  0  0  0  0
   13.1965   -9.4962  -11.7297 C   0  0  0  0  0  0  0  0  0  0  0  0
    8.1988   -8.0837  -11.5417 C   0  0  0  0  0  0  0  0  0  0  0  0
   13.3571  -11.5412  -12.8984 C   0  0  0  0  0  0  0  0  0  0  0  0
   12.0645  -11.3763  -10.9053 C   0  0  0  0  0  0  0  0  0  0  0  0
    7.9351   -8.6202  -10.1242 C   0  0  0  0  0  0  0  0  0  0  0  0
    7.5828  -10.1159  -10.2297 C   0  0  0  0  0  0  0  0  0  0  0  0
    8.0511  -11.0389   -8.0452 C   0  0  0  0  0  0  0  0  0  0  0  0
  1 23  1  0  0  0  0
  1 24  1  0  0  0  0
  1  2  1  0  0  0  0
  3  4  1  0  0  0  0
  3 17  1  0  0  0  0
  4  6  2  0  0  0  0
  4 13  1  0  0  0  0
  5 10  1  0  0  0  0
  5 14  2  0  0  0  0
  6  8  1  0  0  0  0
  7 12  1  0  0  0  0
  7 14  1  0  0  0  0
  7 19  1  0  0  0  0
  8 10  2  0  0  0  0
  9 14  1  0  0  0  0
 10 12  1  0  0  0  0
 11 18  1  0  0  0  0
 11 20  1  0  0  0  0
 11 21  1  0  0  0  0
 12 13  2  0  0  0  0
 13 15  1  0  0  0  0
 15 16  1  0  0  0  0
 16 17  1  0  0  0  0
 16 18  1  1  0  0  0
 19 22  1  0  0  0  0
 22 23  1  0  0  0  0
M  END
>  <CHROM.1>
-154.88589397,115.70452628,100.26122753,66.59846728,175.70583732,122.59195055
10.22767977,-7.94821403,-11.55245581,1.66120350,-0.38670474,2.84715474

>  <Name>
ligand

>  <RI>
0

>  <Rbt.Current_Directory>
/home/itssahil/PROJECTS/Mol_Feturizer/New_Systems/rnas/3TZR

>  <Rbt.Executable>
rbdock ($Id: //depot/dev/client3/rdock/2013.1/src/exe/rbdock.cxx#4 $)

>  <Rbt.Library>
libRbt.so (2013.1, Build901 2013/11/27)

>  <Rbt.Parameter_File>
/export/apps/rDock/src/rDock_2013.1_src/data/scripts/dock_solv.prm

>  <Rbt.Receptor>
prm/blind_docking_40.prm

>  <SCORE>
-34.8461

>  <SCORE.INTER>
-26.0628

>  <SCORE.INTER.CONST>
1

>  <SCORE.INTER.POLAR>
-0.713733

>  <SCORE.INTER.ROT>
6

>  <SCORE.INTER.SOLV>
19.9315

>  <SCORE.INTER.VDW>
-29.2399

>  <SCORE.INTER.norm>
-1.08595

>  <SCORE.INTRA>
-8.78327

>  <SCORE.INTRA.DIHEDRAL>
4.76094

>  <SCORE.INTRA.DIHEDRAL.0>
4.94008

>  <SCORE.INTRA.POLAR>
0

>  <SCORE.INTRA.POLAR.0>
0

>  <SCORE.INTRA.REPUL>
0

>  <SCORE.INTRA.REPUL.0>
0

>  <SCORE.INTRA.SOLV>
0.757238

>  <SCORE.INTRA.SOLV.lig_0>
-31.4704

>  <SCORE.INTRA.VDW>
-11.5424

>  <SCORE.INTRA.VDW.0>
10.2807

>  <SCORE.INTRA.norm>
-0.36597

>  <SCORE.RESTR>
0

>  <SCORE.RESTR.CAVITY>
0

>  <SCORE.RESTR.norm>
0

>  <SCORE.SYSTEM>
0

>  <SCORE.SYSTEM.CONST>
0

>  <SCORE.SYSTEM.DIHEDRAL>
0

>  <SCORE.SYSTEM.SOLV>
0

>  <SCORE.SYSTEM.norm>
0

>  <SCORE.heavy>
24

>  <SCORE.norm>
-1.45192

>  <RMSD>
1.140

$$$$
ligand
 OpenBabel11021811493D
libRbt.so/2013.1/901 2013/11/27
 24 26  0  0  0  0  0  0  0  0999 V2000
    6.5165  -10.4614  -10.7097 N   0  0  0  0  0  0  0  0  0  0  0  0
    6.2783  -11.7556  -10.0911 C   0  0  0  0  0  0  0  0  0  0  0  0
   13.1908   -6.0417  -12.9836 O   0  0  0  0  0  0  0  0  0  0  0  0
   11.8888   -5.5929  -12.8075 C   0  0  0  0  0  0  0  0  0  0  0  0
    7.8195   -4.3921  -12.2994 N   0  0  0  0  0  0  0  0  0  0  0  0
   11.5479   -4.1284  -12.8838 C   0  0  0  0  0  0  0  0  0  0  0  0
    8.2373   -6.5943  -12.1530 N   0  0  0  0  0  0  0  0  0  0  0  0
   10.2088   -3.6423  -12.7336 C   0  0  0  0  0  0  0  0  0  0  0  0
    5.8592   -5.8656  -11.8530 N   0  0  0  0  0  0  0  0  0  0  0  0
    9.1886   -4.6283  -12.4874 C   0  0  0  0  0  0  0  0  0  0  0  0
   12.6380  -10.6802  -12.0061 N   0  0  0  0  0  0  0  0  0  0  0  0
    9.5028   -6.0290  -12.3969 C   0  0  0  0  0  0  0  0  0  0  0  0
   10.9073   -6.4904  -12.5711 C   0  0  0  0  0  0  0  0  0  0  0  0
    7.2497   -5.6163  -12.1017 C   0  0  0  0  0  0  0  0  0  0  0  0
   11.2176   -7.9729  -12.4818 C   0  0  0  0  0  0  0  0  0  0  0  0
   12.7014   -8.3221  -12.4383 C   0  0  1  0  0  0  0  0  0  0  0  0
   13.5723   -7.1208  -12.2052 C   0  0  0  0  0  0  0  0  0  0  0  0
   12.9525   -9.4003  -11.3949 C   0  0  0  0  0  0  0  0  0  0  0  0
    7.9792   -8.0437  -12.0537 C   0  0  0  0  0  0  0  0  0  0  0  0
   13.8261  -11.1679  -12.6934 C   0  0  0  0  0  0  0  0  0  0  0  0
   12.2768  -11.5979  -10.9371 C   0  0  0  0  0  0  0  0  0  0  0  0
    8.2521   -8.6703  -10.6754 C   0  0  0  0  0  0  0  0  0  0  0  0
    7.9582  -10.1797  -10.7623 C   0  0  0  0  0  0  0  0  0  0  0  0
    5.9326  -10.4837  -12.0460 C   0  0  0  0  0  0  0  0  0  0  0  0
  1 23  1  0  0  0  0
  1 24  1  0  0  0  0
  1  2  1  0  0  0  0
  3  4  1  0  0  0  0
  3 17  1  0  0  0  0
  4  6  2  0  0  0  0
  4 13  1  0  0  0  0
  5 10  1  0  0  0  0
  5 14  2  0  0  0  0
  6  8  1  0  0  0  0
  7 12  1  0  0  0  0
  7 14  1  0  0  0  0
  7 19  1  0  0  0  0
  8 10  2  0  0  0  0
  9 14  1  0  0  0  0
 10 12  1  0  0  0  0
 11 18  1  0  0  0  0
 11 20  1  0  0  0  0
 11 21  1  0  0  0  0
 12 13  2  0  0  0  0
 13 15  1  0  0  0  0
 15 16  1  0  0  0  0
 16 17  1  0  0  0  0
 16 18  1  1  0  0  0
 19 22  1  0  0  0  0
 22 23  1  0  0  0  0
M  END
>  <CHROM.1>
-149.54348381,83.64671921,87.03331461,82.07120050,-178.90113995,-78.12964209
9.90479857,-7.84460964,-11.96323520,-2.84792956,0.14097354,-0.21533896

>  <Name>
ligand

>  <RI>
0

>  <Rbt.Current_Directory>
/home/itssahil/PROJECTS/Mol_Feturizer/New_Systems/rnas/3TZR

>  <Rbt.Executable>
rbdock ($Id: //depot/dev/client3/rdock/2013.1/src/exe/rbdock.cxx#4 $)

>  <Rbt.Library>
libRbt.so (2013.1, Build901 2013/11/27)

>  <Rbt.Parameter_File>
/export/apps/rDock/src/rDock_2013.1_src/data/scripts/dock_solv.prm

>  <Rbt.Receptor>
prm/pocket_docking_2.prm

>  <SCORE>
-35.1821

>  <SCORE.INTER>
-25.1374

>  <SCORE.INTER.CONST>
1

>  <SCORE.INTER.POLAR>
0

>  <SCORE.INTER.ROT>
6

>  <SCORE.INTER.SOLV>
21.227

>  <SCORE.INTER.VDW>
-31.4339

>  <SCORE.INTER.norm>
-1.04739

>  <SCORE.INTRA>
-10.2531

>  <SCORE.INTRA.DIHEDRAL>
1.31487

>  <SCORE.INTRA.DIHEDRAL.0>
4.94008

>  <SCORE.INTRA.POLAR>
0

>  <SCORE.INTRA.POLAR.0>
0

>  <SCORE.INTRA.REPUL>
0

>  <SCORE.INTRA.REPUL.0>
0

>  <SCORE.INTRA.SOLV>
0.0737872

>  <SCORE.INTRA.SOLV.lig_0>
-31.4704

>  <SCORE.INTRA.VDW>
-10.9474

>  <SCORE.INTRA.VDW.0>
10.2807

>  <SCORE.INTRA.norm>
-0.427211

>  <SCORE.RESTR>
0.208326

>  <SCORE.RESTR.CAVITY>
0.208326

>  <SCORE.RESTR.norm>
0.00868025

>  <SCORE.SYSTEM>
0

>  <SCORE.SYSTEM.CONST>
0

>  <SCORE.SYSTEM.DIHEDRAL>
0

>  <SCORE.SYSTEM.SOLV>
0

>  <SCORE.SYSTEM.norm>
0

>  <SCORE.heavy>
24

>  <SCORE.norm>
-1.46592

>  <RMSD>
1.141

$$$$
ligand
 OpenBabel11021811493D
libRbt.so/2013.1/901 2013/11/27
 24 26  0  0  0  0  0  0  0  0999 V2000
    6.4433  -10.5301  -10.9816 N   0  0  0  0  0  0  0  0  0  0  0  0
    6.0519  -11.7614  -10.3145 C   0  0  0  0  0  0  0  0  0  0  0  0
   13.2603   -6.1147  -12.9691 O   0  0  0  0  0  0  0  0  0  0  0  0
   11.9693   -5.6511  -12.7546 C   0  0  0  0  0  0  0  0  0  0  0  0
    7.9306   -4.4035  -12.1289 N   0  0  0  0  0  0  0  0  0  0  0  0
   11.6463   -4.1814  -12.8041 C   0  0  0  0  0  0  0  0  0  0  0  0
    8.3222   -6.6127  -12.0205 N   0  0  0  0  0  0  0  0  0  0  0  0
   10.3180   -3.6798  -12.6140 C   0  0  0  0  0  0  0  0  0  0  0  0
    5.9624   -5.8567  -11.6514 N   0  0  0  0  0  0  0  0  0  0  0  0
    9.2912   -4.6553  -12.3544 C   0  0  0  0  0  0  0  0  0  0  0  0
   12.4419  -10.7190  -11.9358 N   0  0  0  0  0  0  0  0  0  0  0  0
    9.5887   -6.0611  -12.2892 C   0  0  0  0  0  0  0  0  0  0  0  0
   10.9820   -6.5385  -12.5047 C   0  0  0  0  0  0  0  0  0  0  0  0
    7.3495   -5.6225  -11.9320 C   0  0  0  0  0  0  0  0  0  0  0  0
   11.2745   -8.0260  -12.4416 C   0  0  0  0  0  0  0  0  0  0  0  0
   12.7541   -8.3953  -12.4400 C   0  0  1  0  0  0  0  0  0  0  0  0
   13.6467   -7.2086  -12.2141 C   0  0  0  0  0  0  0  0  0  0  0  0
   13.0168   -9.4899  -11.4168 C   0  0  0  0  0  0  0  0  0  0  0  0
    8.0472   -8.0598  -11.9326 C   0  0  0  0  0  0  0  0  0  0  0  0
   13.4353  -11.3748  -12.7754 C   0  0  0  0  0  0  0  0  0  0  0  0
   12.1228  -11.5667  -10.7978 C   0  0  0  0  0  0  0  0  0  0  0  0
    7.9969   -8.6373  -10.5076 C   0  0  0  0  0  0  0  0  0  0  0  0
    7.8171  -10.1636  -10.6092 C   0  0  0  0  0  0  0  0  0  0  0  0
    6.3222  -10.7362  -12.4204 C   0  0  0  0  0  0  0  0  0  0  0  0
  1 23  1  0  0  0  0
  1 24  1  0  0  0  0
  1  2  1  0  0  0  0
  3  4  1  0  0  0  0
  3 17  1  0  0  0  0
  4  6  2  0  0  0  0
  4 13  1  0  0  0  0
  5 10  1  0  0  0  0
  5 14  2  0  0  0  0
  6  8  1  0  0  0  0
  7 12  1  0  0  0  0
  7 14  1  0  0  0  0
  7 19  1  0  0  0  0
  8 10  2  0  0  0  0
  9 14  1  0  0  0  0
 10 12  1  0  0  0  0
 11 18  1  0  0  0  0
 11 20  1  0  0  0  0
 11 21  1  0  0  0  0
 12 13  2  0  0  0  0
 13 15  1  0  0  0  0
 15 16  1  0  0  0  0
 16 17  1  0  0  0  0
 16 18  1  1  0  0  0
 19 22  1  0  0  0  0
 22 23  1  0  0  0  0
M  END
>  <CHROM.1>
-144.78633880,98.60043579,87.39791900,71.64300319,-175.43658899,-75.00692685
9.91223963,-7.89458723,-11.92835788,-2.64637933,0.14404558,-0.17404046

>  <Name>
ligand

>  <RI>
0

>  <Rbt.Current_Directory>
/home/itssahil/PROJECTS/Mol_Feturizer/New_Systems/rnas/3TZR

>  <Rbt.Executable>
rbdock ($Id: //depot/dev/client3/rdock/2013.1/src/exe/rbdock.cxx#4 $)

>  <Rbt.Library>
libRbt.so (2013.1, Build901 2013/11/27)

>  <Rbt.Parameter_File>
/export/apps/rDock/src/rDock_2013.1_src/data/scripts/dock_solv.prm

>  <Rbt.Receptor>
prm/blind_docking_80.prm

>  <SCORE>
-35.8887

>  <SCORE.INTER>
-25.1342

>  <SCORE.INTER.CONST>
1

>  <SCORE.INTER.POLAR>
0

>  <SCORE.INTER.ROT>
6

>  <SCORE.INTER.SOLV>
20.5768

>  <SCORE.INTER.VDW>
-31.2151

>  <SCORE.INTER.norm>
-1.04726

>  <SCORE.INTRA>
-10.7545

>  <SCORE.INTRA.DIHEDRAL>
0.312926

>  <SCORE.INTRA.DIHEDRAL.0>
4.94008

>  <SCORE.INTRA.POLAR>
0

>  <SCORE.INTRA.POLAR.0>
0

>  <SCORE.INTRA.REPUL>
0

>  <SCORE.INTRA.REPUL.0>
0

>  <SCORE.INTRA.SOLV>
0.177145

>  <SCORE.INTRA.SOLV.lig_0>
-31.4704

>  <SCORE.INTRA.VDW>
-10.9995

>  <SCORE.INTRA.VDW.0>
10.2807

>  <SCORE.INTRA.norm>
-0.448103

>  <SCORE.RESTR>
0

>  <SCORE.RESTR.CAVITY>
0

>  <SCORE.RESTR.norm>
0

>  <SCORE.SYSTEM>
0

>  <SCORE.SYSTEM.CONST>
0

>  <SCORE.SYSTEM.DIHEDRAL>
0

>  <SCORE.SYSTEM.SOLV>
0

>  <SCORE.SYSTEM.norm>
0

>  <SCORE.heavy>
24

>  <SCORE.norm>
-1.49536

>  <RMSD>
1.151

$$$$
ligand
 OpenBabel11021811493D
libRbt.so/2013.1/901 2013/11/27
 24 26  0  0  0  0  0  0  0  0999 V2000
    6.6107  -10.3403  -11.0421 N   0  0  0  0  0  0  0  0  0  0  0  0
    6.5813  -11.6525  -10.4163 C   0  0  0  0  0  0  0  0  0  0  0  0
   13.6001   -7.6776  -12.8469 O   0  0  0  0  0  0  0  0  0  0  0  0
   12.5619   -6.7721  -12.6733 C   0  0  0  0  0  0  0  0  0  0  0  0
    9.2421   -4.1271  -12.1816 N   0  0  0  0  0  0  0  0  0  0  0  0
   12.8066   -5.2866  -12.6931 C   0  0  0  0  0  0  0  0  0  0  0  0
    8.7856   -6.3256  -12.1218 N   0  0  0  0  0  0  0  0  0  0  0  0
   11.7493   -4.3317  -12.5444 C   0  0  0  0  0  0  0  0  0  0  0  0
    6.8556   -4.7550  -11.8302 N   0  0  0  0  0  0  0  0  0  0  0  0
   10.4234   -4.8614  -12.3570 C   0  0  0  0  0  0  0  0  0  0  0  0
   13.0424  -11.7663  -11.6875 N   0  0  0  0  0  0  0  0  0  0  0  0
   10.1780   -6.2782  -12.3207 C   0  0  0  0  0  0  0  0  0  0  0  0
   11.3059   -7.2344  -12.4913 C   0  0  0  0  0  0  0  0  0  0  0  0
    8.2435   -5.0470  -12.0453 C   0  0  0  0  0  0  0  0  0  0  0  0
   11.0257   -8.7253  -12.4597 C   0  0  0  0  0  0  0  0  0  0  0  0
   12.2628   -9.6154  -12.4067 C   0  0  1  0  0  0  0  0  0  0  0  0
   13.5176   -8.8456  -12.1087 C   0  0  0  0  0  0  0  0  0  0  0  0
   12.0518  -10.7415  -11.4059 C   0  0  0  0  0  0  0  0  0  0  0  0
    7.9923   -7.5694  -12.0881 C   0  0  0  0  0  0  0  0  0  0  0  0
   13.2252  -12.5734  -10.4888 C   0  0  0  0  0  0  0  0  0  0  0  0
   12.5205  -12.5946  -12.7632 C   0  0  0  0  0  0  0  0  0  0  0  0
    7.6777   -8.1144  -10.6843 C   0  0  0  0  0  0  0  0  0  0  0  0
    7.8605   -9.6436  -10.7058 C   0  0  0  0  0  0  0  0  0  0  0  0
    6.4778  -10.5226  -12.4831 C   0  0  0  0  0  0  0  0  0  0  0  0
  1 23  1  0  0  0  0
  1 24  1  0  0  0  0
  1  2  1  0  0  0  0
  3  4  1  0  0  0  0
  3 17  1  0  0  0  0
  4  6  2  0  0  0  0
  4 13  1  0  0  0  0
  5 10  1  0  0  0  0
  5 14  2  0  0  0  0
  6  8  1  0  0  0  0
  7 12  1  0  0  0  0
  7 14  1  0  0  0  0
  7 19  1  0  0  0  0
  8 10  2  0  0  0  0
  9 14  1  0  0  0  0
 10 12  1  0  0  0  0
 11 18  1  0  0  0  0
 11 20  1  0  0  0  0
 11 21  1  0  0  0  0
 12 13  2  0  0  0  0
 13 15  1  0  0  0  0
 15 16  1  0  0  0  0
 16 17  1  0  0  0  0
 16 18  1  1  0  0  0
 19 22  1  0  0  0  0
 22 23  1  0  0  0  0
M  END
>  <CHROM.1>
-150.60795168,97.80631041,158.03105763,162.62310684,-138.05761877,-91.01972912
10.24929566,-8.28588161,-11.92954715,1.05700152,-0.14782530,2.99159272

>  <Name>
ligand

>  <RI>
0

>  <Rbt.Current_Directory>
/home/itssahil/PROJECTS/Mol_Feturizer/New_Systems/rnas/3TZR

>  <Rbt.Executable>
rbdock ($Id: //depot/dev/client3/rdock/2013.1/src/exe/rbdock.cxx#4 $)

>  <Rbt.Library>
libRbt.so (2013.1, Build901 2013/11/27)

>  <Rbt.Parameter_File>
/export/apps/rDock/src/rDock_2013.1_src/data/scripts/dock_solv.prm

>  <Rbt.Receptor>
prm/pocket_docking_2.prm

>  <SCORE>
-29.8985

>  <SCORE.INTER>
-22.4214

>  <SCORE.INTER.CONST>
1

>  <SCORE.INTER.POLAR>
0

>  <SCORE.INTER.ROT>
6

>  <SCORE.INTER.SOLV>
21.8968

>  <SCORE.INTER.VDW>
-29.8465

>  <SCORE.INTER.norm>
-0.934224

>  <SCORE.INTRA>
-7.48941

>  <SCORE.INTRA.DIHEDRAL>
6.67975

>  <SCORE.INTRA.DIHEDRAL.0>
4.94008

>  <SCORE.INTRA.POLAR>
0

>  <SCORE.INTRA.POLAR.0>
0

>  <SCORE.INTRA.REPUL>
0

>  <SCORE.INTRA.REPUL.0>
0

>  <SCORE.INTRA.SOLV>
0.159363

>  <SCORE.INTRA.SOLV.lig_0>
-31.4704

>  <SCORE.INTRA.VDW>
-10.909

>  <SCORE.INTRA.VDW.0>
10.2807

>  <SCORE.INTRA.norm>
-0.312059

>  <SCORE.RESTR>
0.0122887

>  <SCORE.RESTR.CAVITY>
0.0122887

>  <SCORE.RESTR.norm>
0.00051203

>  <SCORE.SYSTEM>
0

>  <SCORE.SYSTEM.CONST>
0

>  <SCORE.SYSTEM.DIHEDRAL>
0

>  <SCORE.SYSTEM.SOLV>
0

>  <SCORE.SYSTEM.norm>
0

>  <SCORE.heavy>
24

>  <SCORE.norm>
-1.24577

>  <RMSD>
1.152

$$$$
ligand
 OpenBabel11021811493D
libRbt.so/2013.1/901 2013/11/27
 24 26  0  0  0  0  0  0  0  0999 V2000
    6.9188  -10.6683  -11.4921 N   0  0  0  0  0  0  0  0  0  0  0  0
    5.8679  -10.2221  -12.3926 C   0  0  0  0  0  0  0  0  0  0  0  0
   13.7609   -7.0645  -12.9479 O   0  0  0  0  0  0  0  0  0  0  0  0
   12.5967   -6.3712  -12.6452 C   0  0  0  0  0  0  0  0  0  0  0  0
    8.9122   -4.3934  -11.7666 N   0  0  0  0  0  0  0  0  0  0  0  0
   12.5897   -4.8712  -12.5146 C   0  0  0  0  0  0  0  0  0  0  0  0
    8.8311   -6.6325  -11.9264 N   0  0  0  0  0  0  0  0  0  0  0  0
   11.3971   -4.1302  -12.2306 C   0  0  0  0  0  0  0  0  0  0  0  0
    6.6840   -5.4510  -11.4065 N   0  0  0  0  0  0  0  0  0  0  0  0
   10.1889   -4.8943  -12.0576 C   0  0  0  0  0  0  0  0  0  0  0  0
   13.1816  -11.6015  -12.6348 N   0  0  0  0  0  0  0  0  0  0  0  0
   10.1845   -6.3287  -12.1644 C   0  0  0  0  0  0  0  0  0  0  0  0
   11.4457   -7.0568  -12.4726 C   0  0  0  0  0  0  0  0  0  0  0  0
    8.0885   -5.4791  -11.6965 C   0  0  0  0  0  0  0  0  0  0  0  0
   11.4193   -8.5692  -12.5909 C   0  0  0  0  0  0  0  0  0  0  0  0
   12.7882   -9.2361  -12.6733 C   0  0  1  0  0  0  0  0  0  0  0  0
   13.9109   -8.2971  -12.3361 C   0  0  0  0  0  0  0  0  0  0  0  0
   12.8178  -10.4755  -11.7919 C   0  0  0  0  0  0  0  0  0  0  0  0
    8.2584   -7.9904  -11.9996 C   0  0  0  0  0  0  0  0  0  0  0  0
   14.6257  -11.7802  -12.5686 C   0  0  0  0  0  0  0  0  0  0  0  0
   12.5153  -12.7795  -12.1020 C   0  0  0  0  0  0  0  0  0  0  0  0
    8.4829   -8.8698  -10.7574 C   0  0  0  0  0  0  0  0  0  0  0  0
    7.1831   -9.6448  -10.4709 C   0  0  0  0  0  0  0  0  0  0  0  0
    6.4919  -11.9239  -10.8849 C   0  0  0  0  0  0  0  0  0  0  0  0
  1 23  1  0  0  0  0
  1 24  1  0  0  0  0
  1  2  1  0  0  0  0
  3  4  1  0  0  0  0
  3 17  1  0  0  0  0
  4  6  2  0  0  0  0
  4 13  1  0  0  0  0
  5 10  1  0  0  0  0
  5 14  2  0  0  0  0
  6  8  1  0  0  0  0
  7 12  1  0  0  0  0
  7 14  1  0  0  0  0
  7 19  1  0  0  0  0
  8 10  2  0  0  0  0
  9 14  1  0  0  0  0
 10 12  1  0  0  0  0
 11 18  1  0  0  0  0
 11 20  1  0  0  0  0
 11 21  1  0  0  0  0
 12 13  2  0  0  0  0
 13 15  1  0  0  0  0
 15 16  1  0  0  0  0
 16 17  1  0  0  0  0
 16 18  1  1  0  0  0
 19 22  1  0  0  0  0
 22 23  1  0  0  0  0
M  END
>  <CHROM.1>
-104.03372545,80.56730236,93.20153302,123.31915952,138.93133125,69.62825944
10.36450352,-8.25677043,-12.01500342,2.77118738,0.17391108,-0.04458247

>  <Name>
ligand

>  <RI>
0

>  <Rbt.Current_Directory>
/home/itssahil/PROJECTS/Mol_Feturizer/New_Systems/rnas/3TZR

>  <Rbt.Executable>
rbdock ($Id: //depot/dev/client3/rdock/2013.1/src/exe/rbdock.cxx#4 $)

>  <Rbt.Library>
libRbt.so (2013.1, Build901 2013/11/27)

>  <Rbt.Parameter_File>
/export/apps/rDock/src/rDock_2013.1_src/data/scripts/dock_solv.prm

>  <Rbt.Receptor>
prm/pocket_docking_6.prm

>  <SCORE>
-31.1156

>  <SCORE.INTER>
-24.6172

>  <SCORE.INTER.CONST>
1

>  <SCORE.INTER.POLAR>
0

>  <SCORE.INTER.ROT>
6

>  <SCORE.INTER.SOLV>
20.7456

>  <SCORE.INTER.VDW>
-30.9267

>  <SCORE.INTER.norm>
-1.02572

>  <SCORE.INTRA>
-6.49841

>  <SCORE.INTRA.DIHEDRAL>
9.51266

>  <SCORE.INTRA.DIHEDRAL.0>
4.94008

>  <SCORE.INTRA.POLAR>
0

>  <SCORE.INTRA.POLAR.0>
0

>  <SCORE.INTRA.REPUL>
0

>  <SCORE.INTRA.REPUL.0>
0

>  <SCORE.INTRA.SOLV>
0.232106

>  <SCORE.INTRA.SOLV.lig_0>
-31.4704

>  <SCORE.INTRA.VDW>
-11.3708

>  <SCORE.INTRA.VDW.0>
10.2807

>  <SCORE.INTRA.norm>
-0.270767

>  <SCORE.RESTR>
0

>  <SCORE.RESTR.CAVITY>
0

>  <SCORE.RESTR.norm>
0

>  <SCORE.SYSTEM>
0

>  <SCORE.SYSTEM.CONST>
0

>  <SCORE.SYSTEM.DIHEDRAL>
0

>  <SCORE.SYSTEM.SOLV>
0

>  <SCORE.SYSTEM.norm>
0

>  <SCORE.heavy>
24

>  <SCORE.norm>
-1.29648

>  <RMSD>
1.160

$$$$
ligand
 OpenBabel11021811493D
libRbt.so/2013.1/901 2013/11/27
 24 26  0  0  0  0  0  0  0  0999 V2000
    6.4776  -10.3662  -10.7928 N   0  0  0  0  0  0  0  0  0  0  0  0
    6.1104  -11.6218  -10.1579 C   0  0  0  0  0  0  0  0  0  0  0  0
   13.2122   -6.0192  -12.9173 O   0  0  0  0  0  0  0  0  0  0  0  0
   11.9084   -5.5762  -12.7395 C   0  0  0  0  0  0  0  0  0  0  0  0
    7.8343   -4.3925  -12.2298 N   0  0  0  0  0  0  0  0  0  0  0  0
   11.5649   -4.1112  -12.7918 C   0  0  0  0  0  0  0  0  0  0  0  0
    8.2560   -6.5961  -12.1199 N   0  0  0  0  0  0  0  0  0  0  0  0
   10.2240   -3.6305  -12.6394 C   0  0  0  0  0  0  0  0  0  0  0  0
    5.8749   -5.8774  -11.8185 N   0  0  0  0  0  0  0  0  0  0  0  0
    9.2047   -4.6226  -12.4154 C   0  0  0  0  0  0  0  0  0  0  0  0
   12.6883  -10.6770  -12.0315 N   0  0  0  0  0  0  0  0  0  0  0  0
    9.5214   -6.0241  -12.3479 C   0  0  0  0  0  0  0  0  0  0  0  0
   10.9276   -6.4796  -12.5236 C   0  0  0  0  0  0  0  0  0  0  0  0
    7.2662   -5.6210  -12.0562 C   0  0  0  0  0  0  0  0  0  0  0  0
   11.2406   -7.9628  -12.4587 C   0  0  0  0  0  0  0  0  0  0  0  0
   12.7249   -8.3098  -12.4143 C   0  0  1  0  0  0  0  0  0  0  0  0
   13.5922   -7.1111  -12.1561 C   0  0  0  0  0  0  0  0  0  0  0  0
   12.9733   -9.4056  -11.3888 C   0  0  0  0  0  0  0  0  0  0  0  0
    8.0004   -8.0475  -12.0472 C   0  0  0  0  0  0  0  0  0  0  0  0
   13.8555  -11.0739  -12.8074 C   0  0  0  0  0  0  0  0  0  0  0  0
   12.4414  -11.6520  -10.9808 C   0  0  0  0  0  0  0  0  0  0  0  0
    8.3420   -8.7118  -10.7023 C   0  0  0  0  0  0  0  0  0  0  0  0
    7.9375  -10.1960  -10.7781 C   0  0  0  0  0  0  0  0  0  0  0  0
    5.9601  -10.3798  -12.1564 C   0  0  0  0  0  0  0  0  0  0  0  0
  1 23  1  0  0  0  0
  1 24  1  0  0  0  0
  1  2  1  0  0  0  0
  3  4  1  0  0  0  0
  3 17  1  0  0  0  0
  4  6  2  0  0  0  0
  4 13  1  0  0  0  0
  5 10  1  0  0  0  0
  5 14  2  0  0  0  0
  6  8  1  0  0  0  0
  7 12  1  0  0  0  0
  7 14  1  0  0  0  0
  7 19  1  0  0  0  0
  8 10  2  0  0  0  0
  9 14  1  0  0  0  0
 10 12  1  0  0  0  0
 11 18  1  0  0  0  0
 11 20  1  0  0  0  0
 11 21  1  0  0  0  0
 12 13  2  0  0  0  0
 13 15  1  0  0  0  0
 15 16  1  0  0  0  0
 16 17  1  0  0  0  0
 16 18  1  1  0  0  0
 19 22  1  0  0  0  0
 22 23  1  0  0  0  0
M  END
>  <CHROM.1>
-149.20750935,80.39441969,81.92333670,83.11668820,176.70038356,-70.32058447
9.92295385,-7.82640300,-11.95420109,-2.96126480,0.13676966,-0.19648977

>  <Name>
ligand

>  <RI>
0

>  <Rbt.Current_Directory>
/home/itssahil/PROJECTS/Mol_Feturizer/New_Systems/rnas/3TZR

>  <Rbt.Executable>
rbdock ($Id: //depot/dev/client3/rdock/2013.1/src/exe/rbdock.cxx#4 $)

>  <Rbt.Library>
libRbt.so (2013.1, Build901 2013/11/27)

>  <Rbt.Parameter_File>
/export/apps/rDock/src/rDock_2013.1_src/data/scripts/dock_solv.prm

>  <Rbt.Receptor>
prm/pocket_docking_2.prm

>  <SCORE>
-34.9695

>  <SCORE.INTER>
-25.207

>  <SCORE.INTER.CONST>
1

>  <SCORE.INTER.POLAR>
0

>  <SCORE.INTER.ROT>
6

>  <SCORE.INTER.SOLV>
21.18

>  <SCORE.INTER.VDW>
-31.4647

>  <SCORE.INTER.norm>
-1.05029

>  <SCORE.INTRA>
-10.032

>  <SCORE.INTRA.DIHEDRAL>
0.427342

>  <SCORE.INTRA.DIHEDRAL.0>
4.94008

>  <SCORE.INTRA.POLAR>
0

>  <SCORE.INTRA.POLAR.0>
0

>  <SCORE.INTRA.REPUL>
0

>  <SCORE.INTRA.REPUL.0>
0

>  <SCORE.INTRA.SOLV>
0.148311

>  <SCORE.INTRA.SOLV.lig_0>
-31.4704

>  <SCORE.INTRA.VDW>
-10.3199

>  <SCORE.INTRA.VDW.0>
10.2807

>  <SCORE.INTRA.norm>
-0.418001

>  <SCORE.RESTR>
0.269577

>  <SCORE.RESTR.CAVITY>
0.269577

>  <SCORE.RESTR.norm>
0.0112324

>  <SCORE.SYSTEM>
0

>  <SCORE.SYSTEM.CONST>
0

>  <SCORE.SYSTEM.DIHEDRAL>
0

>  <SCORE.SYSTEM.SOLV>
0

>  <SCORE.SYSTEM.norm>
0

>  <SCORE.heavy>
24

>  <SCORE.norm>
-1.45706

>  <RMSD>
1.164

$$$$
ligand
 OpenBabel11021811493D
libRbt.so/2013.1/901 2013/11/27
 24 26  0  0  0  0  0  0  0  0999 V2000
    6.4590  -10.5423  -10.9769 N   0  0  0  0  0  0  0  0  0  0  0  0
    6.0938  -11.7757  -10.2988 C   0  0  0  0  0  0  0  0  0  0  0  0
   13.2370   -6.0772  -12.9596 O   0  0  0  0  0  0  0  0  0  0  0  0
   11.9361   -5.6306  -12.7699 C   0  0  0  0  0  0  0  0  0  0  0  0
    7.8702   -4.4362  -12.2213 N   0  0  0  0  0  0  0  0  0  0  0  0
   11.5944   -4.1655  -12.8286 C   0  0  0  0  0  0  0  0  0  0  0  0
    8.2894   -6.6396  -12.1006 N   0  0  0  0  0  0  0  0  0  0  0  0
   10.2563   -3.6813  -12.6641 C   0  0  0  0  0  0  0  0  0  0  0  0
    5.9132   -5.9147  -11.7767 N   0  0  0  0  0  0  0  0  0  0  0  0
    9.2380   -4.6700  -12.4212 C   0  0  0  0  0  0  0  0  0  0  0  0
   12.4210  -10.6800  -11.9102 N   0  0  0  0  0  0  0  0  0  0  0  0
    9.5531   -6.0716  -12.3474 C   0  0  0  0  0  0  0  0  0  0  0  0
   10.9564   -6.5307  -12.5360 C   0  0  0  0  0  0  0  0  0  0  0  0
    7.3020   -5.6624  -12.0323 C   0  0  0  0  0  0  0  0  0  0  0  0
   11.2676   -8.0140  -12.4642 C   0  0  0  0  0  0  0  0  0  0  0  0
   12.7517   -8.3633  -12.4346 C   0  0  1  0  0  0  0  0  0  0  0  0
   13.6240   -7.1643  -12.1951 C   0  0  0  0  0  0  0  0  0  0  0  0
   13.0102   -9.4522  -11.4042 C   0  0  0  0  0  0  0  0  0  0  0  0
    8.0322   -8.0901  -12.0145 C   0  0  0  0  0  0  0  0  0  0  0  0
   13.3734  -11.3108  -12.8140 C   0  0  0  0  0  0  0  0  0  0  0  0
   12.1754  -11.5490  -10.7700 C   0  0  0  0  0  0  0  0  0  0  0  0
    8.0820   -8.6868  -10.5974 C   0  0  0  0  0  0  0  0  0  0  0  0
    7.8640  -10.2078  -10.7039 C   0  0  0  0  0  0  0  0  0  0  0  0
    6.2264  -10.7248  -12.4052 C   0  0  0  0  0  0  0  0  0  0  0  0
  1 23  1  0  0  0  0
  1 24  1  0  0  0  0
  1  2  1  0  0  0  0
  3  4  1  0  0  0  0
  3 17  1  0  0  0  0
  4  6  2  0  0  0  0
  4 13  1  0  0  0  0
  5 10  1  0  0  0  0
  5 14  2  0  0  0  0
  6  8  1  0  0  0  0
  7 12  1  0  0  0  0
  7 14  1  0  0  0  0
  7 19  1  0  0  0  0
  8 10  2  0  0  0  0
  9 14  1  0  0  0  0
 10 12  1  0  0  0  0
 11 18  1  0  0  0  0
 11 20  1  0  0  0  0
 11 21  1  0  0  0  0
 12 13  2  0  0  0  0
 13 15  1  0  0  0  0
 15 16  1  0  0  0  0
 16 17  1  0  0  0  0
 16 18  1  1  0  0  0
 19 22  1  0  0  0  0
 22 23  1  0  0  0  0
M  END
>  <CHROM.1>
-144.85056654,93.62063891,84.01223545,69.71952992,-177.17121412,-74.79074274
9.89392056,-7.89384985,-11.96193901,-2.62633717,0.12974010,-0.18619915

>  <Name>
ligand

>  <RI>
0

>  <Rbt.Current_Directory>
/home/itssahil/PROJECTS/Mol_Feturizer/New_Systems/rnas/3TZR

>  <Rbt.Executable>
rbdock ($Id: //depot/dev/client3/rdock/2013.1/src/exe/rbdock.cxx#4 $)

>  <Rbt.Library>
libRbt.so (2013.1, Build901 2013/11/27)

>  <Rbt.Parameter_File>
/export/apps/rDock/src/rDock_2013.1_src/data/scripts/dock_solv.prm

>  <Rbt.Receptor>
prm/blind_docking_80.prm

>  <SCORE>
-36.0045

>  <SCORE.INTER>
-25.1354

>  <SCORE.INTER.CONST>
1

>  <SCORE.INTER.POLAR>
0

>  <SCORE.INTER.ROT>
6

>  <SCORE.INTER.SOLV>
20.7241

>  <SCORE.INTER.VDW>
-31.265

>  <SCORE.INTER.norm>
-1.04731

>  <SCORE.INTRA>
-10.8691

>  <SCORE.INTRA.DIHEDRAL>
-0.0928501

>  <SCORE.INTRA.DIHEDRAL.0>
4.94008

>  <SCORE.INTRA.POLAR>
0

>  <SCORE.INTRA.POLAR.0>
0

>  <SCORE.INTRA.REPUL>
0

>  <SCORE.INTRA.REPUL.0>
0

>  <SCORE.INTRA.SOLV>
0.0877577

>  <SCORE.INTRA.SOLV.lig_0>
-31.4704

>  <SCORE.INTRA.VDW>
-10.8665

>  <SCORE.INTRA.VDW.0>
10.2807

>  <SCORE.INTRA.norm>
-0.452879

>  <SCORE.RESTR>
0

>  <SCORE.RESTR.CAVITY>
0

>  <SCORE.RESTR.norm>
0

>  <SCORE.SYSTEM>
0

>  <SCORE.SYSTEM.CONST>
0

>  <SCORE.SYSTEM.DIHEDRAL>
0

>  <SCORE.SYSTEM.SOLV>
0

>  <SCORE.SYSTEM.norm>
0

>  <SCORE.heavy>
24

>  <SCORE.norm>
-1.50019

>  <RMSD>
1.165

$$$$
ligand
 OpenBabel11021811493D
libRbt.so/2013.1/901 2013/11/27
 24 26  0  0  0  0  0  0  0  0999 V2000
    6.4955  -10.5002  -10.9810 N   0  0  0  0  0  0  0  0  0  0  0  0
    6.1009  -11.6994  -10.2595 C   0  0  0  0  0  0  0  0  0  0  0  0
   13.2144   -6.0781  -12.9169 O   0  0  0  0  0  0  0  0  0  0  0  0
   11.9160   -5.6228  -12.7308 C   0  0  0  0  0  0  0  0  0  0  0  0
    7.8566   -4.4010  -12.1947 N   0  0  0  0  0  0  0  0  0  0  0  0
   11.5857   -4.1548  -12.7820 C   0  0  0  0  0  0  0  0  0  0  0  0
    8.2585   -6.6083  -12.0858 N   0  0  0  0  0  0  0  0  0  0  0  0
   10.2504   -3.6616  -12.6211 C   0  0  0  0  0  0  0  0  0  0  0  0
    5.8863   -5.8674  -11.7690 N   0  0  0  0  0  0  0  0  0  0  0  0
    9.2235   -4.6440  -12.3894 C   0  0  0  0  0  0  0  0  0  0  0  0
   12.4009  -10.6916  -11.9218 N   0  0  0  0  0  0  0  0  0  0  0  0
    9.5277   -6.0483  -12.3228 C   0  0  0  0  0  0  0  0  0  0  0  0
   10.9284   -6.5169  -12.5074 C   0  0  0  0  0  0  0  0  0  0  0  0
    7.2783   -5.6241  -12.0163 C   0  0  0  0  0  0  0  0  0  0  0  0
   11.2281   -8.0029  -12.4434 C   0  0  0  0  0  0  0  0  0  0  0  0
   12.7093   -8.3636  -12.4086 C   0  0  1  0  0  0  0  0  0  0  0  0
   13.5895   -7.1728  -12.1573 C   0  0  0  0  0  0  0  0  0  0  0  0
   12.9544   -9.4608  -11.3838 C   0  0  0  0  0  0  0  0  0  0  0  0
    7.9900   -8.0573  -12.0101 C   0  0  0  0  0  0  0  0  0  0  0  0
   13.4196  -11.3378  -12.7382 C   0  0  0  0  0  0  0  0  0  0  0  0
   12.0584  -11.5457  -10.7955 C   0  0  0  0  0  0  0  0  0  0  0  0
    8.1748   -8.6916  -10.6207 C   0  0  0  0  0  0  0  0  0  0  0  0
    7.9151  -10.2050  -10.7403 C   0  0  0  0  0  0  0  0  0  0  0  0
    6.2333  -10.7181  -12.3992 C   0  0  0  0  0  0  0  0  0  0  0  0
  1 23  1  0  0  0  0
  1 24  1  0  0  0  0
  1  2  1  0  0  0  0
  3  4  1  0  0  0  0
  3 17  1  0  0  0  0
  4  6  2  0  0  0  0
  4 13  1  0  0  0  0
  5 10  1  0  0  0  0
  5 14  2  0  0  0  0
  6  8  1  0  0  0  0
  7 12  1  0  0  0  0
  7 14  1  0  0  0  0
  7 19  1  0  0  0  0
  8 10  2  0  0  0  0
  9 14  1  0  0  0  0
 10 12  1  0  0  0  0
 11 18  1  0  0  0  0
 11 20  1  0  0  0  0
 11 21  1  0  0  0  0
 12 13  2  0  0  0  0
 13 15  1  0  0  0  0
 15 16  1  0  0  0  0
 16 17  1  0  0  0  0
 16 18  1  1  0  0  0
 19 22  1  0  0  0  0
 22 23  1  0  0  0  0
M  END
>  <CHROM.1>
-142.26601253,87.38026306,87.46747411,71.73214284,-177.55467188,-70.19523193
9.88034133,-7.87882565,-11.94356053,-2.62305416,0.12821305,-0.18187676

>  <Name>
ligand

>  <RI>
0

>  <Rbt.Current_Directory>
/home/itssahil/PROJECTS/Mol_Feturizer/New_Systems/rnas/3TZR

>  <Rbt.Executable>
rbdock ($Id: //depot/dev/client3/rdock/2013.1/src/exe/rbdock.cxx#4 $)

>  <Rbt.Library>
libRbt.so (2013.1, Build901 2013/11/27)

>  <Rbt.Parameter_File>
/export/apps/rDock/src/rDock_2013.1_src/data/scripts/dock_solv.prm

>  <Rbt.Receptor>
prm/pocket_docking_6.prm

>  <SCORE>
-35.9447

>  <SCORE.INTER>
-24.8315

>  <SCORE.INTER.CONST>
1

>  <SCORE.INTER.POLAR>
0

>  <SCORE.INTER.ROT>
6

>  <SCORE.INTER.SOLV>
20.9342

>  <SCORE.INTER.VDW>
-31.1324

>  <SCORE.INTER.norm>
-1.03465

>  <SCORE.INTRA>
-11.1133

>  <SCORE.INTRA.DIHEDRAL>
-0.00429314

>  <SCORE.INTRA.DIHEDRAL.0>
4.94008

>  <SCORE.INTRA.POLAR>
0

>  <SCORE.INTRA.POLAR.0>
0

>  <SCORE.INTRA.REPUL>
0

>  <SCORE.INTRA.REPUL.0>
0

>  <SCORE.INTRA.SOLV>
-0.0111548

>  <SCORE.INTRA.SOLV.lig_0>
-31.4704

>  <SCORE.INTRA.VDW>
-11.1055

>  <SCORE.INTRA.VDW.0>
10.2807

>  <SCORE.INTRA.norm>
-0.463052

>  <SCORE.RESTR>
0

>  <SCORE.RESTR.CAVITY>
0

>  <SCORE.RESTR.norm>
0

>  <SCORE.SYSTEM>
0

>  <SCORE.SYSTEM.CONST>
0

>  <SCORE.SYSTEM.DIHEDRAL>
0

>  <SCORE.SYSTEM.SOLV>
0

>  <SCORE.SYSTEM.norm>
0

>  <SCORE.heavy>
24

>  <SCORE.norm>
-1.4977

>  <RMSD>
1.166

$$$$
ligand
 OpenBabel11021811493D
libRbt.so/2013.1/901 2013/11/27
 24 26  0  0  0  0  0  0  0  0999 V2000
    5.9860  -10.3032  -11.2460 N   0  0  0  0  0  0  0  0  0  0  0  0
    6.8004  -11.2641  -10.5197 C   0  0  0  0  0  0  0  0  0  0  0  0
   13.6877   -7.2598  -13.0915 O   0  0  0  0  0  0  0  0  0  0  0  0
   12.5207   -6.6068  -12.7181 C   0  0  0  0  0  0  0  0  0  0  0  0
    8.8299   -4.7565  -11.6166 N   0  0  0  0  0  0  0  0  0  0  0  0
   12.4713   -5.1084  -12.5801 C   0  0  0  0  0  0  0  0  0  0  0  0
    8.8144   -6.9966  -11.7821 N   0  0  0  0  0  0  0  0  0  0  0  0
   11.2732   -4.4087  -12.2236 C   0  0  0  0  0  0  0  0  0  0  0  0
    6.6631   -5.8894  -11.1322 N   0  0  0  0  0  0  0  0  0  0  0  0
   10.1034   -5.2134  -11.9840 C   0  0  0  0  0  0  0  0  0  0  0  0
   13.6088  -11.7216  -12.6808 N   0  0  0  0  0  0  0  0  0  0  0  0
   10.1406   -6.6468  -12.0973 C   0  0  0  0  0  0  0  0  0  0  0  0
   11.4053   -7.3312  -12.4819 C   0  0  0  0  0  0  0  0  0  0  0  0
    8.0484   -5.8695  -11.5038 C   0  0  0  0  0  0  0  0  0  0  0  0
   11.4225   -8.8434  -12.6057 C   0  0  0  0  0  0  0  0  0  0  0  0
   12.8057   -9.4636  -12.7710 C   0  0  1  0  0  0  0  0  0  0  0  0
   13.9143   -8.4884  -12.4954 C   0  0  0  0  0  0  0  0  0  0  0  0
   12.9282  -10.7039  -11.8987 C   0  0  0  0  0  0  0  0  0  0  0  0
    8.2841   -8.3727  -11.8283 C   0  0  0  0  0  0  0  0  0  0  0  0
   15.0348  -11.4246  -12.6840 C   0  0  0  0  0  0  0  0  0  0  0  0
   13.3744  -13.0015  -12.0309 C   0  0  0  0  0  0  0  0  0  0  0  0
    7.0331   -8.5696  -12.7018 C   0  0  0  0  0  0  0  0  0  0  0  0
    6.5726  -10.0331  -12.5663 C   0  0  0  0  0  0  0  0  0  0  0  0
    4.6395  -10.8506  -11.3672 C   0  0  0  0  0  0  0  0  0  0  0  0
  1 23  1  0  0  0  0
  1 24  1  0  0  0  0
  1  2  1  0  0  0  0
  3  4  1  0  0  0  0
  3 17  1  0  0  0  0
  4  6  2  0  0  0  0
  4 13  1  0  0  0  0
  5 10  1  0  0  0  0
  5 14  2  0  0  0  0
  6  8  1  0  0  0  0
  7 12  1  0  0  0  0
  7 14  1  0  0  0  0
  7 19  1  0  0  0  0
  8 10  2  0  0  0  0
  9 14  1  0  0  0  0
 10 12  1  0  0  0  0
 11 18  1  0  0  0  0
 11 20  1  0  0  0  0
 11 21  1  0  0  0  0
 12 13  2  0  0  0  0
 13 15  1  0  0  0  0
 15 16  1  0  0  0  0
 16 17  1  0  0  0  0
 16 18  1  1  0  0  0
 19 22  1  0  0  0  0
 22 23  1  0  0  0  0
M  END
>  <CHROM.1>
-115.54008714,-125.09942809,78.28052628,137.94465637,-176.65522055,71.50559528
10.24934734,-8.43236215,-12.10188184,2.97442608,0.14963284,-0.02917905

>  <Name>
ligand

>  <RI>
0

>  <Rbt.Current_Directory>
/home/itssahil/PROJECTS/Mol_Feturizer/New_Systems/rnas/3TZR

>  <Rbt.Executable>
rbdock ($Id: //depot/dev/client3/rdock/2013.1/src/exe/rbdock.cxx#4 $)

>  <Rbt.Library>
libRbt.so (2013.1, Build901 2013/11/27)

>  <Rbt.Parameter_File>
/export/apps/rDock/src/rDock_2013.1_src/data/scripts/dock_solv.prm

>  <Rbt.Receptor>
prm/blind_docking_40.prm

>  <SCORE>
-30.5596

>  <SCORE.INTER>
-23.2269

>  <SCORE.INTER.CONST>
1

>  <SCORE.INTER.POLAR>
0

>  <SCORE.INTER.ROT>
6

>  <SCORE.INTER.SOLV>
20.2559

>  <SCORE.INTER.VDW>
-29.8365

>  <SCORE.INTER.norm>
-0.967786

>  <SCORE.INTRA>
-7.3772

>  <SCORE.INTRA.DIHEDRAL>
3.8581

>  <SCORE.INTRA.DIHEDRAL.0>
4.94008

>  <SCORE.INTRA.POLAR>
0

>  <SCORE.INTRA.POLAR.0>
0

>  <SCORE.INTRA.REPUL>
0

>  <SCORE.INTRA.REPUL.0>
0

>  <SCORE.INTRA.SOLV>
1.08873

>  <SCORE.INTRA.SOLV.lig_0>
-31.4704

>  <SCORE.INTRA.VDW>
-9.85061

>  <SCORE.INTRA.VDW.0>
10.2807

>  <SCORE.INTRA.norm>
-0.307383

>  <SCORE.RESTR>
0.0444324

>  <SCORE.RESTR.CAVITY>
0.0444324

>  <SCORE.RESTR.norm>
0.00185135

>  <SCORE.SYSTEM>
0

>  <SCORE.SYSTEM.CONST>
0

>  <SCORE.SYSTEM.DIHEDRAL>
0

>  <SCORE.SYSTEM.SOLV>
0

>  <SCORE.SYSTEM.norm>
0

>  <SCORE.heavy>
24

>  <SCORE.norm>
-1.27332

>  <RMSD>
1.168

$$$$
ligand
 OpenBabel11021811493D
libRbt.so/2013.1/901 2013/11/27
 24 26  0  0  0  0  0  0  0  0999 V2000
    7.4037  -10.5043  -10.9934 N   0  0  0  0  0  0  0  0  0  0  0  0
    6.2267  -10.4637  -11.8463 C   0  0  0  0  0  0  0  0  0  0  0  0
   13.7494   -7.1519  -12.9089 O   0  0  0  0  0  0  0  0  0  0  0  0
   12.6077   -6.3717  -12.7842 C   0  0  0  0  0  0  0  0  0  0  0  0
    8.9875   -4.1312  -12.4189 N   0  0  0  0  0  0  0  0  0  0  0  0
   12.6512   -4.8810  -12.9911 C   0  0  0  0  0  0  0  0  0  0  0  0
    8.8310   -6.3457  -12.0772 N   0  0  0  0  0  0  0  0  0  0  0  0
   11.4828   -4.0576  -12.8957 C   0  0  0  0  0  0  0  0  0  0  0  0
    6.7222   -5.0102  -11.8631 N   0  0  0  0  0  0  0  0  0  0  0  0
   10.2481   -4.7249  -12.5735 C   0  0  0  0  0  0  0  0  0  0  0  0
   11.8902  -11.3224  -11.4756 N   0  0  0  0  0  0  0  0  0  0  0  0
   10.1954   -6.1461  -12.3583 C   0  0  0  0  0  0  0  0  0  0  0  0
   11.4329   -6.9644  -12.4792 C   0  0  0  0  0  0  0  0  0  0  0  0
    8.1268   -5.1471  -12.1202 C   0  0  0  0  0  0  0  0  0  0  0  0
   11.3555   -8.4635  -12.2581 C   0  0  0  0  0  0  0  0  0  0  0  0
   12.7013   -9.1753  -12.1711 C   0  0  1  0  0  0  0  0  0  0  0  0
   13.8533   -8.2211  -12.0360 C   0  0  0  0  0  0  0  0  0  0  0  0
   12.6830  -10.1873  -11.0354 C   0  0  0  0  0  0  0  0  0  0  0  0
    8.2126   -7.6668  -11.8541 C   0  0  0  0  0  0  0  0  0  0  0  0
   12.7322  -12.1838  -12.2946 C   0  0  0  0  0  0  0  0  0  0  0  0
   11.4596  -12.0417  -10.2870 C   0  0  0  0  0  0  0  0  0  0  0  0
    8.5988   -8.3630  -10.5377 C   0  0  0  0  0  0  0  0  0  0  0  0
    7.4532   -9.3111  -10.1365 C   0  0  0  0  0  0  0  0  0  0  0  0
    7.3446  -11.7252  -10.1976 C   0  0  0  0  0  0  0  0  0  0  0  0
  1 23  1  0  0  0  0
  1 24  1  0  0  0  0
  1  2  1  0  0  0  0
  3  4  1  0  0  0  0
  3 17  1  0  0  0  0
  4  6  2  0  0  0  0
  4 13  1  0  0  0  0
  5 10  1  0  0  0  0
  5 14  2  0  0  0  0
  6  8  1  0  0  0  0
  7 12  1  0  0  0  0
  7 14  1  0  0  0  0
  7 19  1  0  0  0  0
  8 10  2  0  0  0  0
  9 14  1  0  0  0  0
 10 12  1  0  0  0  0
 11 18  1  0  0  0  0
 11 20  1  0  0  0  0
 11 21  1  0  0  0  0
 12 13  2  0  0  0  0
 13 15  1  0  0  0  0
 15 16  1  0  0  0  0
 16 17  1  0  0  0  0
 16 18  1  1  0  0  0
 19 22  1  0  0  0  0
 22 23  1  0  0  0  0
M  END
>  <CHROM.1>
-110.36730675,70.40519975,81.84085025,74.66891129,153.48464305,73.01268979
10.26396229,-8.08318951,-11.82283341,1.64882729,-0.17043534,2.91184972

>  <Name>
ligand

>  <RI>
0

>  <Rbt.Current_Directory>
/home/itssahil/PROJECTS/Mol_Feturizer/New_Systems/rnas/3TZR

>  <Rbt.Executable>
rbdock ($Id: //depot/dev/client3/rdock/2013.1/src/exe/rbdock.cxx#4 $)

>  <Rbt.Library>
libRbt.so (2013.1, Build901 2013/11/27)

>  <Rbt.Parameter_File>
/export/apps/rDock/src/rDock_2013.1_src/data/scripts/dock_solv.prm

>  <Rbt.Receptor>
prm/pocket_docking_5.prm

>  <SCORE>
-33.6348

>  <SCORE.INTER>
-23.6353

>  <SCORE.INTER.CONST>
1

>  <SCORE.INTER.POLAR>
0

>  <SCORE.INTER.ROT>
6

>  <SCORE.INTER.SOLV>
22.0977

>  <SCORE.INTER.VDW>
-30.7228

>  <SCORE.INTER.norm>
-0.984806

>  <SCORE.INTRA>
-9.99946

>  <SCORE.INTRA.DIHEDRAL>
2.87861

>  <SCORE.INTRA.DIHEDRAL.0>
4.94008

>  <SCORE.INTRA.POLAR>
0

>  <SCORE.INTRA.POLAR.0>
0

>  <SCORE.INTRA.REPUL>
0

>  <SCORE.INTRA.REPUL.0>
0

>  <SCORE.INTRA.SOLV>
-0.196785

>  <SCORE.INTRA.SOLV.lig_0>
-31.4704

>  <SCORE.INTRA.VDW>
-11.3404

>  <SCORE.INTRA.VDW.0>
10.2807

>  <SCORE.INTRA.norm>
-0.416644

>  <SCORE.RESTR>
0

>  <SCORE.RESTR.CAVITY>
0

>  <SCORE.RESTR.norm>
0

>  <SCORE.SYSTEM>
0

>  <SCORE.SYSTEM.CONST>
0

>  <SCORE.SYSTEM.DIHEDRAL>
0

>  <SCORE.SYSTEM.SOLV>
0

>  <SCORE.SYSTEM.norm>
0

>  <SCORE.heavy>
24

>  <SCORE.norm>
-1.40145

>  <RMSD>
1.169

$$$$
ligand
 OpenBabel11021811493D
libRbt.so/2013.1/901 2013/11/27
 24 26  0  0  0  0  0  0  0  0999 V2000
    8.5832  -11.1012   -9.4058 N   0  0  0  0  0  0  0  0  0  0  0  0
    9.5046  -12.1492   -9.8147 C   0  0  0  0  0  0  0  0  0  0  0  0
   13.7954   -7.8815  -13.2229 O   0  0  0  0  0  0  0  0  0  0  0  0
   12.7451   -7.0338  -12.8972 C   0  0  0  0  0  0  0  0  0  0  0  0
    9.3907   -4.5730  -11.9218 N   0  0  0  0  0  0  0  0  0  0  0  0
   12.9076   -5.5373  -12.9283 C   0  0  0  0  0  0  0  0  0  0  0  0
    9.0609   -6.7931  -11.8326 N   0  0  0  0  0  0  0  0  0  0  0  0
   11.8323   -4.6411  -12.6239 C   0  0  0  0  0  0  0  0  0  0  0  0
    7.1099   -5.3296  -11.2594 N   0  0  0  0  0  0  0  0  0  0  0  0
   10.5735   -5.2420  -12.2663 C   0  0  0  0  0  0  0  0  0  0  0  0
   13.5658  -12.0330  -12.0937 N   0  0  0  0  0  0  0  0  0  0  0  0
   10.4089   -6.6702  -12.2177 C   0  0  0  0  0  0  0  0  0  0  0  0
   11.5511   -7.5637  -12.5534 C   0  0  0  0  0  0  0  0  0  0  0  0
    8.4688   -5.5458  -11.6648 C   0  0  0  0  0  0  0  0  0  0  0  0
   11.3553   -9.0676  -12.5058 C   0  0  0  0  0  0  0  0  0  0  0  0
   12.6325   -9.8909  -12.6338 C   0  0  1  0  0  0  0  0  0  0  0  0
   13.8746   -9.0577  -12.4975 C   0  0  0  0  0  0  0  0  0  0  0  0
   12.6182  -11.0340  -11.6302 C   0  0  0  0  0  0  0  0  0  0  0  0
    8.3450   -8.0775  -11.7098 C   0  0  0  0  0  0  0  0  0  0  0  0
   13.9996  -12.8236  -10.9497 C   0  0  0  0  0  0  0  0  0  0  0  0
   12.8712  -12.8855  -13.0457 C   0  0  0  0  0  0  0  0  0  0  0  0
    8.5078   -8.7981  -10.3604 C   0  0  0  0  0  0  0  0  0  0  0  0
    8.1869  -10.2904  -10.5660 C   0  0  0  0  0  0  0  0  0  0  0  0
    7.4263  -11.7334   -8.7820 C   0  0  0  0  0  0  0  0  0  0  0  0
  1 23  1  0  0  0  0
  1 24  1  0  0  0  0
  1  2  1  0  0  0  0
  3  4  1  0  0  0  0
  3 17  1  0  0  0  0
  4  6  2  0  0  0  0
  4 13  1  0  0  0  0
  5 10  1  0  0  0  0
  5 14  2  0  0  0  0
  6  8  1  0  0  0  0
  7 12  1  0  0  0  0
  7 14  1  0  0  0  0
  7 19  1  0  0  0  0
  8 10  2  0  0  0  0
  9 14  1  0  0  0  0
 10 12  1  0  0  0  0
 11 18  1  0  0  0  0
 11 20  1  0  0  0  0
 11 21  1  0  0  0  0
 12 13  2  0  0  0  0
 13 15  1  0  0  0  0
 15 16  1  0  0  0  0
 16 17  1  0  0  0  0
 16 18  1  1  0  0  0
 19 22  1  0  0  0  0
 22 23  1  0  0  0  0
M  END
>  <CHROM.1>
-123.04224800,85.20372511,156.24103069,159.87909329,-158.62160556,168.13426224
10.80180231,-8.72156805,-11.68612455,1.15270907,-0.40540005,2.87328626

>  <Name>
ligand

>  <RI>
144

>  <Rbt.Current_Directory>
/home/itssahil/PROJECTS/Mol_Feturizer/New_Systems/rnas/3TZR

>  <Rbt.Executable>
rbdock ($Id: //depot/dev/client3/rdock/2013.1/src/exe/rbdock.cxx#4 $)

>  <Rbt.Library>
libRbt.so (2013.1, Build901 2013/11/27)

>  <Rbt.Parameter_File>
/export/apps/rDock/src/rDock_2013.1_src/data/scripts/dock_solv.prm

>  <Rbt.Receptor>
prm/pocket_docking_8.prm

>  <SCORE>
-35.5879

>  <SCORE.INTER>
-25.2569

>  <SCORE.INTER.CONST>
1

>  <SCORE.INTER.POLAR>
-0.712352

>  <SCORE.INTER.ROT>
6

>  <SCORE.INTER.SOLV>
19.6294

>  <SCORE.INTER.VDW>
-28.6065

>  <SCORE.INTER.norm>
-1.05237

>  <SCORE.INTRA>
-10.331

>  <SCORE.INTRA.DIHEDRAL>
3.10164

>  <SCORE.INTRA.DIHEDRAL.0>
4.94008

>  <SCORE.INTRA.POLAR>
0

>  <SCORE.INTRA.POLAR.0>
0

>  <SCORE.INTRA.REPUL>
0

>  <SCORE.INTRA.REPUL.0>
0

>  <SCORE.INTRA.SOLV>
-0.155485

>  <SCORE.INTRA.SOLV.lig_0>
-31.4704

>  <SCORE.INTRA.VDW>
-11.8041

>  <SCORE.INTRA.VDW.0>
10.2807

>  <SCORE.INTRA.norm>
-0.430458

>  <SCORE.RESTR>
0

>  <SCORE.RESTR.CAVITY>
0

>  <SCORE.RESTR.norm>
0

>  <SCORE.SYSTEM>
0

>  <SCORE.SYSTEM.CONST>
0

>  <SCORE.SYSTEM.DIHEDRAL>
0

>  <SCORE.SYSTEM.SOLV>
0

>  <SCORE.SYSTEM.norm>
0

>  <SCORE.heavy>
24

>  <SCORE.norm>
-1.48283

>  <RMSD>
1.170

$$$$
ligand
 OpenBabel11021811493D
libRbt.so/2013.1/901 2013/11/27
 24 26  0  0  0  0  0  0  0  0999 V2000
    6.3456  -10.8392  -10.2437 N   0  0  0  0  0  0  0  0  0  0  0  0
    7.3181  -11.7148   -9.6098 C   0  0  0  0  0  0  0  0  0  0  0  0
   12.9554   -5.5609  -12.7820 O   0  0  0  0  0  0  0  0  0  0  0  0
   11.6149   -5.2311  -12.6335 C   0  0  0  0  0  0  0  0  0  0  0  0
    7.4435   -4.3966  -12.2309 N   0  0  0  0  0  0  0  0  0  0  0  0
   11.1616   -3.7961  -12.5871 C   0  0  0  0  0  0  0  0  0  0  0  0
    8.0292   -6.5647  -12.2742 N   0  0  0  0  0  0  0  0  0  0  0  0
    9.7824   -3.4296  -12.4628 C   0  0  0  0  0  0  0  0  0  0  0  0
    5.5891   -6.0506  -12.0333 N   0  0  0  0  0  0  0  0  0  0  0  0
    8.8342   -4.5092  -12.3672 C   0  0  0  0  0  0  0  0  0  0  0  0
   12.0438  -10.1701  -11.9141 N   0  0  0  0  0  0  0  0  0  0  0  0
    9.2552   -5.8843  -12.3948 C   0  0  0  0  0  0  0  0  0  0  0  0
   10.6986   -6.2190  -12.5371 C   0  0  0  0  0  0  0  0  0  0  0  0
    6.9652   -5.6737  -12.1822 C   0  0  0  0  0  0  0  0  0  0  0  0
   11.1223   -7.6754  -12.5739 C   0  0  0  0  0  0  0  0  0  0  0  0
   12.6258   -7.9147  -12.4848 C   0  0  1  0  0  0  0  0  0  0  0  0
   13.3861   -6.6805  -12.0914 C   0  0  0  0  0  0  0  0  0  0  0  0
   12.9143   -9.0696  -11.5377 C   0  0  0  0  0  0  0  0  0  0  0  0
    7.8838   -8.0321  -12.3283 C   0  0  0  0  0  0  0  0  0  0  0  0
   12.6157  -10.8341  -13.0777 C   0  0  0  0  0  0  0  0  0  0  0  0
   11.9990  -11.0951  -10.7926 C   0  0  0  0  0  0  0  0  0  0  0  0
    7.2971   -8.6847  -11.0647 C   0  0  0  0  0  0  0  0  0  0  0  0
    6.9527  -10.1500  -11.3912 C   0  0  0  0  0  0  0  0  0  0  0  0
    5.2063  -11.6511  -10.6563 C   0  0  0  0  0  0  0  0  0  0  0  0
  1 23  1  0  0  0  0
  1 24  1  0  0  0  0
  1  2  1  0  0  0  0
  3  4  1  0  0  0  0
  3 17  1  0  0  0  0
  4  6  2  0  0  0  0
  4 13  1  0  0  0  0
  5 10  1  0  0  0  0
  5 14  2  0  0  0  0
  6  8  1  0  0  0  0
  7 12  1  0  0  0  0
  7 14  1  0  0  0  0
  7 19  1  0  0  0  0
  8 10  2  0  0  0  0
  9 14  1  0  0  0  0
 10 12  1  0  0  0  0
 11 18  1  0  0  0  0
 11 20  1  0  0  0  0
 11 21  1  0  0  0  0
 12 13  2  0  0  0  0
 13 15  1  0  0  0  0
 15 16  1  0  0  0  0
 16 17  1  0  0  0  0
 16 18  1  1  0  0  0
 19 22  1  0  0  0  0
 22 23  1  0  0  0  0
M  END
>  <CHROM.1>
-103.39617968,119.35316316,79.04859934,48.83923330,168.74018282,-178.26494577
9.58526983,-7.72170076,-11.89700694,-2.35137876,0.13694735,-0.22220781

>  <Name>
ligand

>  <RI>
144

>  <Rbt.Current_Directory>
/home/itssahil/PROJECTS/Mol_Feturizer/New_Systems/rnas/3TZR

>  <Rbt.Executable>
rbdock ($Id: //depot/dev/client3/rdock/2013.1/src/exe/rbdock.cxx#4 $)

>  <Rbt.Library>
libRbt.so (2013.1, Build901 2013/11/27)

>  <Rbt.Parameter_File>
/export/apps/rDock/src/rDock_2013.1_src/data/scripts/dock_solv.prm

>  <Rbt.Receptor>
prm/blind_docking_20.prm

>  <SCORE>
-30.5286

>  <SCORE.INTER>
-23.3652

>  <SCORE.INTER.CONST>
1

>  <SCORE.INTER.POLAR>
0

>  <SCORE.INTER.ROT>
6

>  <SCORE.INTER.SOLV>
21.3526

>  <SCORE.INTER.VDW>
-30.2944

>  <SCORE.INTER.norm>
-0.973552

>  <SCORE.INTRA>
-9.78374

>  <SCORE.INTRA.DIHEDRAL>
-0.233595

>  <SCORE.INTRA.DIHEDRAL.0>
4.94008

>  <SCORE.INTRA.POLAR>
0

>  <SCORE.INTRA.POLAR.0>
0

>  <SCORE.INTRA.REPUL>
0

>  <SCORE.INTRA.REPUL.0>
0

>  <SCORE.INTRA.SOLV>
0.785639

>  <SCORE.INTRA.SOLV.lig_0>
-31.4704

>  <SCORE.INTRA.VDW>
-10.0598

>  <SCORE.INTRA.VDW.0>
10.2807

>  <SCORE.INTRA.norm>
-0.407656

>  <SCORE.RESTR>
2.62039

>  <SCORE.RESTR.CAVITY>
2.62039

>  <SCORE.RESTR.norm>
0.109183

>  <SCORE.SYSTEM>
0

>  <SCORE.SYSTEM.CONST>
0

>  <SCORE.SYSTEM.DIHEDRAL>
0

>  <SCORE.SYSTEM.SOLV>
0

>  <SCORE.SYSTEM.norm>
0

>  <SCORE.heavy>
24

>  <SCORE.norm>
-1.27202

>  <RMSD>
1.171

$$$$
ligand
 OpenBabel11021811493D
libRbt.so/2013.1/901 2013/11/27
 24 26  0  0  0  0  0  0  0  0999 V2000
    7.0480  -10.7226  -11.3532 N   0  0  0  0  0  0  0  0  0  0  0  0
    5.9203  -10.3832  -12.2061 C   0  0  0  0  0  0  0  0  0  0  0  0
   13.7635   -7.5390  -13.1502 O   0  0  0  0  0  0  0  0  0  0  0  0
   12.6903   -6.7327  -12.7953 C   0  0  0  0  0  0  0  0  0  0  0  0
    9.2685   -4.3976  -11.7480 N   0  0  0  0  0  0  0  0  0  0  0  0
   12.8350   -5.2379  -12.6887 C   0  0  0  0  0  0  0  0  0  0  0  0
    8.9634   -6.6198  -11.8669 N   0  0  0  0  0  0  0  0  0  0  0  0
   11.7371   -4.3817  -12.3518 C   0  0  0  0  0  0  0  0  0  0  0  0
    6.9725   -5.2301  -11.2492 N   0  0  0  0  0  0  0  0  0  0  0  0
   10.4726   -5.0230  -12.1004 C   0  0  0  0  0  0  0  0  0  0  0  0
   13.4424  -11.8275  -12.4739 N   0  0  0  0  0  0  0  0  0  0  0  0
   10.3242   -6.4514  -12.1837 C   0  0  0  0  0  0  0  0  0  0  0  0
   11.4902   -7.3016  -12.5488 C   0  0  0  0  0  0  0  0  0  0  0  0
    8.3493   -5.3975  -11.6153 C   0  0  0  0  0  0  0  0  0  0  0  0
   11.3117   -8.8055  -12.6410 C   0  0  0  0  0  0  0  0  0  0  0  0
   12.6033   -9.6029  -12.7876 C   0  0  1  0  0  0  0  0  0  0  0  0
   13.8283   -8.7736  -12.5277 C   0  0  0  0  0  0  0  0  0  0  0  0
   12.5629  -10.8298  -11.8892 C   0  0  0  0  0  0  0  0  0  0  0  0
    8.2594   -7.9165  -11.8867 C   0  0  0  0  0  0  0  0  0  0  0  0
   13.9707  -12.6617  -11.4030 C   0  0  0  0  0  0  0  0  0  0  0  0
   12.6430  -12.6375  -13.3796 C   0  0  0  0  0  0  0  0  0  0  0  0
    8.5640   -8.8515  -10.7035 C   0  0  0  0  0  0  0  0  0  0  0  0
    7.2886   -9.6508  -10.3766 C   0  0  0  0  0  0  0  0  0  0  0  0
    6.7493  -11.9863  -10.6891 C   0  0  0  0  0  0  0  0  0  0  0  0
  1 23  1  0  0  0  0
  1 24  1  0  0  0  0
  1  2  1  0  0  0  0
  3  4  1  0  0  0  0
  3 17  1  0  0  0  0
  4  6  2  0  0  0  0
  4 13  1  0  0  0  0
  5 10  1  0  0  0  0
  5 14  2  0  0  0  0
  6  8  1  0  0  0  0
  7 12  1  0  0  0  0
  7 14  1  0  0  0  0
  7 19  1  0  0  0  0
  8 10  2  0  0  0  0
  9 14  1  0  0  0  0
 10 12  1  0  0  0  0
 11 18  1  0  0  0  0
 11 20  1  0  0  0  0
 11 21  1  0  0  0  0
 12 13  2  0  0  0  0
 13 15  1  0  0  0  0
 15 16  1  0  0  0  0
 16 17  1  0  0  0  0
 16 18  1  1  0  0  0
 19 22  1  0  0  0  0
 22 23  1  0  0  0  0
M  END
>  <CHROM.1>
-107.88747062,75.44692903,151.01030970,154.31988768,146.28885864,75.69759677
10.43782739,-8.43410841,-12.01590445,2.45272147,0.21440892,-0.05016396

>  <Name>
ligand

>  <RI>
0

>  <Rbt.Current_Directory>
/home/itssahil/PROJECTS/Mol_Feturizer/New_Systems/rnas/3TZR

>  <Rbt.Executable>
rbdock ($Id: //depot/dev/client3/rdock/2013.1/src/exe/rbdock.cxx#4 $)

>  <Rbt.Library>
libRbt.so (2013.1, Build901 2013/11/27)

>  <Rbt.Parameter_File>
/export/apps/rDock/src/rDock_2013.1_src/data/scripts/dock_solv.prm

>  <Rbt.Receptor>
prm/blind_docking_100.prm

>  <SCORE>
-31.2169

>  <SCORE.INTER>
-22.8543

>  <SCORE.INTER.CONST>
1

>  <SCORE.INTER.POLAR>
0

>  <SCORE.INTER.ROT>
6

>  <SCORE.INTER.SOLV>
20.915

>  <SCORE.INTER.VDW>
-29.8079

>  <SCORE.INTER.norm>
-0.952263

>  <SCORE.INTRA>
-8.37563

>  <SCORE.INTRA.DIHEDRAL>
5.96457

>  <SCORE.INTRA.DIHEDRAL.0>
4.94008

>  <SCORE.INTRA.POLAR>
0

>  <SCORE.INTRA.POLAR.0>
0

>  <SCORE.INTRA.REPUL>
0

>  <SCORE.INTRA.REPUL.0>
0

>  <SCORE.INTRA.SOLV>
-0.0388673

>  <SCORE.INTRA.SOLV.lig_0>
-31.4704

>  <SCORE.INTRA.VDW>
-11.3385

>  <SCORE.INTRA.VDW.0>
10.2807

>  <SCORE.INTRA.norm>
-0.348985

>  <SCORE.RESTR>
0.0130729

>  <SCORE.RESTR.CAVITY>
0.0130729

>  <SCORE.RESTR.norm>
0.000544703

>  <SCORE.SYSTEM>
0

>  <SCORE.SYSTEM.CONST>
0

>  <SCORE.SYSTEM.DIHEDRAL>
0

>  <SCORE.SYSTEM.SOLV>
0

>  <SCORE.SYSTEM.norm>
0

>  <SCORE.heavy>
24

>  <SCORE.norm>
-1.3007

>  <RMSD>
1.179

$$$$
ligand
 OpenBabel11021811493D
libRbt.so/2013.1/901 2013/11/27
 24 26  0  0  0  0  0  0  0  0999 V2000
    8.5441  -11.0478   -9.4383 N   0  0  0  0  0  0  0  0  0  0  0  0
    9.5136  -12.0548   -9.8387 C   0  0  0  0  0  0  0  0  0  0  0  0
   13.8607   -7.8254  -13.2229 O   0  0  0  0  0  0  0  0  0  0  0  0
   12.8122   -6.9745  -12.8997 C   0  0  0  0  0  0  0  0  0  0  0  0
    9.4630   -4.5033  -11.9329 N   0  0  0  0  0  0  0  0  0  0  0  0
   12.9800   -5.4785  -12.9286 C   0  0  0  0  0  0  0  0  0  0  0  0
    9.1253   -6.7224  -11.8474 N   0  0  0  0  0  0  0  0  0  0  0  0
   11.9067   -4.5790  -12.6268 C   0  0  0  0  0  0  0  0  0  0  0  0
    7.1773   -5.2530  -11.2792 N   0  0  0  0  0  0  0  0  0  0  0  0
   10.6447   -5.1760  -12.2741 C   0  0  0  0  0  0  0  0  0  0  0  0
   13.5753  -11.9997  -12.1255 N   0  0  0  0  0  0  0  0  0  0  0  0
   10.4750   -6.6036  -12.2277 C   0  0  0  0  0  0  0  0  0  0  0  0
   11.6152   -7.5007  -12.5606 C   0  0  0  0  0  0  0  0  0  0  0  0
    8.5369   -5.4733  -11.6802 C   0  0  0  0  0  0  0  0  0  0  0  0
   11.4142   -9.0039  -12.5155 C   0  0  0  0  0  0  0  0  0  0  0  0
   12.6890   -9.8315  -12.6401 C   0  0  1  0  0  0  0  0  0  0  0  0
   13.9335   -9.0027  -12.4985 C   0  0  0  0  0  0  0  0  0  0  0  0
   12.6674  -10.9757  -11.6378 C   0  0  0  0  0  0  0  0  0  0  0  0
    8.4046   -8.0045  -11.7286 C   0  0  0  0  0  0  0  0  0  0  0  0
   14.0260  -12.7952  -10.9915 C   0  0  0  0  0  0  0  0  0  0  0  0
   12.8304  -12.8396  -13.0503 C   0  0  0  0  0  0  0  0  0  0  0  0
    8.5870   -8.7433  -10.3916 C   0  0  0  0  0  0  0  0  0  0  0  0
    8.1716  -10.2132  -10.5894 C   0  0  0  0  0  0  0  0  0  0  0  0
    7.3822  -11.7331   -8.8835 C   0  0  0  0  0  0  0  0  0  0  0  0
  1 23  1  0  0  0  0
  1 24  1  0  0  0  0
  1  2  1  0  0  0  0
  3  4  1  0  0  0  0
  3 17  1  0  0  0  0
  4  6  2  0  0  0  0
  4 13  1  0  0  0  0
  5 10  1  0  0  0  0
  5 14  2  0  0  0  0
  6  8  1  0  0  0  0
  7 12  1  0  0  0  0
  7 14  1  0  0  0  0
  7 19  1  0  0  0  0
  8 10  2  0  0  0  0
  9 14  1  0  0  0  0
 10 12  1  0  0  0  0
 11 18  1  0  0  0  0
 11 20  1  0  0  0  0
 11 21  1  0  0  0  0
 12 13  2  0  0  0  0
 13 15  1  0  0  0  0
 15 16  1  0  0  0  0
 16 17  1  0  0  0  0
 16 18  1  1  0  0  0
 19 22  1  0  0  0  0
 22 23  1  0  0  0  0
M  END
>  <CHROM.1>
-116.41786664,83.82726537,155.63464115,157.76528355,-162.03988279,169.51673286
10.84260625,-8.66290906,-11.70458948,1.17558124,-0.39888586,2.88391792

>  <Name>
ligand

>  <RI>
0

>  <Rbt.Current_Directory>
/home/itssahil/PROJECTS/Mol_Feturizer/New_Systems/rnas/3TZR

>  <Rbt.Executable>
rbdock ($Id: //depot/dev/client3/rdock/2013.1/src/exe/rbdock.cxx#4 $)

>  <Rbt.Library>
libRbt.so (2013.1, Build901 2013/11/27)

>  <Rbt.Parameter_File>
/export/apps/rDock/src/rDock_2013.1_src/data/scripts/dock_solv.prm

>  <Rbt.Receptor>
prm/pocket_docking_5.prm

>  <SCORE>
-35.5348

>  <SCORE.INTER>
-25.0203

>  <SCORE.INTER.CONST>
1

>  <SCORE.INTER.POLAR>
-0.693032

>  <SCORE.INTER.ROT>
6

>  <SCORE.INTER.SOLV>
19.7749

>  <SCORE.INTER.VDW>
-28.5617

>  <SCORE.INTER.norm>
-1.04251

>  <SCORE.INTRA>
-10.5145

>  <SCORE.INTRA.DIHEDRAL>
2.85015

>  <SCORE.INTRA.DIHEDRAL.0>
4.94008

>  <SCORE.INTRA.POLAR>
0

>  <SCORE.INTRA.POLAR.0>
0

>  <SCORE.INTRA.REPUL>
0

>  <SCORE.INTRA.REPUL.0>
0

>  <SCORE.INTRA.SOLV>
-0.208535

>  <SCORE.INTRA.SOLV.lig_0>
-31.4704

>  <SCORE.INTRA.VDW>
-11.8353

>  <SCORE.INTRA.VDW.0>
10.2807

>  <SCORE.INTRA.norm>
-0.438103

>  <SCORE.RESTR>
0

>  <SCORE.RESTR.CAVITY>
0

>  <SCORE.RESTR.norm>
0

>  <SCORE.SYSTEM>
0

>  <SCORE.SYSTEM.CONST>
0

>  <SCORE.SYSTEM.DIHEDRAL>
0

>  <SCORE.SYSTEM.SOLV>
0

>  <SCORE.SYSTEM.norm>
0

>  <SCORE.heavy>
24

>  <SCORE.norm>
-1.48062

>  <RMSD>
1.185

$$$$
ligand
 OpenBabel11021811493D
libRbt.so/2013.1/901 2013/11/27
 24 26  0  0  0  0  0  0  0  0999 V2000
    6.3307  -10.0444  -11.1528 N   0  0  0  0  0  0  0  0  0  0  0  0
    5.8485  -11.3013  -10.6032 C   0  0  0  0  0  0  0  0  0  0  0  0
   13.5909   -7.4623  -12.8816 O   0  0  0  0  0  0  0  0  0  0  0  0
   12.5047   -6.6167  -12.6999 C   0  0  0  0  0  0  0  0  0  0  0  0
    9.0449   -4.1639  -12.1780 N   0  0  0  0  0  0  0  0  0  0  0  0
   12.6605   -5.1200  -12.7482 C   0  0  0  0  0  0  0  0  0  0  0  0
    8.7208   -6.3842  -12.0738 N   0  0  0  0  0  0  0  0  0  0  0  0
   11.5517   -4.2266  -12.5917 C   0  0  0  0  0  0  0  0  0  0  0  0
    6.7076   -4.9253  -11.7652 N   0  0  0  0  0  0  0  0  0  0  0  0
   10.2638   -4.8302  -12.3673 C   0  0  0  0  0  0  0  0  0  0  0  0
   13.2959  -11.5601  -11.6510 N   0  0  0  0  0  0  0  0  0  0  0  0
   10.1035   -6.2582  -12.3035 C   0  0  0  0  0  0  0  0  0  0  0  0
   11.2823   -7.1491  -12.4835 C   0  0  0  0  0  0  0  0  0  0  0  0
    8.1056   -5.1387  -12.0056 C   0  0  0  0  0  0  0  0  0  0  0  0
   11.0917   -8.6531  -12.4225 C   0  0  0  0  0  0  0  0  0  0  0  0
   12.3801   -9.4678  -12.3823 C   0  0  1  0  0  0  0  0  0  0  0  0
   13.5930   -8.6205  -12.1237 C   0  0  0  0  0  0  0  0  0  0  0  0
   12.2570  -10.5873  -11.3597 C   0  0  0  0  0  0  0  0  0  0  0  0
    8.0035   -7.6718  -12.0035 C   0  0  0  0  0  0  0  0  0  0  0  0
   13.4554  -12.4267  -10.4910 C   0  0  0  0  0  0  0  0  0  0  0  0
   12.8527  -12.3440  -12.7932 C   0  0  0  0  0  0  0  0  0  0  0  0
    8.2244   -8.4814  -10.7142 C   0  0  0  0  0  0  0  0  0  0  0  0
    7.7855   -9.9349  -10.9733 C   0  0  0  0  0  0  0  0  0  0  0  0
    5.9668   -9.9981  -12.5645 C   0  0  0  0  0  0  0  0  0  0  0  0
  1 23  1  0  0  0  0
  1 24  1  0  0  0  0
  1  2  1  0  0  0  0
  3  4  1  0  0  0  0
  3 17  1  0  0  0  0
  4  6  2  0  0  0  0
  4 13  1  0  0  0  0
  5 10  1  0  0  0  0
  5 14  2  0  0  0  0
  6  8  1  0  0  0  0
  7 12  1  0  0  0  0
  7 14  1  0  0  0  0
  7 19  1  0  0  0  0
  8 10  2  0  0  0  0
  9 14  1  0  0  0  0
 10 12  1  0  0  0  0
 11 18  1  0  0  0  0
 11 20  1  0  0  0  0
 11 21  1  0  0  0  0
 12 13  2  0  0  0  0
 13 15  1  0  0  0  0
 15 16  1  0  0  0  0
 16 17  1  0  0  0  0
 16 18  1  1  0  0  0
 19 22  1  0  0  0  0
 22 23  1  0  0  0  0
M  END
>  <CHROM.1>
-145.50871242,74.52248622,163.87143394,162.32241717,-162.78072965,-68.51062588
10.20985711,-8.19685678,-11.95116839,2.49338717,0.12193141,-0.15400113

>  <Name>
ligand

>  <RI>
0

>  <Rbt.Current_Directory>
/home/itssahil/PROJECTS/Mol_Feturizer/New_Systems/rnas/3TZR

>  <Rbt.Executable>
rbdock ($Id: //depot/dev/client3/rdock/2013.1/src/exe/rbdock.cxx#4 $)

>  <Rbt.Library>
libRbt.so (2013.1, Build901 2013/11/27)

>  <Rbt.Parameter_File>
/export/apps/rDock/src/rDock_2013.1_src/data/scripts/dock_solv.prm

>  <Rbt.Receptor>
prm/pocket_docking_2.prm

>  <SCORE>
-32.0805

>  <SCORE.INTER>
-22.6986

>  <SCORE.INTER.CONST>
1

>  <SCORE.INTER.POLAR>
0

>  <SCORE.INTER.ROT>
6

>  <SCORE.INTER.SOLV>
22.5991

>  <SCORE.INTER.VDW>
-30.2654

>  <SCORE.INTER.norm>
-0.945776

>  <SCORE.INTRA>
-9.58735

>  <SCORE.INTRA.DIHEDRAL>
0.703858

>  <SCORE.INTRA.DIHEDRAL.0>
4.94008

>  <SCORE.INTRA.POLAR>
0

>  <SCORE.INTRA.POLAR.0>
0

>  <SCORE.INTRA.REPUL>
0

>  <SCORE.INTRA.REPUL.0>
0

>  <SCORE.INTRA.SOLV>
-0.200458

>  <SCORE.INTRA.SOLV.lig_0>
-31.4704

>  <SCORE.INTRA.VDW>
-9.83905

>  <SCORE.INTRA.VDW.0>
10.2807

>  <SCORE.INTRA.norm>
-0.399473

>  <SCORE.RESTR>
0.205422

>  <SCORE.RESTR.CAVITY>
0.205422

>  <SCORE.RESTR.norm>
0.00855923

>  <SCORE.SYSTEM>
0

>  <SCORE.SYSTEM.CONST>
0

>  <SCORE.SYSTEM.DIHEDRAL>
0

>  <SCORE.SYSTEM.SOLV>
0

>  <SCORE.SYSTEM.norm>
0

>  <SCORE.heavy>
24

>  <SCORE.norm>
-1.33669

>  <RMSD>
1.190

$$$$
ligand
 OpenBabel11021811493D
libRbt.so/2013.1/901 2013/11/27
 24 26  0  0  0  0  0  0  0  0999 V2000
    7.0477  -10.9576  -10.0447 N   0  0  0  0  0  0  0  0  0  0  0  0
    8.2002  -11.5081   -9.3498 C   0  0  0  0  0  0  0  0  0  0  0  0
   12.9373   -5.5442  -12.8656 O   0  0  0  0  0  0  0  0  0  0  0  0
   11.6004   -5.2170  -12.6831 C   0  0  0  0  0  0  0  0  0  0  0  0
    7.4388   -4.3896  -12.1772 N   0  0  0  0  0  0  0  0  0  0  0  0
   11.1481   -3.7829  -12.6073 C   0  0  0  0  0  0  0  0  0  0  0  0
    8.0237   -6.5567  -12.2629 N   0  0  0  0  0  0  0  0  0  0  0  0
    9.7719   -3.4187  -12.4476 C   0  0  0  0  0  0  0  0  0  0  0  0
    5.5894   -6.0468  -11.9612 N   0  0  0  0  0  0  0  0  0  0  0  0
    8.8262   -4.4998  -12.3457 C   0  0  0  0  0  0  0  0  0  0  0  0
   12.2495  -10.2398  -12.2031 N   0  0  0  0  0  0  0  0  0  0  0  0
    9.2466   -5.8743  -12.4012 C   0  0  0  0  0  0  0  0  0  0  0  0
   10.6866   -6.2064  -12.5799 C   0  0  0  0  0  0  0  0  0  0  0  0
    6.9618   -5.6674  -12.1353 C   0  0  0  0  0  0  0  0  0  0  0  0
   11.1095   -7.6621  -12.6458 C   0  0  0  0  0  0  0  0  0  0  0  0
   12.6145   -7.9019  -12.5932 C   0  0  1  0  0  0  0  0  0  0  0  0
   13.3832   -6.6729  -12.1999 C   0  0  0  0  0  0  0  0  0  0  0  0
   12.9240   -9.0694  -11.6684 C   0  0  0  0  0  0  0  0  0  0  0  0
    7.8772   -8.0232  -12.3336 C   0  0  0  0  0  0  0  0  0  0  0  0
   13.2290  -11.3069  -12.3574 C   0  0  0  0  0  0  0  0  0  0  0  0
   11.2358  -10.6383  -11.2391 C   0  0  0  0  0  0  0  0  0  0  0  0
    7.6690   -8.7321  -10.9841 C   0  0  0  0  0  0  0  0  0  0  0  0
    7.4772  -10.2368  -11.2515 C   0  0  0  0  0  0  0  0  0  0  0  0
    6.1507  -12.0586  -10.3771 C   0  0  0  0  0  0  0  0  0  0  0  0
  1 23  1  0  0  0  0
  1 24  1  0  0  0  0
  1  2  1  0  0  0  0
  3  4  1  0  0  0  0
  3 17  1  0  0  0  0
  4  6  2  0  0  0  0
  4 13  1  0  0  0  0
  5 10  1  0  0  0  0
  5 14  2  0  0  0  0
  6  8  1  0  0  0  0
  7 12  1  0  0  0  0
  7 14  1  0  0  0  0
  7 19  1  0  0  0  0
  8 10  2  0  0  0  0
  9 14  1  0  0  0  0
 10 12  1  0  0  0  0
 11 18  1  0  0  0  0
 11 20  1  0  0  0  0
 11 21  1  0  0  0  0
 12 13  2  0  0  0  0
 13 15  1  0  0  0  0
 15 16  1  0  0  0  0
 16 17  1  0  0  0  0
 16 18  1  1  0  0  0
 19 22  1  0  0  0  0
 22 23  1  0  0  0  0
M  END
>  <CHROM.1>
-93.88755407,104.38361711,126.60876629,60.08062322,177.63702828,-170.37904041
9.73462124,-7.73921833,-11.87147375,2.01153350,-0.16866566,2.89912639

>  <Name>
ligand

>  <RI>
144

>  <Rbt.Current_Directory>
/home/itssahil/PROJECTS/Mol_Feturizer/New_Systems/rnas/3TZR

>  <Rbt.Executable>
rbdock ($Id: //depot/dev/client3/rdock/2013.1/src/exe/rbdock.cxx#4 $)

>  <Rbt.Library>
libRbt.so (2013.1, Build901 2013/11/27)

>  <Rbt.Parameter_File>
/export/apps/rDock/src/rDock_2013.1_src/data/scripts/dock_solv.prm

>  <Rbt.Receptor>
prm/blind_docking_20.prm

>  <SCORE>
-29.6427

>  <SCORE.INTER>
-21.0636

>  <SCORE.INTER.CONST>
1

>  <SCORE.INTER.POLAR>
0

>  <SCORE.INTER.ROT>
6

>  <SCORE.INTER.SOLV>
20.8993

>  <SCORE.INTER.VDW>
-28.6088

>  <SCORE.INTER.norm>
-0.87765

>  <SCORE.INTRA>
-11.1587

>  <SCORE.INTRA.DIHEDRAL>
0.592161

>  <SCORE.INTRA.DIHEDRAL.0>
4.94008

>  <SCORE.INTRA.POLAR>
0

>  <SCORE.INTRA.POLAR.0>
0

>  <SCORE.INTRA.REPUL>
0

>  <SCORE.INTRA.REPUL.0>
0

>  <SCORE.INTRA.SOLV>
0.261921

>  <SCORE.INTRA.SOLV.lig_0>
-31.4704

>  <SCORE.INTRA.VDW>
-11.5857

>  <SCORE.INTRA.VDW.0>
10.2807

>  <SCORE.INTRA.norm>
-0.464944

>  <SCORE.RESTR>
2.57959

>  <SCORE.RESTR.CAVITY>
2.57959

>  <SCORE.RESTR.norm>
0.107483

>  <SCORE.SYSTEM>
0

>  <SCORE.SYSTEM.CONST>
0

>  <SCORE.SYSTEM.DIHEDRAL>
0

>  <SCORE.SYSTEM.SOLV>
0

>  <SCORE.SYSTEM.norm>
0

>  <SCORE.heavy>
24

>  <SCORE.norm>
-1.23511

>  <RMSD>
1.202

$$$$
ligand
 OpenBabel11021811493D
libRbt.so/2013.1/901 2013/11/27
 24 26  0  0  0  0  0  0  0  0999 V2000
    6.5677   -9.9887  -11.0311 N   0  0  0  0  0  0  0  0  0  0  0  0
    7.6312  -10.6183  -10.2651 C   0  0  0  0  0  0  0  0  0  0  0  0
   13.7210   -7.2652  -13.0428 O   0  0  0  0  0  0  0  0  0  0  0  0
   12.6241   -6.4477  -12.8058 C   0  0  0  0  0  0  0  0  0  0  0  0
    9.1350   -4.0889  -12.0839 N   0  0  0  0  0  0  0  0  0  0  0  0
   12.6962   -4.9589  -13.0180 C   0  0  0  0  0  0  0  0  0  0  0  0
    8.9398   -6.2978  -11.7252 N   0  0  0  0  0  0  0  0  0  0  0  0
   11.5712   -4.0974  -12.8076 C   0  0  0  0  0  0  0  0  0  0  0  0
    6.9085   -4.8933  -11.3033 N   0  0  0  0  0  0  0  0  0  0  0  0
   10.3534   -4.7239  -12.3627 C   0  0  0  0  0  0  0  0  0  0  0  0
   11.9989  -11.4391  -11.4898 N   0  0  0  0  0  0  0  0  0  0  0  0
   10.2752   -6.1430  -12.1414 C   0  0  0  0  0  0  0  0  0  0  0  0
   11.4665   -7.0017  -12.3841 C   0  0  0  0  0  0  0  0  0  0  0  0
    8.2750   -5.0763  -11.6993 C   0  0  0  0  0  0  0  0  0  0  0  0
   11.3618   -8.4978  -12.1543 C   0  0  0  0  0  0  0  0  0  0  0  0
   12.6852   -9.2542  -12.2012 C   0  0  1  0  0  0  0  0  0  0  0  0
   13.8760   -8.3390  -12.1832 C   0  0  0  0  0  0  0  0  0  0  0  0
   12.7468  -10.2671  -11.0680 C   0  0  0  0  0  0  0  0  0  0  0  0
    8.3032   -7.5980  -11.4396 C   0  0  0  0  0  0  0  0  0  0  0  0
   12.8855  -12.2993  -12.2617 C   0  0  0  0  0  0  0  0  0  0  0  0
   11.5621  -12.1341  -10.2890 C   0  0  0  0  0  0  0  0  0  0  0  0
    7.2223   -8.0385  -12.4417 C   0  0  0  0  0  0  0  0  0  0  0  0
    7.0685   -9.5682  -12.3475 C   0  0  0  0  0  0  0  0  0  0  0  0
    5.4755  -10.9465  -11.1618 C   0  0  0  0  0  0  0  0  0  0  0  0
  1 23  1  0  0  0  0
  1 24  1  0  0  0  0
  1  2  1  0  0  0  0
  3  4  1  0  0  0  0
  3 17  1  0  0  0  0
  4  6  2  0  0  0  0
  4 13  1  0  0  0  0
  5 10  1  0  0  0  0
  5 14  2  0  0  0  0
  6  8  1  0  0  0  0
  7 12  1  0  0  0  0
  7 14  1  0  0  0  0
  7 19  1  0  0  0  0
  8 10  2  0  0  0  0
  9 14  1  0  0  0  0
 10 12  1  0  0  0  0
 11 18  1  0  0  0  0
 11 20  1  0  0  0  0
 11 21  1  0  0  0  0
 12 13  2  0  0  0  0
 13 15  1  0  0  0  0
 15 16  1  0  0  0  0
 16 17  1  0  0  0  0
 16 18  1  1  0  0  0
 19 22  1  0  0  0  0
 22 23  1  0  0  0  0
M  END
>  <CHROM.1>
-107.38292139,-110.69228193,85.43395538,80.98330764,158.01152004,64.48006070
10.19153268,-8.05665432,-11.87543569,1.36107873,-0.14033116,2.97270140

>  <Name>
ligand

>  <RI>
0

>  <Rbt.Current_Directory>
/home/itssahil/PROJECTS/Mol_Feturizer/New_Systems/rnas/3TZR

>  <Rbt.Executable>
rbdock ($Id: //depot/dev/client3/rdock/2013.1/src/exe/rbdock.cxx#4 $)

>  <Rbt.Library>
libRbt.so (2013.1, Build901 2013/11/27)

>  <Rbt.Parameter_File>
/export/apps/rDock/src/rDock_2013.1_src/data/scripts/dock_solv.prm

>  <Rbt.Receptor>
prm/pocket_docking_5.prm

>  <SCORE>
-33.3617

>  <SCORE.INTER>
-23.6576

>  <SCORE.INTER.CONST>
1

>  <SCORE.INTER.POLAR>
0

>  <SCORE.INTER.ROT>
6

>  <SCORE.INTER.SOLV>
22.6141

>  <SCORE.INTER.VDW>
-30.9097

>  <SCORE.INTER.norm>
-0.985731

>  <SCORE.INTRA>
-9.70413

>  <SCORE.INTRA.DIHEDRAL>
2.38711

>  <SCORE.INTRA.DIHEDRAL.0>
4.94008

>  <SCORE.INTRA.POLAR>
0

>  <SCORE.INTRA.POLAR.0>
0

>  <SCORE.INTRA.REPUL>
0

>  <SCORE.INTRA.REPUL.0>
0

>  <SCORE.INTRA.SOLV>
0.513326

>  <SCORE.INTRA.SOLV.lig_0>
-31.4704

>  <SCORE.INTRA.VDW>
-11.1543

>  <SCORE.INTRA.VDW.0>
10.2807

>  <SCORE.INTRA.norm>
-0.404339

>  <SCORE.RESTR>
0

>  <SCORE.RESTR.CAVITY>
0

>  <SCORE.RESTR.norm>
0

>  <SCORE.SYSTEM>
0

>  <SCORE.SYSTEM.CONST>
0

>  <SCORE.SYSTEM.DIHEDRAL>
0

>  <SCORE.SYSTEM.SOLV>
0

>  <SCORE.SYSTEM.norm>
0

>  <SCORE.heavy>
24

>  <SCORE.norm>
-1.39007

>  <RMSD>
1.203

$$$$
ligand
 OpenBabel11021811493D
libRbt.so/2013.1/901 2013/11/27
 24 26  0  0  0  0  0  0  0  0999 V2000
    6.1194  -10.0673  -11.4612 N   0  0  0  0  0  0  0  0  0  0  0  0
    5.2451  -11.0322  -10.8140 C   0  0  0  0  0  0  0  0  0  0  0  0
   13.7019   -6.9423  -12.8719 O   0  0  0  0  0  0  0  0  0  0  0  0
   12.5229   -6.2685  -12.5827 C   0  0  0  0  0  0  0  0  0  0  0  0
    8.7960   -4.3539  -11.7439 N   0  0  0  0  0  0  0  0  0  0  0  0
   12.4850   -4.7674  -12.4734 C   0  0  0  0  0  0  0  0  0  0  0  0
    8.7609   -6.5962  -11.8724 N   0  0  0  0  0  0  0  0  0  0  0  0
   11.2766   -4.0469  -12.2037 C   0  0  0  0  0  0  0  0  0  0  0  0
    6.5884   -5.4515  -11.3760 N   0  0  0  0  0  0  0  0  0  0  0  0
   10.0835   -4.8328  -12.0237 C   0  0  0  0  0  0  0  0  0  0  0  0
   13.0740  -11.5077  -12.5193 N   0  0  0  0  0  0  0  0  0  0  0  0
   10.1086   -6.2684  -12.1104 C   0  0  0  0  0  0  0  0  0  0  0  0
   11.3854   -6.9749  -12.4041 C   0  0  0  0  0  0  0  0  0  0  0  0
    7.9942   -5.4551  -11.6612 C   0  0  0  0  0  0  0  0  0  0  0  0
   11.3901   -8.4891  -12.5012 C   0  0  0  0  0  0  0  0  0  0  0  0
   12.7725   -9.1291  -12.5698 C   0  0  1  0  0  0  0  0  0  0  0  0
   13.8748   -8.1628  -12.2423 C   0  0  0  0  0  0  0  0  0  0  0  0
   12.8242  -10.3552  -11.6709 C   0  0  0  0  0  0  0  0  0  0  0  0
    8.2161   -7.9664  -11.9282 C   0  0  0  0  0  0  0  0  0  0  0  0
   14.5133  -11.7153  -12.6042 C   0  0  0  0  0  0  0  0  0  0  0  0
   12.4474  -12.6587  -11.8884 C   0  0  0  0  0  0  0  0  0  0  0  0
    7.9473   -8.6264  -10.5648 C   0  0  0  0  0  0  0  0  0  0  0  0
    7.4379  -10.0588  -10.8117 C   0  0  0  0  0  0  0  0  0  0  0  0
    6.2262  -10.4270  -12.8707 C   0  0  0  0  0  0  0  0  0  0  0  0
  1 23  1  0  0  0  0
  1 24  1  0  0  0  0
  1  2  1  0  0  0  0
  3  4  1  0  0  0  0
  3 17  1  0  0  0  0
  4  6  2  0  0  0  0
  4 13  1  0  0  0  0
  5 10  1  0  0  0  0
  5 14  2  0  0  0  0
  6  8  1  0  0  0  0
  7 12  1  0  0  0  0
  7 14  1  0  0  0  0
  7 19  1  0  0  0  0
  8 10  2  0  0  0  0
  9 14  1  0  0  0  0
 10 12  1  0  0  0  0
 11 18  1  0  0  0  0
 11 20  1  0  0  0  0
 11 21  1  0  0  0  0
 12 13  2  0  0  0  0
 13 15  1  0  0  0  0
 15 16  1  0  0  0  0
 16 17  1  0  0  0  0
 16 18  1  1  0  0  0
 19 22  1  0  0  0  0
 22 23  1  0  0  0  0
M  END
>  <CHROM.1>
-134.99585997,103.58095014,91.19905862,117.38956745,-177.84221831,-66.59930925
10.22140346,-8.14649839,-11.98527620,2.94315325,0.15135672,-0.03324099

>  <Name>
ligand

>  <RI>
0

>  <Rbt.Current_Directory>
/home/itssahil/PROJECTS/Mol_Feturizer/New_Systems/rnas/3TZR

>  <Rbt.Executable>
rbdock ($Id: //depot/dev/client3/rdock/2013.1/src/exe/rbdock.cxx#4 $)

>  <Rbt.Library>
libRbt.so (2013.1, Build901 2013/11/27)

>  <Rbt.Parameter_File>
/export/apps/rDock/src/rDock_2013.1_src/data/scripts/dock_solv.prm

>  <Rbt.Receptor>
prm/pocket_docking_5.prm

>  <SCORE>
-34.137

>  <SCORE.INTER>
-25.485

>  <SCORE.INTER.CONST>
1

>  <SCORE.INTER.POLAR>
0

>  <SCORE.INTER.ROT>
6

>  <SCORE.INTER.SOLV>
21.1699

>  <SCORE.INTER.VDW>
-31.6466

>  <SCORE.INTER.norm>
-1.06187

>  <SCORE.INTRA>
-8.65201

>  <SCORE.INTRA.DIHEDRAL>
5.00444

>  <SCORE.INTRA.DIHEDRAL.0>
4.94008

>  <SCORE.INTRA.POLAR>
0

>  <SCORE.INTRA.POLAR.0>
0

>  <SCORE.INTRA.REPUL>
0

>  <SCORE.INTRA.REPUL.0>
0

>  <SCORE.INTRA.SOLV>
0.260736

>  <SCORE.INTRA.SOLV.lig_0>
-31.4704

>  <SCORE.INTRA.VDW>
-11.2846

>  <SCORE.INTRA.VDW.0>
10.2807

>  <SCORE.INTRA.norm>
-0.3605

>  <SCORE.RESTR>
0

>  <SCORE.RESTR.CAVITY>
0

>  <SCORE.RESTR.norm>
0

>  <SCORE.SYSTEM>
0

>  <SCORE.SYSTEM.CONST>
0

>  <SCORE.SYSTEM.DIHEDRAL>
0

>  <SCORE.SYSTEM.SOLV>
0

>  <SCORE.SYSTEM.norm>
0

>  <SCORE.heavy>
24

>  <SCORE.norm>
-1.42237

>  <RMSD>
1.208

$$$$
ligand
 OpenBabel11021811493D
libRbt.so/2013.1/901 2013/11/27
 24 26  0  0  0  0  0  0  0  0999 V2000
    6.9763  -10.4328  -11.5598 N   0  0  0  0  0  0  0  0  0  0  0  0
    5.9870  -10.0322  -12.5473 C   0  0  0  0  0  0  0  0  0  0  0  0
   13.5964   -7.5304  -12.8917 O   0  0  0  0  0  0  0  0  0  0  0  0
   12.5399   -6.6494  -12.7030 C   0  0  0  0  0  0  0  0  0  0  0  0
    9.1665   -4.0832  -12.1611 N   0  0  0  0  0  0  0  0  0  0  0  0
   12.7472   -5.1585  -12.7390 C   0  0  0  0  0  0  0  0  0  0  0  0
    8.7660   -6.2918  -12.0753 N   0  0  0  0  0  0  0  0  0  0  0  0
   11.6698   -4.2288  -12.5752 C   0  0  0  0  0  0  0  0  0  0  0  0
    6.8042   -4.7670  -11.7548 N   0  0  0  0  0  0  0  0  0  0  0  0
   10.3618   -4.7895  -12.3559 C   0  0  0  0  0  0  0  0  0  0  0  0
   13.2132  -11.5848  -11.6411 N   0  0  0  0  0  0  0  0  0  0  0  0
   10.1523   -6.2117  -12.3039 C   0  0  0  0  0  0  0  0  0  0  0  0
   11.2998   -7.1411  -12.4911 C   0  0  0  0  0  0  0  0  0  0  0  0
    8.1941   -5.0264  -11.9969 C   0  0  0  0  0  0  0  0  0  0  0  0
   11.0575   -8.6381  -12.4425 C   0  0  0  0  0  0  0  0  0  0  0  0
   12.3171   -9.4970  -12.4090 C   0  0  1  0  0  0  0  0  0  0  0  0
   13.5584   -8.6942  -12.1433 C   0  0  0  0  0  0  0  0  0  0  0  0
   12.1551  -10.6200  -11.3956 C   0  0  0  0  0  0  0  0  0  0  0  0
    8.0048   -7.5544  -12.0156 C   0  0  0  0  0  0  0  0  0  0  0  0
   13.3299  -12.4489  -10.4742 C   0  0  0  0  0  0  0  0  0  0  0  0
   12.8254  -12.3732  -12.8001 C   0  0  0  0  0  0  0  0  0  0  0  0
    8.3600   -8.4851  -10.8433 C   0  0  0  0  0  0  0  0  0  0  0  0
    7.1413   -9.3795  -10.5479 C   0  0  0  0  0  0  0  0  0  0  0  0
    6.5316  -11.6830  -10.9544 C   0  0  0  0  0  0  0  0  0  0  0  0
  1 23  1  0  0  0  0
  1 24  1  0  0  0  0
  1  2  1  0  0  0  0
  3  4  1  0  0  0  0
  3 17  1  0  0  0  0
  4  6  2  0  0  0  0
  4 13  1  0  0  0  0
  5 10  1  0  0  0  0
  5 14  2  0  0  0  0
  6  8  1  0  0  0  0
  7 12  1  0  0  0  0
  7 14  1  0  0  0  0
  7 19  1  0  0  0  0
  8 10  2  0  0  0  0
  9 14  1  0  0  0  0
 10 12  1  0  0  0  0
 11 18  1  0  0  0  0
 11 20  1  0  0  0  0
 11 21  1  0  0  0  0
 12 13  2  0  0  0  0
 13 15  1  0  0  0  0
 15 16  1  0  0  0  0
 16 17  1  0  0  0  0
 16 18  1  1  0  0  0
 19 22  1  0  0  0  0
 22 23  1  0  0  0  0
M  END
>  <CHROM.1>
-97.85459528,65.35369225,163.59312829,165.87740215,155.12256677,74.56906130
10.25728674,-8.19662639,-11.97328438,2.24471812,0.11563803,-0.13573546

>  <Name>
ligand

>  <RI>
0

>  <Rbt.Current_Directory>
/home/itssahil/PROJECTS/Mol_Feturizer/New_Systems/rnas/3TZR

>  <Rbt.Executable>
rbdock ($Id: //depot/dev/client3/rdock/2013.1/src/exe/rbdock.cxx#4 $)

>  <Rbt.Library>
libRbt.so (2013.1, Build901 2013/11/27)

>  <Rbt.Parameter_File>
/export/apps/rDock/src/rDock_2013.1_src/data/scripts/dock_solv.prm

>  <Rbt.Receptor>
prm/pocket_docking_2.prm

>  <SCORE>
-30.8492

>  <SCORE.INTER>
-21.9432

>  <SCORE.INTER.CONST>
1

>  <SCORE.INTER.POLAR>
0

>  <SCORE.INTER.ROT>
6

>  <SCORE.INTER.SOLV>
22.6131

>  <SCORE.INTER.VDW>
-29.7665

>  <SCORE.INTER.norm>
-0.914302

>  <SCORE.INTRA>
-8.9729

>  <SCORE.INTRA.DIHEDRAL>
1.97545

>  <SCORE.INTRA.DIHEDRAL.0>
4.94008

>  <SCORE.INTRA.POLAR>
0

>  <SCORE.INTRA.POLAR.0>
0

>  <SCORE.INTRA.REPUL>
0

>  <SCORE.INTRA.REPUL.0>
0

>  <SCORE.INTRA.SOLV>
-0.324166

>  <SCORE.INTRA.SOLV.lig_0>
-31.4704

>  <SCORE.INTRA.VDW>
-9.79854

>  <SCORE.INTRA.VDW.0>
10.2807

>  <SCORE.INTRA.norm>
-0.373871

>  <SCORE.RESTR>
0.0669253

>  <SCORE.RESTR.CAVITY>
0.0669253

>  <SCORE.RESTR.norm>
0.00278855

>  <SCORE.SYSTEM>
0

>  <SCORE.SYSTEM.CONST>
0

>  <SCORE.SYSTEM.DIHEDRAL>
0

>  <SCORE.SYSTEM.SOLV>
0

>  <SCORE.SYSTEM.norm>
0

>  <SCORE.heavy>
24

>  <SCORE.norm>
-1.28538

>  <RMSD>
1.209

$$$$
ligand
 OpenBabel11021811493D
libRbt.so/2013.1/901 2013/11/27
 24 26  0  0  0  0  0  0  0  0999 V2000
    6.1353   -9.9971  -11.5914 N   0  0  0  0  0  0  0  0  0  0  0  0
    5.2874  -11.0198  -11.0003 C   0  0  0  0  0  0  0  0  0  0  0  0
   13.6602   -7.0320  -12.8612 O   0  0  0  0  0  0  0  0  0  0  0  0
   12.5091   -6.3084  -12.5798 C   0  0  0  0  0  0  0  0  0  0  0  0
    8.8619   -4.2355  -11.7675 N   0  0  0  0  0  0  0  0  0  0  0  0
   12.5372   -4.8081  -12.4574 C   0  0  0  0  0  0  0  0  0  0  0  0
    8.7279   -6.4728  -11.9165 N   0  0  0  0  0  0  0  0  0  0  0  0
   11.3591   -4.0363  -12.1955 C   0  0  0  0  0  0  0  0  0  0  0  0
    6.6030   -5.2358  -11.4354 N   0  0  0  0  0  0  0  0  0  0  0  0
   10.1300   -4.7694  -12.0365 C   0  0  0  0  0  0  0  0  0  0  0  0
   13.5481  -11.3698  -12.2708 N   0  0  0  0  0  0  0  0  0  0  0  0
   10.0917   -6.2038  -12.1357 C   0  0  0  0  0  0  0  0  0  0  0  0
   11.3390   -6.9645  -12.4209 C   0  0  0  0  0  0  0  0  0  0  0  0
    8.0107   -5.3002  -11.7040 C   0  0  0  0  0  0  0  0  0  0  0  0
   11.2770   -8.4765  -12.5315 C   0  0  0  0  0  0  0  0  0  0  0  0
   12.6301   -9.1773  -12.5897 C   0  0  1  0  0  0  0  0  0  0  0  0
   13.7705   -8.2643  -12.2406 C   0  0  0  0  0  0  0  0  0  0  0  0
   12.6159  -10.4121  -11.7012 C   0  0  0  0  0  0  0  0  0  0  0  0
    8.1229   -7.8166  -11.9910 C   0  0  0  0  0  0  0  0  0  0  0  0
   13.8712  -12.3608  -11.2532 C   0  0  0  0  0  0  0  0  0  0  0  0
   12.8819  -12.0147  -13.3914 C   0  0  0  0  0  0  0  0  0  0  0  0
    7.9040   -8.5183  -10.6395 C   0  0  0  0  0  0  0  0  0  0  0  0
    7.4383   -9.9609  -10.9122 C   0  0  0  0  0  0  0  0  0  0  0  0
    6.2865  -10.2986  -13.0104 C   0  0  0  0  0  0  0  0  0  0  0  0
  1 23  1  0  0  0  0
  1 24  1  0  0  0  0
  1  2  1  0  0  0  0
  3  4  1  0  0  0  0
  3 17  1  0  0  0  0
  4  6  2  0  0  0  0
  4 13  1  0  0  0  0
  5 10  1  0  0  0  0
  5 14  2  0  0  0  0
  6  8  1  0  0  0  0
  7 12  1  0  0  0  0
  7 14  1  0  0  0  0
  7 19  1  0  0  0  0
  8 10  2  0  0  0  0
  9 14  1  0  0  0  0
 10 12  1  0  0  0  0
 11 18  1  0  0  0  0
 11 20  1  0  0  0  0
 11 21  1  0  0  0  0
 12 13  2  0  0  0  0
 13 15  1  0  0  0  0
 15 16  1  0  0  0  0
 16 17  1  0  0  0  0
 16 18  1  1  0  0  0
 19 22  1  0  0  0  0
 22 23  1  0  0  0  0
M  END
>  <CHROM.1>
-136.74455626,99.25691648,162.53277570,151.08811142,-172.93853738,-64.01554644
10.21224389,-8.10073550,-12.02317575,2.81165164,0.12818006,-0.02682945

>  <Name>
ligand

>  <RI>
144

>  <Rbt.Current_Directory>
/home/itssahil/PROJECTS/Mol_Feturizer/New_Systems/rnas/3TZR

>  <Rbt.Executable>
rbdock ($Id: //depot/dev/client3/rdock/2013.1/src/exe/rbdock.cxx#4 $)

>  <Rbt.Library>
libRbt.so (2013.1, Build901 2013/11/27)

>  <Rbt.Parameter_File>
/export/apps/rDock/src/rDock_2013.1_src/data/scripts/dock_solv.prm

>  <Rbt.Receptor>
prm/blind_docking_60.prm

>  <SCORE>
-32.3615

>  <SCORE.INTER>
-23.55

>  <SCORE.INTER.CONST>
1

>  <SCORE.INTER.POLAR>
0

>  <SCORE.INTER.ROT>
6

>  <SCORE.INTER.SOLV>
21.927

>  <SCORE.INTER.VDW>
-30.609

>  <SCORE.INTER.norm>
-0.981251

>  <SCORE.INTRA>
-9.49602

>  <SCORE.INTRA.DIHEDRAL>
1.63249

>  <SCORE.INTRA.DIHEDRAL.0>
4.94008

>  <SCORE.INTRA.POLAR>
0

>  <SCORE.INTRA.POLAR.0>
0

>  <SCORE.INTRA.REPUL>
0

>  <SCORE.INTRA.REPUL.0>
0

>  <SCORE.INTRA.SOLV>
0.209303

>  <SCORE.INTRA.SOLV.lig_0>
-31.4704

>  <SCORE.INTRA.VDW>
-10.4169

>  <SCORE.INTRA.VDW.0>
10.2807

>  <SCORE.INTRA.norm>
-0.395667

>  <SCORE.RESTR>
0.684578

>  <SCORE.RESTR.CAVITY>
0.684578

>  <SCORE.RESTR.norm>
0.0285241

>  <SCORE.SYSTEM>
0

>  <SCORE.SYSTEM.CONST>
0

>  <SCORE.SYSTEM.DIHEDRAL>
0

>  <SCORE.SYSTEM.SOLV>
0

>  <SCORE.SYSTEM.norm>
0

>  <SCORE.heavy>
24

>  <SCORE.norm>
-1.34839

>  <RMSD>
1.218

$$$$
ligand
 OpenBabel11021811493D
libRbt.so/2013.1/901 2013/11/27
 24 26  0  0  0  0  0  0  0  0999 V2000
    7.5342  -10.6176  -10.8675 N   0  0  0  0  0  0  0  0  0  0  0  0
    6.5094  -11.4986  -11.4039 C   0  0  0  0  0  0  0  0  0  0  0  0
   13.9074   -8.0287  -13.2779 O   0  0  0  0  0  0  0  0  0  0  0  0
   12.9157   -7.1037  -12.9801 C   0  0  0  0  0  0  0  0  0  0  0  0
    9.7319   -4.3956  -12.0922 N   0  0  0  0  0  0  0  0  0  0  0  0
   13.1885   -5.6235  -13.0172 C   0  0  0  0  0  0  0  0  0  0  0  0
    9.2379   -6.5847  -11.9960 N   0  0  0  0  0  0  0  0  0  0  0  0
   12.1760   -4.6484  -12.7415 C   0  0  0  0  0  0  0  0  0  0  0  0
    7.3883   -4.9775  -11.4739 N   0  0  0  0  0  0  0  0  0  0  0  0
   10.8692   -5.1524  -12.4071 C   0  0  0  0  0  0  0  0  0  0  0  0
   13.4426  -12.0881  -12.0549 N   0  0  0  0  0  0  0  0  0  0  0  0
   10.5990   -6.5641  -12.3529 C   0  0  0  0  0  0  0  0  0  0  0  0
   11.6791   -7.5418  -12.6585 C   0  0  0  0  0  0  0  0  0  0  0  0
    8.7358   -5.2960  -11.8488 C   0  0  0  0  0  0  0  0  0  0  0  0
   11.3723   -9.0268  -12.6056 C   0  0  0  0  0  0  0  0  0  0  0  0
   12.5878   -9.9427  -12.7011 C   0  0  1  0  0  0  0  0  0  0  0  0
   13.8848   -9.2018  -12.5435 C   0  0  0  0  0  0  0  0  0  0  0  0
   12.4685  -11.0737  -11.6908 C   0  0  0  0  0  0  0  0  0  0  0  0
    8.4270   -7.8121  -11.8804 C   0  0  0  0  0  0  0  0  0  0  0  0
   13.8503  -12.7917  -10.8463 C   0  0  0  0  0  0  0  0  0  0  0  0
   12.7891  -13.0142  -12.9664 C   0  0  0  0  0  0  0  0  0  0  0  0
    8.0307   -8.2095  -10.4480 C   0  0  0  0  0  0  0  0  0  0  0  0
    6.9555   -9.3093  -10.5301 C   0  0  0  0  0  0  0  0  0  0  0  0
    8.1133  -11.2590   -9.6925 C   0  0  0  0  0  0  0  0  0  0  0  0
  1 23  1  0  0  0  0
  1 24  1  0  0  0  0
  1  2  1  0  0  0  0
  3  4  1  0  0  0  0
  3 17  1  0  0  0  0
  4  6  2  0  0  0  0
  4 13  1  0  0  0  0
  5 10  1  0  0  0  0
  5 14  2  0  0  0  0
  6  8  1  0  0  0  0
  7 12  1  0  0  0  0
  7 14  1  0  0  0  0
  7 19  1  0  0  0  0
  8 10  2  0  0  0  0
  9 14  1  0  0  0  0
 10 12  1  0  0  0  0
 11 18  1  0  0  0  0
 11 20  1  0  0  0  0
 11 21  1  0  0  0  0
 12 13  2  0  0  0  0
 13 15  1  0  0  0  0
 15 16  1  0  0  0  0
 16 17  1  0  0  0  0
 16 18  1  1  0  0  0
 19 22  1  0  0  0  0
 22 23  1  0  0  0  0
M  END
>  <CHROM.1>
-159.47063632,109.34604277,151.23786014,165.27004895,167.91597908,76.69876457
10.65936688,-8.55007278,-11.93192100,2.19578991,0.27899644,-0.15886388

>  <Name>
ligand

>  <RI>
0

>  <Rbt.Current_Directory>
/home/itssahil/PROJECTS/Mol_Feturizer/New_Systems/rnas/3TZR

>  <Rbt.Executable>
rbdock ($Id: //depot/dev/client3/rdock/2013.1/src/exe/rbdock.cxx#4 $)

>  <Rbt.Library>
libRbt.so (2013.1, Build901 2013/11/27)

>  <Rbt.Parameter_File>
/export/apps/rDock/src/rDock_2013.1_src/data/scripts/dock_solv.prm

>  <Rbt.Receptor>
prm/pocket_docking_6.prm

>  <SCORE>
-33.3519

>  <SCORE.INTER>
-23.0497

>  <SCORE.INTER.CONST>
1

>  <SCORE.INTER.POLAR>
0

>  <SCORE.INTER.ROT>
6

>  <SCORE.INTER.SOLV>
19.6939

>  <SCORE.INTER.VDW>
-29.5311

>  <SCORE.INTER.norm>
-0.960406

>  <SCORE.INTRA>
-10.3021

>  <SCORE.INTRA.DIHEDRAL>
0.490837

>  <SCORE.INTRA.DIHEDRAL.0>
4.94008

>  <SCORE.INTRA.POLAR>
0

>  <SCORE.INTRA.POLAR.0>
0

>  <SCORE.INTRA.REPUL>
0

>  <SCORE.INTRA.REPUL.0>
0

>  <SCORE.INTRA.SOLV>
0.689027

>  <SCORE.INTRA.SOLV.lig_0>
-31.4704

>  <SCORE.INTRA.VDW>
-10.892

>  <SCORE.INTRA.VDW.0>
10.2807

>  <SCORE.INTRA.norm>
-0.429255

>  <SCORE.RESTR>
0

>  <SCORE.RESTR.CAVITY>
0

>  <SCORE.RESTR.norm>
0

>  <SCORE.SYSTEM>
0

>  <SCORE.SYSTEM.CONST>
0

>  <SCORE.SYSTEM.DIHEDRAL>
0

>  <SCORE.SYSTEM.SOLV>
0

>  <SCORE.SYSTEM.norm>
0

>  <SCORE.heavy>
24

>  <SCORE.norm>
-1.38966

>  <RMSD>
1.222

$$$$
ligand
 OpenBabel11021811493D
libRbt.so/2013.1/901 2013/11/27
 24 26  0  0  0  0  0  0  0  0999 V2000
    6.0602  -10.0069  -11.5560 N   0  0  0  0  0  0  0  0  0  0  0  0
    5.1711  -10.9681  -10.9237 C   0  0  0  0  0  0  0  0  0  0  0  0
   13.6925   -7.4391  -12.7882 O   0  0  0  0  0  0  0  0  0  0  0  0
   12.5863   -6.6402  -12.5318 C   0  0  0  0  0  0  0  0  0  0  0  0
    9.0682   -4.3296  -11.7948 N   0  0  0  0  0  0  0  0  0  0  0  0
   12.7069   -5.1425  -12.4356 C   0  0  0  0  0  0  0  0  0  0  0  0
    8.7961   -6.5566  -11.9057 N   0  0  0  0  0  0  0  0  0  0  0  0
   11.5769   -4.2942  -12.1998 C   0  0  0  0  0  0  0  0  0  0  0  0
    6.7482   -5.1811  -11.4690 N   0  0  0  0  0  0  0  0  0  0  0  0
   10.3029   -4.9463  -12.0409 C   0  0  0  0  0  0  0  0  0  0  0  0
   13.4285  -11.6832  -12.0198 N   0  0  0  0  0  0  0  0  0  0  0  0
   10.1761   -6.3772  -12.1152 C   0  0  0  0  0  0  0  0  0  0  0  0
   11.3761   -7.2191  -12.3737 C   0  0  0  0  0  0  0  0  0  0  0  0
    8.1515   -5.3379  -11.7216 C   0  0  0  0  0  0  0  0  0  0  0  0
   11.2208   -8.7261  -12.4582 C   0  0  0  0  0  0  0  0  0  0  0  0
   12.5279   -9.5108  -12.4898 C   0  0  1  0  0  0  0  0  0  0  0  0
   13.7198   -8.6644  -12.1448 C   0  0  0  0  0  0  0  0  0  0  0  0
   12.4283  -10.7258  -11.5798 C   0  0  0  0  0  0  0  0  0  0  0  0
    8.1091   -7.8612  -11.9629 C   0  0  0  0  0  0  0  0  0  0  0  0
   13.6999  -12.6038  -10.9240 C   0  0  0  0  0  0  0  0  0  0  0  0
   12.8694  -12.4122  -13.1474 C   0  0  0  0  0  0  0  0  0  0  0  0
    7.8140   -8.5126  -10.6008 C   0  0  0  0  0  0  0  0  0  0  0  0
    7.3466   -9.9595  -10.8465 C   0  0  0  0  0  0  0  0  0  0  0  0
    6.2383  -10.4025  -12.9486 C   0  0  0  0  0  0  0  0  0  0  0  0
  1 23  1  0  0  0  0
  1 24  1  0  0  0  0
  1  2  1  0  0  0  0
  3  4  1  0  0  0  0
  3 17  1  0  0  0  0
  4  6  2  0  0  0  0
  4 13  1  0  0  0  0
  5 10  1  0  0  0  0
  5 14  2  0  0  0  0
  6  8  1  0  0  0  0
  7 12  1  0  0  0  0
  7 14  1  0  0  0  0
  7 19  1  0  0  0  0
  8 10  2  0  0  0  0
  9 14  1  0  0  0  0
 10 12  1  0  0  0  0
 11 18  1  0  0  0  0
 11 20  1  0  0  0  0
 11 21  1  0  0  0  0
 12 13  2  0  0  0  0
 13 15  1  0  0  0  0
 15 16  1  0  0  0  0
 16 17  1  0  0  0  0
 16 18  1  1  0  0  0
 19 22  1  0  0  0  0
 22 23  1  0  0  0  0
M  END
>  <CHROM.1>
-134.30774357,100.18692854,159.49359656,158.30859552,-169.51265781,-65.64009214
10.21539375,-8.28514024,-11.95065176,2.73876604,0.11602274,-0.04682359

>  <Name>
ligand

>  <RI>
0

>  <Rbt.Current_Directory>
/home/itssahil/PROJECTS/Mol_Feturizer/New_Systems/rnas/3TZR

>  <Rbt.Executable>
rbdock ($Id: //depot/dev/client3/rdock/2013.1/src/exe/rbdock.cxx#4 $)

>  <Rbt.Library>
libRbt.so (2013.1, Build901 2013/11/27)

>  <Rbt.Parameter_File>
/export/apps/rDock/src/rDock_2013.1_src/data/scripts/dock_solv.prm

>  <Rbt.Receptor>
prm/pocket_docking_4.prm

>  <SCORE>
-33.6783

>  <SCORE.INTER>
-23.734

>  <SCORE.INTER.CONST>
1

>  <SCORE.INTER.POLAR>
0

>  <SCORE.INTER.ROT>
6

>  <SCORE.INTER.SOLV>
21.4686

>  <SCORE.INTER.VDW>
-30.5789

>  <SCORE.INTER.norm>
-0.988917

>  <SCORE.INTRA>
-9.95523

>  <SCORE.INTRA.DIHEDRAL>
1.24573

>  <SCORE.INTRA.DIHEDRAL.0>
4.94008

>  <SCORE.INTRA.POLAR>
0

>  <SCORE.INTRA.POLAR.0>
0

>  <SCORE.INTRA.REPUL>
0

>  <SCORE.INTRA.REPUL.0>
0

>  <SCORE.INTRA.SOLV>
0.235384

>  <SCORE.INTRA.SOLV.lig_0>
-31.4704

>  <SCORE.INTRA.VDW>
-10.6958

>  <SCORE.INTRA.VDW.0>
10.2807

>  <SCORE.INTRA.norm>
-0.414801

>  <SCORE.RESTR>
0.0109769

>  <SCORE.RESTR.CAVITY>
0.0109769

>  <SCORE.RESTR.norm>
0.000457372

>  <SCORE.SYSTEM>
0

>  <SCORE.SYSTEM.CONST>
0

>  <SCORE.SYSTEM.DIHEDRAL>
0

>  <SCORE.SYSTEM.SOLV>
0

>  <SCORE.SYSTEM.norm>
0

>  <SCORE.heavy>
24

>  <SCORE.norm>
-1.40326

>  <RMSD>
1.226

$$$$
ligand
 OpenBabel11021811493D
libRbt.so/2013.1/901 2013/11/27
 24 26  0  0  0  0  0  0  0  0999 V2000
    6.1827  -10.0358  -11.1404 N   0  0  0  0  0  0  0  0  0  0  0  0
    7.2178  -10.7935  -10.4558 C   0  0  0  0  0  0  0  0  0  0  0  0
   13.8312   -7.7540  -13.1526 O   0  0  0  0  0  0  0  0  0  0  0  0
   12.7644   -6.9272  -12.8270 C   0  0  0  0  0  0  0  0  0  0  0  0
    9.3618   -4.5323  -11.8548 N   0  0  0  0  0  0  0  0  0  0  0  0
   12.9026   -5.4280  -12.8405 C   0  0  0  0  0  0  0  0  0  0  0  0
    9.0677   -6.7583  -11.7926 N   0  0  0  0  0  0  0  0  0  0  0  0
   11.8102   -4.5529  -12.5359 C   0  0  0  0  0  0  0  0  0  0  0  0
    7.0880   -5.3333  -11.2210 N   0  0  0  0  0  0  0  0  0  0  0  0
   10.5584   -5.1781  -12.1960 C   0  0  0  0  0  0  0  0  0  0  0  0
   13.5725  -11.9719  -12.1304 N   0  0  0  0  0  0  0  0  0  0  0  0
   10.4168   -6.6092  -12.1644 C   0  0  0  0  0  0  0  0  0  0  0  0
   11.5763   -7.4803  -12.4996 C   0  0  0  0  0  0  0  0  0  0  0  0
    8.4538   -5.5227  -11.6166 C   0  0  0  0  0  0  0  0  0  0  0  0
   11.4048   -8.9876  -12.4702 C   0  0  0  0  0  0  0  0  0  0  0  0
   12.6964   -9.7886  -12.5958 C   0  0  1  0  0  0  0  0  0  0  0  0
   13.9235   -8.9367  -12.4394 C   0  0  0  0  0  0  0  0  0  0  0  0
   12.6921  -10.9427  -11.6048 C   0  0  0  0  0  0  0  0  0  0  0  0
    8.3719   -8.0555  -11.6902 C   0  0  0  0  0  0  0  0  0  0  0  0
   14.0002  -12.8212  -11.0269 C   0  0  0  0  0  0  0  0  0  0  0  0
   12.8063  -12.7561  -13.0861 C   0  0  0  0  0  0  0  0  0  0  0  0
    7.1025   -8.1938  -12.5483 C   0  0  0  0  0  0  0  0  0  0  0  0
    6.6338   -9.6597  -12.4878 C   0  0  0  0  0  0  0  0  0  0  0  0
    4.9801  -10.8593  -11.1956 C   0  0  0  0  0  0  0  0  0  0  0  0
  1 23  1  0  0  0  0
  1 24  1  0  0  0  0
  1  2  1  0  0  0  0
  3  4  1  0  0  0  0
  3 17  1  0  0  0  0
  4  6  2  0  0  0  0
  4 13  1  0  0  0  0
  5 10  1  0  0  0  0
  5 14  2  0  0  0  0
  6  8  1  0  0  0  0
  7 12  1  0  0  0  0
  7 14  1  0  0  0  0
  7 19  1  0  0  0  0
  8 10  2  0  0  0  0
  9 14  1  0  0  0  0
 10 12  1  0  0  0  0
 11 18  1  0  0  0  0
 11 20  1  0  0  0  0
 11 21  1  0  0  0  0
 12 13  2  0  0  0  0
 13 15  1  0  0  0  0
 15 16  1  0  0  0  0
 16 17  1  0  0  0  0
 16 18  1  1  0  0  0
 19 22  1  0  0  0  0
 22 23  1  0  0  0  0
M  END
>  <CHROM.1>
-101.17227070,-123.45199079,158.17894170,155.02127017,171.48864071,66.41271769
10.36313930,-8.46555068,-12.04920986,2.76235081,0.14910008,-0.08269349

>  <Name>
ligand

>  <RI>
0

>  <Rbt.Current_Directory>
/home/itssahil/PROJECTS/Mol_Feturizer/New_Systems/rnas/3TZR

>  <Rbt.Executable>
rbdock ($Id: //depot/dev/client3/rdock/2013.1/src/exe/rbdock.cxx#4 $)

>  <Rbt.Library>
libRbt.so (2013.1, Build901 2013/11/27)

>  <Rbt.Parameter_File>
/export/apps/rDock/src/rDock_2013.1_src/data/scripts/dock_solv.prm

>  <Rbt.Receptor>
prm/pocket_docking_3.prm

>  <SCORE>
-32.4117

>  <SCORE.INTER>
-23.3037

>  <SCORE.INTER.CONST>
1

>  <SCORE.INTER.POLAR>
0

>  <SCORE.INTER.ROT>
6

>  <SCORE.INTER.SOLV>
20.8142

>  <SCORE.INTER.VDW>
-30.0739

>  <SCORE.INTER.norm>
-0.970987

>  <SCORE.INTRA>
-9.10806

>  <SCORE.INTRA.DIHEDRAL>
1.33298

>  <SCORE.INTRA.DIHEDRAL.0>
4.94008

>  <SCORE.INTRA.POLAR>
0

>  <SCORE.INTRA.POLAR.0>
0

>  <SCORE.INTRA.REPUL>
0

>  <SCORE.INTRA.REPUL.0>
0

>  <SCORE.INTRA.SOLV>
0.910682

>  <SCORE.INTRA.SOLV.lig_0>
-31.4704

>  <SCORE.INTRA.VDW>
-10.2299

>  <SCORE.INTRA.VDW.0>
10.2807

>  <SCORE.INTRA.norm>
-0.379503

>  <SCORE.RESTR>
0

>  <SCORE.RESTR.CAVITY>
0

>  <SCORE.RESTR.norm>
0

>  <SCORE.SYSTEM>
0

>  <SCORE.SYSTEM.CONST>
0

>  <SCORE.SYSTEM.DIHEDRAL>
0

>  <SCORE.SYSTEM.SOLV>
0

>  <SCORE.SYSTEM.norm>
0

>  <SCORE.heavy>
24

>  <SCORE.norm>
-1.35049

>  <RMSD>
1.228

$$$$
ligand
 OpenBabel11021811493D
libRbt.so/2013.1/901 2013/11/27
 24 26  0  0  0  0  0  0  0  0999 V2000
    6.1248  -10.1288  -11.4910 N   0  0  0  0  0  0  0  0  0  0  0  0
    5.2574  -11.0802  -10.8152 C   0  0  0  0  0  0  0  0  0  0  0  0
   13.7218   -7.0001  -12.9405 O   0  0  0  0  0  0  0  0  0  0  0  0
   12.5469   -6.3289  -12.6294 C   0  0  0  0  0  0  0  0  0  0  0  0
    8.8318   -4.4211  -11.7253 N   0  0  0  0  0  0  0  0  0  0  0  0
   12.5134   -4.8298  -12.4936 C   0  0  0  0  0  0  0  0  0  0  0  0
    8.7904   -6.6607  -11.8924 N   0  0  0  0  0  0  0  0  0  0  0  0
   11.3091   -4.1115  -12.2011 C   0  0  0  0  0  0  0  0  0  0  0  0
    6.6249   -5.5200  -11.3575 N   0  0  0  0  0  0  0  0  0  0  0  0
   10.1158   -4.8978  -12.0245 C   0  0  0  0  0  0  0  0  0  0  0  0
   13.2030  -11.5520  -12.6445 N   0  0  0  0  0  0  0  0  0  0  0  0
   10.1368   -6.3317  -12.1363 C   0  0  0  0  0  0  0  0  0  0  0  0
   11.4094   -7.0358  -12.4533 C   0  0  0  0  0  0  0  0  0  0  0  0
    8.0283   -5.5218  -11.6548 C   0  0  0  0  0  0  0  0  0  0  0  0
   11.4097   -8.5481  -12.5767 C   0  0  0  0  0  0  0  0  0  0  0  0
   12.7899   -9.1898  -12.6684 C   0  0  1  0  0  0  0  0  0  0  0  0
   13.8972   -8.2318  -12.3337 C   0  0  0  0  0  0  0  0  0  0  0  0
   12.8465  -10.4314  -11.7913 C   0  0  0  0  0  0  0  0  0  0  0  0
    8.2419   -8.0285  -11.9673 C   0  0  0  0  0  0  0  0  0  0  0  0
   14.6485  -11.7256  -12.5988 C   0  0  0  0  0  0  0  0  0  0  0  0
   12.5484  -12.7350  -12.1082 C   0  0  0  0  0  0  0  0  0  0  0  0
    7.9787   -8.7097  -10.6132 C   0  0  0  0  0  0  0  0  0  0  0  0
    7.4619  -10.1358  -10.8804 C   0  0  0  0  0  0  0  0  0  0  0  0
    6.1855  -10.4940  -12.9018 C   0  0  0  0  0  0  0  0  0  0  0  0
  1 23  1  0  0  0  0
  1 24  1  0  0  0  0
  1  2  1  0  0  0  0
  3  4  1  0  0  0  0
  3 17  1  0  0  0  0
  4  6  2  0  0  0  0
  4 13  1  0  0  0  0
  5 10  1  0  0  0  0
  5 14  2  0  0  0  0
  6  8  1  0  0  0  0
  7 12  1  0  0  0  0
  7 14  1  0  0  0  0
  7 19  1  0  0  0  0
  8 10  2  0  0  0  0
  9 14  1  0  0  0  0
 10 12  1  0  0  0  0
 11 18  1  0  0  0  0
 11 20  1  0  0  0  0
 11 21  1  0  0  0  0
 12 13  2  0  0  0  0
 13 15  1  0  0  0  0
 15 16  1  0  0  0  0
 16 17  1  0  0  0  0
 16 18  1  1  0  0  0
 19 22  1  0  0  0  0
 22 23  1  0  0  0  0
M  END
>  <CHROM.1>
-133.22981659,103.78566996,93.62179455,122.32190717,-177.95181948,-68.03297282
10.25641528,-8.20862261,-12.03367495,2.94310301,0.15820601,-0.02128770

>  <Name>
ligand

>  <RI>
0

>  <Rbt.Current_Directory>
/home/itssahil/PROJECTS/Mol_Feturizer/New_Systems/rnas/3TZR

>  <Rbt.Executable>
rbdock ($Id: //depot/dev/client3/rdock/2013.1/src/exe/rbdock.cxx#4 $)

>  <Rbt.Library>
libRbt.so (2013.1, Build901 2013/11/27)

>  <Rbt.Parameter_File>
/export/apps/rDock/src/rDock_2013.1_src/data/scripts/dock_solv.prm

>  <Rbt.Receptor>
prm/pocket_docking_6.prm

>  <SCORE>
-34.0467

>  <SCORE.INTER>
-25.3871

>  <SCORE.INTER.CONST>
1

>  <SCORE.INTER.POLAR>
0

>  <SCORE.INTER.ROT>
6

>  <SCORE.INTER.SOLV>
20.982

>  <SCORE.INTER.VDW>
-31.5187

>  <SCORE.INTER.norm>
-1.0578

>  <SCORE.INTRA>
-8.65965

>  <SCORE.INTRA.DIHEDRAL>
5.31935

>  <SCORE.INTRA.DIHEDRAL.0>
4.94008

>  <SCORE.INTRA.POLAR>
0

>  <SCORE.INTRA.POLAR.0>
0

>  <SCORE.INTRA.REPUL>
0

>  <SCORE.INTRA.REPUL.0>
0

>  <SCORE.INTRA.SOLV>
0.263059

>  <SCORE.INTRA.SOLV.lig_0>
-31.4704

>  <SCORE.INTRA.VDW>
-11.4508

>  <SCORE.INTRA.VDW.0>
10.2807

>  <SCORE.INTRA.norm>
-0.360819

>  <SCORE.RESTR>
0

>  <SCORE.RESTR.CAVITY>
0

>  <SCORE.RESTR.norm>
0

>  <SCORE.SYSTEM>
0

>  <SCORE.SYSTEM.CONST>
0

>  <SCORE.SYSTEM.DIHEDRAL>
0

>  <SCORE.SYSTEM.SOLV>
0

>  <SCORE.SYSTEM.norm>
0

>  <SCORE.heavy>
24

>  <SCORE.norm>
-1.41861

>  <RMSD>
1.229

$$$$
ligand
 OpenBabel11021811493D
libRbt.so/2013.1/901 2013/11/27
 24 26  0  0  0  0  0  0  0  0999 V2000
    6.0608  -10.3495  -11.4790 N   0  0  0  0  0  0  0  0  0  0  0  0
    5.2166  -11.2213  -10.6780 C   0  0  0  0  0  0  0  0  0  0  0  0
   13.1873   -6.1701  -12.8673 O   0  0  0  0  0  0  0  0  0  0  0  0
   11.8887   -5.7046  -12.7093 C   0  0  0  0  0  0  0  0  0  0  0  0
    7.8284   -4.4502  -12.2633 N   0  0  0  0  0  0  0  0  0  0  0  0
   11.5733   -4.2330  -12.7531 C   0  0  0  0  0  0  0  0  0  0  0  0
    8.2071   -6.6622  -12.1679 N   0  0  0  0  0  0  0  0  0  0  0  0
   10.2390   -3.7289  -12.6209 C   0  0  0  0  0  0  0  0  0  0  0  0
    5.8346   -5.9023  -11.9035 N   0  0  0  0  0  0  0  0  0  0  0  0
    9.1975   -4.7040  -12.4258 C   0  0  0  0  0  0  0  0  0  0  0  0
   12.2463  -10.7704  -11.9136 N   0  0  0  0  0  0  0  0  0  0  0  0
    9.4870   -6.1118  -12.3666 C   0  0  0  0  0  0  0  0  0  0  0  0
   10.8876   -6.5916  -12.5207 C   0  0  0  0  0  0  0  0  0  0  0  0
    7.2345   -5.6696  -12.1127 C   0  0  0  0  0  0  0  0  0  0  0  0
   11.1719   -8.0810  -12.4650 C   0  0  0  0  0  0  0  0  0  0  0  0
   12.6484   -8.4560  -12.3966 C   0  0  1  0  0  0  0  0  0  0  0  0
   13.5328   -7.2762  -12.1103 C   0  0  0  0  0  0  0  0  0  0  0  0
   12.8573   -9.5661  -11.3777 C   0  0  0  0  0  0  0  0  0  0  0  0
    7.9235   -8.1093  -12.1146 C   0  0  0  0  0  0  0  0  0  0  0  0
   13.1942  -11.4052  -12.8193 C   0  0  0  0  0  0  0  0  0  0  0  0
   11.9686  -11.6552  -10.7931 C   0  0  0  0  0  0  0  0  0  0  0  0
    7.7624   -8.6992  -10.7029 C   0  0  0  0  0  0  0  0  0  0  0  0
    7.3736  -10.1833  -10.8393 C   0  0  0  0  0  0  0  0  0  0  0  0
    6.1900  -10.9391  -12.8068 C   0  0  0  0  0  0  0  0  0  0  0  0
  1 23  1  0  0  0  0
  1 24  1  0  0  0  0
  1  2  1  0  0  0  0
  3  4  1  0  0  0  0
  3 17  1  0  0  0  0
  4  6  2  0  0  0  0
  4 13  1  0  0  0  0
  5 10  1  0  0  0  0
  5 14  2  0  0  0  0
  6  8  1  0  0  0  0
  7 12  1  0  0  0  0
  7 14  1  0  0  0  0
  7 19  1  0  0  0  0
  8 10  2  0  0  0  0
  9 14  1  0  0  0  0
 10 12  1  0  0  0  0
 11 18  1  0  0  0  0
 11 20  1  0  0  0  0
 11 21  1  0  0  0  0
 12 13  2  0  0  0  0
 13 15  1  0  0  0  0
 15 16  1  0  0  0  0
 16 17  1  0  0  0  0
 16 18  1  1  0  0  0
 19 22  1  0  0  0  0
 22 23  1  0  0  0  0
M  END
>  <CHROM.1>
-128.87821638,100.25390922,83.38842356,68.89792245,175.98975231,-64.44749331
9.72857111,-7.91733578,-12.03136599,-2.81624736,0.09280340,-0.14891318

>  <Name>
ligand

>  <RI>
0

>  <Rbt.Current_Directory>
/home/itssahil/PROJECTS/Mol_Feturizer/New_Systems/rnas/3TZR

>  <Rbt.Executable>
rbdock ($Id: //depot/dev/client3/rdock/2013.1/src/exe/rbdock.cxx#4 $)

>  <Rbt.Library>
libRbt.so (2013.1, Build901 2013/11/27)

>  <Rbt.Parameter_File>
/export/apps/rDock/src/rDock_2013.1_src/data/scripts/dock_solv.prm

>  <Rbt.Receptor>
prm/pocket_docking_7.prm

>  <SCORE>
-36.1072

>  <SCORE.INTER>
-25.0856

>  <SCORE.INTER.CONST>
1

>  <SCORE.INTER.POLAR>
0

>  <SCORE.INTER.ROT>
6

>  <SCORE.INTER.SOLV>
21.1684

>  <SCORE.INTER.VDW>
-31.3799

>  <SCORE.INTER.norm>
-1.04523

>  <SCORE.INTRA>
-11.0451

>  <SCORE.INTRA.DIHEDRAL>
-0.121366

>  <SCORE.INTRA.DIHEDRAL.0>
4.94008

>  <SCORE.INTRA.POLAR>
0

>  <SCORE.INTRA.POLAR.0>
0

>  <SCORE.INTRA.REPUL>
0

>  <SCORE.INTRA.REPUL.0>
0

>  <SCORE.INTRA.SOLV>
0.262886

>  <SCORE.INTRA.SOLV.lig_0>
-31.4704

>  <SCORE.INTRA.VDW>
-11.1158

>  <SCORE.INTRA.VDW.0>
10.2807

>  <SCORE.INTRA.norm>
-0.460211

>  <SCORE.RESTR>
0.023555

>  <SCORE.RESTR.CAVITY>
0.023555

>  <SCORE.RESTR.norm>
0.000981457

>  <SCORE.SYSTEM>
0

>  <SCORE.SYSTEM.CONST>
0

>  <SCORE.SYSTEM.DIHEDRAL>
0

>  <SCORE.SYSTEM.SOLV>
0

>  <SCORE.SYSTEM.norm>
0

>  <SCORE.heavy>
24

>  <SCORE.norm>
-1.50446

>  <RMSD>
1.233

$$$$
ligand
 OpenBabel11021811493D
libRbt.so/2013.1/901 2013/11/27
 24 26  0  0  0  0  0  0  0  0999 V2000
    6.1462  -10.0098  -11.5669 N   0  0  0  0  0  0  0  0  0  0  0  0
    5.2673  -10.9361  -10.8713 C   0  0  0  0  0  0  0  0  0  0  0  0
   13.7313   -7.4122  -12.7401 O   0  0  0  0  0  0  0  0  0  0  0  0
   12.6249   -6.6126  -12.4864 C   0  0  0  0  0  0  0  0  0  0  0  0
    9.1066   -4.2989  -11.7605 N   0  0  0  0  0  0  0  0  0  0  0  0
   12.7493   -5.1166  -12.3717 C   0  0  0  0  0  0  0  0  0  0  0  0
    8.8286   -6.5235  -11.8999 N   0  0  0  0  0  0  0  0  0  0  0  0
   11.6197   -4.2672  -12.1382 C   0  0  0  0  0  0  0  0  0  0  0  0
    6.7805   -5.1462  -11.4693 N   0  0  0  0  0  0  0  0  0  0  0  0
   10.3419   -4.9168  -12.0005 C   0  0  0  0  0  0  0  0  0  0  0  0
   13.4372  -11.6688  -12.0311 N   0  0  0  0  0  0  0  0  0  0  0  0
   10.2113   -6.3463  -12.0926 C   0  0  0  0  0  0  0  0  0  0  0  0
   11.4113   -7.1892  -12.3479 C   0  0  0  0  0  0  0  0  0  0  0  0
    8.1860   -5.3049  -11.7087 C   0  0  0  0  0  0  0  0  0  0  0  0
   11.2520   -8.6946  -12.4514 C   0  0  0  0  0  0  0  0  0  0  0  0
   12.5569   -9.4833  -12.4780 C   0  0  1  0  0  0  0  0  0  0  0  0
   13.7477   -8.6449  -12.1106 C   0  0  0  0  0  0  0  0  0  0  0  0
   12.4435  -10.7083  -11.5832 C   0  0  0  0  0  0  0  0  0  0  0  0
    8.1380   -7.8251  -11.9794 C   0  0  0  0  0  0  0  0  0  0  0  0
   13.7115  -12.5927  -10.9388 C   0  0  0  0  0  0  0  0  0  0  0  0
   12.8683  -12.3933  -13.1568 C   0  0  0  0  0  0  0  0  0  0  0  0
    7.9461   -8.5540  -10.6383 C   0  0  0  0  0  0  0  0  0  0  0  0
    7.4710   -9.9897  -10.9306 C   0  0  0  0  0  0  0  0  0  0  0  0
    6.2350  -10.4298  -12.9608 C   0  0  0  0  0  0  0  0  0  0  0  0
  1 23  1  0  0  0  0
  1 24  1  0  0  0  0
  1  2  1  0  0  0  0
  3  4  1  0  0  0  0
  3 17  1  0  0  0  0
  4  6  2  0  0  0  0
  4 13  1  0  0  0  0
  5 10  1  0  0  0  0
  5 14  2  0  0  0  0
  6  8  1  0  0  0  0
  7 12  1  0  0  0  0
  7 14  1  0  0  0  0
  7 19  1  0  0  0  0
  8 10  2  0  0  0  0
  9 14  1  0  0  0  0
 10 12  1  0  0  0  0
 11 18  1  0  0  0  0
 11 20  1  0  0  0  0
 11 21  1  0  0  0  0
 12 13  2  0  0  0  0
 13 15  1  0  0  0  0
 15 16  1  0  0  0  0
 16 17  1  0  0  0  0
 16 18  1  1  0  0  0
 19 22  1  0  0  0  0
 22 23  1  0  0  0  0
M  END
>  <CHROM.1>
-130.06469414,94.58512713,158.65031019,157.80223218,-169.06041572,-64.74212271
10.25689166,-8.26754002,-11.94064878,2.71444219,0.11071133,-0.03901920

>  <Name>
ligand

>  <RI>
0

>  <Rbt.Current_Directory>
/home/itssahil/PROJECTS/Mol_Feturizer/New_Systems/rnas/3TZR

>  <Rbt.Executable>
rbdock ($Id: //depot/dev/client3/rdock/2013.1/src/exe/rbdock.cxx#4 $)

>  <Rbt.Library>
libRbt.so (2013.1, Build901 2013/11/27)

>  <Rbt.Parameter_File>
/export/apps/rDock/src/rDock_2013.1_src/data/scripts/dock_solv.prm

>  <Rbt.Receptor>
prm/pocket_docking_4.prm

>  <SCORE>
-33.7603

>  <SCORE.INTER>
-23.6829

>  <SCORE.INTER.CONST>
1

>  <SCORE.INTER.POLAR>
0

>  <SCORE.INTER.ROT>
6

>  <SCORE.INTER.SOLV>
21.5916

>  <SCORE.INTER.VDW>
-30.5858

>  <SCORE.INTER.norm>
-0.986787

>  <SCORE.INTRA>
-10.0885

>  <SCORE.INTRA.DIHEDRAL>
1.5246

>  <SCORE.INTRA.DIHEDRAL.0>
4.94008

>  <SCORE.INTRA.POLAR>
0

>  <SCORE.INTRA.POLAR.0>
0

>  <SCORE.INTRA.REPUL>
0

>  <SCORE.INTRA.REPUL.0>
0

>  <SCORE.INTRA.SOLV>
0.132893

>  <SCORE.INTRA.SOLV.lig_0>
-31.4704

>  <SCORE.INTRA.VDW>
-10.9172

>  <SCORE.INTRA.VDW.0>
10.2807

>  <SCORE.INTRA.norm>
-0.420354

>  <SCORE.RESTR>
0.0110749

>  <SCORE.RESTR.CAVITY>
0.0110749

>  <SCORE.RESTR.norm>
0.000461452

>  <SCORE.SYSTEM>
0

>  <SCORE.SYSTEM.CONST>
0

>  <SCORE.SYSTEM.DIHEDRAL>
0

>  <SCORE.SYSTEM.SOLV>
0

>  <SCORE.SYSTEM.norm>
0

>  <SCORE.heavy>
24

>  <SCORE.norm>
-1.40668

>  <RMSD>
1.237

$$$$
ligand
 OpenBabel11021811493D
libRbt.so/2013.1/901 2013/11/27
 24 26  0  0  0  0  0  0  0  0999 V2000
    6.9762  -10.4284  -11.6008 N   0  0  0  0  0  0  0  0  0  0  0  0
    5.9959   -9.9889  -12.5807 C   0  0  0  0  0  0  0  0  0  0  0  0
   13.5890   -7.6175  -12.9060 O   0  0  0  0  0  0  0  0  0  0  0  0
   12.5492   -6.7182  -12.7118 C   0  0  0  0  0  0  0  0  0  0  0  0
    9.2241   -4.0933  -12.1525 N   0  0  0  0  0  0  0  0  0  0  0  0
   12.7826   -5.2312  -12.7473 C   0  0  0  0  0  0  0  0  0  0  0  0
    8.7850   -6.2946  -12.0669 N   0  0  0  0  0  0  0  0  0  0  0  0
   11.7225   -4.2827  -12.5778 C   0  0  0  0  0  0  0  0  0  0  0  0
    6.8519   -4.7357  -11.7363 N   0  0  0  0  0  0  0  0  0  0  0  0
   10.4058   -4.8205  -12.3532 C   0  0  0  0  0  0  0  0  0  0  0  0
   13.1757  -11.6360  -11.6183 N   0  0  0  0  0  0  0  0  0  0  0  0
   10.1715   -6.2387  -12.3016 C   0  0  0  0  0  0  0  0  0  0  0  0
   11.3015   -7.1881  -12.4948 C   0  0  0  0  0  0  0  0  0  0  0  0
    8.2359   -5.0194  -11.9848 C   0  0  0  0  0  0  0  0  0  0  0  0
   11.0330   -8.6807  -12.4465 C   0  0  0  0  0  0  0  0  0  0  0  0
   12.2774   -9.5617  -12.4194 C   0  0  1  0  0  0  0  0  0  0  0  0
   13.5338   -8.7812  -12.1585 C   0  0  0  0  0  0  0  0  0  0  0  0
   12.1001  -10.6826  -11.4064 C   0  0  0  0  0  0  0  0  0  0  0  0
    8.0018   -7.5436  -12.0050 C   0  0  0  0  0  0  0  0  0  0  0  0
   13.2838  -12.4803  -10.4363 C   0  0  0  0  0  0  0  0  0  0  0  0
   12.8192  -12.4476  -12.7715 C   0  0  0  0  0  0  0  0  0  0  0  0
    8.3729   -8.4998  -10.8584 C   0  0  0  0  0  0  0  0  0  0  0  0
    7.1581   -9.4005  -10.5660 C   0  0  0  0  0  0  0  0  0  0  0  0
    6.5083  -11.6834  -11.0234 C   0  0  0  0  0  0  0  0  0  0  0  0
  1 23  1  0  0  0  0
  1 24  1  0  0  0  0
  1  2  1  0  0  0  0
  3  4  1  0  0  0  0
  3 17  1  0  0  0  0
  4  6  2  0  0  0  0
  4 13  1  0  0  0  0
  5 10  1  0  0  0  0
  5 14  2  0  0  0  0
  6  8  1  0  0  0  0
  7 12  1  0  0  0  0
  7 14  1  0  0  0  0
  7 19  1  0  0  0  0
  8 10  2  0  0  0  0
  9 14  1  0  0  0  0
 10 12  1  0  0  0  0
 11 18  1  0  0  0  0
 11 20  1  0  0  0  0
 11 21  1  0  0  0  0
 12 13  2  0  0  0  0
 13 15  1  0  0  0  0
 15 16  1  0  0  0  0
 16 17  1  0  0  0  0
 16 18  1  1  0  0  0
 19 22  1  0  0  0  0
 22 23  1  0  0  0  0
M  END
>  <CHROM.1>
-96.45572960,63.70104891,162.68692186,168.39155592,156.54691165,74.37102621
10.26016204,-8.22762373,-11.97779152,2.22031559,0.11385766,-0.13269379

>  <Name>
ligand

>  <RI>
0

>  <Rbt.Current_Directory>
/home/itssahil/PROJECTS/Mol_Feturizer/New_Systems/rnas/3TZR

>  <Rbt.Executable>
rbdock ($Id: //depot/dev/client3/rdock/2013.1/src/exe/rbdock.cxx#4 $)

>  <Rbt.Library>
libRbt.so (2013.1, Build901 2013/11/27)

>  <Rbt.Parameter_File>
/export/apps/rDock/src/rDock_2013.1_src/data/scripts/dock_solv.prm

>  <Rbt.Receptor>
prm/pocket_docking_2.prm

>  <SCORE>
-30.7985

>  <SCORE.INTER>
-21.7928

>  <SCORE.INTER.CONST>
1

>  <SCORE.INTER.POLAR>
0

>  <SCORE.INTER.ROT>
6

>  <SCORE.INTER.SOLV>
22.5352

>  <SCORE.INTER.VDW>
-29.6403

>  <SCORE.INTER.norm>
-0.908034

>  <SCORE.INTRA>
-9.06665

>  <SCORE.INTRA.DIHEDRAL>
1.49776

>  <SCORE.INTRA.DIHEDRAL.0>
4.94008

>  <SCORE.INTRA.POLAR>
0

>  <SCORE.INTRA.POLAR.0>
0

>  <SCORE.INTRA.REPUL>
0

>  <SCORE.INTRA.REPUL.0>
0

>  <SCORE.INTRA.SOLV>
-0.329664

>  <SCORE.INTRA.SOLV.lig_0>
-31.4704

>  <SCORE.INTRA.VDW>
-9.6507

>  <SCORE.INTRA.VDW.0>
10.2807

>  <SCORE.INTRA.norm>
-0.377777

>  <SCORE.RESTR>
0.0610056

>  <SCORE.RESTR.CAVITY>
0.0610056

>  <SCORE.RESTR.norm>
0.0025419

>  <SCORE.SYSTEM>
0

>  <SCORE.SYSTEM.CONST>
0

>  <SCORE.SYSTEM.DIHEDRAL>
0

>  <SCORE.SYSTEM.SOLV>
0

>  <SCORE.SYSTEM.norm>
0

>  <SCORE.heavy>
24

>  <SCORE.norm>
-1.28327

>  <RMSD>
1.240

$$$$
ligand
 OpenBabel11021811493D
libRbt.so/2013.1/901 2013/11/27
 24 26  0  0  0  0  0  0  0  0999 V2000
    6.2369  -10.3734  -11.2905 N   0  0  0  0  0  0  0  0  0  0  0  0
    5.5899  -11.4211  -10.5171 C   0  0  0  0  0  0  0  0  0  0  0  0
   13.2307   -6.0231  -12.9017 O   0  0  0  0  0  0  0  0  0  0  0  0
   11.9220   -5.5866  -12.7446 C   0  0  0  0  0  0  0  0  0  0  0  0
    7.8345   -4.4234  -12.2995 N   0  0  0  0  0  0  0  0  0  0  0  0
   11.5723   -4.1232  -12.7999 C   0  0  0  0  0  0  0  0  0  0  0  0
    8.2649   -6.6251  -12.1867 N   0  0  0  0  0  0  0  0  0  0  0  0
   10.2269   -3.6493  -12.6686 C   0  0  0  0  0  0  0  0  0  0  0  0
    5.8758   -5.9185  -11.9230 N   0  0  0  0  0  0  0  0  0  0  0  0
    9.2089   -4.6467  -12.4631 C   0  0  0  0  0  0  0  0  0  0  0  0
   12.4773  -10.6540  -11.9451 N   0  0  0  0  0  0  0  0  0  0  0  0
    9.5312   -6.0467  -12.3929 C   0  0  0  0  0  0  0  0  0  0  0  0
   10.9422   -6.4951  -12.5463 C   0  0  0  0  0  0  0  0  0  0  0  0
    7.2695   -5.6550  -12.1374 C   0  0  0  0  0  0  0  0  0  0  0  0
   11.2613   -7.9769  -12.4789 C   0  0  0  0  0  0  0  0  0  0  0  0
   12.7463   -8.3169  -12.4108 C   0  0  1  0  0  0  0  0  0  0  0  0
   13.6035   -7.1145  -12.1364 C   0  0  0  0  0  0  0  0  0  0  0  0
   12.9831   -9.4134  -11.3833 C   0  0  0  0  0  0  0  0  0  0  0  0
    8.0152   -8.0779  -12.1207 C   0  0  0  0  0  0  0  0  0  0  0  0
   13.5144  -11.2368  -12.7858 C   0  0  0  0  0  0  0  0  0  0  0  0
   12.1833  -11.5480  -10.8360 C   0  0  0  0  0  0  0  0  0  0  0  0
    7.9682   -8.6764  -10.7042 C   0  0  0  0  0  0  0  0  0  0  0  0
    7.6149  -10.1710  -10.8210 C   0  0  0  0  0  0  0  0  0  0  0  0
    6.2086  -10.7644  -12.6954 C   0  0  0  0  0  0  0  0  0  0  0  0
  1 23  1  0  0  0  0
  1 24  1  0  0  0  0
  1  2  1  0  0  0  0
  3  4  1  0  0  0  0
  3 17  1  0  0  0  0
  4  6  2  0  0  0  0
  4 13  1  0  0  0  0
  5 10  1  0  0  0  0
  5 14  2  0  0  0  0
  6  8  1  0  0  0  0
  7 12  1  0  0  0  0
  7 14  1  0  0  0  0
  7 19  1  0  0  0  0
  8 10  2  0  0  0  0
  9 14  1  0  0  0  0
 10 12  1  0  0  0  0
 11 18  1  0  0  0  0
 11 20  1  0  0  0  0
 11 21  1  0  0  0  0
 12 13  2  0  0  0  0
 13 15  1  0  0  0  0
 15 16  1  0  0  0  0
 16 17  1  0  0  0  0
 16 18  1  1  0  0  0
 19 22  1  0  0  0  0
 22 23  1  0  0  0  0
M  END
>  <CHROM.1>
-136.53496191,96.18080373,84.55914335,72.55548158,176.56481756,-68.04484869
9.84044990,-7.84650908,-12.02841935,-2.81075215,0.09885812,-0.16990377

>  <Name>
ligand

>  <RI>
0

>  <Rbt.Current_Directory>
/home/itssahil/PROJECTS/Mol_Feturizer/New_Systems/rnas/3TZR

>  <Rbt.Executable>
rbdock ($Id: //depot/dev/client3/rdock/2013.1/src/exe/rbdock.cxx#4 $)

>  <Rbt.Library>
libRbt.so (2013.1, Build901 2013/11/27)

>  <Rbt.Parameter_File>
/export/apps/rDock/src/rDock_2013.1_src/data/scripts/dock_solv.prm

>  <Rbt.Receptor>
prm/pocket_docking_4.prm

>  <SCORE>
-36.2611

>  <SCORE.INTER>
-25.2861

>  <SCORE.INTER.CONST>
1

>  <SCORE.INTER.POLAR>
0

>  <SCORE.INTER.ROT>
6

>  <SCORE.INTER.SOLV>
21.1976

>  <SCORE.INTER.VDW>
-31.5232

>  <SCORE.INTER.norm>
-1.05359

>  <SCORE.INTRA>
-10.975

>  <SCORE.INTRA.DIHEDRAL>
0.0678868

>  <SCORE.INTRA.DIHEDRAL.0>
4.94008

>  <SCORE.INTRA.POLAR>
0

>  <SCORE.INTRA.POLAR.0>
0

>  <SCORE.INTRA.REPUL>
0

>  <SCORE.INTRA.REPUL.0>
0

>  <SCORE.INTRA.SOLV>
0.145844

>  <SCORE.INTRA.SOLV.lig_0>
-31.4704

>  <SCORE.INTRA.VDW>
-11.0818

>  <SCORE.INTRA.VDW.0>
10.2807

>  <SCORE.INTRA.norm>
-0.45729

>  <SCORE.RESTR>
0

>  <SCORE.RESTR.CAVITY>
0

>  <SCORE.RESTR.norm>
0

>  <SCORE.SYSTEM>
0

>  <SCORE.SYSTEM.CONST>
0

>  <SCORE.SYSTEM.DIHEDRAL>
0

>  <SCORE.SYSTEM.SOLV>
0

>  <SCORE.SYSTEM.norm>
0

>  <SCORE.heavy>
24

>  <SCORE.norm>
-1.51088

>  <RMSD>
1.243

$$$$
ligand
 OpenBabel11021811493D
libRbt.so/2013.1/901 2013/11/27
 24 26  0  0  0  0  0  0  0  0999 V2000
    6.2250  -10.4019  -11.1559 N   0  0  0  0  0  0  0  0  0  0  0  0
    5.6895  -11.5255  -10.4041 C   0  0  0  0  0  0  0  0  0  0  0  0
   13.1616   -5.9793  -12.9135 O   0  0  0  0  0  0  0  0  0  0  0  0
   11.8494   -5.5535  -12.7569 C   0  0  0  0  0  0  0  0  0  0  0  0
    7.7524   -4.4240  -12.3121 N   0  0  0  0  0  0  0  0  0  0  0  0
   11.4864   -4.0937  -12.8216 C   0  0  0  0  0  0  0  0  0  0  0  0
    8.2028   -6.6210  -12.1849 N   0  0  0  0  0  0  0  0  0  0  0  0
   10.1371   -3.6310  -12.6911 C   0  0  0  0  0  0  0  0  0  0  0  0
    5.8079   -5.9339  -11.9216 N   0  0  0  0  0  0  0  0  0  0  0  0
    9.1284   -4.6360  -12.4768 C   0  0  0  0  0  0  0  0  0  0  0  0
   12.4288  -10.6054  -11.9131 N   0  0  0  0  0  0  0  0  0  0  0  0
    9.4634   -6.0326  -12.3975 C   0  0  0  0  0  0  0  0  0  0  0  0
   10.8782   -6.4694  -12.5505 C   0  0  0  0  0  0  0  0  0  0  0  0
    7.1988   -5.6594  -12.1405 C   0  0  0  0  0  0  0  0  0  0  0  0
   11.2106   -7.9478  -12.4735 C   0  0  0  0  0  0  0  0  0  0  0  0
   12.6987   -8.2739  -12.4059 C   0  0  1  0  0  0  0  0  0  0  0  0
   13.5456   -7.0620  -12.1414 C   0  0  0  0  0  0  0  0  0  0  0  0
   12.9473   -9.3611  -11.3713 C   0  0  0  0  0  0  0  0  0  0  0  0
    7.9662   -8.0754  -12.1084 C   0  0  0  0  0  0  0  0  0  0  0  0
   13.4103  -11.1488  -12.8422 C   0  0  0  0  0  0  0  0  0  0  0  0
   12.2443  -11.5233  -10.8000 C   0  0  0  0  0  0  0  0  0  0  0  0
    7.9577   -8.6695  -10.6894 C   0  0  0  0  0  0  0  0  0  0  0  0
    7.6308  -10.1710  -10.7945 C   0  0  0  0  0  0  0  0  0  0  0  0
    6.0860  -10.7003  -12.5768 C   0  0  0  0  0  0  0  0  0  0  0  0
  1 23  1  0  0  0  0
  1 24  1  0  0  0  0
  1  2  1  0  0  0  0
  3  4  1  0  0  0  0
  3 17  1  0  0  0  0
  4  6  2  0  0  0  0
  4 13  1  0  0  0  0
  5 10  1  0  0  0  0
  5 14  2  0  0  0  0
  6  8  1  0  0  0  0
  7 12  1  0  0  0  0
  7 14  1  0  0  0  0
  7 19  1  0  0  0  0
  8 10  2  0  0  0  0
  9 14  1  0  0  0  0
 10 12  1  0  0  0  0
 11 18  1  0  0  0  0
 11 20  1  0  0  0  0
 11 21  1  0  0  0  0
 12 13  2  0  0  0  0
 13 15  1  0  0  0  0
 15 16  1  0  0  0  0
 16 17  1  0  0  0  0
 16 18  1  1  0  0  0
 19 22  1  0  0  0  0
 22 23  1  0  0  0  0
M  END
>  <CHROM.1>
-140.02099030,94.90648373,80.31410681,71.49734960,177.25823578,-71.58700338
9.79295300,-7.82818841,-12.01258271,-2.77667592,0.10396882,-0.18344859

>  <Name>
ligand

>  <RI>
0

>  <Rbt.Current_Directory>
/home/itssahil/PROJECTS/Mol_Feturizer/New_Systems/rnas/3TZR

>  <Rbt.Executable>
rbdock ($Id: //depot/dev/client3/rdock/2013.1/src/exe/rbdock.cxx#4 $)

>  <Rbt.Library>
libRbt.so (2013.1, Build901 2013/11/27)

>  <Rbt.Parameter_File>
/export/apps/rDock/src/rDock_2013.1_src/data/scripts/dock_solv.prm

>  <Rbt.Receptor>
prm/blind_docking_80.prm

>  <SCORE>
-36.2217

>  <SCORE.INTER>
-25.3917

>  <SCORE.INTER.CONST>
1

>  <SCORE.INTER.POLAR>
0

>  <SCORE.INTER.ROT>
6

>  <SCORE.INTER.SOLV>
21.3258

>  <SCORE.INTER.VDW>
-31.6364

>  <SCORE.INTER.norm>
-1.05799

>  <SCORE.INTRA>
-10.8299

>  <SCORE.INTRA.DIHEDRAL>
-0.197478

>  <SCORE.INTRA.DIHEDRAL.0>
4.94008

>  <SCORE.INTRA.POLAR>
0

>  <SCORE.INTRA.POLAR.0>
0

>  <SCORE.INTRA.REPUL>
0

>  <SCORE.INTRA.REPUL.0>
0

>  <SCORE.INTRA.SOLV>
0.115519

>  <SCORE.INTRA.SOLV.lig_0>
-31.4704

>  <SCORE.INTRA.VDW>
-10.789

>  <SCORE.INTRA.VDW.0>
10.2807

>  <SCORE.INTRA.norm>
-0.451247

>  <SCORE.RESTR>
0

>  <SCORE.RESTR.CAVITY>
0

>  <SCORE.RESTR.norm>
0

>  <SCORE.SYSTEM>
0

>  <SCORE.SYSTEM.CONST>
0

>  <SCORE.SYSTEM.DIHEDRAL>
0

>  <SCORE.SYSTEM.SOLV>
0

>  <SCORE.SYSTEM.norm>
0

>  <SCORE.heavy>
24

>  <SCORE.norm>
-1.50924

>  <RMSD>
1.245

$$$$
ligand
 OpenBabel11021811493D
libRbt.so/2013.1/901 2013/11/27
 24 26  0  0  0  0  0  0  0  0999 V2000
    6.1237  -10.3667  -11.3156 N   0  0  0  0  0  0  0  0  0  0  0  0
    5.4515  -11.4216  -10.5743 C   0  0  0  0  0  0  0  0  0  0  0  0
   13.1932   -6.0544  -12.9188 O   0  0  0  0  0  0  0  0  0  0  0  0
   11.8907   -5.6070  -12.7430 C   0  0  0  0  0  0  0  0  0  0  0  0
    7.8198   -4.4096  -12.2396 N   0  0  0  0  0  0  0  0  0  0  0  0
   11.5526   -4.1407  -12.7923 C   0  0  0  0  0  0  0  0  0  0  0  0
    8.2331   -6.6150  -12.1344 N   0  0  0  0  0  0  0  0  0  0  0  0
   10.2132   -3.6554  -12.6418 C   0  0  0  0  0  0  0  0  0  0  0  0
    5.8540   -5.8884  -11.8366 N   0  0  0  0  0  0  0  0  0  0  0  0
    9.1898   -4.6444  -12.4226 C   0  0  0  0  0  0  0  0  0  0  0  0
   12.3337  -10.6601  -11.9150 N   0  0  0  0  0  0  0  0  0  0  0  0
    9.5012   -6.0472  -12.3580 C   0  0  0  0  0  0  0  0  0  0  0  0
   10.9061   -6.5073  -12.5315 C   0  0  0  0  0  0  0  0  0  0  0  0
    7.2467   -5.6365  -12.0704 C   0  0  0  0  0  0  0  0  0  0  0  0
   11.2135   -7.9919  -12.4698 C   0  0  0  0  0  0  0  0  0  0  0  0
   12.6963   -8.3445  -12.4228 C   0  0  1  0  0  0  0  0  0  0  0  0
   13.5675   -7.1496  -12.1596 C   0  0  0  0  0  0  0  0  0  0  0  0
   12.9383   -9.4438  -11.3995 C   0  0  0  0  0  0  0  0  0  0  0  0
    7.9720   -8.0657  -12.0660 C   0  0  0  0  0  0  0  0  0  0  0  0
   13.2883  -11.3096  -12.8031 C   0  0  0  0  0  0  0  0  0  0  0  0
   12.0526  -11.5237  -10.7790 C   0  0  0  0  0  0  0  0  0  0  0  0
    7.7945   -8.6388  -10.6493 C   0  0  0  0  0  0  0  0  0  0  0  0
    7.4698  -10.1395  -10.7707 C   0  0  0  0  0  0  0  0  0  0  0  0
    6.1806  -10.7642  -12.7178 C   0  0  0  0  0  0  0  0  0  0  0  0
  1 23  1  0  0  0  0
  1 24  1  0  0  0  0
  1  2  1  0  0  0  0
  3  4  1  0  0  0  0
  3 17  1  0  0  0  0
  4  6  2  0  0  0  0
  4 13  1  0  0  0  0
  5 10  1  0  0  0  0
  5 14  2  0  0  0  0
  6  8  1  0  0  0  0
  7 12  1  0  0  0  0
  7 14  1  0  0  0  0
  7 19  1  0  0  0  0
  8 10  2  0  0  0  0
  9 14  1  0  0  0  0
 10 12  1  0  0  0  0
 11 18  1  0  0  0  0
 11 20  1  0  0  0  0
 11 21  1  0  0  0  0
 12 13  2  0  0  0  0
 13 15  1  0  0  0  0
 15 16  1  0  0  0  0
 16 17  1  0  0  0  0
 16 18  1  1  0  0  0
 19 22  1  0  0  0  0
 22 23  1  0  0  0  0
M  END
>  <CHROM.1>
-136.84400253,102.27612989,85.00444082,68.75246180,177.49686596,-70.39745434
9.77134241,-7.85032007,-12.01022901,-2.77201933,0.10539065,-0.16130333

>  <Name>
ligand

>  <RI>
0

>  <Rbt.Current_Directory>
/home/itssahil/PROJECTS/Mol_Feturizer/New_Systems/rnas/3TZR

>  <Rbt.Executable>
rbdock ($Id: //depot/dev/client3/rdock/2013.1/src/exe/rbdock.cxx#4 $)

>  <Rbt.Library>
libRbt.so (2013.1, Build901 2013/11/27)

>  <Rbt.Parameter_File>
/export/apps/rDock/src/rDock_2013.1_src/data/scripts/dock_solv.prm

>  <Rbt.Receptor>
prm/pocket_docking_4.prm

>  <SCORE>
-36.2612

>  <SCORE.INTER>
-25.312

>  <SCORE.INTER.CONST>
1

>  <SCORE.INTER.POLAR>
0

>  <SCORE.INTER.ROT>
6

>  <SCORE.INTER.SOLV>
21.1357

>  <SCORE.INTER.VDW>
-31.5199

>  <SCORE.INTER.norm>
-1.05467

>  <SCORE.INTRA>
-10.9492

>  <SCORE.INTRA.DIHEDRAL>
-0.0623471

>  <SCORE.INTRA.DIHEDRAL.0>
4.94008

>  <SCORE.INTRA.POLAR>
0

>  <SCORE.INTRA.POLAR.0>
0

>  <SCORE.INTRA.REPUL>
0

>  <SCORE.INTRA.REPUL.0>
0

>  <SCORE.INTRA.SOLV>
0.289015

>  <SCORE.INTRA.SOLV.lig_0>
-31.4704

>  <SCORE.INTRA.VDW>
-11.0626

>  <SCORE.INTRA.VDW.0>
10.2807

>  <SCORE.INTRA.norm>
-0.456217

>  <SCORE.RESTR>
0

>  <SCORE.RESTR.CAVITY>
0

>  <SCORE.RESTR.norm>
0

>  <SCORE.SYSTEM>
0

>  <SCORE.SYSTEM.CONST>
0

>  <SCORE.SYSTEM.DIHEDRAL>
0

>  <SCORE.SYSTEM.SOLV>
0

>  <SCORE.SYSTEM.norm>
0

>  <SCORE.heavy>
24

>  <SCORE.norm>
-1.51088

>  <RMSD>
1.245

$$$$
ligand
 OpenBabel11021811493D
libRbt.so/2013.1/901 2013/11/27
 24 26  0  0  0  0  0  0  0  0999 V2000
    6.1798  -10.3528  -11.3164 N   0  0  0  0  0  0  0  0  0  0  0  0
    5.5265  -11.4194  -10.5748 C   0  0  0  0  0  0  0  0  0  0  0  0
   13.2318   -6.0614  -12.9179 O   0  0  0  0  0  0  0  0  0  0  0  0
   11.9274   -5.6173  -12.7477 C   0  0  0  0  0  0  0  0  0  0  0  0
    7.8512   -4.4296  -12.2643 N   0  0  0  0  0  0  0  0  0  0  0  0
   11.5882   -4.1507  -12.7827 C   0  0  0  0  0  0  0  0  0  0  0  0
    8.2659   -6.6357  -12.1814 N   0  0  0  0  0  0  0  0  0  0  0  0
   10.2471   -3.6686  -12.6377 C   0  0  0  0  0  0  0  0  0  0  0  0
    5.8837   -5.9148  -11.8950 N   0  0  0  0  0  0  0  0  0  0  0  0
    9.2229   -4.6609  -12.4386 C   0  0  0  0  0  0  0  0  0  0  0  0
   12.3411  -10.6716  -11.9603 N   0  0  0  0  0  0  0  0  0  0  0  0
    9.5352   -6.0641  -12.3878 C   0  0  0  0  0  0  0  0  0  0  0  0
   10.9420   -6.5209  -12.5550 C   0  0  0  0  0  0  0  0  0  0  0  0
    7.2780   -5.6589  -12.1143 C   0  0  0  0  0  0  0  0  0  0  0  0
   11.2504   -8.0058  -12.5079 C   0  0  0  0  0  0  0  0  0  0  0  0
   12.7332   -8.3575  -12.4527 C   0  0  1  0  0  0  0  0  0  0  0  0
   13.6009   -7.1650  -12.1683 C   0  0  0  0  0  0  0  0  0  0  0  0
   12.9677   -9.4684  -11.4403 C   0  0  0  0  0  0  0  0  0  0  0  0
    8.0057   -8.0873  -12.1320 C   0  0  0  0  0  0  0  0  0  0  0  0
   13.2714  -11.3177  -12.8763 C   0  0  0  0  0  0  0  0  0  0  0  0
   12.0743  -11.5483  -10.8308 C   0  0  0  0  0  0  0  0  0  0  0  0
    7.9519   -8.7012  -10.7224 C   0  0  0  0  0  0  0  0  0  0  0  0
    7.5653  -10.1862  -10.8548 C   0  0  0  0  0  0  0  0  0  0  0  0
    6.1316  -10.6917  -12.7342 C   0  0  0  0  0  0  0  0  0  0  0  0
  1 23  1  0  0  0  0
  1 24  1  0  0  0  0
  1  2  1  0  0  0  0
  3  4  1  0  0  0  0
  3 17  1  0  0  0  0
  4  6  2  0  0  0  0
  4 13  1  0  0  0  0
  5 10  1  0  0  0  0
  5 14  2  0  0  0  0
  6  8  1  0  0  0  0
  7 12  1  0  0  0  0
  7 14  1  0  0  0  0
  7 19  1  0  0  0  0
  8 10  2  0  0  0  0
  9 14  1  0  0  0  0
 10 12  1  0  0  0  0
 11 18  1  0  0  0  0
 11 20  1  0  0  0  0
 11 21  1  0  0  0  0
 12 13  2  0  0  0  0
 13 15  1  0  0  0  0
 15 16  1  0  0  0  0
 16 17  1  0  0  0  0
 16 18  1  1  0  0  0
 19 22  1  0  0  0  0
 22 23  1  0  0  0  0
M  END
>  <CHROM.1>
-138.00862460,96.62491520,84.21194179,67.42232566,175.63802137,-68.21426013
9.80820876,-7.86369005,-12.04255868,-2.77267282,0.10296580,-0.15904768

>  <Name>
ligand

>  <RI>
0

>  <Rbt.Current_Directory>
/home/itssahil/PROJECTS/Mol_Feturizer/New_Systems/rnas/3TZR

>  <Rbt.Executable>
rbdock ($Id: //depot/dev/client3/rdock/2013.1/src/exe/rbdock.cxx#4 $)

>  <Rbt.Library>
libRbt.so (2013.1, Build901 2013/11/27)

>  <Rbt.Parameter_File>
/export/apps/rDock/src/rDock_2013.1_src/data/scripts/dock_solv.prm

>  <Rbt.Receptor>
prm/blind_docking_100.prm

>  <SCORE>
-36.271

>  <SCORE.INTER>
-25.255

>  <SCORE.INTER.CONST>
1

>  <SCORE.INTER.POLAR>
0

>  <SCORE.INTER.ROT>
6

>  <SCORE.INTER.SOLV>
21.231

>  <SCORE.INTER.VDW>
-31.5137

>  <SCORE.INTER.norm>
-1.05229

>  <SCORE.INTRA>
-11.0159

>  <SCORE.INTRA.DIHEDRAL>
-0.323399

>  <SCORE.INTRA.DIHEDRAL.0>
4.94008

>  <SCORE.INTRA.POLAR>
0

>  <SCORE.INTRA.POLAR.0>
0

>  <SCORE.INTRA.REPUL>
0

>  <SCORE.INTRA.REPUL.0>
0

>  <SCORE.INTRA.SOLV>
0.160243

>  <SCORE.INTRA.SOLV.lig_0>
-31.4704

>  <SCORE.INTRA.VDW>
-10.9344

>  <SCORE.INTRA.VDW.0>
10.2807

>  <SCORE.INTRA.norm>
-0.458998

>  <SCORE.RESTR>
0

>  <SCORE.RESTR.CAVITY>
0

>  <SCORE.RESTR.norm>
0

>  <SCORE.SYSTEM>
0

>  <SCORE.SYSTEM.CONST>
0

>  <SCORE.SYSTEM.DIHEDRAL>
0

>  <SCORE.SYSTEM.SOLV>
0

>  <SCORE.SYSTEM.norm>
0

>  <SCORE.heavy>
24

>  <SCORE.norm>
-1.51129

>  <RMSD>
1.248

$$$$
ligand
 OpenBabel11021811493D
libRbt.so/2013.1/901 2013/11/27
 24 26  0  0  0  0  0  0  0  0999 V2000
    6.1486  -10.3473  -11.3781 N   0  0  0  0  0  0  0  0  0  0  0  0
    5.4228  -11.3573  -10.6247 C   0  0  0  0  0  0  0  0  0  0  0  0
   13.2160   -6.0746  -12.9197 O   0  0  0  0  0  0  0  0  0  0  0  0
   11.9139   -5.6230  -12.7509 C   0  0  0  0  0  0  0  0  0  0  0  0
    7.8444   -4.4122  -12.2696 N   0  0  0  0  0  0  0  0  0  0  0  0
   11.5810   -4.1555  -12.8019 C   0  0  0  0  0  0  0  0  0  0  0  0
    8.2498   -6.6189  -12.1625 N   0  0  0  0  0  0  0  0  0  0  0  0
   10.2425   -3.6658  -12.6586 C   0  0  0  0  0  0  0  0  0  0  0  0
    5.8716   -5.8844  -11.8776 N   0  0  0  0  0  0  0  0  0  0  0  0
    9.2146   -4.6514  -12.4452 C   0  0  0  0  0  0  0  0  0  0  0  0
   12.3175  -10.6724  -11.9116 N   0  0  0  0  0  0  0  0  0  0  0  0
    9.5209   -6.0552  -12.3791 C   0  0  0  0  0  0  0  0  0  0  0  0
   10.9253   -6.5200  -12.5450 C   0  0  0  0  0  0  0  0  0  0  0  0
    7.2663   -5.6371  -12.1038 C   0  0  0  0  0  0  0  0  0  0  0  0
   11.2274   -8.0056  -12.4818 C   0  0  0  0  0  0  0  0  0  0  0  0
   12.7088   -8.3631  -12.4268 C   0  0  1  0  0  0  0  0  0  0  0  0
   13.5825   -7.1712  -12.1586 C   0  0  0  0  0  0  0  0  0  0  0  0
   12.9415   -9.4633  -11.4023 C   0  0  0  0  0  0  0  0  0  0  0  0
    7.9835   -8.0687  -12.0957 C   0  0  0  0  0  0  0  0  0  0  0  0
   13.2545  -11.3319  -12.8109 C   0  0  0  0  0  0  0  0  0  0  0  0
   12.0397  -11.5336  -10.7729 C   0  0  0  0  0  0  0  0  0  0  0  0
    7.8355   -8.6485  -10.6784 C   0  0  0  0  0  0  0  0  0  0  0  0
    7.4846  -10.1433  -10.8003 C   0  0  0  0  0  0  0  0  0  0  0  0
    6.2340  -10.7910  -12.7649 C   0  0  0  0  0  0  0  0  0  0  0  0
  1 23  1  0  0  0  0
  1 24  1  0  0  0  0
  1  2  1  0  0  0  0
  3  4  1  0  0  0  0
  3 17  1  0  0  0  0
  4  6  2  0  0  0  0
  4 13  1  0  0  0  0
  5 10  1  0  0  0  0
  5 14  2  0  0  0  0
  6  8  1  0  0  0  0
  7 12  1  0  0  0  0
  7 14  1  0  0  0  0
  7 19  1  0  0  0  0
  8 10  2  0  0  0  0
  9 14  1  0  0  0  0
 10 12  1  0  0  0  0
 11 18  1  0  0  0  0
 11 20  1  0  0  0  0
 11 21  1  0  0  0  0
 12 13  2  0  0  0  0
 13 15  1  0  0  0  0
 15 16  1  0  0  0  0
 16 17  1  0  0  0  0
 16 18  1  1  0  0  0
 19 22  1  0  0  0  0
 22 23  1  0  0  0  0
M  END
>  <CHROM.1>
-135.19476793,100.63585584,84.60664484,67.87163859,176.83633806,-67.31281164
9.78511698,-7.85720874,-12.03069432,-2.77470662,0.10013597,-0.16030000

>  <Name>
ligand

>  <RI>
0

>  <Rbt.Current_Directory>
/home/itssahil/PROJECTS/Mol_Feturizer/New_Systems/rnas/3TZR

>  <Rbt.Executable>
rbdock ($Id: //depot/dev/client3/rdock/2013.1/src/exe/rbdock.cxx#4 $)

>  <Rbt.Library>
libRbt.so (2013.1, Build901 2013/11/27)

>  <Rbt.Parameter_File>
/export/apps/rDock/src/rDock_2013.1_src/data/scripts/dock_solv.prm

>  <Rbt.Receptor>
prm/blind_docking_100.prm

>  <SCORE>
-36.2813

>  <SCORE.INTER>
-25.2659

>  <SCORE.INTER.CONST>
1

>  <SCORE.INTER.POLAR>
0

>  <SCORE.INTER.ROT>
6

>  <SCORE.INTER.SOLV>
21.2174

>  <SCORE.INTER.VDW>
-31.5164

>  <SCORE.INTER.norm>
-1.05275

>  <SCORE.INTRA>
-11.0154

>  <SCORE.INTRA.DIHEDRAL>
-0.237198

>  <SCORE.INTRA.DIHEDRAL.0>
4.94008

>  <SCORE.INTRA.POLAR>
0

>  <SCORE.INTRA.POLAR.0>
0

>  <SCORE.INTRA.REPUL>
0

>  <SCORE.INTRA.REPUL.0>
0

>  <SCORE.INTRA.SOLV>
0.257609

>  <SCORE.INTRA.SOLV.lig_0>
-31.4704

>  <SCORE.INTRA.VDW>
-11.0256

>  <SCORE.INTRA.VDW.0>
10.2807

>  <SCORE.INTRA.norm>
-0.458975

>  <SCORE.RESTR>
0

>  <SCORE.RESTR.CAVITY>
0

>  <SCORE.RESTR.norm>
0

>  <SCORE.SYSTEM>
0

>  <SCORE.SYSTEM.CONST>
0

>  <SCORE.SYSTEM.DIHEDRAL>
0

>  <SCORE.SYSTEM.SOLV>
0

>  <SCORE.SYSTEM.norm>
0

>  <SCORE.heavy>
24

>  <SCORE.norm>
-1.51172

>  <RMSD>
1.250

$$$$
ligand
 OpenBabel11021811493D
libRbt.so/2013.1/901 2013/11/27
 24 26  0  0  0  0  0  0  0  0999 V2000
    6.1277  -10.3900  -11.3871 N   0  0  0  0  0  0  0  0  0  0  0  0
    5.4328  -11.4157  -10.6259 C   0  0  0  0  0  0  0  0  0  0  0  0
   13.2115   -6.0569  -12.9265 O   0  0  0  0  0  0  0  0  0  0  0  0
   11.9070   -5.6130  -12.7561 C   0  0  0  0  0  0  0  0  0  0  0  0
    7.8308   -4.4267  -12.2704 N   0  0  0  0  0  0  0  0  0  0  0  0
   11.5659   -4.1473  -12.8019 C   0  0  0  0  0  0  0  0  0  0  0  0
    8.2485   -6.6315  -12.1710 N   0  0  0  0  0  0  0  0  0  0  0  0
   10.2246   -3.6656  -12.6569 C   0  0  0  0  0  0  0  0  0  0  0  0
    5.8662   -5.9113  -11.8835 N   0  0  0  0  0  0  0  0  0  0  0  0
    9.2022   -4.6576  -12.4469 C   0  0  0  0  0  0  0  0  0  0  0  0
   12.3140  -10.6558  -11.9209 N   0  0  0  0  0  0  0  0  0  0  0  0
    9.5164   -6.0600  -12.3857 C   0  0  0  0  0  0  0  0  0  0  0  0
   10.9233   -6.5163  -12.5533 C   0  0  0  0  0  0  0  0  0  0  0  0
    7.2596   -5.6554  -12.1089 C   0  0  0  0  0  0  0  0  0  0  0  0
   11.2337   -8.0004  -12.4953 C   0  0  0  0  0  0  0  0  0  0  0  0
   12.7171   -8.3498  -12.4416 C   0  0  1  0  0  0  0  0  0  0  0  0
   13.5841   -7.1540  -12.1693 C   0  0  0  0  0  0  0  0  0  0  0  0
   12.9561   -9.4523  -11.4211 C   0  0  0  0  0  0  0  0  0  0  0  0
    7.9903   -8.0830  -12.1093 C   0  0  0  0  0  0  0  0  0  0  0  0
   13.2320  -11.3238  -12.8336 C   0  0  0  0  0  0  0  0  0  0  0  0
   12.0450  -11.5144  -10.7781 C   0  0  0  0  0  0  0  0  0  0  0  0
    7.7845   -8.6578  -10.6972 C   0  0  0  0  0  0  0  0  0  0  0  0
    7.4668  -10.1594  -10.8267 C   0  0  0  0  0  0  0  0  0  0  0  0
    6.2038  -10.8299  -12.7756 C   0  0  0  0  0  0  0  0  0  0  0  0
  1 23  1  0  0  0  0
  1 24  1  0  0  0  0
  1  2  1  0  0  0  0
  3  4  1  0  0  0  0
  3 17  1  0  0  0  0
  4  6  2  0  0  0  0
  4 13  1  0  0  0  0
  5 10  1  0  0  0  0
  5 14  2  0  0  0  0
  6  8  1  0  0  0  0
  7 12  1  0  0  0  0
  7 14  1  0  0  0  0
  7 19  1  0  0  0  0
  8 10  2  0  0  0  0
  9 14  1  0  0  0  0
 10 12  1  0  0  0  0
 11 18  1  0  0  0  0
 11 20  1  0  0  0  0
 11 21  1  0  0  0  0
 12 13  2  0  0  0  0
 13 15  1  0  0  0  0
 15 16  1  0  0  0  0
 16 17  1  0  0  0  0
 16 18  1  1  0  0  0
 19 22  1  0  0  0  0
 22 23  1  0  0  0  0
M  END
>  <CHROM.1>
-134.77343400,103.19890674,84.66441476,66.66613089,177.49440550,-70.99762748
9.77750058,-7.86299874,-12.04017644,-2.74873050,0.09918190,-0.15821969

>  <Name>
ligand

>  <RI>
0

>  <Rbt.Current_Directory>
/home/itssahil/PROJECTS/Mol_Feturizer/New_Systems/rnas/3TZR

>  <Rbt.Executable>
rbdock ($Id: //depot/dev/client3/rdock/2013.1/src/exe/rbdock.cxx#4 $)

>  <Rbt.Library>
libRbt.so (2013.1, Build901 2013/11/27)

>  <Rbt.Parameter_File>
/export/apps/rDock/src/rDock_2013.1_src/data/scripts/dock_solv.prm

>  <Rbt.Receptor>
prm/blind_docking_100.prm

>  <SCORE>
-36.2221

>  <SCORE.INTER>
-25.2655

>  <SCORE.INTER.CONST>
1

>  <SCORE.INTER.POLAR>
0

>  <SCORE.INTER.ROT>
6

>  <SCORE.INTER.SOLV>
21.0901

>  <SCORE.INTER.VDW>
-31.4737

>  <SCORE.INTER.norm>
-1.05273

>  <SCORE.INTRA>
-10.9566

>  <SCORE.INTRA.DIHEDRAL>
-0.050636

>  <SCORE.INTRA.DIHEDRAL.0>
4.94008

>  <SCORE.INTRA.POLAR>
0

>  <SCORE.INTRA.POLAR.0>
0

>  <SCORE.INTRA.REPUL>
0

>  <SCORE.INTRA.REPUL.0>
0

>  <SCORE.INTRA.SOLV>
0.318335

>  <SCORE.INTRA.SOLV.lig_0>
-31.4704

>  <SCORE.INTRA.VDW>
-11.0904

>  <SCORE.INTRA.VDW.0>
10.2807

>  <SCORE.INTRA.norm>
-0.456524

>  <SCORE.RESTR>
0

>  <SCORE.RESTR.CAVITY>
0

>  <SCORE.RESTR.norm>
0

>  <SCORE.SYSTEM>
0

>  <SCORE.SYSTEM.CONST>
0

>  <SCORE.SYSTEM.DIHEDRAL>
0

>  <SCORE.SYSTEM.SOLV>
0

>  <SCORE.SYSTEM.norm>
0

>  <SCORE.heavy>
24

>  <SCORE.norm>
-1.50925

>  <RMSD>
1.255

$$$$
ligand
 OpenBabel11021811493D
libRbt.so/2013.1/901 2013/11/27
 24 26  0  0  0  0  0  0  0  0999 V2000
    6.1774  -10.3122  -11.3688 N   0  0  0  0  0  0  0  0  0  0  0  0
    5.4284  -11.2898  -10.5957 C   0  0  0  0  0  0  0  0  0  0  0  0
   13.2285   -6.0443  -12.9186 O   0  0  0  0  0  0  0  0  0  0  0  0
   11.9227   -5.6043  -12.7482 C   0  0  0  0  0  0  0  0  0  0  0  0
    7.8429   -4.4300  -12.2635 N   0  0  0  0  0  0  0  0  0  0  0  0
   11.5782   -4.1392  -12.7879 C   0  0  0  0  0  0  0  0  0  0  0  0
    8.2657   -6.6342  -12.1735 N   0  0  0  0  0  0  0  0  0  0  0  0
   10.2355   -3.6614  -12.6428 C   0  0  0  0  0  0  0  0  0  0  0  0
    5.8813   -5.9210  -11.8864 N   0  0  0  0  0  0  0  0  0  0  0  0
    9.2152   -4.6569  -12.4389 C   0  0  0  0  0  0  0  0  0  0  0  0
   12.3743  -10.6594  -11.9536 N   0  0  0  0  0  0  0  0  0  0  0  0
    9.5327   -6.0587  -12.3835 C   0  0  0  0  0  0  0  0  0  0  0  0
   10.9409   -6.5109  -12.5510 C   0  0  0  0  0  0  0  0  0  0  0  0
    7.2744   -5.6608  -12.1084 C   0  0  0  0  0  0  0  0  0  0  0  0
   11.2548   -7.9945  -12.4993 C   0  0  0  0  0  0  0  0  0  0  0  0
   12.7390   -8.3406  -12.4448 C   0  0  1  0  0  0  0  0  0  0  0  0
   13.6027   -7.1439  -12.1658 C   0  0  0  0  0  0  0  0  0  0  0  0
   12.9790   -9.4471  -11.4289 C   0  0  0  0  0  0  0  0  0  0  0  0
    8.0110   -8.0866  -12.1187 C   0  0  0  0  0  0  0  0  0  0  0  0
   13.3373  -11.3143  -12.8285 C   0  0  0  0  0  0  0  0  0  0  0  0
   12.0719  -11.5219  -10.8221 C   0  0  0  0  0  0  0  0  0  0  0  0
    7.9571   -8.6950  -10.7067 C   0  0  0  0  0  0  0  0  0  0  0  0
    7.5381  -10.1719  -10.8309 C   0  0  0  0  0  0  0  0  0  0  0  0
    6.2008  -10.7552  -12.7582 C   0  0  0  0  0  0  0  0  0  0  0  0
  1 23  1  0  0  0  0
  1 24  1  0  0  0  0
  1  2  1  0  0  0  0
  3  4  1  0  0  0  0
  3 17  1  0  0  0  0
  4  6  2  0  0  0  0
  4 13  1  0  0  0  0
  5 10  1  0  0  0  0
  5 14  2  0  0  0  0
  6  8  1  0  0  0  0
  7 12  1  0  0  0  0
  7 14  1  0  0  0  0
  7 19  1  0  0  0  0
  8 10  2  0  0  0  0
  9 14  1  0  0  0  0
 10 12  1  0  0  0  0
 11 18  1  0  0  0  0
 11 20  1  0  0  0  0
 11 21  1  0  0  0  0
 12 13  2  0  0  0  0
 13 15  1  0  0  0  0
 15 16  1  0  0  0  0
 16 17  1  0  0  0  0
 16 18  1  1  0  0  0
 19 22  1  0  0  0  0
 22 23  1  0  0  0  0
M  END
>  <CHROM.1>
-134.74560446,96.79906172,85.88305173,68.30246517,174.08321597,-64.21877259
9.80924654,-7.85073156,-12.03961451,-2.80582978,0.10116547,-0.15867323

>  <Name>
ligand

>  <RI>
0

>  <Rbt.Current_Directory>
/home/itssahil/PROJECTS/Mol_Feturizer/New_Systems/rnas/3TZR

>  <Rbt.Executable>
rbdock ($Id: //depot/dev/client3/rdock/2013.1/src/exe/rbdock.cxx#4 $)

>  <Rbt.Library>
libRbt.so (2013.1, Build901 2013/11/27)

>  <Rbt.Parameter_File>
/export/apps/rDock/src/rDock_2013.1_src/data/scripts/dock_solv.prm

>  <Rbt.Receptor>
prm/pocket_docking_4.prm

>  <SCORE>
-36.3303

>  <SCORE.INTER>
-25.2751

>  <SCORE.INTER.CONST>
1

>  <SCORE.INTER.POLAR>
0

>  <SCORE.INTER.ROT>
6

>  <SCORE.INTER.SOLV>
21.1829

>  <SCORE.INTER.VDW>
-31.511

>  <SCORE.INTER.norm>
-1.05313

>  <SCORE.INTRA>
-11.0552

>  <SCORE.INTRA.DIHEDRAL>
-0.147561

>  <SCORE.INTRA.DIHEDRAL.0>
4.94008

>  <SCORE.INTRA.POLAR>
0

>  <SCORE.INTRA.POLAR.0>
0

>  <SCORE.INTRA.REPUL>
0

>  <SCORE.INTRA.REPUL.0>
0

>  <SCORE.INTRA.SOLV>
0.188616

>  <SCORE.INTRA.SOLV.lig_0>
-31.4704

>  <SCORE.INTRA.VDW>
-11.0757

>  <SCORE.INTRA.VDW.0>
10.2807

>  <SCORE.INTRA.norm>
-0.460631

>  <SCORE.RESTR>
0

>  <SCORE.RESTR.CAVITY>
0

>  <SCORE.RESTR.norm>
0

>  <SCORE.SYSTEM>
0

>  <SCORE.SYSTEM.CONST>
0

>  <SCORE.SYSTEM.DIHEDRAL>
0

>  <SCORE.SYSTEM.SOLV>
0

>  <SCORE.SYSTEM.norm>
0

>  <SCORE.heavy>
24

>  <SCORE.norm>
-1.51376

>  <RMSD>
1.260

$$$$
ligand
 OpenBabel11021811493D
libRbt.so/2013.1/901 2013/11/27
 24 26  0  0  0  0  0  0  0  0999 V2000
    6.9127  -10.8463  -11.6801 N   0  0  0  0  0  0  0  0  0  0  0  0
    6.1004  -12.0308  -11.9075 C   0  0  0  0  0  0  0  0  0  0  0  0
   13.0299   -5.9623  -13.0897 O   0  0  0  0  0  0  0  0  0  0  0  0
   11.7607   -5.5138  -12.7495 C   0  0  0  0  0  0  0  0  0  0  0  0
    7.7882   -4.3128  -11.7321 N   0  0  0  0  0  0  0  0  0  0  0  0
   11.4204   -4.0471  -12.7559 C   0  0  0  0  0  0  0  0  0  0  0  0
    8.2096   -6.5185  -11.6798 N   0  0  0  0  0  0  0  0  0  0  0  0
   10.1115   -3.5607  -12.4361 C   0  0  0  0  0  0  0  0  0  0  0  0
    5.8885   -5.7898  -11.0816 N   0  0  0  0  0  0  0  0  0  0  0  0
    9.1235   -4.5487  -12.0881 C   0  0  0  0  0  0  0  0  0  0  0  0
   12.0235  -10.4392  -11.7362 N   0  0  0  0  0  0  0  0  0  0  0  0
    9.4394   -5.9518  -12.0632 C   0  0  0  0  0  0  0  0  0  0  0  0
   10.8104   -6.4132  -12.4142 C   0  0  0  0  0  0  0  0  0  0  0  0
    7.2403   -5.5391  -11.4910 C   0  0  0  0  0  0  0  0  0  0  0  0
   11.1219   -7.8980  -12.3916 C   0  0  0  0  0  0  0  0  0  0  0  0
   12.5984   -8.2518  -12.5338 C   0  0  1  0  0  0  0  0  0  0  0  0
   13.4970   -7.0577  -12.3840 C   0  0  0  0  0  0  0  0  0  0  0  0
   12.9678   -9.3511  -11.5493 C   0  0  0  0  0  0  0  0  0  0  0  0
    7.9582   -7.9690  -11.5782 C   0  0  0  0  0  0  0  0  0  0  0  0
   12.4666  -11.2463  -12.8649 C   0  0  0  0  0  0  0  0  0  0  0  0
   12.0357  -11.2416  -10.5231 C   0  0  0  0  0  0  0  0  0  0  0  0
    7.0423   -8.5583  -12.6647 C   0  0  0  0  0  0  0  0  0  0  0  0
    6.1516   -9.6346  -12.0163 C   0  0  0  0  0  0  0  0  0  0  0  0
    7.3245  -10.8412  -10.2810 C   0  0  0  0  0  0  0  0  0  0  0  0
  1 23  1  0  0  0  0
  1 24  1  0  0  0  0
  1  2  1  0  0  0  0
  3  4  1  0  0  0  0
  3 17  1  0  0  0  0
  4  6  2  0  0  0  0
  4 13  1  0  0  0  0
  5 10  1  0  0  0  0
  5 14  2  0  0  0  0
  6  8  1  0  0  0  0
  7 12  1  0  0  0  0
  7 14  1  0  0  0  0
  7 19  1  0  0  0  0
  8 10  2  0  0  0  0
  9 14  1  0  0  0  0
 10 12  1  0  0  0  0
 11 18  1  0  0  0  0
 11 20  1  0  0  0  0
 11 21  1  0  0  0  0
 12 13  2  0  0  0  0
 13 15  1  0  0  0  0
 15 16  1  0  0  0  0
 16 17  1  0  0  0  0
 16 18  1  1  0  0  0
 19 22  1  0  0  0  0
 22 23  1  0  0  0  0
M  END
>  <CHROM.1>
-143.23570267,-108.77589463,82.22685519,52.43984507,-142.41635558,-72.05043598
9.70612667,-7.79084944,-11.97208788,-2.39210096,0.11495355,-0.09589220

>  <Name>
ligand

>  <RI>
144

>  <Rbt.Current_Directory>
/home/itssahil/PROJECTS/Mol_Feturizer/New_Systems/rnas/3TZR

>  <Rbt.Executable>
rbdock ($Id: //depot/dev/client3/rdock/2013.1/src/exe/rbdock.cxx#4 $)

>  <Rbt.Library>
libRbt.so (2013.1, Build901 2013/11/27)

>  <Rbt.Parameter_File>
/export/apps/rDock/src/rDock_2013.1_src/data/scripts/dock_solv.prm

>  <Rbt.Receptor>
prm/blind_docking_20.prm

>  <SCORE>
-25.2048

>  <SCORE.INTER>
-20.4364

>  <SCORE.INTER.CONST>
1

>  <SCORE.INTER.POLAR>
0

>  <SCORE.INTER.ROT>
6

>  <SCORE.INTER.SOLV>
20.2539

>  <SCORE.INTER.VDW>
-27.9756

>  <SCORE.INTER.norm>
-0.851515

>  <SCORE.INTRA>
-7.82553

>  <SCORE.INTRA.DIHEDRAL>
3.15251

>  <SCORE.INTRA.DIHEDRAL.0>
4.94008

>  <SCORE.INTRA.POLAR>
0

>  <SCORE.INTRA.POLAR.0>
0

>  <SCORE.INTRA.REPUL>
0

>  <SCORE.INTRA.REPUL.0>
0

>  <SCORE.INTRA.SOLV>
1.23224

>  <SCORE.INTRA.SOLV.lig_0>
-31.4704

>  <SCORE.INTRA.VDW>
-10.0179

>  <SCORE.INTRA.VDW.0>
10.2807

>  <SCORE.INTRA.norm>
-0.326064

>  <SCORE.RESTR>
3.05706

>  <SCORE.RESTR.CAVITY>
3.05706

>  <SCORE.RESTR.norm>
0.127378

>  <SCORE.SYSTEM>
0

>  <SCORE.SYSTEM.CONST>
0

>  <SCORE.SYSTEM.DIHEDRAL>
0

>  <SCORE.SYSTEM.SOLV>
0

>  <SCORE.SYSTEM.norm>
0

>  <SCORE.heavy>
24

>  <SCORE.norm>
-1.0502

>  <RMSD>
1.261

$$$$
ligand
 OpenBabel11021811493D
libRbt.so/2013.1/901 2013/11/27
 24 26  0  0  0  0  0  0  0  0999 V2000
    7.3454  -11.1085  -10.7259 N   0  0  0  0  0  0  0  0  0  0  0  0
    6.1753  -11.9328  -10.9822 C   0  0  0  0  0  0  0  0  0  0  0  0
   12.9900   -5.4836  -12.8234 O   0  0  0  0  0  0  0  0  0  0  0  0
   11.6474   -5.1740  -12.6518 C   0  0  0  0  0  0  0  0  0  0  0  0
    7.4712   -4.4001  -12.1832 N   0  0  0  0  0  0  0  0  0  0  0  0
   11.1788   -3.7465  -12.5548 C   0  0  0  0  0  0  0  0  0  0  0  0
    8.0803   -6.5589  -12.3021 N   0  0  0  0  0  0  0  0  0  0  0  0
    9.7969   -3.3998  -12.4057 C   0  0  0  0  0  0  0  0  0  0  0  0
    5.6371   -6.0804  -12.0218 N   0  0  0  0  0  0  0  0  0  0  0  0
    8.8617   -4.4925  -12.3362 C   0  0  0  0  0  0  0  0  0  0  0  0
   12.2925  -10.1842  -12.2222 N   0  0  0  0  0  0  0  0  0  0  0  0
    9.2975   -5.8612  -12.4121 C   0  0  0  0  0  0  0  0  0  0  0  0
   10.7430   -6.1748  -12.5787 C   0  0  0  0  0  0  0  0  0  0  0  0
    7.0075   -5.6835  -12.1714 C   0  0  0  0  0  0  0  0  0  0  0  0
   11.1824   -7.6244  -12.6666 C   0  0  0  0  0  0  0  0  0  0  0  0
   12.6892   -7.8493  -12.5994 C   0  0  1  0  0  0  0  0  0  0  0  0
   13.4396   -6.6200  -12.1734 C   0  0  0  0  0  0  0  0  0  0  0  0
   12.9996   -9.0308  -11.6928 C   0  0  0  0  0  0  0  0  0  0  0  0
    7.9505   -8.0254  -12.4022 C   0  0  0  0  0  0  0  0  0  0  0  0
   13.2579  -11.2490  -12.4589 C   0  0  0  0  0  0  0  0  0  0  0  0
   11.3310  -10.6069  -11.2161 C   0  0  0  0  0  0  0  0  0  0  0  0
    8.2185   -8.8025  -11.1018 C   0  0  0  0  0  0  0  0  0  0  0  0
    6.9915   -9.6839  -10.8022 C   0  0  0  0  0  0  0  0  0  0  0  0
    7.8635  -11.4550   -9.4072 C   0  0  0  0  0  0  0  0  0  0  0  0
  1 23  1  0  0  0  0
  1 24  1  0  0  0  0
  1  2  1  0  0  0  0
  3  4  1  0  0  0  0
  3 17  1  0  0  0  0
  4  6  2  0  0  0  0
  4 13  1  0  0  0  0
  5 10  1  0  0  0  0
  5 14  2  0  0  0  0
  6  8  1  0  0  0  0
  7 12  1  0  0  0  0
  7 14  1  0  0  0  0
  7 19  1  0  0  0  0
  8 10  2  0  0  0  0
  9 14  1  0  0  0  0
 10 12  1  0  0  0  0
 11 18  1  0  0  0  0
 11 20  1  0  0  0  0
 11 21  1  0  0  0  0
 12 13  2  0  0  0  0
 13 15  1  0  0  0  0
 15 16  1  0  0  0  0
 16 17  1  0  0  0  0
 16 18  1  1  0  0  0
 19 22  1  0  0  0  0
 22 23  1  0  0  0  0
M  END
>  <CHROM.1>
-157.13558677,84.14753826,124.39412678,57.41417546,124.90286405,121.33832023
9.77727706,-7.69688828,-11.92441294,2.08238463,-0.14742560,2.92826889

>  <Name>
ligand

>  <RI>
144

>  <Rbt.Current_Directory>
/home/itssahil/PROJECTS/Mol_Feturizer/New_Systems/rnas/3TZR

>  <Rbt.Executable>
rbdock ($Id: //depot/dev/client3/rdock/2013.1/src/exe/rbdock.cxx#4 $)

>  <Rbt.Library>
libRbt.so (2013.1, Build901 2013/11/27)

>  <Rbt.Parameter_File>
/export/apps/rDock/src/rDock_2013.1_src/data/scripts/dock_solv.prm

>  <Rbt.Receptor>
prm/blind_docking_20.prm

>  <SCORE>
-25.1692

>  <SCORE.INTER>
-22.0461

>  <SCORE.INTER.CONST>
1

>  <SCORE.INTER.POLAR>
0

>  <SCORE.INTER.ROT>
6

>  <SCORE.INTER.SOLV>
20.7313

>  <SCORE.INTER.VDW>
-29.2078

>  <SCORE.INTER.norm>
-0.918589

>  <SCORE.INTRA>
-5.70708

>  <SCORE.INTRA.DIHEDRAL>
10.5723

>  <SCORE.INTRA.DIHEDRAL.0>
4.94008

>  <SCORE.INTRA.POLAR>
0

>  <SCORE.INTRA.POLAR.0>
0

>  <SCORE.INTRA.REPUL>
0

>  <SCORE.INTRA.REPUL.0>
0

>  <SCORE.INTRA.SOLV>
0.685509

>  <SCORE.INTRA.SOLV.lig_0>
-31.4704

>  <SCORE.INTRA.VDW>
-11.336

>  <SCORE.INTRA.VDW.0>
10.2807

>  <SCORE.INTRA.norm>
-0.237795

>  <SCORE.RESTR>
2.58396

>  <SCORE.RESTR.CAVITY>
2.58396

>  <SCORE.RESTR.norm>
0.107665

>  <SCORE.SYSTEM>
0

>  <SCORE.SYSTEM.CONST>
0

>  <SCORE.SYSTEM.DIHEDRAL>
0

>  <SCORE.SYSTEM.SOLV>
0

>  <SCORE.SYSTEM.norm>
0

>  <SCORE.heavy>
24

>  <SCORE.norm>
-1.04872

>  <RMSD>
1.262

$$$$
ligand
 OpenBabel11021811493D
libRbt.so/2013.1/901 2013/11/27
 24 26  0  0  0  0  0  0  0  0999 V2000
    6.0785  -10.3539  -11.5241 N   0  0  0  0  0  0  0  0  0  0  0  0
    5.2451  -11.2365  -10.7237 C   0  0  0  0  0  0  0  0  0  0  0  0
   13.1949   -6.1031  -12.9266 O   0  0  0  0  0  0  0  0  0  0  0  0
   11.8948   -5.6472  -12.7546 C   0  0  0  0  0  0  0  0  0  0  0  0
    7.8302   -4.4228  -12.2659 N   0  0  0  0  0  0  0  0  0  0  0  0
   11.5691   -4.1776  -12.7877 C   0  0  0  0  0  0  0  0  0  0  0  0
    8.2246   -6.6326  -12.1858 N   0  0  0  0  0  0  0  0  0  0  0  0
   10.2326   -3.6833  -12.6408 C   0  0  0  0  0  0  0  0  0  0  0  0
    5.8495   -5.8902  -11.8962 N   0  0  0  0  0  0  0  0  0  0  0  0
    9.1995   -4.6664  -12.4418 C   0  0  0  0  0  0  0  0  0  0  0  0
   12.2920  -10.7143  -11.9888 N   0  0  0  0  0  0  0  0  0  0  0  0
    9.4990   -6.0725  -12.3928 C   0  0  0  0  0  0  0  0  0  0  0  0
   10.9013   -6.5420  -12.5619 C   0  0  0  0  0  0  0  0  0  0  0  0
    7.2459   -5.6469  -12.1166 C   0  0  0  0  0  0  0  0  0  0  0  0
   11.1961   -8.0297  -12.5168 C   0  0  0  0  0  0  0  0  0  0  0  0
   12.6757   -8.3951  -12.4635 C   0  0  1  0  0  0  0  0  0  0  0  0
   13.5546   -7.2109  -12.1787 C   0  0  0  0  0  0  0  0  0  0  0  0
   12.9010   -9.5092  -11.4526 C   0  0  0  0  0  0  0  0  0  0  0  0
    7.9512   -8.0819  -12.1378 C   0  0  0  0  0  0  0  0  0  0  0  0
   13.2577  -11.3720  -12.8586 C   0  0  0  0  0  0  0  0  0  0  0  0
   11.9732  -11.5802  -10.8644 C   0  0  0  0  0  0  0  0  0  0  0  0
    7.7363   -8.6673  -10.7314 C   0  0  0  0  0  0  0  0  0  0  0  0
    7.3834  -10.1595  -10.8762 C   0  0  0  0  0  0  0  0  0  0  0  0
    6.2281  -10.9489  -12.8473 C   0  0  0  0  0  0  0  0  0  0  0  0
  1 23  1  0  0  0  0
  1 24  1  0  0  0  0
  1  2  1  0  0  0  0
  3  4  1  0  0  0  0
  3 17  1  0  0  0  0
  4  6  2  0  0  0  0
  4 13  1  0  0  0  0
  5 10  1  0  0  0  0
  5 14  2  0  0  0  0
  6  8  1  0  0  0  0
  7 12  1  0  0  0  0
  7 14  1  0  0  0  0
  7 19  1  0  0  0  0
  8 10  2  0  0  0  0
  9 14  1  0  0  0  0
 10 12  1  0  0  0  0
 11 18  1  0  0  0  0
 11 20  1  0  0  0  0
 11 21  1  0  0  0  0
 12 13  2  0  0  0  0
 13 15  1  0  0  0  0
 15 16  1  0  0  0  0
 16 17  1  0  0  0  0
 16 18  1  1  0  0  0
 19 22  1  0  0  0  0
 22 23  1  0  0  0  0
M  END
>  <CHROM.1>
-128.21329387,103.21197721,86.00326744,68.82678935,176.69656238,-66.87235007
9.74597837,-7.88036722,-12.07068589,-2.79851193,0.09816813,-0.14265219

>  <Name>
ligand

>  <RI>
0

>  <Rbt.Current_Directory>
/home/itssahil/PROJECTS/Mol_Feturizer/New_Systems/rnas/3TZR

>  <Rbt.Executable>
rbdock ($Id: //depot/dev/client3/rdock/2013.1/src/exe/rbdock.cxx#4 $)

>  <Rbt.Library>
libRbt.so (2013.1, Build901 2013/11/27)

>  <Rbt.Parameter_File>
/export/apps/rDock/src/rDock_2013.1_src/data/scripts/dock_solv.prm

>  <Rbt.Receptor>
prm/blind_docking_80.prm

>  <SCORE>
-36.2044

>  <SCORE.INTER>
-25.1581

>  <SCORE.INTER.CONST>
1

>  <SCORE.INTER.POLAR>
0

>  <SCORE.INTER.ROT>
6

>  <SCORE.INTER.SOLV>
21.2446

>  <SCORE.INTER.VDW>
-31.4536

>  <SCORE.INTER.norm>
-1.04825

>  <SCORE.INTRA>
-11.0463

>  <SCORE.INTRA.DIHEDRAL>
0.121456

>  <SCORE.INTRA.DIHEDRAL.0>
4.94008

>  <SCORE.INTRA.POLAR>
0

>  <SCORE.INTRA.POLAR.0>
0

>  <SCORE.INTRA.REPUL>
0

>  <SCORE.INTRA.REPUL.0>
0

>  <SCORE.INTRA.SOLV>
0.336059

>  <SCORE.INTRA.SOLV.lig_0>
-31.4704

>  <SCORE.INTRA.VDW>
-11.2751

>  <SCORE.INTRA.VDW.0>
10.2807

>  <SCORE.INTRA.norm>
-0.460264

>  <SCORE.RESTR>
0

>  <SCORE.RESTR.CAVITY>
0

>  <SCORE.RESTR.norm>
0

>  <SCORE.SYSTEM>
0

>  <SCORE.SYSTEM.CONST>
0

>  <SCORE.SYSTEM.DIHEDRAL>
0

>  <SCORE.SYSTEM.SOLV>
0

>  <SCORE.SYSTEM.norm>
0

>  <SCORE.heavy>
24

>  <SCORE.norm>
-1.50852

>  <RMSD>
1.262

$$$$
ligand
 OpenBabel11021811493D
libRbt.so/2013.1/901 2013/11/27
 24 26  0  0  0  0  0  0  0  0999 V2000
    6.0863  -10.3088  -11.4458 N   0  0  0  0  0  0  0  0  0  0  0  0
    5.2768  -11.2461  -10.6840 C   0  0  0  0  0  0  0  0  0  0  0  0
   13.2148   -6.0697  -12.9222 O   0  0  0  0  0  0  0  0  0  0  0  0
   11.9109   -5.6235  -12.7531 C   0  0  0  0  0  0  0  0  0  0  0  0
    7.8364   -4.4299  -12.2710 N   0  0  0  0  0  0  0  0  0  0  0  0
   11.5720   -4.1574  -12.8025 C   0  0  0  0  0  0  0  0  0  0  0  0
    8.2508   -6.6351  -12.1661 N   0  0  0  0  0  0  0  0  0  0  0  0
   10.2314   -3.6734  -12.6589 C   0  0  0  0  0  0  0  0  0  0  0  0
    5.8695   -5.9107  -11.8808 N   0  0  0  0  0  0  0  0  0  0  0  0
    9.2075   -4.6634  -12.4467 C   0  0  0  0  0  0  0  0  0  0  0  0
   12.3928  -10.6873  -11.9487 N   0  0  0  0  0  0  0  0  0  0  0  0
    9.5197   -6.0660  -12.3820 C   0  0  0  0  0  0  0  0  0  0  0  0
   10.9259   -6.5249  -12.5482 C   0  0  0  0  0  0  0  0  0  0  0  0
    7.2633   -5.6574  -12.1065 C   0  0  0  0  0  0  0  0  0  0  0  0
   11.2341   -8.0092  -12.4865 C   0  0  0  0  0  0  0  0  0  0  0  0
   12.7170   -8.3607  -12.4317 C   0  0  1  0  0  0  0  0  0  0  0  0
   13.5857   -7.1655  -12.1622 C   0  0  0  0  0  0  0  0  0  0  0  0
   12.9541   -9.4611  -11.4084 C   0  0  0  0  0  0  0  0  0  0  0  0
    7.9905   -8.0861  -12.1009 C   0  0  0  0  0  0  0  0  0  0  0  0
   13.3850  -11.3054  -12.8179 C   0  0  0  0  0  0  0  0  0  0  0  0
   12.1051  -11.5675  -10.8271 C   0  0  0  0  0  0  0  0  0  0  0  0
    7.7962   -8.6594  -10.6865 C   0  0  0  0  0  0  0  0  0  0  0  0
    7.4033  -10.1431  -10.8146 C   0  0  0  0  0  0  0  0  0  0  0  0
    6.2120  -10.8202  -12.8060 C   0  0  0  0  0  0  0  0  0  0  0  0
  1 23  1  0  0  0  0
  1 24  1  0  0  0  0
  1  2  1  0  0  0  0
  3  4  1  0  0  0  0
  3 17  1  0  0  0  0
  4  6  2  0  0  0  0
  4 13  1  0  0  0  0
  5 10  1  0  0  0  0
  5 14  2  0  0  0  0
  6  8  1  0  0  0  0
  7 12  1  0  0  0  0
  7 14  1  0  0  0  0
  7 19  1  0  0  0  0
  8 10  2  0  0  0  0
  9 14  1  0  0  0  0
 10 12  1  0  0  0  0
 11 18  1  0  0  0  0
 11 20  1  0  0  0  0
 11 21  1  0  0  0  0
 12 13  2  0  0  0  0
 13 15  1  0  0  0  0
 15 16  1  0  0  0  0
 16 17  1  0  0  0  0
 16 18  1  1  0  0  0
 19 22  1  0  0  0  0
 22 23  1  0  0  0  0
M  END
>  <CHROM.1>
-132.69689254,102.66590828,84.70913572,70.62981342,174.61622875,-66.08539977
9.78168285,-7.85816110,-12.04556728,-2.84260294,0.09780127,-0.15469204

>  <Name>
ligand

>  <RI>
144

>  <Rbt.Current_Directory>
/home/itssahil/PROJECTS/Mol_Feturizer/New_Systems/rnas/3TZR

>  <Rbt.Executable>
rbdock ($Id: //depot/dev/client3/rdock/2013.1/src/exe/rbdock.cxx#4 $)

>  <Rbt.Library>
libRbt.so (2013.1, Build901 2013/11/27)

>  <Rbt.Parameter_File>
/export/apps/rDock/src/rDock_2013.1_src/data/scripts/dock_solv.prm

>  <Rbt.Receptor>
prm/pocket_docking_8.prm

>  <SCORE>
-36.3438

>  <SCORE.INTER>
-25.4328

>  <SCORE.INTER.CONST>
1

>  <SCORE.INTER.POLAR>
0

>  <SCORE.INTER.ROT>
6

>  <SCORE.INTER.SOLV>
21.1324

>  <SCORE.INTER.VDW>
-31.5993

>  <SCORE.INTER.norm>
-1.0597

>  <SCORE.INTRA>
-10.911

>  <SCORE.INTRA.DIHEDRAL>
0.044351

>  <SCORE.INTRA.DIHEDRAL.0>
4.94008

>  <SCORE.INTRA.POLAR>
0

>  <SCORE.INTRA.POLAR.0>
0

>  <SCORE.INTRA.REPUL>
0

>  <SCORE.INTRA.REPUL.0>
0

>  <SCORE.INTRA.SOLV>
0.348795

>  <SCORE.INTRA.SOLV.lig_0>
-31.4704

>  <SCORE.INTRA.VDW>
-11.1075

>  <SCORE.INTRA.VDW.0>
10.2807

>  <SCORE.INTRA.norm>
-0.454624

>  <SCORE.RESTR>
0

>  <SCORE.RESTR.CAVITY>
0

>  <SCORE.RESTR.norm>
0

>  <SCORE.SYSTEM>
0

>  <SCORE.SYSTEM.CONST>
0

>  <SCORE.SYSTEM.DIHEDRAL>
0

>  <SCORE.SYSTEM.SOLV>
0

>  <SCORE.SYSTEM.norm>
0

>  <SCORE.heavy>
24

>  <SCORE.norm>
-1.51432

>  <RMSD>
1.262

$$$$
ligand
 OpenBabel11021811493D
libRbt.so/2013.1/901 2013/11/27
 24 26  0  0  0  0  0  0  0  0999 V2000
    6.9572  -10.5809  -11.3576 N   0  0  0  0  0  0  0  0  0  0  0  0
    6.0009  -10.2721  -12.4085 C   0  0  0  0  0  0  0  0  0  0  0  0
   13.9132   -7.5342  -13.1151 O   0  0  0  0  0  0  0  0  0  0  0  0
   12.8335   -6.7257  -12.7859 C   0  0  0  0  0  0  0  0  0  0  0  0
    9.3925   -4.3839  -11.8192 N   0  0  0  0  0  0  0  0  0  0  0  0
   12.9762   -5.2301  -12.6869 C   0  0  0  0  0  0  0  0  0  0  0  0
    9.0897   -6.6069  -11.9287 N   0  0  0  0  0  0  0  0  0  0  0  0
   11.8721   -4.3718  -12.3766 C   0  0  0  0  0  0  0  0  0  0  0  0
    7.0876   -5.2133  -11.3581 N   0  0  0  0  0  0  0  0  0  0  0  0
   10.6031   -5.0116  -12.1447 C   0  0  0  0  0  0  0  0  0  0  0  0
   13.5170  -11.8465  -12.4580 N   0  0  0  0  0  0  0  0  0  0  0  0
   10.4563   -6.4404  -12.2210 C   0  0  0  0  0  0  0  0  0  0  0  0
   11.6289   -7.2930  -12.5582 C   0  0  0  0  0  0  0  0  0  0  0  0
    8.4710   -5.3830  -11.6971 C   0  0  0  0  0  0  0  0  0  0  0  0
   11.4522   -8.7975  -12.6435 C   0  0  0  0  0  0  0  0  0  0  0  0
   12.7463   -9.5957  -12.7603 C   0  0  1  0  0  0  0  0  0  0  0  0
   13.9662   -8.7646  -12.4831 C   0  0  0  0  0  0  0  0  0  0  0  0
   12.6890  -10.8165  -11.8545 C   0  0  0  0  0  0  0  0  0  0  0  0
    8.3863   -7.9038  -11.9528 C   0  0  0  0  0  0  0  0  0  0  0  0
   14.0410  -12.6974  -11.3982 C   0  0  0  0  0  0  0  0  0  0  0  0
   12.6666  -12.6286  -13.3415 C   0  0  0  0  0  0  0  0  0  0  0  0
    8.4560   -8.7174  -10.6490 C   0  0  0  0  0  0  0  0  0  0  0  0
    7.1066   -9.4332  -10.4516 C   0  0  0  0  0  0  0  0  0  0  0  0
    6.4804  -11.7600  -10.6436 C   0  0  0  0  0  0  0  0  0  0  0  0
  1 23  1  0  0  0  0
  1 24  1  0  0  0  0
  1  2  1  0  0  0  0
  3  4  1  0  0  0  0
  3 17  1  0  0  0  0
  4  6  2  0  0  0  0
  4 13  1  0  0  0  0
  5 10  1  0  0  0  0
  5 14  2  0  0  0  0
  6  8  1  0  0  0  0
  7 12  1  0  0  0  0
  7 14  1  0  0  0  0
  7 19  1  0  0  0  0
  8 10  2  0  0  0  0
  9 14  1  0  0  0  0
 10 12  1  0  0  0  0
 11 18  1  0  0  0  0
 11 20  1  0  0  0  0
 11 21  1  0  0  0  0
 12 13  2  0  0  0  0
 13 15  1  0  0  0  0
 15 16  1  0  0  0  0
 16 17  1  0  0  0  0
 16 18  1  1  0  0  0
 19 22  1  0  0  0  0
 22 23  1  0  0  0  0
M  END
>  <CHROM.1>
-107.07774406,86.35665147,151.27511682,150.98906689,143.47843760,74.76854759
10.50633615,-8.39273605,-12.03543833,2.60259003,0.19974427,-0.05168090

>  <Name>
ligand

>  <RI>
0

>  <Rbt.Current_Directory>
/home/itssahil/PROJECTS/Mol_Feturizer/New_Systems/rnas/3TZR

>  <Rbt.Executable>
rbdock ($Id: //depot/dev/client3/rdock/2013.1/src/exe/rbdock.cxx#4 $)

>  <Rbt.Library>
libRbt.so (2013.1, Build901 2013/11/27)

>  <Rbt.Parameter_File>
/export/apps/rDock/src/rDock_2013.1_src/data/scripts/dock_solv.prm

>  <Rbt.Receptor>
prm/blind_docking_40.prm

>  <SCORE>
-30.9616

>  <SCORE.INTER>
-23.0964

>  <SCORE.INTER.CONST>
1

>  <SCORE.INTER.POLAR>
0

>  <SCORE.INTER.ROT>
6

>  <SCORE.INTER.SOLV>
20.8211

>  <SCORE.INTER.VDW>
-29.938

>  <SCORE.INTER.norm>
-0.962352

>  <SCORE.INTRA>
-7.86701

>  <SCORE.INTRA.DIHEDRAL>
6.69616

>  <SCORE.INTRA.DIHEDRAL.0>
4.94008

>  <SCORE.INTRA.POLAR>
0

>  <SCORE.INTRA.POLAR.0>
0

>  <SCORE.INTRA.REPUL>
0

>  <SCORE.INTRA.REPUL.0>
0

>  <SCORE.INTRA.SOLV>
0.351417

>  <SCORE.INTRA.SOLV.lig_0>
-31.4704

>  <SCORE.INTRA.VDW>
-11.3908

>  <SCORE.INTRA.VDW.0>
10.2807

>  <SCORE.INTRA.norm>
-0.327792

>  <SCORE.RESTR>
0.00180731

>  <SCORE.RESTR.CAVITY>
0.00180731

>  <SCORE.RESTR.norm>
7.53048e-05

>  <SCORE.SYSTEM>
0

>  <SCORE.SYSTEM.CONST>
0

>  <SCORE.SYSTEM.DIHEDRAL>
0

>  <SCORE.SYSTEM.SOLV>
0

>  <SCORE.SYSTEM.norm>
0

>  <SCORE.heavy>
24

>  <SCORE.norm>
-1.29007

>  <RMSD>
1.266

$$$$
ligand
 OpenBabel11021811493D
libRbt.so/2013.1/901 2013/11/27
 24 26  0  0  0  0  0  0  0  0999 V2000
    6.0453  -10.0965  -11.5507 N   0  0  0  0  0  0  0  0  0  0  0  0
    5.1419  -11.0285  -10.8955 C   0  0  0  0  0  0  0  0  0  0  0  0
   13.6297   -6.8256  -13.0309 O   0  0  0  0  0  0  0  0  0  0  0  0
   12.4462   -6.1913  -12.6775 C   0  0  0  0  0  0  0  0  0  0  0  0
    8.7078   -4.3982  -11.6441 N   0  0  0  0  0  0  0  0  0  0  0  0
   12.3786   -4.6967  -12.5086 C   0  0  0  0  0  0  0  0  0  0  0  0
    8.7183   -6.6342  -11.8585 N   0  0  0  0  0  0  0  0  0  0  0  0
   11.1642   -4.0156  -12.1720 C   0  0  0  0  0  0  0  0  0  0  0  0
    6.5386   -5.5606  -11.2477 N   0  0  0  0  0  0  0  0  0  0  0  0
    9.9956   -4.8357  -11.9841 C   0  0  0  0  0  0  0  0  0  0  0  0
   13.2844  -11.3835  -12.8116 N   0  0  0  0  0  0  0  0  0  0  0  0
   10.0497   -6.2659  -12.1273 C   0  0  0  0  0  0  0  0  0  0  0  0
   11.3314   -6.9305  -12.4897 C   0  0  0  0  0  0  0  0  0  0  0  0
    7.9339   -5.5203  -11.5783 C   0  0  0  0  0  0  0  0  0  0  0  0
   11.3665   -8.4393  -12.6457 C   0  0  0  0  0  0  0  0  0  0  0  0
   12.7597   -9.0436  -12.7841 C   0  0  1  0  0  0  0  0  0  0  0  0
   13.8505   -8.0648  -12.4552 C   0  0  0  0  0  0  0  0  0  0  0  0
   12.8687  -10.3015  -11.9357 C   0  0  0  0  0  0  0  0  0  0  0  0
    8.2025   -8.0137  -11.9499 C   0  0  0  0  0  0  0  0  0  0  0  0
   14.6940  -11.6586  -12.5685 C   0  0  0  0  0  0  0  0  0  0  0  0
   12.4891  -12.5524  -12.4698 C   0  0  0  0  0  0  0  0  0  0  0  0
    7.8727   -8.6860  -10.6061 C   0  0  0  0  0  0  0  0  0  0  0  0
    7.3581  -10.1097  -10.8897 C   0  0  0  0  0  0  0  0  0  0  0  0
    6.1551  -10.4821  -12.9530 C   0  0  0  0  0  0  0  0  0  0  0  0
  1 23  1  0  0  0  0
  1 24  1  0  0  0  0
  1  2  1  0  0  0  0
  3  4  1  0  0  0  0
  3 17  1  0  0  0  0
  4  6  2  0  0  0  0
  4 13  1  0  0  0  0
  5 10  1  0  0  0  0
  5 14  2  0  0  0  0
  6  8  1  0  0  0  0
  7 12  1  0  0  0  0
  7 14  1  0  0  0  0
  7 19  1  0  0  0  0
  8 10  2  0  0  0  0
  9 14  1  0  0  0  0
 10 12  1  0  0  0  0
 11 18  1  0  0  0  0
 11 20  1  0  0  0  0
 11 21  1  0  0  0  0
 12 13  2  0  0  0  0
 13 15  1  0  0  0  0
 15 16  1  0  0  0  0
 16 17  1  0  0  0  0
 16 18  1  1  0  0  0
 19 22  1  0  0  0  0
 22 23  1  0  0  0  0
M  END
>  <CHROM.1>
-132.49330962,108.92978885,104.29836535,124.56498064,-179.74513302,-68.50732751
10.18992171,-8.12871726,-12.07569981,2.97625658,0.17090095,0.00259879

>  <Name>
ligand

>  <RI>
0

>  <Rbt.Current_Directory>
/home/itssahil/PROJECTS/Mol_Feturizer/New_Systems/rnas/3TZR

>  <Rbt.Executable>
rbdock ($Id: //depot/dev/client3/rdock/2013.1/src/exe/rbdock.cxx#4 $)

>  <Rbt.Library>
libRbt.so (2013.1, Build901 2013/11/27)

>  <Rbt.Parameter_File>
/export/apps/rDock/src/rDock_2013.1_src/data/scripts/dock_solv.prm

>  <Rbt.Receptor>
prm/blind_docking_40.prm

>  <SCORE>
-33.6635

>  <SCORE.INTER>
-25.1443

>  <SCORE.INTER.CONST>
1

>  <SCORE.INTER.POLAR>
0

>  <SCORE.INTER.ROT>
6

>  <SCORE.INTER.SOLV>
21.351

>  <SCORE.INTER.VDW>
-31.4799

>  <SCORE.INTER.norm>
-1.04768

>  <SCORE.INTRA>
-8.51919

>  <SCORE.INTRA.DIHEDRAL>
5.88788

>  <SCORE.INTRA.DIHEDRAL.0>
4.94008

>  <SCORE.INTRA.POLAR>
0

>  <SCORE.INTRA.POLAR.0>
0

>  <SCORE.INTRA.REPUL>
0

>  <SCORE.INTRA.REPUL.0>
0

>  <SCORE.INTRA.SOLV>
0.425145

>  <SCORE.INTRA.SOLV.lig_0>
-31.4704

>  <SCORE.INTRA.VDW>
-11.6757

>  <SCORE.INTRA.VDW.0>
10.2807

>  <SCORE.INTRA.norm>
-0.354966

>  <SCORE.RESTR>
0

>  <SCORE.RESTR.CAVITY>
0

>  <SCORE.RESTR.norm>
0

>  <SCORE.SYSTEM>
0

>  <SCORE.SYSTEM.CONST>
0

>  <SCORE.SYSTEM.DIHEDRAL>
0

>  <SCORE.SYSTEM.SOLV>
0

>  <SCORE.SYSTEM.norm>
0

>  <SCORE.heavy>
24

>  <SCORE.norm>
-1.40265

>  <RMSD>
1.268

$$$$
ligand
 OpenBabel11021811493D
libRbt.so/2013.1/901 2013/11/27
 24 26  0  0  0  0  0  0  0  0999 V2000
    6.0995  -10.2734  -11.4532 N   0  0  0  0  0  0  0  0  0  0  0  0
    5.2662  -11.1886  -10.6902 C   0  0  0  0  0  0  0  0  0  0  0  0
   13.2266   -6.0394  -12.9285 O   0  0  0  0  0  0  0  0  0  0  0  0
   11.9199   -5.6017  -12.7590 C   0  0  0  0  0  0  0  0  0  0  0  0
    7.8378   -4.4345  -12.2761 N   0  0  0  0  0  0  0  0  0  0  0  0
   11.5718   -4.1376  -12.8060 C   0  0  0  0  0  0  0  0  0  0  0  0
    8.2660   -6.6372  -12.1750 N   0  0  0  0  0  0  0  0  0  0  0  0
   10.2282   -3.6623  -12.6620 C   0  0  0  0  0  0  0  0  0  0  0  0
    5.8802   -5.9282  -11.8892 N   0  0  0  0  0  0  0  0  0  0  0  0
    9.2104   -4.6590  -12.4518 C   0  0  0  0  0  0  0  0  0  0  0  0
   12.6774  -10.7013  -12.0621 N   0  0  0  0  0  0  0  0  0  0  0  0
    9.5313   -6.0598  -12.3895 C   0  0  0  0  0  0  0  0  0  0  0  0
   10.9405   -6.5095  -12.5561 C   0  0  0  0  0  0  0  0  0  0  0  0
    7.2724   -5.6658  -12.1140 C   0  0  0  0  0  0  0  0  0  0  0  0
   11.2579   -7.9920  -12.4969 C   0  0  0  0  0  0  0  0  0  0  0  0
   12.7429   -8.3344  -12.4422 C   0  0  1  0  0  0  0  0  0  0  0  0
   13.6041   -7.1342  -12.1703 C   0  0  0  0  0  0  0  0  0  0  0  0
   12.9866   -9.4350  -11.4208 C   0  0  0  0  0  0  0  0  0  0  0  0
    8.0147   -8.0899  -12.1124 C   0  0  0  0  0  0  0  0  0  0  0  0
   13.8697  -11.1714  -12.7546 C   0  0  0  0  0  0  0  0  0  0  0  0
   12.3129  -11.6435  -11.0158 C   0  0  0  0  0  0  0  0  0  0  0  0
    7.8565   -8.6724  -10.6974 C   0  0  0  0  0  0  0  0  0  0  0  0
    7.4221  -10.1446  -10.8251 C   0  0  0  0  0  0  0  0  0  0  0  0
    6.2079  -10.7870  -12.8141 C   0  0  0  0  0  0  0  0  0  0  0  0
  1 23  1  0  0  0  0
  1 24  1  0  0  0  0
  1  2  1  0  0  0  0
  3  4  1  0  0  0  0
  3 17  1  0  0  0  0
  4  6  2  0  0  0  0
  4 13  1  0  0  0  0
  5 10  1  0  0  0  0
  5 14  2  0  0  0  0
  6  8  1  0  0  0  0
  7 12  1  0  0  0  0
  7 14  1  0  0  0  0
  7 19  1  0  0  0  0
  8 10  2  0  0  0  0
  9 14  1  0  0  0  0
 10 12  1  0  0  0  0
 11 18  1  0  0  0  0
 11 20  1  0  0  0  0
 11 21  1  0  0  0  0
 12 13  2  0  0  0  0
 13 15  1  0  0  0  0
 15 16  1  0  0  0  0
 16 17  1  0  0  0  0
 16 18  1  1  0  0  0
 19 22  1  0  0  0  0
 22 23  1  0  0  0  0
M  END
>  <CHROM.1>
-132.72219974,101.28956429,86.84769635,81.64679044,172.73699939,-64.09603628
9.83756489,-7.84392367,-12.06305332,-2.96335838,0.09932123,-0.15257457

>  <Name>
ligand

>  <RI>
0

>  <Rbt.Current_Directory>
/home/itssahil/PROJECTS/Mol_Feturizer/New_Systems/rnas/3TZR

>  <Rbt.Executable>
rbdock ($Id: //depot/dev/client3/rdock/2013.1/src/exe/rbdock.cxx#4 $)

>  <Rbt.Library>
libRbt.so (2013.1, Build901 2013/11/27)

>  <Rbt.Parameter_File>
/export/apps/rDock/src/rDock_2013.1_src/data/scripts/dock_solv.prm

>  <Rbt.Receptor>
prm/pocket_docking_4.prm

>  <SCORE>
-35.9852

>  <SCORE.INTER>
-25.559

>  <SCORE.INTER.CONST>
1

>  <SCORE.INTER.POLAR>
0

>  <SCORE.INTER.ROT>
6

>  <SCORE.INTER.SOLV>
21.0759

>  <SCORE.INTER.VDW>
-31.6646

>  <SCORE.INTER.norm>
-1.06496

>  <SCORE.INTRA>
-10.4262

>  <SCORE.INTRA.DIHEDRAL>
1.26675

>  <SCORE.INTRA.DIHEDRAL.0>
4.94008

>  <SCORE.INTRA.POLAR>
0

>  <SCORE.INTRA.POLAR.0>
0

>  <SCORE.INTRA.REPUL>
0

>  <SCORE.INTRA.REPUL.0>
0

>  <SCORE.INTRA.SOLV>
0.356658

>  <SCORE.INTRA.SOLV.lig_0>
-31.4704

>  <SCORE.INTRA.VDW>
-11.2379

>  <SCORE.INTRA.VDW.0>
10.2807

>  <SCORE.INTRA.norm>
-0.434426

>  <SCORE.RESTR>
0

>  <SCORE.RESTR.CAVITY>
0

>  <SCORE.RESTR.norm>
0

>  <SCORE.SYSTEM>
0

>  <SCORE.SYSTEM.CONST>
0

>  <SCORE.SYSTEM.DIHEDRAL>
0

>  <SCORE.SYSTEM.SOLV>
0

>  <SCORE.SYSTEM.norm>
0

>  <SCORE.heavy>
24

>  <SCORE.norm>
-1.49938

>  <RMSD>
1.268

$$$$
ligand
 OpenBabel11021811493D
libRbt.so/2013.1/901 2013/11/27
 24 26  0  0  0  0  0  0  0  0999 V2000
    6.0950  -10.2991  -11.4870 N   0  0  0  0  0  0  0  0  0  0  0  0
    5.2655  -11.2189  -10.7253 C   0  0  0  0  0  0  0  0  0  0  0  0
   13.2212   -6.0647  -12.8756 O   0  0  0  0  0  0  0  0  0  0  0  0
   11.9159   -5.6204  -12.7119 C   0  0  0  0  0  0  0  0  0  0  0  0
    7.8376   -4.4321  -12.2490 N   0  0  0  0  0  0  0  0  0  0  0  0
   11.5775   -4.1537  -12.7464 C   0  0  0  0  0  0  0  0  0  0  0  0
    8.2510   -6.6385  -12.1674 N   0  0  0  0  0  0  0  0  0  0  0  0
   10.2358   -3.6713  -12.6081 C   0  0  0  0  0  0  0  0  0  0  0  0
    5.8676   -5.9172  -11.8930 N   0  0  0  0  0  0  0  0  0  0  0  0
    9.2102   -4.6636  -12.4162 C   0  0  0  0  0  0  0  0  0  0  0  0
   12.3726  -10.6892  -11.9558 N   0  0  0  0  0  0  0  0  0  0  0  0
    9.5217   -6.0670  -12.3659 C   0  0  0  0  0  0  0  0  0  0  0  0
   10.9292   -6.5240  -12.5261 C   0  0  0  0  0  0  0  0  0  0  0  0
    7.2632   -5.6615  -12.1041 C   0  0  0  0  0  0  0  0  0  0  0  0
   11.2368   -8.0091  -12.4798 C   0  0  0  0  0  0  0  0  0  0  0  0
   12.7192   -8.3614  -12.4170 C   0  0  1  0  0  0  0  0  0  0  0  0
   13.5857   -7.1697  -12.1259 C   0  0  0  0  0  0  0  0  0  0  0  0
   12.9478   -9.4741  -11.4051 C   0  0  0  0  0  0  0  0  0  0  0  0
    7.9901   -8.0901  -12.1218 C   0  0  0  0  0  0  0  0  0  0  0  0
   13.3580  -11.3119  -12.8292 C   0  0  0  0  0  0  0  0  0  0  0  0
   12.0735  -11.5749  -10.8415 C   0  0  0  0  0  0  0  0  0  0  0  0
    7.8364   -8.6897  -10.7134 C   0  0  0  0  0  0  0  0  0  0  0  0
    7.4164  -10.1645  -10.8577 C   0  0  0  0  0  0  0  0  0  0  0  0
    6.2068  -10.8111  -12.8481 C   0  0  0  0  0  0  0  0  0  0  0  0
  1 23  1  0  0  0  0
  1 24  1  0  0  0  0
  1  2  1  0  0  0  0
  3  4  1  0  0  0  0
  3 17  1  0  0  0  0
  4  6  2  0  0  0  0
  4 13  1  0  0  0  0
  5 10  1  0  0  0  0
  5 14  2  0  0  0  0
  6  8  1  0  0  0  0
  7 12  1  0  0  0  0
  7 14  1  0  0  0  0
  7 19  1  0  0  0  0
  8 10  2  0  0  0  0
  9 14  1  0  0  0  0
 10 12  1  0  0  0  0
 11 18  1  0  0  0  0
 11 20  1  0  0  0  0
 11 21  1  0  0  0  0
 12 13  2  0  0  0  0
 13 15  1  0  0  0  0
 15 16  1  0  0  0  0
 16 17  1  0  0  0  0
 16 18  1  1  0  0  0
 19 22  1  0  0  0  0
 22 23  1  0  0  0  0
M  END
>  <CHROM.1>
-132.05290624,100.47718749,84.95113423,69.76226065,173.77228443,-64.16359997
9.78107750,-7.86005442,-12.04329718,-2.84274189,0.09132772,-0.14533635

>  <Name>
ligand

>  <RI>
0

>  <Rbt.Current_Directory>
/home/itssahil/PROJECTS/Mol_Feturizer/New_Systems/rnas/3TZR

>  <Rbt.Executable>
rbdock ($Id: //depot/dev/client3/rdock/2013.1/src/exe/rbdock.cxx#4 $)

>  <Rbt.Library>
libRbt.so (2013.1, Build901 2013/11/27)

>  <Rbt.Parameter_File>
/export/apps/rDock/src/rDock_2013.1_src/data/scripts/dock_solv.prm

>  <Rbt.Receptor>
prm/pocket_docking_5.prm

>  <SCORE>
-36.2595

>  <SCORE.INTER>
-25.2911

>  <SCORE.INTER.CONST>
1

>  <SCORE.INTER.POLAR>
0

>  <SCORE.INTER.ROT>
6

>  <SCORE.INTER.SOLV>
21.1214

>  <SCORE.INTER.VDW>
-31.5012

>  <SCORE.INTER.norm>
-1.0538

>  <SCORE.INTRA>
-10.9683

>  <SCORE.INTRA.DIHEDRAL>
-0.0044696

>  <SCORE.INTRA.DIHEDRAL.0>
4.94008

>  <SCORE.INTRA.POLAR>
0

>  <SCORE.INTRA.POLAR.0>
0

>  <SCORE.INTRA.REPUL>
0

>  <SCORE.INTRA.REPUL.0>
0

>  <SCORE.INTRA.SOLV>
0.301492

>  <SCORE.INTRA.SOLV.lig_0>
-31.4704

>  <SCORE.INTRA.VDW>
-11.1169

>  <SCORE.INTRA.VDW.0>
10.2807

>  <SCORE.INTRA.norm>
-0.457014

>  <SCORE.RESTR>
0

>  <SCORE.RESTR.CAVITY>
0

>  <SCORE.RESTR.norm>
0

>  <SCORE.SYSTEM>
0

>  <SCORE.SYSTEM.CONST>
0

>  <SCORE.SYSTEM.DIHEDRAL>
0

>  <SCORE.SYSTEM.SOLV>
0

>  <SCORE.SYSTEM.norm>
0

>  <SCORE.heavy>
24

>  <SCORE.norm>
-1.51081

>  <RMSD>
1.268

$$$$
ligand
 OpenBabel11021811493D
libRbt.so/2013.1/901 2013/11/27
 24 26  0  0  0  0  0  0  0  0999 V2000
    6.0691  -10.2814  -11.4719 N   0  0  0  0  0  0  0  0  0  0  0  0
    5.2288  -11.1924  -10.7113 C   0  0  0  0  0  0  0  0  0  0  0  0
   13.2136   -6.0619  -12.9261 O   0  0  0  0  0  0  0  0  0  0  0  0
   11.9087   -5.6169  -12.7613 C   0  0  0  0  0  0  0  0  0  0  0  0
    7.8316   -4.4274  -12.2919 N   0  0  0  0  0  0  0  0  0  0  0  0
   11.5679   -4.1514  -12.8165 C   0  0  0  0  0  0  0  0  0  0  0  0
    8.2488   -6.6316  -12.1786 N   0  0  0  0  0  0  0  0  0  0  0  0
   10.2264   -3.6688  -12.6774 C   0  0  0  0  0  0  0  0  0  0  0  0
    5.8659   -5.9095  -11.9008 N   0  0  0  0  0  0  0  0  0  0  0  0
    9.2034   -4.6595  -12.4639 C   0  0  0  0  0  0  0  0  0  0  0  0
   12.4295  -10.6849  -11.9545 N   0  0  0  0  0  0  0  0  0  0  0  0
    9.5173   -6.0615  -12.3937 C   0  0  0  0  0  0  0  0  0  0  0  0
   10.9245   -6.5189  -12.5555 C   0  0  0  0  0  0  0  0  0  0  0  0
    7.2598   -5.6551  -12.1245 C   0  0  0  0  0  0  0  0  0  0  0  0
   11.2347   -8.0026  -12.4880 C   0  0  0  0  0  0  0  0  0  0  0  0
   12.7179   -8.3519  -12.4289 C   0  0  1  0  0  0  0  0  0  0  0  0
   13.5844   -7.1545  -12.1616 C   0  0  0  0  0  0  0  0  0  0  0  0
   12.9544   -9.4484  -11.4013 C   0  0  0  0  0  0  0  0  0  0  0  0
    7.9904   -8.0827  -12.1090 C   0  0  0  0  0  0  0  0  0  0  0  0
   13.4532  -11.2833  -12.8006 C   0  0  0  0  0  0  0  0  0  0  0  0
   12.1330  -11.5711  -10.8398 C   0  0  0  0  0  0  0  0  0  0  0  0
    7.7881   -8.6504  -10.6935 C   0  0  0  0  0  0  0  0  0  0  0  0
    7.3770  -10.1295  -10.8186 C   0  0  0  0  0  0  0  0  0  0  0  0
    6.2107  -10.8159  -12.8215 C   0  0  0  0  0  0  0  0  0  0  0  0
  1 23  1  0  0  0  0
  1 24  1  0  0  0  0
  1  2  1  0  0  0  0
  3  4  1  0  0  0  0
  3 17  1  0  0  0  0
  4  6  2  0  0  0  0
  4 13  1  0  0  0  0
  5 10  1  0  0  0  0
  5 14  2  0  0  0  0
  6  8  1  0  0  0  0
  7 12  1  0  0  0  0
  7 14  1  0  0  0  0
  7 19  1  0  0  0  0
  8 10  2  0  0  0  0
  9 14  1  0  0  0  0
 10 12  1  0  0  0  0
 11 18  1  0  0  0  0
 11 20  1  0  0  0  0
 11 21  1  0  0  0  0
 12 13  2  0  0  0  0
 13 15  1  0  0  0  0
 15 16  1  0  0  0  0
 16 17  1  0  0  0  0
 16 18  1  1  0  0  0
 19 22  1  0  0  0  0
 22 23  1  0  0  0  0
M  END
>  <CHROM.1>
-132.15556531,102.90926419,84.78962689,72.19624992,173.74789322,-65.07511407
9.78187253,-7.84868121,-12.05508634,-2.87115416,0.09495294,-0.15633712

>  <Name>
ligand

>  <RI>
0

>  <Rbt.Current_Directory>
/home/itssahil/PROJECTS/Mol_Feturizer/New_Systems/rnas/3TZR

>  <Rbt.Executable>
rbdock ($Id: //depot/dev/client3/rdock/2013.1/src/exe/rbdock.cxx#4 $)

>  <Rbt.Library>
libRbt.so (2013.1, Build901 2013/11/27)

>  <Rbt.Parameter_File>
/export/apps/rDock/src/rDock_2013.1_src/data/scripts/dock_solv.prm

>  <Rbt.Receptor>
prm/blind_docking_100.prm

>  <SCORE>
-36.2407

>  <SCORE.INTER>
-25.4108

>  <SCORE.INTER.CONST>
1

>  <SCORE.INTER.POLAR>
0

>  <SCORE.INTER.ROT>
6

>  <SCORE.INTER.SOLV>
21.1917

>  <SCORE.INTER.VDW>
-31.6045

>  <SCORE.INTER.norm>
-1.05878

>  <SCORE.INTRA>
-10.8298

>  <SCORE.INTRA.DIHEDRAL>
0.180155

>  <SCORE.INTRA.DIHEDRAL.0>
4.94008

>  <SCORE.INTRA.POLAR>
0

>  <SCORE.INTRA.POLAR.0>
0

>  <SCORE.INTRA.REPUL>
0

>  <SCORE.INTRA.REPUL.0>
0

>  <SCORE.INTRA.SOLV>
0.371538

>  <SCORE.INTRA.SOLV.lig_0>
-31.4704

>  <SCORE.INTRA.VDW>
-11.1057

>  <SCORE.INTRA.VDW.0>
10.2807

>  <SCORE.INTRA.norm>
-0.451243

>  <SCORE.RESTR>
0

>  <SCORE.RESTR.CAVITY>
0

>  <SCORE.RESTR.norm>
0

>  <SCORE.SYSTEM>
0

>  <SCORE.SYSTEM.CONST>
0

>  <SCORE.SYSTEM.DIHEDRAL>
0

>  <SCORE.SYSTEM.SOLV>
0

>  <SCORE.SYSTEM.norm>
0

>  <SCORE.heavy>
24

>  <SCORE.norm>
-1.51003

>  <RMSD>
1.272

$$$$
ligand
 OpenBabel11021811493D
libRbt.so/2013.1/901 2013/11/27
 24 26  0  0  0  0  0  0  0  0999 V2000
    6.0742  -10.2392  -11.4636 N   0  0  0  0  0  0  0  0  0  0  0  0
    5.2202  -11.1319  -10.6968 C   0  0  0  0  0  0  0  0  0  0  0  0
   13.2268   -6.0543  -12.9115 O   0  0  0  0  0  0  0  0  0  0  0  0
   11.9220   -5.6099  -12.7445 C   0  0  0  0  0  0  0  0  0  0  0  0
    7.8450   -4.4219  -12.2696 N   0  0  0  0  0  0  0  0  0  0  0  0
   11.5820   -4.1439  -12.7884 C   0  0  0  0  0  0  0  0  0  0  0  0
    8.2609   -6.6272  -12.1733 N   0  0  0  0  0  0  0  0  0  0  0  0
   10.2405   -3.6616  -12.6468 C   0  0  0  0  0  0  0  0  0  0  0  0
    5.8782   -5.9061  -11.8921 N   0  0  0  0  0  0  0  0  0  0  0  0
    9.2168   -4.6534  -12.4421 C   0  0  0  0  0  0  0  0  0  0  0  0
   12.5583  -10.7053  -12.0271 N   0  0  0  0  0  0  0  0  0  0  0  0
    9.5300   -6.0561  -12.3827 C   0  0  0  0  0  0  0  0  0  0  0  0
   10.9371   -6.5130  -12.5467 C   0  0  0  0  0  0  0  0  0  0  0  0
    7.2724   -5.6507  -12.1124 C   0  0  0  0  0  0  0  0  0  0  0  0
   11.2464   -7.9974  -12.4906 C   0  0  0  0  0  0  0  0  0  0  0  0
   12.7294   -8.3479  -12.4328 C   0  0  1  0  0  0  0  0  0  0  0  0
   13.5962   -7.1531  -12.1552 C   0  0  0  0  0  0  0  0  0  0  0  0
   12.9643   -9.4525  -11.4136 C   0  0  0  0  0  0  0  0  0  0  0  0
    8.0017   -8.0787  -12.1153 C   0  0  0  0  0  0  0  0  0  0  0  0
   13.6829  -11.2325  -12.7881 C   0  0  0  0  0  0  0  0  0  0  0  0
   12.2153  -11.6260  -10.9546 C   0  0  0  0  0  0  0  0  0  0  0  0
    7.8548   -8.6675  -10.7016 C   0  0  0  0  0  0  0  0  0  0  0  0
    7.3970  -10.1323  -10.8318 C   0  0  0  0  0  0  0  0  0  0  0  0
    6.1768  -10.7649  -12.8203 C   0  0  0  0  0  0  0  0  0  0  0  0
  1 23  1  0  0  0  0
  1 24  1  0  0  0  0
  1  2  1  0  0  0  0
  3  4  1  0  0  0  0
  3 17  1  0  0  0  0
  4  6  2  0  0  0  0
  4 13  1  0  0  0  0
  5 10  1  0  0  0  0
  5 14  2  0  0  0  0
  6  8  1  0  0  0  0
  7 12  1  0  0  0  0
  7 14  1  0  0  0  0
  7 19  1  0  0  0  0
  8 10  2  0  0  0  0
  9 14  1  0  0  0  0
 10 12  1  0  0  0  0
 11 18  1  0  0  0  0
 11 20  1  0  0  0  0
 11 21  1  0  0  0  0
 12 13  2  0  0  0  0
 13 15  1  0  0  0  0
 15 16  1  0  0  0  0
 16 17  1  0  0  0  0
 16 18  1  1  0  0  0
 19 22  1  0  0  0  0
 22 23  1  0  0  0  0
M  END
>  <CHROM.1>
-132.19991043,100.51869024,86.00394782,77.60436700,172.19451873,-63.08773820
9.81172901,-7.84068650,-12.05651981,-2.93939815,0.09773567,-0.15047485

>  <Name>
ligand

>  <RI>
0

>  <Rbt.Current_Directory>
/home/itssahil/PROJECTS/Mol_Feturizer/New_Systems/rnas/3TZR

>  <Rbt.Executable>
rbdock ($Id: //depot/dev/client3/rdock/2013.1/src/exe/rbdock.cxx#4 $)

>  <Rbt.Library>
libRbt.so (2013.1, Build901 2013/11/27)

>  <Rbt.Parameter_File>
/export/apps/rDock/src/rDock_2013.1_src/data/scripts/dock_solv.prm

>  <Rbt.Receptor>
prm/blind_docking_80.prm

>  <SCORE>
-36.1519

>  <SCORE.INTER>
-25.5551

>  <SCORE.INTER.CONST>
1

>  <SCORE.INTER.POLAR>
0

>  <SCORE.INTER.ROT>
6

>  <SCORE.INTER.SOLV>
21.208

>  <SCORE.INTER.VDW>
-31.7061

>  <SCORE.INTER.norm>
-1.0648

>  <SCORE.INTRA>
-10.5968

>  <SCORE.INTRA.DIHEDRAL>
0.780968

>  <SCORE.INTRA.DIHEDRAL.0>
4.94008

>  <SCORE.INTRA.POLAR>
0

>  <SCORE.INTRA.POLAR.0>
0

>  <SCORE.INTRA.REPUL>
0

>  <SCORE.INTRA.REPUL.0>
0

>  <SCORE.INTRA.SOLV>
0.364203

>  <SCORE.INTRA.SOLV.lig_0>
-31.4704

>  <SCORE.INTRA.VDW>
-11.1694

>  <SCORE.INTRA.VDW.0>
10.2807

>  <SCORE.INTRA.norm>
-0.441532

>  <SCORE.RESTR>
0

>  <SCORE.RESTR.CAVITY>
0

>  <SCORE.RESTR.norm>
0

>  <SCORE.SYSTEM>
0

>  <SCORE.SYSTEM.CONST>
0

>  <SCORE.SYSTEM.DIHEDRAL>
0

>  <SCORE.SYSTEM.SOLV>
0

>  <SCORE.SYSTEM.norm>
0

>  <SCORE.heavy>
24

>  <SCORE.norm>
-1.50633

>  <RMSD>
1.272

$$$$
ligand
 OpenBabel11021811493D
libRbt.so/2013.1/901 2013/11/27
 24 26  0  0  0  0  0  0  0  0999 V2000
    6.1080  -10.2939  -11.3874 N   0  0  0  0  0  0  0  0  0  0  0  0
    5.3550  -11.2937  -10.6472 C   0  0  0  0  0  0  0  0  0  0  0  0
   13.2207   -6.0213  -12.9019 O   0  0  0  0  0  0  0  0  0  0  0  0
   11.9120   -5.5862  -12.7415 C   0  0  0  0  0  0  0  0  0  0  0  0
    7.8244   -4.4272  -12.2864 N   0  0  0  0  0  0  0  0  0  0  0  0
   11.5607   -4.1232  -12.7957 C   0  0  0  0  0  0  0  0  0  0  0  0
    8.2573   -6.6286  -12.1751 N   0  0  0  0  0  0  0  0  0  0  0  0
   10.2151   -3.6506  -12.6611 C   0  0  0  0  0  0  0  0  0  0  0  0
    5.8682   -5.9244  -11.9055 N   0  0  0  0  0  0  0  0  0  0  0  0
    9.1986   -4.6491  -12.4533 C   0  0  0  0  0  0  0  0  0  0  0  0
   12.4655  -10.6514  -11.9404 N   0  0  0  0  0  0  0  0  0  0  0  0
    9.5225   -6.0488  -12.3842 C   0  0  0  0  0  0  0  0  0  0  0  0
   10.9336   -6.4957  -12.5411 C   0  0  0  0  0  0  0  0  0  0  0  0
    7.2610   -5.6594  -12.1232 C   0  0  0  0  0  0  0  0  0  0  0  0
   11.2543   -7.9772  -12.4748 C   0  0  0  0  0  0  0  0  0  0  0  0
   12.7398   -8.3157  -12.4103 C   0  0  1  0  0  0  0  0  0  0  0  0
   13.5965   -7.1125  -12.1377 C   0  0  0  0  0  0  0  0  0  0  0  0
   12.9803   -9.4122  -11.3836 C   0  0  0  0  0  0  0  0  0  0  0  0
    8.0092   -8.0816  -12.1088 C   0  0  0  0  0  0  0  0  0  0  0  0
   13.4975  -11.2437  -12.7807 C   0  0  0  0  0  0  0  0  0  0  0  0
   12.1673  -11.5396  -10.8279 C   0  0  0  0  0  0  0  0  0  0  0  0
    7.8619   -8.6626  -10.6919 C   0  0  0  0  0  0  0  0  0  0  0  0
    7.4532  -10.1425  -10.8149 C   0  0  0  0  0  0  0  0  0  0  0  0
    6.1709  -10.7153  -12.7824 C   0  0  0  0  0  0  0  0  0  0  0  0
  1 23  1  0  0  0  0
  1 24  1  0  0  0  0
  1  2  1  0  0  0  0
  3  4  1  0  0  0  0
  3 17  1  0  0  0  0
  4  6  2  0  0  0  0
  4 13  1  0  0  0  0
  5 10  1  0  0  0  0
  5 14  2  0  0  0  0
  6  8  1  0  0  0  0
  7 12  1  0  0  0  0
  7 14  1  0  0  0  0
  7 19  1  0  0  0  0
  8 10  2  0  0  0  0
  9 14  1  0  0  0  0
 10 12  1  0  0  0  0
 11 18  1  0  0  0  0
 11 20  1  0  0  0  0
 11 21  1  0  0  0  0
 12 13  2  0  0  0  0
 13 15  1  0  0  0  0
 15 16  1  0  0  0  0
 16 17  1  0  0  0  0
 16 18  1  1  0  0  0
 19 22  1  0  0  0  0
 22 23  1  0  0  0  0
M  END
>  <CHROM.1>
-136.19498455,100.54778690,84.96717451,72.14549038,173.70880808,-66.61779750
9.80356559,-7.83385331,-12.03658492,-2.85840338,0.09370901,-0.16211284

>  <Name>
ligand

>  <RI>
144

>  <Rbt.Current_Directory>
/home/itssahil/PROJECTS/Mol_Feturizer/New_Systems/rnas/3TZR

>  <Rbt.Executable>
rbdock ($Id: //depot/dev/client3/rdock/2013.1/src/exe/rbdock.cxx#4 $)

>  <Rbt.Library>
libRbt.so (2013.1, Build901 2013/11/27)

>  <Rbt.Parameter_File>
/export/apps/rDock/src/rDock_2013.1_src/data/scripts/dock_solv.prm

>  <Rbt.Receptor>
prm/pocket_docking_8.prm

>  <SCORE>
-36.3

>  <SCORE.INTER>
-25.436

>  <SCORE.INTER.CONST>
1

>  <SCORE.INTER.POLAR>
0

>  <SCORE.INTER.ROT>
6

>  <SCORE.INTER.SOLV>
21.1505

>  <SCORE.INTER.VDW>
-31.6075

>  <SCORE.INTER.norm>
-1.05983

>  <SCORE.INTRA>
-10.864

>  <SCORE.INTRA.DIHEDRAL>
0.0928006

>  <SCORE.INTRA.DIHEDRAL.0>
4.94008

>  <SCORE.INTRA.POLAR>
0

>  <SCORE.INTRA.POLAR.0>
0

>  <SCORE.INTRA.REPUL>
0

>  <SCORE.INTRA.REPUL.0>
0

>  <SCORE.INTRA.SOLV>
0.295684

>  <SCORE.INTRA.SOLV.lig_0>
-31.4704

>  <SCORE.INTRA.VDW>
-11.0582

>  <SCORE.INTRA.VDW.0>
10.2807

>  <SCORE.INTRA.norm>
-0.452667

>  <SCORE.RESTR>
0

>  <SCORE.RESTR.CAVITY>
0

>  <SCORE.RESTR.norm>
0

>  <SCORE.SYSTEM>
0

>  <SCORE.SYSTEM.CONST>
0

>  <SCORE.SYSTEM.DIHEDRAL>
0

>  <SCORE.SYSTEM.SOLV>
0

>  <SCORE.SYSTEM.norm>
0

>  <SCORE.heavy>
24

>  <SCORE.norm>
-1.5125

>  <RMSD>
1.272

$$$$
ligand
 OpenBabel11021811493D
libRbt.so/2013.1/901 2013/11/27
 24 26  0  0  0  0  0  0  0  0999 V2000
    6.0939  -10.3161  -11.4902 N   0  0  0  0  0  0  0  0  0  0  0  0
    5.2524  -11.2280  -10.7323 C   0  0  0  0  0  0  0  0  0  0  0  0
   13.1933   -6.0212  -12.9071 O   0  0  0  0  0  0  0  0  0  0  0  0
   11.8840   -5.5892  -12.7437 C   0  0  0  0  0  0  0  0  0  0  0  0
    7.7947   -4.4398  -12.2791 N   0  0  0  0  0  0  0  0  0  0  0  0
   11.5294   -4.1268  -12.7947 C   0  0  0  0  0  0  0  0  0  0  0  0
    8.2325   -6.6404  -12.1723 N   0  0  0  0  0  0  0  0  0  0  0  0
   10.1830   -3.6574  -12.6569 C   0  0  0  0  0  0  0  0  0  0  0  0
    5.8424   -5.9418  -11.8972 N   0  0  0  0  0  0  0  0  0  0  0  0
    9.1690   -4.6584  -12.4489 C   0  0  0  0  0  0  0  0  0  0  0  0
   12.5327  -10.6694  -11.9878 N   0  0  0  0  0  0  0  0  0  0  0  0
    9.4961   -6.0576  -12.3828 C   0  0  0  0  0  0  0  0  0  0  0  0
   10.9079   -6.5012  -12.5429 C   0  0  0  0  0  0  0  0  0  0  0  0
    7.2343   -5.6735  -12.1170 C   0  0  0  0  0  0  0  0  0  0  0  0
   11.2319   -7.9821  -12.4798 C   0  0  0  0  0  0  0  0  0  0  0  0
   12.7182   -8.3175  -12.4186 C   0  0  1  0  0  0  0  0  0  0  0  0
   13.5728   -7.1129  -12.1455 C   0  0  0  0  0  0  0  0  0  0  0  0
   12.9629   -9.4151  -11.3942 C   0  0  0  0  0  0  0  0  0  0  0  0
    7.9877   -8.0941  -12.1081 C   0  0  0  0  0  0  0  0  0  0  0  0
   13.6242  -11.1961  -12.7959 C   0  0  0  0  0  0  0  0  0  0  0  0
   12.2378  -11.5891  -10.9003 C   0  0  0  0  0  0  0  0  0  0  0  0
    7.7894   -8.6687  -10.6948 C   0  0  0  0  0  0  0  0  0  0  0  0
    7.3945  -10.1517  -10.8255 C   0  0  0  0  0  0  0  0  0  0  0  0
    6.2519  -10.8576  -12.8353 C   0  0  0  0  0  0  0  0  0  0  0  0
  1 23  1  0  0  0  0
  1 24  1  0  0  0  0
  1  2  1  0  0  0  0
  3  4  1  0  0  0  0
  3 17  1  0  0  0  0
  4  6  2  0  0  0  0
  4 13  1  0  0  0  0
  5 10  1  0  0  0  0
  5 14  2  0  0  0  0
  6  8  1  0  0  0  0
  7 12  1  0  0  0  0
  7 14  1  0  0  0  0
  7 19  1  0  0  0  0
  8 10  2  0  0  0  0
  9 14  1  0  0  0  0
 10 12  1  0  0  0  0
 11 18  1  0  0  0  0
 11 20  1  0  0  0  0
 11 21  1  0  0  0  0
 12 13  2  0  0  0  0
 13 15  1  0  0  0  0
 15 16  1  0  0  0  0
 16 17  1  0  0  0  0
 16 18  1  1  0  0  0
 19 22  1  0  0  0  0
 22 23  1  0  0  0  0
M  END
>  <CHROM.1>
-131.68005024,102.84234111,84.46140826,75.92703283,173.83844793,-64.65625310
9.79167170,-7.84444114,-12.05422935,-2.89978174,0.09247563,-0.15199561

>  <Name>
ligand

>  <RI>
0

>  <Rbt.Current_Directory>
/home/itssahil/PROJECTS/Mol_Feturizer/New_Systems/rnas/3TZR

>  <Rbt.Executable>
rbdock ($Id: //depot/dev/client3/rdock/2013.1/src/exe/rbdock.cxx#4 $)

>  <Rbt.Library>
libRbt.so (2013.1, Build901 2013/11/27)

>  <Rbt.Parameter_File>
/export/apps/rDock/src/rDock_2013.1_src/data/scripts/dock_solv.prm

>  <Rbt.Receptor>
prm/pocket_docking_4.prm

>  <SCORE>
-36.1587

>  <SCORE.INTER>
-25.4679

>  <SCORE.INTER.CONST>
1

>  <SCORE.INTER.POLAR>
0

>  <SCORE.INTER.ROT>
6

>  <SCORE.INTER.SOLV>
21.0113

>  <SCORE.INTER.VDW>
-31.5824

>  <SCORE.INTER.norm>
-1.06116

>  <SCORE.INTRA>
-10.6907

>  <SCORE.INTRA.DIHEDRAL>
0.489092

>  <SCORE.INTRA.DIHEDRAL.0>
4.94008

>  <SCORE.INTRA.POLAR>
0

>  <SCORE.INTRA.POLAR.0>
0

>  <SCORE.INTRA.REPUL>
0

>  <SCORE.INTRA.REPUL.0>
0

>  <SCORE.INTRA.SOLV>
0.361357

>  <SCORE.INTRA.SOLV.lig_0>
-31.4704

>  <SCORE.INTRA.VDW>
-11.1159

>  <SCORE.INTRA.VDW.0>
10.2807

>  <SCORE.INTRA.norm>
-0.445447

>  <SCORE.RESTR>
0

>  <SCORE.RESTR.CAVITY>
0

>  <SCORE.RESTR.norm>
0

>  <SCORE.SYSTEM>
0

>  <SCORE.SYSTEM.CONST>
0

>  <SCORE.SYSTEM.DIHEDRAL>
0

>  <SCORE.SYSTEM.SOLV>
0

>  <SCORE.SYSTEM.norm>
0

>  <SCORE.heavy>
24

>  <SCORE.norm>
-1.50661

>  <RMSD>
1.273

$$$$
ligand
 OpenBabel11021811493D
libRbt.so/2013.1/901 2013/11/27
 24 26  0  0  0  0  0  0  0  0999 V2000
    7.5379  -10.5931  -10.9502 N   0  0  0  0  0  0  0  0  0  0  0  0
    6.4123  -11.3285  -11.5039 C   0  0  0  0  0  0  0  0  0  0  0  0
   13.8916   -8.1359  -13.1977 O   0  0  0  0  0  0  0  0  0  0  0  0
   12.9359   -7.1649  -12.9303 C   0  0  0  0  0  0  0  0  0  0  0  0
    9.8571   -4.3099  -12.1373 N   0  0  0  0  0  0  0  0  0  0  0  0
   13.2740   -5.6986  -12.9789 C   0  0  0  0  0  0  0  0  0  0  0  0
    9.2658   -6.4740  -12.0261 N   0  0  0  0  0  0  0  0  0  0  0  0
   12.3000   -4.6770  -12.7346 C   0  0  0  0  0  0  0  0  0  0  0  0
    7.4786   -4.7814  -11.5596 N   0  0  0  0  0  0  0  0  0  0  0  0
   10.9661   -5.1194  -12.4207 C   0  0  0  0  0  0  0  0  0  0  0  0
   13.2931  -12.1108  -11.8764 N   0  0  0  0  0  0  0  0  0  0  0  0
   10.6332   -6.5172  -12.3559 C   0  0  0  0  0  0  0  0  0  0  0  0
   11.6752   -7.5447  -12.6286 C   0  0  0  0  0  0  0  0  0  0  0  0
    8.8179   -5.1630  -11.9037 C   0  0  0  0  0  0  0  0  0  0  0  0
   11.3026   -9.0141  -12.5649 C   0  0  0  0  0  0  0  0  0  0  0  0
   12.4784   -9.9833  -12.6256 C   0  0  1  0  0  0  0  0  0  0  0  0
   13.8033   -9.2978  -12.4505 C   0  0  0  0  0  0  0  0  0  0  0  0
   12.2900  -11.0955  -11.6051 C   0  0  0  0  0  0  0  0  0  0  0  0
    8.3998   -7.6634  -11.9128 C   0  0  0  0  0  0  0  0  0  0  0  0
   13.4899  -12.9000  -10.6680 C   0  0  0  0  0  0  0  0  0  0  0  0
   12.7792  -12.9596  -12.9399 C   0  0  0  0  0  0  0  0  0  0  0  0
    8.2665   -8.2511  -10.4973 C   0  0  0  0  0  0  0  0  0  0  0  0
    7.1051   -9.2626  -10.4998 C   0  0  0  0  0  0  0  0  0  0  0  0
    8.0890  -11.3718   -9.8468 C   0  0  0  0  0  0  0  0  0  0  0  0
  1 23  1  0  0  0  0
  1 24  1  0  0  0  0
  1  2  1  0  0  0  0
  3  4  1  0  0  0  0
  3 17  1  0  0  0  0
  4  6  2  0  0  0  0
  4 13  1  0  0  0  0
  5 10  1  0  0  0  0
  5 14  2  0  0  0  0
  6  8  1  0  0  0  0
  7 12  1  0  0  0  0
  7 14  1  0  0  0  0
  7 19  1  0  0  0  0
  8 10  2  0  0  0  0
  9 14  1  0  0  0  0
 10 12  1  0  0  0  0
 11 18  1  0  0  0  0
 11 20  1  0  0  0  0
 11 21  1  0  0  0  0
 12 13  2  0  0  0  0
 13 15  1  0  0  0  0
 15 16  1  0  0  0  0
 16 17  1  0  0  0  0
 16 18  1  1  0  0  0
 19 22  1  0  0  0  0
 22 23  1  0  0  0  0
M  END
>  <CHROM.1>
-154.75930827,93.54665101,158.33841009,169.48519035,167.42481782,84.85293795
10.65316689,-8.53614148,-11.92089592,1.10183849,-0.26296787,2.98226766

>  <Name>
ligand

>  <RI>
0

>  <Rbt.Current_Directory>
/home/itssahil/PROJECTS/Mol_Feturizer/New_Systems/rnas/3TZR

>  <Rbt.Executable>
rbdock ($Id: //depot/dev/client3/rdock/2013.1/src/exe/rbdock.cxx#4 $)

>  <Rbt.Library>
libRbt.so (2013.1, Build901 2013/11/27)

>  <Rbt.Parameter_File>
/export/apps/rDock/src/rDock_2013.1_src/data/scripts/dock_solv.prm

>  <Rbt.Receptor>
prm/pocket_docking_5.prm

>  <SCORE>
-33.6619

>  <SCORE.INTER>
-23.4652

>  <SCORE.INTER.CONST>
1

>  <SCORE.INTER.POLAR>
0

>  <SCORE.INTER.ROT>
6

>  <SCORE.INTER.SOLV>
19.9253

>  <SCORE.INTER.VDW>
-29.8852

>  <SCORE.INTER.norm>
-0.977717

>  <SCORE.INTRA>
-10.1967

>  <SCORE.INTRA.DIHEDRAL>
1.10909

>  <SCORE.INTRA.DIHEDRAL.0>
4.94008

>  <SCORE.INTRA.POLAR>
0

>  <SCORE.INTRA.POLAR.0>
0

>  <SCORE.INTRA.REPUL>
0

>  <SCORE.INTRA.REPUL.0>
0

>  <SCORE.INTRA.SOLV>
0.241328

>  <SCORE.INTRA.SOLV.lig_0>
-31.4704

>  <SCORE.INTRA.VDW>
-10.8719

>  <SCORE.INTRA.VDW.0>
10.2807

>  <SCORE.INTRA.norm>
-0.424862

>  <SCORE.RESTR>
0

>  <SCORE.RESTR.CAVITY>
0

>  <SCORE.RESTR.norm>
0

>  <SCORE.SYSTEM>
0

>  <SCORE.SYSTEM.CONST>
0

>  <SCORE.SYSTEM.DIHEDRAL>
0

>  <SCORE.SYSTEM.SOLV>
0

>  <SCORE.SYSTEM.norm>
0

>  <SCORE.heavy>
24

>  <SCORE.norm>
-1.40258

>  <RMSD>
1.275

$$$$
ligand
 OpenBabel11021811493D
libRbt.so/2013.1/901 2013/11/27
 24 26  0  0  0  0  0  0  0  0999 V2000
    6.0729  -10.3073  -11.4662 N   0  0  0  0  0  0  0  0  0  0  0  0
    5.2934  -11.2795  -10.7169 C   0  0  0  0  0  0  0  0  0  0  0  0
   13.2229   -6.0557  -12.8956 O   0  0  0  0  0  0  0  0  0  0  0  0
   11.9179   -5.6101  -12.7340 C   0  0  0  0  0  0  0  0  0  0  0  0
    7.8401   -4.4178  -12.2765 N   0  0  0  0  0  0  0  0  0  0  0  0
   11.5799   -4.1435  -12.7772 C   0  0  0  0  0  0  0  0  0  0  0  0
    8.2529   -6.6237  -12.1817 N   0  0  0  0  0  0  0  0  0  0  0  0
   10.2384   -3.6599  -12.6412 C   0  0  0  0  0  0  0  0  0  0  0  0
    5.8698   -5.9001  -11.9106 N   0  0  0  0  0  0  0  0  0  0  0  0
    9.2125   -4.6507  -12.4429 C   0  0  0  0  0  0  0  0  0  0  0  0
   12.3618  -10.6713  -11.9416 N   0  0  0  0  0  0  0  0  0  0  0  0
    9.5236   -6.0538  -12.3842 C   0  0  0  0  0  0  0  0  0  0  0  0
   10.9310   -6.5122  -12.5422 C   0  0  0  0  0  0  0  0  0  0  0  0
    7.2654   -5.6461  -12.1239 C   0  0  0  0  0  0  0  0  0  0  0  0
   11.2382   -7.9971  -12.4871 C   0  0  0  0  0  0  0  0  0  0  0  0
   12.7204   -8.3495  -12.4228 C   0  0  1  0  0  0  0  0  0  0  0  0
   13.5875   -7.1562  -12.1393 C   0  0  0  0  0  0  0  0  0  0  0  0
   12.9492   -9.4560  -11.4043 C   0  0  0  0  0  0  0  0  0  0  0  0
    7.9916   -8.0750  -12.1273 C   0  0  0  0  0  0  0  0  0  0  0  0
   13.3403  -11.3125  -12.8094 C   0  0  0  0  0  0  0  0  0  0  0  0
   12.0557  -11.5425  -10.8177 C   0  0  0  0  0  0  0  0  0  0  0  0
    7.7866   -8.6568  -10.7179 C   0  0  0  0  0  0  0  0  0  0  0  0
    7.4005  -10.1412  -10.8578 C   0  0  0  0  0  0  0  0  0  0  0  0
    6.1769  -10.7751  -12.8438 C   0  0  0  0  0  0  0  0  0  0  0  0
  1 23  1  0  0  0  0
  1 24  1  0  0  0  0
  1  2  1  0  0  0  0
  3  4  1  0  0  0  0
  3 17  1  0  0  0  0
  4  6  2  0  0  0  0
  4 13  1  0  0  0  0
  5 10  1  0  0  0  0
  5 14  2  0  0  0  0
  6  8  1  0  0  0  0
  7 12  1  0  0  0  0
  7 14  1  0  0  0  0
  7 19  1  0  0  0  0
  8 10  2  0  0  0  0
  9 14  1  0  0  0  0
 10 12  1  0  0  0  0
 11 18  1  0  0  0  0
 11 20  1  0  0  0  0
 11 21  1  0  0  0  0
 12 13  2  0  0  0  0
 13 15  1  0  0  0  0
 15 16  1  0  0  0  0
 16 17  1  0  0  0  0
 16 18  1  1  0  0  0
 19 22  1  0  0  0  0
 22 23  1  0  0  0  0
M  END
>  <CHROM.1>
-133.83284384,102.64435634,85.38274977,69.21463233,174.87694457,-67.75018693
9.77636145,-7.84836986,-12.05036083,-2.82231059,0.09072115,-0.15158439

>  <Name>
ligand

>  <RI>
0

>  <Rbt.Current_Directory>
/home/itssahil/PROJECTS/Mol_Feturizer/New_Systems/rnas/3TZR

>  <Rbt.Executable>
rbdock ($Id: //depot/dev/client3/rdock/2013.1/src/exe/rbdock.cxx#4 $)

>  <Rbt.Library>
libRbt.so (2013.1, Build901 2013/11/27)

>  <Rbt.Parameter_File>
/export/apps/rDock/src/rDock_2013.1_src/data/scripts/dock_solv.prm

>  <Rbt.Receptor>
prm/blind_docking_100.prm

>  <SCORE>
-36.3464

>  <SCORE.INTER>
-25.3857

>  <SCORE.INTER.CONST>
1

>  <SCORE.INTER.POLAR>
0

>  <SCORE.INTER.ROT>
6

>  <SCORE.INTER.SOLV>
21.215

>  <SCORE.INTER.VDW>
-31.5955

>  <SCORE.INTER.norm>
-1.05774

>  <SCORE.INTRA>
-10.9607

>  <SCORE.INTRA.DIHEDRAL>
0.022381

>  <SCORE.INTRA.DIHEDRAL.0>
4.94008

>  <SCORE.INTRA.POLAR>
0

>  <SCORE.INTRA.POLAR.0>
0

>  <SCORE.INTRA.REPUL>
0

>  <SCORE.INTRA.REPUL.0>
0

>  <SCORE.INTRA.SOLV>
0.342769

>  <SCORE.INTRA.SOLV.lig_0>
-31.4704

>  <SCORE.INTRA.VDW>
-11.1432

>  <SCORE.INTRA.VDW.0>
10.2807

>  <SCORE.INTRA.norm>
-0.456694

>  <SCORE.RESTR>
0

>  <SCORE.RESTR.CAVITY>
0

>  <SCORE.RESTR.norm>
0

>  <SCORE.SYSTEM>
0

>  <SCORE.SYSTEM.CONST>
0

>  <SCORE.SYSTEM.DIHEDRAL>
0

>  <SCORE.SYSTEM.SOLV>
0

>  <SCORE.SYSTEM.norm>
0

>  <SCORE.heavy>
24

>  <SCORE.norm>
-1.51443

>  <RMSD>
1.276

$$$$
ligand
 OpenBabel11021811493D
libRbt.so/2013.1/901 2013/11/27
 24 26  0  0  0  0  0  0  0  0999 V2000
    6.0828  -10.2857  -11.4798 N   0  0  0  0  0  0  0  0  0  0  0  0
    5.2413  -11.1857  -10.7078 C   0  0  0  0  0  0  0  0  0  0  0  0
   13.2259   -6.0426  -12.9191 O   0  0  0  0  0  0  0  0  0  0  0  0
   11.9197   -5.6029  -12.7505 C   0  0  0  0  0  0  0  0  0  0  0  0
    7.8391   -4.4294  -12.2705 N   0  0  0  0  0  0  0  0  0  0  0  0
   11.5743   -4.1381  -12.7948 C   0  0  0  0  0  0  0  0  0  0  0  0
    8.2632   -6.6332  -12.1735 N   0  0  0  0  0  0  0  0  0  0  0  0
   10.2314   -3.6607  -12.6515 C   0  0  0  0  0  0  0  0  0  0  0  0
    5.8783   -5.9205  -11.8893 N   0  0  0  0  0  0  0  0  0  0  0  0
    9.2116   -4.6561  -12.4448 C   0  0  0  0  0  0  0  0  0  0  0  0
   12.4014  -10.6623  -11.9541 N   0  0  0  0  0  0  0  0  0  0  0  0
    9.5299   -6.0575  -12.3850 C   0  0  0  0  0  0  0  0  0  0  0  0
   10.9384   -6.5094  -12.5507 C   0  0  0  0  0  0  0  0  0  0  0  0
    7.2713   -5.6601  -12.1118 C   0  0  0  0  0  0  0  0  0  0  0  0
   11.2532   -7.9926  -12.4943 C   0  0  0  0  0  0  0  0  0  0  0  0
   12.7375   -8.3377  -12.4383 C   0  0  1  0  0  0  0  0  0  0  0  0
   13.6004   -7.1397  -12.1627 C   0  0  0  0  0  0  0  0  0  0  0  0
   12.9779   -9.4409  -11.4189 C   0  0  0  0  0  0  0  0  0  0  0  0
    8.0093   -8.0855  -12.1143 C   0  0  0  0  0  0  0  0  0  0  0  0
   13.3642  -11.2669  -12.8648 C   0  0  0  0  0  0  0  0  0  0  0  0
   12.1553  -11.5568  -10.8339 C   0  0  0  0  0  0  0  0  0  0  0  0
    7.8118   -8.6645  -10.7028 C   0  0  0  0  0  0  0  0  0  0  0  0
    7.3975  -10.1418  -10.8384 C   0  0  0  0  0  0  0  0  0  0  0  0
    6.2084  -10.8278  -12.8280 C   0  0  0  0  0  0  0  0  0  0  0  0
  1 23  1  0  0  0  0
  1 24  1  0  0  0  0
  1  2  1  0  0  0  0
  3  4  1  0  0  0  0
  3 17  1  0  0  0  0
  4  6  2  0  0  0  0
  4 13  1  0  0  0  0
  5 10  1  0  0  0  0
  5 14  2  0  0  0  0
  6  8  1  0  0  0  0
  7 12  1  0  0  0  0
  7 14  1  0  0  0  0
  7 19  1  0  0  0  0
  8 10  2  0  0  0  0
  9 14  1  0  0  0  0
 10 12  1  0  0  0  0
 11 18  1  0  0  0  0
 11 20  1  0  0  0  0
 11 21  1  0  0  0  0
 12 13  2  0  0  0  0
 13 15  1  0  0  0  0
 15 16  1  0  0  0  0
 16 17  1  0  0  0  0
 16 18  1  1  0  0  0
 19 22  1  0  0  0  0
 22 23  1  0  0  0  0
M  END
>  <CHROM.1>
-131.20753428,102.81190875,83.10260635,69.60711125,173.44800004,-65.43758338
9.78921978,-7.84397536,-12.05537316,-2.84631430,0.09558738,-0.15102278

>  <Name>
ligand

>  <RI>
0

>  <Rbt.Current_Directory>
/home/itssahil/PROJECTS/Mol_Feturizer/New_Systems/rnas/3TZR

>  <Rbt.Executable>
rbdock ($Id: //depot/dev/client3/rdock/2013.1/src/exe/rbdock.cxx#4 $)

>  <Rbt.Library>
libRbt.so (2013.1, Build901 2013/11/27)

>  <Rbt.Parameter_File>
/export/apps/rDock/src/rDock_2013.1_src/data/scripts/dock_solv.prm

>  <Rbt.Receptor>
prm/pocket_docking_4.prm

>  <SCORE>
-36.353

>  <SCORE.INTER>
-25.4748

>  <SCORE.INTER.CONST>
1

>  <SCORE.INTER.POLAR>
0

>  <SCORE.INTER.ROT>
6

>  <SCORE.INTER.SOLV>
21.1355

>  <SCORE.INTER.VDW>
-31.6283

>  <SCORE.INTER.norm>
-1.06145

>  <SCORE.INTRA>
-10.8782

>  <SCORE.INTRA.DIHEDRAL>
-0.0396443

>  <SCORE.INTRA.DIHEDRAL.0>
4.94008

>  <SCORE.INTRA.POLAR>
0

>  <SCORE.INTRA.POLAR.0>
0

>  <SCORE.INTRA.REPUL>
0

>  <SCORE.INTRA.REPUL.0>
0

>  <SCORE.INTRA.SOLV>
0.385206

>  <SCORE.INTRA.SOLV.lig_0>
-31.4704

>  <SCORE.INTRA.VDW>
-11.0509

>  <SCORE.INTRA.VDW.0>
10.2807

>  <SCORE.INTRA.norm>
-0.453257

>  <SCORE.RESTR>
0

>  <SCORE.RESTR.CAVITY>
0

>  <SCORE.RESTR.norm>
0

>  <SCORE.SYSTEM>
0

>  <SCORE.SYSTEM.CONST>
0

>  <SCORE.SYSTEM.DIHEDRAL>
0

>  <SCORE.SYSTEM.SOLV>
0

>  <SCORE.SYSTEM.norm>
0

>  <SCORE.heavy>
24

>  <SCORE.norm>
-1.51471

>  <RMSD>
1.276

$$$$
ligand
 OpenBabel11021811493D
libRbt.so/2013.1/901 2013/11/27
 24 26  0  0  0  0  0  0  0  0999 V2000
    6.0732  -10.3069  -11.3728 N   0  0  0  0  0  0  0  0  0  0  0  0
    5.3296  -11.2903  -10.6018 C   0  0  0  0  0  0  0  0  0  0  0  0
   13.1855   -5.9885  -12.8738 O   0  0  0  0  0  0  0  0  0  0  0  0
   11.8748   -5.5582  -12.7173 C   0  0  0  0  0  0  0  0  0  0  0  0
    7.7817   -4.4141  -12.2744 N   0  0  0  0  0  0  0  0  0  0  0  0
   11.5184   -4.0963  -12.7717 C   0  0  0  0  0  0  0  0  0  0  0  0
    8.2220   -6.6139  -12.1630 N   0  0  0  0  0  0  0  0  0  0  0  0
   10.1707   -3.6286  -12.6411 C   0  0  0  0  0  0  0  0  0  0  0  0
    5.8296   -5.9184  -11.9006 N   0  0  0  0  0  0  0  0  0  0  0  0
    9.1571   -4.6309  -12.4371 C   0  0  0  0  0  0  0  0  0  0  0  0
   12.4554  -10.6242  -11.9228 N   0  0  0  0  0  0  0  0  0  0  0  0
    9.4858   -6.0295  -12.3678 C   0  0  0  0  0  0  0  0  0  0  0  0
   10.8990   -6.4713  -12.5205 C   0  0  0  0  0  0  0  0  0  0  0  0
    7.2222   -5.6483  -12.1137 C   0  0  0  0  0  0  0  0  0  0  0  0
   11.2248   -7.9517  -12.4541 C   0  0  0  0  0  0  0  0  0  0  0  0
   12.7113   -8.2849  -12.3852 C   0  0  1  0  0  0  0  0  0  0  0  0
   13.5628   -7.0788  -12.1091 C   0  0  0  0  0  0  0  0  0  0  0  0
   12.9524   -9.3811  -11.3584 C   0  0  0  0  0  0  0  0  0  0  0  0
    7.9789   -8.0679  -12.0984 C   0  0  0  0  0  0  0  0  0  0  0  0
   13.4886  -11.1869  -12.7816 C   0  0  0  0  0  0  0  0  0  0  0  0
   12.1880  -11.5301  -10.8167 C   0  0  0  0  0  0  0  0  0  0  0  0
    7.8013   -8.6457  -10.6837 C   0  0  0  0  0  0  0  0  0  0  0  0
    7.4204  -10.1325  -10.8117 C   0  0  0  0  0  0  0  0  0  0  0  0
    6.1314  -10.7658  -12.7561 C   0  0  0  0  0  0  0  0  0  0  0  0
  1 23  1  0  0  0  0
  1 24  1  0  0  0  0
  1  2  1  0  0  0  0
  3  4  1  0  0  0  0
  3 17  1  0  0  0  0
  4  6  2  0  0  0  0
  4 13  1  0  0  0  0
  5 10  1  0  0  0  0
  5 14  2  0  0  0  0
  6  8  1  0  0  0  0
  7 12  1  0  0  0  0
  7 14  1  0  0  0  0
  7 19  1  0  0  0  0
  8 10  2  0  0  0  0
  9 14  1  0  0  0  0
 10 12  1  0  0  0  0
 11 18  1  0  0  0  0
 11 20  1  0  0  0  0
 11 21  1  0  0  0  0
 12 13  2  0  0  0  0
 13 15  1  0  0  0  0
 15 16  1  0  0  0  0
 16 17  1  0  0  0  0
 16 18  1  1  0  0  0
 19 22  1  0  0  0  0
 22 23  1  0  0  0  0
M  END
>  <CHROM.1>
-134.13212902,101.71448086,83.50685173,72.67786655,174.44703846,-68.82880885
9.77205924,-7.81697695,-12.01891207,-2.85059772,0.09217743,-0.16180628

>  <Name>
ligand

>  <RI>
0

>  <Rbt.Current_Directory>
/home/itssahil/PROJECTS/Mol_Feturizer/New_Systems/rnas/3TZR

>  <Rbt.Executable>
rbdock ($Id: //depot/dev/client3/rdock/2013.1/src/exe/rbdock.cxx#4 $)

>  <Rbt.Library>
libRbt.so (2013.1, Build901 2013/11/27)

>  <Rbt.Parameter_File>
/export/apps/rDock/src/rDock_2013.1_src/data/scripts/dock_solv.prm

>  <Rbt.Receptor>
prm/blind_docking_100.prm

>  <SCORE>
-36.2501

>  <SCORE.INTER>
-25.4467

>  <SCORE.INTER.CONST>
1

>  <SCORE.INTER.POLAR>
0

>  <SCORE.INTER.ROT>
6

>  <SCORE.INTER.SOLV>
21.17

>  <SCORE.INTER.VDW>
-31.6211

>  <SCORE.INTER.norm>
-1.06028

>  <SCORE.INTRA>
-10.8034

>  <SCORE.INTRA.DIHEDRAL>
0.230362

>  <SCORE.INTRA.DIHEDRAL.0>
4.94008

>  <SCORE.INTRA.POLAR>
0

>  <SCORE.INTRA.POLAR.0>
0

>  <SCORE.INTRA.REPUL>
0

>  <SCORE.INTRA.REPUL.0>
0

>  <SCORE.INTRA.SOLV>
0.313645

>  <SCORE.INTRA.SOLV.lig_0>
-31.4704

>  <SCORE.INTRA.VDW>
-11.0754

>  <SCORE.INTRA.VDW.0>
10.2807

>  <SCORE.INTRA.norm>
-0.450143

>  <SCORE.RESTR>
0

>  <SCORE.RESTR.CAVITY>
0

>  <SCORE.RESTR.norm>
0

>  <SCORE.SYSTEM>
0

>  <SCORE.SYSTEM.CONST>
0

>  <SCORE.SYSTEM.DIHEDRAL>
0

>  <SCORE.SYSTEM.SOLV>
0

>  <SCORE.SYSTEM.norm>
0

>  <SCORE.heavy>
24

>  <SCORE.norm>
-1.51042

>  <RMSD>
1.277

$$$$
ligand
 OpenBabel11021811493D
libRbt.so/2013.1/901 2013/11/27
 24 26  0  0  0  0  0  0  0  0999 V2000
    6.0933  -10.2781  -11.4748 N   0  0  0  0  0  0  0  0  0  0  0  0
    5.2563  -11.1892  -10.7109 C   0  0  0  0  0  0  0  0  0  0  0  0
   13.2281   -6.0468  -12.9070 O   0  0  0  0  0  0  0  0  0  0  0  0
   11.9230   -5.6021  -12.7431 C   0  0  0  0  0  0  0  0  0  0  0  0
    7.8452   -4.4131  -12.2772 N   0  0  0  0  0  0  0  0  0  0  0  0
   11.5828   -4.1363  -12.7930 C   0  0  0  0  0  0  0  0  0  0  0  0
    8.2615   -6.6179  -12.1721 N   0  0  0  0  0  0  0  0  0  0  0  0
   10.2411   -3.6538  -12.6547 C   0  0  0  0  0  0  0  0  0  0  0  0
    5.8783   -5.8962  -11.8963 N   0  0  0  0  0  0  0  0  0  0  0  0
    9.2173   -4.6450  -12.4473 C   0  0  0  0  0  0  0  0  0  0  0  0
   12.3857  -10.6606  -11.9295 N   0  0  0  0  0  0  0  0  0  0  0  0
    9.5307   -6.0473  -12.3823 C   0  0  0  0  0  0  0  0  0  0  0  0
   10.9381   -6.5046  -12.5429 C   0  0  0  0  0  0  0  0  0  0  0  0
    7.2728   -5.6413  -12.1160 C   0  0  0  0  0  0  0  0  0  0  0  0
   11.2476   -7.9887  -12.4809 C   0  0  0  0  0  0  0  0  0  0  0  0
   12.7306   -8.3387  -12.4201 C   0  0  1  0  0  0  0  0  0  0  0  0
   13.5969   -7.1427  -12.1462 C   0  0  0  0  0  0  0  0  0  0  0  0
   12.9646   -9.4394  -11.3966 C   0  0  0  0  0  0  0  0  0  0  0  0
    8.0025   -8.0692  -12.1089 C   0  0  0  0  0  0  0  0  0  0  0  0
   13.3593  -11.2849  -12.8151 C   0  0  0  0  0  0  0  0  0  0  0  0
   12.1091  -11.5402  -10.8046 C   0  0  0  0  0  0  0  0  0  0  0  0
    7.8098   -8.6448  -10.6953 C   0  0  0  0  0  0  0  0  0  0  0  0
    7.4032  -10.1247  -10.8258 C   0  0  0  0  0  0  0  0  0  0  0  0
    6.2310  -10.8134  -12.8245 C   0  0  0  0  0  0  0  0  0  0  0  0
  1 23  1  0  0  0  0
  1 24  1  0  0  0  0
  1  2  1  0  0  0  0
  3  4  1  0  0  0  0
  3 17  1  0  0  0  0
  4  6  2  0  0  0  0
  4 13  1  0  0  0  0
  5 10  1  0  0  0  0
  5 14  2  0  0  0  0
  6  8  1  0  0  0  0
  7 12  1  0  0  0  0
  7 14  1  0  0  0  0
  7 19  1  0  0  0  0
  8 10  2  0  0  0  0
  9 14  1  0  0  0  0
 10 12  1  0  0  0  0
 11 18  1  0  0  0  0
 11 20  1  0  0  0  0
 11 21  1  0  0  0  0
 12 13  2  0  0  0  0
 13 15  1  0  0  0  0
 15 16  1  0  0  0  0
 16 17  1  0  0  0  0
 16 18  1  1  0  0  0
 19 22  1  0  0  0  0
 22 23  1  0  0  0  0
M  END
>  <CHROM.1>
-131.81153685,102.37835457,84.21010899,69.62667105,174.01718276,-64.98847893
9.78836488,-7.83660521,-12.04598648,-2.84106899,0.09303201,-0.15390166

>  <Name>
ligand

>  <RI>
0

>  <Rbt.Current_Directory>
/home/itssahil/PROJECTS/Mol_Feturizer/New_Systems/rnas/3TZR

>  <Rbt.Executable>
rbdock ($Id: //depot/dev/client3/rdock/2013.1/src/exe/rbdock.cxx#4 $)

>  <Rbt.Library>
libRbt.so (2013.1, Build901 2013/11/27)

>  <Rbt.Parameter_File>
/export/apps/rDock/src/rDock_2013.1_src/data/scripts/dock_solv.prm

>  <Rbt.Receptor>
prm/blind_docking_80.prm

>  <SCORE>
-36.3319

>  <SCORE.INTER>
-25.4013

>  <SCORE.INTER.CONST>
1

>  <SCORE.INTER.POLAR>
0

>  <SCORE.INTER.ROT>
6

>  <SCORE.INTER.SOLV>
21.2185

>  <SCORE.INTER.VDW>
-31.607

>  <SCORE.INTER.norm>
-1.05839

>  <SCORE.INTRA>
-10.9307

>  <SCORE.INTRA.DIHEDRAL>
-0.0374314

>  <SCORE.INTRA.DIHEDRAL.0>
4.94008

>  <SCORE.INTRA.POLAR>
0

>  <SCORE.INTRA.POLAR.0>
0

>  <SCORE.INTRA.REPUL>
0

>  <SCORE.INTRA.REPUL.0>
0

>  <SCORE.INTRA.SOLV>
0.352857

>  <SCORE.INTRA.SOLV.lig_0>
-31.4704

>  <SCORE.INTRA.VDW>
-11.0884

>  <SCORE.INTRA.VDW.0>
10.2807

>  <SCORE.INTRA.norm>
-0.455445

>  <SCORE.RESTR>
0

>  <SCORE.RESTR.CAVITY>
0

>  <SCORE.RESTR.norm>
0

>  <SCORE.SYSTEM>
0

>  <SCORE.SYSTEM.CONST>
0

>  <SCORE.SYSTEM.DIHEDRAL>
0

>  <SCORE.SYSTEM.SOLV>
0

>  <SCORE.SYSTEM.norm>
0

>  <SCORE.heavy>
24

>  <SCORE.norm>
-1.51383

>  <RMSD>
1.277

$$$$
ligand
 OpenBabel11021811493D
libRbt.so/2013.1/901 2013/11/27
 24 26  0  0  0  0  0  0  0  0999 V2000
    6.0970  -10.3308  -11.4848 N   0  0  0  0  0  0  0  0  0  0  0  0
    5.3111  -11.3085  -10.7495 C   0  0  0  0  0  0  0  0  0  0  0  0
   13.2304   -6.0426  -12.9007 O   0  0  0  0  0  0  0  0  0  0  0  0
   11.9240   -5.6020  -12.7368 C   0  0  0  0  0  0  0  0  0  0  0  0
    7.8425   -4.4256  -12.2719 N   0  0  0  0  0  0  0  0  0  0  0  0
   11.5798   -4.1370  -12.7828 C   0  0  0  0  0  0  0  0  0  0  0  0
    8.2647   -6.6296  -12.1728 N   0  0  0  0  0  0  0  0  0  0  0  0
   10.2366   -3.6586  -12.6445 C   0  0  0  0  0  0  0  0  0  0  0  0
    5.8792   -5.9152  -11.8974 N   0  0  0  0  0  0  0  0  0  0  0  0
    9.2154   -4.6532  -12.4412 C   0  0  0  0  0  0  0  0  0  0  0  0
   12.3433  -10.6464  -11.9080 N   0  0  0  0  0  0  0  0  0  0  0  0
    9.5325   -6.0549  -12.3799 C   0  0  0  0  0  0  0  0  0  0  0  0
   10.9413   -6.5078  -12.5404 C   0  0  0  0  0  0  0  0  0  0  0  0
    7.2732   -5.6558  -12.1149 C   0  0  0  0  0  0  0  0  0  0  0  0
   11.2548   -7.9912  -12.4824 C   0  0  0  0  0  0  0  0  0  0  0  0
   12.7387   -8.3373  -12.4210 C   0  0  1  0  0  0  0  0  0  0  0  0
   13.6015   -7.1398  -12.1427 C   0  0  0  0  0  0  0  0  0  0  0  0
   12.9746   -9.4404  -11.4004 C   0  0  0  0  0  0  0  0  0  0  0  0
    8.0096   -8.0817  -12.1141 C   0  0  0  0  0  0  0  0  0  0  0  0
   13.2578  -11.2878  -12.8429 C   0  0  0  0  0  0  0  0  0  0  0  0
   12.1035  -11.5246  -10.7737 C   0  0  0  0  0  0  0  0  0  0  0  0
    7.7715   -8.6542  -10.7061 C   0  0  0  0  0  0  0  0  0  0  0  0
    7.4066  -10.1442  -10.8440 C   0  0  0  0  0  0  0  0  0  0  0  0
    6.2419  -10.8053  -12.8564 C   0  0  0  0  0  0  0  0  0  0  0  0
  1 23  1  0  0  0  0
  1 24  1  0  0  0  0
  1  2  1  0  0  0  0
  3  4  1  0  0  0  0
  3 17  1  0  0  0  0
  4  6  2  0  0  0  0
  4 13  1  0  0  0  0
  5 10  1  0  0  0  0
  5 14  2  0  0  0  0
  6  8  1  0  0  0  0
  7 12  1  0  0  0  0
  7 14  1  0  0  0  0
  7 19  1  0  0  0  0
  8 10  2  0  0  0  0
  9 14  1  0  0  0  0
 10 12  1  0  0  0  0
 11 18  1  0  0  0  0
 11 20  1  0  0  0  0
 11 21  1  0  0  0  0
 12 13  2  0  0  0  0
 13 15  1  0  0  0  0
 15 16  1  0  0  0  0
 16 17  1  0  0  0  0
 16 18  1  1  0  0  0
 19 22  1  0  0  0  0
 22 23  1  0  0  0  0
M  END
>  <CHROM.1>
-133.94345748,104.28690782,83.07885779,66.91970551,175.27618988,-67.90880603
9.78494525,-7.84760126,-12.04828151,-2.79568732,0.08931072,-0.15137010

>  <Name>
ligand

>  <RI>
0

>  <Rbt.Current_Directory>
/home/itssahil/PROJECTS/Mol_Feturizer/New_Systems/rnas/3TZR

>  <Rbt.Executable>
rbdock ($Id: //depot/dev/client3/rdock/2013.1/src/exe/rbdock.cxx#4 $)

>  <Rbt.Library>
libRbt.so (2013.1, Build901 2013/11/27)

>  <Rbt.Parameter_File>
/export/apps/rDock/src/rDock_2013.1_src/data/scripts/dock_solv.prm

>  <Rbt.Receptor>
prm/pocket_docking_3.prm

>  <SCORE>
-36.2775

>  <SCORE.INTER>
-25.3759

>  <SCORE.INTER.CONST>
1

>  <SCORE.INTER.POLAR>
0

>  <SCORE.INTER.ROT>
6

>  <SCORE.INTER.SOLV>
21.0756

>  <SCORE.INTER.VDW>
-31.5425

>  <SCORE.INTER.norm>
-1.05733

>  <SCORE.INTRA>
-10.9017

>  <SCORE.INTRA.DIHEDRAL>
-0.252792

>  <SCORE.INTRA.DIHEDRAL.0>
4.94008

>  <SCORE.INTRA.POLAR>
0

>  <SCORE.INTRA.POLAR.0>
0

>  <SCORE.INTRA.REPUL>
0

>  <SCORE.INTRA.REPUL.0>
0

>  <SCORE.INTRA.SOLV>
0.388801

>  <SCORE.INTRA.SOLV.lig_0>
-31.4704

>  <SCORE.INTRA.VDW>
-10.9697

>  <SCORE.INTRA.VDW.0>
10.2807

>  <SCORE.INTRA.norm>
-0.454236

>  <SCORE.RESTR>
0

>  <SCORE.RESTR.CAVITY>
0

>  <SCORE.RESTR.norm>
0

>  <SCORE.SYSTEM>
0

>  <SCORE.SYSTEM.CONST>
0

>  <SCORE.SYSTEM.DIHEDRAL>
0

>  <SCORE.SYSTEM.SOLV>
0

>  <SCORE.SYSTEM.norm>
0

>  <SCORE.heavy>
24

>  <SCORE.norm>
-1.51156

>  <RMSD>
1.277

$$$$
ligand
 OpenBabel11021811493D
libRbt.so/2013.1/901 2013/11/27
 24 26  0  0  0  0  0  0  0  0999 V2000
    6.0833  -10.2847  -11.4338 N   0  0  0  0  0  0  0  0  0  0  0  0
    5.2785  -11.2349  -10.6831 C   0  0  0  0  0  0  0  0  0  0  0  0
   13.2235   -6.0208  -12.9059 O   0  0  0  0  0  0  0  0  0  0  0  0
   11.9139   -5.5893  -12.7433 C   0  0  0  0  0  0  0  0  0  0  0  0
    7.8239   -4.4414  -12.2815 N   0  0  0  0  0  0  0  0  0  0  0  0
   11.5587   -4.1271  -12.7957 C   0  0  0  0  0  0  0  0  0  0  0  0
    8.2627   -6.6417  -12.1728 N   0  0  0  0  0  0  0  0  0  0  0  0
   10.2120   -3.6582  -12.6588 C   0  0  0  0  0  0  0  0  0  0  0  0
    5.8721   -5.9440  -11.8993 N   0  0  0  0  0  0  0  0  0  0  0  0
    9.1984   -4.6595  -12.4505 C   0  0  0  0  0  0  0  0  0  0  0  0
   12.4818  -10.6537  -11.9475 N   0  0  0  0  0  0  0  0  0  0  0  0
    9.5261   -6.0585  -12.3831 C   0  0  0  0  0  0  0  0  0  0  0  0
   10.9382   -6.5015  -12.5423 C   0  0  0  0  0  0  0  0  0  0  0  0
    7.2640   -5.6752  -12.1187 C   0  0  0  0  0  0  0  0  0  0  0  0
   11.2628   -7.9823  -12.4779 C   0  0  0  0  0  0  0  0  0  0  0  0
   12.7493   -8.3169  -12.4157 C   0  0  1  0  0  0  0  0  0  0  0  0
   13.6032   -7.1117  -12.1432 C   0  0  0  0  0  0  0  0  0  0  0  0
   12.9940   -9.4136  -11.3903 C   0  0  0  0  0  0  0  0  0  0  0  0
    8.0185   -8.0955  -12.1075 C   0  0  0  0  0  0  0  0  0  0  0  0
   13.5122  -11.2400  -12.7938 C   0  0  0  0  0  0  0  0  0  0  0  0
   12.1923  -11.5456  -10.8357 C   0  0  0  0  0  0  0  0  0  0  0  0
    7.8355   -8.6716  -10.6928 C   0  0  0  0  0  0  0  0  0  0  0  0
    7.4123  -10.1470  -10.8213 C   0  0  0  0  0  0  0  0  0  0  0  0
    6.1813  -10.7611  -12.8089 C   0  0  0  0  0  0  0  0  0  0  0  0
  1 23  1  0  0  0  0
  1 24  1  0  0  0  0
  1  2  1  0  0  0  0
  3  4  1  0  0  0  0
  3 17  1  0  0  0  0
  4  6  2  0  0  0  0
  4 13  1  0  0  0  0
  5 10  1  0  0  0  0
  5 14  2  0  0  0  0
  6  8  1  0  0  0  0
  7 12  1  0  0  0  0
  7 14  1  0  0  0  0
  7 19  1  0  0  0  0
  8 10  2  0  0  0  0
  9 14  1  0  0  0  0
 10 12  1  0  0  0  0
 11 18  1  0  0  0  0
 11 20  1  0  0  0  0
 11 21  1  0  0  0  0
 12 13  2  0  0  0  0
 13 15  1  0  0  0  0
 15 16  1  0  0  0  0
 16 17  1  0  0  0  0
 16 18  1  1  0  0  0
 19 22  1  0  0  0  0
 22 23  1  0  0  0  0
M  END
>  <CHROM.1>
-134.10285394,102.18557270,84.75047776,72.14547625,172.74628696,-66.01832176
9.80192296,-7.83857906,-12.04316714,-2.87092038,0.09259656,-0.15822472

>  <Name>
ligand

>  <RI>
0

>  <Rbt.Current_Directory>
/home/itssahil/PROJECTS/Mol_Feturizer/New_Systems/rnas/3TZR

>  <Rbt.Executable>
rbdock ($Id: //depot/dev/client3/rdock/2013.1/src/exe/rbdock.cxx#4 $)

>  <Rbt.Library>
libRbt.so (2013.1, Build901 2013/11/27)

>  <Rbt.Parameter_File>
/export/apps/rDock/src/rDock_2013.1_src/data/scripts/dock_solv.prm

>  <Rbt.Receptor>
prm/pocket_docking_5.prm

>  <SCORE>
-36.3141

>  <SCORE.INTER>
-25.537

>  <SCORE.INTER.CONST>
1

>  <SCORE.INTER.POLAR>
0

>  <SCORE.INTER.ROT>
6

>  <SCORE.INTER.SOLV>
21.0371

>  <SCORE.INTER.VDW>
-31.6371

>  <SCORE.INTER.norm>
-1.06404

>  <SCORE.INTRA>
-10.777

>  <SCORE.INTRA.DIHEDRAL>
0.188147

>  <SCORE.INTRA.DIHEDRAL.0>
4.94008

>  <SCORE.INTRA.POLAR>
0

>  <SCORE.INTRA.POLAR.0>
0

>  <SCORE.INTRA.REPUL>
0

>  <SCORE.INTRA.REPUL.0>
0

>  <SCORE.INTRA.SOLV>
0.392811

>  <SCORE.INTRA.SOLV.lig_0>
-31.4704

>  <SCORE.INTRA.VDW>
-11.0675

>  <SCORE.INTRA.VDW.0>
10.2807

>  <SCORE.INTRA.norm>
-0.449042

>  <SCORE.RESTR>
0

>  <SCORE.RESTR.CAVITY>
0

>  <SCORE.RESTR.norm>
0

>  <SCORE.SYSTEM>
0

>  <SCORE.SYSTEM.CONST>
0

>  <SCORE.SYSTEM.DIHEDRAL>
0

>  <SCORE.SYSTEM.SOLV>
0

>  <SCORE.SYSTEM.norm>
0

>  <SCORE.heavy>
24

>  <SCORE.norm>
-1.51309

>  <RMSD>
1.278

$$$$
ligand
 OpenBabel11021811493D
libRbt.so/2013.1/901 2013/11/27
 24 26  0  0  0  0  0  0  0  0999 V2000
    6.0857  -10.0624  -11.5856 N   0  0  0  0  0  0  0  0  0  0  0  0
    5.1260  -10.9309  -10.9231 C   0  0  0  0  0  0  0  0  0  0  0  0
   13.6334   -6.8217  -13.0602 O   0  0  0  0  0  0  0  0  0  0  0  0
   12.4553   -6.1821  -12.6985 C   0  0  0  0  0  0  0  0  0  0  0  0
    8.7323   -4.3725  -11.6387 N   0  0  0  0  0  0  0  0  0  0  0  0
   12.3952   -4.6871  -12.5308 C   0  0  0  0  0  0  0  0  0  0  0  0
    8.7320   -6.6087  -11.8507 N   0  0  0  0  0  0  0  0  0  0  0  0
   11.1862   -4.0006  -12.1858 C   0  0  0  0  0  0  0  0  0  0  0  0
    6.5615   -5.5255  -11.2244 N   0  0  0  0  0  0  0  0  0  0  0  0
   10.0157   -4.8157  -11.9880 C   0  0  0  0  0  0  0  0  0  0  0  0
   13.3046  -11.3704  -12.8262 N   0  0  0  0  0  0  0  0  0  0  0  0
   10.0628   -6.2463  -12.1300 C   0  0  0  0  0  0  0  0  0  0  0  0
   11.3389   -6.9165  -12.5014 C   0  0  0  0  0  0  0  0  0  0  0  0
    7.9544   -5.4913  -11.5657 C   0  0  0  0  0  0  0  0  0  0  0  0
   11.3666   -8.4257  -12.6559 C   0  0  0  0  0  0  0  0  0  0  0  0
   12.7563   -9.0358  -12.8043 C   0  0  1  0  0  0  0  0  0  0  0  0
   13.8536   -8.0612  -12.4848 C   0  0  0  0  0  0  0  0  0  0  0  0
   12.8665  -10.2933  -11.9553 C   0  0  0  0  0  0  0  0  0  0  0  0
    8.2099   -7.9862  -11.9366 C   0  0  0  0  0  0  0  0  0  0  0  0
   14.7235  -11.6042  -12.5935 C   0  0  0  0  0  0  0  0  0  0  0  0
   12.5453  -12.5581  -12.4682 C   0  0  0  0  0  0  0  0  0  0  0  0
    7.8887   -8.6561  -10.5894 C   0  0  0  0  0  0  0  0  0  0  0  0
    7.3680  -10.0787  -10.8673 C   0  0  0  0  0  0  0  0  0  0  0  0
    6.2429  -10.5259  -12.9596 C   0  0  0  0  0  0  0  0  0  0  0  0
  1 23  1  0  0  0  0
  1 24  1  0  0  0  0
  1  2  1  0  0  0  0
  3  4  1  0  0  0  0
  3 17  1  0  0  0  0
  4  6  2  0  0  0  0
  4 13  1  0  0  0  0
  5 10  1  0  0  0  0
  5 14  2  0  0  0  0
  6  8  1  0  0  0  0
  7 12  1  0  0  0  0
  7 14  1  0  0  0  0
  7 19  1  0  0  0  0
  8 10  2  0  0  0  0
  9 14  1  0  0  0  0
 10 12  1  0  0  0  0
 11 18  1  0  0  0  0
 11 20  1  0  0  0  0
 11 21  1  0  0  0  0
 12 13  2  0  0  0  0
 13 15  1  0  0  0  0
 15 16  1  0  0  0  0
 16 17  1  0  0  0  0
 16 18  1  1  0  0  0
 19 22  1  0  0  0  0
 22 23  1  0  0  0  0
M  END
>  <CHROM.1>
-130.34214162,108.87707544,102.59693403,126.01589443,-179.66002047,-65.29897774
10.20787213,-8.10866191,-12.08372629,2.96011399,0.17457612,0.00474691

>  <Name>
ligand

>  <RI>
0

>  <Rbt.Current_Directory>
/home/itssahil/PROJECTS/Mol_Feturizer/New_Systems/rnas/3TZR

>  <Rbt.Executable>
rbdock ($Id: //depot/dev/client3/rdock/2013.1/src/exe/rbdock.cxx#4 $)

>  <Rbt.Library>
libRbt.so (2013.1, Build901 2013/11/27)

>  <Rbt.Parameter_File>
/export/apps/rDock/src/rDock_2013.1_src/data/scripts/dock_solv.prm

>  <Rbt.Receptor>
prm/blind_docking_100.prm

>  <SCORE>
-33.7473

>  <SCORE.INTER>
-25.1816

>  <SCORE.INTER.CONST>
1

>  <SCORE.INTER.POLAR>
0

>  <SCORE.INTER.ROT>
6

>  <SCORE.INTER.SOLV>
21.5713

>  <SCORE.INTER.VDW>
-31.5781

>  <SCORE.INTER.norm>
-1.04923

>  <SCORE.INTRA>
-8.56569

>  <SCORE.INTRA.DIHEDRAL>
5.66598

>  <SCORE.INTRA.DIHEDRAL.0>
4.94008

>  <SCORE.INTRA.POLAR>
0

>  <SCORE.INTRA.POLAR.0>
0

>  <SCORE.INTRA.REPUL>
0

>  <SCORE.INTRA.REPUL.0>
0

>  <SCORE.INTRA.SOLV>
0.430545

>  <SCORE.INTRA.SOLV.lig_0>
-31.4704

>  <SCORE.INTRA.VDW>
-11.6139

>  <SCORE.INTRA.VDW.0>
10.2807

>  <SCORE.INTRA.norm>
-0.356904

>  <SCORE.RESTR>
0

>  <SCORE.RESTR.CAVITY>
0

>  <SCORE.RESTR.norm>
0

>  <SCORE.SYSTEM>
0

>  <SCORE.SYSTEM.CONST>
0

>  <SCORE.SYSTEM.DIHEDRAL>
0

>  <SCORE.SYSTEM.SOLV>
0

>  <SCORE.SYSTEM.norm>
0

>  <SCORE.heavy>
24

>  <SCORE.norm>
-1.40614

>  <RMSD>
1.279

$$$$
ligand
 OpenBabel11021811493D
libRbt.so/2013.1/901 2013/11/27
 24 26  0  0  0  0  0  0  0  0999 V2000
    6.0822  -10.2814  -11.4666 N   0  0  0  0  0  0  0  0  0  0  0  0
    5.2711  -11.2125  -10.6988 C   0  0  0  0  0  0  0  0  0  0  0  0
   13.2186   -6.0374  -12.8883 O   0  0  0  0  0  0  0  0  0  0  0  0
   11.9112   -5.5972  -12.7318 C   0  0  0  0  0  0  0  0  0  0  0  0
    7.8268   -4.4218  -12.2899 N   0  0  0  0  0  0  0  0  0  0  0  0
   11.5670   -4.1321  -12.7784 C   0  0  0  0  0  0  0  0  0  0  0  0
    8.2488   -6.6258  -12.1904 N   0  0  0  0  0  0  0  0  0  0  0  0
   10.2230   -3.6541  -12.6477 C   0  0  0  0  0  0  0  0  0  0  0  0
    5.8616   -5.9121  -11.9284 N   0  0  0  0  0  0  0  0  0  0  0  0
    9.2007   -4.6490  -12.4513 C   0  0  0  0  0  0  0  0  0  0  0  0
   12.4042  -10.6626  -11.9448 N   0  0  0  0  0  0  0  0  0  0  0  0
    9.5177   -6.0507  -12.3894 C   0  0  0  0  0  0  0  0  0  0  0  0
   10.9275   -6.5033  -12.5420 C   0  0  0  0  0  0  0  0  0  0  0  0
    7.2568   -5.6523  -12.1374 C   0  0  0  0  0  0  0  0  0  0  0  0
   11.2410   -7.9867  -12.4835 C   0  0  0  0  0  0  0  0  0  0  0  0
   12.7245   -8.3326  -12.4137 C   0  0  1  0  0  0  0  0  0  0  0  0
   13.5854   -7.1352  -12.1291 C   0  0  0  0  0  0  0  0  0  0  0  0
   12.9546   -9.4366  -11.3928 C   0  0  0  0  0  0  0  0  0  0  0  0
    7.9936   -8.0781  -12.1346 C   0  0  0  0  0  0  0  0  0  0  0  0
   13.4081  -11.2725  -12.8061 C   0  0  0  0  0  0  0  0  0  0  0  0
   12.1081  -11.5491  -10.8304 C   0  0  0  0  0  0  0  0  0  0  0  0
    7.8312   -8.6664  -10.7224 C   0  0  0  0  0  0  0  0  0  0  0  0
    7.4126  -10.1425  -10.8574 C   0  0  0  0  0  0  0  0  0  0  0  0
    6.1757  -10.7824  -12.8332 C   0  0  0  0  0  0  0  0  0  0  0  0
  1 23  1  0  0  0  0
  1 24  1  0  0  0  0
  1  2  1  0  0  0  0
  3  4  1  0  0  0  0
  3 17  1  0  0  0  0
  4  6  2  0  0  0  0
  4 13  1  0  0  0  0
  5 10  1  0  0  0  0
  5 14  2  0  0  0  0
  6  8  1  0  0  0  0
  7 12  1  0  0  0  0
  7 14  1  0  0  0  0
  7 19  1  0  0  0  0
  8 10  2  0  0  0  0
  9 14  1  0  0  0  0
 10 12  1  0  0  0  0
 11 18  1  0  0  0  0
 11 20  1  0  0  0  0
 11 21  1  0  0  0  0
 12 13  2  0  0  0  0
 13 15  1  0  0  0  0
 15 16  1  0  0  0  0
 16 17  1  0  0  0  0
 16 18  1  1  0  0  0
 19 22  1  0  0  0  0
 22 23  1  0  0  0  0
M  END
>  <CHROM.1>
-132.65830422,100.76148136,84.68208899,70.62514236,173.52884487,-65.42864060
9.78227074,-7.83886091,-12.05122577,-2.85085785,0.08910305,-0.15425691

>  <Name>
ligand

>  <RI>
0

>  <Rbt.Current_Directory>
/home/itssahil/PROJECTS/Mol_Feturizer/New_Systems/rnas/3TZR

>  <Rbt.Executable>
rbdock ($Id: //depot/dev/client3/rdock/2013.1/src/exe/rbdock.cxx#4 $)

>  <Rbt.Library>
libRbt.so (2013.1, Build901 2013/11/27)

>  <Rbt.Parameter_File>
/export/apps/rDock/src/rDock_2013.1_src/data/scripts/dock_solv.prm

>  <Rbt.Receptor>
prm/pocket_docking_6.prm

>  <SCORE>
-36.3135

>  <SCORE.INTER>
-25.3804

>  <SCORE.INTER.CONST>
1

>  <SCORE.INTER.POLAR>
0

>  <SCORE.INTER.ROT>
6

>  <SCORE.INTER.SOLV>
21.2509

>  <SCORE.INTER.VDW>
-31.6039

>  <SCORE.INTER.norm>
-1.05752

>  <SCORE.INTRA>
-10.9331

>  <SCORE.INTRA.DIHEDRAL>
0.0700882

>  <SCORE.INTRA.DIHEDRAL.0>
4.94008

>  <SCORE.INTRA.POLAR>
0

>  <SCORE.INTRA.POLAR.0>
0

>  <SCORE.INTRA.REPUL>
0

>  <SCORE.INTRA.REPUL.0>
0

>  <SCORE.INTRA.SOLV>
0.310403

>  <SCORE.INTRA.SOLV.lig_0>
-31.4704

>  <SCORE.INTRA.VDW>
-11.1234

>  <SCORE.INTRA.VDW.0>
10.2807

>  <SCORE.INTRA.norm>
-0.455547

>  <SCORE.RESTR>
0

>  <SCORE.RESTR.CAVITY>
0

>  <SCORE.RESTR.norm>
0

>  <SCORE.SYSTEM>
0

>  <SCORE.SYSTEM.CONST>
0

>  <SCORE.SYSTEM.DIHEDRAL>
0

>  <SCORE.SYSTEM.SOLV>
0

>  <SCORE.SYSTEM.norm>
0

>  <SCORE.heavy>
24

>  <SCORE.norm>
-1.51306

>  <RMSD>
1.281

$$$$
ligand
 OpenBabel11021811493D
libRbt.so/2013.1/901 2013/11/27
 24 26  0  0  0  0  0  0  0  0999 V2000
    6.0546  -10.2798  -11.4930 N   0  0  0  0  0  0  0  0  0  0  0  0
    5.2020  -11.1707  -10.7225 C   0  0  0  0  0  0  0  0  0  0  0  0
   13.2119   -6.0259  -12.9087 O   0  0  0  0  0  0  0  0  0  0  0  0
   11.9050   -5.5908  -12.7346 C   0  0  0  0  0  0  0  0  0  0  0  0
    7.8222   -4.4313  -12.2388 N   0  0  0  0  0  0  0  0  0  0  0  0
   11.5556   -4.1267  -12.7686 C   0  0  0  0  0  0  0  0  0  0  0  0
    8.2524   -6.6345  -12.1571 N   0  0  0  0  0  0  0  0  0  0  0  0
   10.2117   -3.6538  -12.6195 C   0  0  0  0  0  0  0  0  0  0  0  0
    5.8661   -5.9300  -11.8635 N   0  0  0  0  0  0  0  0  0  0  0  0
    9.1949   -4.6532  -12.4173 C   0  0  0  0  0  0  0  0  0  0  0  0
   12.4325  -10.6613  -11.9879 N   0  0  0  0  0  0  0  0  0  0  0  0
    9.5171   -6.0542  -12.3674 C   0  0  0  0  0  0  0  0  0  0  0  0
   10.9265   -6.5012  -12.5388 C   0  0  0  0  0  0  0  0  0  0  0  0
    7.2580   -5.6646  -12.0870 C   0  0  0  0  0  0  0  0  0  0  0  0
   11.2452   -7.9839  -12.4928 C   0  0  0  0  0  0  0  0  0  0  0  0
   12.7306   -8.3254  -12.4421 C   0  0  1  0  0  0  0  0  0  0  0  0
   13.5909   -7.1269  -12.1603 C   0  0  0  0  0  0  0  0  0  0  0  0
   12.9759   -9.4347  -11.4304 C   0  0  0  0  0  0  0  0  0  0  0  0
    8.0024   -8.0879  -12.1070 C   0  0  0  0  0  0  0  0  0  0  0  0
   13.4370  -11.2576  -12.8581 C   0  0  0  0  0  0  0  0  0  0  0  0
   12.1488  -11.5575  -10.8780 C   0  0  0  0  0  0  0  0  0  0  0  0
    7.7902   -8.6735  -10.7002 C   0  0  0  0  0  0  0  0  0  0  0  0
    7.3684  -10.1475  -10.8474 C   0  0  0  0  0  0  0  0  0  0  0  0
    6.1796  -10.8252  -12.8400 C   0  0  0  0  0  0  0  0  0  0  0  0
  1 23  1  0  0  0  0
  1 24  1  0  0  0  0
  1  2  1  0  0  0  0
  3  4  1  0  0  0  0
  3 17  1  0  0  0  0
  4  6  2  0  0  0  0
  4 13  1  0  0  0  0
  5 10  1  0  0  0  0
  5 14  2  0  0  0  0
  6  8  1  0  0  0  0
  7 12  1  0  0  0  0
  7 14  1  0  0  0  0
  7 19  1  0  0  0  0
  8 10  2  0  0  0  0
  9 14  1  0  0  0  0
 10 12  1  0  0  0  0
 11 18  1  0  0  0  0
 11 20  1  0  0  0  0
 11 21  1  0  0  0  0
 12 13  2  0  0  0  0
 13 15  1  0  0  0  0
 15 16  1  0  0  0  0
 16 17  1  0  0  0  0
 16 18  1  1  0  0  0
 19 22  1  0  0  0  0
 22 23  1  0  0  0  0
M  END
>  <CHROM.1>
-130.65791194,103.61039085,84.75554999,71.06793727,172.88435633,-65.76570216
9.77933441,-7.83977806,-12.05137321,-2.86410868,0.09672494,-0.14396200

>  <Name>
ligand

>  <RI>
0

>  <Rbt.Current_Directory>
/home/itssahil/PROJECTS/Mol_Feturizer/New_Systems/rnas/3TZR

>  <Rbt.Executable>
rbdock ($Id: //depot/dev/client3/rdock/2013.1/src/exe/rbdock.cxx#4 $)

>  <Rbt.Library>
libRbt.so (2013.1, Build901 2013/11/27)

>  <Rbt.Parameter_File>
/export/apps/rDock/src/rDock_2013.1_src/data/scripts/dock_solv.prm

>  <Rbt.Receptor>
prm/blind_docking_80.prm

>  <SCORE>
-36.2334

>  <SCORE.INTER>
-25.4147

>  <SCORE.INTER.CONST>
1

>  <SCORE.INTER.POLAR>
0

>  <SCORE.INTER.ROT>
6

>  <SCORE.INTER.SOLV>
21.0459

>  <SCORE.INTER.VDW>
-31.5584

>  <SCORE.INTER.norm>
-1.05895

>  <SCORE.INTRA>
-10.8187

>  <SCORE.INTRA.DIHEDRAL>
0.214107

>  <SCORE.INTRA.DIHEDRAL.0>
4.94008

>  <SCORE.INTRA.POLAR>
0

>  <SCORE.INTRA.POLAR.0>
0

>  <SCORE.INTRA.REPUL>
0

>  <SCORE.INTRA.REPUL.0>
0

>  <SCORE.INTRA.SOLV>
0.436414

>  <SCORE.INTRA.SOLV.lig_0>
-31.4704

>  <SCORE.INTRA.VDW>
-11.1439

>  <SCORE.INTRA.VDW.0>
10.2807

>  <SCORE.INTRA.norm>
-0.450778

>  <SCORE.RESTR>
0

>  <SCORE.RESTR.CAVITY>
0

>  <SCORE.RESTR.norm>
0

>  <SCORE.SYSTEM>
0

>  <SCORE.SYSTEM.CONST>
0

>  <SCORE.SYSTEM.DIHEDRAL>
0

>  <SCORE.SYSTEM.SOLV>
0

>  <SCORE.SYSTEM.norm>
0

>  <SCORE.heavy>
24

>  <SCORE.norm>
-1.50973

>  <RMSD>
1.282

$$$$
ligand
 OpenBabel11021811493D
libRbt.so/2013.1/901 2013/11/27
 24 26  0  0  0  0  0  0  0  0999 V2000
    6.1286   -9.9392  -11.2442 N   0  0  0  0  0  0  0  0  0  0  0  0
    7.1181  -10.7748  -10.5832 C   0  0  0  0  0  0  0  0  0  0  0  0
   13.8162   -7.7647  -13.1605 O   0  0  0  0  0  0  0  0  0  0  0  0
   12.7653   -6.9180  -12.8344 C   0  0  0  0  0  0  0  0  0  0  0  0
    9.4087   -4.4589  -11.8621 N   0  0  0  0  0  0  0  0  0  0  0  0
   12.9345   -5.4219  -12.8385 C   0  0  0  0  0  0  0  0  0  0  0  0
    9.0685   -6.6787  -11.8143 N   0  0  0  0  0  0  0  0  0  0  0  0
   11.8591   -4.5262  -12.5332 C   0  0  0  0  0  0  0  0  0  0  0  0
    7.1162   -5.2164  -11.2423 N   0  0  0  0  0  0  0  0  0  0  0  0
   10.5932   -5.1273  -12.2022 C   0  0  0  0  0  0  0  0  0  0  0  0
   13.5073  -11.9605  -12.1373 N   0  0  0  0  0  0  0  0  0  0  0  0
   10.4219   -6.5553  -12.1796 C   0  0  0  0  0  0  0  0  0  0  0  0
   11.5647   -7.4482  -12.5151 C   0  0  0  0  0  0  0  0  0  0  0  0
    8.4795   -5.4318  -11.6334 C   0  0  0  0  0  0  0  0  0  0  0  0
   11.3620   -8.9518  -12.4953 C   0  0  0  0  0  0  0  0  0  0  0  0
   12.6372   -9.7786  -12.6203 C   0  0  1  0  0  0  0  0  0  0  0  0
   13.8810   -8.9531  -12.4538 C   0  0  0  0  0  0  0  0  0  0  0  0
   12.6050  -10.9381  -11.6361 C   0  0  0  0  0  0  0  0  0  0  0  0
    8.3457   -7.9618  -11.7223 C   0  0  0  0  0  0  0  0  0  0  0  0
   13.9312  -12.7909  -11.0181 C   0  0  0  0  0  0  0  0  0  0  0  0
   12.7659  -12.7665  -13.0945 C   0  0  0  0  0  0  0  0  0  0  0  0
    7.0842   -8.0734  -12.5958 C   0  0  0  0  0  0  0  0  0  0  0  0
    6.6078   -9.5379  -12.5746 C   0  0  0  0  0  0  0  0  0  0  0  0
    4.8852  -10.6960  -11.3358 C   0  0  0  0  0  0  0  0  0  0  0  0
  1 23  1  0  0  0  0
  1 24  1  0  0  0  0
  1  2  1  0  0  0  0
  3  4  1  0  0  0  0
  3 17  1  0  0  0  0
  4  6  2  0  0  0  0
  4 13  1  0  0  0  0
  5 10  1  0  0  0  0
  5 14  2  0  0  0  0
  6  8  1  0  0  0  0
  7 12  1  0  0  0  0
  7 14  1  0  0  0  0
  7 19  1  0  0  0  0
  8 10  2  0  0  0  0
  9 14  1  0  0  0  0
 10 12  1  0  0  0  0
 11 18  1  0  0  0  0
 11 20  1  0  0  0  0
 11 21  1  0  0  0  0
 12 13  2  0  0  0  0
 13 15  1  0  0  0  0
 15 16  1  0  0  0  0
 16 17  1  0  0  0  0
 16 18  1  1  0  0  0
 19 22  1  0  0  0  0
 22 23  1  0  0  0  0
M  END
>  <CHROM.1>
-104.16577741,-122.93449469,156.59979099,157.23972596,169.95216270,66.99840710
10.33881052,-8.41492925,-12.08196143,2.74194181,0.13819645,-0.07286323

>  <Name>
ligand

>  <RI>
0

>  <Rbt.Current_Directory>
/home/itssahil/PROJECTS/Mol_Feturizer/New_Systems/rnas/3TZR

>  <Rbt.Executable>
rbdock ($Id: //depot/dev/client3/rdock/2013.1/src/exe/rbdock.cxx#4 $)

>  <Rbt.Library>
libRbt.so (2013.1, Build901 2013/11/27)

>  <Rbt.Parameter_File>
/export/apps/rDock/src/rDock_2013.1_src/data/scripts/dock_solv.prm

>  <Rbt.Receptor>
prm/pocket_docking_7.prm

>  <SCORE>
-32.5645

>  <SCORE.INTER>
-23.251

>  <SCORE.INTER.CONST>
1

>  <SCORE.INTER.POLAR>
0

>  <SCORE.INTER.ROT>
6

>  <SCORE.INTER.SOLV>
21.3126

>  <SCORE.INTER.VDW>
-30.2048

>  <SCORE.INTER.norm>
-0.96879

>  <SCORE.INTRA>
-9.31501

>  <SCORE.INTRA.DIHEDRAL>
1.42023

>  <SCORE.INTRA.DIHEDRAL.0>
4.94008

>  <SCORE.INTRA.POLAR>
0

>  <SCORE.INTRA.POLAR.0>
0

>  <SCORE.INTRA.REPUL>
0

>  <SCORE.INTRA.REPUL.0>
0

>  <SCORE.INTRA.SOLV>
0.884189

>  <SCORE.INTRA.SOLV.lig_0>
-31.4704

>  <SCORE.INTRA.VDW>
-10.4672

>  <SCORE.INTRA.VDW.0>
10.2807

>  <SCORE.INTRA.norm>
-0.388126

>  <SCORE.RESTR>
0.00149906

>  <SCORE.RESTR.CAVITY>
0.00149906

>  <SCORE.RESTR.norm>
6.24607e-05

>  <SCORE.SYSTEM>
0

>  <SCORE.SYSTEM.CONST>
0

>  <SCORE.SYSTEM.DIHEDRAL>
0

>  <SCORE.SYSTEM.SOLV>
0

>  <SCORE.SYSTEM.norm>
0

>  <SCORE.heavy>
24

>  <SCORE.norm>
-1.35685

>  <RMSD>
1.282

$$$$
ligand
 OpenBabel11021811493D
libRbt.so/2013.1/901 2013/11/27
 24 26  0  0  0  0  0  0  0  0999 V2000
    6.0868  -10.0147  -11.5739 N   0  0  0  0  0  0  0  0  0  0  0  0
    5.1019  -10.8255  -10.8761 C   0  0  0  0  0  0  0  0  0  0  0  0
   13.6355   -6.8377  -13.0108 O   0  0  0  0  0  0  0  0  0  0  0  0
   12.4571   -6.1973  -12.6516 C   0  0  0  0  0  0  0  0  0  0  0  0
    8.7330   -4.3839  -11.6021 N   0  0  0  0  0  0  0  0  0  0  0  0
   12.4020   -4.7040  -12.4670 C   0  0  0  0  0  0  0  0  0  0  0  0
    8.7250   -6.6174  -11.8401 N   0  0  0  0  0  0  0  0  0  0  0  0
   11.1930   -4.0164  -12.1241 C   0  0  0  0  0  0  0  0  0  0  0  0
    6.5539   -5.5321  -11.2195 N   0  0  0  0  0  0  0  0  0  0  0  0
   10.0174   -4.8285  -11.9457 C   0  0  0  0  0  0  0  0  0  0  0  0
   13.2639  -11.3921  -12.8374 N   0  0  0  0  0  0  0  0  0  0  0  0
   10.0596   -6.2576  -12.1040 C   0  0  0  0  0  0  0  0  0  0  0  0
   11.3360   -6.9290  -12.4724 C   0  0  0  0  0  0  0  0  0  0  0  0
    7.9497   -5.5000  -11.5487 C   0  0  0  0  0  0  0  0  0  0  0  0
   11.3585   -8.4364  -12.6443 C   0  0  0  0  0  0  0  0  0  0  0  0
   12.7468   -9.0508  -12.7881 C   0  0  1  0  0  0  0  0  0  0  0  0
   13.8455   -8.0848  -12.4481 C   0  0  0  0  0  0  0  0  0  0  0  0
   12.8445  -10.3185  -11.9530 C   0  0  0  0  0  0  0  0  0  0  0  0
    8.1977   -7.9915  -11.9464 C   0  0  0  0  0  0  0  0  0  0  0  0
   14.6750  -11.6629  -12.5978 C   0  0  0  0  0  0  0  0  0  0  0  0
   12.4741  -12.5669  -12.5036 C   0  0  0  0  0  0  0  0  0  0  0  0
    7.9919   -8.7253  -10.6100 C   0  0  0  0  0  0  0  0  0  0  0  0
    7.3925  -10.1128  -10.9062 C   0  0  0  0  0  0  0  0  0  0  0  0
    6.1618  -10.4812  -12.9538 C   0  0  0  0  0  0  0  0  0  0  0  0
  1 23  1  0  0  0  0
  1 24  1  0  0  0  0
  1  2  1  0  0  0  0
  3  4  1  0  0  0  0
  3 17  1  0  0  0  0
  4  6  2  0  0  0  0
  4 13  1  0  0  0  0
  5 10  1  0  0  0  0
  5 14  2  0  0  0  0
  6  8  1  0  0  0  0
  7 12  1  0  0  0  0
  7 14  1  0  0  0  0
  7 19  1  0  0  0  0
  8 10  2  0  0  0  0
  9 14  1  0  0  0  0
 10 12  1  0  0  0  0
 11 18  1  0  0  0  0
 11 20  1  0  0  0  0
 11 21  1  0  0  0  0
 12 13  2  0  0  0  0
 13 15  1  0  0  0  0
 15 16  1  0  0  0  0
 16 17  1  0  0  0  0
 16 18  1  1  0  0  0
 19 22  1  0  0  0  0
 22 23  1  0  0  0  0
M  END
>  <CHROM.1>
-128.71785113,103.15392613,103.57345336,125.08896068,177.92628884,-61.15073155
10.19852833,-8.11690029,-12.06810706,2.94663349,0.17185699,0.01245735

>  <Name>
ligand

>  <RI>
0

>  <Rbt.Current_Directory>
/home/itssahil/PROJECTS/Mol_Feturizer/New_Systems/rnas/3TZR

>  <Rbt.Executable>
rbdock ($Id: //depot/dev/client3/rdock/2013.1/src/exe/rbdock.cxx#4 $)

>  <Rbt.Library>
libRbt.so (2013.1, Build901 2013/11/27)

>  <Rbt.Parameter_File>
/export/apps/rDock/src/rDock_2013.1_src/data/scripts/dock_solv.prm

>  <Rbt.Receptor>
prm/blind_docking_40.prm

>  <SCORE>
-33.6269

>  <SCORE.INTER>
-25.0266

>  <SCORE.INTER.CONST>
1

>  <SCORE.INTER.POLAR>
0

>  <SCORE.INTER.ROT>
6

>  <SCORE.INTER.SOLV>
21.6419

>  <SCORE.INTER.VDW>
-31.4984

>  <SCORE.INTER.norm>
-1.04278

>  <SCORE.INTRA>
-8.60023

>  <SCORE.INTRA.DIHEDRAL>
5.73913

>  <SCORE.INTRA.DIHEDRAL.0>
4.94008

>  <SCORE.INTRA.POLAR>
0

>  <SCORE.INTRA.POLAR.0>
0

>  <SCORE.INTRA.REPUL>
0

>  <SCORE.INTRA.REPUL.0>
0

>  <SCORE.INTRA.SOLV>
0.300706

>  <SCORE.INTRA.SOLV.lig_0>
-31.4704

>  <SCORE.INTRA.VDW>
-11.6201

>  <SCORE.INTRA.VDW.0>
10.2807

>  <SCORE.INTRA.norm>
-0.358343

>  <SCORE.RESTR>
0

>  <SCORE.RESTR.CAVITY>
0

>  <SCORE.RESTR.norm>
0

>  <SCORE.SYSTEM>
0

>  <SCORE.SYSTEM.CONST>
0

>  <SCORE.SYSTEM.DIHEDRAL>
0

>  <SCORE.SYSTEM.SOLV>
0

>  <SCORE.SYSTEM.norm>
0

>  <SCORE.heavy>
24

>  <SCORE.norm>
-1.40112

>  <RMSD>
1.286

$$$$
ligand
 OpenBabel11021811493D
libRbt.so/2013.1/901 2013/11/27
 24 26  0  0  0  0  0  0  0  0999 V2000
    6.0394  -10.2664  -11.5066 N   0  0  0  0  0  0  0  0  0  0  0  0
    5.1440  -11.0893  -10.7095 C   0  0  0  0  0  0  0  0  0  0  0  0
   13.2102   -6.0372  -12.8903 O   0  0  0  0  0  0  0  0  0  0  0  0
   11.9008   -5.6028  -12.7329 C   0  0  0  0  0  0  0  0  0  0  0  0
    7.8115   -4.4461  -12.2877 N   0  0  0  0  0  0  0  0  0  0  0  0
   11.5493   -4.1397  -12.7844 C   0  0  0  0  0  0  0  0  0  0  0  0
    8.2446   -6.6476  -12.1807 N   0  0  0  0  0  0  0  0  0  0  0  0
   10.2032   -3.6678  -12.6529 C   0  0  0  0  0  0  0  0  0  0  0  0
    5.8544   -5.9447  -11.9169 N   0  0  0  0  0  0  0  0  0  0  0  0
    9.1862   -4.6671  -12.4509 C   0  0  0  0  0  0  0  0  0  0  0  0
   12.4158  -10.6617  -11.9256 N   0  0  0  0  0  0  0  0  0  0  0  0
    9.5103   -6.0670  -12.3843 C   0  0  0  0  0  0  0  0  0  0  0  0
   10.9220   -6.5131  -12.5379 C   0  0  0  0  0  0  0  0  0  0  0  0
    7.2479   -5.6788  -12.1295 C   0  0  0  0  0  0  0  0  0  0  0  0
   11.2429   -7.9947  -12.4744 C   0  0  0  0  0  0  0  0  0  0  0  0
   12.7283   -8.3330  -12.4061 C   0  0  1  0  0  0  0  0  0  0  0  0
   13.5838   -7.1303  -12.1277 C   0  0  0  0  0  0  0  0  0  0  0  0
   12.9658   -9.4320  -11.3815 C   0  0  0  0  0  0  0  0  0  0  0  0
    7.9967   -8.1008  -12.1189 C   0  0  0  0  0  0  0  0  0  0  0  0
   13.4087  -11.2612  -12.8069 C   0  0  0  0  0  0  0  0  0  0  0  0
   12.1484  -11.5529  -10.8077 C   0  0  0  0  0  0  0  0  0  0  0  0
    7.7865   -8.6757  -10.7075 C   0  0  0  0  0  0  0  0  0  0  0  0
    7.3455  -10.1451  -10.8433 C   0  0  0  0  0  0  0  0  0  0  0  0
    6.1694  -10.8821  -12.8224 C   0  0  0  0  0  0  0  0  0  0  0  0
  1 23  1  0  0  0  0
  1 24  1  0  0  0  0
  1  2  1  0  0  0  0
  3  4  1  0  0  0  0
  3 17  1  0  0  0  0
  4  6  2  0  0  0  0
  4 13  1  0  0  0  0
  5 10  1  0  0  0  0
  5 14  2  0  0  0  0
  6  8  1  0  0  0  0
  7 12  1  0  0  0  0
  7 14  1  0  0  0  0
  7 19  1  0  0  0  0
  8 10  2  0  0  0  0
  9 14  1  0  0  0  0
 10 12  1  0  0  0  0
 11 18  1  0  0  0  0
 11 20  1  0  0  0  0
 11 21  1  0  0  0  0
 12 13  2  0  0  0  0
 13 15  1  0  0  0  0
 15 16  1  0  0  0  0
 16 17  1  0  0  0  0
 16 18  1  1  0  0  0
 19 22  1  0  0  0  0
 22 23  1  0  0  0  0
M  END
>  <CHROM.1>
-128.23708520,103.00202064,83.72387568,70.40807563,172.02236492,-64.50124487
9.76803145,-7.84512470,-12.04682749,-2.86915490,0.08807084,-0.15402388

>  <Name>
ligand

>  <RI>
144

>  <Rbt.Current_Directory>
/home/itssahil/PROJECTS/Mol_Feturizer/New_Systems/rnas/3TZR

>  <Rbt.Executable>
rbdock ($Id: //depot/dev/client3/rdock/2013.1/src/exe/rbdock.cxx#4 $)

>  <Rbt.Library>
libRbt.so (2013.1, Build901 2013/11/27)

>  <Rbt.Parameter_File>
/export/apps/rDock/src/rDock_2013.1_src/data/scripts/dock_solv.prm

>  <Rbt.Receptor>
prm/blind_docking_60.prm

>  <SCORE>
-36.1545

>  <SCORE.INTER>
-25.3602

>  <SCORE.INTER.CONST>
1

>  <SCORE.INTER.POLAR>
0

>  <SCORE.INTER.ROT>
6

>  <SCORE.INTER.SOLV>
21.0775

>  <SCORE.INTER.VDW>
-31.5326

>  <SCORE.INTER.norm>
-1.05667

>  <SCORE.INTRA>
-10.7943

>  <SCORE.INTRA.DIHEDRAL>
0.180572

>  <SCORE.INTRA.DIHEDRAL.0>
4.94008

>  <SCORE.INTRA.POLAR>
0

>  <SCORE.INTRA.POLAR.0>
0

>  <SCORE.INTRA.REPUL>
0

>  <SCORE.INTRA.REPUL.0>
0

>  <SCORE.INTRA.SOLV>
0.462048

>  <SCORE.INTRA.SOLV.lig_0>
-31.4704

>  <SCORE.INTRA.VDW>
-11.1156

>  <SCORE.INTRA.VDW.0>
10.2807

>  <SCORE.INTRA.norm>
-0.449762

>  <SCORE.RESTR>
0

>  <SCORE.RESTR.CAVITY>
0

>  <SCORE.RESTR.norm>
0

>  <SCORE.SYSTEM>
0

>  <SCORE.SYSTEM.CONST>
0

>  <SCORE.SYSTEM.DIHEDRAL>
0

>  <SCORE.SYSTEM.SOLV>
0

>  <SCORE.SYSTEM.norm>
0

>  <SCORE.heavy>
24

>  <SCORE.norm>
-1.50644

>  <RMSD>
1.286

$$$$
ligand
 OpenBabel11021811493D
libRbt.so/2013.1/901 2013/11/27
 24 26  0  0  0  0  0  0  0  0999 V2000
    6.0702  -10.2786  -11.5578 N   0  0  0  0  0  0  0  0  0  0  0  0
    5.1487  -11.0612  -10.7498 C   0  0  0  0  0  0  0  0  0  0  0  0
   13.2219   -6.0419  -12.9143 O   0  0  0  0  0  0  0  0  0  0  0  0
   11.9155   -5.6022  -12.7473 C   0  0  0  0  0  0  0  0  0  0  0  0
    7.8343   -4.4285  -12.2731 N   0  0  0  0  0  0  0  0  0  0  0  0
   11.5710   -4.1371  -12.7867 C   0  0  0  0  0  0  0  0  0  0  0  0
    8.2571   -6.6328  -12.1837 N   0  0  0  0  0  0  0  0  0  0  0  0
   10.2279   -3.6595  -12.6450 C   0  0  0  0  0  0  0  0  0  0  0  0
    5.8718   -5.9200  -11.9028 N   0  0  0  0  0  0  0  0  0  0  0  0
    9.2071   -4.6551  -12.4448 C   0  0  0  0  0  0  0  0  0  0  0  0
   12.4227  -10.6721  -11.9845 N   0  0  0  0  0  0  0  0  0  0  0  0
    9.5245   -6.0570  -12.3898 C   0  0  0  0  0  0  0  0  0  0  0  0
   10.9333   -6.5090  -12.5536 C   0  0  0  0  0  0  0  0  0  0  0  0
    7.2655   -5.6595  -12.1207 C   0  0  0  0  0  0  0  0  0  0  0  0
   11.2471   -7.9926  -12.5022 C   0  0  0  0  0  0  0  0  0  0  0  0
   12.7311   -8.3386  -12.4439 C   0  0  1  0  0  0  0  0  0  0  0  0
   13.5940   -7.1421  -12.1613 C   0  0  0  0  0  0  0  0  0  0  0  0
   12.9684   -9.4459  -11.4282 C   0  0  0  0  0  0  0  0  0  0  0  0
    8.0023   -8.0852  -12.1309 C   0  0  0  0  0  0  0  0  0  0  0  0
   13.4327  -11.2804  -12.8399 C   0  0  0  0  0  0  0  0  0  0  0  0
   12.1206  -11.5598  -10.8726 C   0  0  0  0  0  0  0  0  0  0  0  0
    7.7806   -8.6662  -10.7237 C   0  0  0  0  0  0  0  0  0  0  0  0
    7.3612  -10.1411  -10.8688 C   0  0  0  0  0  0  0  0  0  0  0  0
    6.2256  -10.9482  -12.8442 C   0  0  0  0  0  0  0  0  0  0  0  0
  1 23  1  0  0  0  0
  1 24  1  0  0  0  0
  1  2  1  0  0  0  0
  3  4  1  0  0  0  0
  3 17  1  0  0  0  0
  4  6  2  0  0  0  0
  4 13  1  0  0  0  0
  5 10  1  0  0  0  0
  5 14  2  0  0  0  0
  6  8  1  0  0  0  0
  7 12  1  0  0  0  0
  7 14  1  0  0  0  0
  7 19  1  0  0  0  0
  8 10  2  0  0  0  0
  9 14  1  0  0  0  0
 10 12  1  0  0  0  0
 11 18  1  0  0  0  0
 11 20  1  0  0  0  0
 11 21  1  0  0  0  0
 12 13  2  0  0  0  0
 13 15  1  0  0  0  0
 15 16  1  0  0  0  0
 16 17  1  0  0  0  0
 16 18  1  1  0  0  0
 19 22  1  0  0  0  0
 22 23  1  0  0  0  0
M  END
>  <CHROM.1>
-125.57676457,103.66095400,85.23424675,71.02655259,173.13931338,-64.13179691
9.78118248,-7.84473515,-12.06796865,-2.86584226,0.09295835,-0.14429893

>  <Name>
ligand

>  <RI>
144

>  <Rbt.Current_Directory>
/home/itssahil/PROJECTS/Mol_Feturizer/New_Systems/rnas/3TZR

>  <Rbt.Executable>
rbdock ($Id: //depot/dev/client3/rdock/2013.1/src/exe/rbdock.cxx#4 $)

>  <Rbt.Library>
libRbt.so (2013.1, Build901 2013/11/27)

>  <Rbt.Parameter_File>
/export/apps/rDock/src/rDock_2013.1_src/data/scripts/dock_solv.prm

>  <Rbt.Receptor>
prm/blind_docking_60.prm

>  <SCORE>
-36.2216

>  <SCORE.INTER>
-25.3271

>  <SCORE.INTER.CONST>
1

>  <SCORE.INTER.POLAR>
0

>  <SCORE.INTER.ROT>
6

>  <SCORE.INTER.SOLV>
21.1509

>  <SCORE.INTER.VDW>
-31.535

>  <SCORE.INTER.norm>
-1.0553

>  <SCORE.INTRA>
-10.8945

>  <SCORE.INTRA.DIHEDRAL>
0.296779

>  <SCORE.INTRA.DIHEDRAL.0>
4.94008

>  <SCORE.INTRA.POLAR>
0

>  <SCORE.INTRA.POLAR.0>
0

>  <SCORE.INTRA.REPUL>
0

>  <SCORE.INTRA.REPUL.0>
0

>  <SCORE.INTRA.SOLV>
0.429798

>  <SCORE.INTRA.SOLV.lig_0>
-31.4704

>  <SCORE.INTRA.VDW>
-11.2578

>  <SCORE.INTRA.VDW.0>
10.2807

>  <SCORE.INTRA.norm>
-0.453938

>  <SCORE.RESTR>
0

>  <SCORE.RESTR.CAVITY>
0

>  <SCORE.RESTR.norm>
0

>  <SCORE.SYSTEM>
0

>  <SCORE.SYSTEM.CONST>
0

>  <SCORE.SYSTEM.DIHEDRAL>
0

>  <SCORE.SYSTEM.SOLV>
0

>  <SCORE.SYSTEM.norm>
0

>  <SCORE.heavy>
24

>  <SCORE.norm>
-1.50923

>  <RMSD>
1.286

$$$$
ligand
 OpenBabel11021811493D
libRbt.so/2013.1/901 2013/11/27
 24 26  0  0  0  0  0  0  0  0999 V2000
    6.0314  -10.2714  -11.5857 N   0  0  0  0  0  0  0  0  0  0  0  0
    5.1071  -11.0277  -10.7562 C   0  0  0  0  0  0  0  0  0  0  0  0
   13.2131   -6.0792  -12.8769 O   0  0  0  0  0  0  0  0  0  0  0  0
   11.9104   -5.6258  -12.7184 C   0  0  0  0  0  0  0  0  0  0  0  0
    7.8386   -4.4089  -12.2724 N   0  0  0  0  0  0  0  0  0  0  0  0
   11.5829   -4.1566  -12.7503 C   0  0  0  0  0  0  0  0  0  0  0  0
    8.2355   -6.6185  -12.1953 N   0  0  0  0  0  0  0  0  0  0  0  0
   10.2441   -3.6647  -12.6172 C   0  0  0  0  0  0  0  0  0  0  0  0
    5.8560   -5.8805  -11.9307 N   0  0  0  0  0  0  0  0  0  0  0  0
    9.2103   -4.6500  -12.4334 C   0  0  0  0  0  0  0  0  0  0  0  0
   12.2946  -10.6917  -11.9590 N   0  0  0  0  0  0  0  0  0  0  0  0
    9.5112   -6.0558  -12.3857 C   0  0  0  0  0  0  0  0  0  0  0  0
   10.9162   -6.5227  -12.5402 C   0  0  0  0  0  0  0  0  0  0  0  0
    7.2545   -5.6344  -12.1341 C   0  0  0  0  0  0  0  0  0  0  0  0
   11.2126   -8.0101  -12.4967 C   0  0  0  0  0  0  0  0  0  0  0  0
   12.6920   -8.3735  -12.4275 C   0  0  1  0  0  0  0  0  0  0  0  0
   13.5658   -7.1890  -12.1286 C   0  0  0  0  0  0  0  0  0  0  0  0
   12.9074   -9.4907  -11.4178 C   0  0  0  0  0  0  0  0  0  0  0  0
    7.9637   -8.0683  -12.1553 C   0  0  0  0  0  0  0  0  0  0  0  0
   13.2514  -11.3384  -12.8467 C   0  0  0  0  0  0  0  0  0  0  0  0
   11.9908  -11.5696  -10.8398 C   0  0  0  0  0  0  0  0  0  0  0  0
    7.7440   -8.6607  -10.7526 C   0  0  0  0  0  0  0  0  0  0  0  0
    7.3291  -10.1357  -10.9089 C   0  0  0  0  0  0  0  0  0  0  0  0
    6.1695  -10.9671  -12.8602 C   0  0  0  0  0  0  0  0  0  0  0  0
  1 23  1  0  0  0  0
  1 24  1  0  0  0  0
  1  2  1  0  0  0  0
  3  4  1  0  0  0  0
  3 17  1  0  0  0  0
  4  6  2  0  0  0  0
  4 13  1  0  0  0  0
  5 10  1  0  0  0  0
  5 14  2  0  0  0  0
  6  8  1  0  0  0  0
  7 12  1  0  0  0  0
  7 14  1  0  0  0  0
  7 19  1  0  0  0  0
  8 10  2  0  0  0  0
  9 14  1  0  0  0  0
 10 12  1  0  0  0  0
 11 18  1  0  0  0  0
 11 20  1  0  0  0  0
 11 21  1  0  0  0  0
 12 13  2  0  0  0  0
 13 15  1  0  0  0  0
 15 16  1  0  0  0  0
 16 17  1  0  0  0  0
 16 18  1  1  0  0  0
 19 22  1  0  0  0  0
 22 23  1  0  0  0  0
M  END
>  <CHROM.1>
-123.64522232,102.76543608,84.89043970,68.26442145,174.07884305,-64.75807577
9.74141985,-7.85238590,-12.06501586,-2.83540505,0.08771577,-0.13945196

>  <Name>
ligand

>  <RI>
0

>  <Rbt.Current_Directory>
/home/itssahil/PROJECTS/Mol_Feturizer/New_Systems/rnas/3TZR

>  <Rbt.Executable>
rbdock ($Id: //depot/dev/client3/rdock/2013.1/src/exe/rbdock.cxx#4 $)

>  <Rbt.Library>
libRbt.so (2013.1, Build901 2013/11/27)

>  <Rbt.Parameter_File>
/export/apps/rDock/src/rDock_2013.1_src/data/scripts/dock_solv.prm

>  <Rbt.Receptor>
prm/blind_docking_40.prm

>  <SCORE>
-36.138

>  <SCORE.INTER>
-25.1291

>  <SCORE.INTER.CONST>
1

>  <SCORE.INTER.POLAR>
0

>  <SCORE.INTER.ROT>
6

>  <SCORE.INTER.SOLV>
21.3867

>  <SCORE.INTER.VDW>
-31.4817

>  <SCORE.INTER.norm>
-1.04705

>  <SCORE.INTRA>
-11.0088

>  <SCORE.INTRA.DIHEDRAL>
0.110061

>  <SCORE.INTRA.DIHEDRAL.0>
4.94008

>  <SCORE.INTRA.POLAR>
0

>  <SCORE.INTRA.POLAR.0>
0

>  <SCORE.INTRA.REPUL>
0

>  <SCORE.INTRA.REPUL.0>
0

>  <SCORE.INTRA.SOLV>
0.365895

>  <SCORE.INTRA.SOLV.lig_0>
-31.4704

>  <SCORE.INTRA.VDW>
-11.2468

>  <SCORE.INTRA.VDW.0>
10.2807

>  <SCORE.INTRA.norm>
-0.458701

>  <SCORE.RESTR>
0

>  <SCORE.RESTR.CAVITY>
0

>  <SCORE.RESTR.norm>
0

>  <SCORE.SYSTEM>
0

>  <SCORE.SYSTEM.CONST>
0

>  <SCORE.SYSTEM.DIHEDRAL>
0

>  <SCORE.SYSTEM.SOLV>
0

>  <SCORE.SYSTEM.norm>
0

>  <SCORE.heavy>
24

>  <SCORE.norm>
-1.50575

>  <RMSD>
1.289

$$$$
ligand
 OpenBabel11021811493D
libRbt.so/2013.1/901 2013/11/27
 24 26  0  0  0  0  0  0  0  0999 V2000
    7.5413  -10.5241  -10.9205 N   0  0  0  0  0  0  0  0  0  0  0  0
    6.3646  -11.0598  -11.5859 C   0  0  0  0  0  0  0  0  0  0  0  0
   13.9156   -8.0351  -13.2239 O   0  0  0  0  0  0  0  0  0  0  0  0
   12.9455   -7.0758  -12.9659 C   0  0  0  0  0  0  0  0  0  0  0  0
    9.8249   -4.2605  -12.1948 N   0  0  0  0  0  0  0  0  0  0  0  0
   13.2526   -5.6051  -13.0636 C   0  0  0  0  0  0  0  0  0  0  0  0
    9.2802   -6.4318  -12.0092 N   0  0  0  0  0  0  0  0  0  0  0  0
   12.2628   -4.5963  -12.8297 C   0  0  0  0  0  0  0  0  0  0  0  0
    7.4681   -4.7620  -11.5565 N   0  0  0  0  0  0  0  0  0  0  0  0
   10.9445   -5.0557  -12.4766 C   0  0  0  0  0  0  0  0  0  0  0  0
   13.3810  -12.0121  -11.8148 N   0  0  0  0  0  0  0  0  0  0  0  0
   10.6416   -6.4574  -12.3648 C   0  0  0  0  0  0  0  0  0  0  0  0
   11.6989   -7.4715  -12.6283 C   0  0  0  0  0  0  0  0  0  0  0  0
    8.8081   -5.1268  -11.9160 C   0  0  0  0  0  0  0  0  0  0  0  0
   11.3577   -8.9456  -12.5147 C   0  0  0  0  0  0  0  0  0  0  0  0
   12.5517   -9.8926  -12.5706 C   0  0  1  0  0  0  0  0  0  0  0  0
   13.8654   -9.1760  -12.4419 C   0  0  0  0  0  0  0  0  0  0  0  0
   12.4058  -10.9779  -11.5147 C   0  0  0  0  0  0  0  0  0  0  0  0
    8.4411   -7.6343  -11.8444 C   0  0  0  0  0  0  0  0  0  0  0  0
   13.6224  -12.7844  -10.6037 C   0  0  0  0  0  0  0  0  0  0  0  0
   12.8066  -12.8703  -12.8391 C   0  0  0  0  0  0  0  0  0  0  0  0
    8.4348   -8.2469  -10.4332 C   0  0  0  0  0  0  0  0  0  0  0  0
    7.2394   -9.2127  -10.3294 C   0  0  0  0  0  0  0  0  0  0  0  0
    7.9601  -11.4800   -9.9016 C   0  0  0  0  0  0  0  0  0  0  0  0
  1 23  1  0  0  0  0
  1 24  1  0  0  0  0
  1  2  1  0  0  0  0
  3  4  1  0  0  0  0
  3 17  1  0  0  0  0
  4  6  2  0  0  0  0
  4 13  1  0  0  0  0
  5 10  1  0  0  0  0
  5 14  2  0  0  0  0
  6  8  1  0  0  0  0
  7 12  1  0  0  0  0
  7 14  1  0  0  0  0
  7 19  1  0  0  0  0
  8 10  2  0  0  0  0
  9 14  1  0  0  0  0
 10 12  1  0  0  0  0
 11 18  1  0  0  0  0
 11 20  1  0  0  0  0
 11 21  1  0  0  0  0
 12 13  2  0  0  0  0
 13 15  1  0  0  0  0
 15 16  1  0  0  0  0
 16 17  1  0  0  0  0
 16 18  1  1  0  0  0
 19 22  1  0  0  0  0
 22 23  1  0  0  0  0
M  END
>  <CHROM.1>
-143.42696877,88.96374127,158.96615248,166.76645546,164.16817615,81.39412230
10.68213650,-8.46395920,-11.90774367,1.07261917,-0.26064858,2.96416697

>  <Name>
ligand

>  <RI>
0

>  <Rbt.Current_Directory>
/home/itssahil/PROJECTS/Mol_Feturizer/New_Systems/rnas/3TZR

>  <Rbt.Executable>
rbdock ($Id: //depot/dev/client3/rdock/2013.1/src/exe/rbdock.cxx#4 $)

>  <Rbt.Library>
libRbt.so (2013.1, Build901 2013/11/27)

>  <Rbt.Parameter_File>
/export/apps/rDock/src/rDock_2013.1_src/data/scripts/dock_solv.prm

>  <Rbt.Receptor>
prm/pocket_docking_3.prm

>  <SCORE>
-33.6613

>  <SCORE.INTER>
-23.5362

>  <SCORE.INTER.CONST>
1

>  <SCORE.INTER.POLAR>
0

>  <SCORE.INTER.ROT>
6

>  <SCORE.INTER.SOLV>
20.2812

>  <SCORE.INTER.VDW>
-30.0512

>  <SCORE.INTER.norm>
-0.980675

>  <SCORE.INTRA>
-10.1251

>  <SCORE.INTRA.DIHEDRAL>
1.83969

>  <SCORE.INTRA.DIHEDRAL.0>
4.94008

>  <SCORE.INTRA.POLAR>
0

>  <SCORE.INTRA.POLAR.0>
0

>  <SCORE.INTRA.REPUL>
0

>  <SCORE.INTRA.REPUL.0>
0

>  <SCORE.INTRA.SOLV>
0.149142

>  <SCORE.INTRA.SOLV.lig_0>
-31.4704

>  <SCORE.INTRA.VDW>
-11.1195

>  <SCORE.INTRA.VDW.0>
10.2807

>  <SCORE.INTRA.norm>
-0.421881

>  <SCORE.RESTR>
0

>  <SCORE.RESTR.CAVITY>
0

>  <SCORE.RESTR.norm>
0

>  <SCORE.SYSTEM>
0

>  <SCORE.SYSTEM.CONST>
0

>  <SCORE.SYSTEM.DIHEDRAL>
0

>  <SCORE.SYSTEM.SOLV>
0

>  <SCORE.SYSTEM.norm>
0

>  <SCORE.heavy>
24

>  <SCORE.norm>
-1.40256

>  <RMSD>
1.290

$$$$
ligand
 OpenBabel11021811493D
libRbt.so/2013.1/901 2013/11/27
 24 26  0  0  0  0  0  0  0  0999 V2000
    6.1049  -10.2669  -11.4516 N   0  0  0  0  0  0  0  0  0  0  0  0
    5.2817  -11.1923  -10.6899 C   0  0  0  0  0  0  0  0  0  0  0  0
   13.2068   -5.9926  -12.9249 O   0  0  0  0  0  0  0  0  0  0  0  0
   11.8980   -5.5598  -12.7589 C   0  0  0  0  0  0  0  0  0  0  0  0
    7.8103   -4.4081  -12.2863 N   0  0  0  0  0  0  0  0  0  0  0  0
   11.5439   -4.0974  -12.8112 C   0  0  0  0  0  0  0  0  0  0  0  0
    8.2475   -6.6087  -12.1773 N   0  0  0  0  0  0  0  0  0  0  0  0
   10.1981   -3.6272  -12.6709 C   0  0  0  0  0  0  0  0  0  0  0  0
    5.8583   -5.9087  -11.8975 N   0  0  0  0  0  0  0  0  0  0  0  0
    9.1841   -4.6275  -12.4590 C   0  0  0  0  0  0  0  0  0  0  0  0
   12.4895  -10.6294  -11.9731 N   0  0  0  0  0  0  0  0  0  0  0  0
    9.5108   -6.0267  -12.3916 C   0  0  0  0  0  0  0  0  0  0  0  0
   10.9220   -6.4711  -12.5545 C   0  0  0  0  0  0  0  0  0  0  0  0
    7.2498   -5.6412  -12.1210 C   0  0  0  0  0  0  0  0  0  0  0  0
   11.2456   -7.9521  -12.4900 C   0  0  0  0  0  0  0  0  0  0  0  0
   12.7319   -8.2880  -12.4319 C   0  0  1  0  0  0  0  0  0  0  0  0
   13.5876   -7.0834  -12.1625 C   0  0  0  0  0  0  0  0  0  0  0  0
   12.9785   -9.3843  -11.4065 C   0  0  0  0  0  0  0  0  0  0  0  0
    8.0022   -8.0622  -12.1103 C   0  0  0  0  0  0  0  0  0  0  0  0
   13.5419  -11.2056  -12.7990 C   0  0  0  0  0  0  0  0  0  0  0  0
   12.1872  -11.5239  -10.8668 C   0  0  0  0  0  0  0  0  0  0  0  0
    7.8366   -8.6395  -10.6940 C   0  0  0  0  0  0  0  0  0  0  0  0
    7.4230  -10.1179  -10.8185 C   0  0  0  0  0  0  0  0  0  0  0  0
    6.2259  -10.7818  -12.8109 C   0  0  0  0  0  0  0  0  0  0  0  0
  1 23  1  0  0  0  0
  1 24  1  0  0  0  0
  1  2  1  0  0  0  0
  3  4  1  0  0  0  0
  3 17  1  0  0  0  0
  4  6  2  0  0  0  0
  4 13  1  0  0  0  0
  5 10  1  0  0  0  0
  5 14  2  0  0  0  0
  6  8  1  0  0  0  0
  7 12  1  0  0  0  0
  7 14  1  0  0  0  0
  7 19  1  0  0  0  0
  8 10  2  0  0  0  0
  9 14  1  0  0  0  0
 10 12  1  0  0  0  0
 11 18  1  0  0  0  0
 11 20  1  0  0  0  0
 11 21  1  0  0  0  0
 12 13  2  0  0  0  0
 13 15  1  0  0  0  0
 15 16  1  0  0  0  0
 16 17  1  0  0  0  0
 16 18  1  1  0  0  0
 19 22  1  0  0  0  0
 22 23  1  0  0  0  0
M  END
>  <CHROM.1>
-132.79899865,101.60316769,85.23651718,73.33754632,173.28132778,-64.48378473
9.79706643,-7.81048722,-12.05382228,-2.87721661,0.09548164,-0.15715483

>  <Name>
ligand

>  <RI>
0

>  <Rbt.Current_Directory>
/home/itssahil/PROJECTS/Mol_Feturizer/New_Systems/rnas/3TZR

>  <Rbt.Executable>
rbdock ($Id: //depot/dev/client3/rdock/2013.1/src/exe/rbdock.cxx#4 $)

>  <Rbt.Library>
libRbt.so (2013.1, Build901 2013/11/27)

>  <Rbt.Parameter_File>
/export/apps/rDock/src/rDock_2013.1_src/data/scripts/dock_solv.prm

>  <Rbt.Receptor>
prm/pocket_docking_5.prm

>  <SCORE>
-36.2678

>  <SCORE.INTER>
-25.4679

>  <SCORE.INTER.CONST>
1

>  <SCORE.INTER.POLAR>
0

>  <SCORE.INTER.ROT>
6

>  <SCORE.INTER.SOLV>
21.2671

>  <SCORE.INTER.VDW>
-31.6676

>  <SCORE.INTER.norm>
-1.06116

>  <SCORE.INTRA>
-10.7999

>  <SCORE.INTRA.DIHEDRAL>
0.281538

>  <SCORE.INTRA.DIHEDRAL.0>
4.94008

>  <SCORE.INTRA.POLAR>
0

>  <SCORE.INTRA.POLAR.0>
0

>  <SCORE.INTRA.REPUL>
0

>  <SCORE.INTRA.REPUL.0>
0

>  <SCORE.INTRA.SOLV>
0.350102

>  <SCORE.INTRA.SOLV.lig_0>
-31.4704

>  <SCORE.INTRA.VDW>
-11.1158

>  <SCORE.INTRA.VDW.0>
10.2807

>  <SCORE.INTRA.norm>
-0.449997

>  <SCORE.RESTR>
0

>  <SCORE.RESTR.CAVITY>
0

>  <SCORE.RESTR.norm>
0

>  <SCORE.SYSTEM>
0

>  <SCORE.SYSTEM.CONST>
0

>  <SCORE.SYSTEM.DIHEDRAL>
0

>  <SCORE.SYSTEM.SOLV>
0

>  <SCORE.SYSTEM.norm>
0

>  <SCORE.heavy>
24

>  <SCORE.norm>
-1.51116

>  <RMSD>
1.290

$$$$
ligand
 OpenBabel11021811493D
libRbt.so/2013.1/901 2013/11/27
 24 26  0  0  0  0  0  0  0  0999 V2000
    6.0778  -10.3098  -11.5110 N   0  0  0  0  0  0  0  0  0  0  0  0
    5.2707  -11.2626  -10.7659 C   0  0  0  0  0  0  0  0  0  0  0  0
   13.1863   -6.0143  -12.9225 O   0  0  0  0  0  0  0  0  0  0  0  0
   11.8795   -5.5777  -12.7510 C   0  0  0  0  0  0  0  0  0  0  0  0
    7.7972   -4.4133  -12.2635 N   0  0  0  0  0  0  0  0  0  0  0  0
   11.5321   -4.1131  -12.7852 C   0  0  0  0  0  0  0  0  0  0  0  0
    8.2244   -6.6170  -12.1817 N   0  0  0  0  0  0  0  0  0  0  0  0
   10.1884   -3.6386  -12.6388 C   0  0  0  0  0  0  0  0  0  0  0  0
    5.8384   -5.9097  -11.8929 N   0  0  0  0  0  0  0  0  0  0  0  0
    9.1700   -4.6368  -12.4392 C   0  0  0  0  0  0  0  0  0  0  0  0
   12.3703  -10.6423  -11.9908 N   0  0  0  0  0  0  0  0  0  0  0  0
    9.4902   -6.0382  -12.3891 C   0  0  0  0  0  0  0  0  0  0  0  0
   10.8994   -6.4869  -12.5577 C   0  0  0  0  0  0  0  0  0  0  0  0
    7.2311   -5.6459  -12.1133 C   0  0  0  0  0  0  0  0  0  0  0  0
   11.2163   -7.9701  -12.5115 C   0  0  0  0  0  0  0  0  0  0  0  0
   12.7011   -8.3134  -12.4578 C   0  0  1  0  0  0  0  0  0  0  0  0
   13.5623   -7.1161  -12.1738 C   0  0  0  0  0  0  0  0  0  0  0  0
   12.9429   -9.4233  -11.4460 C   0  0  0  0  0  0  0  0  0  0  0  0
    7.9725   -8.0701  -12.1326 C   0  0  0  0  0  0  0  0  0  0  0  0
   13.3464  -11.2520  -12.8837 C   0  0  0  0  0  0  0  0  0  0  0  0
   12.0999  -11.5349  -10.8747 C   0  0  0  0  0  0  0  0  0  0  0  0
    7.7744   -8.6590  -10.7252 C   0  0  0  0  0  0  0  0  0  0  0  0
    7.3903  -10.1434  -10.8705 C   0  0  0  0  0  0  0  0  0  0  0  0
    6.2143  -10.8025  -12.8770 C   0  0  0  0  0  0  0  0  0  0  0  0
  1 23  1  0  0  0  0
  1 24  1  0  0  0  0
  1  2  1  0  0  0  0
  3  4  1  0  0  0  0
  3 17  1  0  0  0  0
  4  6  2  0  0  0  0
  4 13  1  0  0  0  0
  5 10  1  0  0  0  0
  5 14  2  0  0  0  0
  6  8  1  0  0  0  0
  7 12  1  0  0  0  0
  7 14  1  0  0  0  0
  7 19  1  0  0  0  0
  8 10  2  0  0  0  0
  9 14  1  0  0  0  0
 10 12  1  0  0  0  0
 11 18  1  0  0  0  0
 11 20  1  0  0  0  0
 11 21  1  0  0  0  0
 12 13  2  0  0  0  0
 13 15  1  0  0  0  0
 15 16  1  0  0  0  0
 16 17  1  0  0  0  0
 16 18  1  1  0  0  0
 19 22  1  0  0  0  0
 22 23  1  0  0  0  0
M  END
>  <CHROM.1>
-132.89040848,102.86343695,84.22876872,69.70770003,174.58206050,-66.03700536
9.75869203,-7.83166617,-12.07202631,-2.82908884,0.09439759,-0.14418189

>  <Name>
ligand

>  <RI>
0

>  <Rbt.Current_Directory>
/home/itssahil/PROJECTS/Mol_Feturizer/New_Systems/rnas/3TZR

>  <Rbt.Executable>
rbdock ($Id: //depot/dev/client3/rdock/2013.1/src/exe/rbdock.cxx#4 $)

>  <Rbt.Library>
libRbt.so (2013.1, Build901 2013/11/27)

>  <Rbt.Parameter_File>
/export/apps/rDock/src/rDock_2013.1_src/data/scripts/dock_solv.prm

>  <Rbt.Receptor>
prm/pocket_docking_4.prm

>  <SCORE>
-36.2323

>  <SCORE.INTER>
-25.3053

>  <SCORE.INTER.CONST>
1

>  <SCORE.INTER.POLAR>
0

>  <SCORE.INTER.ROT>
6

>  <SCORE.INTER.SOLV>
21.2278

>  <SCORE.INTER.VDW>
-31.5462

>  <SCORE.INTER.norm>
-1.05439

>  <SCORE.INTRA>
-10.927

>  <SCORE.INTRA.DIHEDRAL>
-0.0545802

>  <SCORE.INTRA.DIHEDRAL.0>
4.94008

>  <SCORE.INTRA.POLAR>
0

>  <SCORE.INTRA.POLAR.0>
0

>  <SCORE.INTRA.REPUL>
0

>  <SCORE.INTRA.REPUL.0>
0

>  <SCORE.INTRA.SOLV>
0.356588

>  <SCORE.INTRA.SOLV.lig_0>
-31.4704

>  <SCORE.INTRA.VDW>
-11.078

>  <SCORE.INTRA.VDW.0>
10.2807

>  <SCORE.INTRA.norm>
-0.455291

>  <SCORE.RESTR>
0

>  <SCORE.RESTR.CAVITY>
0

>  <SCORE.RESTR.norm>
0

>  <SCORE.SYSTEM>
0

>  <SCORE.SYSTEM.CONST>
0

>  <SCORE.SYSTEM.DIHEDRAL>
0

>  <SCORE.SYSTEM.SOLV>
0

>  <SCORE.SYSTEM.norm>
0

>  <SCORE.heavy>
24

>  <SCORE.norm>
-1.50968

>  <RMSD>
1.292

$$$$
ligand
 OpenBabel11021811493D
libRbt.so/2013.1/901 2013/11/27
 24 26  0  0  0  0  0  0  0  0999 V2000
    7.0936  -10.5838  -11.6030 N   0  0  0  0  0  0  0  0  0  0  0  0
    6.2939  -10.1915  -12.7523 C   0  0  0  0  0  0  0  0  0  0  0  0
   13.6624   -7.5822  -13.2341 O   0  0  0  0  0  0  0  0  0  0  0  0
   12.6245   -6.7434  -12.8508 C   0  0  0  0  0  0  0  0  0  0  0  0
    9.3054   -4.3030  -11.7162 N   0  0  0  0  0  0  0  0  0  0  0  0
   12.8238   -5.2561  -12.7280 C   0  0  0  0  0  0  0  0  0  0  0  0
    8.9198   -6.5114  -11.8578 N   0  0  0  0  0  0  0  0  0  0  0  0
   11.7627   -4.3662  -12.3617 C   0  0  0  0  0  0  0  0  0  0  0  0
    6.9899   -5.0607  -11.1888 N   0  0  0  0  0  0  0  0  0  0  0  0
   10.4806   -4.9659  -12.0969 C   0  0  0  0  0  0  0  0  0  0  0  0
   13.3100  -11.8138  -12.5259 N   0  0  0  0  0  0  0  0  0  0  0  0
   10.2803   -6.3868  -12.1956 C   0  0  0  0  0  0  0  0  0  0  0  0
   11.4092   -7.2728  -12.5910 C   0  0  0  0  0  0  0  0  0  0  0  0
    8.3537   -5.2716  -11.5804 C   0  0  0  0  0  0  0  0  0  0  0  0
   11.1760   -8.7681  -12.6991 C   0  0  0  0  0  0  0  0  0  0  0  0
   12.4359   -9.6085  -12.8777 C   0  0  1  0  0  0  0  0  0  0  0  0
   13.6937   -8.8264  -12.6283 C   0  0  0  0  0  0  0  0  0  0  0  0
   12.3670  -10.8449  -11.9942 C   0  0  0  0  0  0  0  0  0  0  0  0
    8.1701   -7.7821  -11.8818 C   0  0  0  0  0  0  0  0  0  0  0  0
   13.9387  -12.5068  -11.4095 C   0  0  0  0  0  0  0  0  0  0  0  0
   12.5555  -12.7616  -13.3309 C   0  0  0  0  0  0  0  0  0  0  0  0
    8.2357   -8.6123  -10.5882 C   0  0  0  0  0  0  0  0  0  0  0  0
    7.0186   -9.5556  -10.5554 C   0  0  0  0  0  0  0  0  0  0  0  0
    6.5953  -11.8672  -11.1214 C   0  0  0  0  0  0  0  0  0  0  0  0
  1 23  1  0  0  0  0
  1 24  1  0  0  0  0
  1  2  1  0  0  0  0
  3  4  1  0  0  0  0
  3 17  1  0  0  0  0
  4  6  2  0  0  0  0
  4 13  1  0  0  0  0
  5 10  1  0  0  0  0
  5 14  2  0  0  0  0
  6  8  1  0  0  0  0
  7 12  1  0  0  0  0
  7 14  1  0  0  0  0
  7 19  1  0  0  0  0
  8 10  2  0  0  0  0
  9 14  1  0  0  0  0
 10 12  1  0  0  0  0
 11 18  1  0  0  0  0
 11 20  1  0  0  0  0
 11 21  1  0  0  0  0
 12 13  2  0  0  0  0
 13 15  1  0  0  0  0
 15 16  1  0  0  0  0
 16 17  1  0  0  0  0
 16 18  1  1  0  0  0
 19 22  1  0  0  0  0
 22 23  1  0  0  0  0
M  END
>  <CHROM.1>
-98.14411851,87.41983596,142.43145147,160.32001300,157.75427579,67.50515359
10.37212450,-8.36987208,-12.09336609,2.34896534,0.19881413,-0.01765238

>  <Name>
ligand

>  <RI>
0

>  <Rbt.Current_Directory>
/home/itssahil/PROJECTS/Mol_Feturizer/New_Systems/rnas/3TZR

>  <Rbt.Executable>
rbdock ($Id: //depot/dev/client3/rdock/2013.1/src/exe/rbdock.cxx#4 $)

>  <Rbt.Library>
libRbt.so (2013.1, Build901 2013/11/27)

>  <Rbt.Parameter_File>
/export/apps/rDock/src/rDock_2013.1_src/data/scripts/dock_solv.prm

>  <Rbt.Receptor>
prm/blind_docking_80.prm

>  <SCORE>
-30.9433

>  <SCORE.INTER>
-21.6049

>  <SCORE.INTER.CONST>
1

>  <SCORE.INTER.POLAR>
0

>  <SCORE.INTER.ROT>
6

>  <SCORE.INTER.SOLV>
21.9231

>  <SCORE.INTER.VDW>
-29.311

>  <SCORE.INTER.norm>
-0.900205

>  <SCORE.INTRA>
-9.40077

>  <SCORE.INTRA.DIHEDRAL>
3.01904

>  <SCORE.INTRA.DIHEDRAL.0>
4.94008

>  <SCORE.INTRA.POLAR>
0

>  <SCORE.INTRA.POLAR.0>
0

>  <SCORE.INTRA.REPUL>
0

>  <SCORE.INTRA.REPUL.0>
0

>  <SCORE.INTRA.SOLV>
0.189945

>  <SCORE.INTRA.SOLV.lig_0>
-31.4704

>  <SCORE.INTRA.VDW>
-11.0053

>  <SCORE.INTRA.VDW.0>
10.2807

>  <SCORE.INTRA.norm>
-0.391699

>  <SCORE.RESTR>
0.0623908

>  <SCORE.RESTR.CAVITY>
0.0623908

>  <SCORE.RESTR.norm>
0.00259962

>  <SCORE.SYSTEM>
0

>  <SCORE.SYSTEM.CONST>
0

>  <SCORE.SYSTEM.DIHEDRAL>
0

>  <SCORE.SYSTEM.SOLV>
0

>  <SCORE.SYSTEM.norm>
0

>  <SCORE.heavy>
24

>  <SCORE.norm>
-1.2893

>  <RMSD>
1.294

$$$$
ligand
 OpenBabel11021811493D
libRbt.so/2013.1/901 2013/11/27
 24 26  0  0  0  0  0  0  0  0999 V2000
    6.0575  -10.2447  -11.5374 N   0  0  0  0  0  0  0  0  0  0  0  0
    5.1484  -11.0735  -10.7622 C   0  0  0  0  0  0  0  0  0  0  0  0
   13.2213   -6.0430  -12.9281 O   0  0  0  0  0  0  0  0  0  0  0  0
   11.9159   -5.6017  -12.7582 C   0  0  0  0  0  0  0  0  0  0  0  0
    7.8371   -4.4232  -12.2748 N   0  0  0  0  0  0  0  0  0  0  0  0
   11.5724   -4.1365  -12.8013 C   0  0  0  0  0  0  0  0  0  0  0  0
    8.2584   -6.6275  -12.1796 N   0  0  0  0  0  0  0  0  0  0  0  0
   10.2301   -3.6574  -12.6568 C   0  0  0  0  0  0  0  0  0  0  0  0
    5.8746   -5.9119  -11.8933 N   0  0  0  0  0  0  0  0  0  0  0  0
    9.2092   -4.6515  -12.4501 C   0  0  0  0  0  0  0  0  0  0  0  0
   12.4282  -10.6711  -11.9839 N   0  0  0  0  0  0  0  0  0  0  0  0
    9.5256   -6.0535  -12.3916 C   0  0  0  0  0  0  0  0  0  0  0  0
   10.9335   -6.5071  -12.5585 C   0  0  0  0  0  0  0  0  0  0  0  0
    7.2678   -5.6533  -12.1165 C   0  0  0  0  0  0  0  0  0  0  0  0
   11.2463   -7.9908  -12.5033 C   0  0  0  0  0  0  0  0  0  0  0  0
   12.7302   -8.3378  -12.4486 C   0  0  1  0  0  0  0  0  0  0  0  0
   13.5949   -7.1411  -12.1727 C   0  0  0  0  0  0  0  0  0  0  0  0
   12.9698   -9.4421  -11.4301 C   0  0  0  0  0  0  0  0  0  0  0  0
    8.0026   -8.0796  -12.1213 C   0  0  0  0  0  0  0  0  0  0  0  0
   13.4633  -11.3130  -12.7829 C   0  0  0  0  0  0  0  0  0  0  0  0
   12.0647  -11.5303  -10.8680 C   0  0  0  0  0  0  0  0  0  0  0  0
    7.7950   -8.6576  -10.7107 C   0  0  0  0  0  0  0  0  0  0  0  0
    7.3508  -10.1259  -10.8491 C   0  0  0  0  0  0  0  0  0  0  0  0
    6.2129  -10.8523  -12.8543 C   0  0  0  0  0  0  0  0  0  0  0  0
  1 23  1  0  0  0  0
  1 24  1  0  0  0  0
  1  2  1  0  0  0  0
  3  4  1  0  0  0  0
  3 17  1  0  0  0  0
  4  6  2  0  0  0  0
  4 13  1  0  0  0  0
  5 10  1  0  0  0  0
  5 14  2  0  0  0  0
  6  8  1  0  0  0  0
  7 12  1  0  0  0  0
  7 14  1  0  0  0  0
  7 19  1  0  0  0  0
  8 10  2  0  0  0  0
  9 14  1  0  0  0  0
 10 12  1  0  0  0  0
 11 18  1  0  0  0  0
 11 20  1  0  0  0  0
 11 21  1  0  0  0  0
 12 13  2  0  0  0  0
 13 15  1  0  0  0  0
 15 16  1  0  0  0  0
 16 17  1  0  0  0  0
 16 18  1  1  0  0  0
 19 22  1  0  0  0  0
 22 23  1  0  0  0  0
M  END
>  <CHROM.1>
-128.89867267,103.24231798,88.06044285,71.34167663,172.25023897,-63.15982927
9.77995333,-7.83654463,-12.06608358,-2.87735118,0.09372994,-0.14799768

>  <Name>
ligand

>  <RI>
0

>  <Rbt.Current_Directory>
/home/itssahil/PROJECTS/Mol_Feturizer/New_Systems/rnas/3TZR

>  <Rbt.Executable>
rbdock ($Id: //depot/dev/client3/rdock/2013.1/src/exe/rbdock.cxx#4 $)

>  <Rbt.Library>
libRbt.so (2013.1, Build901 2013/11/27)

>  <Rbt.Parameter_File>
/export/apps/rDock/src/rDock_2013.1_src/data/scripts/dock_solv.prm

>  <Rbt.Receptor>
prm/blind_docking_40.prm

>  <SCORE>
-36.0951

>  <SCORE.INTER>
-25.2517

>  <SCORE.INTER.CONST>
1

>  <SCORE.INTER.POLAR>
0

>  <SCORE.INTER.ROT>
6

>  <SCORE.INTER.SOLV>
21.1691

>  <SCORE.INTER.VDW>
-31.4908

>  <SCORE.INTER.norm>
-1.05215

>  <SCORE.INTRA>
-10.8434

>  <SCORE.INTRA.DIHEDRAL>
0.439119

>  <SCORE.INTRA.DIHEDRAL.0>
4.94008

>  <SCORE.INTRA.POLAR>
0

>  <SCORE.INTRA.POLAR.0>
0

>  <SCORE.INTRA.REPUL>
0

>  <SCORE.INTRA.REPUL.0>
0

>  <SCORE.INTRA.SOLV>
0.461125

>  <SCORE.INTRA.SOLV.lig_0>
-31.4704

>  <SCORE.INTRA.VDW>
-11.2935

>  <SCORE.INTRA.VDW.0>
10.2807

>  <SCORE.INTRA.norm>
-0.451808

>  <SCORE.RESTR>
0

>  <SCORE.RESTR.CAVITY>
0

>  <SCORE.RESTR.norm>
0

>  <SCORE.SYSTEM>
0

>  <SCORE.SYSTEM.CONST>
0

>  <SCORE.SYSTEM.DIHEDRAL>
0

>  <SCORE.SYSTEM.SOLV>
0

>  <SCORE.SYSTEM.norm>
0

>  <SCORE.heavy>
24

>  <SCORE.norm>
-1.50396

>  <RMSD>
1.295

$$$$
ligand
 OpenBabel11021811493D
libRbt.so/2013.1/901 2013/11/27
 24 26  0  0  0  0  0  0  0  0999 V2000
    6.0344  -10.2521  -11.5370 N   0  0  0  0  0  0  0  0  0  0  0  0
    5.1259  -11.0617  -10.7410 C   0  0  0  0  0  0  0  0  0  0  0  0
   13.2269   -6.0380  -12.9147 O   0  0  0  0  0  0  0  0  0  0  0  0
   11.9188   -5.6009  -12.7546 C   0  0  0  0  0  0  0  0  0  0  0  0
    7.8328   -4.4358  -12.3009 N   0  0  0  0  0  0  0  0  0  0  0  0
   11.5701   -4.1372  -12.8059 C   0  0  0  0  0  0  0  0  0  0  0  0
    8.2617   -6.6382  -12.1940 N   0  0  0  0  0  0  0  0  0  0  0  0
   10.2252   -3.6625  -12.6716 C   0  0  0  0  0  0  0  0  0  0  0  0
    5.8735   -5.9304  -11.9252 N   0  0  0  0  0  0  0  0  0  0  0  0
    9.2067   -4.6597  -12.4669 C   0  0  0  0  0  0  0  0  0  0  0  0
   12.4327  -10.6622  -11.9500 N   0  0  0  0  0  0  0  0  0  0  0  0
    9.5281   -6.0602  -12.4006 C   0  0  0  0  0  0  0  0  0  0  0  0
   10.9386   -6.5092  -12.5571 C   0  0  0  0  0  0  0  0  0  0  0  0
    7.2671   -5.6674  -12.1410 C   0  0  0  0  0  0  0  0  0  0  0  0
   11.2567   -7.9914  -12.4938 C   0  0  0  0  0  0  0  0  0  0  0  0
   12.7415   -8.3326  -12.4286 C   0  0  1  0  0  0  0  0  0  0  0  0
   13.6000   -7.1315  -12.1525 C   0  0  0  0  0  0  0  0  0  0  0  0
   12.9790   -9.4317  -11.4041 C   0  0  0  0  0  0  0  0  0  0  0  0
    8.0110   -8.0909  -12.1311 C   0  0  0  0  0  0  0  0  0  0  0  0
   13.4349  -11.2680  -12.8162 C   0  0  0  0  0  0  0  0  0  0  0  0
   12.1487  -11.5481  -10.8320 C   0  0  0  0  0  0  0  0  0  0  0  0
    7.7725   -8.6597  -10.7217 C   0  0  0  0  0  0  0  0  0  0  0  0
    7.3334  -10.1295  -10.8601 C   0  0  0  0  0  0  0  0  0  0  0  0
    6.1764  -10.8832  -12.8442 C   0  0  0  0  0  0  0  0  0  0  0  0
  1 23  1  0  0  0  0
  1 24  1  0  0  0  0
  1  2  1  0  0  0  0
  3  4  1  0  0  0  0
  3 17  1  0  0  0  0
  4  6  2  0  0  0  0
  4 13  1  0  0  0  0
  5 10  1  0  0  0  0
  5 14  2  0  0  0  0
  6  8  1  0  0  0  0
  7 12  1  0  0  0  0
  7 14  1  0  0  0  0
  7 19  1  0  0  0  0
  8 10  2  0  0  0  0
  9 14  1  0  0  0  0
 10 12  1  0  0  0  0
 11 18  1  0  0  0  0
 11 20  1  0  0  0  0
 11 21  1  0  0  0  0
 12 13  2  0  0  0  0
 13 15  1  0  0  0  0
 15 16  1  0  0  0  0
 16 17  1  0  0  0  0
 16 18  1  1  0  0  0
 19 22  1  0  0  0  0
 22 23  1  0  0  0  0
M  END
>  <CHROM.1>
-127.59991765,104.27120938,84.43896731,70.74749154,172.05244976,-65.05834740
9.77935281,-7.83866459,-12.06604766,-2.87466183,0.08904407,-0.15244694

>  <Name>
ligand

>  <RI>
144

>  <Rbt.Current_Directory>
/home/itssahil/PROJECTS/Mol_Feturizer/New_Systems/rnas/3TZR

>  <Rbt.Executable>
rbdock ($Id: //depot/dev/client3/rdock/2013.1/src/exe/rbdock.cxx#4 $)

>  <Rbt.Library>
libRbt.so (2013.1, Build901 2013/11/27)

>  <Rbt.Parameter_File>
/export/apps/rDock/src/rDock_2013.1_src/data/scripts/dock_solv.prm

>  <Rbt.Receptor>
prm/blind_docking_60.prm

>  <SCORE>
-36.2016

>  <SCORE.INTER>
-25.4342

>  <SCORE.INTER.CONST>
1

>  <SCORE.INTER.POLAR>
0

>  <SCORE.INTER.ROT>
6

>  <SCORE.INTER.SOLV>
21.1461

>  <SCORE.INTER.VDW>
-31.6049

>  <SCORE.INTER.norm>
-1.05976

>  <SCORE.INTRA>
-10.7674

>  <SCORE.INTRA.DIHEDRAL>
0.275449

>  <SCORE.INTRA.DIHEDRAL.0>
4.94008

>  <SCORE.INTRA.POLAR>
0

>  <SCORE.INTRA.POLAR.0>
0

>  <SCORE.INTRA.REPUL>
0

>  <SCORE.INTRA.REPUL.0>
0

>  <SCORE.INTRA.SOLV>
0.501037

>  <SCORE.INTRA.SOLV.lig_0>
-31.4704

>  <SCORE.INTRA.VDW>
-11.1556

>  <SCORE.INTRA.VDW.0>
10.2807

>  <SCORE.INTRA.norm>
-0.44864

>  <SCORE.RESTR>
0

>  <SCORE.RESTR.CAVITY>
0

>  <SCORE.RESTR.norm>
0

>  <SCORE.SYSTEM>
0

>  <SCORE.SYSTEM.CONST>
0

>  <SCORE.SYSTEM.DIHEDRAL>
0

>  <SCORE.SYSTEM.SOLV>
0

>  <SCORE.SYSTEM.norm>
0

>  <SCORE.heavy>
24

>  <SCORE.norm>
-1.5084

>  <RMSD>
1.295

$$$$
ligand
 OpenBabel11021811493D
libRbt.so/2013.1/901 2013/11/27
 24 26  0  0  0  0  0  0  0  0999 V2000
    6.0247  -10.2168  -11.5288 N   0  0  0  0  0  0  0  0  0  0  0  0
    5.1086  -11.0469  -10.7633 C   0  0  0  0  0  0  0  0  0  0  0  0
   13.2091   -6.0724  -12.9077 O   0  0  0  0  0  0  0  0  0  0  0  0
   11.9049   -5.6242  -12.7472 C   0  0  0  0  0  0  0  0  0  0  0  0
    7.8292   -4.4239  -12.2921 N   0  0  0  0  0  0  0  0  0  0  0  0
   11.5688   -4.1574  -12.7981 C   0  0  0  0  0  0  0  0  0  0  0  0
    8.2391   -6.6299  -12.1858 N   0  0  0  0  0  0  0  0  0  0  0  0
   10.2281   -3.6712  -12.6633 C   0  0  0  0  0  0  0  0  0  0  0  0
    5.8572   -5.9015  -11.9162 N   0  0  0  0  0  0  0  0  0  0  0  0
    9.2011   -4.6596  -12.4586 C   0  0  0  0  0  0  0  0  0  0  0  0
   12.3241  -10.6766  -11.9183 N   0  0  0  0  0  0  0  0  0  0  0  0
    9.5104   -6.0628  -12.3927 C   0  0  0  0  0  0  0  0  0  0  0  0
   10.9169   -6.5239  -12.5496 C   0  0  0  0  0  0  0  0  0  0  0  0
    7.2529   -5.6505  -12.1323 C   0  0  0  0  0  0  0  0  0  0  0  0
   11.2222   -8.0089  -12.4867 C   0  0  0  0  0  0  0  0  0  0  0  0
   12.7041   -8.3629  -12.4220 C   0  0  1  0  0  0  0  0  0  0  0  0
   13.5730   -7.1693  -12.1459 C   0  0  0  0  0  0  0  0  0  0  0  0
   12.9324   -9.4642  -11.3978 C   0  0  0  0  0  0  0  0  0  0  0  0
    7.9759   -8.0804  -12.1232 C   0  0  0  0  0  0  0  0  0  0  0  0
   13.2852  -11.3374  -12.7909 C   0  0  0  0  0  0  0  0  0  0  0  0
   12.0191  -11.5342  -10.7838 C   0  0  0  0  0  0  0  0  0  0  0  0
    7.7908   -8.6577  -10.7093 C   0  0  0  0  0  0  0  0  0  0  0  0
    7.3194  -10.1182  -10.8399 C   0  0  0  0  0  0  0  0  0  0  0  0
    6.1738  -10.8092  -12.8532 C   0  0  0  0  0  0  0  0  0  0  0  0
  1 23  1  0  0  0  0
  1 24  1  0  0  0  0
  1  2  1  0  0  0  0
  3  4  1  0  0  0  0
  3 17  1  0  0  0  0
  4  6  2  0  0  0  0
  4 13  1  0  0  0  0
  5 10  1  0  0  0  0
  5 14  2  0  0  0  0
  6  8  1  0  0  0  0
  7 12  1  0  0  0  0
  7 14  1  0  0  0  0
  7 19  1  0  0  0  0
  8 10  2  0  0  0  0
  9 14  1  0  0  0  0
 10 12  1  0  0  0  0
 11 18  1  0  0  0  0
 11 20  1  0  0  0  0
 11 21  1  0  0  0  0
 12 13  2  0  0  0  0
 13 15  1  0  0  0  0
 15 16  1  0  0  0  0
 16 17  1  0  0  0  0
 16 18  1  1  0  0  0
 19 22  1  0  0  0  0
 22 23  1  0  0  0  0
M  END
>  <CHROM.1>
-130.07388956,101.83869839,85.49825149,68.32213310,171.58791670,-61.74271135
9.74779743,-7.84169969,-12.05605236,-2.86436453,0.08873770,-0.15335819

>  <Name>
ligand

>  <RI>
0

>  <Rbt.Current_Directory>
/home/itssahil/PROJECTS/Mol_Feturizer/New_Systems/rnas/3TZR

>  <Rbt.Executable>
rbdock ($Id: //depot/dev/client3/rdock/2013.1/src/exe/rbdock.cxx#4 $)

>  <Rbt.Library>
libRbt.so (2013.1, Build901 2013/11/27)

>  <Rbt.Parameter_File>
/export/apps/rDock/src/rDock_2013.1_src/data/scripts/dock_solv.prm

>  <Rbt.Receptor>
prm/blind_docking_40.prm

>  <SCORE>
-36.1502

>  <SCORE.INTER>
-25.2984

>  <SCORE.INTER.CONST>
1

>  <SCORE.INTER.POLAR>
0

>  <SCORE.INTER.ROT>
6

>  <SCORE.INTER.SOLV>
21.2957

>  <SCORE.INTER.VDW>
-31.5642

>  <SCORE.INTER.norm>
-1.0541

>  <SCORE.INTRA>
-10.8518

>  <SCORE.INTRA.DIHEDRAL>
0.0705163

>  <SCORE.INTRA.DIHEDRAL.0>
4.94008

>  <SCORE.INTRA.POLAR>
0

>  <SCORE.INTRA.POLAR.0>
0

>  <SCORE.INTRA.REPUL>
0

>  <SCORE.INTRA.REPUL.0>
0

>  <SCORE.INTRA.SOLV>
0.453844

>  <SCORE.INTRA.SOLV.lig_0>
-31.4704

>  <SCORE.INTRA.VDW>
-11.114

>  <SCORE.INTRA.VDW.0>
10.2807

>  <SCORE.INTRA.norm>
-0.452158

>  <SCORE.RESTR>
0

>  <SCORE.RESTR.CAVITY>
0

>  <SCORE.RESTR.norm>
0

>  <SCORE.SYSTEM>
0

>  <SCORE.SYSTEM.CONST>
0

>  <SCORE.SYSTEM.DIHEDRAL>
0

>  <SCORE.SYSTEM.SOLV>
0

>  <SCORE.SYSTEM.norm>
0

>  <SCORE.heavy>
24

>  <SCORE.norm>
-1.50626

>  <RMSD>
1.297

$$$$
ligand
 OpenBabel11021811493D
libRbt.so/2013.1/901 2013/11/27
 24 26  0  0  0  0  0  0  0  0999 V2000
    6.7847  -10.8528  -12.1031 N   0  0  0  0  0  0  0  0  0  0  0  0
    6.0940  -11.8126  -12.9492 C   0  0  0  0  0  0  0  0  0  0  0  0
   13.5661   -7.5862  -13.3073 O   0  0  0  0  0  0  0  0  0  0  0  0
   12.4749   -6.8273  -12.9059 C   0  0  0  0  0  0  0  0  0  0  0  0
    9.0032   -4.6448  -11.7048 N   0  0  0  0  0  0  0  0  0  0  0  0
   12.5462   -5.3247  -12.8434 C   0  0  0  0  0  0  0  0  0  0  0  0
    8.8100   -6.8822  -11.7528 N   0  0  0  0  0  0  0  0  0  0  0  0
   11.4266   -4.5176  -12.4596 C   0  0  0  0  0  0  0  0  0  0  0  0
    6.7889   -5.5811  -11.0462 N   0  0  0  0  0  0  0  0  0  0  0  0
   10.2154   -5.2164  -12.1160 C   0  0  0  0  0  0  0  0  0  0  0  0
   13.5031  -11.8722  -12.5195 N   0  0  0  0  0  0  0  0  0  0  0  0
   10.1384   -6.6522  -12.1566 C   0  0  0  0  0  0  0  0  0  0  0  0
   11.3237   -7.4505  -12.5728 C   0  0  0  0  0  0  0  0  0  0  0  0
    8.1481   -5.6869  -11.4925 C   0  0  0  0  0  0  0  0  0  0  0  0
   11.2202   -8.9636  -12.6187 C   0  0  0  0  0  0  0  0  0  0  0  0
   12.5411   -9.6969  -12.8259 C   0  0  1  0  0  0  0  0  0  0  0  0
   13.7337   -8.7989  -12.6613 C   0  0  0  0  0  0  0  0  0  0  0  0
   12.6202  -10.9000  -11.8983 C   0  0  0  0  0  0  0  0  0  0  0  0
    8.1760   -8.2135  -11.6989 C   0  0  0  0  0  0  0  0  0  0  0  0
   14.2018  -12.5992  -11.4683 C   0  0  0  0  0  0  0  0  0  0  0  0
   12.6735  -12.7899  -13.2843 C   0  0  0  0  0  0  0  0  0  0  0  0
    7.0491   -8.4503  -12.7191 C   0  0  0  0  0  0  0  0  0  0  0  0
    6.1170   -9.5449  -12.1664 C   0  0  0  0  0  0  0  0  0  0  0  0
    6.7964  -11.3754  -10.7414 C   0  0  0  0  0  0  0  0  0  0  0  0
  1 23  1  0  0  0  0
  1 24  1  0  0  0  0
  1  2  1  0  0  0  0
  3  4  1  0  0  0  0
  3 17  1  0  0  0  0
  4  6  2  0  0  0  0
  4 13  1  0  0  0  0
  5 10  1  0  0  0  0
  5 14  2  0  0  0  0
  6  8  1  0  0  0  0
  7 12  1  0  0  0  0
  7 14  1  0  0  0  0
  7 19  1  0  0  0  0
  8 10  2  0  0  0  0
  9 14  1  0  0  0  0
 10 12  1  0  0  0  0
 11 18  1  0  0  0  0
 11 20  1  0  0  0  0
 11 21  1  0  0  0  0
 12 13  2  0  0  0  0
 13 15  1  0  0  0  0
 15 16  1  0  0  0  0
 16 17  1  0  0  0  0
 16 18  1  1  0  0  0
 19 22  1  0  0  0  0
 22 23  1  0  0  0  0
M  END
>  <CHROM.1>
-118.74095020,-112.40158468,147.68505307,153.71430423,-155.36111713,-67.16768032
10.22962893,-8.57019742,-12.24863331,2.64016682,0.11373181,0.01389001

>  <Name>
ligand

>  <RI>
0

>  <Rbt.Current_Directory>
/home/itssahil/PROJECTS/Mol_Feturizer/New_Systems/rnas/3TZR

>  <Rbt.Executable>
rbdock ($Id: //depot/dev/client3/rdock/2013.1/src/exe/rbdock.cxx#4 $)

>  <Rbt.Library>
libRbt.so (2013.1, Build901 2013/11/27)

>  <Rbt.Parameter_File>
/export/apps/rDock/src/rDock_2013.1_src/data/scripts/dock_solv.prm

>  <Rbt.Receptor>
prm/blind_docking_80.prm

>  <SCORE>
-28.8571

>  <SCORE.INTER>
-20.2078

>  <SCORE.INTER.CONST>
1

>  <SCORE.INTER.POLAR>
0

>  <SCORE.INTER.ROT>
6

>  <SCORE.INTER.SOLV>
20.4575

>  <SCORE.INTER.VDW>
-27.891

>  <SCORE.INTER.norm>
-0.841993

>  <SCORE.INTRA>
-8.64924

>  <SCORE.INTRA.DIHEDRAL>
4.37462

>  <SCORE.INTRA.DIHEDRAL.0>
4.94008

>  <SCORE.INTRA.POLAR>
0

>  <SCORE.INTRA.POLAR.0>
0

>  <SCORE.INTRA.REPUL>
0

>  <SCORE.INTRA.REPUL.0>
0

>  <SCORE.INTRA.SOLV>
1.0709

>  <SCORE.INTRA.SOLV.lig_0>
-31.4704

>  <SCORE.INTRA.VDW>
-11.372

>  <SCORE.INTRA.VDW.0>
10.2807

>  <SCORE.INTRA.norm>
-0.360385

>  <SCORE.RESTR>
0

>  <SCORE.RESTR.CAVITY>
0

>  <SCORE.RESTR.norm>
0

>  <SCORE.SYSTEM>
0

>  <SCORE.SYSTEM.CONST>
0

>  <SCORE.SYSTEM.DIHEDRAL>
0

>  <SCORE.SYSTEM.SOLV>
0

>  <SCORE.SYSTEM.norm>
0

>  <SCORE.heavy>
24

>  <SCORE.norm>
-1.20238

>  <RMSD>
1.297

$$$$
ligand
 OpenBabel11021811493D
libRbt.so/2013.1/901 2013/11/27
 24 26  0  0  0  0  0  0  0  0999 V2000
    7.5689  -10.4802  -10.8535 N   0  0  0  0  0  0  0  0  0  0  0  0
    6.3531  -10.9933  -11.4639 C   0  0  0  0  0  0  0  0  0  0  0  0
   14.0433   -7.6476  -12.9723 O   0  0  0  0  0  0  0  0  0  0  0  0
   12.9721   -6.7722  -12.8538 C   0  0  0  0  0  0  0  0  0  0  0  0
    9.5557   -4.2293  -12.5064 N   0  0  0  0  0  0  0  0  0  0  0  0
   13.1419   -5.2923  -13.0728 C   0  0  0  0  0  0  0  0  0  0  0  0
    9.2118   -6.4197  -12.1466 N   0  0  0  0  0  0  0  0  0  0  0  0
   12.0479   -4.3719  -12.9840 C   0  0  0  0  0  0  0  0  0  0  0  0
    7.2244   -4.9080  -11.9431 N   0  0  0  0  0  0  0  0  0  0  0  0
   10.7612   -4.9292  -12.6562 C   0  0  0  0  0  0  0  0  0  0  0  0
   11.8628  -11.6490  -11.5162 N   0  0  0  0  0  0  0  0  0  0  0  0
   10.5881   -6.3390  -12.4294 C   0  0  0  0  0  0  0  0  0  0  0  0
   11.7515   -7.2605  -12.5438 C   0  0  0  0  0  0  0  0  0  0  0  0
    8.6120   -5.1659  -12.1993 C   0  0  0  0  0  0  0  0  0  0  0  0
   11.5471   -8.7457  -12.3104 C   0  0  0  0  0  0  0  0  0  0  0  0
   12.8277   -9.5686  -12.2178 C   0  0  1  0  0  0  0  0  0  0  0  0
   14.0567   -8.7146  -12.0907 C   0  0  0  0  0  0  0  0  0  0  0  0
   12.7244  -10.5661  -11.0739 C   0  0  0  0  0  0  0  0  0  0  0  0
    8.4837   -7.6815  -11.9126 C   0  0  0  0  0  0  0  0  0  0  0  0
   12.6612  -12.5851  -12.2960 C   0  0  0  0  0  0  0  0  0  0  0  0
   11.3492  -12.3119  -10.3278 C   0  0  0  0  0  0  0  0  0  0  0  0
    8.5206   -8.2072  -10.4672 C   0  0  0  0  0  0  0  0  0  0  0  0
    7.3237   -9.1555  -10.2656 C   0  0  0  0  0  0  0  0  0  0  0  0
    8.0057  -11.4355   -9.8415 C   0  0  0  0  0  0  0  0  0  0  0  0
  1 23  1  0  0  0  0
  1 24  1  0  0  0  0
  1  2  1  0  0  0  0
  3  4  1  0  0  0  0
  3 17  1  0  0  0  0
  4  6  2  0  0  0  0
  4 13  1  0  0  0  0
  5 10  1  0  0  0  0
  5 14  2  0  0  0  0
  6  8  1  0  0  0  0
  7 12  1  0  0  0  0
  7 14  1  0  0  0  0
  7 19  1  0  0  0  0
  8 10  2  0  0  0  0
  9 14  1  0  0  0  0
 10 12  1  0  0  0  0
 11 18  1  0  0  0  0
 11 20  1  0  0  0  0
 11 21  1  0  0  0  0
 12 13  2  0  0  0  0
 13 15  1  0  0  0  0
 15 16  1  0  0  0  0
 16 17  1  0  0  0  0
 16 18  1  1  0  0  0
 19 22  1  0  0  0  0
 22 23  1  0  0  0  0
M  END
>  <CHROM.1>
-141.67888625,85.62086496,82.79185445,75.98709924,158.14201085,78.12847720
10.51536820,-8.28500254,-11.83266488,1.70089495,-0.21714151,2.90771576

>  <Name>
ligand

>  <RI>
0

>  <Rbt.Current_Directory>
/home/itssahil/PROJECTS/Mol_Feturizer/New_Systems/rnas/3TZR

>  <Rbt.Executable>
rbdock ($Id: //depot/dev/client3/rdock/2013.1/src/exe/rbdock.cxx#4 $)

>  <Rbt.Library>
libRbt.so (2013.1, Build901 2013/11/27)

>  <Rbt.Parameter_File>
/export/apps/rDock/src/rDock_2013.1_src/data/scripts/dock_solv.prm

>  <Rbt.Receptor>
prm/pocket_docking_5.prm

>  <SCORE>
-33.7065

>  <SCORE.INTER>
-23.5197

>  <SCORE.INTER.CONST>
1

>  <SCORE.INTER.POLAR>
0

>  <SCORE.INTER.ROT>
6

>  <SCORE.INTER.SOLV>
20.6965

>  <SCORE.INTER.VDW>
-30.1786

>  <SCORE.INTER.norm>
-0.979986

>  <SCORE.INTRA>
-10.1868

>  <SCORE.INTRA.DIHEDRAL>
2.48211

>  <SCORE.INTRA.DIHEDRAL.0>
4.94008

>  <SCORE.INTRA.POLAR>
0

>  <SCORE.INTRA.POLAR.0>
0

>  <SCORE.INTRA.REPUL>
0.00031501

>  <SCORE.INTRA.REPUL.0>
0

>  <SCORE.INTRA.SOLV>
0.258994

>  <SCORE.INTRA.SOLV.lig_0>
-31.4704

>  <SCORE.INTRA.VDW>
-11.559

>  <SCORE.INTRA.VDW.0>
10.2807

>  <SCORE.INTRA.norm>
-0.424452

>  <SCORE.RESTR>
0

>  <SCORE.RESTR.CAVITY>
0

>  <SCORE.RESTR.norm>
0

>  <SCORE.SYSTEM>
0

>  <SCORE.SYSTEM.CONST>
0

>  <SCORE.SYSTEM.DIHEDRAL>
0

>  <SCORE.SYSTEM.SOLV>
0

>  <SCORE.SYSTEM.norm>
0

>  <SCORE.heavy>
24

>  <SCORE.norm>
-1.40444

>  <RMSD>
1.297

$$$$
ligand
 OpenBabel11021811493D
libRbt.so/2013.1/901 2013/11/27
 24 26  0  0  0  0  0  0  0  0999 V2000
    7.5314  -10.4685  -10.8884 N   0  0  0  0  0  0  0  0  0  0  0  0
    6.3210  -10.7089  -11.6576 C   0  0  0  0  0  0  0  0  0  0  0  0
   13.9910   -7.6069  -12.9897 O   0  0  0  0  0  0  0  0  0  0  0  0
   12.9169   -6.7371  -12.8577 C   0  0  0  0  0  0  0  0  0  0  0  0
    9.4920   -4.2120  -12.4670 N   0  0  0  0  0  0  0  0  0  0  0  0
   13.0759   -5.2565  -13.0801 C   0  0  0  0  0  0  0  0  0  0  0  0
    9.1645   -6.4039  -12.1010 N   0  0  0  0  0  0  0  0  0  0  0  0
   11.9782   -4.3418  -12.9775 C   0  0  0  0  0  0  0  0  0  0  0  0
    7.1719   -4.9026  -11.8723 N   0  0  0  0  0  0  0  0  0  0  0  0
   10.6990   -4.9056  -12.6323 C   0  0  0  0  0  0  0  0  0  0  0  0
   11.8430  -11.6135  -11.4980 N   0  0  0  0  0  0  0  0  0  0  0  0
   10.5363   -6.3162  -12.4021 C   0  0  0  0  0  0  0  0  0  0  0  0
   11.7030   -7.2316  -12.5312 C   0  0  0  0  0  0  0  0  0  0  0  0
    8.5574   -5.1533  -12.1467 C   0  0  0  0  0  0  0  0  0  0  0  0
   11.5097   -8.7177  -12.2940 C   0  0  0  0  0  0  0  0  0  0  0  0
   12.7956   -9.5337  -12.2177 C   0  0  1  0  0  0  0  0  0  0  0  0
   14.0217   -8.6732  -12.1075 C   0  0  0  0  0  0  0  0  0  0  0  0
   12.7128  -10.5307  -11.0718 C   0  0  0  0  0  0  0  0  0  0  0  0
    8.4461   -7.6694  -11.8564 C   0  0  0  0  0  0  0  0  0  0  0  0
   12.6364  -12.5724  -12.2549 C   0  0  0  0  0  0  0  0  0  0  0  0
   11.3161  -12.2481  -10.2999 C   0  0  0  0  0  0  0  0  0  0  0  0
    8.6267   -8.2706  -10.4519 C   0  0  0  0  0  0  0  0  0  0  0  0
    7.4289   -9.1946  -10.1624 C   0  0  0  0  0  0  0  0  0  0  0  0
    7.7145  -11.5873   -9.9707 C   0  0  0  0  0  0  0  0  0  0  0  0
  1 23  1  0  0  0  0
  1 24  1  0  0  0  0
  1  2  1  0  0  0  0
  3  4  1  0  0  0  0
  3 17  1  0  0  0  0
  4  6  2  0  0  0  0
  4 13  1  0  0  0  0
  5 10  1  0  0  0  0
  5 14  2  0  0  0  0
  6  8  1  0  0  0  0
  7 12  1  0  0  0  0
  7 14  1  0  0  0  0
  7 19  1  0  0  0  0
  8 10  2  0  0  0  0
  9 14  1  0  0  0  0
 10 12  1  0  0  0  0
 11 18  1  0  0  0  0
 11 20  1  0  0  0  0
 11 21  1  0  0  0  0
 12 13  2  0  0  0  0
 13 15  1  0  0  0  0
 15 16  1  0  0  0  0
 16 17  1  0  0  0  0
 16 18  1  1  0  0  0
 19 22  1  0  0  0  0
 22 23  1  0  0  0  0
M  END
>  <CHROM.1>
-126.51488095,79.44626194,84.62328068,75.55798210,157.00422767,75.43964554
10.47346144,-8.26080889,-11.82756079,1.69971446,-0.21304985,2.91224477

>  <Name>
ligand

>  <RI>
144

>  <Rbt.Current_Directory>
/home/itssahil/PROJECTS/Mol_Feturizer/New_Systems/rnas/3TZR

>  <Rbt.Executable>
rbdock ($Id: //depot/dev/client3/rdock/2013.1/src/exe/rbdock.cxx#4 $)

>  <Rbt.Library>
libRbt.so (2013.1, Build901 2013/11/27)

>  <Rbt.Parameter_File>
/export/apps/rDock/src/rDock_2013.1_src/data/scripts/dock_solv.prm

>  <Rbt.Receptor>
prm/pocket_docking_8.prm

>  <SCORE>
-33.7198

>  <SCORE.INTER>
-23.431

>  <SCORE.INTER.CONST>
1

>  <SCORE.INTER.POLAR>
0

>  <SCORE.INTER.ROT>
6

>  <SCORE.INTER.SOLV>
20.9286

>  <SCORE.INTER.VDW>
-30.1969

>  <SCORE.INTER.norm>
-0.976292

>  <SCORE.INTRA>
-10.2888

>  <SCORE.INTRA.DIHEDRAL>
3.00311

>  <SCORE.INTRA.DIHEDRAL.0>
4.94008

>  <SCORE.INTRA.POLAR>
0

>  <SCORE.INTRA.POLAR.0>
0

>  <SCORE.INTRA.REPUL>
0

>  <SCORE.INTRA.REPUL.0>
0

>  <SCORE.INTRA.SOLV>
0.0712057

>  <SCORE.INTRA.SOLV.lig_0>
-31.4704

>  <SCORE.INTRA.VDW>
-11.826

>  <SCORE.INTRA.VDW.0>
10.2807

>  <SCORE.INTRA.norm>
-0.428701

>  <SCORE.RESTR>
0

>  <SCORE.RESTR.CAVITY>
0

>  <SCORE.RESTR.norm>
0

>  <SCORE.SYSTEM>
0

>  <SCORE.SYSTEM.CONST>
0

>  <SCORE.SYSTEM.DIHEDRAL>
0

>  <SCORE.SYSTEM.SOLV>
0

>  <SCORE.SYSTEM.norm>
0

>  <SCORE.heavy>
24

>  <SCORE.norm>
-1.40499

>  <RMSD>
1.307

$$$$
ligand
 OpenBabel11021811493D
libRbt.so/2013.1/901 2013/11/27
 24 26  0  0  0  0  0  0  0  0999 V2000
    6.1733   -9.9635  -11.2035 N   0  0  0  0  0  0  0  0  0  0  0  0
    7.1592  -10.7586  -10.4894 C   0  0  0  0  0  0  0  0  0  0  0  0
   13.8129   -7.9096  -13.2846 O   0  0  0  0  0  0  0  0  0  0  0  0
   12.7863   -7.0334  -12.9588 C   0  0  0  0  0  0  0  0  0  0  0  0
    9.5013   -4.4826  -11.9785 N   0  0  0  0  0  0  0  0  0  0  0  0
   12.9800   -5.5417  -13.0219 C   0  0  0  0  0  0  0  0  0  0  0  0
    9.1260   -6.6930  -11.8405 N   0  0  0  0  0  0  0  0  0  0  0  0
   11.9291   -4.6168  -12.7180 C   0  0  0  0  0  0  0  0  0  0  0  0
    7.2161   -5.1771  -11.2651 N   0  0  0  0  0  0  0  0  0  0  0  0
   10.6638   -5.1835  -12.3286 C   0  0  0  0  0  0  0  0  0  0  0  0
   13.5358  -12.0194  -12.0554 N   0  0  0  0  0  0  0  0  0  0  0  0
   10.4698   -6.6065  -12.2494 C   0  0  0  0  0  0  0  0  0  0  0  0
   11.5871   -7.5308  -12.5856 C   0  0  0  0  0  0  0  0  0  0  0  0
    8.5633   -5.4302  -11.6877 C   0  0  0  0  0  0  0  0  0  0  0  0
   11.3603   -9.0289  -12.5055 C   0  0  0  0  0  0  0  0  0  0  0  0
   12.6174   -9.8819  -12.6377 C   0  0  1  0  0  0  0  0  0  0  0  0
   13.8790   -9.0731  -12.5375 C   0  0  0  0  0  0  0  0  0  0  0  0
   12.5954  -11.0048  -11.6117 C   0  0  0  0  0  0  0  0  0  0  0  0
    8.3851   -7.9591  -11.6811 C   0  0  0  0  0  0  0  0  0  0  0  0
   13.9045  -12.8398  -10.9097 C   0  0  0  0  0  0  0  0  0  0  0  0
   12.8589  -12.8379  -13.0490 C   0  0  0  0  0  0  0  0  0  0  0  0
    7.1357   -8.1092  -12.5661 C   0  0  0  0  0  0  0  0  0  0  0  0
    6.6878   -9.5823  -12.5266 C   0  0  0  0  0  0  0  0  0  0  0  0
    4.9519  -10.7525  -11.3180 C   0  0  0  0  0  0  0  0  0  0  0  0
  1 23  1  0  0  0  0
  1 24  1  0  0  0  0
  1  2  1  0  0  0  0
  3  4  1  0  0  0  0
  3 17  1  0  0  0  0
  4  6  2  0  0  0  0
  4 13  1  0  0  0  0
  5 10  1  0  0  0  0
  5 14  2  0  0  0  0
  6  8  1  0  0  0  0
  7 12  1  0  0  0  0
  7 14  1  0  0  0  0
  7 19  1  0  0  0  0
  8 10  2  0  0  0  0
  9 14  1  0  0  0  0
 10 12  1  0  0  0  0
 11 18  1  0  0  0  0
 11 20  1  0  0  0  0
 11 21  1  0  0  0  0
 12 13  2  0  0  0  0
 13 15  1  0  0  0  0
 15 16  1  0  0  0  0
 16 17  1  0  0  0  0
 16 18  1  1  0  0  0
 19 22  1  0  0  0  0
 22 23  1  0  0  0  0
M  END
>  <CHROM.1>
-103.90777621,-119.94263670,159.51153812,161.11296187,166.72246869,68.30519341
10.37968288,-8.47047932,-12.10608412,2.71728980,0.15335339,-0.09988083

>  <Name>
ligand

>  <RI>
0

>  <Rbt.Current_Directory>
/home/itssahil/PROJECTS/Mol_Feturizer/New_Systems/rnas/3TZR

>  <Rbt.Executable>
rbdock ($Id: //depot/dev/client3/rdock/2013.1/src/exe/rbdock.cxx#4 $)

>  <Rbt.Library>
libRbt.so (2013.1, Build901 2013/11/27)

>  <Rbt.Parameter_File>
/export/apps/rDock/src/rDock_2013.1_src/data/scripts/dock_solv.prm

>  <Rbt.Receptor>
prm/pocket_docking_5.prm

>  <SCORE>
-32.5011

>  <SCORE.INTER>
-23.1081

>  <SCORE.INTER.CONST>
1

>  <SCORE.INTER.POLAR>
0

>  <SCORE.INTER.ROT>
6

>  <SCORE.INTER.SOLV>
21.2582

>  <SCORE.INTER.VDW>
-30.0915

>  <SCORE.INTER.norm>
-0.962839

>  <SCORE.INTRA>
-9.39298

>  <SCORE.INTRA.DIHEDRAL>
1.09644

>  <SCORE.INTRA.DIHEDRAL.0>
4.94008

>  <SCORE.INTRA.POLAR>
0

>  <SCORE.INTRA.POLAR.0>
0

>  <SCORE.INTRA.REPUL>
0

>  <SCORE.INTRA.REPUL.0>
0

>  <SCORE.INTRA.SOLV>
0.775996

>  <SCORE.INTRA.SOLV.lig_0>
-31.4704

>  <SCORE.INTRA.VDW>
-10.3292

>  <SCORE.INTRA.VDW.0>
10.2807

>  <SCORE.INTRA.norm>
-0.391374

>  <SCORE.RESTR>
0

>  <SCORE.RESTR.CAVITY>
0

>  <SCORE.RESTR.norm>
0

>  <SCORE.SYSTEM>
0

>  <SCORE.SYSTEM.CONST>
0

>  <SCORE.SYSTEM.DIHEDRAL>
0

>  <SCORE.SYSTEM.SOLV>
0

>  <SCORE.SYSTEM.norm>
0

>  <SCORE.heavy>
24

>  <SCORE.norm>
-1.35421

>  <RMSD>
1.315

$$$$
ligand
 OpenBabel11021811493D
libRbt.so/2013.1/901 2013/11/27
 24 26  0  0  0  0  0  0  0  0999 V2000
    6.2061   -9.9486  -11.1614 N   0  0  0  0  0  0  0  0  0  0  0  0
    7.2210  -10.7418  -10.4868 C   0  0  0  0  0  0  0  0  0  0  0  0
   13.8309   -7.9249  -13.2751 O   0  0  0  0  0  0  0  0  0  0  0  0
   12.8069   -7.0466  -12.9467 C   0  0  0  0  0  0  0  0  0  0  0  0
    9.5296   -4.4889  -11.9589 N   0  0  0  0  0  0  0  0  0  0  0  0
   13.0057   -5.5553  -13.0034 C   0  0  0  0  0  0  0  0  0  0  0  0
    9.1467   -6.6985  -11.8305 N   0  0  0  0  0  0  0  0  0  0  0  0
   11.9576   -4.6282  -12.6966 C   0  0  0  0  0  0  0  0  0  0  0  0
    7.2413   -5.1786  -11.2507 N   0  0  0  0  0  0  0  0  0  0  0  0
   10.6901   -5.1922  -12.3108 C   0  0  0  0  0  0  0  0  0  0  0  0
   13.5379  -12.0393  -12.0640 N   0  0  0  0  0  0  0  0  0  0  0  0
   10.4912   -6.6149  -12.2377 C   0  0  0  0  0  0  0  0  0  0  0  0
   11.6057   -7.5415  -12.5768 C   0  0  0  0  0  0  0  0  0  0  0  0
    8.5881   -5.4345  -11.6731 C   0  0  0  0  0  0  0  0  0  0  0  0
   11.3738   -9.0392  -12.5031 C   0  0  0  0  0  0  0  0  0  0  0  0
   12.6282   -9.8958  -12.6376 C   0  0  1  0  0  0  0  0  0  0  0  0
   13.8924   -9.0917  -12.5329 C   0  0  0  0  0  0  0  0  0  0  0  0
   12.6013  -11.0229  -11.6164 C   0  0  0  0  0  0  0  0  0  0  0  0
    8.4014   -7.9628  -11.6772 C   0  0  0  0  0  0  0  0  0  0  0  0
   13.9103  -12.8601  -10.9197 C   0  0  0  0  0  0  0  0  0  0  0  0
   12.8550  -12.8570  -13.0542 C   0  0  0  0  0  0  0  0  0  0  0  0
    7.1378   -8.0941  -12.5449 C   0  0  0  0  0  0  0  0  0  0  0  0
    6.6700   -9.5609  -12.5011 C   0  0  0  0  0  0  0  0  0  0  0  0
    4.9847  -10.7425  -11.2336 C   0  0  0  0  0  0  0  0  0  0  0  0
  1 23  1  0  0  0  0
  1 24  1  0  0  0  0
  1  2  1  0  0  0  0
  3  4  1  0  0  0  0
  3 17  1  0  0  0  0
  4  6  2  0  0  0  0
  4 13  1  0  0  0  0
  5 10  1  0  0  0  0
  5 14  2  0  0  0  0
  6  8  1  0  0  0  0
  7 12  1  0  0  0  0
  7 14  1  0  0  0  0
  7 19  1  0  0  0  0
  8 10  2  0  0  0  0
  9 14  1  0  0  0  0
 10 12  1  0  0  0  0
 11 18  1  0  0  0  0
 11 20  1  0  0  0  0
 11 21  1  0  0  0  0
 12 13  2  0  0  0  0
 13 15  1  0  0  0  0
 15 16  1  0  0  0  0
 16 17  1  0  0  0  0
 16 18  1  1  0  0  0
 19 22  1  0  0  0  0
 22 23  1  0  0  0  0
M  END
>  <CHROM.1>
-102.70865643,-121.03430579,159.10872683,161.06533866,167.58113413,66.60532376
10.39761881,-8.47634173,-12.09288706,2.70946975,0.15809516,-0.09898671

>  <Name>
ligand

>  <RI>
144

>  <Rbt.Current_Directory>
/home/itssahil/PROJECTS/Mol_Feturizer/New_Systems/rnas/3TZR

>  <Rbt.Executable>
rbdock ($Id: //depot/dev/client3/rdock/2013.1/src/exe/rbdock.cxx#4 $)

>  <Rbt.Library>
libRbt.so (2013.1, Build901 2013/11/27)

>  <Rbt.Parameter_File>
/export/apps/rDock/src/rDock_2013.1_src/data/scripts/dock_solv.prm

>  <Rbt.Receptor>
prm/pocket_docking_8.prm

>  <SCORE>
-32.5351

>  <SCORE.INTER>
-23.1451

>  <SCORE.INTER.CONST>
1

>  <SCORE.INTER.POLAR>
0

>  <SCORE.INTER.ROT>
6

>  <SCORE.INTER.SOLV>
21.1695

>  <SCORE.INTER.VDW>
-30.0865

>  <SCORE.INTER.norm>
-0.964378

>  <SCORE.INTRA>
-9.39008

>  <SCORE.INTRA.DIHEDRAL>
0.903501

>  <SCORE.INTRA.DIHEDRAL.0>
4.94008

>  <SCORE.INTRA.POLAR>
0

>  <SCORE.INTRA.POLAR.0>
0

>  <SCORE.INTRA.REPUL>
0

>  <SCORE.INTRA.REPUL.0>
0

>  <SCORE.INTRA.SOLV>
0.819125

>  <SCORE.INTRA.SOLV.lig_0>
-31.4704

>  <SCORE.INTRA.VDW>
-10.2514

>  <SCORE.INTRA.VDW.0>
10.2807

>  <SCORE.INTRA.norm>
-0.391254

>  <SCORE.RESTR>
0

>  <SCORE.RESTR.CAVITY>
0

>  <SCORE.RESTR.norm>
0

>  <SCORE.SYSTEM>
0

>  <SCORE.SYSTEM.CONST>
0

>  <SCORE.SYSTEM.DIHEDRAL>
0

>  <SCORE.SYSTEM.SOLV>
0

>  <SCORE.SYSTEM.norm>
0

>  <SCORE.heavy>
24

>  <SCORE.norm>
-1.35563

>  <RMSD>
1.317

$$$$
ligand
 OpenBabel11021811493D
libRbt.so/2013.1/901 2013/11/27
 24 26  0  0  0  0  0  0  0  0999 V2000
    7.8322  -10.2454  -10.6435 N   0  0  0  0  0  0  0  0  0  0  0  0
    6.4223  -10.5460  -10.8333 C   0  0  0  0  0  0  0  0  0  0  0  0
   13.9098   -8.1211  -13.0783 O   0  0  0  0  0  0  0  0  0  0  0  0
   12.9467   -7.1532  -12.8264 C   0  0  0  0  0  0  0  0  0  0  0  0
    9.8464   -4.3054  -12.0934 N   0  0  0  0  0  0  0  0  0  0  0  0
   13.2957   -5.6888  -12.8009 C   0  0  0  0  0  0  0  0  0  0  0  0
    9.2371   -6.4674  -12.0965 N   0  0  0  0  0  0  0  0  0  0  0  0
   12.3159   -4.6694  -12.5711 C   0  0  0  0  0  0  0  0  0  0  0  0
    7.4373   -4.7793  -11.6635 N   0  0  0  0  0  0  0  0  0  0  0  0
   10.9643   -5.1125  -12.3468 C   0  0  0  0  0  0  0  0  0  0  0  0
   13.2309  -12.1274  -11.9271 N   0  0  0  0  0  0  0  0  0  0  0  0
   10.6201   -6.5091  -12.3533 C   0  0  0  0  0  0  0  0  0  0  0  0
   11.6692   -7.5339  -12.6080 C   0  0  0  0  0  0  0  0  0  0  0  0
    8.7910   -5.1584  -11.9489 C   0  0  0  0  0  0  0  0  0  0  0  0
   11.2850   -9.0017  -12.6204 C   0  0  0  0  0  0  0  0  0  0  0  0
   12.4566   -9.9773  -12.6541 C   0  0  1  0  0  0  0  0  0  0  0  0
   13.7741   -9.3095  -12.3817 C   0  0  0  0  0  0  0  0  0  0  0  0
   12.2063  -11.1255  -11.6882 C   0  0  0  0  0  0  0  0  0  0  0  0
    8.3592   -7.6533  -12.0756 C   0  0  0  0  0  0  0  0  0  0  0  0
   13.4343  -12.8820  -10.6979 C   0  0  0  0  0  0  0  0  0  0  0  0
   12.7412  -13.0126  -12.9722 C   0  0  0  0  0  0  0  0  0  0  0  0
    7.4589   -7.7867  -10.8352 C   0  0  0  0  0  0  0  0  0  0  0  0
    7.9905   -8.9470   -9.9730 C   0  0  0  0  0  0  0  0  0  0  0  0
    8.4231  -11.3225   -9.8573 C   0  0  0  0  0  0  0  0  0  0  0  0
  1 23  1  0  0  0  0
  1 24  1  0  0  0  0
  1  2  1  0  0  0  0
  3  4  1  0  0  0  0
  3 17  1  0  0  0  0
  4  6  2  0  0  0  0
  4 13  1  0  0  0  0
  5 10  1  0  0  0  0
  5 14  2  0  0  0  0
  6  8  1  0  0  0  0
  7 12  1  0  0  0  0
  7 14  1  0  0  0  0
  7 19  1  0  0  0  0
  8 10  2  0  0  0  0
  9 14  1  0  0  0  0
 10 12  1  0  0  0  0
 11 18  1  0  0  0  0
 11 20  1  0  0  0  0
 11 21  1  0  0  0  0
 12 13  2  0  0  0  0
 13 15  1  0  0  0  0
 15 16  1  0  0  0  0
 16 17  1  0  0  0  0
 16 18  1  1  0  0  0
 19 22  1  0  0  0  0
 22 23  1  0  0  0  0
M  END
>  <CHROM.1>
-64.02350960,129.80961771,153.37251425,170.47246794,-108.56344188,-66.90064624
10.66720672,-8.44910675,-11.86699848,0.99135289,-0.29564187,2.96126974

>  <Name>
ligand

>  <RI>
144

>  <Rbt.Current_Directory>
/home/itssahil/PROJECTS/Mol_Feturizer/New_Systems/rnas/3TZR

>  <Rbt.Executable>
rbdock ($Id: //depot/dev/client3/rdock/2013.1/src/exe/rbdock.cxx#4 $)

>  <Rbt.Library>
libRbt.so (2013.1, Build901 2013/11/27)

>  <Rbt.Parameter_File>
/export/apps/rDock/src/rDock_2013.1_src/data/scripts/dock_solv.prm

>  <Rbt.Receptor>
prm/pocket_docking_8.prm

>  <SCORE>
-31.4392

>  <SCORE.INTER>
-24.0025

>  <SCORE.INTER.CONST>
1

>  <SCORE.INTER.POLAR>
0

>  <SCORE.INTER.ROT>
6

>  <SCORE.INTER.SOLV>
19.8301

>  <SCORE.INTER.VDW>
-30.2117

>  <SCORE.INTER.norm>
-1.0001

>  <SCORE.INTRA>
-7.43673

>  <SCORE.INTRA.DIHEDRAL>
2.89225

>  <SCORE.INTRA.DIHEDRAL.0>
4.94008

>  <SCORE.INTRA.POLAR>
0

>  <SCORE.INTRA.POLAR.0>
0

>  <SCORE.INTRA.REPUL>
0

>  <SCORE.INTRA.REPUL.0>
0

>  <SCORE.INTRA.SOLV>
1.10858

>  <SCORE.INTRA.SOLV.lig_0>
-31.4704

>  <SCORE.INTRA.VDW>
-9.43715

>  <SCORE.INTRA.VDW.0>
10.2807

>  <SCORE.INTRA.norm>
-0.309864

>  <SCORE.RESTR>
0

>  <SCORE.RESTR.CAVITY>
0

>  <SCORE.RESTR.norm>
0

>  <SCORE.SYSTEM>
0

>  <SCORE.SYSTEM.CONST>
0

>  <SCORE.SYSTEM.DIHEDRAL>
0

>  <SCORE.SYSTEM.SOLV>
0

>  <SCORE.SYSTEM.norm>
0

>  <SCORE.heavy>
24

>  <SCORE.norm>
-1.30997

>  <RMSD>
1.320

$$$$
ligand
 OpenBabel11021811493D
libRbt.so/2013.1/901 2013/11/27
 24 26  0  0  0  0  0  0  0  0999 V2000
    6.2857   -9.9039  -11.1205 N   0  0  0  0  0  0  0  0  0  0  0  0
    7.3476  -10.6113  -10.4232 C   0  0  0  0  0  0  0  0  0  0  0  0
   13.8445   -7.8928  -13.2997 O   0  0  0  0  0  0  0  0  0  0  0  0
   12.8289   -7.0036  -12.9745 C   0  0  0  0  0  0  0  0  0  0  0  0
    9.5766   -4.4120  -11.9923 N   0  0  0  0  0  0  0  0  0  0  0  0
   13.0340   -5.5145  -13.0612 C   0  0  0  0  0  0  0  0  0  0  0  0
    9.1850   -6.6170  -11.8183 N   0  0  0  0  0  0  0  0  0  0  0  0
   11.9943   -4.5768  -12.7582 C   0  0  0  0  0  0  0  0  0  0  0  0
    7.2944   -5.0774  -11.2423 N   0  0  0  0  0  0  0  0  0  0  0  0
   10.7292   -5.1274  -12.3460 C   0  0  0  0  0  0  0  0  0  0  0  0
   13.5187  -12.0001  -12.0284 N   0  0  0  0  0  0  0  0  0  0  0  0
   10.5245   -6.5475  -12.2441 C   0  0  0  0  0  0  0  0  0  0  0  0
   11.6303   -7.4856  -12.5802 C   0  0  0  0  0  0  0  0  0  0  0  0
    8.6344   -5.3476  -11.6771 C   0  0  0  0  0  0  0  0  0  0  0  0
   11.3923   -8.9805  -12.4760 C   0  0  0  0  0  0  0  0  0  0  0  0
   12.6408   -9.8457  -12.6108 C   0  0  1  0  0  0  0  0  0  0  0  0
   13.9100   -9.0460  -12.5370 C   0  0  0  0  0  0  0  0  0  0  0  0
   12.6218  -10.9537  -11.5686 C   0  0  0  0  0  0  0  0  0  0  0  0
    8.4358   -7.8746  -11.6323 C   0  0  0  0  0  0  0  0  0  0  0  0
   13.9146  -12.8057  -10.8812 C   0  0  0  0  0  0  0  0  0  0  0  0
   12.7821  -12.8219  -12.9758 C   0  0  0  0  0  0  0  0  0  0  0  0
    7.1763   -8.0280  -12.5022 C   0  0  0  0  0  0  0  0  0  0  0  0
    6.7357   -9.5033  -12.4612 C   0  0  0  0  0  0  0  0  0  0  0  0
    5.1259  -10.7853  -11.1931 C   0  0  0  0  0  0  0  0  0  0  0  0
  1 23  1  0  0  0  0
  1 24  1  0  0  0  0
  1  2  1  0  0  0  0
  3  4  1  0  0  0  0
  3 17  1  0  0  0  0
  4  6  2  0  0  0  0
  4 13  1  0  0  0  0
  5 10  1  0  0  0  0
  5 14  2  0  0  0  0
  6  8  1  0  0  0  0
  7 12  1  0  0  0  0
  7 14  1  0  0  0  0
  7 19  1  0  0  0  0
  8 10  2  0  0  0  0
  9 14  1  0  0  0  0
 10 12  1  0  0  0  0
 11 18  1  0  0  0  0
 11 20  1  0  0  0  0
 11 21  1  0  0  0  0
 12 13  2  0  0  0  0
 13 15  1  0  0  0  0
 15 16  1  0  0  0  0
 16 17  1  0  0  0  0
 16 18  1  1  0  0  0
 19 22  1  0  0  0  0
 22 23  1  0  0  0  0
M  END
>  <CHROM.1>
-99.29750202,-119.83503348,158.86261978,159.46108680,165.46260335,66.20312709
10.43323877,-8.41837238,-12.07886132,2.67620317,0.16501487,-0.11012642

>  <Name>
ligand

>  <RI>
144

>  <Rbt.Current_Directory>
/home/itssahil/PROJECTS/Mol_Feturizer/New_Systems/rnas/3TZR

>  <Rbt.Executable>
rbdock ($Id: //depot/dev/client3/rdock/2013.1/src/exe/rbdock.cxx#4 $)

>  <Rbt.Library>
libRbt.so (2013.1, Build901 2013/11/27)

>  <Rbt.Parameter_File>
/export/apps/rDock/src/rDock_2013.1_src/data/scripts/dock_solv.prm

>  <Rbt.Receptor>
prm/pocket_docking_8.prm

>  <SCORE>
-32.5603

>  <SCORE.INTER>
-23.394

>  <SCORE.INTER.CONST>
1

>  <SCORE.INTER.POLAR>
0

>  <SCORE.INTER.ROT>
6

>  <SCORE.INTER.SOLV>
21.4462

>  <SCORE.INTER.VDW>
-30.3447

>  <SCORE.INTER.norm>
-0.974751

>  <SCORE.INTRA>
-9.16623

>  <SCORE.INTRA.DIHEDRAL>
1.09514

>  <SCORE.INTRA.DIHEDRAL.0>
4.94008

>  <SCORE.INTRA.POLAR>
0

>  <SCORE.INTRA.POLAR.0>
0

>  <SCORE.INTRA.REPUL>
0

>  <SCORE.INTRA.REPUL.0>
0

>  <SCORE.INTRA.SOLV>
0.759558

>  <SCORE.INTRA.SOLV.lig_0>
-31.4704

>  <SCORE.INTRA.VDW>
-10.0936

>  <SCORE.INTRA.VDW.0>
10.2807

>  <SCORE.INTRA.norm>
-0.381926

>  <SCORE.RESTR>
0

>  <SCORE.RESTR.CAVITY>
0

>  <SCORE.RESTR.norm>
0

>  <SCORE.SYSTEM>
0

>  <SCORE.SYSTEM.CONST>
0

>  <SCORE.SYSTEM.DIHEDRAL>
0

>  <SCORE.SYSTEM.SOLV>
0

>  <SCORE.SYSTEM.norm>
0

>  <SCORE.heavy>
24

>  <SCORE.norm>
-1.35668

>  <RMSD>
1.320

$$$$
ligand
 OpenBabel11021811493D
libRbt.so/2013.1/901 2013/11/27
 24 26  0  0  0  0  0  0  0  0999 V2000
    7.7493  -10.2440  -10.6607 N   0  0  0  0  0  0  0  0  0  0  0  0
    6.3258  -10.5146  -10.7821 C   0  0  0  0  0  0  0  0  0  0  0  0
   13.9248   -8.1167  -13.0543 O   0  0  0  0  0  0  0  0  0  0  0  0
   12.9608   -7.1480  -12.8095 C   0  0  0  0  0  0  0  0  0  0  0  0
    9.8579   -4.2973  -12.0991 N   0  0  0  0  0  0  0  0  0  0  0  0
   13.3110   -5.6839  -12.7810 C   0  0  0  0  0  0  0  0  0  0  0  0
    9.2465   -6.4587  -12.1074 N   0  0  0  0  0  0  0  0  0  0  0  0
   12.3306   -4.6635  -12.5584 C   0  0  0  0  0  0  0  0  0  0  0  0
    7.4452   -4.7689  -11.6875 N   0  0  0  0  0  0  0  0  0  0  0  0
   10.9769   -5.1054  -12.3444 C   0  0  0  0  0  0  0  0  0  0  0  0
   13.1863  -12.1557  -11.9612 N   0  0  0  0  0  0  0  0  0  0  0  0
   10.6314   -6.5017  -12.3537 C   0  0  0  0  0  0  0  0  0  0  0  0
   11.6814   -7.5275  -12.6008 C   0  0  0  0  0  0  0  0  0  0  0  0
    8.8006   -5.1492  -11.9628 C   0  0  0  0  0  0  0  0  0  0  0  0
   11.2958   -8.9949  -12.6164 C   0  0  0  0  0  0  0  0  0  0  0  0
   12.4666   -9.9716  -12.6415 C   0  0  1  0  0  0  0  0  0  0  0  0
   13.7827   -9.3051  -12.3591 C   0  0  0  0  0  0  0  0  0  0  0  0
   12.2080  -11.1198  -11.6778 C   0  0  0  0  0  0  0  0  0  0  0  0
    8.3673   -7.6436  -12.0933 C   0  0  0  0  0  0  0  0  0  0  0  0
   13.4169  -12.9190  -10.7422 C   0  0  0  0  0  0  0  0  0  0  0  0
   12.6217  -13.0218  -12.9843 C   0  0  0  0  0  0  0  0  0  0  0  0
    7.4559   -7.7752  -10.8609 C   0  0  0  0  0  0  0  0  0  0  0  0
    7.9671   -8.9477  -10.0029 C   0  0  0  0  0  0  0  0  0  0  0  0
    8.3538  -11.3317   -9.8997 C   0  0  0  0  0  0  0  0  0  0  0  0
  1 23  1  0  0  0  0
  1 24  1  0  0  0  0
  1  2  1  0  0  0  0
  3  4  1  0  0  0  0
  3 17  1  0  0  0  0
  4  6  2  0  0  0  0
  4 13  1  0  0  0  0
  5 10  1  0  0  0  0
  5 14  2  0  0  0  0
  6  8  1  0  0  0  0
  7 12  1  0  0  0  0
  7 14  1  0  0  0  0
  7 19  1  0  0  0  0
  8 10  2  0  0  0  0
  9 14  1  0  0  0  0
 10 12  1  0  0  0  0
 11 18  1  0  0  0  0
 11 20  1  0  0  0  0
 11 21  1  0  0  0  0
 12 13  2  0  0  0  0
 13 15  1  0  0  0  0
 15 16  1  0  0  0  0
 16 17  1  0  0  0  0
 16 18  1  1  0  0  0
 19 22  1  0  0  0  0
 22 23  1  0  0  0  0
M  END
>  <CHROM.1>
-65.63968276,129.90856283,152.66243306,167.26775078,-109.33097577,-69.20679046
10.65362457,-8.44645046,-11.87134832,0.99977985,-0.29032516,2.96777265

>  <Name>
ligand

>  <RI>
0

>  <Rbt.Current_Directory>
/home/itssahil/PROJECTS/Mol_Feturizer/New_Systems/rnas/3TZR

>  <Rbt.Executable>
rbdock ($Id: //depot/dev/client3/rdock/2013.1/src/exe/rbdock.cxx#4 $)

>  <Rbt.Library>
libRbt.so (2013.1, Build901 2013/11/27)

>  <Rbt.Parameter_File>
/export/apps/rDock/src/rDock_2013.1_src/data/scripts/dock_solv.prm

>  <Rbt.Receptor>
prm/pocket_docking_3.prm

>  <SCORE>
-31.4579

>  <SCORE.INTER>
-23.981

>  <SCORE.INTER.CONST>
1

>  <SCORE.INTER.POLAR>
0

>  <SCORE.INTER.ROT>
6

>  <SCORE.INTER.SOLV>
19.8555

>  <SCORE.INTER.VDW>
-30.2058

>  <SCORE.INTER.norm>
-0.999207

>  <SCORE.INTRA>
-7.47693

>  <SCORE.INTRA.DIHEDRAL>
3.39922

>  <SCORE.INTRA.DIHEDRAL.0>
4.94008

>  <SCORE.INTRA.POLAR>
0

>  <SCORE.INTRA.POLAR.0>
0

>  <SCORE.INTRA.REPUL>
0

>  <SCORE.INTRA.REPUL.0>
0

>  <SCORE.INTRA.SOLV>
1.06424

>  <SCORE.INTRA.SOLV.lig_0>
-31.4704

>  <SCORE.INTRA.VDW>
-9.70866

>  <SCORE.INTRA.VDW.0>
10.2807

>  <SCORE.INTRA.norm>
-0.311539

>  <SCORE.RESTR>
0

>  <SCORE.RESTR.CAVITY>
0

>  <SCORE.RESTR.norm>
0

>  <SCORE.SYSTEM>
0

>  <SCORE.SYSTEM.CONST>
0

>  <SCORE.SYSTEM.DIHEDRAL>
0

>  <SCORE.SYSTEM.SOLV>
0

>  <SCORE.SYSTEM.norm>
0

>  <SCORE.heavy>
24

>  <SCORE.norm>
-1.31075

>  <RMSD>
1.322

$$$$
ligand
 OpenBabel11021811493D
libRbt.so/2013.1/901 2013/11/27
 24 26  0  0  0  0  0  0  0  0999 V2000
    8.2869   -9.7092   -9.8388 N   0  0  0  0  0  0  0  0  0  0  0  0
    9.1181  -10.0697  -10.9761 C   0  0  0  0  0  0  0  0  0  0  0  0
   13.7862   -7.0657  -12.9117 O   0  0  0  0  0  0  0  0  0  0  0  0
   12.6614   -6.2563  -12.8255 C   0  0  0  0  0  0  0  0  0  0  0  0
    9.0899   -3.9240  -12.5735 N   0  0  0  0  0  0  0  0  0  0  0  0
   12.7397   -4.7758  -13.0881 C   0  0  0  0  0  0  0  0  0  0  0  0
    8.8813   -6.1200  -12.1498 N   0  0  0  0  0  0  0  0  0  0  0  0
   11.5894   -3.9238  -13.0331 C   0  0  0  0  0  0  0  0  0  0  0  0
    6.8015   -4.7309  -12.0027 N   0  0  0  0  0  0  0  0  0  0  0  0
   10.3379   -4.5509  -12.6956 C   0  0  0  0  0  0  0  0  0  0  0  0
   12.0596  -11.2453  -11.4164 N   0  0  0  0  0  0  0  0  0  0  0  0
   10.2518   -5.9614  -12.4274 C   0  0  0  0  0  0  0  0  0  0  0  0
   11.4715   -6.8109  -12.5076 C   0  0  0  0  0  0  0  0  0  0  0  0
    8.2045   -4.9086  -12.2435 C   0  0  0  0  0  0  0  0  0  0  0  0
   11.3590   -8.2985  -12.2307 C   0  0  0  0  0  0  0  0  0  0  0  0
   12.6878   -9.0361  -12.1063 C   0  0  1  0  0  0  0  0  0  0  0  0
   13.8599   -8.1031  -11.9983 C   0  0  0  0  0  0  0  0  0  0  0  0
   12.6389  -10.0036  -10.9335 C   0  0  0  0  0  0  0  0  0  0  0  0
    8.2320   -7.4177  -11.8818 C   0  0  0  0  0  0  0  0  0  0  0  0
   13.0524  -11.9315  -12.2320 C   0  0  0  0  0  0  0  0  0  0  0  0
   11.7326  -12.0561  -10.2540 C   0  0  0  0  0  0  0  0  0  0  0  0
    7.4169   -7.4919  -10.5791 C   0  0  0  0  0  0  0  0  0  0  0  0
    7.0987   -8.9709  -10.2900 C   0  0  0  0  0  0  0  0  0  0  0  0
    7.9149  -10.9358   -9.1428 C   0  0  0  0  0  0  0  0  0  0  0  0
  1 23  1  0  0  0  0
  1 24  1  0  0  0  0
  1  2  1  0  0  0  0
  3  4  1  0  0  0  0
  3 17  1  0  0  0  0
  4  6  2  0  0  0  0
  4 13  1  0  0  0  0
  5 10  1  0  0  0  0
  5 14  2  0  0  0  0
  6  8  1  0  0  0  0
  7 12  1  0  0  0  0
  7 14  1  0  0  0  0
  7 19  1  0  0  0  0
  8 10  2  0  0  0  0
  9 14  1  0  0  0  0
 10 12  1  0  0  0  0
 11 18  1  0  0  0  0
 11 20  1  0  0  0  0
 11 21  1  0  0  0  0
 12 13  2  0  0  0  0
 13 15  1  0  0  0  0
 15 16  1  0  0  0  0
 16 17  1  0  0  0  0
 16 18  1  1  0  0  0
 19 22  1  0  0  0  0
 22 23  1  0  0  0  0
M  END
>  <CHROM.1>
-79.67313055,126.75594853,74.01348940,85.90659609,-166.72530364,72.73399452
10.45866966,-7.81731622,-11.71645257,1.24330272,-0.27984674,2.80816373

>  <Name>
ligand

>  <RI>
144

>  <Rbt.Current_Directory>
/home/itssahil/PROJECTS/Mol_Feturizer/New_Systems/rnas/3TZR

>  <Rbt.Executable>
rbdock ($Id: //depot/dev/client3/rdock/2013.1/src/exe/rbdock.cxx#4 $)

>  <Rbt.Library>
libRbt.so (2013.1, Build901 2013/11/27)

>  <Rbt.Parameter_File>
/export/apps/rDock/src/rDock_2013.1_src/data/scripts/dock_solv.prm

>  <Rbt.Receptor>
prm/pocket_docking_8.prm

>  <SCORE>
-24.6232

>  <SCORE.INTER>
-18.0514

>  <SCORE.INTER.CONST>
1

>  <SCORE.INTER.POLAR>
-0.710736

>  <SCORE.INTER.ROT>
6

>  <SCORE.INTER.SOLV>
23.0063

>  <SCORE.INTER.VDW>
-24.9339

>  <SCORE.INTER.norm>
-0.752143

>  <SCORE.INTRA>
-6.5718

>  <SCORE.INTRA.DIHEDRAL>
0.381858

>  <SCORE.INTRA.DIHEDRAL.0>
4.94008

>  <SCORE.INTRA.POLAR>
0

>  <SCORE.INTRA.POLAR.0>
0

>  <SCORE.INTRA.REPUL>
0

>  <SCORE.INTRA.REPUL.0>
0

>  <SCORE.INTRA.SOLV>
1.27373

>  <SCORE.INTRA.SOLV.lig_0>
-31.4704

>  <SCORE.INTRA.VDW>
-7.3996

>  <SCORE.INTRA.VDW.0>
10.2807

>  <SCORE.INTRA.norm>
-0.273825

>  <SCORE.RESTR>
0

>  <SCORE.RESTR.CAVITY>
0

>  <SCORE.RESTR.norm>
0

>  <SCORE.SYSTEM>
0

>  <SCORE.SYSTEM.CONST>
0

>  <SCORE.SYSTEM.DIHEDRAL>
0

>  <SCORE.SYSTEM.SOLV>
0

>  <SCORE.SYSTEM.norm>
0

>  <SCORE.heavy>
24

>  <SCORE.norm>
-1.02597

>  <RMSD>
1.331

$$$$
ligand
 OpenBabel11021811493D
libRbt.so/2013.1/901 2013/11/27
 24 26  0  0  0  0  0  0  0  0999 V2000
    6.1701   -9.9463  -11.5148 N   0  0  0  0  0  0  0  0  0  0  0  0
    5.2739  -10.9105  -10.8973 C   0  0  0  0  0  0  0  0  0  0  0  0
   13.8538   -7.7292  -12.9884 O   0  0  0  0  0  0  0  0  0  0  0  0
   12.7934   -6.8796  -12.7027 C   0  0  0  0  0  0  0  0  0  0  0  0
    9.4086   -4.4078  -11.8709 N   0  0  0  0  0  0  0  0  0  0  0  0
   12.9847   -5.3885  -12.6201 C   0  0  0  0  0  0  0  0  0  0  0  0
    9.0326   -6.6206  -11.9586 N   0  0  0  0  0  0  0  0  0  0  0  0
   11.9023   -4.4885  -12.3546 C   0  0  0  0  0  0  0  0  0  0  0  0
    7.0639   -5.1512  -11.4669 N   0  0  0  0  0  0  0  0  0  0  0  0
   10.6058   -5.0811  -12.1516 C   0  0  0  0  0  0  0  0  0  0  0  0
   13.4754  -11.9222  -12.1367 N   0  0  0  0  0  0  0  0  0  0  0  0
   10.4120   -6.5051  -12.2125 C   0  0  0  0  0  0  0  0  0  0  0  0
   11.5639   -7.4021  -12.5029 C   0  0  0  0  0  0  0  0  0  0  0  0
    8.4500   -5.3730  -11.7624 C   0  0  0  0  0  0  0  0  0  0  0  0
   11.3379   -8.9008  -12.5726 C   0  0  0  0  0  0  0  0  0  0  0  0
   12.6066   -9.7443  -12.6400 C   0  0  1  0  0  0  0  0  0  0  0  0
   13.8458   -8.9512  -12.3381 C   0  0  0  0  0  0  0  0  0  0  0  0
   12.4809  -10.9488  -11.7194 C   0  0  0  0  0  0  0  0  0  0  0  0
    8.2858   -7.8929  -11.9857 C   0  0  0  0  0  0  0  0  0  0  0  0
   13.8287  -12.7433  -10.9865 C   0  0  0  0  0  0  0  0  0  0  0  0
   12.8695  -12.7522  -13.1660 C   0  0  0  0  0  0  0  0  0  0  0  0
    8.0115   -8.5271  -10.6112 C   0  0  0  0  0  0  0  0  0  0  0  0
    7.4727   -9.9528  -10.8340 C   0  0  0  0  0  0  0  0  0  0  0  0
    6.3081  -10.2944  -12.9245 C   0  0  0  0  0  0  0  0  0  0  0  0
  1 23  1  0  0  0  0
  1 24  1  0  0  0  0
  1  2  1  0  0  0  0
  3  4  1  0  0  0  0
  3 17  1  0  0  0  0
  4  6  2  0  0  0  0
  4 13  1  0  0  0  0
  5 10  1  0  0  0  0
  5 14  2  0  0  0  0
  6  8  1  0  0  0  0
  7 12  1  0  0  0  0
  7 14  1  0  0  0  0
  7 19  1  0  0  0  0
  8 10  2  0  0  0  0
  9 14  1  0  0  0  0
 10 12  1  0  0  0  0
 11 18  1  0  0  0  0
 11 20  1  0  0  0  0
 11 21  1  0  0  0  0
 12 13  2  0  0  0  0
 13 15  1  0  0  0  0
 15 16  1  0  0  0  0
 16 17  1  0  0  0  0
 16 18  1  1  0  0  0
 19 22  1  0  0  0  0
 22 23  1  0  0  0  0
M  END
>  <CHROM.1>
-137.20981549,99.86808526,153.40199464,161.51854406,-169.42248143,-64.79982051
10.38658427,-8.40903394,-12.02910644,2.69164011,0.14136257,-0.05286050

>  <Name>
ligand

>  <RI>
0

>  <Rbt.Current_Directory>
/home/itssahil/PROJECTS/Mol_Feturizer/New_Systems/rnas/3TZR

>  <Rbt.Executable>
rbdock ($Id: //depot/dev/client3/rdock/2013.1/src/exe/rbdock.cxx#4 $)

>  <Rbt.Library>
libRbt.so (2013.1, Build901 2013/11/27)

>  <Rbt.Parameter_File>
/export/apps/rDock/src/rDock_2013.1_src/data/scripts/dock_solv.prm

>  <Rbt.Receptor>
prm/pocket_docking_5.prm

>  <SCORE>
-34.256

>  <SCORE.INTER>
-24.0571

>  <SCORE.INTER.CONST>
1

>  <SCORE.INTER.POLAR>
0

>  <SCORE.INTER.ROT>
6

>  <SCORE.INTER.SOLV>
20.9216

>  <SCORE.INTER.VDW>
-30.612

>  <SCORE.INTER.norm>
-1.00238

>  <SCORE.INTRA>
-10.1988

>  <SCORE.INTRA.DIHEDRAL>
1.07456

>  <SCORE.INTRA.DIHEDRAL.0>
4.94008

>  <SCORE.INTRA.POLAR>
0

>  <SCORE.INTRA.POLAR.0>
0

>  <SCORE.INTRA.REPUL>
0

>  <SCORE.INTRA.REPUL.0>
0

>  <SCORE.INTRA.SOLV>
0.24381

>  <SCORE.INTRA.SOLV.lig_0>
-31.4704

>  <SCORE.INTRA.VDW>
-10.858

>  <SCORE.INTRA.VDW.0>
10.2807

>  <SCORE.INTRA.norm>
-0.424951

>  <SCORE.RESTR>
0

>  <SCORE.RESTR.CAVITY>
0

>  <SCORE.RESTR.norm>
0

>  <SCORE.SYSTEM>
0

>  <SCORE.SYSTEM.CONST>
0

>  <SCORE.SYSTEM.DIHEDRAL>
0

>  <SCORE.SYSTEM.SOLV>
0

>  <SCORE.SYSTEM.norm>
0

>  <SCORE.heavy>
24

>  <SCORE.norm>
-1.42733

>  <RMSD>
1.358

$$$$
ligand
 OpenBabel11021811493D
libRbt.so/2013.1/901 2013/11/27
 24 26  0  0  0  0  0  0  0  0999 V2000
    6.1648   -9.9345  -11.4372 N   0  0  0  0  0  0  0  0  0  0  0  0
    5.3016  -10.9386  -10.8363 C   0  0  0  0  0  0  0  0  0  0  0  0
   13.8546   -7.7774  -13.0126 O   0  0  0  0  0  0  0  0  0  0  0  0
   12.7994   -6.9188  -12.7349 C   0  0  0  0  0  0  0  0  0  0  0  0
    9.4296   -4.4195  -11.9247 N   0  0  0  0  0  0  0  0  0  0  0  0
   12.9973   -5.4273  -12.6780 C   0  0  0  0  0  0  0  0  0  0  0  0
    9.0441   -6.6319  -11.9738 N   0  0  0  0  0  0  0  0  0  0  0  0
   11.9201   -4.5186  -12.4211 C   0  0  0  0  0  0  0  0  0  0  0  0
    7.0842   -5.1464  -11.4952 N   0  0  0  0  0  0  0  0  0  0  0  0
   10.6223   -5.1024  -12.2011 C   0  0  0  0  0  0  0  0  0  0  0  0
   13.4497  -11.9630  -12.1028 N   0  0  0  0  0  0  0  0  0  0  0  0
   10.4224   -6.5264  -12.2374 C   0  0  0  0  0  0  0  0  0  0  0  0
   11.5689   -7.4328  -12.5195 C   0  0  0  0  0  0  0  0  0  0  0  0
    8.4677   -5.3788  -11.7948 C   0  0  0  0  0  0  0  0  0  0  0  0
   11.3365   -8.9315  -12.5633 C   0  0  0  0  0  0  0  0  0  0  0  0
   12.6012   -9.7813  -12.6239 C   0  0  1  0  0  0  0  0  0  0  0  0
   13.8454   -8.9885  -12.3423 C   0  0  0  0  0  0  0  0  0  0  0  0
   12.4759  -10.9700  -11.6830 C   0  0  0  0  0  0  0  0  0  0  0  0
    8.2919   -7.9014  -11.9757 C   0  0  0  0  0  0  0  0  0  0  0  0
   13.8227  -12.7626  -10.9438 C   0  0  0  0  0  0  0  0  0  0  0  0
   12.8101  -12.8086  -13.0985 C   0  0  0  0  0  0  0  0  0  0  0  0
    8.0362   -8.5196  -10.5903 C   0  0  0  0  0  0  0  0  0  0  0  0
    7.4842   -9.9437  -10.7895 C   0  0  0  0  0  0  0  0  0  0  0  0
    6.2730  -10.2247  -12.8625 C   0  0  0  0  0  0  0  0  0  0  0  0
  1 23  1  0  0  0  0
  1 24  1  0  0  0  0
  1  2  1  0  0  0  0
  3  4  1  0  0  0  0
  3 17  1  0  0  0  0
  4  6  2  0  0  0  0
  4 13  1  0  0  0  0
  5 10  1  0  0  0  0
  5 14  2  0  0  0  0
  6  8  1  0  0  0  0
  7 12  1  0  0  0  0
  7 14  1  0  0  0  0
  7 19  1  0  0  0  0
  8 10  2  0  0  0  0
  9 14  1  0  0  0  0
 10 12  1  0  0  0  0
 11 18  1  0  0  0  0
 11 20  1  0  0  0  0
 11 21  1  0  0  0  0
 12 13  2  0  0  0  0
 13 15  1  0  0  0  0
 15 16  1  0  0  0  0
 16 17  1  0  0  0  0
 16 18  1  1  0  0  0
 19 22  1  0  0  0  0
 22 23  1  0  0  0  0
M  END
>  <CHROM.1>
-140.18208769,99.22931300,152.83240444,160.64073546,-169.60077462,-65.34178728
10.38866187,-8.42677932,-12.02359476,2.68376395,0.14733775,-0.06886887

>  <Name>
ligand

>  <RI>
0

>  <Rbt.Current_Directory>
/home/itssahil/PROJECTS/Mol_Feturizer/New_Systems/rnas/3TZR

>  <Rbt.Executable>
rbdock ($Id: //depot/dev/client3/rdock/2013.1/src/exe/rbdock.cxx#4 $)

>  <Rbt.Library>
libRbt.so (2013.1, Build901 2013/11/27)

>  <Rbt.Parameter_File>
/export/apps/rDock/src/rDock_2013.1_src/data/scripts/dock_solv.prm

>  <Rbt.Receptor>
prm/pocket_docking_7.prm

>  <SCORE>
-34.2761

>  <SCORE.INTER>
-24.1558

>  <SCORE.INTER.CONST>
1

>  <SCORE.INTER.POLAR>
0

>  <SCORE.INTER.ROT>
6

>  <SCORE.INTER.SOLV>
20.8472

>  <SCORE.INTER.VDW>
-30.653

>  <SCORE.INTER.norm>
-1.00649

>  <SCORE.INTRA>
-10.1203

>  <SCORE.INTRA.DIHEDRAL>
1.06349

>  <SCORE.INTRA.DIHEDRAL.0>
4.94008

>  <SCORE.INTRA.POLAR>
0

>  <SCORE.INTRA.POLAR.0>
0

>  <SCORE.INTRA.REPUL>
0

>  <SCORE.INTRA.REPUL.0>
0

>  <SCORE.INTRA.SOLV>
0.227524

>  <SCORE.INTRA.SOLV.lig_0>
-31.4704

>  <SCORE.INTRA.VDW>
-10.7658

>  <SCORE.INTRA.VDW.0>
10.2807

>  <SCORE.INTRA.norm>
-0.421678

>  <SCORE.RESTR>
0

>  <SCORE.RESTR.CAVITY>
0

>  <SCORE.RESTR.norm>
0

>  <SCORE.SYSTEM>
0

>  <SCORE.SYSTEM.CONST>
0

>  <SCORE.SYSTEM.DIHEDRAL>
0

>  <SCORE.SYSTEM.SOLV>
0

>  <SCORE.SYSTEM.norm>
0

>  <SCORE.heavy>
24

>  <SCORE.norm>
-1.42817

>  <RMSD>
1.363

$$$$
ligand
 OpenBabel11021811493D
libRbt.so/2013.1/901 2013/11/27
 24 26  0  0  0  0  0  0  0  0999 V2000
    6.1725   -9.9460  -11.4729 N   0  0  0  0  0  0  0  0  0  0  0  0
    5.2900  -10.9246  -10.8583 C   0  0  0  0  0  0  0  0  0  0  0  0
   13.8504   -7.7729  -13.0382 O   0  0  0  0  0  0  0  0  0  0  0  0
   12.7972   -6.9149  -12.7510 C   0  0  0  0  0  0  0  0  0  0  0  0
    9.4332   -4.4172  -11.9122 N   0  0  0  0  0  0  0  0  0  0  0  0
   12.9968   -5.4239  -12.6863 C   0  0  0  0  0  0  0  0  0  0  0  0
    9.0454   -6.6288  -11.9726 N   0  0  0  0  0  0  0  0  0  0  0  0
   11.9216   -4.5157  -12.4196 C   0  0  0  0  0  0  0  0  0  0  0  0
    7.0890   -5.1443  -11.4771 N   0  0  0  0  0  0  0  0  0  0  0  0
   10.6241   -5.0996  -12.1975 C   0  0  0  0  0  0  0  0  0  0  0  0
   13.4573  -11.9560  -12.1404 N   0  0  0  0  0  0  0  0  0  0  0  0
   10.4227   -6.5231  -12.2413 C   0  0  0  0  0  0  0  0  0  0  0  0
   11.5672   -7.4289  -12.5336 C   0  0  0  0  0  0  0  0  0  0  0  0
    8.4710   -5.3763  -11.7839 C   0  0  0  0  0  0  0  0  0  0  0  0
   11.3331   -8.9272  -12.5851 C   0  0  0  0  0  0  0  0  0  0  0  0
   12.5968   -9.7777  -12.6560 C   0  0  1  0  0  0  0  0  0  0  0  0
   13.8429   -8.9878  -12.3749 C   0  0  0  0  0  0  0  0  0  0  0  0
   12.4742  -10.9718  -11.7215 C   0  0  0  0  0  0  0  0  0  0  0  0
    8.2920   -7.8976  -11.9787 C   0  0  0  0  0  0  0  0  0  0  0  0
   13.8234  -12.7636  -10.9847 C   0  0  0  0  0  0  0  0  0  0  0  0
   12.8318  -12.7964  -13.1493 C   0  0  0  0  0  0  0  0  0  0  0  0
    8.0075   -8.5035  -10.5935 C   0  0  0  0  0  0  0  0  0  0  0  0
    7.4745   -9.9350  -10.7909 C   0  0  0  0  0  0  0  0  0  0  0  0
    6.3168  -10.2889  -12.8832 C   0  0  0  0  0  0  0  0  0  0  0  0
  1 23  1  0  0  0  0
  1 24  1  0  0  0  0
  1  2  1  0  0  0  0
  3  4  1  0  0  0  0
  3 17  1  0  0  0  0
  4  6  2  0  0  0  0
  4 13  1  0  0  0  0
  5 10  1  0  0  0  0
  5 14  2  0  0  0  0
  6  8  1  0  0  0  0
  7 12  1  0  0  0  0
  7 14  1  0  0  0  0
  7 19  1  0  0  0  0
  8 10  2  0  0  0  0
  9 14  1  0  0  0  0
 10 12  1  0  0  0  0
 11 18  1  0  0  0  0
 11 20  1  0  0  0  0
 11 21  1  0  0  0  0
 12 13  2  0  0  0  0
 13 15  1  0  0  0  0
 15 16  1  0  0  0  0
 16 17  1  0  0  0  0
 16 18  1  1  0  0  0
 19 22  1  0  0  0  0
 22 23  1  0  0  0  0
M  END
>  <CHROM.1>
-138.53097956,100.86094505,153.15332632,161.37212230,-168.91251369,-65.27399653
10.38998026,-8.42589507,-12.03935736,2.68360905,0.15058234,-0.06198030

>  <Name>
ligand

>  <RI>
0

>  <Rbt.Current_Directory>
/home/itssahil/PROJECTS/Mol_Feturizer/New_Systems/rnas/3TZR

>  <Rbt.Executable>
rbdock ($Id: //depot/dev/client3/rdock/2013.1/src/exe/rbdock.cxx#4 $)

>  <Rbt.Library>
libRbt.so (2013.1, Build901 2013/11/27)

>  <Rbt.Parameter_File>
/export/apps/rDock/src/rDock_2013.1_src/data/scripts/dock_solv.prm

>  <Rbt.Receptor>
prm/pocket_docking_7.prm

>  <SCORE>
-34.267

>  <SCORE.INTER>
-24.1316

>  <SCORE.INTER.CONST>
1

>  <SCORE.INTER.POLAR>
0

>  <SCORE.INTER.ROT>
6

>  <SCORE.INTER.SOLV>
20.8751

>  <SCORE.INTER.VDW>
-30.6461

>  <SCORE.INTER.norm>
-1.00548

>  <SCORE.INTRA>
-10.1355

>  <SCORE.INTRA.DIHEDRAL>
1.09423

>  <SCORE.INTRA.DIHEDRAL.0>
4.94008

>  <SCORE.INTRA.POLAR>
0

>  <SCORE.INTRA.POLAR.0>
0

>  <SCORE.INTRA.REPUL>
0

>  <SCORE.INTRA.REPUL.0>
0

>  <SCORE.INTRA.SOLV>
0.260857

>  <SCORE.INTRA.SOLV.lig_0>
-31.4704

>  <SCORE.INTRA.VDW>
-10.813

>  <SCORE.INTRA.VDW.0>
10.2807

>  <SCORE.INTRA.norm>
-0.422311

>  <SCORE.RESTR>
0

>  <SCORE.RESTR.CAVITY>
0

>  <SCORE.RESTR.norm>
0

>  <SCORE.SYSTEM>
0

>  <SCORE.SYSTEM.CONST>
0

>  <SCORE.SYSTEM.DIHEDRAL>
0

>  <SCORE.SYSTEM.SOLV>
0

>  <SCORE.SYSTEM.norm>
0

>  <SCORE.heavy>
24

>  <SCORE.norm>
-1.42779

>  <RMSD>
1.363

$$$$
ligand
 OpenBabel11021811493D
libRbt.so/2013.1/901 2013/11/27
 24 26  0  0  0  0  0  0  0  0999 V2000
    6.8556  -10.7436  -12.2431 N   0  0  0  0  0  0  0  0  0  0  0  0
    6.3870  -11.2159  -13.5360 C   0  0  0  0  0  0  0  0  0  0  0  0
   13.6776   -7.1276  -12.9795 O   0  0  0  0  0  0  0  0  0  0  0  0
   12.5205   -6.4116  -12.7031 C   0  0  0  0  0  0  0  0  0  0  0  0
    8.8577   -4.3704  -11.8811 N   0  0  0  0  0  0  0  0  0  0  0  0
   12.4993   -4.9070  -12.7540 C   0  0  0  0  0  0  0  0  0  0  0  0
    8.7997   -6.6129  -11.7655 N   0  0  0  0  0  0  0  0  0  0  0  0
   11.3123   -4.1463  -12.5005 C   0  0  0  0  0  0  0  0  0  0  0  0
    6.6651   -5.3937  -11.2821 N   0  0  0  0  0  0  0  0  0  0  0  0
   10.1249   -4.8930  -12.1748 C   0  0  0  0  0  0  0  0  0  0  0  0
   12.2817  -11.5735  -11.9864 N   0  0  0  0  0  0  0  0  0  0  0  0
   10.1351   -6.3298  -12.1077 C   0  0  0  0  0  0  0  0  0  0  0  0
   11.3892   -7.0801  -12.3902 C   0  0  0  0  0  0  0  0  0  0  0  0
    8.0536   -5.4459  -11.6385 C   0  0  0  0  0  0  0  0  0  0  0  0
   11.3778   -8.5959  -12.3239 C   0  0  0  0  0  0  0  0  0  0  0  0
   12.7500   -9.2573  -12.3956 C   0  0  1  0  0  0  0  0  0  0  0  0
   13.8750   -8.2758  -12.2321 C   0  0  0  0  0  0  0  0  0  0  0  0
   12.8409  -10.3807  -11.3738 C   0  0  0  0  0  0  0  0  0  0  0  0
    8.2428   -7.9740  -11.6450 C   0  0  0  0  0  0  0  0  0  0  0  0
   13.3570  -12.3006  -12.6472 C   0  0  0  0  0  0  0  0  0  0  0  0
   11.7187  -12.3886  -10.9214 C   0  0  0  0  0  0  0  0  0  0  0  0
    7.0305   -8.2737  -12.5434 C   0  0  0  0  0  0  0  0  0  0  0  0
    6.2456   -9.4450  -11.9236 C   0  0  0  0  0  0  0  0  0  0  0  0
    6.5144  -11.7488  -11.2429 C   0  0  0  0  0  0  0  0  0  0  0  0
  1 23  1  0  0  0  0
  1 24  1  0  0  0  0
  1  2  1  0  0  0  0
  3  4  1  0  0  0  0
  3 17  1  0  0  0  0
  4  6  2  0  0  0  0
  4 13  1  0  0  0  0
  5 10  1  0  0  0  0
  5 14  2  0  0  0  0
  6  8  1  0  0  0  0
  7 12  1  0  0  0  0
  7 14  1  0  0  0  0
  7 19  1  0  0  0  0
  8 10  2  0  0  0  0
  9 14  1  0  0  0  0
 10 12  1  0  0  0  0
 11 18  1  0  0  0  0
 11 20  1  0  0  0  0
 11 21  1  0  0  0  0
 12 13  2  0  0  0  0
 13 15  1  0  0  0  0
 15 16  1  0  0  0  0
 16 17  1  0  0  0  0
 16 18  1  1  0  0  0
 19 22  1  0  0  0  0
 22 23  1  0  0  0  0
M  END
>  <CHROM.1>
-85.00185605,-122.69802302,90.81856242,85.31539333,-157.42849008,-80.49613906
10.12115182,-8.26636624,-12.12854235,3.03672072,0.04993953,-0.02586275

>  <Name>
ligand

>  <RI>
144

>  <Rbt.Current_Directory>
/home/itssahil/PROJECTS/Mol_Feturizer/New_Systems/rnas/3TZR

>  <Rbt.Executable>
rbdock ($Id: //depot/dev/client3/rdock/2013.1/src/exe/rbdock.cxx#4 $)

>  <Rbt.Library>
libRbt.so (2013.1, Build901 2013/11/27)

>  <Rbt.Parameter_File>
/export/apps/rDock/src/rDock_2013.1_src/data/scripts/dock_solv.prm

>  <Rbt.Receptor>
prm/pocket_docking_8.prm

>  <SCORE>
-29.9143

>  <SCORE.INTER>
-21.3748

>  <SCORE.INTER.CONST>
1

>  <SCORE.INTER.POLAR>
0

>  <SCORE.INTER.ROT>
6

>  <SCORE.INTER.SOLV>
20.8346

>  <SCORE.INTER.VDW>
-28.7947

>  <SCORE.INTER.norm>
-0.890618

>  <SCORE.INTRA>
-8.53946

>  <SCORE.INTRA.DIHEDRAL>
3.5287

>  <SCORE.INTRA.DIHEDRAL.0>
4.94008

>  <SCORE.INTRA.POLAR>
0

>  <SCORE.INTRA.POLAR.0>
0

>  <SCORE.INTRA.REPUL>
0

>  <SCORE.INTRA.REPUL.0>
0

>  <SCORE.INTRA.SOLV>
1.25785

>  <SCORE.INTRA.SOLV.lig_0>
-31.4704

>  <SCORE.INTRA.VDW>
-10.9327

>  <SCORE.INTRA.VDW.0>
10.2807

>  <SCORE.INTRA.norm>
-0.355811

>  <SCORE.RESTR>
0

>  <SCORE.RESTR.CAVITY>
0

>  <SCORE.RESTR.norm>
0

>  <SCORE.SYSTEM>
0

>  <SCORE.SYSTEM.CONST>
0

>  <SCORE.SYSTEM.DIHEDRAL>
0

>  <SCORE.SYSTEM.SOLV>
0

>  <SCORE.SYSTEM.norm>
0

>  <SCORE.heavy>
24

>  <SCORE.norm>
-1.24643

>  <RMSD>
1.364

$$$$
ligand
 OpenBabel11021811493D
libRbt.so/2013.1/901 2013/11/27
 24 26  0  0  0  0  0  0  0  0999 V2000
    6.1372   -9.9421  -11.5222 N   0  0  0  0  0  0  0  0  0  0  0  0
    5.2382  -10.9069  -10.9098 C   0  0  0  0  0  0  0  0  0  0  0  0
   13.8556   -7.7272  -13.0279 O   0  0  0  0  0  0  0  0  0  0  0  0
   12.7923   -6.8835  -12.7361 C   0  0  0  0  0  0  0  0  0  0  0  0
    9.3986   -4.4302  -11.8856 N   0  0  0  0  0  0  0  0  0  0  0  0
   12.9766   -5.3916  -12.6508 C   0  0  0  0  0  0  0  0  0  0  0  0
    9.0331   -6.6446  -11.9771 N   0  0  0  0  0  0  0  0  0  0  0  0
   11.8908   -4.4976  -12.3790 C   0  0  0  0  0  0  0  0  0  0  0  0
    7.0592   -5.1861  -11.4744 N   0  0  0  0  0  0  0  0  0  0  0  0
   10.5979   -5.0971  -12.1725 C   0  0  0  0  0  0  0  0  0  0  0  0
   13.4799  -11.9367  -12.2041 N   0  0  0  0  0  0  0  0  0  0  0  0
   10.4110   -6.5219  -12.2359 C   0  0  0  0  0  0  0  0  0  0  0  0
   11.5661   -7.4125  -12.5329 C   0  0  0  0  0  0  0  0  0  0  0  0
    8.4452   -5.4004  -11.7757 C   0  0  0  0  0  0  0  0  0  0  0  0
   11.3472   -8.9121  -12.6052 C   0  0  0  0  0  0  0  0  0  0  0  0
   12.6197   -9.7492  -12.6794 C   0  0  1  0  0  0  0  0  0  0  0  0
   13.8562   -8.9507  -12.3805 C   0  0  0  0  0  0  0  0  0  0  0  0
   12.5034  -10.9565  -11.7612 C   0  0  0  0  0  0  0  0  0  0  0  0
    8.2925   -7.9206  -12.0042 C   0  0  0  0  0  0  0  0  0  0  0  0
   13.8783  -12.7420  -11.0575 C   0  0  0  0  0  0  0  0  0  0  0  0
   12.8329  -12.7804  -13.1966 C   0  0  0  0  0  0  0  0  0  0  0  0
    7.9990   -8.5434  -10.6285 C   0  0  0  0  0  0  0  0  0  0  0  0
    7.4430   -9.9629  -10.8477 C   0  0  0  0  0  0  0  0  0  0  0  0
    6.2665  -10.2773  -12.9358 C   0  0  0  0  0  0  0  0  0  0  0  0
  1 23  1  0  0  0  0
  1 24  1  0  0  0  0
  1  2  1  0  0  0  0
  3  4  1  0  0  0  0
  3 17  1  0  0  0  0
  4  6  2  0  0  0  0
  4 13  1  0  0  0  0
  5 10  1  0  0  0  0
  5 14  2  0  0  0  0
  6  8  1  0  0  0  0
  7 12  1  0  0  0  0
  7 14  1  0  0  0  0
  7 19  1  0  0  0  0
  8 10  2  0  0  0  0
  9 14  1  0  0  0  0
 10 12  1  0  0  0  0
 11 18  1  0  0  0  0
 11 20  1  0  0  0  0
 11 21  1  0  0  0  0
 12 13  2  0  0  0  0
 13 15  1  0  0  0  0
 15 16  1  0  0  0  0
 16 17  1  0  0  0  0
 16 18  1  1  0  0  0
 19 22  1  0  0  0  0
 22 23  1  0  0  0  0
M  END
>  <CHROM.1>
-137.88032573,101.18057698,151.86397494,160.21566411,-170.56442509,-65.58432007
10.38151553,-8.41963084,-12.05688726,2.71156272,0.14473879,-0.05033223

>  <Name>
ligand

>  <RI>
0

>  <Rbt.Current_Directory>
/home/itssahil/PROJECTS/Mol_Feturizer/New_Systems/rnas/3TZR

>  <Rbt.Executable>
rbdock ($Id: //depot/dev/client3/rdock/2013.1/src/exe/rbdock.cxx#4 $)

>  <Rbt.Library>
libRbt.so (2013.1, Build901 2013/11/27)

>  <Rbt.Parameter_File>
/export/apps/rDock/src/rDock_2013.1_src/data/scripts/dock_solv.prm

>  <Rbt.Receptor>
prm/pocket_docking_5.prm

>  <SCORE>
-34.2495

>  <SCORE.INTER>
-24.0956

>  <SCORE.INTER.CONST>
1

>  <SCORE.INTER.POLAR>
0

>  <SCORE.INTER.ROT>
6

>  <SCORE.INTER.SOLV>
20.8784

>  <SCORE.INTER.VDW>
-30.6232

>  <SCORE.INTER.norm>
-1.00398

>  <SCORE.INTRA>
-10.1538

>  <SCORE.INTRA.DIHEDRAL>
1.2296

>  <SCORE.INTRA.DIHEDRAL.0>
4.94008

>  <SCORE.INTRA.POLAR>
0

>  <SCORE.INTRA.POLAR.0>
0

>  <SCORE.INTRA.REPUL>
0

>  <SCORE.INTRA.REPUL.0>
0

>  <SCORE.INTRA.SOLV>
0.261889

>  <SCORE.INTRA.SOLV.lig_0>
-31.4704

>  <SCORE.INTRA.VDW>
-10.8996

>  <SCORE.INTRA.VDW.0>
10.2807

>  <SCORE.INTRA.norm>
-0.423076

>  <SCORE.RESTR>
0

>  <SCORE.RESTR.CAVITY>
0

>  <SCORE.RESTR.norm>
0

>  <SCORE.SYSTEM>
0

>  <SCORE.SYSTEM.CONST>
0

>  <SCORE.SYSTEM.DIHEDRAL>
0

>  <SCORE.SYSTEM.SOLV>
0

>  <SCORE.SYSTEM.norm>
0

>  <SCORE.heavy>
24

>  <SCORE.norm>
-1.42706

>  <RMSD>
1.368

$$$$
ligand
 OpenBabel11021811493D
libRbt.so/2013.1/901 2013/11/27
 24 26  0  0  0  0  0  0  0  0999 V2000
    6.1249   -9.9028  -11.4921 N   0  0  0  0  0  0  0  0  0  0  0  0
    5.2157  -10.8650  -10.8906 C   0  0  0  0  0  0  0  0  0  0  0  0
   13.8526   -7.7331  -13.0673 O   0  0  0  0  0  0  0  0  0  0  0  0
   12.7968   -6.8819  -12.7696 C   0  0  0  0  0  0  0  0  0  0  0  0
    9.4254   -4.4055  -11.8980 N   0  0  0  0  0  0  0  0  0  0  0  0
   12.9888   -5.3901  -12.7009 C   0  0  0  0  0  0  0  0  0  0  0  0
    9.0491   -6.6190  -11.9636 N   0  0  0  0  0  0  0  0  0  0  0  0
   11.9106   -4.4887  -12.4234 C   0  0  0  0  0  0  0  0  0  0  0  0
    7.0883   -5.1470  -11.4490 N   0  0  0  0  0  0  0  0  0  0  0  0
   10.6179   -5.0804  -12.1942 C   0  0  0  0  0  0  0  0  0  0  0  0
   13.4537  -11.9419  -12.2121 N   0  0  0  0  0  0  0  0  0  0  0  0
   10.4239   -6.5049  -12.2417 C   0  0  0  0  0  0  0  0  0  0  0  0
   11.5711   -7.4034  -12.5453 C   0  0  0  0  0  0  0  0  0  0  0  0
    8.4693   -5.3703  -11.7664 C   0  0  0  0  0  0  0  0  0  0  0  0
   11.3448   -8.9027  -12.6005 C   0  0  0  0  0  0  0  0  0  0  0  0
   12.6125   -9.7461  -12.6834 C   0  0  1  0  0  0  0  0  0  0  0  0
   13.8563   -8.9504  -12.4083 C   0  0  0  0  0  0  0  0  0  0  0  0
   12.5030  -10.9442  -11.7524 C   0  0  0  0  0  0  0  0  0  0  0  0
    8.3026   -7.8918  -11.9690 C   0  0  0  0  0  0  0  0  0  0  0  0
   13.8364  -12.7721  -11.0779 C   0  0  0  0  0  0  0  0  0  0  0  0
   12.7827  -12.7562  -13.2132 C   0  0  0  0  0  0  0  0  0  0  0  0
    7.9352   -8.4480  -10.5824 C   0  0  0  0  0  0  0  0  0  0  0  0
    7.4000   -9.8811  -10.7612 C   0  0  0  0  0  0  0  0  0  0  0  0
    6.3215  -10.2768  -12.8881 C   0  0  0  0  0  0  0  0  0  0  0  0
  1 23  1  0  0  0  0
  1 24  1  0  0  0  0
  1  2  1  0  0  0  0
  3  4  1  0  0  0  0
  3 17  1  0  0  0  0
  4  6  2  0  0  0  0
  4 13  1  0  0  0  0
  5 10  1  0  0  0  0
  5 14  2  0  0  0  0
  6  8  1  0  0  0  0
  7 12  1  0  0  0  0
  7 14  1  0  0  0  0
  7 19  1  0  0  0  0
  8 10  2  0  0  0  0
  9 14  1  0  0  0  0
 10 12  1  0  0  0  0
 11 18  1  0  0  0  0
 11 20  1  0  0  0  0
 11 21  1  0  0  0  0
 12 13  2  0  0  0  0
 13 15  1  0  0  0  0
 15 16  1  0  0  0  0
 16 17  1  0  0  0  0
 16 18  1  1  0  0  0
 19 22  1  0  0  0  0
 22 23  1  0  0  0  0
M  END
>  <CHROM.1>
-138.88858139,105.44902182,153.73505693,159.28659639,-169.80193172,-66.36900955
10.37913734,-8.39995336,-12.05476390,2.70850112,0.15606667,-0.05322726

>  <Name>
ligand

>  <RI>
0

>  <Rbt.Current_Directory>
/home/itssahil/PROJECTS/Mol_Feturizer/New_Systems/rnas/3TZR

>  <Rbt.Executable>
rbdock ($Id: //depot/dev/client3/rdock/2013.1/src/exe/rbdock.cxx#4 $)

>  <Rbt.Library>
libRbt.so (2013.1, Build901 2013/11/27)

>  <Rbt.Parameter_File>
/export/apps/rDock/src/rDock_2013.1_src/data/scripts/dock_solv.prm

>  <Rbt.Receptor>
prm/pocket_docking_5.prm

>  <SCORE>
-34.2269

>  <SCORE.INTER>
-24.2395

>  <SCORE.INTER.CONST>
1

>  <SCORE.INTER.POLAR>
0

>  <SCORE.INTER.ROT>
6

>  <SCORE.INTER.SOLV>
20.9969

>  <SCORE.INTER.VDW>
-30.7586

>  <SCORE.INTER.norm>
-1.00998

>  <SCORE.INTRA>
-9.98741

>  <SCORE.INTRA.DIHEDRAL>
1.24315

>  <SCORE.INTRA.DIHEDRAL.0>
4.94008

>  <SCORE.INTRA.POLAR>
0

>  <SCORE.INTRA.POLAR.0>
0

>  <SCORE.INTRA.REPUL>
0

>  <SCORE.INTRA.REPUL.0>
0

>  <SCORE.INTRA.SOLV>
0.336897

>  <SCORE.INTRA.SOLV.lig_0>
-31.4704

>  <SCORE.INTRA.VDW>
-10.7774

>  <SCORE.INTRA.VDW.0>
10.2807

>  <SCORE.INTRA.norm>
-0.416142

>  <SCORE.RESTR>
0

>  <SCORE.RESTR.CAVITY>
0

>  <SCORE.RESTR.norm>
0

>  <SCORE.SYSTEM>
0

>  <SCORE.SYSTEM.CONST>
0

>  <SCORE.SYSTEM.DIHEDRAL>
0

>  <SCORE.SYSTEM.SOLV>
0

>  <SCORE.SYSTEM.norm>
0

>  <SCORE.heavy>
24

>  <SCORE.norm>
-1.42612

>  <RMSD>
1.370

$$$$
ligand
 OpenBabel11021811493D
libRbt.so/2013.1/901 2013/11/27
 24 26  0  0  0  0  0  0  0  0999 V2000
    6.4551  -10.4932  -10.9607 N   0  0  0  0  0  0  0  0  0  0  0  0
    6.0634  -11.7286  -10.3013 C   0  0  0  0  0  0  0  0  0  0  0  0
   13.0436   -5.7327  -13.0222 O   0  0  0  0  0  0  0  0  0  0  0  0
   11.7798   -5.3316  -12.6102 C   0  0  0  0  0  0  0  0  0  0  0  0
    7.8233   -4.2713  -11.3935 N   0  0  0  0  0  0  0  0  0  0  0  0
   11.4416   -3.8762  -12.4245 C   0  0  0  0  0  0  0  0  0  0  0  0
    8.2420   -6.4655  -11.6291 N   0  0  0  0  0  0  0  0  0  0  0  0
   10.1379   -3.4349  -12.0274 C   0  0  0  0  0  0  0  0  0  0  0  0
    5.9303   -5.8196  -10.9111 N   0  0  0  0  0  0  0  0  0  0  0  0
    9.1532   -4.4595  -11.7949 C   0  0  0  0  0  0  0  0  0  0  0  0
   12.1046  -10.3731  -12.3032 N   0  0  0  0  0  0  0  0  0  0  0  0
    9.4673   -5.8542  -11.9538 C   0  0  0  0  0  0  0  0  0  0  0  0
   10.8327   -6.2667  -12.3795 C   0  0  0  0  0  0  0  0  0  0  0  0
    7.2768   -5.5185  -11.3035 C   0  0  0  0  0  0  0  0  0  0  0  0
   11.1422   -7.7421  -12.5510 C   0  0  0  0  0  0  0  0  0  0  0  0
   12.6161   -8.0746  -12.7574 C   0  0  1  0  0  0  0  0  0  0  0  0
   13.5185   -6.9091  -12.4686 C   0  0  0  0  0  0  0  0  0  0  0  0
   12.9972   -9.2905  -11.9265 C   0  0  0  0  0  0  0  0  0  0  0  0
    7.9898   -7.9171  -11.7101 C   0  0  0  0  0  0  0  0  0  0  0  0
   12.8969  -11.4358  -12.9073 C   0  0  0  0  0  0  0  0  0  0  0  0
   11.4726  -10.8613  -11.0875 C   0  0  0  0  0  0  0  0  0  0  0  0
    8.0585   -8.6751  -10.3732 C   0  0  0  0  0  0  0  0  0  0  0  0
    7.8575  -10.1758  -10.6560 C   0  0  0  0  0  0  0  0  0  0  0  0
    6.2501  -10.6606  -12.3950 C   0  0  0  0  0  0  0  0  0  0  0  0
  1 23  1  0  0  0  0
  1 24  1  0  0  0  0
  1  2  1  0  0  0  0
  3  4  1  0  0  0  0
  3 17  1  0  0  0  0
  4  6  2  0  0  0  0
  4 13  1  0  0  0  0
  5 10  1  0  0  0  0
  5 14  2  0  0  0  0
  6  8  1  0  0  0  0
  7 12  1  0  0  0  0
  7 14  1  0  0  0  0
  7 19  1  0  0  0  0
  8 10  2  0  0  0  0
  9 14  1  0  0  0  0
 10 12  1  0  0  0  0
 11 18  1  0  0  0  0
 11 20  1  0  0  0  0
 11 21  1  0  0  0  0
 12 13  2  0  0  0  0
 13 15  1  0  0  0  0
 15 16  1  0  0  0  0
 16 17  1  0  0  0  0
 16 18  1  1  0  0  0
 19 22  1  0  0  0  0
 22 23  1  0  0  0  0
M  END
>  <CHROM.1>
-138.35695966,100.32762676,116.08036598,56.16203988,-176.60112893,-74.61317943
9.76667408,-7.70072031,-11.81904143,2.43422939,-0.23250875,3.08017911

>  <Name>
ligand

>  <RI>
144

>  <Rbt.Current_Directory>
/home/itssahil/PROJECTS/Mol_Feturizer/New_Systems/rnas/3TZR

>  <Rbt.Executable>
rbdock ($Id: //depot/dev/client3/rdock/2013.1/src/exe/rbdock.cxx#4 $)

>  <Rbt.Library>
libRbt.so (2013.1, Build901 2013/11/27)

>  <Rbt.Parameter_File>
/export/apps/rDock/src/rDock_2013.1_src/data/scripts/dock_solv.prm

>  <Rbt.Receptor>
prm/blind_docking_20.prm

>  <SCORE>
-28.2986

>  <SCORE.INTER>
-20.6985

>  <SCORE.INTER.CONST>
1

>  <SCORE.INTER.POLAR>
0

>  <SCORE.INTER.ROT>
6

>  <SCORE.INTER.SOLV>
20.5145

>  <SCORE.INTER.VDW>
-28.2372

>  <SCORE.INTER.norm>
-0.862439

>  <SCORE.INTRA>
-10.6281

>  <SCORE.INTRA.DIHEDRAL>
1.58459

>  <SCORE.INTRA.DIHEDRAL.0>
4.94008

>  <SCORE.INTRA.POLAR>
0

>  <SCORE.INTRA.POLAR.0>
0

>  <SCORE.INTRA.REPUL>
0

>  <SCORE.INTRA.REPUL.0>
0

>  <SCORE.INTRA.SOLV>
0.253609

>  <SCORE.INTRA.SOLV.lig_0>
-31.4704

>  <SCORE.INTRA.VDW>
-11.5472

>  <SCORE.INTRA.VDW.0>
10.2807

>  <SCORE.INTRA.norm>
-0.442837

>  <SCORE.RESTR>
3.02802

>  <SCORE.RESTR.CAVITY>
3.02802

>  <SCORE.RESTR.norm>
0.126168

>  <SCORE.SYSTEM>
0

>  <SCORE.SYSTEM.CONST>
0

>  <SCORE.SYSTEM.DIHEDRAL>
0

>  <SCORE.SYSTEM.SOLV>
0

>  <SCORE.SYSTEM.norm>
0

>  <SCORE.heavy>
24

>  <SCORE.norm>
-1.17911

>  <RMSD>
1.371

$$$$
ligand
 OpenBabel11021811493D
libRbt.so/2013.1/901 2013/11/27
 24 26  0  0  0  0  0  0  0  0999 V2000
    6.2015   -9.9352  -11.5064 N   0  0  0  0  0  0  0  0  0  0  0  0
    5.2946  -10.8929  -10.8942 C   0  0  0  0  0  0  0  0  0  0  0  0
   13.8649   -7.7812  -13.0450 O   0  0  0  0  0  0  0  0  0  0  0  0
   12.8155   -6.9180  -12.7596 C   0  0  0  0  0  0  0  0  0  0  0  0
    9.4623   -4.4042  -11.9255 N   0  0  0  0  0  0  0  0  0  0  0  0
   13.0210   -5.4277  -12.6997 C   0  0  0  0  0  0  0  0  0  0  0  0
    9.0655   -6.6145  -11.9785 N   0  0  0  0  0  0  0  0  0  0  0  0
   11.9497   -4.5143  -12.4350 C   0  0  0  0  0  0  0  0  0  0  0  0
    7.1156   -5.1206  -11.4859 N   0  0  0  0  0  0  0  0  0  0  0  0
   10.6502   -5.0923  -12.2098 C   0  0  0  0  0  0  0  0  0  0  0  0
   13.4693  -11.9516  -12.1211 N   0  0  0  0  0  0  0  0  0  0  0  0
   10.4430   -6.5151  -12.2488 C   0  0  0  0  0  0  0  0  0  0  0  0
   11.5836   -7.4265  -12.5393 C   0  0  0  0  0  0  0  0  0  0  0  0
    8.4963   -5.3590  -11.7932 C   0  0  0  0  0  0  0  0  0  0  0  0
   11.3434   -8.9239  -12.5858 C   0  0  0  0  0  0  0  0  0  0  0  0
   12.6036   -9.7798  -12.6552 C   0  0  1  0  0  0  0  0  0  0  0  0
   13.8532   -8.9939  -12.3778 C   0  0  0  0  0  0  0  0  0  0  0  0
   12.4772  -10.9703  -11.7167 C   0  0  0  0  0  0  0  0  0  0  0  0
    8.3071   -7.8802  -11.9798 C   0  0  0  0  0  0  0  0  0  0  0  0
   13.8195  -12.7593  -10.9606 C   0  0  0  0  0  0  0  0  0  0  0  0
   12.8618  -12.7927  -13.1404 C   0  0  0  0  0  0  0  0  0  0  0  0
    7.9978   -8.4664  -10.5915 C   0  0  0  0  0  0  0  0  0  0  0  0
    7.4773   -9.9041  -10.7773 C   0  0  0  0  0  0  0  0  0  0  0  0
    6.3970  -10.3227  -12.8988 C   0  0  0  0  0  0  0  0  0  0  0  0
  1 23  1  0  0  0  0
  1 24  1  0  0  0  0
  1  2  1  0  0  0  0
  3  4  1  0  0  0  0
  3 17  1  0  0  0  0
  4  6  2  0  0  0  0
  4 13  1  0  0  0  0
  5 10  1  0  0  0  0
  5 14  2  0  0  0  0
  6  8  1  0  0  0  0
  7 12  1  0  0  0  0
  7 14  1  0  0  0  0
  7 19  1  0  0  0  0
  8 10  2  0  0  0  0
  9 14  1  0  0  0  0
 10 12  1  0  0  0  0
 11 18  1  0  0  0  0
 11 20  1  0  0  0  0
 11 21  1  0  0  0  0
 12 13  2  0  0  0  0
 13 15  1  0  0  0  0
 15 16  1  0  0  0  0
 16 17  1  0  0  0  0
 16 18  1  1  0  0  0
 19 22  1  0  0  0  0
 22 23  1  0  0  0  0
M  END
>  <CHROM.1>
-137.87159686,102.00028322,153.59601104,162.19693947,-168.27045875,-64.26498517
10.40823262,-8.41858645,-12.04428245,2.67273237,0.14942557,-0.06302256

>  <Name>
ligand

>  <RI>
0

>  <Rbt.Current_Directory>
/home/itssahil/PROJECTS/Mol_Feturizer/New_Systems/rnas/3TZR

>  <Rbt.Executable>
rbdock ($Id: //depot/dev/client3/rdock/2013.1/src/exe/rbdock.cxx#4 $)

>  <Rbt.Library>
libRbt.so (2013.1, Build901 2013/11/27)

>  <Rbt.Parameter_File>
/export/apps/rDock/src/rDock_2013.1_src/data/scripts/dock_solv.prm

>  <Rbt.Receptor>
prm/pocket_docking_3.prm

>  <SCORE>
-34.2571

>  <SCORE.INTER>
-24.1304

>  <SCORE.INTER.CONST>
1

>  <SCORE.INTER.POLAR>
0

>  <SCORE.INTER.ROT>
6

>  <SCORE.INTER.SOLV>
20.8813

>  <SCORE.INTER.VDW>
-30.6474

>  <SCORE.INTER.norm>
-1.00543

>  <SCORE.INTRA>
-10.1267

>  <SCORE.INTRA.DIHEDRAL>
1.02181

>  <SCORE.INTRA.DIHEDRAL.0>
4.94008

>  <SCORE.INTRA.POLAR>
0

>  <SCORE.INTRA.POLAR.0>
0

>  <SCORE.INTRA.REPUL>
0

>  <SCORE.INTRA.REPUL.0>
0

>  <SCORE.INTRA.SOLV>
0.287545

>  <SCORE.INTRA.SOLV.lig_0>
-31.4704

>  <SCORE.INTRA.VDW>
-10.7813

>  <SCORE.INTRA.VDW.0>
10.2807

>  <SCORE.INTRA.norm>
-0.421944

>  <SCORE.RESTR>
0

>  <SCORE.RESTR.CAVITY>
0

>  <SCORE.RESTR.norm>
0

>  <SCORE.SYSTEM>
0

>  <SCORE.SYSTEM.CONST>
0

>  <SCORE.SYSTEM.DIHEDRAL>
0

>  <SCORE.SYSTEM.SOLV>
0

>  <SCORE.SYSTEM.norm>
0

>  <SCORE.heavy>
24

>  <SCORE.norm>
-1.42738

>  <RMSD>
1.374

$$$$
ligand
 OpenBabel11021811493D
libRbt.so/2013.1/901 2013/11/27
 24 26  0  0  0  0  0  0  0  0999 V2000
    5.9888  -10.0624  -11.6795 N   0  0  0  0  0  0  0  0  0  0  0  0
    6.5919  -11.3733  -11.5004 C   0  0  0  0  0  0  0  0  0  0  0  0
   13.0839   -6.3339  -13.1012 O   0  0  0  0  0  0  0  0  0  0  0  0
   11.8460   -5.8158  -12.7449 C   0  0  0  0  0  0  0  0  0  0  0  0
    7.9640   -4.4006  -11.6560 N   0  0  0  0  0  0  0  0  0  0  0  0
   11.5422   -4.3476  -12.8830 C   0  0  0  0  0  0  0  0  0  0  0  0
    8.3330   -6.6016  -11.4012 N   0  0  0  0  0  0  0  0  0  0  0  0
   10.2645   -3.7927  -12.5488 C   0  0  0  0  0  0  0  0  0  0  0  0
    6.0656   -5.7475  -10.7641 N   0  0  0  0  0  0  0  0  0  0  0  0
    9.2722   -4.7108  -12.0529 C   0  0  0  0  0  0  0  0  0  0  0  0
   12.4459  -10.8295  -11.5963 N   0  0  0  0  0  0  0  0  0  0  0  0
    9.5543   -6.1132  -11.9017 C   0  0  0  0  0  0  0  0  0  0  0  0
   10.8929   -6.6482  -12.2725 C   0  0  0  0  0  0  0  0  0  0  0  0
    7.3995   -5.5797  -11.2643 C   0  0  0  0  0  0  0  0  0  0  0  0
   11.1684   -8.1320  -12.1150 C   0  0  0  0  0  0  0  0  0  0  0  0
   12.6261   -8.5423  -12.2947 C   0  0  1  0  0  0  0  0  0  0  0  0
   13.5605   -7.3666  -12.3124 C   0  0  0  0  0  0  0  0  0  0  0  0
   13.0200   -9.5481  -11.2235 C   0  0  0  0  0  0  0  0  0  0  0  0
    8.0516   -8.0264  -11.1403 C   0  0  0  0  0  0  0  0  0  0  0  0
   13.3654  -11.5004  -12.5053 C   0  0  0  0  0  0  0  0  0  0  0  0
   12.2982  -11.6127  -10.3796 C   0  0  0  0  0  0  0  0  0  0  0  0
    8.1100   -8.9474  -12.3712 C   0  0  0  0  0  0  0  0  0  0  0  0
    6.6694   -9.3316  -12.7579 C   0  0  0  0  0  0  0  0  0  0  0  0
    4.5741  -10.2520  -11.9797 C   0  0  0  0  0  0  0  0  0  0  0  0
  1 23  1  0  0  0  0
  1 24  1  0  0  0  0
  1  2  1  0  0  0  0
  3  4  1  0  0  0  0
  3 17  1  0  0  0  0
  4  6  2  0  0  0  0
  4 13  1  0  0  0  0
  5 10  1  0  0  0  0
  5 14  2  0  0  0  0
  6  8  1  0  0  0  0
  7 12  1  0  0  0  0
  7 14  1  0  0  0  0
  7 19  1  0  0  0  0
  8 10  2  0  0  0  0
  9 14  1  0  0  0  0
 10 12  1  0  0  0  0
 11 18  1  0  0  0  0
 11 20  1  0  0  0  0
 11 21  1  0  0  0  0
 12 13  2  0  0  0  0
 13 15  1  0  0  0  0
 15 16  1  0  0  0  0
 16 17  1  0  0  0  0
 16 18  1  1  0  0  0
 19 22  1  0  0  0  0
 22 23  1  0  0  0  0
M  END
>  <CHROM.1>
-68.19861510,-61.88158544,85.77973966,76.25631556,-106.23900951,-61.19684474
9.76899661,-7.87110900,-11.92404836,3.11304192,0.07553676,-0.08313106

>  <Name>
ligand

>  <RI>
0

>  <Rbt.Current_Directory>
/home/itssahil/PROJECTS/Mol_Feturizer/New_Systems/rnas/3TZR

>  <Rbt.Executable>
rbdock ($Id: //depot/dev/client3/rdock/2013.1/src/exe/rbdock.cxx#4 $)

>  <Rbt.Library>
libRbt.so (2013.1, Build901 2013/11/27)

>  <Rbt.Parameter_File>
/export/apps/rDock/src/rDock_2013.1_src/data/scripts/dock_solv.prm

>  <Rbt.Receptor>
prm/blind_docking_80.prm

>  <SCORE>
-29.3433

>  <SCORE.INTER>
-21.2737

>  <SCORE.INTER.CONST>
1

>  <SCORE.INTER.POLAR>
0

>  <SCORE.INTER.ROT>
6

>  <SCORE.INTER.SOLV>
21.2658

>  <SCORE.INTER.VDW>
-28.871

>  <SCORE.INTER.norm>
-0.886403

>  <SCORE.INTRA>
-8.06966

>  <SCORE.INTRA.DIHEDRAL>
3.00065

>  <SCORE.INTRA.DIHEDRAL.0>
4.94008

>  <SCORE.INTRA.POLAR>
0

>  <SCORE.INTRA.POLAR.0>
0

>  <SCORE.INTRA.REPUL>
0

>  <SCORE.INTRA.REPUL.0>
0

>  <SCORE.INTRA.SOLV>
0.235067

>  <SCORE.INTRA.SOLV.lig_0>
-31.4704

>  <SCORE.INTRA.VDW>
-9.68752

>  <SCORE.INTRA.VDW.0>
10.2807

>  <SCORE.INTRA.norm>
-0.336236

>  <SCORE.RESTR>
0

>  <SCORE.RESTR.CAVITY>
0

>  <SCORE.RESTR.norm>
0

>  <SCORE.SYSTEM>
0

>  <SCORE.SYSTEM.CONST>
0

>  <SCORE.SYSTEM.DIHEDRAL>
0

>  <SCORE.SYSTEM.SOLV>
0

>  <SCORE.SYSTEM.norm>
0

>  <SCORE.heavy>
24

>  <SCORE.norm>
-1.22264

>  <RMSD>
1.375

$$$$
ligand
 OpenBabel11021811493D
libRbt.so/2013.1/901 2013/11/27
 24 26  0  0  0  0  0  0  0  0999 V2000
    6.2008   -9.8998  -11.4750 N   0  0  0  0  0  0  0  0  0  0  0  0
    5.3141  -10.8730  -10.8578 C   0  0  0  0  0  0  0  0  0  0  0  0
   13.8467   -7.7882  -13.0340 O   0  0  0  0  0  0  0  0  0  0  0  0
   12.8035   -6.9175  -12.7484 C   0  0  0  0  0  0  0  0  0  0  0  0
    9.4686   -4.3795  -11.9145 N   0  0  0  0  0  0  0  0  0  0  0  0
   13.0205   -5.4290  -12.6850 C   0  0  0  0  0  0  0  0  0  0  0  0
    9.0547   -6.5865  -11.9729 N   0  0  0  0  0  0  0  0  0  0  0  0
   11.9559   -4.5079  -12.4201 C   0  0  0  0  0  0  0  0  0  0  0  0
    7.1157   -5.0785  -11.4803 N   0  0  0  0  0  0  0  0  0  0  0  0
   10.6516   -5.0761  -12.1983 C   0  0  0  0  0  0  0  0  0  0  0  0
   13.4351  -11.9460  -12.1028 N   0  0  0  0  0  0  0  0  0  0  0  0
   10.4334   -6.4973  -12.2408 C   0  0  0  0  0  0  0  0  0  0  0  0
   11.5673   -7.4168  -12.5313 C   0  0  0  0  0  0  0  0  0  0  0  0
    8.4950   -5.3270  -11.7859 C   0  0  0  0  0  0  0  0  0  0  0  0
   11.3156   -8.9122  -12.5815 C   0  0  0  0  0  0  0  0  0  0  0  0
   12.5692   -9.7777  -12.6507 C   0  0  1  0  0  0  0  0  0  0  0  0
   13.8244   -9.0022  -12.3695 C   0  0  0  0  0  0  0  0  0  0  0  0
   12.4319  -10.9693  -11.7150 C   0  0  0  0  0  0  0  0  0  0  0  0
    8.2865   -7.8462  -11.9783 C   0  0  0  0  0  0  0  0  0  0  0  0
   13.7483  -12.7711  -10.9439 C   0  0  0  0  0  0  0  0  0  0  0  0
   12.8585  -12.7712  -13.1526 C   0  0  0  0  0  0  0  0  0  0  0  0
    8.0612   -8.4884  -10.5985 C   0  0  0  0  0  0  0  0  0  0  0  0
    7.5116   -9.9116  -10.8102 C   0  0  0  0  0  0  0  0  0  0  0  0
    6.3222  -10.2312  -12.8902 C   0  0  0  0  0  0  0  0  0  0  0  0
  1 23  1  0  0  0  0
  1 24  1  0  0  0  0
  1  2  1  0  0  0  0
  3  4  1  0  0  0  0
  3 17  1  0  0  0  0
  4  6  2  0  0  0  0
  4 13  1  0  0  0  0
  5 10  1  0  0  0  0
  5 14  2  0  0  0  0
  6  8  1  0  0  0  0
  7 12  1  0  0  0  0
  7 14  1  0  0  0  0
  7 19  1  0  0  0  0
  8 10  2  0  0  0  0
  9 14  1  0  0  0  0
 10 12  1  0  0  0  0
 11 18  1  0  0  0  0
 11 20  1  0  0  0  0
 11 21  1  0  0  0  0
 12 13  2  0  0  0  0
 13 15  1  0  0  0  0
 15 16  1  0  0  0  0
 16 17  1  0  0  0  0
 16 18  1  1  0  0  0
 19 22  1  0  0  0  0
 22 23  1  0  0  0  0
M  END
>  <CHROM.1>
-138.16572690,97.60004516,154.77636792,163.32569530,-168.49965477,-63.29878605
10.39609731,-8.40412094,-12.03647042,2.65415371,0.14991201,-0.06355872

>  <Name>
ligand

>  <RI>
0

>  <Rbt.Current_Directory>
/home/itssahil/PROJECTS/Mol_Feturizer/New_Systems/rnas/3TZR

>  <Rbt.Executable>
rbdock ($Id: //depot/dev/client3/rdock/2013.1/src/exe/rbdock.cxx#4 $)

>  <Rbt.Library>
libRbt.so (2013.1, Build901 2013/11/27)

>  <Rbt.Parameter_File>
/export/apps/rDock/src/rDock_2013.1_src/data/scripts/dock_solv.prm

>  <Rbt.Receptor>
prm/pocket_docking_3.prm

>  <SCORE>
-34.2623

>  <SCORE.INTER>
-24.0711

>  <SCORE.INTER.CONST>
1

>  <SCORE.INTER.POLAR>
0

>  <SCORE.INTER.ROT>
6

>  <SCORE.INTER.SOLV>
21.0812

>  <SCORE.INTER.VDW>
-30.6745

>  <SCORE.INTER.norm>
-1.00296

>  <SCORE.INTRA>
-10.1912

>  <SCORE.INTRA.DIHEDRAL>
0.779502

>  <SCORE.INTRA.DIHEDRAL.0>
4.94008

>  <SCORE.INTRA.POLAR>
0

>  <SCORE.INTRA.POLAR.0>
0

>  <SCORE.INTRA.REPUL>
0

>  <SCORE.INTRA.REPUL.0>
0

>  <SCORE.INTRA.SOLV>
0.211658

>  <SCORE.INTRA.SOLV.lig_0>
-31.4704

>  <SCORE.INTRA.VDW>
-10.6868

>  <SCORE.INTRA.VDW.0>
10.2807

>  <SCORE.INTRA.norm>
-0.424633

>  <SCORE.RESTR>
0

>  <SCORE.RESTR.CAVITY>
0

>  <SCORE.RESTR.norm>
0

>  <SCORE.SYSTEM>
0

>  <SCORE.SYSTEM.CONST>
0

>  <SCORE.SYSTEM.DIHEDRAL>
0

>  <SCORE.SYSTEM.SOLV>
0

>  <SCORE.SYSTEM.norm>
0

>  <SCORE.heavy>
24

>  <SCORE.norm>
-1.4276

>  <RMSD>
1.376

$$$$
ligand
 OpenBabel11021811493D
libRbt.so/2013.1/901 2013/11/27
 24 26  0  0  0  0  0  0  0  0999 V2000
    6.1725   -9.9163  -11.5082 N   0  0  0  0  0  0  0  0  0  0  0  0
    5.2449  -10.8407  -10.8763 C   0  0  0  0  0  0  0  0  0  0  0  0
   13.8616   -7.7944  -13.0327 O   0  0  0  0  0  0  0  0  0  0  0  0
   12.8107   -6.9316  -12.7519 C   0  0  0  0  0  0  0  0  0  0  0  0
    9.4530   -4.4190  -11.9325 N   0  0  0  0  0  0  0  0  0  0  0  0
   13.0153   -5.4412  -12.6920 C   0  0  0  0  0  0  0  0  0  0  0  0
    9.0575   -6.6295  -11.9859 N   0  0  0  0  0  0  0  0  0  0  0  0
   11.9425   -4.5282  -12.4320 C   0  0  0  0  0  0  0  0  0  0  0  0
    7.1049   -5.1362  -11.5018 N   0  0  0  0  0  0  0  0  0  0  0  0
   10.6424   -5.1066  -12.2117 C   0  0  0  0  0  0  0  0  0  0  0  0
   13.4519  -11.9722  -12.1199 N   0  0  0  0  0  0  0  0  0  0  0  0
   10.4360   -6.5296  -12.2509 C   0  0  0  0  0  0  0  0  0  0  0  0
   11.5781   -7.4405  -12.5363 C   0  0  0  0  0  0  0  0  0  0  0  0
    8.4870   -5.3742  -11.8036 C   0  0  0  0  0  0  0  0  0  0  0  0
   11.3389   -8.9381  -12.5830 C   0  0  0  0  0  0  0  0  0  0  0  0
   12.5997   -9.7934  -12.6470 C   0  0  1  0  0  0  0  0  0  0  0  0
   13.8478   -9.0068  -12.3650 C   0  0  0  0  0  0  0  0  0  0  0  0
   12.4701  -10.9836  -11.7085 C   0  0  0  0  0  0  0  0  0  0  0  0
    8.2997   -7.8956  -11.9897 C   0  0  0  0  0  0  0  0  0  0  0  0
   13.8113  -12.7765  -10.9598 C   0  0  0  0  0  0  0  0  0  0  0  0
   12.8278  -12.8146  -13.1281 C   0  0  0  0  0  0  0  0  0  0  0  0
    8.0147   -8.4989  -10.6035 C   0  0  0  0  0  0  0  0  0  0  0  0
    7.4600   -9.9224  -10.7991 C   0  0  0  0  0  0  0  0  0  0  0  0
    6.3336  -10.3177  -12.9011 C   0  0  0  0  0  0  0  0  0  0  0  0
  1 23  1  0  0  0  0
  1 24  1  0  0  0  0
  1  2  1  0  0  0  0
  3  4  1  0  0  0  0
  3 17  1  0  0  0  0
  4  6  2  0  0  0  0
  4 13  1  0  0  0  0
  5 10  1  0  0  0  0
  5 14  2  0  0  0  0
  6  8  1  0  0  0  0
  7 12  1  0  0  0  0
  7 14  1  0  0  0  0
  7 19  1  0  0  0  0
  8 10  2  0  0  0  0
  9 14  1  0  0  0  0
 10 12  1  0  0  0  0
 11 18  1  0  0  0  0
 11 20  1  0  0  0  0
 11 21  1  0  0  0  0
 12 13  2  0  0  0  0
 13 15  1  0  0  0  0
 15 16  1  0  0  0  0
 16 17  1  0  0  0  0
 16 18  1  1  0  0  0
 19 22  1  0  0  0  0
 22 23  1  0  0  0  0
M  END
>  <CHROM.1>
-136.64928902,100.57833793,153.15129188,161.43129335,-169.60253482,-63.61486721
10.39480697,-8.42916890,-12.04394756,2.68159183,0.14662483,-0.06391771

>  <Name>
ligand

>  <RI>
0

>  <Rbt.Current_Directory>
/home/itssahil/PROJECTS/Mol_Feturizer/New_Systems/rnas/3TZR

>  <Rbt.Executable>
rbdock ($Id: //depot/dev/client3/rdock/2013.1/src/exe/rbdock.cxx#4 $)

>  <Rbt.Library>
libRbt.so (2013.1, Build901 2013/11/27)

>  <Rbt.Parameter_File>
/export/apps/rDock/src/rDock_2013.1_src/data/scripts/dock_solv.prm

>  <Rbt.Receptor>
prm/pocket_docking_3.prm

>  <SCORE>
-34.2985

>  <SCORE.INTER>
-24.1081

>  <SCORE.INTER.CONST>
1

>  <SCORE.INTER.POLAR>
0

>  <SCORE.INTER.ROT>
6

>  <SCORE.INTER.SOLV>
20.8604

>  <SCORE.INTER.VDW>
-30.6256

>  <SCORE.INTER.norm>
-1.00451

>  <SCORE.INTRA>
-10.1903

>  <SCORE.INTRA.DIHEDRAL>
1.07412

>  <SCORE.INTRA.DIHEDRAL.0>
4.94008

>  <SCORE.INTRA.POLAR>
0

>  <SCORE.INTRA.POLAR.0>
0

>  <SCORE.INTRA.REPUL>
0

>  <SCORE.INTRA.REPUL.0>
0

>  <SCORE.INTRA.SOLV>
0.259419

>  <SCORE.INTRA.SOLV.lig_0>
-31.4704

>  <SCORE.INTRA.VDW>
-10.8571

>  <SCORE.INTRA.VDW.0>
10.2807

>  <SCORE.INTRA.norm>
-0.424597

>  <SCORE.RESTR>
0

>  <SCORE.RESTR.CAVITY>
0

>  <SCORE.RESTR.norm>
0

>  <SCORE.SYSTEM>
0

>  <SCORE.SYSTEM.CONST>
0

>  <SCORE.SYSTEM.DIHEDRAL>
0

>  <SCORE.SYSTEM.SOLV>
0

>  <SCORE.SYSTEM.norm>
0

>  <SCORE.heavy>
24

>  <SCORE.norm>
-1.4291

>  <RMSD>
1.379

$$$$
ligand
 OpenBabel11021811493D
libRbt.so/2013.1/901 2013/11/27
 24 26  0  0  0  0  0  0  0  0999 V2000
    7.3893  -10.4800  -11.1337 N   0  0  0  0  0  0  0  0  0  0  0  0
    6.3876  -10.4235  -12.1862 C   0  0  0  0  0  0  0  0  0  0  0  0
   13.9116   -8.0213  -13.2405 O   0  0  0  0  0  0  0  0  0  0  0  0
   12.9366   -7.0659  -12.9868 C   0  0  0  0  0  0  0  0  0  0  0  0
    9.8014   -4.2631  -12.2294 N   0  0  0  0  0  0  0  0  0  0  0  0
   13.2376   -5.5940  -13.0854 C   0  0  0  0  0  0  0  0  0  0  0  0
    9.2655   -6.4364  -12.0428 N   0  0  0  0  0  0  0  0  0  0  0  0
   12.2427   -4.5892  -12.8560 C   0  0  0  0  0  0  0  0  0  0  0  0
    7.4448   -4.7740  -11.5980 N   0  0  0  0  0  0  0  0  0  0  0  0
   10.9253   -5.0538  -12.5066 C   0  0  0  0  0  0  0  0  0  0  0  0
   13.3255  -12.0408  -11.8799 N   0  0  0  0  0  0  0  0  0  0  0  0
   10.6281   -6.4567  -12.3939 C   0  0  0  0  0  0  0  0  0  0  0  0
   11.6906   -7.4666  -12.6527 C   0  0  0  0  0  0  0  0  0  0  0  0
    8.7874   -5.1334  -11.9527 C   0  0  0  0  0  0  0  0  0  0  0  0
   11.3554   -8.9419  -12.5383 C   0  0  0  0  0  0  0  0  0  0  0  0
   12.5536   -9.8838  -12.5892 C   0  0  1  0  0  0  0  0  0  0  0  0
   13.8639   -9.1614  -12.4571 C   0  0  0  0  0  0  0  0  0  0  0  0
   12.4090  -10.9684  -11.5324 C   0  0  0  0  0  0  0  0  0  0  0  0
    8.4310   -7.6423  -11.8791 C   0  0  0  0  0  0  0  0  0  0  0  0
   13.5566  -12.8532  -10.6932 C   0  0  0  0  0  0  0  0  0  0  0  0
   12.6866  -12.8450  -12.9098 C   0  0  0  0  0  0  0  0  0  0  0  0
    8.5847   -8.3744  -10.5348 C   0  0  0  0  0  0  0  0  0  0  0  0
    7.3414   -9.2576  -10.3189 C   0  0  0  0  0  0  0  0  0  0  0  0
    7.1299  -11.6656  -10.3248 C   0  0  0  0  0  0  0  0  0  0  0  0
  1 23  1  0  0  0  0
  1 24  1  0  0  0  0
  1  2  1  0  0  0  0
  3  4  1  0  0  0  0
  3 17  1  0  0  0  0
  4  6  2  0  0  0  0
  4 13  1  0  0  0  0
  5 10  1  0  0  0  0
  5 14  2  0  0  0  0
  6  8  1  0  0  0  0
  7 12  1  0  0  0  0
  7 14  1  0  0  0  0
  7 19  1  0  0  0  0
  8 10  2  0  0  0  0
  9 14  1  0  0  0  0
 10 12  1  0  0  0  0
 11 18  1  0  0  0  0
 11 20  1  0  0  0  0
 11 21  1  0  0  0  0
 12 13  2  0  0  0  0
 13 15  1  0  0  0  0
 15 16  1  0  0  0  0
 16 17  1  0  0  0  0
 16 18  1  1  0  0  0
 19 22  1  0  0  0  0
 22 23  1  0  0  0  0
M  END
>  <CHROM.1>
-110.38302946,80.16409648,160.61786690,162.93809267,159.99604420,76.68960028
10.63136683,-8.44987211,-11.99499479,1.03023718,-0.22896635,2.98631115

>  <Name>
ligand

>  <RI>
0

>  <Rbt.Current_Directory>
/home/itssahil/PROJECTS/Mol_Feturizer/New_Systems/rnas/3TZR

>  <Rbt.Executable>
rbdock ($Id: //depot/dev/client3/rdock/2013.1/src/exe/rbdock.cxx#4 $)

>  <Rbt.Library>
libRbt.so (2013.1, Build901 2013/11/27)

>  <Rbt.Parameter_File>
/export/apps/rDock/src/rDock_2013.1_src/data/scripts/dock_solv.prm

>  <Rbt.Receptor>
prm/pocket_docking_5.prm

>  <SCORE>
-33.0733

>  <SCORE.INTER>
-23.4071

>  <SCORE.INTER.CONST>
1

>  <SCORE.INTER.POLAR>
0

>  <SCORE.INTER.ROT>
6

>  <SCORE.INTER.SOLV>
20.7671

>  <SCORE.INTER.VDW>
-30.1271

>  <SCORE.INTER.norm>
-0.975297

>  <SCORE.INTRA>
-9.66613

>  <SCORE.INTRA.DIHEDRAL>
2.65333

>  <SCORE.INTRA.DIHEDRAL.0>
4.94008

>  <SCORE.INTRA.POLAR>
0

>  <SCORE.INTRA.POLAR.0>
0

>  <SCORE.INTRA.REPUL>
0

>  <SCORE.INTRA.REPUL.0>
0

>  <SCORE.INTRA.SOLV>
-0.0579619

>  <SCORE.INTRA.SOLV.lig_0>
-31.4704

>  <SCORE.INTRA.VDW>
-10.9638

>  <SCORE.INTRA.VDW.0>
10.2807

>  <SCORE.INTRA.norm>
-0.402756

>  <SCORE.RESTR>
0

>  <SCORE.RESTR.CAVITY>
0

>  <SCORE.RESTR.norm>
0

>  <SCORE.SYSTEM>
0

>  <SCORE.SYSTEM.CONST>
0

>  <SCORE.SYSTEM.DIHEDRAL>
0

>  <SCORE.SYSTEM.SOLV>
0

>  <SCORE.SYSTEM.norm>
0

>  <SCORE.heavy>
24

>  <SCORE.norm>
-1.37805

>  <RMSD>
1.382

$$$$
ligand
 OpenBabel11021811493D
libRbt.so/2013.1/901 2013/11/27
 24 26  0  0  0  0  0  0  0  0999 V2000
    7.2310  -10.3521  -11.6481 N   0  0  0  0  0  0  0  0  0  0  0  0
    6.3242  -11.4758  -11.8200 C   0  0  0  0  0  0  0  0  0  0  0  0
   13.6186   -8.0543  -13.2919 O   0  0  0  0  0  0  0  0  0  0  0  0
   12.6981   -7.0612  -12.9850 C   0  0  0  0  0  0  0  0  0  0  0  0
    9.7260   -4.1396  -12.0417 N   0  0  0  0  0  0  0  0  0  0  0  0
   13.0177   -5.6049  -13.1946 C   0  0  0  0  0  0  0  0  0  0  0  0
    9.1677   -6.2853  -11.6815 N   0  0  0  0  0  0  0  0  0  0  0  0
   12.0758   -4.5631  -12.9123 C   0  0  0  0  0  0  0  0  0  0  0  0
    7.4430   -4.5537  -11.1306 N   0  0  0  0  0  0  0  0  0  0  0  0
   10.7954   -4.9735  -12.3969 C   0  0  0  0  0  0  0  0  0  0  0  0
   13.1726  -11.9380  -11.6187 N   0  0  0  0  0  0  0  0  0  0  0  0
   10.4826   -6.3603  -12.1775 C   0  0  0  0  0  0  0  0  0  0  0  0
   11.4883   -7.4104  -12.4960 C   0  0  0  0  0  0  0  0  0  0  0  0
    8.7304   -4.9669  -11.6098 C   0  0  0  0  0  0  0  0  0  0  0  0
   11.1364   -8.8684  -12.2669 C   0  0  0  0  0  0  0  0  0  0  0  0
   12.3014   -9.8438  -12.3976 C   0  0  1  0  0  0  0  0  0  0  0  0
   13.6332   -9.1513  -12.4480 C   0  0  0  0  0  0  0  0  0  0  0  0
   12.2511  -10.8688  -11.2747 C   0  0  0  0  0  0  0  0  0  0  0  0
    8.3309   -7.4583  -11.3634 C   0  0  0  0  0  0  0  0  0  0  0  0
   13.4889  -12.6825  -10.4073 C   0  0  0  0  0  0  0  0  0  0  0  0
   12.4972  -12.8081  -12.5686 C   0  0  0  0  0  0  0  0  0  0  0  0
    7.5399   -8.0454  -12.5451 C   0  0  0  0  0  0  0  0  0  0  0  0
    6.5548   -9.0942  -11.9957 C   0  0  0  0  0  0  0  0  0  0  0  0
    7.6840  -10.3437  -10.2617 C   0  0  0  0  0  0  0  0  0  0  0  0
  1 23  1  0  0  0  0
  1 24  1  0  0  0  0
  1  2  1  0  0  0  0
  3  4  1  0  0  0  0
  3 17  1  0  0  0  0
  4  6  2  0  0  0  0
  4 13  1  0  0  0  0
  5 10  1  0  0  0  0
  5 14  2  0  0  0  0
  6  8  1  0  0  0  0
  7 12  1  0  0  0  0
  7 14  1  0  0  0  0
  7 19  1  0  0  0  0
  8 10  2  0  0  0  0
  9 14  1  0  0  0  0
 10 12  1  0  0  0  0
 11 18  1  0  0  0  0
 11 20  1  0  0  0  0
 11 21  1  0  0  0  0
 12 13  2  0  0  0  0
 13 15  1  0  0  0  0
 15 16  1  0  0  0  0
 16 17  1  0  0  0  0
 16 18  1  1  0  0  0
 19 22  1  0  0  0  0
 22 23  1  0  0  0  0
M  END
>  <CHROM.1>
-149.98481405,-85.95529614,161.10570716,166.86066080,-170.62636678,-76.27566451
10.44562756,-8.34473666,-11.99725505,1.01539360,-0.15064731,3.01822919

>  <Name>
ligand

>  <RI>
0

>  <Rbt.Current_Directory>
/home/itssahil/PROJECTS/Mol_Feturizer/New_Systems/rnas/3TZR

>  <Rbt.Executable>
rbdock ($Id: //depot/dev/client3/rdock/2013.1/src/exe/rbdock.cxx#4 $)

>  <Rbt.Library>
libRbt.so (2013.1, Build901 2013/11/27)

>  <Rbt.Parameter_File>
/export/apps/rDock/src/rDock_2013.1_src/data/scripts/dock_solv.prm

>  <Rbt.Receptor>
prm/pocket_docking_4.prm

>  <SCORE>
-30.3723

>  <SCORE.INTER>
-20.1887

>  <SCORE.INTER.CONST>
1

>  <SCORE.INTER.POLAR>
0

>  <SCORE.INTER.ROT>
6

>  <SCORE.INTER.SOLV>
22.3693

>  <SCORE.INTER.VDW>
-28.5156

>  <SCORE.INTER.norm>
-0.841198

>  <SCORE.INTRA>
-10.1968

>  <SCORE.INTRA.DIHEDRAL>
-0.138502

>  <SCORE.INTRA.DIHEDRAL.0>
4.94008

>  <SCORE.INTRA.POLAR>
0

>  <SCORE.INTRA.POLAR.0>
0

>  <SCORE.INTRA.REPUL>
0

>  <SCORE.INTRA.REPUL.0>
0

>  <SCORE.INTRA.SOLV>
0.130787

>  <SCORE.INTRA.SOLV.lig_0>
-31.4704

>  <SCORE.INTRA.VDW>
-10.193

>  <SCORE.INTRA.VDW.0>
10.2807

>  <SCORE.INTRA.norm>
-0.424869

>  <SCORE.RESTR>
0.013242

>  <SCORE.RESTR.CAVITY>
0.013242

>  <SCORE.RESTR.norm>
0.000551752

>  <SCORE.SYSTEM>
0

>  <SCORE.SYSTEM.CONST>
0

>  <SCORE.SYSTEM.DIHEDRAL>
0

>  <SCORE.SYSTEM.SOLV>
0

>  <SCORE.SYSTEM.norm>
0

>  <SCORE.heavy>
24

>  <SCORE.norm>
-1.26551

>  <RMSD>
1.389

$$$$
ligand
 OpenBabel11021811493D
libRbt.so/2013.1/901 2013/11/27
 24 26  0  0  0  0  0  0  0  0999 V2000
    7.2561  -10.3462  -11.6548 N   0  0  0  0  0  0  0  0  0  0  0  0
    6.3493  -11.4760  -11.7793 C   0  0  0  0  0  0  0  0  0  0  0  0
   13.6648   -8.0325  -13.2259 O   0  0  0  0  0  0  0  0  0  0  0  0
   12.7312   -7.0441  -12.9441 C   0  0  0  0  0  0  0  0  0  0  0  0
    9.7202   -4.1384  -12.0786 N   0  0  0  0  0  0  0  0  0  0  0  0
   13.0411   -5.5876  -13.1662 C   0  0  0  0  0  0  0  0  0  0  0  0
    9.1755   -6.2848  -11.7014 N   0  0  0  0  0  0  0  0  0  0  0  0
   12.0861   -4.5511  -12.9099 C   0  0  0  0  0  0  0  0  0  0  0  0
    7.4278   -4.5623  -11.1960 N   0  0  0  0  0  0  0  0  0  0  0  0
   10.8019   -4.9669  -12.4084 C   0  0  0  0  0  0  0  0  0  0  0  0
   13.2003  -11.9190  -11.5320 N   0  0  0  0  0  0  0  0  0  0  0  0
   10.4981   -6.3537  -12.1773 C   0  0  0  0  0  0  0  0  0  0  0  0
   11.5175   -7.3985  -12.4688 C   0  0  0  0  0  0  0  0  0  0  0  0
    8.7256   -4.9696  -11.6516 C   0  0  0  0  0  0  0  0  0  0  0  0
   11.1751   -8.8568  -12.2276 C   0  0  0  0  0  0  0  0  0  0  0  0
   12.3504   -9.8232  -12.3299 C   0  0  1  0  0  0  0  0  0  0  0  0
   13.6767   -9.1195  -12.3691 C   0  0  0  0  0  0  0  0  0  0  0  0
   12.2927  -10.8355  -11.1958 C   0  0  0  0  0  0  0  0  0  0  0  0
    8.3444   -7.4614  -11.3817 C   0  0  0  0  0  0  0  0  0  0  0  0
   13.5097  -12.6564  -10.3145 C   0  0  0  0  0  0  0  0  0  0  0  0
   12.5123  -12.7892  -12.4727 C   0  0  0  0  0  0  0  0  0  0  0  0
    7.5355   -8.0376  -12.5566 C   0  0  0  0  0  0  0  0  0  0  0  0
    6.5642   -9.0970  -12.0030 C   0  0  0  0  0  0  0  0  0  0  0  0
    7.7515  -10.3122  -10.2833 C   0  0  0  0  0  0  0  0  0  0  0  0
  1 23  1  0  0  0  0
  1 24  1  0  0  0  0
  1  2  1  0  0  0  0
  3  4  1  0  0  0  0
  3 17  1  0  0  0  0
  4  6  2  0  0  0  0
  4 13  1  0  0  0  0
  5 10  1  0  0  0  0
  5 14  2  0  0  0  0
  6  8  1  0  0  0  0
  7 12  1  0  0  0  0
  7 14  1  0  0  0  0
  7 19  1  0  0  0  0
  8 10  2  0  0  0  0
  9 14  1  0  0  0  0
 10 12  1  0  0  0  0
 11 18  1  0  0  0  0
 11 20  1  0  0  0  0
 11 21  1  0  0  0  0
 12 13  2  0  0  0  0
 13 15  1  0  0  0  0
 15 16  1  0  0  0  0
 16 17  1  0  0  0  0
 16 18  1  1  0  0  0
 19 22  1  0  0  0  0
 22 23  1  0  0  0  0
M  END
>  <CHROM.1>
-151.89051710,-88.12549988,161.26539308,165.27343290,-170.88223190,-75.03084878
10.46768236,-8.33269337,-11.97506367,1.00759308,-0.13660950,3.00634119

>  <Name>
ligand

>  <RI>
0

>  <Rbt.Current_Directory>
/home/itssahil/PROJECTS/Mol_Feturizer/New_Systems/rnas/3TZR

>  <Rbt.Executable>
rbdock ($Id: //depot/dev/client3/rdock/2013.1/src/exe/rbdock.cxx#4 $)

>  <Rbt.Library>
libRbt.so (2013.1, Build901 2013/11/27)

>  <Rbt.Parameter_File>
/export/apps/rDock/src/rDock_2013.1_src/data/scripts/dock_solv.prm

>  <Rbt.Receptor>
prm/pocket_docking_6.prm

>  <SCORE>
-30.4554

>  <SCORE.INTER>
-20.4248

>  <SCORE.INTER.CONST>
1

>  <SCORE.INTER.POLAR>
0

>  <SCORE.INTER.ROT>
6

>  <SCORE.INTER.SOLV>
22.1494

>  <SCORE.INTER.VDW>
-28.5997

>  <SCORE.INTER.norm>
-0.851033

>  <SCORE.INTRA>
-10.0306

>  <SCORE.INTRA.DIHEDRAL>
-0.271951

>  <SCORE.INTRA.DIHEDRAL.0>
4.94008

>  <SCORE.INTRA.POLAR>
0

>  <SCORE.INTRA.POLAR.0>
0

>  <SCORE.INTRA.REPUL>
0

>  <SCORE.INTRA.REPUL.0>
0

>  <SCORE.INTRA.SOLV>
0.179098

>  <SCORE.INTRA.SOLV.lig_0>
-31.4704

>  <SCORE.INTRA.VDW>
-9.98418

>  <SCORE.INTRA.VDW.0>
10.2807

>  <SCORE.INTRA.norm>
-0.417942

>  <SCORE.RESTR>
0

>  <SCORE.RESTR.CAVITY>
0

>  <SCORE.RESTR.norm>
0

>  <SCORE.SYSTEM>
0

>  <SCORE.SYSTEM.CONST>
0

>  <SCORE.SYSTEM.DIHEDRAL>
0

>  <SCORE.SYSTEM.SOLV>
0

>  <SCORE.SYSTEM.norm>
0

>  <SCORE.heavy>
24

>  <SCORE.norm>
-1.26898

>  <RMSD>
1.389

$$$$
ligand
 OpenBabel11021811493D
libRbt.so/2013.1/901 2013/11/27
 24 26  0  0  0  0  0  0  0  0999 V2000
    7.4450  -10.5912  -10.9604 N   0  0  0  0  0  0  0  0  0  0  0  0
    6.3909  -11.4161  -11.5286 C   0  0  0  0  0  0  0  0  0  0  0  0
   13.9528   -8.4596  -13.0779 O   0  0  0  0  0  0  0  0  0  0  0  0
   13.0278   -7.4599  -12.8083 C   0  0  0  0  0  0  0  0  0  0  0  0
   10.0396   -4.5107  -12.0132 N   0  0  0  0  0  0  0  0  0  0  0  0
   13.4188   -6.0060  -12.8238 C   0  0  0  0  0  0  0  0  0  0  0  0
    9.3696   -6.6539  -11.9523 N   0  0  0  0  0  0  0  0  0  0  0  0
   12.4777   -4.9546  -12.5766 C   0  0  0  0  0  0  0  0  0  0  0  0
    7.6362   -4.9068  -11.4839 N   0  0  0  0  0  0  0  0  0  0  0  0
   11.1237   -5.3543  -12.2932 C   0  0  0  0  0  0  0  0  0  0  0  0
   13.2983  -12.3491  -11.7195 N   0  0  0  0  0  0  0  0  0  0  0  0
   10.7401   -6.7402  -12.2602 C   0  0  0  0  0  0  0  0  0  0  0  0
   11.7493   -7.7994  -12.5347 C   0  0  0  0  0  0  0  0  0  0  0  0
    8.9668   -5.3300  -11.8128 C   0  0  0  0  0  0  0  0  0  0  0  0
   11.3235   -9.2554  -12.5048 C   0  0  0  0  0  0  0  0  0  0  0  0
   12.4648  -10.2650  -12.5641 C   0  0  1  0  0  0  0  0  0  0  0  0
   13.8101   -9.6309  -12.3543 C   0  0  0  0  0  0  0  0  0  0  0  0
   12.2193  -11.3881  -11.5678 C   0  0  0  0  0  0  0  0  0  0  0  0
    8.4600   -7.8132  -11.8757 C   0  0  0  0  0  0  0  0  0  0  0  0
   13.4516  -13.0728  -10.4647 C   0  0  0  0  0  0  0  0  0  0  0  0
   12.9156  -13.2724  -12.7762 C   0  0  0  0  0  0  0  0  0  0  0  0
    8.0236   -8.2178  -10.4571 C   0  0  0  0  0  0  0  0  0  0  0  0
    6.9115   -9.2768  -10.5755 C   0  0  0  0  0  0  0  0  0  0  0  0
    8.0000  -11.2947   -9.8096 C   0  0  0  0  0  0  0  0  0  0  0  0
  1 23  1  0  0  0  0
  1 24  1  0  0  0  0
  1  2  1  0  0  0  0
  3  4  1  0  0  0  0
  3 17  1  0  0  0  0
  4  6  2  0  0  0  0
  4 13  1  0  0  0  0
  5 10  1  0  0  0  0
  5 14  2  0  0  0  0
  6  8  1  0  0  0  0
  7 12  1  0  0  0  0
  7 14  1  0  0  0  0
  7 19  1  0  0  0  0
  8 10  2  0  0  0  0
  9 14  1  0  0  0  0
 10 12  1  0  0  0  0
 11 18  1  0  0  0  0
 11 20  1  0  0  0  0
 11 21  1  0  0  0  0
 12 13  2  0  0  0  0
 13 15  1  0  0  0  0
 15 16  1  0  0  0  0
 16 17  1  0  0  0  0
 16 18  1  1  0  0  0
 19 22  1  0  0  0  0
 22 23  1  0  0  0  0
M  END
>  <CHROM.1>
-159.32047793,107.13677147,154.83577853,177.08292474,170.79186572,75.09197692
10.68541945,-8.72499955,-11.83790893,2.12931570,0.24737764,-0.14587747

>  <Name>
ligand

>  <RI>
0

>  <Rbt.Current_Directory>
/home/itssahil/PROJECTS/Mol_Feturizer/New_Systems/rnas/3TZR

>  <Rbt.Executable>
rbdock ($Id: //depot/dev/client3/rdock/2013.1/src/exe/rbdock.cxx#4 $)

>  <Rbt.Library>
libRbt.so (2013.1, Build901 2013/11/27)

>  <Rbt.Parameter_File>
/export/apps/rDock/src/rDock_2013.1_src/data/scripts/dock_solv.prm

>  <Rbt.Receptor>
prm/pocket_docking_4.prm

>  <SCORE>
-32.6236

>  <SCORE.INTER>
-21.973

>  <SCORE.INTER.CONST>
1

>  <SCORE.INTER.POLAR>
0

>  <SCORE.INTER.ROT>
6

>  <SCORE.INTER.SOLV>
18.8436

>  <SCORE.INTER.VDW>
-28.5298

>  <SCORE.INTER.norm>
-0.915541

>  <SCORE.INTRA>
-10.6521

>  <SCORE.INTRA.DIHEDRAL>
-0.818517

>  <SCORE.INTRA.DIHEDRAL.0>
4.94008

>  <SCORE.INTRA.POLAR>
0

>  <SCORE.INTRA.POLAR.0>
0

>  <SCORE.INTRA.REPUL>
0

>  <SCORE.INTRA.REPUL.0>
0

>  <SCORE.INTRA.SOLV>
0.646808

>  <SCORE.INTRA.SOLV.lig_0>
-31.4704

>  <SCORE.INTRA.VDW>
-10.5662

>  <SCORE.INTRA.VDW.0>
10.2807

>  <SCORE.INTRA.norm>
-0.443836

>  <SCORE.RESTR>
0.00142533

>  <SCORE.RESTR.CAVITY>
0.00142533

>  <SCORE.RESTR.norm>
5.93889e-05

>  <SCORE.SYSTEM>
0

>  <SCORE.SYSTEM.CONST>
0

>  <SCORE.SYSTEM.DIHEDRAL>
0

>  <SCORE.SYSTEM.SOLV>
0

>  <SCORE.SYSTEM.norm>
0

>  <SCORE.heavy>
24

>  <SCORE.norm>
-1.35932

>  <RMSD>
1.396

$$$$
ligand
 OpenBabel11021811493D
libRbt.so/2013.1/901 2013/11/27
 24 26  0  0  0  0  0  0  0  0999 V2000
    7.2100  -10.3645  -11.7880 N   0  0  0  0  0  0  0  0  0  0  0  0
    6.3344  -11.5020  -12.0199 C   0  0  0  0  0  0  0  0  0  0  0  0
   13.6548   -8.0356  -13.2045 O   0  0  0  0  0  0  0  0  0  0  0  0
   12.7089   -7.0524  -12.9468 C   0  0  0  0  0  0  0  0  0  0  0  0
    9.6607   -4.1639  -12.1568 N   0  0  0  0  0  0  0  0  0  0  0  0
   13.0110   -5.5953  -13.1758 C   0  0  0  0  0  0  0  0  0  0  0  0
    9.1266   -6.3113  -11.7709 N   0  0  0  0  0  0  0  0  0  0  0  0
   12.0437   -4.5644  -12.9444 C   0  0  0  0  0  0  0  0  0  0  0  0
    7.3571   -4.5988  -11.3097 N   0  0  0  0  0  0  0  0  0  0  0  0
   10.7544   -4.9864  -12.4613 C   0  0  0  0  0  0  0  0  0  0  0  0
   13.1283  -11.9514  -11.5250 N   0  0  0  0  0  0  0  0  0  0  0  0
   10.4576   -6.3736  -12.2237 C   0  0  0  0  0  0  0  0  0  0  0  0
   11.4900   -7.4125  -12.4892 C   0  0  0  0  0  0  0  0  0  0  0  0
    8.6657   -4.9994  -11.7398 C   0  0  0  0  0  0  0  0  0  0  0  0
   11.1551   -8.8715  -12.2417 C   0  0  0  0  0  0  0  0  0  0  0  0
   12.3394   -9.8292  -12.3158 C   0  0  1  0  0  0  0  0  0  0  0  0
   13.6607   -9.1153  -12.3385 C   0  0  0  0  0  0  0  0  0  0  0  0
   12.2704  -10.8326  -11.1745 C   0  0  0  0  0  0  0  0  0  0  0  0
    8.2995   -7.4918  -11.4555 C   0  0  0  0  0  0  0  0  0  0  0  0
   13.4319  -12.6982  -10.3118 C   0  0  0  0  0  0  0  0  0  0  0  0
   12.3891  -12.7958  -12.4503 C   0  0  0  0  0  0  0  0  0  0  0  0
    7.4359   -8.0216  -12.6132 C   0  0  0  0  0  0  0  0  0  0  0  0
    6.4960   -9.1086  -12.0588 C   0  0  0  0  0  0  0  0  0  0  0  0
    7.6722  -10.4231  -10.4059 C   0  0  0  0  0  0  0  0  0  0  0  0
  1 23  1  0  0  0  0
  1 24  1  0  0  0  0
  1  2  1  0  0  0  0
  3  4  1  0  0  0  0
  3 17  1  0  0  0  0
  4  6  2  0  0  0  0
  4 13  1  0  0  0  0
  5 10  1  0  0  0  0
  5 14  2  0  0  0  0
  6  8  1  0  0  0  0
  7 12  1  0  0  0  0
  7 14  1  0  0  0  0
  7 19  1  0  0  0  0
  8 10  2  0  0  0  0
  9 14  1  0  0  0  0
 10 12  1  0  0  0  0
 11 18  1  0  0  0  0
 11 20  1  0  0  0  0
 11 21  1  0  0  0  0
 12 13  2  0  0  0  0
 13 15  1  0  0  0  0
 15 16  1  0  0  0  0
 16 17  1  0  0  0  0
 16 18  1  1  0  0  0
 19 22  1  0  0  0  0
 22 23  1  0  0  0  0
M  END
>  <CHROM.1>
-147.35958220,-92.42882178,161.60040695,161.77429027,-171.81153663,-74.56202357
10.41896120,-8.35311121,-12.02125976,1.01586159,-0.11294891,3.00594064

>  <Name>
ligand

>  <RI>
0

>  <Rbt.Current_Directory>
/home/itssahil/PROJECTS/Mol_Feturizer/New_Systems/rnas/3TZR

>  <Rbt.Executable>
rbdock ($Id: //depot/dev/client3/rdock/2013.1/src/exe/rbdock.cxx#4 $)

>  <Rbt.Library>
libRbt.so (2013.1, Build901 2013/11/27)

>  <Rbt.Parameter_File>
/export/apps/rDock/src/rDock_2013.1_src/data/scripts/dock_solv.prm

>  <Rbt.Receptor>
prm/pocket_docking_5.prm

>  <SCORE>
-30.1899

>  <SCORE.INTER>
-20.1292

>  <SCORE.INTER.CONST>
1

>  <SCORE.INTER.POLAR>
0

>  <SCORE.INTER.ROT>
6

>  <SCORE.INTER.SOLV>
21.9988

>  <SCORE.INTER.VDW>
-28.3524

>  <SCORE.INTER.norm>
-0.838717

>  <SCORE.INTRA>
-10.0697

>  <SCORE.INTRA.DIHEDRAL>
0.251838

>  <SCORE.INTRA.DIHEDRAL.0>
4.94008

>  <SCORE.INTRA.POLAR>
0

>  <SCORE.INTRA.POLAR.0>
0

>  <SCORE.INTRA.REPUL>
0

>  <SCORE.INTRA.REPUL.0>
0

>  <SCORE.INTRA.SOLV>
0.279199

>  <SCORE.INTRA.SOLV.lig_0>
-31.4704

>  <SCORE.INTRA.VDW>
-10.3353

>  <SCORE.INTRA.VDW.0>
10.2807

>  <SCORE.INTRA.norm>
-0.419572

>  <SCORE.RESTR>
0.00905197

>  <SCORE.RESTR.CAVITY>
0.00905197

>  <SCORE.RESTR.norm>
0.000377166

>  <SCORE.SYSTEM>
0

>  <SCORE.SYSTEM.CONST>
0

>  <SCORE.SYSTEM.DIHEDRAL>
0

>  <SCORE.SYSTEM.SOLV>
0

>  <SCORE.SYSTEM.norm>
0

>  <SCORE.heavy>
24

>  <SCORE.norm>
-1.25791

>  <RMSD>
1.398

$$$$
ligand
 OpenBabel11021811493D
libRbt.so/2013.1/901 2013/11/27
 24 26  0  0  0  0  0  0  0  0999 V2000
    7.7291  -11.6061  -10.2126 N   0  0  0  0  0  0  0  0  0  0  0  0
    6.7734  -12.6581  -10.5197 C   0  0  0  0  0  0  0  0  0  0  0  0
   13.8066   -8.1416  -12.9763 O   0  0  0  0  0  0  0  0  0  0  0  0
   12.7504   -7.3000  -12.6539 C   0  0  0  0  0  0  0  0  0  0  0  0
    9.3775   -4.8496  -11.7169 N   0  0  0  0  0  0  0  0  0  0  0  0
   12.9511   -5.8162  -12.4961 C   0  0  0  0  0  0  0  0  0  0  0  0
    8.9875   -7.0527  -11.9167 N   0  0  0  0  0  0  0  0  0  0  0  0
   11.8732   -4.9232  -12.1915 C   0  0  0  0  0  0  0  0  0  0  0  0
    7.0259   -5.5962  -11.3623 N   0  0  0  0  0  0  0  0  0  0  0  0
   10.5717   -5.5163  -12.0248 C   0  0  0  0  0  0  0  0  0  0  0  0
   11.7900  -11.0114  -10.6227 N   0  0  0  0  0  0  0  0  0  0  0  0
   10.3689   -6.9342  -12.1576 C   0  0  0  0  0  0  0  0  0  0  0  0
   11.5164   -7.8234  -12.4866 C   0  0  0  0  0  0  0  0  0  0  0  0
    8.4121   -5.8124  -11.6614 C   0  0  0  0  0  0  0  0  0  0  0  0
   11.2810   -9.3152  -12.6321 C   0  0  0  0  0  0  0  0  0  0  0  0
   12.5444  -10.1629  -12.7351 C   0  0  1  0  0  0  0  0  0  0  0  0
   13.7872   -9.3943  -12.3879 C   0  0  0  0  0  0  0  0  0  0  0  0
   12.4058  -11.4109  -11.8764 C   0  0  0  0  0  0  0  0  0  0  0  0
    8.2325   -8.3170  -12.0110 C   0  0  0  0  0  0  0  0  0  0  0  0
   10.7596  -11.9838  -10.2840 C   0  0  0  0  0  0  0  0  0  0  0  0
   12.8280  -11.0197   -9.6039 C   0  0  0  0  0  0  0  0  0  0  0  0
    8.4838   -9.3227  -10.8742 C   0  0  0  0  0  0  0  0  0  0  0  0
    7.3405  -10.3547  -10.8785 C   0  0  0  0  0  0  0  0  0  0  0  0
    7.7731  -11.4430   -8.7638 C   0  0  0  0  0  0  0  0  0  0  0  0
  1 23  1  0  0  0  0
  1 24  1  0  0  0  0
  1  2  1  0  0  0  0
  3  4  1  0  0  0  0
  3 17  1  0  0  0  0
  4  6  2  0  0  0  0
  4 13  1  0  0  0  0
  5 10  1  0  0  0  0
  5 14  2  0  0  0  0
  6  8  1  0  0  0  0
  7 12  1  0  0  0  0
  7 14  1  0  0  0  0
  7 19  1  0  0  0  0
  8 10  2  0  0  0  0
  9 14  1  0  0  0  0
 10 12  1  0  0  0  0
 11 18  1  0  0  0  0
 11 20  1  0  0  0  0
 11 21  1  0  0  0  0
 12 13  2  0  0  0  0
 13 15  1  0  0  0  0
 15 16  1  0  0  0  0
 16 17  1  0  0  0  0
 16 18  1  1  0  0  0
 19 22  1  0  0  0  0
 22 23  1  0  0  0  0
M  END
>  <CHROM.1>
-165.85747135,72.78644927,135.76533314,-42.08575496,162.81256008,158.09923546
10.35907885,-8.78917824,-11.49715148,2.07685570,-0.23065276,2.87877514

>  <Name>
ligand

>  <RI>
0

>  <Rbt.Current_Directory>
/home/itssahil/PROJECTS/Mol_Feturizer/New_Systems/rnas/3TZR

>  <Rbt.Executable>
rbdock ($Id: //depot/dev/client3/rdock/2013.1/src/exe/rbdock.cxx#4 $)

>  <Rbt.Library>
libRbt.so (2013.1, Build901 2013/11/27)

>  <Rbt.Parameter_File>
/export/apps/rDock/src/rDock_2013.1_src/data/scripts/dock_solv.prm

>  <Rbt.Receptor>
prm/blind_docking_100.prm

>  <SCORE>
-29.5012

>  <SCORE.INTER>
-21.1045

>  <SCORE.INTER.CONST>
1

>  <SCORE.INTER.POLAR>
-0.493384

>  <SCORE.INTER.ROT>
6

>  <SCORE.INTER.SOLV>
18.8376

>  <SCORE.INTER.VDW>
-26.3043

>  <SCORE.INTER.norm>
-0.879356

>  <SCORE.INTRA>
-8.78047

>  <SCORE.INTRA.DIHEDRAL>
2.45622

>  <SCORE.INTRA.DIHEDRAL.0>
4.94008

>  <SCORE.INTRA.POLAR>
0

>  <SCORE.INTRA.POLAR.0>
0

>  <SCORE.INTRA.REPUL>
0

>  <SCORE.INTRA.REPUL.0>
0

>  <SCORE.INTRA.SOLV>
0.421

>  <SCORE.INTRA.SOLV.lig_0>
-31.4704

>  <SCORE.INTRA.VDW>
-10.2191

>  <SCORE.INTRA.VDW.0>
10.2807

>  <SCORE.INTRA.norm>
-0.365853

>  <SCORE.RESTR>
0.383783

>  <SCORE.RESTR.CAVITY>
0.383783

>  <SCORE.RESTR.norm>
0.0159909

>  <SCORE.SYSTEM>
0

>  <SCORE.SYSTEM.CONST>
0

>  <SCORE.SYSTEM.DIHEDRAL>
0

>  <SCORE.SYSTEM.SOLV>
0

>  <SCORE.SYSTEM.norm>
0

>  <SCORE.heavy>
24

>  <SCORE.norm>
-1.22922

>  <RMSD>
1.402

$$$$
ligand
 OpenBabel11021811493D
libRbt.so/2013.1/901 2013/11/27
 24 26  0  0  0  0  0  0  0  0999 V2000
    7.0612  -10.5246  -11.5380 N   0  0  0  0  0  0  0  0  0  0  0  0
    6.1483  -10.1323  -12.5995 C   0  0  0  0  0  0  0  0  0  0  0  0
   13.8804   -7.8390  -13.1618 O   0  0  0  0  0  0  0  0  0  0  0  0
   12.8611   -6.9492  -12.8506 C   0  0  0  0  0  0  0  0  0  0  0  0
    9.5958   -4.3494  -11.9349 N   0  0  0  0  0  0  0  0  0  0  0  0
   13.1081   -5.4652  -12.7895 C   0  0  0  0  0  0  0  0  0  0  0  0
    9.1383   -6.5480  -11.9878 N   0  0  0  0  0  0  0  0  0  0  0  0
   12.0679   -4.5244  -12.4983 C   0  0  0  0  0  0  0  0  0  0  0  0
    7.2406   -5.0041  -11.4476 N   0  0  0  0  0  0  0  0  0  0  0  0
   10.7583   -5.0681  -12.2473 C   0  0  0  0  0  0  0  0  0  0  0  0
   12.9995  -12.1504  -12.4933 N   0  0  0  0  0  0  0  0  0  0  0  0
   10.5119   -6.4846  -12.2874 C   0  0  0  0  0  0  0  0  0  0  0  0
   11.6208   -7.4251  -12.6058 C   0  0  0  0  0  0  0  0  0  0  0  0
    8.6074   -5.2784  -11.7855 C   0  0  0  0  0  0  0  0  0  0  0  0
   11.3393   -8.9153  -12.6528 C   0  0  0  0  0  0  0  0  0  0  0  0
   12.5741   -9.8046  -12.7526 C   0  0  1  0  0  0  0  0  0  0  0  0
   13.8501   -9.0539  -12.4992 C   0  0  0  0  0  0  0  0  0  0  0  0
   12.4356  -10.9954  -11.8162 C   0  0  0  0  0  0  0  0  0  0  0  0
    8.3460   -7.7927  -11.9776 C   0  0  0  0  0  0  0  0  0  0  0  0
   14.3762  -12.3198  -12.0484 C   0  0  0  0  0  0  0  0  0  0  0  0
   12.2117  -13.3107  -12.1077 C   0  0  0  0  0  0  0  0  0  0  0  0
    8.4643   -8.6406  -10.6994 C   0  0  0  0  0  0  0  0  0  0  0  0
    7.1670   -9.4546  -10.5358 C   0  0  0  0  0  0  0  0  0  0  0  0
    6.5608  -11.7589  -10.9433 C   0  0  0  0  0  0  0  0  0  0  0  0
  1 23  1  0  0  0  0
  1 24  1  0  0  0  0
  1  2  1  0  0  0  0
  3  4  1  0  0  0  0
  3 17  1  0  0  0  0
  4  6  2  0  0  0  0
  4 13  1  0  0  0  0
  5 10  1  0  0  0  0
  5 14  2  0  0  0  0
  6  8  1  0  0  0  0
  7 12  1  0  0  0  0
  7 14  1  0  0  0  0
  7 19  1  0  0  0  0
  8 10  2  0  0  0  0
  9 14  1  0  0  0  0
 10 12  1  0  0  0  0
 11 18  1  0  0  0  0
 11 20  1  0  0  0  0
 11 21  1  0  0  0  0
 12 13  2  0  0  0  0
 13 15  1  0  0  0  0
 15 16  1  0  0  0  0
 16 17  1  0  0  0  0
 16 18  1  1  0  0  0
 19 22  1  0  0  0  0
 22 23  1  0  0  0  0
M  END
>  <CHROM.1>
-101.90380677,81.10816476,96.21089789,141.94074473,152.97985066,70.90185177
10.50850254,-8.46619574,-12.08176617,2.34979106,0.18354079,-0.05915701

>  <Name>
ligand

>  <RI>
0

>  <Rbt.Current_Directory>
/home/itssahil/PROJECTS/Mol_Feturizer/New_Systems/rnas/3TZR

>  <Rbt.Executable>
rbdock ($Id: //depot/dev/client3/rdock/2013.1/src/exe/rbdock.cxx#4 $)

>  <Rbt.Library>
libRbt.so (2013.1, Build901 2013/11/27)

>  <Rbt.Parameter_File>
/export/apps/rDock/src/rDock_2013.1_src/data/scripts/dock_solv.prm

>  <Rbt.Receptor>
prm/pocket_docking_3.prm

>  <SCORE>
-31.3483

>  <SCORE.INTER>
-23.3594

>  <SCORE.INTER.CONST>
1

>  <SCORE.INTER.POLAR>
0

>  <SCORE.INTER.ROT>
6

>  <SCORE.INTER.SOLV>
21.0713

>  <SCORE.INTER.VDW>
-30.1967

>  <SCORE.INTER.norm>
-0.973307

>  <SCORE.INTRA>
-7.98891

>  <SCORE.INTRA.DIHEDRAL>
6.30165

>  <SCORE.INTRA.DIHEDRAL.0>
4.94008

>  <SCORE.INTRA.POLAR>
0

>  <SCORE.INTRA.POLAR.0>
0

>  <SCORE.INTRA.REPUL>
0

>  <SCORE.INTRA.REPUL.0>
0

>  <SCORE.INTRA.SOLV>
0.032561

>  <SCORE.INTRA.SOLV.lig_0>
-31.4704

>  <SCORE.INTRA.VDW>
-11.156

>  <SCORE.INTRA.VDW.0>
10.2807

>  <SCORE.INTRA.norm>
-0.332871

>  <SCORE.RESTR>
0

>  <SCORE.RESTR.CAVITY>
0

>  <SCORE.RESTR.norm>
0

>  <SCORE.SYSTEM>
0

>  <SCORE.SYSTEM.CONST>
0

>  <SCORE.SYSTEM.DIHEDRAL>
0

>  <SCORE.SYSTEM.SOLV>
0

>  <SCORE.SYSTEM.norm>
0

>  <SCORE.heavy>
24

>  <SCORE.norm>
-1.30618

>  <RMSD>
1.414

$$$$
ligand
 OpenBabel11021811493D
libRbt.so/2013.1/901 2013/11/27
 24 26  0  0  0  0  0  0  0  0999 V2000
    8.1962   -9.6039   -9.6163 N   0  0  0  0  0  0  0  0  0  0  0  0
    8.0926  -10.9524   -9.0823 C   0  0  0  0  0  0  0  0  0  0  0  0
   14.1310   -7.6567  -13.0365 O   0  0  0  0  0  0  0  0  0  0  0  0
   13.0573   -6.8287  -12.7371 C   0  0  0  0  0  0  0  0  0  0  0  0
    9.6337   -4.4248  -11.8661 N   0  0  0  0  0  0  0  0  0  0  0  0
   13.2252   -5.3364  -12.6288 C   0  0  0  0  0  0  0  0  0  0  0  0
    9.2925   -6.6414  -11.9922 N   0  0  0  0  0  0  0  0  0  0  0  0
   12.1287   -4.4582  -12.3488 C   0  0  0  0  0  0  0  0  0  0  0  0
    7.3007   -5.2116  -11.4771 N   0  0  0  0  0  0  0  0  0  0  0  0
   10.8414   -5.0744  -12.1572 C   0  0  0  0  0  0  0  0  0  0  0  0
   13.5937  -11.9783  -12.4326 N   0  0  0  0  0  0  0  0  0  0  0  0
   10.6700   -6.5000  -12.2428 C   0  0  0  0  0  0  0  0  0  0  0  0
   11.8360   -7.3737  -12.5475 C   0  0  0  0  0  0  0  0  0  0  0  0
    8.6903   -5.4066  -11.7751 C   0  0  0  0  0  0  0  0  0  0  0  0
   11.6335   -8.8744  -12.6432 C   0  0  0  0  0  0  0  0  0  0  0  0
   12.9152   -9.6967  -12.7239 C   0  0  1  0  0  0  0  0  0  0  0  0
   14.1418   -8.8896  -12.4073 C   0  0  0  0  0  0  0  0  0  0  0  0
   12.8078  -10.9187  -11.8243 C   0  0  0  0  0  0  0  0  0  0  0  0
    8.5657   -7.9246  -12.0418 C   0  0  0  0  0  0  0  0  0  0  0  0
   14.0053  -12.9059  -11.3876 C   0  0  0  0  0  0  0  0  0  0  0  0
   12.7381  -12.6631  -13.3889 C   0  0  0  0  0  0  0  0  0  0  0  0
    7.2499   -7.9697  -11.2458 C   0  0  0  0  0  0  0  0  0  0  0  0
    7.1256   -9.3593  -10.5933 C   0  0  0  0  0  0  0  0  0  0  0  0
    8.1185   -8.6676   -8.5007 C   0  0  0  0  0  0  0  0  0  0  0  0
  1 23  1  0  0  0  0
  1 24  1  0  0  0  0
  1  2  1  0  0  0  0
  3  4  1  0  0  0  0
  3 17  1  0  0  0  0
  4  6  2  0  0  0  0
  4 13  1  0  0  0  0
  5 10  1  0  0  0  0
  5 14  2  0  0  0  0
  6  8  1  0  0  0  0
  7 12  1  0  0  0  0
  7 14  1  0  0  0  0
  7 19  1  0  0  0  0
  8 10  2  0  0  0  0
  9 14  1  0  0  0  0
 10 12  1  0  0  0  0
 11 18  1  0  0  0  0
 11 20  1  0  0  0  0
 11 21  1  0  0  0  0
 12 13  2  0  0  0  0
 13 15  1  0  0  0  0
 15 16  1  0  0  0  0
 16 17  1  0  0  0  0
 16 18  1  1  0  0  0
 19 22  1  0  0  0  0
 22 23  1  0  0  0  0
M  END
>  <CHROM.1>
-176.58261629,157.70187990,155.11240426,148.89697526,-141.94257698,63.60460187
10.81718787,-8.26800969,-11.74463289,2.49783583,0.40096872,-0.20350896

>  <Name>
ligand

>  <RI>
0

>  <Rbt.Current_Directory>
/home/itssahil/PROJECTS/Mol_Feturizer/New_Systems/rnas/3TZR

>  <Rbt.Executable>
rbdock ($Id: //depot/dev/client3/rdock/2013.1/src/exe/rbdock.cxx#4 $)

>  <Rbt.Library>
libRbt.so (2013.1, Build901 2013/11/27)

>  <Rbt.Parameter_File>
/export/apps/rDock/src/rDock_2013.1_src/data/scripts/dock_solv.prm

>  <Rbt.Receptor>
prm/blind_docking_40.prm

>  <SCORE>
-28.6125

>  <SCORE.INTER>
-22.9876

>  <SCORE.INTER.CONST>
1

>  <SCORE.INTER.POLAR>
-0.699528

>  <SCORE.INTER.ROT>
6

>  <SCORE.INTER.SOLV>
19.7845

>  <SCORE.INTER.VDW>
-27.1881

>  <SCORE.INTER.norm>
-0.957815

>  <SCORE.INTRA>
-5.64009

>  <SCORE.INTRA.DIHEDRAL>
3.83911

>  <SCORE.INTRA.DIHEDRAL.0>
4.94008

>  <SCORE.INTRA.POLAR>
0

>  <SCORE.INTRA.POLAR.0>
0

>  <SCORE.INTRA.REPUL>
0

>  <SCORE.INTRA.REPUL.0>
0

>  <SCORE.INTRA.SOLV>
1.81739

>  <SCORE.INTRA.SOLV.lig_0>
-31.4704

>  <SCORE.INTRA.VDW>
-8.46833

>  <SCORE.INTRA.VDW.0>
10.2807

>  <SCORE.INTRA.norm>
-0.235004

>  <SCORE.RESTR>
0.0151192

>  <SCORE.RESTR.CAVITY>
0.0151192

>  <SCORE.RESTR.norm>
0.000629967

>  <SCORE.SYSTEM>
0

>  <SCORE.SYSTEM.CONST>
0

>  <SCORE.SYSTEM.DIHEDRAL>
0

>  <SCORE.SYSTEM.SOLV>
0

>  <SCORE.SYSTEM.norm>
0

>  <SCORE.heavy>
24

>  <SCORE.norm>
-1.19219

>  <RMSD>
1.418

$$$$
ligand
 OpenBabel11021811493D
libRbt.so/2013.1/901 2013/11/27
 24 26  0  0  0  0  0  0  0  0999 V2000
    7.3395  -10.3988  -11.1050 N   0  0  0  0  0  0  0  0  0  0  0  0
    6.1946  -10.5321  -11.9915 C   0  0  0  0  0  0  0  0  0  0  0  0
   13.9708   -8.1233  -13.2536 O   0  0  0  0  0  0  0  0  0  0  0  0
   13.0178   -7.1520  -12.9777 C   0  0  0  0  0  0  0  0  0  0  0  0
    9.9472   -4.2970  -12.1535 N   0  0  0  0  0  0  0  0  0  0  0  0
   13.3493   -5.6853  -13.0536 C   0  0  0  0  0  0  0  0  0  0  0  0
    9.3666   -6.4614  -11.9998 N   0  0  0  0  0  0  0  0  0  0  0  0
   12.3773   -4.6638  -12.8011 C   0  0  0  0  0  0  0  0  0  0  0  0
    7.5842   -4.7687  -11.5156 N   0  0  0  0  0  0  0  0  0  0  0  0
   11.0525   -5.1064  -12.4510 C   0  0  0  0  0  0  0  0  0  0  0  0
   13.4478  -12.0586  -11.8364 N   0  0  0  0  0  0  0  0  0  0  0  0
   10.7263   -6.5044  -12.3600 C   0  0  0  0  0  0  0  0  0  0  0  0
   11.7656   -7.5319  -12.6424 C   0  0  0  0  0  0  0  0  0  0  0  0
    8.9168   -5.1503  -11.8848 C   0  0  0  0  0  0  0  0  0  0  0  0
   11.4000   -9.0016  -12.5506 C   0  0  0  0  0  0  0  0  0  0  0  0
   12.5777   -9.9675  -12.6249 C   0  0  1  0  0  0  0  0  0  0  0  0
   13.9037   -9.2752  -12.4892 C   0  0  0  0  0  0  0  0  0  0  0  0
   12.4166  -11.0665  -11.5855 C   0  0  0  0  0  0  0  0  0  0  0  0
    8.5078   -7.6521  -11.8509 C   0  0  0  0  0  0  0  0  0  0  0  0
   13.6670  -12.8166  -10.6120 C   0  0  0  0  0  0  0  0  0  0  0  0
   12.9578  -12.9434  -12.8816 C   0  0  0  0  0  0  0  0  0  0  0  0
    8.5002   -8.2901  -10.4511 C   0  0  0  0  0  0  0  0  0  0  0  0
    7.2354   -9.1595  -10.3216 C   0  0  0  0  0  0  0  0  0  0  0  0
    7.3800  -11.5710  -10.2381 C   0  0  0  0  0  0  0  0  0  0  0  0
  1 23  1  0  0  0  0
  1 24  1  0  0  0  0
  1  2  1  0  0  0  0
  3  4  1  0  0  0  0
  3 17  1  0  0  0  0
  4  6  2  0  0  0  0
  4 13  1  0  0  0  0
  5 10  1  0  0  0  0
  5 14  2  0  0  0  0
  6  8  1  0  0  0  0
  7 12  1  0  0  0  0
  7 14  1  0  0  0  0
  7 19  1  0  0  0  0
  8 10  2  0  0  0  0
  9 14  1  0  0  0  0
 10 12  1  0  0  0  0
 11 18  1  0  0  0  0
 11 20  1  0  0  0  0
 11 21  1  0  0  0  0
 12 13  2  0  0  0  0
 13 15  1  0  0  0  0
 15 16  1  0  0  0  0
 16 17  1  0  0  0  0
 16 18  1  1  0  0  0
 19 22  1  0  0  0  0
 22 23  1  0  0  0  0
M  END
>  <CHROM.1>
-126.50688194,88.69901005,158.06667688,171.49309118,160.23544536,73.30240816
10.70183632,-8.48143059,-11.95724452,2.21478287,0.23870137,-0.15152346

>  <Name>
ligand

>  <RI>
0

>  <Rbt.Current_Directory>
/home/itssahil/PROJECTS/Mol_Feturizer/New_Systems/rnas/3TZR

>  <Rbt.Executable>
rbdock ($Id: //depot/dev/client3/rdock/2013.1/src/exe/rbdock.cxx#4 $)

>  <Rbt.Library>
libRbt.so (2013.1, Build901 2013/11/27)

>  <Rbt.Parameter_File>
/export/apps/rDock/src/rDock_2013.1_src/data/scripts/dock_solv.prm

>  <Rbt.Receptor>
prm/pocket_docking_3.prm

>  <SCORE>
-33.2074

>  <SCORE.INTER>
-23.1454

>  <SCORE.INTER.CONST>
1

>  <SCORE.INTER.POLAR>
0

>  <SCORE.INTER.ROT>
6

>  <SCORE.INTER.SOLV>
20.4302

>  <SCORE.INTER.VDW>
-29.8404

>  <SCORE.INTER.norm>
-0.964393

>  <SCORE.INTRA>
-10.0619

>  <SCORE.INTRA.DIHEDRAL>
1.80838

>  <SCORE.INTRA.DIHEDRAL.0>
4.94008

>  <SCORE.INTRA.POLAR>
0

>  <SCORE.INTRA.POLAR.0>
0

>  <SCORE.INTRA.REPUL>
0

>  <SCORE.INTRA.REPUL.0>
0

>  <SCORE.INTRA.SOLV>
0.225727

>  <SCORE.INTRA.SOLV.lig_0>
-31.4704

>  <SCORE.INTRA.VDW>
-11.079

>  <SCORE.INTRA.VDW.0>
10.2807

>  <SCORE.INTRA.norm>
-0.419248

>  <SCORE.RESTR>
0

>  <SCORE.RESTR.CAVITY>
0

>  <SCORE.RESTR.norm>
0

>  <SCORE.SYSTEM>
0

>  <SCORE.SYSTEM.CONST>
0

>  <SCORE.SYSTEM.DIHEDRAL>
0

>  <SCORE.SYSTEM.SOLV>
0

>  <SCORE.SYSTEM.norm>
0

>  <SCORE.heavy>
24

>  <SCORE.norm>
-1.38364

>  <RMSD>
1.419

$$$$
ligand
 OpenBabel11021811493D
libRbt.so/2013.1/901 2013/11/27
 24 26  0  0  0  0  0  0  0  0999 V2000
    7.6776  -10.1654  -10.5788 N   0  0  0  0  0  0  0  0  0  0  0  0
    6.2722  -10.4284  -10.8433 C   0  0  0  0  0  0  0  0  0  0  0  0
   14.0193   -8.2514  -13.1032 O   0  0  0  0  0  0  0  0  0  0  0  0
   13.0814   -7.2661  -12.8251 C   0  0  0  0  0  0  0  0  0  0  0  0
   10.0555   -4.3600  -12.0140 N   0  0  0  0  0  0  0  0  0  0  0  0
   13.4673   -5.8120  -12.7646 C   0  0  0  0  0  0  0  0  0  0  0  0
    9.3918   -6.5053  -12.0685 N   0  0  0  0  0  0  0  0  0  0  0  0
   12.5140   -4.7741  -12.5073 C   0  0  0  0  0  0  0  0  0  0  0  0
    7.6361   -4.7836  -11.5893 N   0  0  0  0  0  0  0  0  0  0  0  0
   11.1522   -5.1885  -12.2903 C   0  0  0  0  0  0  0  0  0  0  0  0
   13.2879  -12.2329  -11.9935 N   0  0  0  0  0  0  0  0  0  0  0  0
   10.7728   -6.5755  -12.3300 C   0  0  0  0  0  0  0  0  0  0  0  0
   11.7952   -7.6198  -12.6126 C   0  0  0  0  0  0  0  0  0  0  0  0
    8.9792   -5.1894  -11.8876 C   0  0  0  0  0  0  0  0  0  0  0  0
   11.3741   -9.0767  -12.6599 C   0  0  0  0  0  0  0  0  0  0  0  0
   12.5206  -10.0803  -12.7207 C   0  0  1  0  0  0  0  0  0  0  0  0
   13.8551   -9.4527  -12.4356 C   0  0  0  0  0  0  0  0  0  0  0  0
   12.2435  -11.2453  -11.7825 C   0  0  0  0  0  0  0  0  0  0  0  0
    8.4843   -7.6688  -12.0742 C   0  0  0  0  0  0  0  0  0  0  0  0
   13.5343  -12.9206  -10.7333 C   0  0  0  0  0  0  0  0  0  0  0  0
   12.7999  -13.1802  -12.9835 C   0  0  0  0  0  0  0  0  0  0  0  0
    7.4520   -7.7069  -10.9342 C   0  0  0  0  0  0  0  0  0  0  0  0
    7.8410   -8.8395   -9.9656 C   0  0  0  0  0  0  0  0  0  0  0  0
    8.1785  -11.2187   -9.7031 C   0  0  0  0  0  0  0  0  0  0  0  0
  1 23  1  0  0  0  0
  1 24  1  0  0  0  0
  1  2  1  0  0  0  0
  3  4  1  0  0  0  0
  3 17  1  0  0  0  0
  4  6  2  0  0  0  0
  4 13  1  0  0  0  0
  5 10  1  0  0  0  0
  5 14  2  0  0  0  0
  6  8  1  0  0  0  0
  7 12  1  0  0  0  0
  7 14  1  0  0  0  0
  7 19  1  0  0  0  0
  8 10  2  0  0  0  0
  9 14  1  0  0  0  0
 10 12  1  0  0  0  0
 11 18  1  0  0  0  0
 11 20  1  0  0  0  0
 11 21  1  0  0  0  0
 12 13  2  0  0  0  0
 13 15  1  0  0  0  0
 15 16  1  0  0  0  0
 16 17  1  0  0  0  0
 16 18  1  1  0  0  0
 19 22  1  0  0  0  0
 22 23  1  0  0  0  0
M  END
>  <CHROM.1>
-65.95336827,137.83252696,148.23255522,173.74966194,-109.56032022,-68.02527614
10.73420308,-8.49322228,-11.86186772,2.22936971,0.30236142,-0.16121537

>  <Name>
ligand

>  <RI>
0

>  <Rbt.Current_Directory>
/home/itssahil/PROJECTS/Mol_Feturizer/New_Systems/rnas/3TZR

>  <Rbt.Executable>
rbdock ($Id: //depot/dev/client3/rdock/2013.1/src/exe/rbdock.cxx#4 $)

>  <Rbt.Library>
libRbt.so (2013.1, Build901 2013/11/27)

>  <Rbt.Parameter_File>
/export/apps/rDock/src/rDock_2013.1_src/data/scripts/dock_solv.prm

>  <Rbt.Receptor>
prm/pocket_docking_6.prm

>  <SCORE>
-31.661

>  <SCORE.INTER>
-24.4824

>  <SCORE.INTER.CONST>
1

>  <SCORE.INTER.POLAR>
0

>  <SCORE.INTER.ROT>
6

>  <SCORE.INTER.SOLV>
19.5555

>  <SCORE.INTER.VDW>
-30.4401

>  <SCORE.INTER.norm>
-1.0201

>  <SCORE.INTRA>
-7.17859

>  <SCORE.INTRA.DIHEDRAL>
3.15805

>  <SCORE.INTRA.DIHEDRAL.0>
4.94008

>  <SCORE.INTRA.POLAR>
0

>  <SCORE.INTRA.POLAR.0>
0

>  <SCORE.INTRA.REPUL>
0

>  <SCORE.INTRA.REPUL.0>
0

>  <SCORE.INTRA.SOLV>
1.35892

>  <SCORE.INTRA.SOLV.lig_0>
-31.4704

>  <SCORE.INTRA.VDW>
-9.43707

>  <SCORE.INTRA.VDW.0>
10.2807

>  <SCORE.INTRA.norm>
-0.299108

>  <SCORE.RESTR>
0

>  <SCORE.RESTR.CAVITY>
0

>  <SCORE.RESTR.norm>
0

>  <SCORE.SYSTEM>
0

>  <SCORE.SYSTEM.CONST>
0

>  <SCORE.SYSTEM.DIHEDRAL>
0

>  <SCORE.SYSTEM.SOLV>
0

>  <SCORE.SYSTEM.norm>
0

>  <SCORE.heavy>
24

>  <SCORE.norm>
-1.31921

>  <RMSD>
1.434

$$$$
ligand
 OpenBabel11021811493D
libRbt.so/2013.1/901 2013/11/27
 24 26  0  0  0  0  0  0  0  0999 V2000
    6.8711  -10.5875  -12.1615 N   0  0  0  0  0  0  0  0  0  0  0  0
    6.1941  -11.4664  -13.1014 C   0  0  0  0  0  0  0  0  0  0  0  0
   13.6167   -8.0104  -13.3603 O   0  0  0  0  0  0  0  0  0  0  0  0
   12.6250   -7.1064  -13.0037 C   0  0  0  0  0  0  0  0  0  0  0  0
    9.4428   -4.4664  -11.9254 N   0  0  0  0  0  0  0  0  0  0  0  0
   12.8596   -5.6206  -13.0678 C   0  0  0  0  0  0  0  0  0  0  0  0
    9.0082   -6.6656  -11.7834 N   0  0  0  0  0  0  0  0  0  0  0  0
   11.8444   -4.6672  -12.7322 C   0  0  0  0  0  0  0  0  0  0  0  0
    7.1592   -5.0979  -11.1509 N   0  0  0  0  0  0  0  0  0  0  0  0
   10.5747   -5.1989  -12.3096 C   0  0  0  0  0  0  0  0  0  0  0  0
   13.3534  -12.0538  -12.0660 N   0  0  0  0  0  0  0  0  0  0  0  0
   10.3422   -6.6161  -12.2291 C   0  0  0  0  0  0  0  0  0  0  0  0
   11.4228   -7.5707  -12.5988 C   0  0  0  0  0  0  0  0  0  0  0  0
    8.4864   -5.3879  -11.6115 C   0  0  0  0  0  0  0  0  0  0  0  0
   11.1555   -9.0620  -12.5167 C   0  0  0  0  0  0  0  0  0  0  0  0
   12.3835   -9.9500  -12.6862 C   0  0  1  0  0  0  0  0  0  0  0  0
   13.6701   -9.1780  -12.6187 C   0  0  0  0  0  0  0  0  0  0  0  0
   12.3576  -11.0756  -11.6632 C   0  0  0  0  0  0  0  0  0  0  0  0
    8.2361   -7.9106  -11.6072 C   0  0  0  0  0  0  0  0  0  0  0  0
   13.7713  -12.7996  -10.8866 C   0  0  0  0  0  0  0  0  0  0  0  0
   12.7218  -12.9535  -13.0185 C   0  0  0  0  0  0  0  0  0  0  0  0
    7.1303   -8.1550  -12.6485 C   0  0  0  0  0  0  0  0  0  0  0  0
    6.2110   -9.2747  -12.1257 C   0  0  0  0  0  0  0  0  0  0  0  0
    6.8516  -11.2256  -10.8501 C   0  0  0  0  0  0  0  0  0  0  0  0
  1 23  1  0  0  0  0
  1 24  1  0  0  0  0
  1  2  1  0  0  0  0
  3  4  1  0  0  0  0
  3 17  1  0  0  0  0
  4  6  2  0  0  0  0
  4 13  1  0  0  0  0
  5 10  1  0  0  0  0
  5 14  2  0  0  0  0
  6  8  1  0  0  0  0
  7 12  1  0  0  0  0
  7 14  1  0  0  0  0
  7 19  1  0  0  0  0
  8 10  2  0  0  0  0
  9 14  1  0  0  0  0
 10 12  1  0  0  0  0
 11 18  1  0  0  0  0
 11 20  1  0  0  0  0
 11 21  1  0  0  0  0
 12 13  2  0  0  0  0
 13 15  1  0  0  0  0
 15 16  1  0  0  0  0
 16 17  1  0  0  0  0
 16 18  1  1  0  0  0
 19 22  1  0  0  0  0
 22 23  1  0  0  0  0
M  END
>  <CHROM.1>
-115.05877383,-108.00038677,155.50522991,166.67793697,-165.81990950,-71.34033487
10.31819755,-8.56262158,-12.22899519,2.41263490,0.09306014,-0.03430090

>  <Name>
ligand

>  <RI>
0

>  <Rbt.Current_Directory>
/home/itssahil/PROJECTS/Mol_Feturizer/New_Systems/rnas/3TZR

>  <Rbt.Executable>
rbdock ($Id: //depot/dev/client3/rdock/2013.1/src/exe/rbdock.cxx#4 $)

>  <Rbt.Library>
libRbt.so (2013.1, Build901 2013/11/27)

>  <Rbt.Parameter_File>
/export/apps/rDock/src/rDock_2013.1_src/data/scripts/dock_solv.prm

>  <Rbt.Receptor>
prm/pocket_docking_4.prm

>  <SCORE>
-29.8489

>  <SCORE.INTER>
-19.8919

>  <SCORE.INTER.CONST>
1

>  <SCORE.INTER.POLAR>
0

>  <SCORE.INTER.ROT>
6

>  <SCORE.INTER.SOLV>
21.3611

>  <SCORE.INTER.VDW>
-27.9816

>  <SCORE.INTER.norm>
-0.828831

>  <SCORE.INTRA>
-9.97299

>  <SCORE.INTRA.DIHEDRAL>
1.35345

>  <SCORE.INTRA.DIHEDRAL.0>
4.94008

>  <SCORE.INTRA.POLAR>
0

>  <SCORE.INTRA.POLAR.0>
0

>  <SCORE.INTRA.REPUL>
0

>  <SCORE.INTRA.REPUL.0>
0

>  <SCORE.INTRA.SOLV>
0.81504

>  <SCORE.INTRA.SOLV.lig_0>
-31.4704

>  <SCORE.INTRA.VDW>
-11.0572

>  <SCORE.INTRA.VDW.0>
10.2807

>  <SCORE.INTRA.norm>
-0.415541

>  <SCORE.RESTR>
0.0160043

>  <SCORE.RESTR.CAVITY>
0.0160043

>  <SCORE.RESTR.norm>
0.000666845

>  <SCORE.SYSTEM>
0

>  <SCORE.SYSTEM.CONST>
0

>  <SCORE.SYSTEM.DIHEDRAL>
0

>  <SCORE.SYSTEM.SOLV>
0

>  <SCORE.SYSTEM.norm>
0

>  <SCORE.heavy>
24

>  <SCORE.norm>
-1.2437

>  <RMSD>
1.443

$$$$
ligand
 OpenBabel11021811493D
libRbt.so/2013.1/901 2013/11/27
 24 26  0  0  0  0  0  0  0  0999 V2000
    7.0765  -10.3345  -11.4281 N   0  0  0  0  0  0  0  0  0  0  0  0
    6.1658   -9.9804  -12.5049 C   0  0  0  0  0  0  0  0  0  0  0  0
   13.9348   -8.0076  -13.1920 O   0  0  0  0  0  0  0  0  0  0  0  0
   12.9574   -7.0611  -12.9151 C   0  0  0  0  0  0  0  0  0  0  0  0
    9.8151   -4.2834  -12.0971 N   0  0  0  0  0  0  0  0  0  0  0  0
   13.2677   -5.5879  -12.9276 C   0  0  0  0  0  0  0  0  0  0  0  0
    9.2645   -6.4604  -12.0402 N   0  0  0  0  0  0  0  0  0  0  0  0
   12.2714   -4.5907  -12.6728 C   0  0  0  0  0  0  0  0  0  0  0  0
    7.4396   -4.8129  -11.5584 N   0  0  0  0  0  0  0  0  0  0  0  0
   10.9427   -5.0652  -12.3847 C   0  0  0  0  0  0  0  0  0  0  0  0
   13.4204  -12.0040  -11.9413 N   0  0  0  0  0  0  0  0  0  0  0  0
   10.6362   -6.4702  -12.3544 C   0  0  0  0  0  0  0  0  0  0  0  0
   11.7009   -7.4714  -12.6369 C   0  0  0  0  0  0  0  0  0  0  0  0
    8.7900   -5.1611  -11.8946 C   0  0  0  0  0  0  0  0  0  0  0  0
   11.3560   -8.9487  -12.6098 C   0  0  0  0  0  0  0  0  0  0  0  0
   12.5510   -9.8937  -12.6775 C   0  0  1  0  0  0  0  0  0  0  0  0
   13.8603   -9.1871  -12.4715 C   0  0  0  0  0  0  0  0  0  0  0  0
   12.3723  -11.0316  -11.6837 C   0  0  0  0  0  0  0  0  0  0  0  0
    8.4204   -7.6683  -11.9633 C   0  0  0  0  0  0  0  0  0  0  0  0
   13.6697  -12.7498  -10.7151 C   0  0  0  0  0  0  0  0  0  0  0  0
   12.9359  -12.9052  -12.9751 C   0  0  0  0  0  0  0  0  0  0  0  0
    8.4889   -8.4385  -10.6333 C   0  0  0  0  0  0  0  0  0  0  0  0
    7.1786   -9.2301  -10.4635 C   0  0  0  0  0  0  0  0  0  0  0  0
    6.5760  -11.5479  -10.7921 C   0  0  0  0  0  0  0  0  0  0  0  0
  1 23  1  0  0  0  0
  1 24  1  0  0  0  0
  1  2  1  0  0  0  0
  3  4  1  0  0  0  0
  3 17  1  0  0  0  0
  4  6  2  0  0  0  0
  4 13  1  0  0  0  0
  5 10  1  0  0  0  0
  5 14  2  0  0  0  0
  6  8  1  0  0  0  0
  7 12  1  0  0  0  0
  7 14  1  0  0  0  0
  7 19  1  0  0  0  0
  8 10  2  0  0  0  0
  9 14  1  0  0  0  0
 10 12  1  0  0  0  0
 11 18  1  0  0  0  0
 11 20  1  0  0  0  0
 11 21  1  0  0  0  0
 12 13  2  0  0  0  0
 13 15  1  0  0  0  0
 15 16  1  0  0  0  0
 16 17  1  0  0  0  0
 16 18  1  1  0  0  0
 19 22  1  0  0  0  0
 22 23  1  0  0  0  0
M  END
>  <CHROM.1>
-103.06969790,82.61983494,154.64992439,171.01521788,155.16510241,69.27880274
10.59550668,-8.42616516,-12.04438923,2.35309656,0.18481769,-0.11217423

>  <Name>
ligand

>  <RI>
0

>  <Rbt.Current_Directory>
/home/itssahil/PROJECTS/Mol_Feturizer/New_Systems/rnas/3TZR

>  <Rbt.Executable>
rbdock ($Id: //depot/dev/client3/rdock/2013.1/src/exe/rbdock.cxx#4 $)

>  <Rbt.Library>
libRbt.so (2013.1, Build901 2013/11/27)

>  <Rbt.Parameter_File>
/export/apps/rDock/src/rDock_2013.1_src/data/scripts/dock_solv.prm

>  <Rbt.Receptor>
prm/pocket_docking_5.prm

>  <SCORE>
-33.1025

>  <SCORE.INTER>
-23.43

>  <SCORE.INTER.CONST>
1

>  <SCORE.INTER.POLAR>
0

>  <SCORE.INTER.ROT>
6

>  <SCORE.INTER.SOLV>
21.0415

>  <SCORE.INTER.VDW>
-30.2338

>  <SCORE.INTER.norm>
-0.97625

>  <SCORE.INTRA>
-9.67248

>  <SCORE.INTRA.DIHEDRAL>
2.00228

>  <SCORE.INTRA.DIHEDRAL.0>
4.94008

>  <SCORE.INTRA.POLAR>
0

>  <SCORE.INTRA.POLAR.0>
0

>  <SCORE.INTRA.REPUL>
0

>  <SCORE.INTRA.REPUL.0>
0

>  <SCORE.INTRA.SOLV>
0.113611

>  <SCORE.INTRA.SOLV.lig_0>
-31.4704

>  <SCORE.INTRA.VDW>
-10.7304

>  <SCORE.INTRA.VDW.0>
10.2807

>  <SCORE.INTRA.norm>
-0.40302

>  <SCORE.RESTR>
0

>  <SCORE.RESTR.CAVITY>
0

>  <SCORE.RESTR.norm>
0

>  <SCORE.SYSTEM>
0

>  <SCORE.SYSTEM.CONST>
0

>  <SCORE.SYSTEM.DIHEDRAL>
0

>  <SCORE.SYSTEM.SOLV>
0

>  <SCORE.SYSTEM.norm>
0

>  <SCORE.heavy>
24

>  <SCORE.norm>
-1.37927

>  <RMSD>
1.465

$$$$
ligand
 OpenBabel11021811493D
libRbt.so/2013.1/901 2013/11/27
 24 26  0  0  0  0  0  0  0  0999 V2000
    6.2166  -10.5612  -11.5029 N   0  0  0  0  0  0  0  0  0  0  0  0
    5.6688  -11.6011  -10.6469 C   0  0  0  0  0  0  0  0  0  0  0  0
   12.8232   -5.6365  -12.7960 O   0  0  0  0  0  0  0  0  0  0  0  0
   11.4890   -5.2773  -12.6589 C   0  0  0  0  0  0  0  0  0  0  0  0
    7.3340   -4.3531  -12.2844 N   0  0  0  0  0  0  0  0  0  0  0  0
   11.0617   -3.8336  -12.6663 C   0  0  0  0  0  0  0  0  0  0  0  0
    7.8805   -6.5315  -12.2464 N   0  0  0  0  0  0  0  0  0  0  0  0
    9.6895   -3.4379  -12.5547 C   0  0  0  0  0  0  0  0  0  0  0  0
    5.4504   -5.9646  -12.0229 N   0  0  0  0  0  0  0  0  0  0  0  0
    8.7223   -4.4958  -12.4176 C   0  0  0  0  0  0  0  0  0  0  0  0
   11.8903  -10.2227  -11.8047 N   0  0  0  0  0  0  0  0  0  0  0  0
    9.1184   -5.8784  -12.3936 C   0  0  0  0  0  0  0  0  0  0  0  0
   10.5553   -6.2441  -12.5245 C   0  0  0  0  0  0  0  0  0  0  0  0
    6.8328   -5.6186  -12.1872 C   0  0  0  0  0  0  0  0  0  0  0  0
   10.9527   -7.7083  -12.5067 C   0  0  0  0  0  0  0  0  0  0  0  0
   12.4517   -7.9711  -12.4099 C   0  0  1  0  0  0  0  0  0  0  0  0
   13.2347   -6.7370  -12.0640 C   0  0  0  0  0  0  0  0  0  0  0  0
   12.7209   -9.0945  -11.4202 C   0  0  0  0  0  0  0  0  0  0  0  0
    7.7086   -7.9970  -12.2449 C   0  0  0  0  0  0  0  0  0  0  0  0
   12.4287  -10.7958  -13.0308 C   0  0  0  0  0  0  0  0  0  0  0  0
   11.9601  -11.2024  -10.7319 C   0  0  0  0  0  0  0  0  0  0  0  0
    7.6946   -8.6590  -10.8563 C   0  0  0  0  0  0  0  0  0  0  0  0
    7.5612  -10.1816  -11.0465 C   0  0  0  0  0  0  0  0  0  0  0  0
    6.2456  -11.0686  -12.8701 C   0  0  0  0  0  0  0  0  0  0  0  0
  1 23  1  0  0  0  0
  1 24  1  0  0  0  0
  1  2  1  0  0  0  0
  3  4  1  0  0  0  0
  3 17  1  0  0  0  0
  4  6  2  0  0  0  0
  4 13  1  0  0  0  0
  5 10  1  0  0  0  0
  5 14  2  0  0  0  0
  6  8  1  0  0  0  0
  7 12  1  0  0  0  0
  7 14  1  0  0  0  0
  7 19  1  0  0  0  0
  8 10  2  0  0  0  0
  9 14  1  0  0  0  0
 10 12  1  0  0  0  0
 11 18  1  0  0  0  0
 11 20  1  0  0  0  0
 11 21  1  0  0  0  0
 12 13  2  0  0  0  0
 13 15  1  0  0  0  0
 15 16  1  0  0  0  0
 16 17  1  0  0  0  0
 16 18  1  1  0  0  0
 19 22  1  0  0  0  0
 22 23  1  0  0  0  0
M  END
>  <CHROM.1>
-128.15298207,94.62806423,71.51497552,52.32294586,-177.90153917,-71.58703030
9.48707692,-7.68745489,-12.06126726,2.41144748,-0.06111216,2.99558762

>  <Name>
ligand

>  <RI>
144

>  <Rbt.Current_Directory>
/home/itssahil/PROJECTS/Mol_Feturizer/New_Systems/rnas/3TZR

>  <Rbt.Executable>
rbdock ($Id: //depot/dev/client3/rdock/2013.1/src/exe/rbdock.cxx#4 $)

>  <Rbt.Library>
libRbt.so (2013.1, Build901 2013/11/27)

>  <Rbt.Parameter_File>
/export/apps/rDock/src/rDock_2013.1_src/data/scripts/dock_solv.prm

>  <Rbt.Receptor>
prm/blind_docking_20.prm

>  <SCORE>
-29.0743

>  <SCORE.INTER>
-21.5404

>  <SCORE.INTER.CONST>
1

>  <SCORE.INTER.POLAR>
0

>  <SCORE.INTER.ROT>
6

>  <SCORE.INTER.SOLV>
21.6185

>  <SCORE.INTER.VDW>
-29.1664

>  <SCORE.INTER.norm>
-0.897517

>  <SCORE.INTRA>
-9.96563

>  <SCORE.INTRA.DIHEDRAL>
-0.3205

>  <SCORE.INTRA.DIHEDRAL.0>
4.94008

>  <SCORE.INTRA.POLAR>
0

>  <SCORE.INTRA.POLAR.0>
0

>  <SCORE.INTRA.REPUL>
0

>  <SCORE.INTRA.REPUL.0>
0

>  <SCORE.INTRA.SOLV>
0.209504

>  <SCORE.INTRA.SOLV.lig_0>
-31.4704

>  <SCORE.INTRA.VDW>
-9.91013

>  <SCORE.INTRA.VDW.0>
10.2807

>  <SCORE.INTRA.norm>
-0.415235

>  <SCORE.RESTR>
2.43176

>  <SCORE.RESTR.CAVITY>
2.43176

>  <SCORE.RESTR.norm>
0.101323

>  <SCORE.SYSTEM>
0

>  <SCORE.SYSTEM.CONST>
0

>  <SCORE.SYSTEM.DIHEDRAL>
0

>  <SCORE.SYSTEM.SOLV>
0

>  <SCORE.SYSTEM.norm>
0

>  <SCORE.heavy>
24

>  <SCORE.norm>
-1.21143

>  <RMSD>
1.473

$$$$
ligand
 OpenBabel11021811493D
libRbt.so/2013.1/901 2013/11/27
 24 26  0  0  0  0  0  0  0  0999 V2000
    6.8230  -10.7948  -12.4156 N   0  0  0  0  0  0  0  0  0  0  0  0
    6.3614  -11.0434  -13.7719 C   0  0  0  0  0  0  0  0  0  0  0  0
   13.6600   -7.2240  -12.7984 O   0  0  0  0  0  0  0  0  0  0  0  0
   12.5180   -6.4618  -12.5918 C   0  0  0  0  0  0  0  0  0  0  0  0
    8.8979   -4.2779  -11.9720 N   0  0  0  0  0  0  0  0  0  0  0  0
   12.5313   -4.9667  -12.7690 C   0  0  0  0  0  0  0  0  0  0  0  0
    8.7882   -6.5009  -11.6691 N   0  0  0  0  0  0  0  0  0  0  0  0
   11.3605   -4.1612  -12.5893 C   0  0  0  0  0  0  0  0  0  0  0  0
    6.6791   -5.1983  -11.3060 N   0  0  0  0  0  0  0  0  0  0  0  0
   10.1546   -4.8513  -12.2111 C   0  0  0  0  0  0  0  0  0  0  0  0
   12.2545  -11.5668  -11.4779 N   0  0  0  0  0  0  0  0  0  0  0  0
   10.1316   -6.2773  -12.0236 C   0  0  0  0  0  0  0  0  0  0  0  0
   11.3700   -7.0763  -12.2326 C   0  0  0  0  0  0  0  0  0  0  0  0
    8.0681   -5.3111  -11.6461 C   0  0  0  0  0  0  0  0  0  0  0  0
   11.3237   -8.5806  -12.0395 C   0  0  0  0  0  0  0  0  0  0  0  0
   12.6808   -9.2760  -12.0450 C   0  0  1  0  0  0  0  0  0  0  0  0
   13.8270   -8.3094  -11.9558 C   0  0  0  0  0  0  0  0  0  0  0  0
   12.7402  -10.3112  -10.9319 C   0  0  0  0  0  0  0  0  0  0  0  0
    8.1998   -7.8344  -11.4391 C   0  0  0  0  0  0  0  0  0  0  0  0
   13.3982  -12.3452  -11.9341 C   0  0  0  0  0  0  0  0  0  0  0  0
   11.5736  -12.2753  -10.4056 C   0  0  0  0  0  0  0  0  0  0  0  0
    7.2630   -8.3433  -12.5482 C   0  0  0  0  0  0  0  0  0  0  0  0
    6.3854   -9.4662  -11.9641 C   0  0  0  0  0  0  0  0  0  0  0  0
    6.2920  -11.8471  -11.5564 C   0  0  0  0  0  0  0  0  0  0  0  0
  1 23  1  0  0  0  0
  1 24  1  0  0  0  0
  1  2  1  0  0  0  0
  3  4  1  0  0  0  0
  3 17  1  0  0  0  0
  4  6  2  0  0  0  0
  4 13  1  0  0  0  0
  5 10  1  0  0  0  0
  5 14  2  0  0  0  0
  6  8  1  0  0  0  0
  7 12  1  0  0  0  0
  7 14  1  0  0  0  0
  7 19  1  0  0  0  0
  8 10  2  0  0  0  0
  9 14  1  0  0  0  0
 10 12  1  0  0  0  0
 11 18  1  0  0  0  0
 11 20  1  0  0  0  0
 11 21  1  0  0  0  0
 12 13  2  0  0  0  0
 13 15  1  0  0  0  0
 15 16  1  0  0  0  0
 16 17  1  0  0  0  0
 16 18  1  1  0  0  0
 19 22  1  0  0  0  0
 22 23  1  0  0  0  0
M  END
>  <CHROM.1>
-78.23576934,-106.37523068,94.44175705,89.68856815,-160.90278194,-104.58468568
10.10971260,-8.24181198,-12.00361861,0.98654152,0.02189579,3.07852871

>  <Name>
ligand

>  <RI>
0

>  <Rbt.Current_Directory>
/home/itssahil/PROJECTS/Mol_Feturizer/New_Systems/rnas/3TZR

>  <Rbt.Executable>
rbdock ($Id: //depot/dev/client3/rdock/2013.1/src/exe/rbdock.cxx#4 $)

>  <Rbt.Library>
libRbt.so (2013.1, Build901 2013/11/27)

>  <Rbt.Parameter_File>
/export/apps/rDock/src/rDock_2013.1_src/data/scripts/dock_solv.prm

>  <Rbt.Receptor>
prm/pocket_docking_4.prm

>  <SCORE>
-28.4974

>  <SCORE.INTER>
-21.2218

>  <SCORE.INTER.CONST>
1

>  <SCORE.INTER.POLAR>
0

>  <SCORE.INTER.ROT>
6

>  <SCORE.INTER.SOLV>
21.206

>  <SCORE.INTER.VDW>
-28.8165

>  <SCORE.INTER.norm>
-0.88424

>  <SCORE.INTRA>
-7.27567

>  <SCORE.INTRA.DIHEDRAL>
6.62414

>  <SCORE.INTRA.DIHEDRAL.0>
4.94008

>  <SCORE.INTRA.POLAR>
0

>  <SCORE.INTRA.POLAR.0>
0

>  <SCORE.INTRA.REPUL>
0

>  <SCORE.INTRA.REPUL.0>
0

>  <SCORE.INTRA.SOLV>
0.691626

>  <SCORE.INTRA.SOLV.lig_0>
-31.4704

>  <SCORE.INTRA.VDW>
-10.9336

>  <SCORE.INTRA.VDW.0>
10.2807

>  <SCORE.INTRA.norm>
-0.303153

>  <SCORE.RESTR>
0

>  <SCORE.RESTR.CAVITY>
0

>  <SCORE.RESTR.norm>
0

>  <SCORE.SYSTEM>
0

>  <SCORE.SYSTEM.CONST>
0

>  <SCORE.SYSTEM.DIHEDRAL>
0

>  <SCORE.SYSTEM.SOLV>
0

>  <SCORE.SYSTEM.norm>
0

>  <SCORE.heavy>
24

>  <SCORE.norm>
-1.18739

>  <RMSD>
1.484

$$$$
ligand
 OpenBabel11021811493D
libRbt.so/2013.1/901 2013/11/27
 24 26  0  0  0  0  0  0  0  0999 V2000
    7.7654  -12.0808   -9.5321 N   0  0  0  0  0  0  0  0  0  0  0  0
    7.5204  -11.6809   -8.1557 C   0  0  0  0  0  0  0  0  0  0  0  0
   13.8282   -8.2026  -13.4187 O   0  0  0  0  0  0  0  0  0  0  0  0
   12.6965   -7.5390  -12.9642 C   0  0  0  0  0  0  0  0  0  0  0  0
    9.1114   -5.6577  -11.5978 N   0  0  0  0  0  0  0  0  0  0  0  0
   12.6505   -6.0364  -12.8794 C   0  0  0  0  0  0  0  0  0  0  0  0
    9.0948   -7.9025  -11.6758 N   0  0  0  0  0  0  0  0  0  0  0  0
   11.4861   -5.3268  -12.4406 C   0  0  0  0  0  0  0  0  0  0  0  0
    7.0056   -6.7771  -10.8726 N   0  0  0  0  0  0  0  0  0  0  0  0
   10.3484   -6.1249  -12.0635 C   0  0  0  0  0  0  0  0  0  0  0  0
   12.2502  -12.6194  -12.4343 N   0  0  0  0  0  0  0  0  0  0  0  0
   10.3841   -7.5616  -12.1251 C   0  0  0  0  0  0  0  0  0  0  0  0
   11.6122   -8.2568  -12.5986 C   0  0  0  0  0  0  0  0  0  0  0  0
    8.3506   -6.7677  -11.3710 C   0  0  0  0  0  0  0  0  0  0  0  0
   11.6274   -9.7725  -12.6658 C   0  0  0  0  0  0  0  0  0  0  0  0
   12.9934  -10.3949  -12.9345 C   0  0  1  0  0  0  0  0  0  0  0  0
   14.1164   -9.4067  -12.7997 C   0  0  0  0  0  0  0  0  0  0  0  0
   13.2036  -11.6003  -12.0306 C   0  0  0  0  0  0  0  0  0  0  0  0
    8.5711   -9.2809  -11.6203 C   0  0  0  0  0  0  0  0  0  0  0  0
   12.8194  -13.3700  -13.5453 C   0  0  0  0  0  0  0  0  0  0  0  0
   12.0471  -13.5028  -11.2968 C   0  0  0  0  0  0  0  0  0  0  0  0
    7.9740   -9.7068  -10.2679 C   0  0  0  0  0  0  0  0  0  0  0  0
    7.2587  -11.0576  -10.4577 C   0  0  0  0  0  0  0  0  0  0  0  0
    9.2008  -12.2797   -9.6973 C   0  0  0  0  0  0  0  0  0  0  0  0
  1 23  1  0  0  0  0
  1 24  1  0  0  0  0
  1  2  1  0  0  0  0
  3  4  1  0  0  0  0
  3 17  1  0  0  0  0
  4  6  2  0  0  0  0
  4 13  1  0  0  0  0
  5 10  1  0  0  0  0
  5 14  2  0  0  0  0
  6  8  1  0  0  0  0
  7 12  1  0  0  0  0
  7 14  1  0  0  0  0
  7 19  1  0  0  0  0
  8 10  2  0  0  0  0
  9 14  1  0  0  0  0
 10 12  1  0  0  0  0
 11 18  1  0  0  0  0
 11 20  1  0  0  0  0
 11 21  1  0  0  0  0
 12 13  2  0  0  0  0
 13 15  1  0  0  0  0
 15 16  1  0  0  0  0
 16 17  1  0  0  0  0
 16 18  1  1  0  0  0
 19 22  1  0  0  0  0
 22 23  1  0  0  0  0
M  END
>  <CHROM.1>
61.98340535,128.20005935,84.54356443,66.63935081,170.04307930,124.20712488
10.56883258,-9.42717026,-11.69374316,-2.40377726,0.47776159,-0.19236001

>  <Name>
ligand

>  <RI>
0

>  <Rbt.Current_Directory>
/home/itssahil/PROJECTS/Mol_Feturizer/New_Systems/rnas/3TZR

>  <Rbt.Executable>
rbdock ($Id: //depot/dev/client3/rdock/2013.1/src/exe/rbdock.cxx#4 $)

>  <Rbt.Library>
libRbt.so (2013.1, Build901 2013/11/27)

>  <Rbt.Parameter_File>
/export/apps/rDock/src/rDock_2013.1_src/data/scripts/dock_solv.prm

>  <Rbt.Receptor>
prm/pocket_docking_3.prm

>  <SCORE>
-22.5358

>  <SCORE.INTER>
-18.0072

>  <SCORE.INTER.CONST>
1

>  <SCORE.INTER.POLAR>
0

>  <SCORE.INTER.ROT>
6

>  <SCORE.INTER.SOLV>
16.3202

>  <SCORE.INTER.VDW>
-25.0449

>  <SCORE.INTER.norm>
-0.750301

>  <SCORE.INTRA>
-4.52853

>  <SCORE.INTRA.DIHEDRAL>
3.08617

>  <SCORE.INTRA.DIHEDRAL.0>
4.94008

>  <SCORE.INTRA.POLAR>
0

>  <SCORE.INTRA.POLAR.0>
0

>  <SCORE.INTRA.REPUL>
0

>  <SCORE.INTRA.REPUL.0>
0

>  <SCORE.INTRA.SOLV>
1.11282

>  <SCORE.INTRA.SOLV.lig_0>
-31.4704

>  <SCORE.INTRA.VDW>
-6.62802

>  <SCORE.INTRA.VDW.0>
10.2807

>  <SCORE.INTRA.norm>
-0.188689

>  <SCORE.RESTR>
0

>  <SCORE.RESTR.CAVITY>
0

>  <SCORE.RESTR.norm>
0

>  <SCORE.SYSTEM>
0

>  <SCORE.SYSTEM.CONST>
0

>  <SCORE.SYSTEM.DIHEDRAL>
0

>  <SCORE.SYSTEM.SOLV>
0

>  <SCORE.SYSTEM.norm>
0

>  <SCORE.heavy>
24

>  <SCORE.norm>
-0.93899

>  <RMSD>
1.487

$$$$
ligand
 OpenBabel11021811493D
libRbt.so/2013.1/901 2013/11/27
 24 26  0  0  0  0  0  0  0  0999 V2000
    5.2238  -10.4206  -12.0985 N   0  0  0  0  0  0  0  0  0  0  0  0
    4.2596  -10.8534  -11.0999 C   0  0  0  0  0  0  0  0  0  0  0  0
   13.7032   -7.4693  -13.2541 O   0  0  0  0  0  0  0  0  0  0  0  0
   12.5609   -6.7786  -12.8721 C   0  0  0  0  0  0  0  0  0  0  0  0
    8.9444   -4.8165  -11.7187 N   0  0  0  0  0  0  0  0  0  0  0  0
   12.5087   -5.2741  -12.9013 C   0  0  0  0  0  0  0  0  0  0  0  0
    8.9364   -7.0609  -11.6282 N   0  0  0  0  0  0  0  0  0  0  0  0
   11.3338   -4.5389  -12.5390 C   0  0  0  0  0  0  0  0  0  0  0  0
    6.8286   -5.8879  -10.9513 N   0  0  0  0  0  0  0  0  0  0  0  0
   10.1916   -5.3117  -12.1246 C   0  0  0  0  0  0  0  0  0  0  0  0
   13.6813  -11.8604  -12.3398 N   0  0  0  0  0  0  0  0  0  0  0  0
   10.2330   -6.7487  -12.0775 C   0  0  0  0  0  0  0  0  0  0  0  0
   11.4721   -7.4719  -12.4742 C   0  0  0  0  0  0  0  0  0  0  0  0
    8.1830   -5.9098  -11.4236 C   0  0  0  0  0  0  0  0  0  0  0  0
   11.4933   -8.9883  -12.4271 C   0  0  0  0  0  0  0  0  0  0  0  0
   12.8661   -9.6228  -12.6224 C   0  0  1  0  0  0  0  0  0  0  0  0
   13.9833   -8.6222  -12.5411 C   0  0  0  0  0  0  0  0  0  0  0  0
   13.0627  -10.7561  -11.6268 C   0  0  0  0  0  0  0  0  0  0  0  0
    8.4160   -8.4336  -11.4793 C   0  0  0  0  0  0  0  0  0  0  0  0
   14.3568  -12.7142  -11.3720 C   0  0  0  0  0  0  0  0  0  0  0  0
   12.6191  -12.6062  -12.9965 C   0  0  0  0  0  0  0  0  0  0  0  0
    6.9860   -8.6581  -12.0002 C   0  0  0  0  0  0  0  0  0  0  0  0
    6.4755  -10.0033  -11.4507 C   0  0  0  0  0  0  0  0  0  0  0  0
    5.4489  -11.5279  -13.0207 C   0  0  0  0  0  0  0  0  0  0  0  0
  1 23  1  0  0  0  0
  1 24  1  0  0  0  0
  1  2  1  0  0  0  0
  3  4  1  0  0  0  0
  3 17  1  0  0  0  0
  4  6  2  0  0  0  0
  4 13  1  0  0  0  0
  5 10  1  0  0  0  0
  5 14  2  0  0  0  0
  6  8  1  0  0  0  0
  7 12  1  0  0  0  0
  7 14  1  0  0  0  0
  7 19  1  0  0  0  0
  8 10  2  0  0  0  0
  9 14  1  0  0  0  0
 10 12  1  0  0  0  0
 11 18  1  0  0  0  0
 11 20  1  0  0  0  0
 11 21  1  0  0  0  0
 12 13  2  0  0  0  0
 13 15  1  0  0  0  0
 15 16  1  0  0  0  0
 16 17  1  0  0  0  0
 16 18  1  1  0  0  0
 19 22  1  0  0  0  0
 22 23  1  0  0  0  0
M  END
>  <CHROM.1>
-133.18121058,-136.22495198,157.56951141,137.39996994,-165.59602753,-169.11502990
10.12516777,-8.56890367,-12.12258519,3.06679385,0.10166380,-0.00002071

>  <Name>
ligand

>  <RI>
0

>  <Rbt.Current_Directory>
/home/itssahil/PROJECTS/Mol_Feturizer/New_Systems/rnas/3TZR

>  <Rbt.Executable>
rbdock ($Id: //depot/dev/client3/rdock/2013.1/src/exe/rbdock.cxx#4 $)

>  <Rbt.Library>
libRbt.so (2013.1, Build901 2013/11/27)

>  <Rbt.Parameter_File>
/export/apps/rDock/src/rDock_2013.1_src/data/scripts/dock_solv.prm

>  <Rbt.Receptor>
prm/pocket_docking_3.prm

>  <SCORE>
-29.0129

>  <SCORE.INTER>
-21.4768

>  <SCORE.INTER.CONST>
1

>  <SCORE.INTER.POLAR>
0

>  <SCORE.INTER.ROT>
6

>  <SCORE.INTER.SOLV>
18.9645

>  <SCORE.INTER.VDW>
-28.2394

>  <SCORE.INTER.norm>
-0.894866

>  <SCORE.INTRA>
-7.53609

>  <SCORE.INTRA.DIHEDRAL>
4.69472

>  <SCORE.INTRA.DIHEDRAL.0>
4.94008

>  <SCORE.INTRA.POLAR>
0

>  <SCORE.INTRA.POLAR.0>
0

>  <SCORE.INTRA.REPUL>
0

>  <SCORE.INTRA.REPUL.0>
0

>  <SCORE.INTRA.SOLV>
1.30663

>  <SCORE.INTRA.SOLV.lig_0>
-31.4704

>  <SCORE.INTRA.VDW>
-10.5368

>  <SCORE.INTRA.VDW.0>
10.2807

>  <SCORE.INTRA.norm>
-0.314004

>  <SCORE.RESTR>
0

>  <SCORE.RESTR.CAVITY>
0

>  <SCORE.RESTR.norm>
0

>  <SCORE.SYSTEM>
0

>  <SCORE.SYSTEM.CONST>
0

>  <SCORE.SYSTEM.DIHEDRAL>
0

>  <SCORE.SYSTEM.SOLV>
0

>  <SCORE.SYSTEM.norm>
0

>  <SCORE.heavy>
24

>  <SCORE.norm>
-1.20887

>  <RMSD>
1.491

$$$$
ligand
 OpenBabel11021811493D
libRbt.so/2013.1/901 2013/11/27
 24 26  0  0  0  0  0  0  0  0999 V2000
    7.2771  -10.3923  -11.2960 N   0  0  0  0  0  0  0  0  0  0  0  0
    6.4235  -10.1528  -12.4485 C   0  0  0  0  0  0  0  0  0  0  0  0
   13.9207   -8.1461  -13.2248 O   0  0  0  0  0  0  0  0  0  0  0  0
   12.9748   -7.1647  -12.9608 C   0  0  0  0  0  0  0  0  0  0  0  0
    9.9250   -4.2764  -12.1762 N   0  0  0  0  0  0  0  0  0  0  0  0
   13.3249   -5.7017  -13.0250 C   0  0  0  0  0  0  0  0  0  0  0  0
    9.3162   -6.4344  -12.0413 N   0  0  0  0  0  0  0  0  0  0  0  0
   12.3611   -4.6697  -12.7845 C   0  0  0  0  0  0  0  0  0  0  0  0
    7.5461   -4.7224  -11.5800 N   0  0  0  0  0  0  0  0  0  0  0  0
   11.0254   -5.0978  -12.4586 C   0  0  0  0  0  0  0  0  0  0  0  0
   13.3361  -12.0735  -11.8240 N   0  0  0  0  0  0  0  0  0  0  0  0
   10.6812   -6.4922  -12.3788 C   0  0  0  0  0  0  0  0  0  0  0  0
   11.7128   -7.5309  -12.6481 C   0  0  0  0  0  0  0  0  0  0  0  0
    8.8801   -5.1185  -11.9285 C   0  0  0  0  0  0  0  0  0  0  0  0
   11.3282   -8.9965  -12.5686 C   0  0  0  0  0  0  0  0  0  0  0  0
   12.4954   -9.9761  -12.6273 C   0  0  1  0  0  0  0  0  0  0  0  0
   13.8271   -9.3003  -12.4664 C   0  0  0  0  0  0  0  0  0  0  0  0
   12.3038  -11.0772  -11.5953 C   0  0  0  0  0  0  0  0  0  0  0  0
    8.4409   -7.6152  -11.9119 C   0  0  0  0  0  0  0  0  0  0  0  0
   13.5354  -12.8233  -10.5911 C   0  0  0  0  0  0  0  0  0  0  0  0
   12.8592  -12.9647  -12.8699 C   0  0  0  0  0  0  0  0  0  0  0  0
    8.5372   -8.3651  -10.5721 C   0  0  0  0  0  0  0  0  0  0  0  0
    7.2693   -9.2235  -10.4048 C   0  0  0  0  0  0  0  0  0  0  0  0
    6.7890  -11.5836  -10.6106 C   0  0  0  0  0  0  0  0  0  0  0  0
  1 23  1  0  0  0  0
  1 24  1  0  0  0  0
  1  2  1  0  0  0  0
  3  4  1  0  0  0  0
  3 17  1  0  0  0  0
  4  6  2  0  0  0  0
  4 13  1  0  0  0  0
  5 10  1  0  0  0  0
  5 14  2  0  0  0  0
  6  8  1  0  0  0  0
  7 12  1  0  0  0  0
  7 14  1  0  0  0  0
  7 19  1  0  0  0  0
  8 10  2  0  0  0  0
  9 14  1  0  0  0  0
 10 12  1  0  0  0  0
 11 18  1  0  0  0  0
 11 20  1  0  0  0  0
 11 21  1  0  0  0  0
 12 13  2  0  0  0  0
 13 15  1  0  0  0  0
 15 16  1  0  0  0  0
 16 17  1  0  0  0  0
 16 18  1  1  0  0  0
 19 22  1  0  0  0  0
 22 23  1  0  0  0  0
M  END
>  <CHROM.1>
-101.67805754,81.22507258,157.25623701,172.09358672,160.62222182,73.00032604
10.63671667,-8.46868590,-12.01773189,2.18576406,0.20571252,-0.13586199

>  <Name>
ligand

>  <RI>
0

>  <Rbt.Current_Directory>
/home/itssahil/PROJECTS/Mol_Feturizer/New_Systems/rnas/3TZR

>  <Rbt.Executable>
rbdock ($Id: //depot/dev/client3/rdock/2013.1/src/exe/rbdock.cxx#4 $)

>  <Rbt.Library>
libRbt.so (2013.1, Build901 2013/11/27)

>  <Rbt.Parameter_File>
/export/apps/rDock/src/rDock_2013.1_src/data/scripts/dock_solv.prm

>  <Rbt.Receptor>
prm/pocket_docking_3.prm

>  <SCORE>
-33.337

>  <SCORE.INTER>
-23.3251

>  <SCORE.INTER.CONST>
1

>  <SCORE.INTER.POLAR>
0

>  <SCORE.INTER.ROT>
6

>  <SCORE.INTER.SOLV>
20.9469

>  <SCORE.INTER.VDW>
-30.1324

>  <SCORE.INTER.norm>
-0.971879

>  <SCORE.INTRA>
-10.0119

>  <SCORE.INTRA.DIHEDRAL>
1.2825

>  <SCORE.INTRA.DIHEDRAL.0>
4.94008

>  <SCORE.INTRA.POLAR>
0

>  <SCORE.INTRA.POLAR.0>
0

>  <SCORE.INTRA.REPUL>
0

>  <SCORE.INTRA.REPUL.0>
0

>  <SCORE.INTRA.SOLV>
0.00891756

>  <SCORE.INTRA.SOLV.lig_0>
-31.4704

>  <SCORE.INTRA.VDW>
-10.6576

>  <SCORE.INTRA.VDW.0>
10.2807

>  <SCORE.INTRA.norm>
-0.417162

>  <SCORE.RESTR>
0

>  <SCORE.RESTR.CAVITY>
0

>  <SCORE.RESTR.norm>
0

>  <SCORE.SYSTEM>
0

>  <SCORE.SYSTEM.CONST>
0

>  <SCORE.SYSTEM.DIHEDRAL>
0

>  <SCORE.SYSTEM.SOLV>
0

>  <SCORE.SYSTEM.norm>
0

>  <SCORE.heavy>
24

>  <SCORE.norm>
-1.38904

>  <RMSD>
1.491

$$$$
ligand
 OpenBabel11021811493D
libRbt.so/2013.1/901 2013/11/27
 24 26  0  0  0  0  0  0  0  0999 V2000
    5.5967  -10.5281  -12.6591 N   0  0  0  0  0  0  0  0  0  0  0  0
    4.7068  -11.2733  -11.7832 C   0  0  0  0  0  0  0  0  0  0  0  0
   13.3137   -6.4199  -13.2206 O   0  0  0  0  0  0  0  0  0  0  0  0
   12.0930   -5.8727  -12.8489 C   0  0  0  0  0  0  0  0  0  0  0  0
    8.2566   -4.3642  -11.7240 N   0  0  0  0  0  0  0  0  0  0  0  0
   11.8505   -4.3878  -12.9049 C   0  0  0  0  0  0  0  0  0  0  0  0
    8.5329   -6.5895  -11.5933 N   0  0  0  0  0  0  0  0  0  0  0  0
   10.5918   -3.8009  -12.5537 C   0  0  0  0  0  0  0  0  0  0  0  0
    6.2933   -5.6810  -10.9335 N   0  0  0  0  0  0  0  0  0  0  0  0
    9.5566   -4.7046  -12.1233 C   0  0  0  0  0  0  0  0  0  0  0  0
   12.4384  -10.9543  -11.9639 N   0  0  0  0  0  0  0  0  0  0  0  0
    9.7797   -6.1237  -12.0506 C   0  0  0  0  0  0  0  0  0  0  0  0
   11.1006   -6.6911  -12.4366 C   0  0  0  0  0  0  0  0  0  0  0  0
    7.6397   -5.5397  -11.4079 C   0  0  0  0  0  0  0  0  0  0  0  0
   11.3138   -8.1915  -12.3624 C   0  0  0  0  0  0  0  0  0  0  0  0
   12.7560   -8.6504  -12.5490 C   0  0  1  0  0  0  0  0  0  0  0  0
   13.7374   -7.5150  -12.4877 C   0  0  0  0  0  0  0  0  0  0  0  0
   13.0942   -9.7315  -11.5336 C   0  0  0  0  0  0  0  0  0  0  0  0
    8.1906   -8.0142  -11.4189 C   0  0  0  0  0  0  0  0  0  0  0  0
   13.3620  -11.7015  -12.8069 C   0  0  0  0  0  0  0  0  0  0  0  0
   12.1271  -11.7262  -10.7711 C   0  0  0  0  0  0  0  0  0  0  0  0
    7.0629   -8.5383  -12.3246 C   0  0  0  0  0  0  0  0  0  0  0  0
    6.7225   -9.9767  -11.8917 C   0  0  0  0  0  0  0  0  0  0  0  0
    6.0617  -11.4306  -13.7063 C   0  0  0  0  0  0  0  0  0  0  0  0
  1 23  1  0  0  0  0
  1 24  1  0  0  0  0
  1  2  1  0  0  0  0
  3  4  1  0  0  0  0
  3 17  1  0  0  0  0
  4  6  2  0  0  0  0
  4 13  1  0  0  0  0
  5 10  1  0  0  0  0
  5 14  2  0  0  0  0
  6  8  1  0  0  0  0
  7 12  1  0  0  0  0
  7 14  1  0  0  0  0
  7 19  1  0  0  0  0
  8 10  2  0  0  0  0
  9 14  1  0  0  0  0
 10 12  1  0  0  0  0
 11 18  1  0  0  0  0
 11 20  1  0  0  0  0
 11 21  1  0  0  0  0
 12 13  2  0  0  0  0
 13 15  1  0  0  0  0
 15 16  1  0  0  0  0
 16 17  1  0  0  0  0
 16 18  1  1  0  0  0
 19 22  1  0  0  0  0
 22 23  1  0  0  0  0
M  END
>  <CHROM.1>
-138.70604230,-116.16015547,91.52546086,74.45515163,-173.11336835,176.73054264
9.82070724,-7.99439519,-12.16844534,-2.84622734,0.05159547,0.00876994

>  <Name>
ligand

>  <RI>
0

>  <Rbt.Current_Directory>
/home/itssahil/PROJECTS/Mol_Feturizer/New_Systems/rnas/3TZR

>  <Rbt.Executable>
rbdock ($Id: //depot/dev/client3/rdock/2013.1/src/exe/rbdock.cxx#4 $)

>  <Rbt.Library>
libRbt.so (2013.1, Build901 2013/11/27)

>  <Rbt.Parameter_File>
/export/apps/rDock/src/rDock_2013.1_src/data/scripts/dock_solv.prm

>  <Rbt.Receptor>
prm/blind_docking_80.prm

>  <SCORE>
-34.2316

>  <SCORE.INTER>
-23.5464

>  <SCORE.INTER.CONST>
1

>  <SCORE.INTER.POLAR>
0

>  <SCORE.INTER.ROT>
6

>  <SCORE.INTER.SOLV>
20.9161

>  <SCORE.INTER.VDW>
-30.2696

>  <SCORE.INTER.norm>
-0.981099

>  <SCORE.INTRA>
-10.6852

>  <SCORE.INTRA.DIHEDRAL>
0.343119

>  <SCORE.INTRA.DIHEDRAL.0>
4.94008

>  <SCORE.INTRA.POLAR>
0

>  <SCORE.INTRA.POLAR.0>
0

>  <SCORE.INTRA.REPUL>
0

>  <SCORE.INTRA.REPUL.0>
0

>  <SCORE.INTRA.SOLV>
0.710878

>  <SCORE.INTRA.SOLV.lig_0>
-31.4704

>  <SCORE.INTRA.VDW>
-11.2122

>  <SCORE.INTRA.VDW.0>
10.2807

>  <SCORE.INTRA.norm>
-0.445217

>  <SCORE.RESTR>
0

>  <SCORE.RESTR.CAVITY>
0

>  <SCORE.RESTR.norm>
0

>  <SCORE.SYSTEM>
0

>  <SCORE.SYSTEM.CONST>
0

>  <SCORE.SYSTEM.DIHEDRAL>
0

>  <SCORE.SYSTEM.SOLV>
0

>  <SCORE.SYSTEM.norm>
0

>  <SCORE.heavy>
24

>  <SCORE.norm>
-1.42632

>  <RMSD>
1.535

$$$$
ligand
 OpenBabel11021811493D
libRbt.so/2013.1/901 2013/11/27
 24 26  0  0  0  0  0  0  0  0999 V2000
    6.3955   -9.7853  -11.5227 N   0  0  0  0  0  0  0  0  0  0  0  0
    5.5555  -10.7998  -10.9067 C   0  0  0  0  0  0  0  0  0  0  0  0
   13.9591   -8.0230  -13.1140 O   0  0  0  0  0  0  0  0  0  0  0  0
   12.9768   -7.0773  -12.8524 C   0  0  0  0  0  0  0  0  0  0  0  0
    9.8199   -4.3007  -12.0885 N   0  0  0  0  0  0  0  0  0  0  0  0
   13.2931   -5.6055  -12.8273 C   0  0  0  0  0  0  0  0  0  0  0  0
    9.2590   -6.4758  -12.0902 N   0  0  0  0  0  0  0  0  0  0  0  0
   12.2928   -4.6085  -12.5875 C   0  0  0  0  0  0  0  0  0  0  0  0
    7.4256   -4.8290  -11.6392 N   0  0  0  0  0  0  0  0  0  0  0  0
   10.9534   -5.0822  -12.3527 C   0  0  0  0  0  0  0  0  0  0  0  0
   13.3470  -12.0694  -12.0002 N   0  0  0  0  0  0  0  0  0  0  0  0
   10.6404   -6.4861  -12.3586 C   0  0  0  0  0  0  0  0  0  0  0  0
   11.7100   -7.4868  -12.6239 C   0  0  0  0  0  0  0  0  0  0  0  0
    8.7850   -5.1772  -11.9365 C   0  0  0  0  0  0  0  0  0  0  0  0
   11.3586   -8.9628  -12.6356 C   0  0  0  0  0  0  0  0  0  0  0  0
   12.5513   -9.9119  -12.6808 C   0  0  1  0  0  0  0  0  0  0  0  0
   13.8558   -9.2152  -12.4183 C   0  0  0  0  0  0  0  0  0  0  0  0
   12.3350  -11.0669  -11.7148 C   0  0  0  0  0  0  0  0  0  0  0  0
    8.4080   -7.6810  -12.0639 C   0  0  0  0  0  0  0  0  0  0  0  0
   13.6092  -12.8211  -10.7804 C   0  0  0  0  0  0  0  0  0  0  0  0
   12.8078  -12.9570  -13.0185 C   0  0  0  0  0  0  0  0  0  0  0  0
    8.2634   -8.3575  -10.6898 C   0  0  0  0  0  0  0  0  0  0  0  0
    7.7300   -9.7861  -10.9066 C   0  0  0  0  0  0  0  0  0  0  0  0
    6.4723  -10.0674  -12.9517 C   0  0  0  0  0  0  0  0  0  0  0  0
  1 23  1  0  0  0  0
  1 24  1  0  0  0  0
  1  2  1  0  0  0  0
  3  4  1  0  0  0  0
  3 17  1  0  0  0  0
  4  6  2  0  0  0  0
  4 13  1  0  0  0  0
  5 10  1  0  0  0  0
  5 14  2  0  0  0  0
  6  8  1  0  0  0  0
  7 12  1  0  0  0  0
  7 14  1  0  0  0  0
  7 19  1  0  0  0  0
  8 10  2  0  0  0  0
  9 14  1  0  0  0  0
 10 12  1  0  0  0  0
 11 18  1  0  0  0  0
 11 20  1  0  0  0  0
 11 21  1  0  0  0  0
 12 13  2  0  0  0  0
 13 15  1  0  0  0  0
 15 16  1  0  0  0  0
 16 17  1  0  0  0  0
 16 18  1  1  0  0  0
 19 22  1  0  0  0  0
 22 23  1  0  0  0  0
M  END
>  <CHROM.1>
-139.14434099,91.34354607,152.55464795,168.22365188,-162.96258981,-62.50369263
10.53724156,-8.41279342,-12.10008700,2.49472036,0.14788889,-0.08679250

>  <Name>
ligand

>  <RI>
0

>  <Rbt.Current_Directory>
/home/itssahil/PROJECTS/Mol_Feturizer/New_Systems/rnas/3TZR

>  <Rbt.Executable>
rbdock ($Id: //depot/dev/client3/rdock/2013.1/src/exe/rbdock.cxx#4 $)

>  <Rbt.Library>
libRbt.so (2013.1, Build901 2013/11/27)

>  <Rbt.Parameter_File>
/export/apps/rDock/src/rDock_2013.1_src/data/scripts/dock_solv.prm

>  <Rbt.Receptor>
prm/pocket_docking_3.prm

>  <SCORE>
-34.1522

>  <SCORE.INTER>
-23.9765

>  <SCORE.INTER.CONST>
1

>  <SCORE.INTER.POLAR>
0

>  <SCORE.INTER.ROT>
6

>  <SCORE.INTER.SOLV>
21.0809

>  <SCORE.INTER.VDW>
-30.6113

>  <SCORE.INTER.norm>
-0.999019

>  <SCORE.INTRA>
-10.1758

>  <SCORE.INTRA.DIHEDRAL>
0.945569

>  <SCORE.INTRA.DIHEDRAL.0>
4.94008

>  <SCORE.INTRA.POLAR>
0

>  <SCORE.INTRA.POLAR.0>
0

>  <SCORE.INTRA.REPUL>
0

>  <SCORE.INTRA.REPUL.0>
0

>  <SCORE.INTRA.SOLV>
0.119832

>  <SCORE.INTRA.SOLV.lig_0>
-31.4704

>  <SCORE.INTRA.VDW>
-10.7085

>  <SCORE.INTRA.VDW.0>
10.2807

>  <SCORE.INTRA.norm>
-0.42399

>  <SCORE.RESTR>
0

>  <SCORE.RESTR.CAVITY>
0

>  <SCORE.RESTR.norm>
0

>  <SCORE.SYSTEM>
0

>  <SCORE.SYSTEM.CONST>
0

>  <SCORE.SYSTEM.DIHEDRAL>
0

>  <SCORE.SYSTEM.SOLV>
0

>  <SCORE.SYSTEM.norm>
0

>  <SCORE.heavy>
24

>  <SCORE.norm>
-1.42301

>  <RMSD>
1.542

$$$$
ligand
 OpenBabel11021811493D
libRbt.so/2013.1/901 2013/11/27
 24 26  0  0  0  0  0  0  0  0999 V2000
    5.6208  -10.5973  -12.7165 N   0  0  0  0  0  0  0  0  0  0  0  0
    4.4967  -10.6427  -11.7953 C   0  0  0  0  0  0  0  0  0  0  0  0
   13.2570   -6.3214  -13.2333 O   0  0  0  0  0  0  0  0  0  0  0  0
   12.0286   -5.8065  -12.8413 C   0  0  0  0  0  0  0  0  0  0  0  0
    8.1716   -4.3982  -11.6583 N   0  0  0  0  0  0  0  0  0  0  0  0
   11.7593   -4.3252  -12.8560 C   0  0  0  0  0  0  0  0  0  0  0  0
    8.4884   -6.6210  -11.5891 N   0  0  0  0  0  0  0  0  0  0  0  0
   10.4922   -3.7708  -12.4832 C   0  0  0  0  0  0  0  0  0  0  0  0
    6.2363   -5.7711  -10.8946 N   0  0  0  0  0  0  0  0  0  0  0  0
    9.4755   -4.7043  -12.0727 C   0  0  0  0  0  0  0  0  0  0  0  0
   12.4193  -10.8885  -12.0608 N   0  0  0  0  0  0  0  0  0  0  0  0
    9.7243   -6.1206  -12.0393 C   0  0  0  0  0  0  0  0  0  0  0  0
   11.0531   -6.6535  -12.4466 C   0  0  0  0  0  0  0  0  0  0  0  0
    7.5775   -5.5928  -11.3712 C   0  0  0  0  0  0  0  0  0  0  0  0
   11.2935   -8.1512  -12.4140 C   0  0  0  0  0  0  0  0  0  0  0  0
   12.7428   -8.5789  -12.6196 C   0  0  1  0  0  0  0  0  0  0  0  0
   13.7039   -7.4280  -12.5322 C   0  0  0  0  0  0  0  0  0  0  0  0
   13.1055   -9.6806  -11.6354 C   0  0  0  0  0  0  0  0  0  0  0  0
    8.1726   -8.0558  -11.4516 C   0  0  0  0  0  0  0  0  0  0  0  0
   13.3227  -11.6601  -12.9037 C   0  0  0  0  0  0  0  0  0  0  0  0
   12.0921  -11.6493  -10.8651 C   0  0  0  0  0  0  0  0  0  0  0  0
    7.0018   -8.5599  -12.3130 C   0  0  0  0  0  0  0  0  0  0  0  0
    6.8120  -10.0639  -12.0406 C   0  0  0  0  0  0  0  0  0  0  0  0
    5.8547  -11.9488  -13.2127 C   0  0  0  0  0  0  0  0  0  0  0  0
  1 23  1  0  0  0  0
  1 24  1  0  0  0  0
  1  2  1  0  0  0  0
  3  4  1  0  0  0  0
  3 17  1  0  0  0  0
  4  6  2  0  0  0  0
  4 13  1  0  0  0  0
  5 10  1  0  0  0  0
  5 14  2  0  0  0  0
  6  8  1  0  0  0  0
  7 12  1  0  0  0  0
  7 14  1  0  0  0  0
  7 19  1  0  0  0  0
  8 10  2  0  0  0  0
  9 14  1  0  0  0  0
 10 12  1  0  0  0  0
 11 18  1  0  0  0  0
 11 20  1  0  0  0  0
 11 21  1  0  0  0  0
 12 13  2  0  0  0  0
 13 15  1  0  0  0  0
 15 16  1  0  0  0  0
 16 17  1  0  0  0  0
 16 18  1  1  0  0  0
 19 22  1  0  0  0  0
 22 23  1  0  0  0  0
M  END
>  <CHROM.1>
-97.16356607,-119.17655076,93.93433401,71.86228410,-179.79500063,173.93617822
9.76732316,-7.97637199,-12.16833110,-2.84151995,0.06742229,0.02054871

>  <Name>
ligand

>  <RI>
0

>  <Rbt.Current_Directory>
/home/itssahil/PROJECTS/Mol_Feturizer/New_Systems/rnas/3TZR

>  <Rbt.Executable>
rbdock ($Id: //depot/dev/client3/rdock/2013.1/src/exe/rbdock.cxx#4 $)

>  <Rbt.Library>
libRbt.so (2013.1, Build901 2013/11/27)

>  <Rbt.Parameter_File>
/export/apps/rDock/src/rDock_2013.1_src/data/scripts/dock_solv.prm

>  <Rbt.Receptor>
prm/pocket_docking_5.prm

>  <SCORE>
-34.4925

>  <SCORE.INTER>
-23.6715

>  <SCORE.INTER.CONST>
1

>  <SCORE.INTER.POLAR>
0

>  <SCORE.INTER.ROT>
6

>  <SCORE.INTER.SOLV>
20.855

>  <SCORE.INTER.VDW>
-30.3327

>  <SCORE.INTER.norm>
-0.986313

>  <SCORE.INTRA>
-10.821

>  <SCORE.INTRA.DIHEDRAL>
-0.0153742

>  <SCORE.INTRA.DIHEDRAL.0>
4.94008

>  <SCORE.INTRA.POLAR>
0

>  <SCORE.INTRA.POLAR.0>
0

>  <SCORE.INTRA.REPUL>
0

>  <SCORE.INTRA.REPUL.0>
0

>  <SCORE.INTRA.SOLV>
0.711296

>  <SCORE.INTRA.SOLV.lig_0>
-31.4704

>  <SCORE.INTRA.VDW>
-11.169

>  <SCORE.INTRA.VDW.0>
10.2807

>  <SCORE.INTRA.norm>
-0.450875

>  <SCORE.RESTR>
0

>  <SCORE.RESTR.CAVITY>
0

>  <SCORE.RESTR.norm>
0

>  <SCORE.SYSTEM>
0

>  <SCORE.SYSTEM.CONST>
0

>  <SCORE.SYSTEM.DIHEDRAL>
0

>  <SCORE.SYSTEM.SOLV>
0

>  <SCORE.SYSTEM.norm>
0

>  <SCORE.heavy>
24

>  <SCORE.norm>
-1.43719

>  <RMSD>
1.542

$$$$
ligand
 OpenBabel11021811493D
libRbt.so/2013.1/901 2013/11/27
 24 26  0  0  0  0  0  0  0  0999 V2000
    5.6577  -10.6251  -12.8034 N   0  0  0  0  0  0  0  0  0  0  0  0
    4.4671  -10.6258  -11.9688 C   0  0  0  0  0  0  0  0  0  0  0  0
   13.2352   -6.3631  -13.1400 O   0  0  0  0  0  0  0  0  0  0  0  0
   12.0054   -5.8411  -12.7620 C   0  0  0  0  0  0  0  0  0  0  0  0
    8.1435   -4.4105  -11.6225 N   0  0  0  0  0  0  0  0  0  0  0  0
   11.7440   -4.3584  -12.7823 C   0  0  0  0  0  0  0  0  0  0  0  0
    8.4480   -6.6347  -11.5457 N   0  0  0  0  0  0  0  0  0  0  0  0
   10.4759   -3.7968  -12.4240 C   0  0  0  0  0  0  0  0  0  0  0  0
    6.1931   -5.7718  -10.8768 N   0  0  0  0  0  0  0  0  0  0  0  0
    9.4500   -4.7241  -12.0225 C   0  0  0  0  0  0  0  0  0  0  0  0
   12.4008  -10.9354  -11.9949 N   0  0  0  0  0  0  0  0  0  0  0  0
    9.6911   -6.1417  -11.9839 C   0  0  0  0  0  0  0  0  0  0  0  0
   11.0214   -6.6822  -12.3761 C   0  0  0  0  0  0  0  0  0  0  0  0
    7.5401   -5.6014  -11.3395 C   0  0  0  0  0  0  0  0  0  0  0  0
   11.2536   -8.1811  -12.3381 C   0  0  0  0  0  0  0  0  0  0  0  0
   12.7027   -8.6167  -12.5275 C   0  0  1  0  0  0  0  0  0  0  0  0
   13.6689   -7.4707  -12.4321 C   0  0  0  0  0  0  0  0  0  0  0  0
   13.0492   -9.7184  -11.5375 C   0  0  0  0  0  0  0  0  0  0  0  0
    8.1232   -8.0676  -11.4090 C   0  0  0  0  0  0  0  0  0  0  0  0
   13.3207  -11.6471  -12.8719 C   0  0  0  0  0  0  0  0  0  0  0  0
   12.1143  -11.7454  -10.8213 C   0  0  0  0  0  0  0  0  0  0  0  0
    7.0286   -8.5901  -12.3554 C   0  0  0  0  0  0  0  0  0  0  0  0
    6.8026  -10.0842  -12.0570 C   0  0  0  0  0  0  0  0  0  0  0  0
    5.9081  -11.9951  -13.2366 C   0  0  0  0  0  0  0  0  0  0  0  0
  1 23  1  0  0  0  0
  1 24  1  0  0  0  0
  1  2  1  0  0  0  0
  3  4  1  0  0  0  0
  3 17  1  0  0  0  0
  4  6  2  0  0  0  0
  4 13  1  0  0  0  0
  5 10  1  0  0  0  0
  5 14  2  0  0  0  0
  6  8  1  0  0  0  0
  7 12  1  0  0  0  0
  7 14  1  0  0  0  0
  7 19  1  0  0  0  0
  8 10  2  0  0  0  0
  9 14  1  0  0  0  0
 10 12  1  0  0  0  0
 11 18  1  0  0  0  0
 11 20  1  0  0  0  0
 11 21  1  0  0  0  0
 12 13  2  0  0  0  0
 13 15  1  0  0  0  0
 15 16  1  0  0  0  0
 16 17  1  0  0  0  0
 16 18  1  1  0  0  0
 19 22  1  0  0  0  0
 22 23  1  0  0  0  0
M  END
>  <CHROM.1>
-96.77240495,-114.89202993,90.68085307,73.89978847,-178.90934464,173.02491320
9.74900255,-8.00312953,-12.13598602,-2.85545571,0.04964083,0.02940829

>  <Name>
ligand

>  <RI>
0

>  <Rbt.Current_Directory>
/home/itssahil/PROJECTS/Mol_Feturizer/New_Systems/rnas/3TZR

>  <Rbt.Executable>
rbdock ($Id: //depot/dev/client3/rdock/2013.1/src/exe/rbdock.cxx#4 $)

>  <Rbt.Library>
libRbt.so (2013.1, Build901 2013/11/27)

>  <Rbt.Parameter_File>
/export/apps/rDock/src/rDock_2013.1_src/data/scripts/dock_solv.prm

>  <Rbt.Receptor>
prm/pocket_docking_7.prm

>  <SCORE>
-34.4314

>  <SCORE.INTER>
-23.5813

>  <SCORE.INTER.CONST>
1

>  <SCORE.INTER.POLAR>
0

>  <SCORE.INTER.ROT>
6

>  <SCORE.INTER.SOLV>
20.8026

>  <SCORE.INTER.VDW>
-30.2551

>  <SCORE.INTER.norm>
-0.982555

>  <SCORE.INTRA>
-10.8516

>  <SCORE.INTRA.DIHEDRAL>
-0.0553741

>  <SCORE.INTRA.DIHEDRAL.0>
4.94008

>  <SCORE.INTRA.POLAR>
0

>  <SCORE.INTRA.POLAR.0>
0

>  <SCORE.INTRA.REPUL>
0

>  <SCORE.INTRA.REPUL.0>
0

>  <SCORE.INTRA.SOLV>
0.597336

>  <SCORE.INTRA.SOLV.lig_0>
-31.4704

>  <SCORE.INTRA.VDW>
-11.1226

>  <SCORE.INTRA.VDW.0>
10.2807

>  <SCORE.INTRA.norm>
-0.452151

>  <SCORE.RESTR>
0.00152073

>  <SCORE.RESTR.CAVITY>
0.00152073

>  <SCORE.RESTR.norm>
6.33637e-05

>  <SCORE.SYSTEM>
0

>  <SCORE.SYSTEM.CONST>
0

>  <SCORE.SYSTEM.DIHEDRAL>
0

>  <SCORE.SYSTEM.SOLV>
0

>  <SCORE.SYSTEM.norm>
0

>  <SCORE.heavy>
24

>  <SCORE.norm>
-1.43464

>  <RMSD>
1.542

$$$$
ligand
 OpenBabel11021811493D
libRbt.so/2013.1/901 2013/11/27
 24 26  0  0  0  0  0  0  0  0999 V2000
    5.5949  -10.5775  -12.7390 N   0  0  0  0  0  0  0  0  0  0  0  0
    4.4004  -10.5613  -11.9101 C   0  0  0  0  0  0  0  0  0  0  0  0
   13.2381   -6.3584  -13.1665 O   0  0  0  0  0  0  0  0  0  0  0  0
   12.0118   -5.8323  -12.7828 C   0  0  0  0  0  0  0  0  0  0  0  0
    8.1599   -4.3893  -11.6254 N   0  0  0  0  0  0  0  0  0  0  0  0
   11.7553   -4.3489  -12.8015 C   0  0  0  0  0  0  0  0  0  0  0  0
    8.4573   -6.6145  -11.5506 N   0  0  0  0  0  0  0  0  0  0  0  0
   10.4907   -3.7831  -12.4373 C   0  0  0  0  0  0  0  0  0  0  0  0
    6.2084   -5.7443  -10.8711 N   0  0  0  0  0  0  0  0  0  0  0  0
    9.4636   -4.7071  -12.0314 C   0  0  0  0  0  0  0  0  0  0  0  0
   12.3152  -10.9028  -11.9628 N   0  0  0  0  0  0  0  0  0  0  0  0
    9.7001   -6.1254  -11.9942 C   0  0  0  0  0  0  0  0  0  0  0  0
   11.0268   -6.6703  -12.3926 C   0  0  0  0  0  0  0  0  0  0  0  0
    7.5539   -5.5782  -11.3400 C   0  0  0  0  0  0  0  0  0  0  0  0
   11.2542   -8.1700  -12.3561 C   0  0  0  0  0  0  0  0  0  0  0  0
   12.7009   -8.6103  -12.5522 C   0  0  1  0  0  0  0  0  0  0  0  0
   13.6713   -7.4676  -12.4609 C   0  0  0  0  0  0  0  0  0  0  0  0
   13.0483   -9.7135  -11.5640 C   0  0  0  0  0  0  0  0  0  0  0  0
    8.1284   -8.0463  -11.4127 C   0  0  0  0  0  0  0  0  0  0  0  0
   13.1451  -11.6702  -12.8817 C   0  0  0  0  0  0  0  0  0  0  0  0
   12.0609  -11.6825  -10.7616 C   0  0  0  0  0  0  0  0  0  0  0  0
    6.9788   -8.5487  -12.3031 C   0  0  0  0  0  0  0  0  0  0  0  0
    6.7404  -10.0383  -11.9923 C   0  0  0  0  0  0  0  0  0  0  0  0
    5.8369  -11.9535  -13.1579 C   0  0  0  0  0  0  0  0  0  0  0  0
  1 23  1  0  0  0  0
  1 24  1  0  0  0  0
  1  2  1  0  0  0  0
  3  4  1  0  0  0  0
  3 17  1  0  0  0  0
  4  6  2  0  0  0  0
  4 13  1  0  0  0  0
  5 10  1  0  0  0  0
  5 14  2  0  0  0  0
  6  8  1  0  0  0  0
  7 12  1  0  0  0  0
  7 14  1  0  0  0  0
  7 19  1  0  0  0  0
  8 10  2  0  0  0  0
  9 14  1  0  0  0  0
 10 12  1  0  0  0  0
 11 18  1  0  0  0  0
 11 20  1  0  0  0  0
 11 21  1  0  0  0  0
 12 13  2  0  0  0  0
 13 15  1  0  0  0  0
 15 16  1  0  0  0  0
 16 17  1  0  0  0  0
 16 18  1  1  0  0  0
 19 22  1  0  0  0  0
 22 23  1  0  0  0  0
M  END
>  <CHROM.1>
-96.74475266,-117.88798437,90.45915263,69.77689384,-177.92590275,176.23069740
9.72586694,-7.98040960,-12.12720502,-2.84027676,0.05678892,0.02201939

>  <Name>
ligand

>  <RI>
0

>  <Rbt.Current_Directory>
/home/itssahil/PROJECTS/Mol_Feturizer/New_Systems/rnas/3TZR

>  <Rbt.Executable>
rbdock ($Id: //depot/dev/client3/rdock/2013.1/src/exe/rbdock.cxx#4 $)

>  <Rbt.Library>
libRbt.so (2013.1, Build901 2013/11/27)

>  <Rbt.Parameter_File>
/export/apps/rDock/src/rDock_2013.1_src/data/scripts/dock_solv.prm

>  <Rbt.Receptor>
prm/pocket_docking_6.prm

>  <SCORE>
-34.5165

>  <SCORE.INTER>
-23.5892

>  <SCORE.INTER.CONST>
1

>  <SCORE.INTER.POLAR>
0

>  <SCORE.INTER.ROT>
6

>  <SCORE.INTER.SOLV>
20.9159

>  <SCORE.INTER.VDW>
-30.2981

>  <SCORE.INTER.norm>
-0.982883

>  <SCORE.INTRA>
-10.9273

>  <SCORE.INTRA.DIHEDRAL>
-0.481181

>  <SCORE.INTRA.DIHEDRAL.0>
4.94008

>  <SCORE.INTRA.POLAR>
0

>  <SCORE.INTRA.POLAR.0>
0

>  <SCORE.INTRA.REPUL>
0

>  <SCORE.INTRA.REPUL.0>
0

>  <SCORE.INTRA.SOLV>
0.700763

>  <SCORE.INTRA.SOLV.lig_0>
-31.4704

>  <SCORE.INTRA.VDW>
-11.0371

>  <SCORE.INTRA.VDW.0>
10.2807

>  <SCORE.INTRA.norm>
-0.455305

>  <SCORE.RESTR>
0

>  <SCORE.RESTR.CAVITY>
0

>  <SCORE.RESTR.norm>
0

>  <SCORE.SYSTEM>
0

>  <SCORE.SYSTEM.CONST>
0

>  <SCORE.SYSTEM.DIHEDRAL>
0

>  <SCORE.SYSTEM.SOLV>
0

>  <SCORE.SYSTEM.norm>
0

>  <SCORE.heavy>
24

>  <SCORE.norm>
-1.43819

>  <RMSD>
1.544

$$$$
ligand
 OpenBabel11021811493D
libRbt.so/2013.1/901 2013/11/27
 24 26  0  0  0  0  0  0  0  0999 V2000
    6.9424  -10.4874  -11.8605 N   0  0  0  0  0  0  0  0  0  0  0  0
    5.4923  -10.3824  -11.8797 C   0  0  0  0  0  0  0  0  0  0  0  0
   13.8007   -7.7255  -12.8022 O   0  0  0  0  0  0  0  0  0  0  0  0
   12.7469   -6.8285  -12.6894 C   0  0  0  0  0  0  0  0  0  0  0  0
    9.3827   -4.2187  -12.3285 N   0  0  0  0  0  0  0  0  0  0  0  0
   12.8945   -5.3898  -13.1079 C   0  0  0  0  0  0  0  0  0  0  0  0
    9.0756   -6.3425  -11.6647 N   0  0  0  0  0  0  0  0  0  0  0  0
   11.8150   -4.4516  -13.0278 C   0  0  0  0  0  0  0  0  0  0  0  0
    7.1187   -4.7920  -11.4574 N   0  0  0  0  0  0  0  0  0  0  0  0
   10.5671   -4.9472  -12.5075 C   0  0  0  0  0  0  0  0  0  0  0  0
   12.4918  -11.7518  -10.8319 N   0  0  0  0  0  0  0  0  0  0  0  0
   10.4169   -6.3154  -12.0897 C   0  0  0  0  0  0  0  0  0  0  0  0
   11.5629   -7.2587  -12.2017 C   0  0  0  0  0  0  0  0  0  0  0  0
    8.4739   -5.0976  -11.8148 C   0  0  0  0  0  0  0  0  0  0  0  0
   11.3823   -8.7005  -11.7650 C   0  0  0  0  0  0  0  0  0  0  0  0
   12.6654   -9.5217  -11.6966 C   0  0  1  0  0  0  0  0  0  0  0  0
   13.9013   -8.6743  -11.7994 C   0  0  0  0  0  0  0  0  0  0  0  0
   12.6761  -10.3673  -10.4321 C   0  0  0  0  0  0  0  0  0  0  0  0
    8.3739   -7.5559  -11.2036 C   0  0  0  0  0  0  0  0  0  0  0  0
   13.4470  -12.5742  -10.1018 C   0  0  0  0  0  0  0  0  0  0  0  0
   11.1360  -12.1343  -10.4700 C   0  0  0  0  0  0  0  0  0  0  0  0
    7.2019   -8.0171  -12.0871 C   0  0  0  0  0  0  0  0  0  0  0  0
    7.5419   -9.4071  -12.6567 C   0  0  0  0  0  0  0  0  0  0  0  0
    7.3825  -10.4275  -10.4712 C   0  0  0  0  0  0  0  0  0  0  0  0
  1 23  1  0  0  0  0
  1 24  1  0  0  0  0
  1  2  1  0  0  0  0
  3  4  1  0  0  0  0
  3 17  1  0  0  0  0
  4  6  2  0  0  0  0
  4 13  1  0  0  0  0
  5 10  1  0  0  0  0
  5 14  2  0  0  0  0
  6  8  1  0  0  0  0
  7 12  1  0  0  0  0
  7 14  1  0  0  0  0
  7 19  1  0  0  0  0
  8 10  2  0  0  0  0
  9 14  1  0  0  0  0
 10 12  1  0  0  0  0
 11 18  1  0  0  0  0
 11 20  1  0  0  0  0
 11 21  1  0  0  0  0
 12 13  2  0  0  0  0
 13 15  1  0  0  0  0
 15 16  1  0  0  0  0
 16 17  1  0  0  0  0
 16 18  1  1  0  0  0
 19 22  1  0  0  0  0
 22 23  1  0  0  0  0
M  END
>  <CHROM.1>
61.92207130,-115.10308561,135.01542099,108.97028401,116.79793640,96.68920251
10.31866520,-8.19080157,-11.75261320,2.27422553,0.02566783,-0.24135321

>  <Name>
ligand

>  <RI>
144

>  <Rbt.Current_Directory>
/home/itssahil/PROJECTS/Mol_Feturizer/New_Systems/rnas/3TZR

>  <Rbt.Executable>
rbdock ($Id: //depot/dev/client3/rdock/2013.1/src/exe/rbdock.cxx#4 $)

>  <Rbt.Library>
libRbt.so (2013.1, Build901 2013/11/27)

>  <Rbt.Parameter_File>
/export/apps/rDock/src/rDock_2013.1_src/data/scripts/dock_solv.prm

>  <Rbt.Receptor>
prm/blind_docking_60.prm

>  <SCORE>
-20.4094

>  <SCORE.INTER>
-19.791

>  <SCORE.INTER.CONST>
1

>  <SCORE.INTER.POLAR>
0

>  <SCORE.INTER.ROT>
6

>  <SCORE.INTER.SOLV>
22.0033

>  <SCORE.INTER.VDW>
-28.1284

>  <SCORE.INTER.norm>
-0.824623

>  <SCORE.INTRA>
-0.620224

>  <SCORE.INTRA.DIHEDRAL>
12.2788

>  <SCORE.INTRA.DIHEDRAL.0>
4.94008

>  <SCORE.INTRA.POLAR>
0

>  <SCORE.INTRA.POLAR.0>
0

>  <SCORE.INTRA.REPUL>
0

>  <SCORE.INTRA.REPUL.0>
0

>  <SCORE.INTRA.SOLV>
0.481557

>  <SCORE.INTRA.SOLV.lig_0>
-31.4704

>  <SCORE.INTRA.VDW>
-7.00041

>  <SCORE.INTRA.VDW.0>
10.2807

>  <SCORE.INTRA.norm>
-0.0258427

>  <SCORE.RESTR>
0.00179925

>  <SCORE.RESTR.CAVITY>
0.00179925

>  <SCORE.RESTR.norm>
7.49686e-05

>  <SCORE.SYSTEM>
0

>  <SCORE.SYSTEM.CONST>
0

>  <SCORE.SYSTEM.DIHEDRAL>
0

>  <SCORE.SYSTEM.SOLV>
0

>  <SCORE.SYSTEM.norm>
0

>  <SCORE.heavy>
24

>  <SCORE.norm>
-0.850391

>  <RMSD>
1.548

$$$$
ligand
 OpenBabel11021811493D
libRbt.so/2013.1/901 2013/11/27
 24 26  0  0  0  0  0  0  0  0999 V2000
    6.9697  -10.5169  -12.4894 N   0  0  0  0  0  0  0  0  0  0  0  0
    6.6825  -10.7205  -13.9002 C   0  0  0  0  0  0  0  0  0  0  0  0
   13.8271   -7.2654  -12.9760 O   0  0  0  0  0  0  0  0  0  0  0  0
   12.6870   -6.5039  -12.7564 C   0  0  0  0  0  0  0  0  0  0  0  0
    9.0717   -4.3187  -12.1135 N   0  0  0  0  0  0  0  0  0  0  0  0
   12.7266   -4.9999  -12.8129 C   0  0  0  0  0  0  0  0  0  0  0  0
    8.9214   -6.5567  -11.9939 N   0  0  0  0  0  0  0  0  0  0  0  0
   11.5595   -4.1926  -12.6178 C   0  0  0  0  0  0  0  0  0  0  0  0
    6.8155   -5.2536  -11.6149 N   0  0  0  0  0  0  0  0  0  0  0  0
   10.3301   -4.8913  -12.3458 C   0  0  0  0  0  0  0  0  0  0  0  0
   12.0619  -11.5939  -11.9756 N   0  0  0  0  0  0  0  0  0  0  0  0
   10.2813   -6.3271  -12.2739 C   0  0  0  0  0  0  0  0  0  0  0  0
   11.5172   -7.1267  -12.4949 C   0  0  0  0  0  0  0  0  0  0  0  0
    8.2160   -5.3612  -11.9056 C   0  0  0  0  0  0  0  0  0  0  0  0
   11.4439   -8.6405  -12.4245 C   0  0  0  0  0  0  0  0  0  0  0  0
   12.7912   -9.3548  -12.4297 C   0  0  1  0  0  0  0  0  0  0  0  0
   13.9446   -8.4167  -12.2166 C   0  0  0  0  0  0  0  0  0  0  0  0
   12.7905  -10.4758  -11.4014 C   0  0  0  0  0  0  0  0  0  0  0  0
    8.3071   -7.8947  -11.8954 C   0  0  0  0  0  0  0  0  0  0  0  0
   12.9882  -12.3895  -12.7698 C   0  0  0  0  0  0  0  0  0  0  0  0
   11.5474  -12.3922  -10.8740 C   0  0  0  0  0  0  0  0  0  0  0  0
    6.9028   -8.0237  -12.5103 C   0  0  0  0  0  0  0  0  0  0  0  0
    6.2648   -9.3266  -11.9928 C   0  0  0  0  0  0  0  0  0  0  0  0
    6.5592  -11.7151  -11.7661 C   0  0  0  0  0  0  0  0  0  0  0  0
  1 23  1  0  0  0  0
  1 24  1  0  0  0  0
  1  2  1  0  0  0  0
  3  4  1  0  0  0  0
  3 17  1  0  0  0  0
  4  6  2  0  0  0  0
  4 13  1  0  0  0  0
  5 10  1  0  0  0  0
  5 14  2  0  0  0  0
  6  8  1  0  0  0  0
  7 12  1  0  0  0  0
  7 14  1  0  0  0  0
  7 19  1  0  0  0  0
  8 10  2  0  0  0  0
  9 14  1  0  0  0  0
 10 12  1  0  0  0  0
 11 18  1  0  0  0  0
 11 20  1  0  0  0  0
 11 21  1  0  0  0  0
 12 13  2  0  0  0  0
 13 15  1  0  0  0  0
 15 16  1  0  0  0  0
 16 17  1  0  0  0  0
 16 18  1  1  0  0  0
 19 22  1  0  0  0  0
 22 23  1  0  0  0  0
M  END
>  <CHROM.1>
-72.96704876,-140.33068596,86.10430010,78.14975134,-164.67792727,-66.43120063
10.18601218,-8.23728288,-12.26949660,2.57858916,0.01605347,-0.03211421

>  <Name>
ligand

>  <RI>
0

>  <Rbt.Current_Directory>
/home/itssahil/PROJECTS/Mol_Feturizer/New_Systems/rnas/3TZR

>  <Rbt.Executable>
rbdock ($Id: //depot/dev/client3/rdock/2013.1/src/exe/rbdock.cxx#4 $)

>  <Rbt.Library>
libRbt.so (2013.1, Build901 2013/11/27)

>  <Rbt.Parameter_File>
/export/apps/rDock/src/rDock_2013.1_src/data/scripts/dock_solv.prm

>  <Rbt.Receptor>
prm/pocket_docking_6.prm

>  <SCORE>
-29.2069

>  <SCORE.INTER>
-20.2479

>  <SCORE.INTER.CONST>
1

>  <SCORE.INTER.POLAR>
0

>  <SCORE.INTER.ROT>
6

>  <SCORE.INTER.SOLV>
21.6217

>  <SCORE.INTER.VDW>
-28.3058

>  <SCORE.INTER.norm>
-0.843662

>  <SCORE.INTRA>
-8.95901

>  <SCORE.INTRA.DIHEDRAL>
-0.318654

>  <SCORE.INTRA.DIHEDRAL.0>
4.94008

>  <SCORE.INTRA.POLAR>
0

>  <SCORE.INTRA.POLAR.0>
0

>  <SCORE.INTRA.REPUL>
0

>  <SCORE.INTRA.REPUL.0>
0

>  <SCORE.INTRA.SOLV>
1.57922

>  <SCORE.INTRA.SOLV.lig_0>
-31.4704

>  <SCORE.INTRA.VDW>
-9.58929

>  <SCORE.INTRA.VDW.0>
10.2807

>  <SCORE.INTRA.norm>
-0.373292

>  <SCORE.RESTR>
0

>  <SCORE.RESTR.CAVITY>
0

>  <SCORE.RESTR.norm>
0

>  <SCORE.SYSTEM>
0

>  <SCORE.SYSTEM.CONST>
0

>  <SCORE.SYSTEM.DIHEDRAL>
0

>  <SCORE.SYSTEM.SOLV>
0

>  <SCORE.SYSTEM.norm>
0

>  <SCORE.heavy>
24

>  <SCORE.norm>
-1.21695

>  <RMSD>
1.549

$$$$
ligand
 OpenBabel11021811493D
libRbt.so/2013.1/901 2013/11/27
 24 26  0  0  0  0  0  0  0  0999 V2000
    5.6587  -10.5985  -12.6561 N   0  0  0  0  0  0  0  0  0  0  0  0
    4.4485  -10.5740  -11.8503 C   0  0  0  0  0  0  0  0  0  0  0  0
   13.2099   -6.1752  -13.2504 O   0  0  0  0  0  0  0  0  0  0  0  0
   11.9722   -5.6837  -12.8575 C   0  0  0  0  0  0  0  0  0  0  0  0
    8.0905   -4.3496  -11.6695 N   0  0  0  0  0  0  0  0  0  0  0  0
   11.6696   -4.2091  -12.8871 C   0  0  0  0  0  0  0  0  0  0  0  0
    8.4577   -6.5637  -11.5776 N   0  0  0  0  0  0  0  0  0  0  0  0
   10.3921   -3.6793  -12.5137 C   0  0  0  0  0  0  0  0  0  0  0  0
    6.1906   -5.7570  -10.8805 N   0  0  0  0  0  0  0  0  0  0  0  0
    9.3988   -4.6308  -12.0875 C   0  0  0  0  0  0  0  0  0  0  0  0
   12.4204  -10.7265  -11.9772 N   0  0  0  0  0  0  0  0  0  0  0  0
    9.6797   -6.0407  -12.0399 C   0  0  0  0  0  0  0  0  0  0  0  0
   11.0181   -6.5480  -12.4484 C   0  0  0  0  0  0  0  0  0  0  0  0
    7.5249   -5.5539  -11.3662 C   0  0  0  0  0  0  0  0  0  0  0  0
   11.2924   -8.0395  -12.4006 C   0  0  0  0  0  0  0  0  0  0  0  0
   12.7499   -8.4367  -12.6092 C   0  0  1  0  0  0  0  0  0  0  0  0
   13.6853   -7.2636  -12.5395 C   0  0  0  0  0  0  0  0  0  0  0  0
   13.1423   -9.5190  -11.6149 C   0  0  0  0  0  0  0  0  0  0  0  0
    8.1750   -8.0036  -11.4226 C   0  0  0  0  0  0  0  0  0  0  0  0
   13.2064  -11.4562  -12.9629 C   0  0  0  0  0  0  0  0  0  0  0  0
   12.2765  -11.5279  -10.7719 C   0  0  0  0  0  0  0  0  0  0  0  0
    7.0445   -8.5539  -12.3092 C   0  0  0  0  0  0  0  0  0  0  0  0
    6.7815  -10.0172  -11.9066 C   0  0  0  0  0  0  0  0  0  0  0  0
    5.9293  -11.9835  -13.0248 C   0  0  0  0  0  0  0  0  0  0  0  0
  1 23  1  0  0  0  0
  1 24  1  0  0  0  0
  1  2  1  0  0  0  0
  3  4  1  0  0  0  0
  3 17  1  0  0  0  0
  4  6  2  0  0  0  0
  4 13  1  0  0  0  0
  5 10  1  0  0  0  0
  5 14  2  0  0  0  0
  6  8  1  0  0  0  0
  7 12  1  0  0  0  0
  7 14  1  0  0  0  0
  7 19  1  0  0  0  0
  8 10  2  0  0  0  0
  9 14  1  0  0  0  0
 10 12  1  0  0  0  0
 11 18  1  0  0  0  0
 11 20  1  0  0  0  0
 11 21  1  0  0  0  0
 12 13  2  0  0  0  0
 13 15  1  0  0  0  0
 15 16  1  0  0  0  0
 16 17  1  0  0  0  0
 16 18  1  1  0  0  0
 19 22  1  0  0  0  0
 22 23  1  0  0  0  0
M  END
>  <CHROM.1>
-99.37164929,-117.08934349,87.35147773,68.58948080,-173.71728440,176.75261311
9.74924150,-7.88877896,-12.14931265,-2.81746485,0.07087561,0.00717399

>  <Name>
ligand

>  <RI>
0

>  <Rbt.Current_Directory>
/home/itssahil/PROJECTS/Mol_Feturizer/New_Systems/rnas/3TZR

>  <Rbt.Executable>
rbdock ($Id: //depot/dev/client3/rdock/2013.1/src/exe/rbdock.cxx#4 $)

>  <Rbt.Library>
libRbt.so (2013.1, Build901 2013/11/27)

>  <Rbt.Parameter_File>
/export/apps/rDock/src/rDock_2013.1_src/data/scripts/dock_solv.prm

>  <Rbt.Receptor>
prm/pocket_docking_3.prm

>  <SCORE>
-34.3613

>  <SCORE.INTER>
-23.538

>  <SCORE.INTER.CONST>
1

>  <SCORE.INTER.POLAR>
0

>  <SCORE.INTER.ROT>
6

>  <SCORE.INTER.SOLV>
21.0179

>  <SCORE.INTER.VDW>
-30.298

>  <SCORE.INTER.norm>
-0.980752

>  <SCORE.INTRA>
-10.8233

>  <SCORE.INTRA.DIHEDRAL>
-0.483956

>  <SCORE.INTRA.DIHEDRAL.0>
4.94008

>  <SCORE.INTRA.POLAR>
0

>  <SCORE.INTRA.POLAR.0>
0

>  <SCORE.INTRA.REPUL>
0

>  <SCORE.INTRA.REPUL.0>
0

>  <SCORE.INTRA.SOLV>
0.73639

>  <SCORE.INTRA.SOLV.lig_0>
-31.4704

>  <SCORE.INTRA.VDW>
-10.9495

>  <SCORE.INTRA.VDW.0>
10.2807

>  <SCORE.INTRA.norm>
-0.450971

>  <SCORE.RESTR>
0

>  <SCORE.RESTR.CAVITY>
0

>  <SCORE.RESTR.norm>
0

>  <SCORE.SYSTEM>
0

>  <SCORE.SYSTEM.CONST>
0

>  <SCORE.SYSTEM.DIHEDRAL>
0

>  <SCORE.SYSTEM.SOLV>
0

>  <SCORE.SYSTEM.norm>
0

>  <SCORE.heavy>
24

>  <SCORE.norm>
-1.43172

>  <RMSD>
1.550

$$$$
ligand
 OpenBabel11021811493D
libRbt.so/2013.1/901 2013/11/27
 24 26  0  0  0  0  0  0  0  0999 V2000
    5.6221  -10.5981  -12.7629 N   0  0  0  0  0  0  0  0  0  0  0  0
    4.4726  -10.6140  -11.8725 C   0  0  0  0  0  0  0  0  0  0  0  0
   13.2404   -6.2674  -13.2125 O   0  0  0  0  0  0  0  0  0  0  0  0
   12.0077   -5.7671  -12.8151 C   0  0  0  0  0  0  0  0  0  0  0  0
    8.1389   -4.4037  -11.6184 N   0  0  0  0  0  0  0  0  0  0  0  0
   11.7280   -4.2877  -12.8085 C   0  0  0  0  0  0  0  0  0  0  0  0
    8.4713   -6.6249  -11.5813 N   0  0  0  0  0  0  0  0  0  0  0  0
   10.4562   -3.7478  -12.4299 C   0  0  0  0  0  0  0  0  0  0  0  0
    6.2121   -5.8013  -10.8784 N   0  0  0  0  0  0  0  0  0  0  0  0
    9.4455   -4.6944  -12.0349 C   0  0  0  0  0  0  0  0  0  0  0  0
   12.4184  -10.8526  -12.0979 N   0  0  0  0  0  0  0  0  0  0  0  0
    9.7043   -6.1092  -12.0219 C   0  0  0  0  0  0  0  0  0  0  0  0
   11.0376   -6.6266  -12.4347 C   0  0  0  0  0  0  0  0  0  0  0  0
    7.5527   -5.6065  -11.3500 C   0  0  0  0  0  0  0  0  0  0  0  0
   11.2886   -8.1230  -12.4236 C   0  0  0  0  0  0  0  0  0  0  0  0
   12.7412   -8.5373  -12.6329 C   0  0  1  0  0  0  0  0  0  0  0  0
   13.6940   -7.3811  -12.5269 C   0  0  0  0  0  0  0  0  0  0  0  0
   13.1101   -9.6508  -11.6644 C   0  0  0  0  0  0  0  0  0  0  0  0
    8.1655   -8.0638  -11.4655 C   0  0  0  0  0  0  0  0  0  0  0  0
   13.2399  -11.5233  -13.0965 C   0  0  0  0  0  0  0  0  0  0  0  0
   12.2613  -11.7103  -10.9337 C   0  0  0  0  0  0  0  0  0  0  0  0
    7.0025   -8.5643  -12.3394 C   0  0  0  0  0  0  0  0  0  0  0  0
    6.8005  -10.0661  -12.0638 C   0  0  0  0  0  0  0  0  0  0  0  0
    5.8534  -11.9609  -13.2283 C   0  0  0  0  0  0  0  0  0  0  0  0
  1 23  1  0  0  0  0
  1 24  1  0  0  0  0
  1  2  1  0  0  0  0
  3  4  1  0  0  0  0
  3 17  1  0  0  0  0
  4  6  2  0  0  0  0
  4 13  1  0  0  0  0
  5 10  1  0  0  0  0
  5 14  2  0  0  0  0
  6  8  1  0  0  0  0
  7 12  1  0  0  0  0
  7 14  1  0  0  0  0
  7 19  1  0  0  0  0
  8 10  2  0  0  0  0
  9 14  1  0  0  0  0
 10 12  1  0  0  0  0
 11 18  1  0  0  0  0
 11 20  1  0  0  0  0
 11 21  1  0  0  0  0
 12 13  2  0  0  0  0
 13 15  1  0  0  0  0
 15 16  1  0  0  0  0
 16 17  1  0  0  0  0
 16 18  1  1  0  0  0
 19 22  1  0  0  0  0
 22 23  1  0  0  0  0
M  END
>  <CHROM.1>
-96.24497874,-119.00036617,86.33640808,71.07989250,-178.45250318,174.48974152
9.75834662,-7.95923752,-12.18118876,-2.84189414,0.06804735,0.03590288

>  <Name>
ligand

>  <RI>
0

>  <Rbt.Current_Directory>
/home/itssahil/PROJECTS/Mol_Feturizer/New_Systems/rnas/3TZR

>  <Rbt.Executable>
rbdock ($Id: //depot/dev/client3/rdock/2013.1/src/exe/rbdock.cxx#4 $)

>  <Rbt.Library>
libRbt.so (2013.1, Build901 2013/11/27)

>  <Rbt.Parameter_File>
/export/apps/rDock/src/rDock_2013.1_src/data/scripts/dock_solv.prm

>  <Rbt.Receptor>
prm/blind_docking_80.prm

>  <SCORE>
-34.5178

>  <SCORE.INTER>
-23.6858

>  <SCORE.INTER.CONST>
1

>  <SCORE.INTER.POLAR>
0

>  <SCORE.INTER.ROT>
6

>  <SCORE.INTER.SOLV>
20.9239

>  <SCORE.INTER.VDW>
-30.3652

>  <SCORE.INTER.norm>
-0.986909

>  <SCORE.INTRA>
-10.832

>  <SCORE.INTRA.DIHEDRAL>
-0.617628

>  <SCORE.INTRA.DIHEDRAL.0>
4.94008

>  <SCORE.INTRA.POLAR>
0

>  <SCORE.INTRA.POLAR.0>
0

>  <SCORE.INTRA.REPUL>
0

>  <SCORE.INTRA.REPUL.0>
0

>  <SCORE.INTRA.SOLV>
0.723772

>  <SCORE.INTRA.SOLV.lig_0>
-31.4704

>  <SCORE.INTRA.VDW>
-10.8851

>  <SCORE.INTRA.VDW.0>
10.2807

>  <SCORE.INTRA.norm>
-0.451334

>  <SCORE.RESTR>
0

>  <SCORE.RESTR.CAVITY>
0

>  <SCORE.RESTR.norm>
0

>  <SCORE.SYSTEM>
0

>  <SCORE.SYSTEM.CONST>
0

>  <SCORE.SYSTEM.DIHEDRAL>
0

>  <SCORE.SYSTEM.SOLV>
0

>  <SCORE.SYSTEM.norm>
0

>  <SCORE.heavy>
24

>  <SCORE.norm>
-1.43824

>  <RMSD>
1.554

$$$$
ligand
 OpenBabel11021811493D
libRbt.so/2013.1/901 2013/11/27
 24 26  0  0  0  0  0  0  0  0999 V2000
    5.5633  -10.5611  -12.7544 N   0  0  0  0  0  0  0  0  0  0  0  0
    4.4297  -10.6323  -11.8465 C   0  0  0  0  0  0  0  0  0  0  0  0
   13.2468   -6.3340  -13.1760 O   0  0  0  0  0  0  0  0  0  0  0  0
   12.0180   -5.8166  -12.7885 C   0  0  0  0  0  0  0  0  0  0  0  0
    8.1590   -4.4001  -11.6220 N   0  0  0  0  0  0  0  0  0  0  0  0
   11.7570   -4.3338  -12.7888 C   0  0  0  0  0  0  0  0  0  0  0  0
    8.4629   -6.6252  -11.5751 N   0  0  0  0  0  0  0  0  0  0  0  0
   10.4898   -3.7765  -12.4204 C   0  0  0  0  0  0  0  0  0  0  0  0
    6.2098   -5.7705  -10.8900 N   0  0  0  0  0  0  0  0  0  0  0  0
    9.4646   -4.7088  -12.0289 C   0  0  0  0  0  0  0  0  0  0  0  0
   12.3273  -10.8936  -12.0273 N   0  0  0  0  0  0  0  0  0  0  0  0
    9.7053   -6.1268  -12.0094 C   0  0  0  0  0  0  0  0  0  0  0  0
   11.0346   -6.6625  -12.4115 C   0  0  0  0  0  0  0  0  0  0  0  0
    7.5559   -5.5944  -11.3533 C   0  0  0  0  0  0  0  0  0  0  0  0
   11.2664   -8.1618  -12.3938 C   0  0  0  0  0  0  0  0  0  0  0  0
   12.7149   -8.5953  -12.5920 C   0  0  1  0  0  0  0  0  0  0  0  0
   13.6817   -7.4509  -12.4836 C   0  0  0  0  0  0  0  0  0  0  0  0
   13.0633   -9.7100  -11.6173 C   0  0  0  0  0  0  0  0  0  0  0  0
    8.1380   -8.0597  -11.4564 C   0  0  0  0  0  0  0  0  0  0  0  0
   13.1426  -11.6381  -12.9775 C   0  0  0  0  0  0  0  0  0  0  0  0
   12.0983  -11.6994  -10.8384 C   0  0  0  0  0  0  0  0  0  0  0  0
    6.9810   -8.5505  -12.3437 C   0  0  0  0  0  0  0  0  0  0  0  0
    6.7467  -10.0446  -12.0520 C   0  0  0  0  0  0  0  0  0  0  0  0
    5.8043  -11.8987  -13.2838 C   0  0  0  0  0  0  0  0  0  0  0  0
  1 23  1  0  0  0  0
  1 24  1  0  0  0  0
  1  2  1  0  0  0  0
  3  4  1  0  0  0  0
  3 17  1  0  0  0  0
  4  6  2  0  0  0  0
  4 13  1  0  0  0  0
  5 10  1  0  0  0  0
  5 14  2  0  0  0  0
  6  8  1  0  0  0  0
  7 12  1  0  0  0  0
  7 14  1  0  0  0  0
  7 19  1  0  0  0  0
  8 10  2  0  0  0  0
  9 14  1  0  0  0  0
 10 12  1  0  0  0  0
 11 18  1  0  0  0  0
 11 20  1  0  0  0  0
 11 21  1  0  0  0  0
 12 13  2  0  0  0  0
 13 15  1  0  0  0  0
 15 16  1  0  0  0  0
 16 17  1  0  0  0  0
 16 18  1  1  0  0  0
 19 22  1  0  0  0  0
 22 23  1  0  0  0  0
M  END
>  <CHROM.1>
-100.26630289,-118.58667032,89.34286019,69.36938770,-177.82565247,173.95590079
9.73095408,-7.97837128,-12.15697493,-2.83683040,0.05940652,0.03128678

>  <Name>
ligand

>  <RI>
0

>  <Rbt.Current_Directory>
/home/itssahil/PROJECTS/Mol_Feturizer/New_Systems/rnas/3TZR

>  <Rbt.Executable>
rbdock ($Id: //depot/dev/client3/rdock/2013.1/src/exe/rbdock.cxx#4 $)

>  <Rbt.Library>
libRbt.so (2013.1, Build901 2013/11/27)

>  <Rbt.Parameter_File>
/export/apps/rDock/src/rDock_2013.1_src/data/scripts/dock_solv.prm

>  <Rbt.Receptor>
prm/pocket_docking_4.prm

>  <SCORE>
-34.5401

>  <SCORE.INTER>
-23.7209

>  <SCORE.INTER.CONST>
1

>  <SCORE.INTER.POLAR>
0

>  <SCORE.INTER.ROT>
6

>  <SCORE.INTER.SOLV>
20.9318

>  <SCORE.INTER.VDW>
-30.3912

>  <SCORE.INTER.norm>
-0.988369

>  <SCORE.INTRA>
-10.8193

>  <SCORE.INTRA.DIHEDRAL>
-0.287291

>  <SCORE.INTRA.DIHEDRAL.0>
4.94008

>  <SCORE.INTRA.POLAR>
0

>  <SCORE.INTRA.POLAR.0>
0

>  <SCORE.INTRA.REPUL>
0

>  <SCORE.INTRA.REPUL.0>
0

>  <SCORE.INTRA.SOLV>
0.722828

>  <SCORE.INTRA.SOLV.lig_0>
-31.4704

>  <SCORE.INTRA.VDW>
-11.037

>  <SCORE.INTRA.VDW.0>
10.2807

>  <SCORE.INTRA.norm>
-0.450803

>  <SCORE.RESTR>
0

>  <SCORE.RESTR.CAVITY>
0

>  <SCORE.RESTR.norm>
0

>  <SCORE.SYSTEM>
0

>  <SCORE.SYSTEM.CONST>
0

>  <SCORE.SYSTEM.DIHEDRAL>
0

>  <SCORE.SYSTEM.SOLV>
0

>  <SCORE.SYSTEM.norm>
0

>  <SCORE.heavy>
24

>  <SCORE.norm>
-1.43917

>  <RMSD>
1.556

$$$$
ligand
 OpenBabel11021811493D
libRbt.so/2013.1/901 2013/11/27
 24 26  0  0  0  0  0  0  0  0999 V2000
    5.6240  -10.5983  -12.7598 N   0  0  0  0  0  0  0  0  0  0  0  0
    4.4491  -10.5952  -11.9031 C   0  0  0  0  0  0  0  0  0  0  0  0
   13.2409   -6.3047  -13.2096 O   0  0  0  0  0  0  0  0  0  0  0  0
   12.0108   -5.7946  -12.8165 C   0  0  0  0  0  0  0  0  0  0  0  0
    8.1492   -4.4010  -11.6313 N   0  0  0  0  0  0  0  0  0  0  0  0
   11.7389   -4.3137  -12.8222 C   0  0  0  0  0  0  0  0  0  0  0  0
    8.4699   -6.6235  -11.5758 N   0  0  0  0  0  0  0  0  0  0  0  0
   10.4700   -3.7641  -12.4481 C   0  0  0  0  0  0  0  0  0  0  0  0
    6.2150   -5.7823  -10.8799 N   0  0  0  0  0  0  0  0  0  0  0  0
    9.4543   -4.7020  -12.0454 C   0  0  0  0  0  0  0  0  0  0  0  0
   12.3310  -10.8535  -12.0078 N   0  0  0  0  0  0  0  0  0  0  0  0
    9.7057   -6.1180  -12.0206 C   0  0  0  0  0  0  0  0  0  0  0  0
   11.0362   -6.6458  -12.4290 C   0  0  0  0  0  0  0  0  0  0  0  0
    7.5567   -5.5984  -11.3530 C   0  0  0  0  0  0  0  0  0  0  0  0
   11.2793   -8.1433  -12.4055 C   0  0  0  0  0  0  0  0  0  0  0  0
   12.7297   -8.5670  -12.6113 C   0  0  1  0  0  0  0  0  0  0  0  0
   13.6886   -7.4150  -12.5148 C   0  0  0  0  0  0  0  0  0  0  0  0
   13.0927   -9.6744  -11.6335 C   0  0  0  0  0  0  0  0  0  0  0  0
    8.1565   -8.0598  -11.4481 C   0  0  0  0  0  0  0  0  0  0  0  0
   13.1185  -11.6302  -12.9557 C   0  0  0  0  0  0  0  0  0  0  0  0
   12.1084  -11.6317  -10.7994 C   0  0  0  0  0  0  0  0  0  0  0  0
    7.0085   -8.5670  -12.3379 C   0  0  0  0  0  0  0  0  0  0  0  0
    6.7841  -10.0604  -12.0352 C   0  0  0  0  0  0  0  0  0  0  0  0
    5.8623  -11.9693  -13.1969 C   0  0  0  0  0  0  0  0  0  0  0  0
  1 23  1  0  0  0  0
  1 24  1  0  0  0  0
  1  2  1  0  0  0  0
  3  4  1  0  0  0  0
  3 17  1  0  0  0  0
  4  6  2  0  0  0  0
  4 13  1  0  0  0  0
  5 10  1  0  0  0  0
  5 14  2  0  0  0  0
  6  8  1  0  0  0  0
  7 12  1  0  0  0  0
  7 14  1  0  0  0  0
  7 19  1  0  0  0  0
  8 10  2  0  0  0  0
  9 14  1  0  0  0  0
 10 12  1  0  0  0  0
 11 18  1  0  0  0  0
 11 20  1  0  0  0  0
 11 21  1  0  0  0  0
 12 13  2  0  0  0  0
 13 15  1  0  0  0  0
 15 16  1  0  0  0  0
 16 17  1  0  0  0  0
 16 18  1  1  0  0  0
 19 22  1  0  0  0  0
 22 23  1  0  0  0  0
M  END
>  <CHROM.1>
-96.74678205,-117.87908751,90.23966646,67.62141252,-177.76558610,175.03154691
9.74077225,-7.96871792,-12.16071065,-2.81882116,0.06199050,0.02602530

>  <Name>
ligand

>  <RI>
0

>  <Rbt.Current_Directory>
/home/itssahil/PROJECTS/Mol_Feturizer/New_Systems/rnas/3TZR

>  <Rbt.Executable>
rbdock ($Id: //depot/dev/client3/rdock/2013.1/src/exe/rbdock.cxx#4 $)

>  <Rbt.Library>
libRbt.so (2013.1, Build901 2013/11/27)

>  <Rbt.Parameter_File>
/export/apps/rDock/src/rDock_2013.1_src/data/scripts/dock_solv.prm

>  <Rbt.Receptor>
prm/pocket_docking_6.prm

>  <SCORE>
-34.5121

>  <SCORE.INTER>
-23.5823

>  <SCORE.INTER.CONST>
1

>  <SCORE.INTER.POLAR>
0

>  <SCORE.INTER.ROT>
6

>  <SCORE.INTER.SOLV>
20.8877

>  <SCORE.INTER.VDW>
-30.2841

>  <SCORE.INTER.norm>
-0.982596

>  <SCORE.INTRA>
-10.9298

>  <SCORE.INTRA.DIHEDRAL>
-0.576501

>  <SCORE.INTRA.DIHEDRAL.0>
4.94008

>  <SCORE.INTRA.POLAR>
0

>  <SCORE.INTRA.POLAR.0>
0

>  <SCORE.INTRA.REPUL>
0

>  <SCORE.INTRA.REPUL.0>
0

>  <SCORE.INTRA.SOLV>
0.705872

>  <SCORE.INTRA.SOLV.lig_0>
-31.4704

>  <SCORE.INTRA.VDW>
-10.9945

>  <SCORE.INTRA.VDW.0>
10.2807

>  <SCORE.INTRA.norm>
-0.455408

>  <SCORE.RESTR>
0

>  <SCORE.RESTR.CAVITY>
0

>  <SCORE.RESTR.norm>
0

>  <SCORE.SYSTEM>
0

>  <SCORE.SYSTEM.CONST>
0

>  <SCORE.SYSTEM.DIHEDRAL>
0

>  <SCORE.SYSTEM.SOLV>
0

>  <SCORE.SYSTEM.norm>
0

>  <SCORE.heavy>
24

>  <SCORE.norm>
-1.438

>  <RMSD>
1.556

$$$$
ligand
 OpenBabel11021811493D
libRbt.so/2013.1/901 2013/11/27
 24 26  0  0  0  0  0  0  0  0999 V2000
    5.5617  -10.5567  -12.7181 N   0  0  0  0  0  0  0  0  0  0  0  0
    4.3960  -10.6633  -11.8556 C   0  0  0  0  0  0  0  0  0  0  0  0
   13.2414   -6.3207  -13.2108 O   0  0  0  0  0  0  0  0  0  0  0  0
   12.0143   -5.8049  -12.8160 C   0  0  0  0  0  0  0  0  0  0  0  0
    8.1608   -4.3933  -11.6257 N   0  0  0  0  0  0  0  0  0  0  0  0
   11.7498   -4.3227  -12.8199 C   0  0  0  0  0  0  0  0  0  0  0  0
    8.4705   -6.6175  -11.5729 N   0  0  0  0  0  0  0  0  0  0  0  0
   10.4840   -3.7671  -12.4440 C   0  0  0  0  0  0  0  0  0  0  0  0
    6.2205   -5.7657  -10.8740 N   0  0  0  0  0  0  0  0  0  0  0  0
    9.4640   -4.7003  -12.0413 C   0  0  0  0  0  0  0  0  0  0  0  0
   12.3044  -10.8641  -12.0087 N   0  0  0  0  0  0  0  0  0  0  0  0
    9.7083   -6.1177  -12.0184 C   0  0  0  0  0  0  0  0  0  0  0  0
   11.0358   -6.6517  -12.4285 C   0  0  0  0  0  0  0  0  0  0  0  0
    7.5626   -5.5880  -11.3481 C   0  0  0  0  0  0  0  0  0  0  0  0
   11.2714   -8.1504  -12.4069 C   0  0  0  0  0  0  0  0  0  0  0  0
   12.7195   -8.5811  -12.6145 C   0  0  1  0  0  0  0  0  0  0  0  0
   13.6842   -7.4340  -12.5176 C   0  0  0  0  0  0  0  0  0  0  0  0
   13.0778   -9.6914  -11.6383 C   0  0  0  0  0  0  0  0  0  0  0  0
    8.1500   -8.0522  -11.4464 C   0  0  0  0  0  0  0  0  0  0  0  0
   13.1033  -11.6761  -12.9165 C   0  0  0  0  0  0  0  0  0  0  0  0
   12.0328  -11.6110  -10.7905 C   0  0  0  0  0  0  0  0  0  0  0  0
    6.9905   -8.5501  -12.3265 C   0  0  0  0  0  0  0  0  0  0  0  0
    6.7046  -10.0199  -11.9657 C   0  0  0  0  0  0  0  0  0  0  0  0
    5.8544  -11.8829  -13.2501 C   0  0  0  0  0  0  0  0  0  0  0  0
  1 23  1  0  0  0  0
  1 24  1  0  0  0  0
  1  2  1  0  0  0  0
  3  4  1  0  0  0  0
  3 17  1  0  0  0  0
  4  6  2  0  0  0  0
  4 13  1  0  0  0  0
  5 10  1  0  0  0  0
  5 14  2  0  0  0  0
  6  8  1  0  0  0  0
  7 12  1  0  0  0  0
  7 14  1  0  0  0  0
  7 19  1  0  0  0  0
  8 10  2  0  0  0  0
  9 14  1  0  0  0  0
 10 12  1  0  0  0  0
 11 18  1  0  0  0  0
 11 20  1  0  0  0  0
 11 21  1  0  0  0  0
 12 13  2  0  0  0  0
 13 15  1  0  0  0  0
 15 16  1  0  0  0  0
 16 17  1  0  0  0  0
 16 18  1  1  0  0  0
 19 22  1  0  0  0  0
 22 23  1  0  0  0  0
M  END
>  <CHROM.1>
-105.22121064,-118.39704279,92.59573762,67.31627306,-174.41620619,177.21929630
9.72646340,-7.96740891,-12.15275862,-2.82179577,0.06417294,0.02464880

>  <Name>
ligand

>  <RI>
0

>  <Rbt.Current_Directory>
/home/itssahil/PROJECTS/Mol_Feturizer/New_Systems/rnas/3TZR

>  <Rbt.Executable>
rbdock ($Id: //depot/dev/client3/rdock/2013.1/src/exe/rbdock.cxx#4 $)

>  <Rbt.Library>
libRbt.so (2013.1, Build901 2013/11/27)

>  <Rbt.Parameter_File>
/export/apps/rDock/src/rDock_2013.1_src/data/scripts/dock_solv.prm

>  <Rbt.Receptor>
prm/blind_docking_80.prm

>  <SCORE>
-34.5294

>  <SCORE.INTER>
-23.7571

>  <SCORE.INTER.CONST>
1

>  <SCORE.INTER.POLAR>
0

>  <SCORE.INTER.ROT>
6

>  <SCORE.INTER.SOLV>
20.8985

>  <SCORE.INTER.VDW>
-30.4043

>  <SCORE.INTER.norm>
-0.989881

>  <SCORE.INTRA>
-10.7722

>  <SCORE.INTRA.DIHEDRAL>
0.0379787

>  <SCORE.INTRA.DIHEDRAL.0>
4.94008

>  <SCORE.INTRA.POLAR>
0

>  <SCORE.INTRA.POLAR.0>
0

>  <SCORE.INTRA.REPUL>
0

>  <SCORE.INTRA.REPUL.0>
0

>  <SCORE.INTRA.SOLV>
0.765421

>  <SCORE.INTRA.SOLV.lig_0>
-31.4704

>  <SCORE.INTRA.VDW>
-11.1739

>  <SCORE.INTRA.VDW.0>
10.2807

>  <SCORE.INTRA.norm>
-0.448843

>  <SCORE.RESTR>
0

>  <SCORE.RESTR.CAVITY>
0

>  <SCORE.RESTR.norm>
0

>  <SCORE.SYSTEM>
0

>  <SCORE.SYSTEM.CONST>
0

>  <SCORE.SYSTEM.DIHEDRAL>
0

>  <SCORE.SYSTEM.SOLV>
0

>  <SCORE.SYSTEM.norm>
0

>  <SCORE.heavy>
24

>  <SCORE.norm>
-1.43872

>  <RMSD>
1.557

$$$$
ligand
 OpenBabel11021811493D
libRbt.so/2013.1/901 2013/11/27
 24 26  0  0  0  0  0  0  0  0999 V2000
    5.5956  -10.5572  -12.7383 N   0  0  0  0  0  0  0  0  0  0  0  0
    4.4568  -10.6402  -11.8379 C   0  0  0  0  0  0  0  0  0  0  0  0
   13.2523   -6.3101  -13.2233 O   0  0  0  0  0  0  0  0  0  0  0  0
   12.0269   -5.7950  -12.8222 C   0  0  0  0  0  0  0  0  0  0  0  0
    8.1785   -4.3857  -11.6127 N   0  0  0  0  0  0  0  0  0  0  0  0
   11.7633   -4.3126  -12.8190 C   0  0  0  0  0  0  0  0  0  0  0  0
    8.4869   -6.6103  -11.5700 N   0  0  0  0  0  0  0  0  0  0  0  0
   10.4993   -3.7578  -12.4365 C   0  0  0  0  0  0  0  0  0  0  0  0
    6.2399   -5.7599  -10.8598 N   0  0  0  0  0  0  0  0  0  0  0  0
    9.4801   -4.6920  -12.0341 C   0  0  0  0  0  0  0  0  0  0  0  0
   12.3398  -10.8667  -12.0554 N   0  0  0  0  0  0  0  0  0  0  0  0
    9.7235   -6.1095  -12.0178 C   0  0  0  0  0  0  0  0  0  0  0  0
   11.0492   -6.6427  -12.4347 C   0  0  0  0  0  0  0  0  0  0  0  0
    7.5805   -5.5812  -11.3379 C   0  0  0  0  0  0  0  0  0  0  0  0
   11.2839   -8.1417  -12.4200 C   0  0  0  0  0  0  0  0  0  0  0  0
   12.7309   -8.5725  -12.6344 C   0  0  1  0  0  0  0  0  0  0  0  0
   13.6967   -7.4264  -12.5362 C   0  0  0  0  0  0  0  0  0  0  0  0
   13.0919   -9.6870  -11.6640 C   0  0  0  0  0  0  0  0  0  0  0  0
    8.1658   -8.0454  -11.4483 C   0  0  0  0  0  0  0  0  0  0  0  0
   13.1501  -11.6439  -12.9834 C   0  0  0  0  0  0  0  0  0  0  0  0
   12.0884  -11.6438  -10.8520 C   0  0  0  0  0  0  0  0  0  0  0  0
    6.9979   -8.5373  -12.3205 C   0  0  0  0  0  0  0  0  0  0  0  0
    6.7699  -10.0320  -12.0272 C   0  0  0  0  0  0  0  0  0  0  0  0
    5.8515  -11.8915  -13.2690 C   0  0  0  0  0  0  0  0  0  0  0  0
  1 23  1  0  0  0  0
  1 24  1  0  0  0  0
  1  2  1  0  0  0  0
  3  4  1  0  0  0  0
  3 17  1  0  0  0  0
  4  6  2  0  0  0  0
  4 13  1  0  0  0  0
  5 10  1  0  0  0  0
  5 14  2  0  0  0  0
  6  8  1  0  0  0  0
  7 12  1  0  0  0  0
  7 14  1  0  0  0  0
  7 19  1  0  0  0  0
  8 10  2  0  0  0  0
  9 14  1  0  0  0  0
 10 12  1  0  0  0  0
 11 18  1  0  0  0  0
 11 20  1  0  0  0  0
 11 21  1  0  0  0  0
 12 13  2  0  0  0  0
 13 15  1  0  0  0  0
 15 16  1  0  0  0  0
 16 17  1  0  0  0  0
 16 18  1  1  0  0  0
 19 22  1  0  0  0  0
 22 23  1  0  0  0  0
M  END
>  <CHROM.1>
-100.59043278,-118.72402688,91.35587321,68.61558012,-177.83366933,175.24435259
9.74933460,-7.96168472,-12.16610022,-2.82647915,0.06807287,0.03154520

>  <Name>
ligand

>  <RI>
0

>  <Rbt.Current_Directory>
/home/itssahil/PROJECTS/Mol_Feturizer/New_Systems/rnas/3TZR

>  <Rbt.Executable>
rbdock ($Id: //depot/dev/client3/rdock/2013.1/src/exe/rbdock.cxx#4 $)

>  <Rbt.Library>
libRbt.so (2013.1, Build901 2013/11/27)

>  <Rbt.Parameter_File>
/export/apps/rDock/src/rDock_2013.1_src/data/scripts/dock_solv.prm

>  <Rbt.Receptor>
prm/pocket_docking_4.prm

>  <SCORE>
-34.5038

>  <SCORE.INTER>
-23.6492

>  <SCORE.INTER.CONST>
1

>  <SCORE.INTER.POLAR>
0

>  <SCORE.INTER.ROT>
6

>  <SCORE.INTER.SOLV>
21.0104

>  <SCORE.INTER.VDW>
-30.3696

>  <SCORE.INTER.norm>
-0.985384

>  <SCORE.INTRA>
-10.8546

>  <SCORE.INTRA.DIHEDRAL>
-0.239269

>  <SCORE.INTRA.DIHEDRAL.0>
4.94008

>  <SCORE.INTRA.POLAR>
0

>  <SCORE.INTRA.POLAR.0>
0

>  <SCORE.INTRA.REPUL>
0

>  <SCORE.INTRA.REPUL.0>
0

>  <SCORE.INTRA.SOLV>
0.727506

>  <SCORE.INTRA.SOLV.lig_0>
-31.4704

>  <SCORE.INTRA.VDW>
-11.0987

>  <SCORE.INTRA.VDW.0>
10.2807

>  <SCORE.INTRA.norm>
-0.452276

>  <SCORE.RESTR>
0

>  <SCORE.RESTR.CAVITY>
0

>  <SCORE.RESTR.norm>
0

>  <SCORE.SYSTEM>
0

>  <SCORE.SYSTEM.CONST>
0

>  <SCORE.SYSTEM.DIHEDRAL>
0

>  <SCORE.SYSTEM.SOLV>
0

>  <SCORE.SYSTEM.norm>
0

>  <SCORE.heavy>
24

>  <SCORE.norm>
-1.43766

>  <RMSD>
1.559

$$$$
ligand
 OpenBabel11021811493D
libRbt.so/2013.1/901 2013/11/27
 24 26  0  0  0  0  0  0  0  0999 V2000
    5.6004  -10.5699  -12.7839 N   0  0  0  0  0  0  0  0  0  0  0  0
    4.4735  -10.6577  -11.8693 C   0  0  0  0  0  0  0  0  0  0  0  0
   13.2794   -6.3082  -13.1965 O   0  0  0  0  0  0  0  0  0  0  0  0
   12.0477   -5.7982  -12.8082 C   0  0  0  0  0  0  0  0  0  0  0  0
    8.1809   -4.4045  -11.6401 N   0  0  0  0  0  0  0  0  0  0  0  0
   11.7801   -4.3165  -12.8018 C   0  0  0  0  0  0  0  0  0  0  0  0
    8.4948   -6.6284  -11.6034 N   0  0  0  0  0  0  0  0  0  0  0  0
   10.5100   -3.7667  -12.4324 C   0  0  0  0  0  0  0  0  0  0  0  0
    6.2369   -5.7871  -10.9173 N   0  0  0  0  0  0  0  0  0  0  0  0
    9.4884   -4.7054  -12.0467 C   0  0  0  0  0  0  0  0  0  0  0  0
   12.4174  -10.8899  -12.0995 N   0  0  0  0  0  0  0  0  0  0  0  0
    9.7354   -6.1224  -12.0337 C   0  0  0  0  0  0  0  0  0  0  0  0
   11.0676   -6.6502  -12.4366 C   0  0  0  0  0  0  0  0  0  0  0  0
    7.5828   -5.6028  -11.3780 C   0  0  0  0  0  0  0  0  0  0  0  0
   11.3062   -8.1486  -12.4256 C   0  0  0  0  0  0  0  0  0  0  0  0
   12.7569   -8.5746  -12.6240 C   0  0  1  0  0  0  0  0  0  0  0  0
   13.7184   -7.4264  -12.5089 C   0  0  0  0  0  0  0  0  0  0  0  0
   13.1089   -9.6924  -11.6541 C   0  0  0  0  0  0  0  0  0  0  0  0
    8.1762   -8.0649  -11.4920 C   0  0  0  0  0  0  0  0  0  0  0  0
   13.2915  -11.6157  -13.0111 C   0  0  0  0  0  0  0  0  0  0  0  0
   12.1496  -11.7027  -10.9234 C   0  0  0  0  0  0  0  0  0  0  0  0
    6.9973   -8.5488  -12.3539 C   0  0  0  0  0  0  0  0  0  0  0  0
    6.7844  -10.0503  -12.0850 C   0  0  0  0  0  0  0  0  0  0  0  0
    5.8480  -11.9009  -13.3266 C   0  0  0  0  0  0  0  0  0  0  0  0
  1 23  1  0  0  0  0
  1 24  1  0  0  0  0
  1  2  1  0  0  0  0
  3  4  1  0  0  0  0
  3 17  1  0  0  0  0
  4  6  2  0  0  0  0
  4 13  1  0  0  0  0
  5 10  1  0  0  0  0
  5 14  2  0  0  0  0
  6  8  1  0  0  0  0
  7 12  1  0  0  0  0
  7 14  1  0  0  0  0
  7 19  1  0  0  0  0
  8 10  2  0  0  0  0
  9 14  1  0  0  0  0
 10 12  1  0  0  0  0
 11 18  1  0  0  0  0
 11 20  1  0  0  0  0
 11 21  1  0  0  0  0
 12 13  2  0  0  0  0
 13 15  1  0  0  0  0
 15 16  1  0  0  0  0
 16 17  1  0  0  0  0
 16 18  1  1  0  0  0
 19 22  1  0  0  0  0
 22 23  1  0  0  0  0
M  END
>  <CHROM.1>
-99.69436579,-120.21413879,90.68699305,71.42706332,-178.48154461,175.11879920
9.77236803,-7.97385381,-12.18760739,-2.84615483,0.06097190,0.03515906

>  <Name>
ligand

>  <RI>
144

>  <Rbt.Current_Directory>
/home/itssahil/PROJECTS/Mol_Feturizer/New_Systems/rnas/3TZR

>  <Rbt.Executable>
rbdock ($Id: //depot/dev/client3/rdock/2013.1/src/exe/rbdock.cxx#4 $)

>  <Rbt.Library>
libRbt.so (2013.1, Build901 2013/11/27)

>  <Rbt.Parameter_File>
/export/apps/rDock/src/rDock_2013.1_src/data/scripts/dock_solv.prm

>  <Rbt.Receptor>
prm/pocket_docking_8.prm

>  <SCORE>
-34.5065

>  <SCORE.INTER>
-23.7306

>  <SCORE.INTER.CONST>
1

>  <SCORE.INTER.POLAR>
0

>  <SCORE.INTER.ROT>
6

>  <SCORE.INTER.SOLV>
20.8962

>  <SCORE.INTER.VDW>
-30.3858

>  <SCORE.INTER.norm>
-0.988777

>  <SCORE.INTRA>
-10.7758

>  <SCORE.INTRA.DIHEDRAL>
-0.139821

>  <SCORE.INTRA.DIHEDRAL.0>
4.94008

>  <SCORE.INTRA.POLAR>
0

>  <SCORE.INTRA.POLAR.0>
0

>  <SCORE.INTRA.REPUL>
0

>  <SCORE.INTRA.REPUL.0>
0

>  <SCORE.INTRA.SOLV>
0.757129

>  <SCORE.INTRA.SOLV.lig_0>
-31.4704

>  <SCORE.INTRA.VDW>
-11.0845

>  <SCORE.INTRA.VDW.0>
10.2807

>  <SCORE.INTRA.norm>
-0.448993

>  <SCORE.RESTR>
0

>  <SCORE.RESTR.CAVITY>
0

>  <SCORE.RESTR.norm>
0

>  <SCORE.SYSTEM>
0

>  <SCORE.SYSTEM.CONST>
0

>  <SCORE.SYSTEM.DIHEDRAL>
0

>  <SCORE.SYSTEM.SOLV>
0

>  <SCORE.SYSTEM.norm>
0

>  <SCORE.heavy>
24

>  <SCORE.norm>
-1.43777

>  <RMSD>
1.561

$$$$
ligand
 OpenBabel11021811493D
libRbt.so/2013.1/901 2013/11/27
 24 26  0  0  0  0  0  0  0  0999 V2000
    5.7181  -10.6032  -12.8217 N   0  0  0  0  0  0  0  0  0  0  0  0
    4.9509  -11.5851  -12.0722 C   0  0  0  0  0  0  0  0  0  0  0  0
   13.2764   -6.3748  -13.1687 O   0  0  0  0  0  0  0  0  0  0  0  0
   12.0502   -5.8403  -12.7964 C   0  0  0  0  0  0  0  0  0  0  0  0
    8.1984   -4.3712  -11.6720 N   0  0  0  0  0  0  0  0  0  0  0  0
   11.7976   -4.3566  -12.8369 C   0  0  0  0  0  0  0  0  0  0  0  0
    8.4897   -6.5959  -11.5650 N   0  0  0  0  0  0  0  0  0  0  0  0
   10.5333   -3.7825  -12.4848 C   0  0  0  0  0  0  0  0  0  0  0  0
    6.2409   -5.7105  -10.9052 N   0  0  0  0  0  0  0  0  0  0  0  0
    9.5025   -4.6981  -12.0693 C   0  0  0  0  0  0  0  0  0  0  0  0
   12.4149  -10.9254  -11.9585 N   0  0  0  0  0  0  0  0  0  0  0  0
    9.7352   -6.1163  -12.0114 C   0  0  0  0  0  0  0  0  0  0  0  0
   11.0618   -6.6701  -12.3977 C   0  0  0  0  0  0  0  0  0  0  0  0
    7.5883   -5.5544  -11.3719 C   0  0  0  0  0  0  0  0  0  0  0  0
   11.2851   -8.1698  -12.3393 C   0  0  0  0  0  0  0  0  0  0  0  0
   12.7314   -8.6165  -12.5245 C   0  0  1  0  0  0  0  0  0  0  0  0
   13.7045   -7.4751  -12.4461 C   0  0  0  0  0  0  0  0  0  0  0  0
   13.0727   -9.7065  -11.5198 C   0  0  0  0  0  0  0  0  0  0  0  0
    8.1567   -8.0248  -11.4080 C   0  0  0  0  0  0  0  0  0  0  0  0
   13.2977  -11.6175  -12.8878 C   0  0  0  0  0  0  0  0  0  0  0  0
   12.1949  -11.7511  -10.7815 C   0  0  0  0  0  0  0  0  0  0  0  0
    7.0574   -8.5537  -12.3454 C   0  0  0  0  0  0  0  0  0  0  0  0
    6.7660  -10.0193  -11.9723 C   0  0  0  0  0  0  0  0  0  0  0  0
    6.2909  -11.2689  -13.9862 C   0  0  0  0  0  0  0  0  0  0  0  0
  1 23  1  0  0  0  0
  1 24  1  0  0  0  0
  1  2  1  0  0  0  0
  3  4  1  0  0  0  0
  3 17  1  0  0  0  0
  4  6  2  0  0  0  0
  4 13  1  0  0  0  0
  5 10  1  0  0  0  0
  5 14  2  0  0  0  0
  6  8  1  0  0  0  0
  7 12  1  0  0  0  0
  7 14  1  0  0  0  0
  7 19  1  0  0  0  0
  8 10  2  0  0  0  0
  9 14  1  0  0  0  0
 10 12  1  0  0  0  0
 11 18  1  0  0  0  0
 11 20  1  0  0  0  0
 11 21  1  0  0  0  0
 12 13  2  0  0  0  0
 13 15  1  0  0  0  0
 15 16  1  0  0  0  0
 16 17  1  0  0  0  0
 16 18  1  1  0  0  0
 19 22  1  0  0  0  0
 22 23  1  0  0  0  0
M  END
>  <CHROM.1>
-147.98955827,-114.91406612,87.46352925,73.82205290,-175.70401699,179.81694188
9.82145002,-7.99431280,-12.18472762,-2.80393776,0.03504360,0.03349352

>  <Name>
ligand

>  <RI>
144

>  <Rbt.Current_Directory>
/home/itssahil/PROJECTS/Mol_Feturizer/New_Systems/rnas/3TZR

>  <Rbt.Executable>
rbdock ($Id: //depot/dev/client3/rdock/2013.1/src/exe/rbdock.cxx#4 $)

>  <Rbt.Library>
libRbt.so (2013.1, Build901 2013/11/27)

>  <Rbt.Parameter_File>
/export/apps/rDock/src/rDock_2013.1_src/data/scripts/dock_solv.prm

>  <Rbt.Receptor>
prm/blind_docking_60.prm

>  <SCORE>
-34.2954

>  <SCORE.INTER>
-23.348

>  <SCORE.INTER.CONST>
1

>  <SCORE.INTER.POLAR>
0

>  <SCORE.INTER.ROT>
6

>  <SCORE.INTER.SOLV>
20.9523

>  <SCORE.INTER.VDW>
-30.1494

>  <SCORE.INTER.norm>
-0.972833

>  <SCORE.INTRA>
-10.9474

>  <SCORE.INTRA.DIHEDRAL>
-0.666691

>  <SCORE.INTRA.DIHEDRAL.0>
4.94008

>  <SCORE.INTRA.POLAR>
0

>  <SCORE.INTRA.POLAR.0>
0

>  <SCORE.INTRA.REPUL>
0

>  <SCORE.INTRA.REPUL.0>
0

>  <SCORE.INTRA.SOLV>
0.639608

>  <SCORE.INTRA.SOLV.lig_0>
-31.4704

>  <SCORE.INTRA.VDW>
-10.9339

>  <SCORE.INTRA.VDW.0>
10.2807

>  <SCORE.INTRA.norm>
-0.456144

>  <SCORE.RESTR>
0

>  <SCORE.RESTR.CAVITY>
0

>  <SCORE.RESTR.norm>
0

>  <SCORE.SYSTEM>
0

>  <SCORE.SYSTEM.CONST>
0

>  <SCORE.SYSTEM.DIHEDRAL>
0

>  <SCORE.SYSTEM.SOLV>
0

>  <SCORE.SYSTEM.norm>
0

>  <SCORE.heavy>
24

>  <SCORE.norm>
-1.42898

>  <RMSD>
1.569

$$$$
ligand
 OpenBabel11021811493D
libRbt.so/2013.1/901 2013/11/27
 24 26  0  0  0  0  0  0  0  0999 V2000
    5.6375  -10.5969  -12.8452 N   0  0  0  0  0  0  0  0  0  0  0  0
    4.4746  -10.6635  -11.9748 C   0  0  0  0  0  0  0  0  0  0  0  0
   13.2471   -6.3337  -13.1855 O   0  0  0  0  0  0  0  0  0  0  0  0
   12.0180   -5.8175  -12.7973 C   0  0  0  0  0  0  0  0  0  0  0  0
    8.1584   -4.4047  -11.6285 N   0  0  0  0  0  0  0  0  0  0  0  0
   11.7559   -4.3349  -12.7966 C   0  0  0  0  0  0  0  0  0  0  0  0
    8.4640   -6.6295  -11.5831 N   0  0  0  0  0  0  0  0  0  0  0  0
   10.4885   -3.7788  -12.4274 C   0  0  0  0  0  0  0  0  0  0  0  0
    6.2105   -5.7770  -10.8967 N   0  0  0  0  0  0  0  0  0  0  0  0
    9.4640   -4.7121  -12.0361 C   0  0  0  0  0  0  0  0  0  0  0  0
   12.3195  -10.8904  -12.0302 N   0  0  0  0  0  0  0  0  0  0  0  0
    9.7058   -6.1299  -12.0175 C   0  0  0  0  0  0  0  0  0  0  0  0
   11.0354   -6.6644  -12.4205 C   0  0  0  0  0  0  0  0  0  0  0  0
    7.5563   -5.5996  -11.3604 C   0  0  0  0  0  0  0  0  0  0  0  0
   11.2684   -8.1636  -12.4038 C   0  0  0  0  0  0  0  0  0  0  0  0
   12.7172   -8.5958  -12.6028 C   0  0  1  0  0  0  0  0  0  0  0  0
   13.6831   -7.4507  -12.4940 C   0  0  0  0  0  0  0  0  0  0  0  0
   13.0667   -9.7109  -11.6289 C   0  0  0  0  0  0  0  0  0  0  0  0
    8.1403   -8.0643  -11.4652 C   0  0  0  0  0  0  0  0  0  0  0  0
   13.1189  -11.6384  -12.9912 C   0  0  0  0  0  0  0  0  0  0  0  0
   12.1017  -11.6959  -10.8389 C   0  0  0  0  0  0  0  0  0  0  0  0
    6.9819   -8.5550  -12.3508 C   0  0  0  0  0  0  0  0  0  0  0  0
    6.7939  -10.0647  -12.1104 C   0  0  0  0  0  0  0  0  0  0  0  0
    5.9032  -11.9395  -13.3495 C   0  0  0  0  0  0  0  0  0  0  0  0
  1 23  1  0  0  0  0
  1 24  1  0  0  0  0
  1  2  1  0  0  0  0
  3  4  1  0  0  0  0
  3 17  1  0  0  0  0
  4  6  2  0  0  0  0
  4 13  1  0  0  0  0
  5 10  1  0  0  0  0
  5 14  2  0  0  0  0
  6  8  1  0  0  0  0
  7 12  1  0  0  0  0
  7 14  1  0  0  0  0
  7 19  1  0  0  0  0
  8 10  2  0  0  0  0
  9 14  1  0  0  0  0
 10 12  1  0  0  0  0
 11 18  1  0  0  0  0
 11 20  1  0  0  0  0
 11 21  1  0  0  0  0
 12 13  2  0  0  0  0
 13 15  1  0  0  0  0
 15 16  1  0  0  0  0
 16 17  1  0  0  0  0
 16 18  1  1  0  0  0
 19 22  1  0  0  0  0
 22 23  1  0  0  0  0
M  END
>  <CHROM.1>
-97.04251158,-118.67692683,89.05239986,68.72390810,179.46629645,175.72868309
9.74202138,-7.98560515,-12.17891324,-2.82083634,0.05377785,0.03739857

>  <Name>
ligand

>  <RI>
0

>  <Rbt.Current_Directory>
/home/itssahil/PROJECTS/Mol_Feturizer/New_Systems/rnas/3TZR

>  <Rbt.Executable>
rbdock ($Id: //depot/dev/client3/rdock/2013.1/src/exe/rbdock.cxx#4 $)

>  <Rbt.Library>
libRbt.so (2013.1, Build901 2013/11/27)

>  <Rbt.Parameter_File>
/export/apps/rDock/src/rDock_2013.1_src/data/scripts/dock_solv.prm

>  <Rbt.Receptor>
prm/pocket_docking_7.prm

>  <SCORE>
-34.5215

>  <SCORE.INTER>
-23.6001

>  <SCORE.INTER.CONST>
1

>  <SCORE.INTER.POLAR>
0

>  <SCORE.INTER.ROT>
6

>  <SCORE.INTER.SOLV>
20.9185

>  <SCORE.INTER.VDW>
-30.3062

>  <SCORE.INTER.norm>
-0.983337

>  <SCORE.INTRA>
-10.9214

>  <SCORE.INTRA.DIHEDRAL>
-0.610421

>  <SCORE.INTRA.DIHEDRAL.0>
4.94008

>  <SCORE.INTRA.POLAR>
0

>  <SCORE.INTRA.POLAR.0>
0

>  <SCORE.INTRA.REPUL>
0

>  <SCORE.INTRA.REPUL.0>
0

>  <SCORE.INTRA.SOLV>
0.692081

>  <SCORE.INTRA.SOLV.lig_0>
-31.4704

>  <SCORE.INTRA.VDW>
-10.9622

>  <SCORE.INTRA.VDW.0>
10.2807

>  <SCORE.INTRA.norm>
-0.455058

>  <SCORE.RESTR>
0

>  <SCORE.RESTR.CAVITY>
0

>  <SCORE.RESTR.norm>
0

>  <SCORE.SYSTEM>
0

>  <SCORE.SYSTEM.CONST>
0

>  <SCORE.SYSTEM.DIHEDRAL>
0

>  <SCORE.SYSTEM.SOLV>
0

>  <SCORE.SYSTEM.norm>
0

>  <SCORE.heavy>
24

>  <SCORE.norm>
-1.43839

>  <RMSD>
1.569

$$$$
ligand
 OpenBabel11021811493D
libRbt.so/2013.1/901 2013/11/27
 24 26  0  0  0  0  0  0  0  0999 V2000
    5.6363  -10.5908  -12.7986 N   0  0  0  0  0  0  0  0  0  0  0  0
    4.7493  -11.3705  -11.9503 C   0  0  0  0  0  0  0  0  0  0  0  0
   13.2823   -6.3455  -13.1782 O   0  0  0  0  0  0  0  0  0  0  0  0
   12.0505   -5.8256  -12.8041 C   0  0  0  0  0  0  0  0  0  0  0  0
    8.1825   -4.4016  -11.6770 N   0  0  0  0  0  0  0  0  0  0  0  0
   11.7870   -4.3434  -12.8244 C   0  0  0  0  0  0  0  0  0  0  0  0
    8.4901   -6.6253  -11.6006 N   0  0  0  0  0  0  0  0  0  0  0  0
   10.5167   -3.7838  -12.4701 C   0  0  0  0  0  0  0  0  0  0  0  0
    6.2316   -5.7662  -10.9389 N   0  0  0  0  0  0  0  0  0  0  0  0
    9.4909   -4.7129  -12.0727 C   0  0  0  0  0  0  0  0  0  0  0  0
   12.4165  -10.9096  -12.0155 N   0  0  0  0  0  0  0  0  0  0  0  0
    9.7340   -6.1301  -12.0341 C   0  0  0  0  0  0  0  0  0  0  0  0
   11.0664   -6.6684  -12.4221 C   0  0  0  0  0  0  0  0  0  0  0  0
    7.5800   -5.5935  -11.3969 C   0  0  0  0  0  0  0  0  0  0  0  0
   11.3008   -8.1670  -12.3843 C   0  0  0  0  0  0  0  0  0  0  0  0
   12.7511   -8.6003  -12.5690 C   0  0  1  0  0  0  0  0  0  0  0  0
   13.7153   -7.4529  -12.4695 C   0  0  0  0  0  0  0  0  0  0  0  0
   13.0959   -9.7022  -11.5784 C   0  0  0  0  0  0  0  0  0  0  0  0
    8.1670   -8.0588  -11.4659 C   0  0  0  0  0  0  0  0  0  0  0  0
   13.3101  -11.6490  -12.8967 C   0  0  0  0  0  0  0  0  0  0  0  0
   12.1279  -11.7019  -10.8303 C   0  0  0  0  0  0  0  0  0  0  0  0
    7.0298   -8.5673  -12.3687 C   0  0  0  0  0  0  0  0  0  0  0  0
    6.7424  -10.0362  -12.0052 C   0  0  0  0  0  0  0  0  0  0  0  0
    6.1306  -11.4620  -13.8589 C   0  0  0  0  0  0  0  0  0  0  0  0
  1 23  1  0  0  0  0
  1 24  1  0  0  0  0
  1  2  1  0  0  0  0
  3  4  1  0  0  0  0
  3 17  1  0  0  0  0
  4  6  2  0  0  0  0
  4 13  1  0  0  0  0
  5 10  1  0  0  0  0
  5 14  2  0  0  0  0
  6  8  1  0  0  0  0
  7 12  1  0  0  0  0
  7 14  1  0  0  0  0
  7 19  1  0  0  0  0
  8 10  2  0  0  0  0
  9 14  1  0  0  0  0
 10 12  1  0  0  0  0
 11 18  1  0  0  0  0
 11 20  1  0  0  0  0
 11 21  1  0  0  0  0
 12 13  2  0  0  0  0
 13 15  1  0  0  0  0
 15 16  1  0  0  0  0
 16 17  1  0  0  0  0
 16 18  1  1  0  0  0
 19 22  1  0  0  0  0
 22 23  1  0  0  0  0
M  END
>  <CHROM.1>
-136.72271605,-117.71198001,91.11759735,72.12908341,-174.81435388,178.34092022
9.79768189,-7.99714853,-12.19516986,-2.80993988,0.04215579,0.03251956

>  <Name>
ligand

>  <RI>
0

>  <Rbt.Current_Directory>
/home/itssahil/PROJECTS/Mol_Feturizer/New_Systems/rnas/3TZR

>  <Rbt.Executable>
rbdock ($Id: //depot/dev/client3/rdock/2013.1/src/exe/rbdock.cxx#4 $)

>  <Rbt.Library>
libRbt.so (2013.1, Build901 2013/11/27)

>  <Rbt.Parameter_File>
/export/apps/rDock/src/rDock_2013.1_src/data/scripts/dock_solv.prm

>  <Rbt.Receptor>
prm/pocket_docking_5.prm

>  <SCORE>
-34.317

>  <SCORE.INTER>
-23.5572

>  <SCORE.INTER.CONST>
1

>  <SCORE.INTER.POLAR>
0

>  <SCORE.INTER.ROT>
6

>  <SCORE.INTER.SOLV>
20.7342

>  <SCORE.INTER.VDW>
-30.2162

>  <SCORE.INTER.norm>
-0.981549

>  <SCORE.INTRA>
-10.7598

>  <SCORE.INTRA.DIHEDRAL>
0.124992

>  <SCORE.INTRA.DIHEDRAL.0>
4.94008

>  <SCORE.INTRA.POLAR>
0

>  <SCORE.INTRA.POLAR.0>
0

>  <SCORE.INTRA.REPUL>
0

>  <SCORE.INTRA.REPUL.0>
0

>  <SCORE.INTRA.SOLV>
0.733807

>  <SCORE.INTRA.SOLV.lig_0>
-31.4704

>  <SCORE.INTRA.VDW>
-11.1892

>  <SCORE.INTRA.VDW.0>
10.2807

>  <SCORE.INTRA.norm>
-0.448325

>  <SCORE.RESTR>
0

>  <SCORE.RESTR.CAVITY>
0

>  <SCORE.RESTR.norm>
0

>  <SCORE.SYSTEM>
0

>  <SCORE.SYSTEM.CONST>
0

>  <SCORE.SYSTEM.DIHEDRAL>
0

>  <SCORE.SYSTEM.SOLV>
0

>  <SCORE.SYSTEM.norm>
0

>  <SCORE.heavy>
24

>  <SCORE.norm>
-1.42987

>  <RMSD>
1.570

$$$$
ligand
 OpenBabel11021811493D
libRbt.so/2013.1/901 2013/11/27
 24 26  0  0  0  0  0  0  0  0999 V2000
    5.6566  -10.5679  -12.8446 N   0  0  0  0  0  0  0  0  0  0  0  0
    4.4632  -10.6239  -12.0157 C   0  0  0  0  0  0  0  0  0  0  0  0
   13.2308   -6.3386  -13.1994 O   0  0  0  0  0  0  0  0  0  0  0  0
   12.0069   -5.8138  -12.8065 C   0  0  0  0  0  0  0  0  0  0  0  0
    8.1622   -4.3741  -11.6215 N   0  0  0  0  0  0  0  0  0  0  0  0
   11.7513   -4.3301  -12.8166 C   0  0  0  0  0  0  0  0  0  0  0  0
    8.4585   -6.5998  -11.5594 N   0  0  0  0  0  0  0  0  0  0  0  0
   10.4890   -3.7653  -12.4428 C   0  0  0  0  0  0  0  0  0  0  0  0
    6.2138   -5.7316  -10.8636 N   0  0  0  0  0  0  0  0  0  0  0  0
    9.4635   -4.6907  -12.0360 C   0  0  0  0  0  0  0  0  0  0  0  0
   12.3451  -10.8999  -12.0386 N   0  0  0  0  0  0  0  0  0  0  0  0
    9.6993   -6.1094  -12.0072 C   0  0  0  0  0  0  0  0  0  0  0  0
   11.0235   -6.6531  -12.4153 C   0  0  0  0  0  0  0  0  0  0  0  0
    7.5569   -5.5640  -11.3388 C   0  0  0  0  0  0  0  0  0  0  0  0
   11.2501   -8.1531  -12.3875 C   0  0  0  0  0  0  0  0  0  0  0  0
   12.6955   -8.5933  -12.5935 C   0  0  1  0  0  0  0  0  0  0  0  0
   13.6671   -7.4516  -12.5016 C   0  0  0  0  0  0  0  0  0  0  0  0
   13.0474   -9.7016  -11.6127 C   0  0  0  0  0  0  0  0  0  0  0  0
    8.1295   -8.0321  -11.4269 C   0  0  0  0  0  0  0  0  0  0  0  0
   13.2084  -11.6430  -12.9464 C   0  0  0  0  0  0  0  0  0  0  0  0
   12.0793  -11.6960  -10.8507 C   0  0  0  0  0  0  0  0  0  0  0  0
    7.0739   -8.5614  -12.4131 C   0  0  0  0  0  0  0  0  0  0  0  0
    6.7886  -10.0361  -12.0724 C   0  0  0  0  0  0  0  0  0  0  0  0
    5.9340  -11.9148  -13.3307 C   0  0  0  0  0  0  0  0  0  0  0  0
  1 23  1  0  0  0  0
  1 24  1  0  0  0  0
  1  2  1  0  0  0  0
  3  4  1  0  0  0  0
  3 17  1  0  0  0  0
  4  6  2  0  0  0  0
  4 13  1  0  0  0  0
  5 10  1  0  0  0  0
  5 14  2  0  0  0  0
  6  8  1  0  0  0  0
  7 12  1  0  0  0  0
  7 14  1  0  0  0  0
  7 19  1  0  0  0  0
  8 10  2  0  0  0  0
  9 14  1  0  0  0  0
 10 12  1  0  0  0  0
 11 18  1  0  0  0  0
 11 20  1  0  0  0  0
 11 21  1  0  0  0  0
 12 13  2  0  0  0  0
 13 15  1  0  0  0  0
 15 16  1  0  0  0  0
 16 17  1  0  0  0  0
 16 18  1  1  0  0  0
 19 22  1  0  0  0  0
 22 23  1  0  0  0  0
M  END
>  <CHROM.1>
-102.32193446,-111.94836576,90.74704827,71.57454826,-176.29104252,172.05252636
9.74604750,-7.97045252,-12.17492803,-2.83853665,0.05438046,0.03679576

>  <Name>
ligand

>  <RI>
0

>  <Rbt.Current_Directory>
/home/itssahil/PROJECTS/Mol_Feturizer/New_Systems/rnas/3TZR

>  <Rbt.Executable>
rbdock ($Id: //depot/dev/client3/rdock/2013.1/src/exe/rbdock.cxx#4 $)

>  <Rbt.Library>
libRbt.so (2013.1, Build901 2013/11/27)

>  <Rbt.Parameter_File>
/export/apps/rDock/src/rDock_2013.1_src/data/scripts/dock_solv.prm

>  <Rbt.Receptor>
prm/blind_docking_80.prm

>  <SCORE>
-34.4274

>  <SCORE.INTER>
-23.5501

>  <SCORE.INTER.CONST>
1

>  <SCORE.INTER.POLAR>
0

>  <SCORE.INTER.ROT>
6

>  <SCORE.INTER.SOLV>
21.1612

>  <SCORE.INTER.VDW>
-30.3538

>  <SCORE.INTER.norm>
-0.981256

>  <SCORE.INTRA>
-10.8773

>  <SCORE.INTRA.DIHEDRAL>
0.145628

>  <SCORE.INTRA.DIHEDRAL.0>
4.94008

>  <SCORE.INTRA.POLAR>
0

>  <SCORE.INTRA.POLAR.0>
0

>  <SCORE.INTRA.REPUL>
0

>  <SCORE.INTRA.REPUL.0>
0

>  <SCORE.INTRA.SOLV>
0.550505

>  <SCORE.INTRA.SOLV.lig_0>
-31.4704

>  <SCORE.INTRA.VDW>
-11.2254

>  <SCORE.INTRA.VDW.0>
10.2807

>  <SCORE.INTRA.norm>
-0.453221

>  <SCORE.RESTR>
0

>  <SCORE.RESTR.CAVITY>
0

>  <SCORE.RESTR.norm>
0

>  <SCORE.SYSTEM>
0

>  <SCORE.SYSTEM.CONST>
0

>  <SCORE.SYSTEM.DIHEDRAL>
0

>  <SCORE.SYSTEM.SOLV>
0

>  <SCORE.SYSTEM.norm>
0

>  <SCORE.heavy>
24

>  <SCORE.norm>
-1.43448

>  <RMSD>
1.572

$$$$
ligand
 OpenBabel11021811493D
libRbt.so/2013.1/901 2013/11/27
 24 26  0  0  0  0  0  0  0  0999 V2000
    5.5479  -10.5685  -12.7551 N   0  0  0  0  0  0  0  0  0  0  0  0
    4.4325  -10.6165  -11.8236 C   0  0  0  0  0  0  0  0  0  0  0  0
   13.2330   -6.3005  -13.2256 O   0  0  0  0  0  0  0  0  0  0  0  0
   12.0038   -5.7941  -12.8249 C   0  0  0  0  0  0  0  0  0  0  0  0
    8.1447   -4.4114  -11.6192 N   0  0  0  0  0  0  0  0  0  0  0  0
   11.7346   -4.3129  -12.8084 C   0  0  0  0  0  0  0  0  0  0  0  0
    8.4613   -6.6351  -11.5971 N   0  0  0  0  0  0  0  0  0  0  0  0
   10.4667   -3.7666  -12.4261 C   0  0  0  0  0  0  0  0  0  0  0  0
    6.2079   -5.8003  -10.8888 N   0  0  0  0  0  0  0  0  0  0  0  0
    9.4493   -4.7086  -12.0376 C   0  0  0  0  0  0  0  0  0  0  0  0
   12.2904  -10.8558  -12.0725 N   0  0  0  0  0  0  0  0  0  0  0  0
    9.6980   -6.1253  -12.0342 C   0  0  0  0  0  0  0  0  0  0  0  0
   11.0276   -6.6493  -12.4504 C   0  0  0  0  0  0  0  0  0  0  0  0
    7.5500   -5.6118  -11.3590 C   0  0  0  0  0  0  0  0  0  0  0  0
   11.2680   -8.1475  -12.4495 C   0  0  0  0  0  0  0  0  0  0  0  0
   12.7176   -8.5707  -12.6615 C   0  0  1  0  0  0  0  0  0  0  0  0
   13.6786   -7.4220  -12.5476 C   0  0  0  0  0  0  0  0  0  0  0  0
   13.0784   -9.6933  -11.7005 C   0  0  0  0  0  0  0  0  0  0  0  0
    8.1452   -8.0726  -11.4911 C   0  0  0  0  0  0  0  0  0  0  0  0
   13.0847  -11.6841  -12.9696 C   0  0  0  0  0  0  0  0  0  0  0  0
   11.9968  -11.5929  -10.8535 C   0  0  0  0  0  0  0  0  0  0  0  0
    6.9565   -8.5520  -12.3420 C   0  0  0  0  0  0  0  0  0  0  0  0
    6.7508  -10.0563  -12.0834 C   0  0  0  0  0  0  0  0  0  0  0  0
    5.7639  -11.9149  -13.2729 C   0  0  0  0  0  0  0  0  0  0  0  0
  1 23  1  0  0  0  0
  1 24  1  0  0  0  0
  1  2  1  0  0  0  0
  3  4  1  0  0  0  0
  3 17  1  0  0  0  0
  4  6  2  0  0  0  0
  4 13  1  0  0  0  0
  5 10  1  0  0  0  0
  5 14  2  0  0  0  0
  6  8  1  0  0  0  0
  7 12  1  0  0  0  0
  7 14  1  0  0  0  0
  7 19  1  0  0  0  0
  8 10  2  0  0  0  0
  9 14  1  0  0  0  0
 10 12  1  0  0  0  0
 11 18  1  0  0  0  0
 11 20  1  0  0  0  0
 11 21  1  0  0  0  0
 12 13  2  0  0  0  0
 13 15  1  0  0  0  0
 15 16  1  0  0  0  0
 16 17  1  0  0  0  0
 16 18  1  1  0  0  0
 19 22  1  0  0  0  0
 22 23  1  0  0  0  0
M  END
>  <CHROM.1>
-97.46362147,-120.45604983,94.10957206,66.26430526,-178.64956891,174.26167539
9.71487114,-7.97056658,-12.18026020,-2.81434657,0.06709761,0.03270173

>  <Name>
ligand

>  <RI>
0

>  <Rbt.Current_Directory>
/home/itssahil/PROJECTS/Mol_Feturizer/New_Systems/rnas/3TZR

>  <Rbt.Executable>
rbdock ($Id: //depot/dev/client3/rdock/2013.1/src/exe/rbdock.cxx#4 $)

>  <Rbt.Library>
libRbt.so (2013.1, Build901 2013/11/27)

>  <Rbt.Parameter_File>
/export/apps/rDock/src/rDock_2013.1_src/data/scripts/dock_solv.prm

>  <Rbt.Receptor>
prm/blind_docking_40.prm

>  <SCORE>
-34.4972

>  <SCORE.INTER>
-23.6533

>  <SCORE.INTER.CONST>
1

>  <SCORE.INTER.POLAR>
0

>  <SCORE.INTER.ROT>
6

>  <SCORE.INTER.SOLV>
20.8989

>  <SCORE.INTER.VDW>
-30.3352

>  <SCORE.INTER.norm>
-0.985555

>  <SCORE.INTRA>
-10.8439

>  <SCORE.INTRA.DIHEDRAL>
-0.318337

>  <SCORE.INTRA.DIHEDRAL.0>
4.94008

>  <SCORE.INTRA.POLAR>
0

>  <SCORE.INTRA.POLAR.0>
0

>  <SCORE.INTRA.REPUL>
0

>  <SCORE.INTRA.REPUL.0>
0

>  <SCORE.INTRA.SOLV>
0.769404

>  <SCORE.INTRA.SOLV.lig_0>
-31.4704

>  <SCORE.INTRA.VDW>
-11.0694

>  <SCORE.INTRA.VDW.0>
10.2807

>  <SCORE.INTRA.norm>
-0.451829

>  <SCORE.RESTR>
0

>  <SCORE.RESTR.CAVITY>
0

>  <SCORE.RESTR.norm>
0

>  <SCORE.SYSTEM>
0

>  <SCORE.SYSTEM.CONST>
0

>  <SCORE.SYSTEM.DIHEDRAL>
0

>  <SCORE.SYSTEM.SOLV>
0

>  <SCORE.SYSTEM.norm>
0

>  <SCORE.heavy>
24

>  <SCORE.norm>
-1.43738

>  <RMSD>
1.574

$$$$
ligand
 OpenBabel11021811493D
libRbt.so/2013.1/901 2013/11/27
 24 26  0  0  0  0  0  0  0  0999 V2000
    5.6168  -10.5688  -12.8115 N   0  0  0  0  0  0  0  0  0  0  0  0
    4.4678  -10.6327  -11.9226 C   0  0  0  0  0  0  0  0  0  0  0  0
   13.2541   -6.3009  -13.2078 O   0  0  0  0  0  0  0  0  0  0  0  0
   12.0254   -5.7893  -12.8123 C   0  0  0  0  0  0  0  0  0  0  0  0
    8.1673   -4.3905  -11.6219 N   0  0  0  0  0  0  0  0  0  0  0  0
   11.7601   -4.3073  -12.8037 C   0  0  0  0  0  0  0  0  0  0  0  0
    8.4780   -6.6149  -11.5881 N   0  0  0  0  0  0  0  0  0  0  0  0
   10.4928   -3.7557  -12.4269 C   0  0  0  0  0  0  0  0  0  0  0  0
    6.2253   -5.7706  -10.8888 N   0  0  0  0  0  0  0  0  0  0  0  0
    9.4720   -4.6931  -12.0360 C   0  0  0  0  0  0  0  0  0  0  0  0
   12.3287  -10.8604  -12.0602 N   0  0  0  0  0  0  0  0  0  0  0  0
    9.7170   -6.1104  -12.0250 C   0  0  0  0  0  0  0  0  0  0  0  0
   11.0462   -6.6401  -12.4357 C   0  0  0  0  0  0  0  0  0  0  0  0
    7.5689   -5.5880  -11.3570 C   0  0  0  0  0  0  0  0  0  0  0  0
   11.2825   -8.1388  -12.4268 C   0  0  0  0  0  0  0  0  0  0  0  0
   12.7315   -8.5668  -12.6336 C   0  0  1  0  0  0  0  0  0  0  0  0
   13.6953   -7.4202  -12.5233 C   0  0  0  0  0  0  0  0  0  0  0  0
   13.0873   -9.6857  -11.6662 C   0  0  0  0  0  0  0  0  0  0  0  0
    8.1579   -8.0509  -11.4756 C   0  0  0  0  0  0  0  0  0  0  0  0
   13.1288  -11.6324  -13.0013 C   0  0  0  0  0  0  0  0  0  0  0  0
   12.0859  -11.6463  -10.8607 C   0  0  0  0  0  0  0  0  0  0  0  0
    6.9844   -8.5360  -12.3442 C   0  0  0  0  0  0  0  0  0  0  0  0
    6.7870  -10.0430  -12.0943 C   0  0  0  0  0  0  0  0  0  0  0  0
    5.8689  -11.9113  -13.3230 C   0  0  0  0  0  0  0  0  0  0  0  0
  1 23  1  0  0  0  0
  1 24  1  0  0  0  0
  1  2  1  0  0  0  0
  3  4  1  0  0  0  0
  3 17  1  0  0  0  0
  4  6  2  0  0  0  0
  4 13  1  0  0  0  0
  5 10  1  0  0  0  0
  5 14  2  0  0  0  0
  6  8  1  0  0  0  0
  7 12  1  0  0  0  0
  7 14  1  0  0  0  0
  7 19  1  0  0  0  0
  8 10  2  0  0  0  0
  9 14  1  0  0  0  0
 10 12  1  0  0  0  0
 11 18  1  0  0  0  0
 11 20  1  0  0  0  0
 11 21  1  0  0  0  0
 12 13  2  0  0  0  0
 13 15  1  0  0  0  0
 15 16  1  0  0  0  0
 16 17  1  0  0  0  0
 16 18  1  1  0  0  0
 19 22  1  0  0  0  0
 22 23  1  0  0  0  0
M  END
>  <CHROM.1>
-97.54021628,-119.49768972,90.78373636,68.03736111,-179.59028823,175.70856311
9.74662109,-7.96219961,-12.18332689,-2.81993250,0.06052273,0.03698520

>  <Name>
ligand

>  <RI>
0

>  <Rbt.Current_Directory>
/home/itssahil/PROJECTS/Mol_Feturizer/New_Systems/rnas/3TZR

>  <Rbt.Executable>
rbdock ($Id: //depot/dev/client3/rdock/2013.1/src/exe/rbdock.cxx#4 $)

>  <Rbt.Library>
libRbt.so (2013.1, Build901 2013/11/27)

>  <Rbt.Parameter_File>
/export/apps/rDock/src/rDock_2013.1_src/data/scripts/dock_solv.prm

>  <Rbt.Receptor>
prm/pocket_docking_5.prm

>  <SCORE>
-34.5193

>  <SCORE.INTER>
-23.6192

>  <SCORE.INTER.CONST>
1

>  <SCORE.INTER.POLAR>
0

>  <SCORE.INTER.ROT>
6

>  <SCORE.INTER.SOLV>
21.0001

>  <SCORE.INTER.VDW>
-30.3462

>  <SCORE.INTER.norm>
-0.984133

>  <SCORE.INTRA>
-10.9001

>  <SCORE.INTRA.DIHEDRAL>
-0.504854

>  <SCORE.INTRA.DIHEDRAL.0>
4.94008

>  <SCORE.INTRA.POLAR>
0

>  <SCORE.INTRA.POLAR.0>
0

>  <SCORE.INTRA.REPUL>
0

>  <SCORE.INTRA.REPUL.0>
0

>  <SCORE.INTRA.SOLV>
0.727928

>  <SCORE.INTRA.SOLV.lig_0>
-31.4704

>  <SCORE.INTRA.VDW>
-11.0116

>  <SCORE.INTRA.VDW.0>
10.2807

>  <SCORE.INTRA.norm>
-0.454169

>  <SCORE.RESTR>
0

>  <SCORE.RESTR.CAVITY>
0

>  <SCORE.RESTR.norm>
0

>  <SCORE.SYSTEM>
0

>  <SCORE.SYSTEM.CONST>
0

>  <SCORE.SYSTEM.DIHEDRAL>
0

>  <SCORE.SYSTEM.SOLV>
0

>  <SCORE.SYSTEM.norm>
0

>  <SCORE.heavy>
24

>  <SCORE.norm>
-1.4383

>  <RMSD>
1.574

$$$$
ligand
 OpenBabel11021811493D
libRbt.so/2013.1/901 2013/11/27
 24 26  0  0  0  0  0  0  0  0999 V2000
    5.6315  -10.5595  -12.8436 N   0  0  0  0  0  0  0  0  0  0  0  0
    4.4611  -10.6258  -11.9834 C   0  0  0  0  0  0  0  0  0  0  0  0
   13.2423   -6.3501  -13.2068 O   0  0  0  0  0  0  0  0  0  0  0  0
   12.0196   -5.8246  -12.8111 C   0  0  0  0  0  0  0  0  0  0  0  0
    8.1781   -4.3827  -11.6184 N   0  0  0  0  0  0  0  0  0  0  0  0
   11.7677   -4.3402  -12.8117 C   0  0  0  0  0  0  0  0  0  0  0  0
    8.4687   -6.6096  -11.5705 N   0  0  0  0  0  0  0  0  0  0  0  0
   10.5067   -3.7746  -12.4349 C   0  0  0  0  0  0  0  0  0  0  0  0
    6.2259   -5.7401  -10.8701 N   0  0  0  0  0  0  0  0  0  0  0  0
    9.4787   -4.7000  -12.0345 C   0  0  0  0  0  0  0  0  0  0  0  0
   12.3152  -10.9065  -12.0538 N   0  0  0  0  0  0  0  0  0  0  0  0
    9.7108   -6.1194  -12.0146 C   0  0  0  0  0  0  0  0  0  0  0  0
   11.0338   -6.6638  -12.4257 C   0  0  0  0  0  0  0  0  0  0  0  0
    7.5696   -5.5729  -11.3436 C   0  0  0  0  0  0  0  0  0  0  0  0
   11.2566   -8.1646  -12.4074 C   0  0  0  0  0  0  0  0  0  0  0  0
   12.7009   -8.6072  -12.6156 C   0  0  1  0  0  0  0  0  0  0  0  0
   13.6754   -7.4686  -12.5161 C   0  0  0  0  0  0  0  0  0  0  0  0
   13.0496   -9.7226  -11.6418 C   0  0  0  0  0  0  0  0  0  0  0  0
    8.1359   -8.0418  -11.4473 C   0  0  0  0  0  0  0  0  0  0  0  0
   13.1462  -11.6673  -12.9771 C   0  0  0  0  0  0  0  0  0  0  0  0
   12.0553  -11.6967  -10.8607 C   0  0  0  0  0  0  0  0  0  0  0  0
    7.0418   -8.5502  -12.4019 C   0  0  0  0  0  0  0  0  0  0  0  0
    6.7843  -10.0376  -12.0959 C   0  0  0  0  0  0  0  0  0  0  0  0
    5.8950  -11.9002  -13.3541 C   0  0  0  0  0  0  0  0  0  0  0  0
  1 23  1  0  0  0  0
  1 24  1  0  0  0  0
  1  2  1  0  0  0  0
  3  4  1  0  0  0  0
  3 17  1  0  0  0  0
  4  6  2  0  0  0  0
  4 13  1  0  0  0  0
  5 10  1  0  0  0  0
  5 14  2  0  0  0  0
  6  8  1  0  0  0  0
  7 12  1  0  0  0  0
  7 14  1  0  0  0  0
  7 19  1  0  0  0  0
  8 10  2  0  0  0  0
  9 14  1  0  0  0  0
 10 12  1  0  0  0  0
 11 18  1  0  0  0  0
 11 20  1  0  0  0  0
 11 21  1  0  0  0  0
 12 13  2  0  0  0  0
 13 15  1  0  0  0  0
 15 16  1  0  0  0  0
 16 17  1  0  0  0  0
 16 18  1  1  0  0  0
 19 22  1  0  0  0  0
 22 23  1  0  0  0  0
M  END
>  <CHROM.1>
-101.05804245,-114.13408426,90.81145179,70.01255836,-177.64740832,172.61723375
9.74324517,-7.97785446,-12.18346538,-2.83147181,0.05656666,0.03929625

>  <Name>
ligand

>  <RI>
0

>  <Rbt.Current_Directory>
/home/itssahil/PROJECTS/Mol_Feturizer/New_Systems/rnas/3TZR

>  <Rbt.Executable>
rbdock ($Id: //depot/dev/client3/rdock/2013.1/src/exe/rbdock.cxx#4 $)

>  <Rbt.Library>
libRbt.so (2013.1, Build901 2013/11/27)

>  <Rbt.Parameter_File>
/export/apps/rDock/src/rDock_2013.1_src/data/scripts/dock_solv.prm

>  <Rbt.Receptor>
prm/blind_docking_80.prm

>  <SCORE>
-34.466

>  <SCORE.INTER>
-23.5616

>  <SCORE.INTER.CONST>
1

>  <SCORE.INTER.POLAR>
0

>  <SCORE.INTER.ROT>
6

>  <SCORE.INTER.SOLV>
21.1524

>  <SCORE.INTER.VDW>
-30.3585

>  <SCORE.INTER.norm>
-0.981733

>  <SCORE.INTRA>
-10.9044

>  <SCORE.INTRA.DIHEDRAL>
-0.0732163

>  <SCORE.INTRA.DIHEDRAL.0>
4.94008

>  <SCORE.INTRA.POLAR>
0

>  <SCORE.INTRA.POLAR.0>
0

>  <SCORE.INTRA.REPUL>
0

>  <SCORE.INTRA.REPUL.0>
0

>  <SCORE.INTRA.SOLV>
0.597477

>  <SCORE.INTRA.SOLV.lig_0>
-31.4704

>  <SCORE.INTRA.VDW>
-11.1665

>  <SCORE.INTRA.VDW.0>
10.2807

>  <SCORE.INTRA.norm>
-0.454349

>  <SCORE.RESTR>
0

>  <SCORE.RESTR.CAVITY>
0

>  <SCORE.RESTR.norm>
0

>  <SCORE.SYSTEM>
0

>  <SCORE.SYSTEM.CONST>
0

>  <SCORE.SYSTEM.DIHEDRAL>
0

>  <SCORE.SYSTEM.SOLV>
0

>  <SCORE.SYSTEM.norm>
0

>  <SCORE.heavy>
24

>  <SCORE.norm>
-1.43608

>  <RMSD>
1.576

$$$$
ligand
 OpenBabel11021811493D
libRbt.so/2013.1/901 2013/11/27
 24 26  0  0  0  0  0  0  0  0999 V2000
    5.6141  -10.5870  -12.8108 N   0  0  0  0  0  0  0  0  0  0  0  0
    4.4422  -10.6168  -11.9506 C   0  0  0  0  0  0  0  0  0  0  0  0
   13.2491   -6.2712  -13.1940 O   0  0  0  0  0  0  0  0  0  0  0  0
   12.0147   -5.7700  -12.8031 C   0  0  0  0  0  0  0  0  0  0  0  0
    8.1404   -4.4038  -11.6274 N   0  0  0  0  0  0  0  0  0  0  0  0
   11.7377   -4.2901  -12.7925 C   0  0  0  0  0  0  0  0  0  0  0  0
    8.4683   -6.6258  -11.5969 N   0  0  0  0  0  0  0  0  0  0  0  0
   10.4645   -3.7492  -12.4204 C   0  0  0  0  0  0  0  0  0  0  0  0
    6.2058   -5.8006  -10.9062 N   0  0  0  0  0  0  0  0  0  0  0  0
    9.4493   -4.6954  -12.0361 C   0  0  0  0  0  0  0  0  0  0  0  0
   12.4089  -10.8586  -12.1020 N   0  0  0  0  0  0  0  0  0  0  0  0
    9.7053   -6.1108  -12.0270 C   0  0  0  0  0  0  0  0  0  0  0  0
   11.0404   -6.6291  -12.4327 C   0  0  0  0  0  0  0  0  0  0  0  0
    7.5501   -5.6065  -11.3678 C   0  0  0  0  0  0  0  0  0  0  0  0
   11.2884   -8.1260  -12.4259 C   0  0  0  0  0  0  0  0  0  0  0  0
   12.7415   -8.5423  -12.6269 C   0  0  1  0  0  0  0  0  0  0  0  0
   13.6958   -7.3884  -12.5098 C   0  0  0  0  0  0  0  0  0  0  0  0
   13.1016   -9.6604  -11.6603 C   0  0  0  0  0  0  0  0  0  0  0  0
    8.1588   -8.0645  -11.4889 C   0  0  0  0  0  0  0  0  0  0  0  0
   13.3416  -11.6760  -12.8660 C   0  0  0  0  0  0  0  0  0  0  0  0
   11.9823  -11.5799  -10.9132 C   0  0  0  0  0  0  0  0  0  0  0  0
    6.9902   -8.5560  -12.3604 C   0  0  0  0  0  0  0  0  0  0  0  0
    6.7709  -10.0540  -12.0772 C   0  0  0  0  0  0  0  0  0  0  0  0
    5.8655  -11.9446  -13.2810 C   0  0  0  0  0  0  0  0  0  0  0  0
  1 23  1  0  0  0  0
  1 24  1  0  0  0  0
  1  2  1  0  0  0  0
  3  4  1  0  0  0  0
  3 17  1  0  0  0  0
  4  6  2  0  0  0  0
  4 13  1  0  0  0  0
  5 10  1  0  0  0  0
  5 14  2  0  0  0  0
  6  8  1  0  0  0  0
  7 12  1  0  0  0  0
  7 14  1  0  0  0  0
  7 19  1  0  0  0  0
  8 10  2  0  0  0  0
  9 14  1  0  0  0  0
 10 12  1  0  0  0  0
 11 18  1  0  0  0  0
 11 20  1  0  0  0  0
 11 21  1  0  0  0  0
 12 13  2  0  0  0  0
 13 15  1  0  0  0  0
 15 16  1  0  0  0  0
 16 17  1  0  0  0  0
 16 18  1  1  0  0  0
 19 22  1  0  0  0  0
 22 23  1  0  0  0  0
M  END
>  <CHROM.1>
-97.54223825,-119.68846597,98.62583689,70.98609291,-177.57742059,176.49043117
9.74743859,-7.96025576,-12.18008867,-2.83339188,0.05816091,0.03441329

>  <Name>
ligand

>  <RI>
0

>  <Rbt.Current_Directory>
/home/itssahil/PROJECTS/Mol_Feturizer/New_Systems/rnas/3TZR

>  <Rbt.Executable>
rbdock ($Id: //depot/dev/client3/rdock/2013.1/src/exe/rbdock.cxx#4 $)

>  <Rbt.Library>
libRbt.so (2013.1, Build901 2013/11/27)

>  <Rbt.Parameter_File>
/export/apps/rDock/src/rDock_2013.1_src/data/scripts/dock_solv.prm

>  <Rbt.Receptor>
prm/blind_docking_40.prm

>  <SCORE>
-34.3997

>  <SCORE.INTER>
-23.6048

>  <SCORE.INTER.CONST>
1

>  <SCORE.INTER.POLAR>
0

>  <SCORE.INTER.ROT>
6

>  <SCORE.INTER.SOLV>
20.8201

>  <SCORE.INTER.VDW>
-30.2766

>  <SCORE.INTER.norm>
-0.983534

>  <SCORE.INTRA>
-10.7949

>  <SCORE.INTRA.DIHEDRAL>
0.157306

>  <SCORE.INTRA.DIHEDRAL.0>
4.94008

>  <SCORE.INTRA.POLAR>
0

>  <SCORE.INTRA.POLAR.0>
0

>  <SCORE.INTRA.REPUL>
0

>  <SCORE.INTRA.REPUL.0>
0

>  <SCORE.INTRA.SOLV>
0.754253

>  <SCORE.INTRA.SOLV.lig_0>
-31.4704

>  <SCORE.INTRA.VDW>
-11.2507

>  <SCORE.INTRA.VDW.0>
10.2807

>  <SCORE.INTRA.norm>
-0.449788

>  <SCORE.RESTR>
0

>  <SCORE.RESTR.CAVITY>
0

>  <SCORE.RESTR.norm>
0

>  <SCORE.SYSTEM>
0

>  <SCORE.SYSTEM.CONST>
0

>  <SCORE.SYSTEM.DIHEDRAL>
0

>  <SCORE.SYSTEM.SOLV>
0

>  <SCORE.SYSTEM.norm>
0

>  <SCORE.heavy>
24

>  <SCORE.norm>
-1.43332

>  <RMSD>
1.579

$$$$
ligand
 OpenBabel11021811493D
libRbt.so/2013.1/901 2013/11/27
 24 26  0  0  0  0  0  0  0  0999 V2000
    5.5216  -10.5182  -12.7625 N   0  0  0  0  0  0  0  0  0  0  0  0
    4.3906  -10.6359  -11.8563 C   0  0  0  0  0  0  0  0  0  0  0  0
   13.2472   -6.2871  -13.2177 O   0  0  0  0  0  0  0  0  0  0  0  0
   12.0185   -5.7791  -12.8176 C   0  0  0  0  0  0  0  0  0  0  0  0
    8.1604   -4.3913  -11.6144 N   0  0  0  0  0  0  0  0  0  0  0  0
   11.7532   -4.2973  -12.7955 C   0  0  0  0  0  0  0  0  0  0  0  0
    8.4712   -6.6159  -11.6009 N   0  0  0  0  0  0  0  0  0  0  0  0
   10.4859   -3.7492  -12.4137 C   0  0  0  0  0  0  0  0  0  0  0  0
    6.2184   -5.7780  -10.8939 N   0  0  0  0  0  0  0  0  0  0  0  0
    9.4651   -4.6901  -12.0313 C   0  0  0  0  0  0  0  0  0  0  0  0
   12.3128  -10.8535  -12.1042 N   0  0  0  0  0  0  0  0  0  0  0  0
    9.7102   -6.1075  -12.0332 C   0  0  0  0  0  0  0  0  0  0  0  0
   11.0393   -6.6333  -12.4487 C   0  0  0  0  0  0  0  0  0  0  0  0
    7.5620   -5.5911  -11.3605 C   0  0  0  0  0  0  0  0  0  0  0  0
   11.2757   -8.1321  -12.4534 C   0  0  0  0  0  0  0  0  0  0  0  0
   12.7246   -8.5582  -12.6641 C   0  0  1  0  0  0  0  0  0  0  0  0
   13.6884   -7.4126  -12.5434 C   0  0  0  0  0  0  0  0  0  0  0  0
   13.0805   -9.6858  -11.7070 C   0  0  0  0  0  0  0  0  0  0  0  0
    8.1511   -8.0529  -11.5014 C   0  0  0  0  0  0  0  0  0  0  0  0
   13.0741  -11.5876  -13.1058 C   0  0  0  0  0  0  0  0  0  0  0  0
   12.1310  -11.6800  -10.9213 C   0  0  0  0  0  0  0  0  0  0  0  0
    6.9751   -8.5294  -12.3714 C   0  0  0  0  0  0  0  0  0  0  0  0
    6.6987  -10.0089  -12.0446 C   0  0  0  0  0  0  0  0  0  0  0  0
    5.7804  -11.8336  -13.3370 C   0  0  0  0  0  0  0  0  0  0  0  0
  1 23  1  0  0  0  0
  1 24  1  0  0  0  0
  1  2  1  0  0  0  0
  3  4  1  0  0  0  0
  3 17  1  0  0  0  0
  4  6  2  0  0  0  0
  4 13  1  0  0  0  0
  5 10  1  0  0  0  0
  5 14  2  0  0  0  0
  6  8  1  0  0  0  0
  7 12  1  0  0  0  0
  7 14  1  0  0  0  0
  7 19  1  0  0  0  0
  8 10  2  0  0  0  0
  9 14  1  0  0  0  0
 10 12  1  0  0  0  0
 11 18  1  0  0  0  0
 11 20  1  0  0  0  0
 11 21  1  0  0  0  0
 12 13  2  0  0  0  0
 13 15  1  0  0  0  0
 15 16  1  0  0  0  0
 16 17  1  0  0  0  0
 16 18  1  1  0  0  0
 19 22  1  0  0  0  0
 22 23  1  0  0  0  0
M  END
>  <CHROM.1>
-104.66700498,-119.65746822,87.97888732,67.53327359,-174.71274283,175.78124573
9.72521065,-7.95158709,-12.19446563,-2.83269487,0.06724783,0.04027259

>  <Name>
ligand

>  <RI>
0

>  <Rbt.Current_Directory>
/home/itssahil/PROJECTS/Mol_Feturizer/New_Systems/rnas/3TZR

>  <Rbt.Executable>
rbdock ($Id: //depot/dev/client3/rdock/2013.1/src/exe/rbdock.cxx#4 $)

>  <Rbt.Library>
libRbt.so (2013.1, Build901 2013/11/27)

>  <Rbt.Parameter_File>
/export/apps/rDock/src/rDock_2013.1_src/data/scripts/dock_solv.prm

>  <Rbt.Receptor>
prm/pocket_docking_6.prm

>  <SCORE>
-34.5231

>  <SCORE.INTER>
-23.8173

>  <SCORE.INTER.CONST>
1

>  <SCORE.INTER.POLAR>
0

>  <SCORE.INTER.ROT>
6

>  <SCORE.INTER.SOLV>
21.0701

>  <SCORE.INTER.VDW>
-30.5016

>  <SCORE.INTER.norm>
-0.992386

>  <SCORE.INTRA>
-10.7058

>  <SCORE.INTRA.DIHEDRAL>
-0.230645

>  <SCORE.INTRA.DIHEDRAL.0>
4.94008

>  <SCORE.INTRA.POLAR>
0

>  <SCORE.INTRA.POLAR.0>
0

>  <SCORE.INTRA.REPUL>
0

>  <SCORE.INTRA.REPUL.0>
0

>  <SCORE.INTRA.SOLV>
0.796093

>  <SCORE.INTRA.SOLV.lig_0>
-31.4704

>  <SCORE.INTRA.VDW>
-10.9886

>  <SCORE.INTRA.VDW.0>
10.2807

>  <SCORE.INTRA.norm>
-0.446076

>  <SCORE.RESTR>
0

>  <SCORE.RESTR.CAVITY>
0

>  <SCORE.RESTR.norm>
0

>  <SCORE.SYSTEM>
0

>  <SCORE.SYSTEM.CONST>
0

>  <SCORE.SYSTEM.DIHEDRAL>
0

>  <SCORE.SYSTEM.SOLV>
0

>  <SCORE.SYSTEM.norm>
0

>  <SCORE.heavy>
24

>  <SCORE.norm>
-1.43846

>  <RMSD>
1.579

$$$$
ligand
 OpenBabel11021811493D
libRbt.so/2013.1/901 2013/11/27
 24 26  0  0  0  0  0  0  0  0999 V2000
    5.6840  -10.6050  -12.8255 N   0  0  0  0  0  0  0  0  0  0  0  0
    4.8392  -11.4882  -12.0377 C   0  0  0  0  0  0  0  0  0  0  0  0
   13.2548   -6.3600  -13.2062 O   0  0  0  0  0  0  0  0  0  0  0  0
   12.0299   -5.8348  -12.8168 C   0  0  0  0  0  0  0  0  0  0  0  0
    8.1825   -4.3942  -11.6414 N   0  0  0  0  0  0  0  0  0  0  0  0
   11.7719   -4.3515  -12.8358 C   0  0  0  0  0  0  0  0  0  0  0  0
    8.4824   -6.6191  -11.5660 N   0  0  0  0  0  0  0  0  0  0  0  0
   10.5086   -3.7866  -12.4657 C   0  0  0  0  0  0  0  0  0  0  0  0
    6.2361   -5.7504  -10.8760 N   0  0  0  0  0  0  0  0  0  0  0  0
    9.4844   -4.7112  -12.0537 C   0  0  0  0  0  0  0  0  0  0  0  0
   12.3006  -10.8879  -11.9605 N   0  0  0  0  0  0  0  0  0  0  0  0
    9.7225   -6.1293  -12.0163 C   0  0  0  0  0  0  0  0  0  0  0  0
   11.0477   -6.6733  -12.4209 C   0  0  0  0  0  0  0  0  0  0  0  0
    7.5791   -5.5835  -11.3518 C   0  0  0  0  0  0  0  0  0  0  0  0
   11.2767   -8.1727  -12.3841 C   0  0  0  0  0  0  0  0  0  0  0  0
   12.7229   -8.6119  -12.5870 C   0  0  1  0  0  0  0  0  0  0  0  0
   13.6926   -7.4681  -12.5017 C   0  0  0  0  0  0  0  0  0  0  0  0
   13.0763   -9.7137  -11.5996 C   0  0  0  0  0  0  0  0  0  0  0  0
    8.1556   -8.0511  -11.4250 C   0  0  0  0  0  0  0  0  0  0  0  0
   13.0635  -11.6661  -12.9270 C   0  0  0  0  0  0  0  0  0  0  0  0
   12.0999  -11.6682  -10.7495 C   0  0  0  0  0  0  0  0  0  0  0  0
    7.0556   -8.5733  -12.3653 C   0  0  0  0  0  0  0  0  0  0  0  0
    6.7463  -10.0335  -11.9856 C   0  0  0  0  0  0  0  0  0  0  0  0
    6.2409  -11.3775  -13.9303 C   0  0  0  0  0  0  0  0  0  0  0  0
  1 23  1  0  0  0  0
  1 24  1  0  0  0  0
  1  2  1  0  0  0  0
  3  4  1  0  0  0  0
  3 17  1  0  0  0  0
  4  6  2  0  0  0  0
  4 13  1  0  0  0  0
  5 10  1  0  0  0  0
  5 14  2  0  0  0  0
  6  8  1  0  0  0  0
  7 12  1  0  0  0  0
  7 14  1  0  0  0  0
  7 19  1  0  0  0  0
  8 10  2  0  0  0  0
  9 14  1  0  0  0  0
 10 12  1  0  0  0  0
 11 18  1  0  0  0  0
 11 20  1  0  0  0  0
 11 21  1  0  0  0  0
 12 13  2  0  0  0  0
 13 15  1  0  0  0  0
 15 16  1  0  0  0  0
 16 17  1  0  0  0  0
 16 18  1  1  0  0  0
 19 22  1  0  0  0  0
 22 23  1  0  0  0  0
M  END
>  <CHROM.1>
-143.19588015,-114.60160912,88.90906979,67.47502094,-174.30476299,179.04743307
9.78370479,-7.99914582,-12.19256191,-2.75885299,0.04379555,0.03774299

>  <Name>
ligand

>  <RI>
0

>  <Rbt.Current_Directory>
/home/itssahil/PROJECTS/Mol_Feturizer/New_Systems/rnas/3TZR

>  <Rbt.Executable>
rbdock ($Id: //depot/dev/client3/rdock/2013.1/src/exe/rbdock.cxx#4 $)

>  <Rbt.Library>
libRbt.so (2013.1, Build901 2013/11/27)

>  <Rbt.Parameter_File>
/export/apps/rDock/src/rDock_2013.1_src/data/scripts/dock_solv.prm

>  <Rbt.Receptor>
prm/pocket_docking_6.prm

>  <SCORE>
-34.4326

>  <SCORE.INTER>
-23.4372

>  <SCORE.INTER.CONST>
1

>  <SCORE.INTER.POLAR>
0

>  <SCORE.INTER.ROT>
6

>  <SCORE.INTER.SOLV>
20.8755

>  <SCORE.INTER.VDW>
-30.1833

>  <SCORE.INTER.norm>
-0.976548

>  <SCORE.INTRA>
-10.9954

>  <SCORE.INTRA.DIHEDRAL>
-0.669274

>  <SCORE.INTRA.DIHEDRAL.0>
4.94008

>  <SCORE.INTRA.POLAR>
0

>  <SCORE.INTRA.POLAR.0>
0

>  <SCORE.INTRA.REPUL>
0

>  <SCORE.INTRA.REPUL.0>
0

>  <SCORE.INTRA.SOLV>
0.659148

>  <SCORE.INTRA.SOLV.lig_0>
-31.4704

>  <SCORE.INTRA.VDW>
-10.9904

>  <SCORE.INTRA.VDW.0>
10.2807

>  <SCORE.INTRA.norm>
-0.458142

>  <SCORE.RESTR>
0

>  <SCORE.RESTR.CAVITY>
0

>  <SCORE.RESTR.norm>
0

>  <SCORE.SYSTEM>
0

>  <SCORE.SYSTEM.CONST>
0

>  <SCORE.SYSTEM.DIHEDRAL>
0

>  <SCORE.SYSTEM.SOLV>
0

>  <SCORE.SYSTEM.norm>
0

>  <SCORE.heavy>
24

>  <SCORE.norm>
-1.43469

>  <RMSD>
1.580

$$$$
ligand
 OpenBabel11021811493D
libRbt.so/2013.1/901 2013/11/27
 24 26  0  0  0  0  0  0  0  0999 V2000
    5.6403  -10.5926  -12.8590 N   0  0  0  0  0  0  0  0  0  0  0  0
    4.4901  -10.6572  -11.9718 C   0  0  0  0  0  0  0  0  0  0  0  0
   13.2383   -6.2901  -13.2081 O   0  0  0  0  0  0  0  0  0  0  0  0
   12.0081   -5.7850  -12.8089 C   0  0  0  0  0  0  0  0  0  0  0  0
    8.1460   -4.4065  -11.6077 N   0  0  0  0  0  0  0  0  0  0  0  0
   11.7376   -4.3040  -12.7917 C   0  0  0  0  0  0  0  0  0  0  0  0
    8.4646   -6.6299  -11.5866 N   0  0  0  0  0  0  0  0  0  0  0  0
   10.4687   -3.7590  -12.4110 C   0  0  0  0  0  0  0  0  0  0  0  0
    6.2095   -5.7975  -10.8810 N   0  0  0  0  0  0  0  0  0  0  0  0
    9.4515   -4.7022  -12.0245 C   0  0  0  0  0  0  0  0  0  0  0  0
   12.3459  -10.8649  -12.0982 N   0  0  0  0  0  0  0  0  0  0  0  0
    9.7015   -6.1187  -12.0217 C   0  0  0  0  0  0  0  0  0  0  0  0
   11.0321   -6.6413  -12.4363 C   0  0  0  0  0  0  0  0  0  0  0  0
    7.5520   -5.6075  -11.3491 C   0  0  0  0  0  0  0  0  0  0  0  0
   11.2738   -8.1392  -12.4360 C   0  0  0  0  0  0  0  0  0  0  0  0
   12.7241   -8.5610  -12.6462 C   0  0  1  0  0  0  0  0  0  0  0  0
   13.6839   -7.4115  -12.5302 C   0  0  0  0  0  0  0  0  0  0  0  0
   13.0846   -9.6839  -11.6854 C   0  0  0  0  0  0  0  0  0  0  0  0
    8.1496   -8.0676  -11.4820 C   0  0  0  0  0  0  0  0  0  0  0  0
   13.1543  -11.6025  -13.0596 C   0  0  0  0  0  0  0  0  0  0  0  0
   12.1261  -11.6791  -10.9132 C   0  0  0  0  0  0  0  0  0  0  0  0
    7.0122   -8.5626  -12.3920 C   0  0  0  0  0  0  0  0  0  0  0  0
    6.8098  -10.0685  -12.1394 C   0  0  0  0  0  0  0  0  0  0  0  0
    5.8924  -11.9345  -13.3721 C   0  0  0  0  0  0  0  0  0  0  0  0
  1 23  1  0  0  0  0
  1 24  1  0  0  0  0
  1  2  1  0  0  0  0
  3  4  1  0  0  0  0
  3 17  1  0  0  0  0
  4  6  2  0  0  0  0
  4 13  1  0  0  0  0
  5 10  1  0  0  0  0
  5 14  2  0  0  0  0
  6  8  1  0  0  0  0
  7 12  1  0  0  0  0
  7 14  1  0  0  0  0
  7 19  1  0  0  0  0
  8 10  2  0  0  0  0
  9 14  1  0  0  0  0
 10 12  1  0  0  0  0
 11 18  1  0  0  0  0
 11 20  1  0  0  0  0
 11 21  1  0  0  0  0
 12 13  2  0  0  0  0
 13 15  1  0  0  0  0
 15 16  1  0  0  0  0
 16 17  1  0  0  0  0
 16 18  1  1  0  0  0
 19 22  1  0  0  0  0
 22 23  1  0  0  0  0
M  END
>  <CHROM.1>
-97.80573269,-117.27315005,89.57824997,68.91987366,-179.27254250,173.61197497
9.74629247,-7.97120090,-12.19988956,-2.81934644,0.05967702,0.04584866

>  <Name>
ligand

>  <RI>
0

>  <Rbt.Current_Directory>
/home/itssahil/PROJECTS/Mol_Feturizer/New_Systems/rnas/3TZR

>  <Rbt.Executable>
rbdock ($Id: //depot/dev/client3/rdock/2013.1/src/exe/rbdock.cxx#4 $)

>  <Rbt.Library>
libRbt.so (2013.1, Build901 2013/11/27)

>  <Rbt.Parameter_File>
/export/apps/rDock/src/rDock_2013.1_src/data/scripts/dock_solv.prm

>  <Rbt.Receptor>
prm/blind_docking_80.prm

>  <SCORE>
-34.508

>  <SCORE.INTER>
-23.5999

>  <SCORE.INTER.CONST>
1

>  <SCORE.INTER.POLAR>
0

>  <SCORE.INTER.ROT>
6

>  <SCORE.INTER.SOLV>
20.9883

>  <SCORE.INTER.VDW>
-30.3294

>  <SCORE.INTER.norm>
-0.983331

>  <SCORE.INTRA>
-10.9081

>  <SCORE.INTRA.DIHEDRAL>
-0.446324

>  <SCORE.INTRA.DIHEDRAL.0>
4.94008

>  <SCORE.INTRA.POLAR>
0

>  <SCORE.INTRA.POLAR.0>
0

>  <SCORE.INTRA.REPUL>
0

>  <SCORE.INTRA.REPUL.0>
0

>  <SCORE.INTRA.SOLV>
0.667812

>  <SCORE.INTRA.SOLV.lig_0>
-31.4704

>  <SCORE.INTRA.VDW>
-11.0188

>  <SCORE.INTRA.VDW.0>
10.2807

>  <SCORE.INTRA.norm>
-0.454503

>  <SCORE.RESTR>
0

>  <SCORE.RESTR.CAVITY>
0

>  <SCORE.RESTR.norm>
0

>  <SCORE.SYSTEM>
0

>  <SCORE.SYSTEM.CONST>
0

>  <SCORE.SYSTEM.DIHEDRAL>
0

>  <SCORE.SYSTEM.SOLV>
0

>  <SCORE.SYSTEM.norm>
0

>  <SCORE.heavy>
24

>  <SCORE.norm>
-1.43783

>  <RMSD>
1.582

$$$$
ligand
 OpenBabel11021811493D
libRbt.so/2013.1/901 2013/11/27
 24 26  0  0  0  0  0  0  0  0999 V2000
    5.6614  -10.5545  -12.8825 N   0  0  0  0  0  0  0  0  0  0  0  0
    4.4992  -10.7685  -12.0353 C   0  0  0  0  0  0  0  0  0  0  0  0
   13.2351   -6.3423  -13.2053 O   0  0  0  0  0  0  0  0  0  0  0  0
   12.0116   -5.8164  -12.8125 C   0  0  0  0  0  0  0  0  0  0  0  0
    8.1680   -4.3735  -11.6279 N   0  0  0  0  0  0  0  0  0  0  0  0
   11.7579   -4.3323  -12.8206 C   0  0  0  0  0  0  0  0  0  0  0  0
    8.4615   -6.5997  -11.5686 N   0  0  0  0  0  0  0  0  0  0  0  0
   10.4960   -3.7665  -12.4469 C   0  0  0  0  0  0  0  0  0  0  0  0
    6.2174   -5.7296  -10.8731 N   0  0  0  0  0  0  0  0  0  0  0  0
    9.4691   -4.6912  -12.0420 C   0  0  0  0  0  0  0  0  0  0  0  0
   12.2957  -10.8875  -12.0156 N   0  0  0  0  0  0  0  0  0  0  0  0
    9.7031   -6.1102  -12.0149 C   0  0  0  0  0  0  0  0  0  0  0  0
   11.0269   -6.6550  -12.4230 C   0  0  0  0  0  0  0  0  0  0  0  0
    7.5610   -5.5630  -11.3472 C   0  0  0  0  0  0  0  0  0  0  0  0
   11.2516   -8.1553  -12.3971 C   0  0  0  0  0  0  0  0  0  0  0  0
   12.6965   -8.5971  -12.6028 C   0  0  1  0  0  0  0  0  0  0  0  0
   13.6695   -7.4567  -12.5088 C   0  0  0  0  0  0  0  0  0  0  0  0
   13.0464   -9.7071  -11.6233 C   0  0  0  0  0  0  0  0  0  0  0  0
    8.1305   -8.0317  -11.4382 C   0  0  0  0  0  0  0  0  0  0  0  0
   13.0964  -11.6496  -12.9643 C   0  0  0  0  0  0  0  0  0  0  0  0
   12.0681  -11.6790  -10.8168 C   0  0  0  0  0  0  0  0  0  0  0  0
    7.1095   -8.5690  -12.4559 C   0  0  0  0  0  0  0  0  0  0  0  0
    6.7807  -10.0281  -12.0884 C   0  0  0  0  0  0  0  0  0  0  0  0
    6.0075  -11.8267  -13.5064 C   0  0  0  0  0  0  0  0  0  0  0  0
  1 23  1  0  0  0  0
  1 24  1  0  0  0  0
  1  2  1  0  0  0  0
  3  4  1  0  0  0  0
  3 17  1  0  0  0  0
  4  6  2  0  0  0  0
  4 13  1  0  0  0  0
  5 10  1  0  0  0  0
  5 14  2  0  0  0  0
  6  8  1  0  0  0  0
  7 12  1  0  0  0  0
  7 14  1  0  0  0  0
  7 19  1  0  0  0  0
  8 10  2  0  0  0  0
  9 14  1  0  0  0  0
 10 12  1  0  0  0  0
 11 18  1  0  0  0  0
 11 20  1  0  0  0  0
 11 21  1  0  0  0  0
 12 13  2  0  0  0  0
 13 15  1  0  0  0  0
 15 16  1  0  0  0  0
 16 17  1  0  0  0  0
 16 18  1  1  0  0  0
 19 22  1  0  0  0  0
 22 23  1  0  0  0  0
M  END
>  <CHROM.1>
-111.56050579,-110.00635974,89.60080014,69.03922580,-174.47519440,171.25035805
9.74694618,-7.97247978,-12.19131838,-2.81197692,0.04939141,0.04092455

>  <Name>
ligand

>  <RI>
144

>  <Rbt.Current_Directory>
/home/itssahil/PROJECTS/Mol_Feturizer/New_Systems/rnas/3TZR

>  <Rbt.Executable>
rbdock ($Id: //depot/dev/client3/rdock/2013.1/src/exe/rbdock.cxx#4 $)

>  <Rbt.Library>
libRbt.so (2013.1, Build901 2013/11/27)

>  <Rbt.Parameter_File>
/export/apps/rDock/src/rDock_2013.1_src/data/scripts/dock_solv.prm

>  <Rbt.Receptor>
prm/pocket_docking_8.prm

>  <SCORE>
-34.3765

>  <SCORE.INTER>
-23.595

>  <SCORE.INTER.CONST>
1

>  <SCORE.INTER.POLAR>
0

>  <SCORE.INTER.ROT>
6

>  <SCORE.INTER.SOLV>
21.175

>  <SCORE.INTER.VDW>
-30.3884

>  <SCORE.INTER.norm>
-0.983126

>  <SCORE.INTRA>
-10.7815

>  <SCORE.INTRA.DIHEDRAL>
0.366254

>  <SCORE.INTRA.DIHEDRAL.0>
4.94008

>  <SCORE.INTRA.POLAR>
0

>  <SCORE.INTRA.POLAR.0>
0

>  <SCORE.INTRA.REPUL>
0

>  <SCORE.INTRA.REPUL.0>
0

>  <SCORE.INTRA.SOLV>
0.523373

>  <SCORE.INTRA.SOLV.lig_0>
-31.4704

>  <SCORE.INTRA.VDW>
-11.2263

>  <SCORE.INTRA.VDW.0>
10.2807

>  <SCORE.INTRA.norm>
-0.449228

>  <SCORE.RESTR>
0

>  <SCORE.RESTR.CAVITY>
0

>  <SCORE.RESTR.norm>
0

>  <SCORE.SYSTEM>
0

>  <SCORE.SYSTEM.CONST>
0

>  <SCORE.SYSTEM.DIHEDRAL>
0

>  <SCORE.SYSTEM.SOLV>
0

>  <SCORE.SYSTEM.norm>
0

>  <SCORE.heavy>
24

>  <SCORE.norm>
-1.43235

>  <RMSD>
1.588

$$$$
ligand
 OpenBabel11021811493D
libRbt.so/2013.1/901 2013/11/27
 24 26  0  0  0  0  0  0  0  0999 V2000
    5.6358  -10.5783  -12.8932 N   0  0  0  0  0  0  0  0  0  0  0  0
    4.4253  -10.6319  -12.0895 C   0  0  0  0  0  0  0  0  0  0  0  0
   13.2373   -6.3269  -13.2035 O   0  0  0  0  0  0  0  0  0  0  0  0
   12.0105   -5.8115  -12.8072 C   0  0  0  0  0  0  0  0  0  0  0  0
    8.1575   -4.4006  -11.6144 N   0  0  0  0  0  0  0  0  0  0  0  0
   11.7508   -4.3285  -12.7954 C   0  0  0  0  0  0  0  0  0  0  0  0
    8.4598   -6.6262  -11.5853 N   0  0  0  0  0  0  0  0  0  0  0  0
   10.4856   -3.7730  -12.4177 C   0  0  0  0  0  0  0  0  0  0  0  0
    6.2102   -5.7748  -10.8846 N   0  0  0  0  0  0  0  0  0  0  0  0
    9.4612   -4.7073  -12.0289 C   0  0  0  0  0  0  0  0  0  0  0  0
   12.2960  -10.8859  -12.0670 N   0  0  0  0  0  0  0  0  0  0  0  0
    9.7008   -6.1255  -12.0209 C   0  0  0  0  0  0  0  0  0  0  0  0
   11.0280   -6.6593  -12.4325 C   0  0  0  0  0  0  0  0  0  0  0  0
    7.5545   -5.5963  -11.3522 C   0  0  0  0  0  0  0  0  0  0  0  0
   11.2586   -8.1590  -12.4268 C   0  0  0  0  0  0  0  0  0  0  0  0
   12.7060   -8.5921  -12.6342 C   0  0  1  0  0  0  0  0  0  0  0  0
   13.6741   -7.4493  -12.5213 C   0  0  0  0  0  0  0  0  0  0  0  0
   13.0574   -9.7143  -11.6692 C   0  0  0  0  0  0  0  0  0  0  0  0
    8.1342   -8.0612  -11.4759 C   0  0  0  0  0  0  0  0  0  0  0  0
   13.1022  -11.6671  -12.9952 C   0  0  0  0  0  0  0  0  0  0  0  0
   12.0340  -11.6649  -10.8670 C   0  0  0  0  0  0  0  0  0  0  0  0
    7.0137   -8.5571  -12.4061 C   0  0  0  0  0  0  0  0  0  0  0  0
    6.7511  -10.0434  -12.0992 C   0  0  0  0  0  0  0  0  0  0  0  0
    5.9238  -11.9268  -13.3687 C   0  0  0  0  0  0  0  0  0  0  0  0
  1 23  1  0  0  0  0
  1 24  1  0  0  0  0
  1  2  1  0  0  0  0
  3  4  1  0  0  0  0
  3 17  1  0  0  0  0
  4  6  2  0  0  0  0
  4 13  1  0  0  0  0
  5 10  1  0  0  0  0
  5 14  2  0  0  0  0
  6  8  1  0  0  0  0
  7 12  1  0  0  0  0
  7 14  1  0  0  0  0
  7 19  1  0  0  0  0
  8 10  2  0  0  0  0
  9 14  1  0  0  0  0
 10 12  1  0  0  0  0
 11 18  1  0  0  0  0
 11 20  1  0  0  0  0
 11 21  1  0  0  0  0
 12 13  2  0  0  0  0
 13 15  1  0  0  0  0
 15 16  1  0  0  0  0
 16 17  1  0  0  0  0
 16 18  1  1  0  0  0
 19 22  1  0  0  0  0
 22 23  1  0  0  0  0
M  END
>  <CHROM.1>
-100.48384281,-116.06465727,91.53063174,68.12397296,-176.62636615,176.67252511
9.73145942,-7.97920110,-12.19745703,-2.81845235,0.05325088,0.04448763

>  <Name>
ligand

>  <RI>
144

>  <Rbt.Current_Directory>
/home/itssahil/PROJECTS/Mol_Feturizer/New_Systems/rnas/3TZR

>  <Rbt.Executable>
rbdock ($Id: //depot/dev/client3/rdock/2013.1/src/exe/rbdock.cxx#4 $)

>  <Rbt.Library>
libRbt.so (2013.1, Build901 2013/11/27)

>  <Rbt.Parameter_File>
/export/apps/rDock/src/rDock_2013.1_src/data/scripts/dock_solv.prm

>  <Rbt.Receptor>
prm/pocket_docking_8.prm

>  <SCORE>
-34.4538

>  <SCORE.INTER>
-23.5109

>  <SCORE.INTER.CONST>
1

>  <SCORE.INTER.POLAR>
0

>  <SCORE.INTER.ROT>
6

>  <SCORE.INTER.SOLV>
21.0235

>  <SCORE.INTER.VDW>
-30.2818

>  <SCORE.INTER.norm>
-0.979622

>  <SCORE.INTRA>
-10.9429

>  <SCORE.INTRA.DIHEDRAL>
-0.297772

>  <SCORE.INTRA.DIHEDRAL.0>
4.94008

>  <SCORE.INTRA.POLAR>
0

>  <SCORE.INTRA.POLAR.0>
0

>  <SCORE.INTRA.REPUL>
0

>  <SCORE.INTRA.REPUL.0>
0

>  <SCORE.INTRA.SOLV>
0.66847

>  <SCORE.INTRA.SOLV.lig_0>
-31.4704

>  <SCORE.INTRA.VDW>
-11.1282

>  <SCORE.INTRA.VDW.0>
10.2807

>  <SCORE.INTRA.norm>
-0.455952

>  <SCORE.RESTR>
0

>  <SCORE.RESTR.CAVITY>
0

>  <SCORE.RESTR.norm>
0

>  <SCORE.SYSTEM>
0

>  <SCORE.SYSTEM.CONST>
0

>  <SCORE.SYSTEM.DIHEDRAL>
0

>  <SCORE.SYSTEM.SOLV>
0

>  <SCORE.SYSTEM.norm>
0

>  <SCORE.heavy>
24

>  <SCORE.norm>
-1.43557

>  <RMSD>
1.590

$$$$
ligand
 OpenBabel11021811493D
libRbt.so/2013.1/901 2013/11/27
 24 26  0  0  0  0  0  0  0  0999 V2000
    8.5025   -9.9656  -10.2139 N   0  0  0  0  0  0  0  0  0  0  0  0
    8.2471  -11.3506   -9.8522 C   0  0  0  0  0  0  0  0  0  0  0  0
   13.9087   -7.7603  -13.0830 O   0  0  0  0  0  0  0  0  0  0  0  0
   12.9161   -6.8014  -12.9313 C   0  0  0  0  0  0  0  0  0  0  0  0
    9.7322   -3.9933  -12.4456 N   0  0  0  0  0  0  0  0  0  0  0  0
   13.1337   -5.3743  -13.3589 C   0  0  0  0  0  0  0  0  0  0  0  0
    9.3239   -6.0946  -11.7649 N   0  0  0  0  0  0  0  0  0  0  0  0
   12.1167   -4.3727  -13.2390 C   0  0  0  0  0  0  0  0  0  0  0  0
    7.4736   -4.4289  -11.4851 N   0  0  0  0  0  0  0  0  0  0  0  0
   10.8625   -4.7919  -12.6689 C   0  0  0  0  0  0  0  0  0  0  0  0
   12.2520  -11.6567  -11.0225 N   0  0  0  0  0  0  0  0  0  0  0  0
   10.6467   -6.1485  -12.2422 C   0  0  0  0  0  0  0  0  0  0  0  0
   11.7284   -7.1593  -12.3966 C   0  0  0  0  0  0  0  0  0  0  0  0
    8.7929   -4.8157  -11.8945 C   0  0  0  0  0  0  0  0  0  0  0  0
   11.4785   -8.5875  -11.9495 C   0  0  0  0  0  0  0  0  0  0  0  0
   12.7115   -9.4846  -11.9293 C   0  0  1  0  0  0  0  0  0  0  0  0
   13.9912   -8.7133  -12.0825 C   0  0  0  0  0  0  0  0  0  0  0  0
   12.7207  -10.3291  -10.6641 C   0  0  0  0  0  0  0  0  0  0  0  0
    8.5689   -7.2634  -11.2737 C   0  0  0  0  0  0  0  0  0  0  0  0
   13.3922  -12.4423  -11.4747 C   0  0  0  0  0  0  0  0  0  0  0  0
   11.6843  -12.2575   -9.8257 C   0  0  0  0  0  0  0  0  0  0  0  0
    8.5467   -8.4791  -12.2163 C   0  0  0  0  0  0  0  0  0  0  0  0
    7.8474   -9.6432  -11.4896 C   0  0  0  0  0  0  0  0  0  0  0  0
    8.0075   -9.1172   -9.1356 C   0  0  0  0  0  0  0  0  0  0  0  0
  1 23  1  0  0  0  0
  1 24  1  0  0  0  0
  1  2  1  0  0  0  0
  3  4  1  0  0  0  0
  3 17  1  0  0  0  0
  4  6  2  0  0  0  0
  4 13  1  0  0  0  0
  5 10  1  0  0  0  0
  5 14  2  0  0  0  0
  6  8  1  0  0  0  0
  7 12  1  0  0  0  0
  7 14  1  0  0  0  0
  7 19  1  0  0  0  0
  8 10  2  0  0  0  0
  9 14  1  0  0  0  0
 10 12  1  0  0  0  0
 11 18  1  0  0  0  0
 11 20  1  0  0  0  0
 11 21  1  0  0  0  0
 12 13  2  0  0  0  0
 13 15  1  0  0  0  0
 15 16  1  0  0  0  0
 16 17  1  0  0  0  0
 16 18  1  1  0  0  0
 19 22  1  0  0  0  0
 22 23  1  0  0  0  0
M  END
>  <CHROM.1>
-154.83993542,-51.31155926,86.88506527,100.97892879,174.23092403,-56.80020024
10.75289475,-8.09505966,-11.63874994,1.33605025,-0.29672752,2.81597738

>  <Name>
ligand

>  <RI>
0

>  <Rbt.Current_Directory>
/home/itssahil/PROJECTS/Mol_Feturizer/New_Systems/rnas/3TZR

>  <Rbt.Executable>
rbdock ($Id: //depot/dev/client3/rdock/2013.1/src/exe/rbdock.cxx#4 $)

>  <Rbt.Library>
libRbt.so (2013.1, Build901 2013/11/27)

>  <Rbt.Parameter_File>
/export/apps/rDock/src/rDock_2013.1_src/data/scripts/dock_solv.prm

>  <Rbt.Receptor>
prm/pocket_docking_3.prm

>  <SCORE>
-27.1771

>  <SCORE.INTER>
-20.65

>  <SCORE.INTER.CONST>
1

>  <SCORE.INTER.POLAR>
-0.692708

>  <SCORE.INTER.ROT>
6

>  <SCORE.INTER.SOLV>
21.7406

>  <SCORE.INTER.VDW>
-26.3045

>  <SCORE.INTER.norm>
-0.860418

>  <SCORE.INTRA>
-6.5271

>  <SCORE.INTRA.DIHEDRAL>
2.33483

>  <SCORE.INTRA.DIHEDRAL.0>
4.94008

>  <SCORE.INTRA.POLAR>
0

>  <SCORE.INTRA.POLAR.0>
0

>  <SCORE.INTRA.REPUL>
0

>  <SCORE.INTRA.REPUL.0>
0

>  <SCORE.INTRA.SOLV>
0.012022

>  <SCORE.INTRA.SOLV.lig_0>
-31.4704

>  <SCORE.INTRA.VDW>
-7.70053

>  <SCORE.INTRA.VDW.0>
10.2807

>  <SCORE.INTRA.norm>
-0.271962

>  <SCORE.RESTR>
0

>  <SCORE.RESTR.CAVITY>
0

>  <SCORE.RESTR.norm>
0

>  <SCORE.SYSTEM>
0

>  <SCORE.SYSTEM.CONST>
0

>  <SCORE.SYSTEM.DIHEDRAL>
0

>  <SCORE.SYSTEM.SOLV>
0

>  <SCORE.SYSTEM.norm>
0

>  <SCORE.heavy>
24

>  <SCORE.norm>
-1.13238

>  <RMSD>
1.593

$$$$
ligand
 OpenBabel11021811493D
libRbt.so/2013.1/901 2013/11/27
 24 26  0  0  0  0  0  0  0  0999 V2000
    5.6564  -10.5604  -12.8450 N   0  0  0  0  0  0  0  0  0  0  0  0
    4.7384  -11.3310  -12.0217 C   0  0  0  0  0  0  0  0  0  0  0  0
   13.2512   -6.3285  -13.2133 O   0  0  0  0  0  0  0  0  0  0  0  0
   12.0270   -5.8076  -12.8161 C   0  0  0  0  0  0  0  0  0  0  0  0
    8.1815   -4.3803  -11.6185 N   0  0  0  0  0  0  0  0  0  0  0  0
   11.7684   -4.3244  -12.8198 C   0  0  0  0  0  0  0  0  0  0  0  0
    8.4824   -6.6057  -11.5659 N   0  0  0  0  0  0  0  0  0  0  0  0
   10.5056   -3.7637  -12.4416 C   0  0  0  0  0  0  0  0  0  0  0  0
    6.2372   -5.7447  -10.8627 N   0  0  0  0  0  0  0  0  0  0  0  0
    9.4827   -4.6927  -12.0367 C   0  0  0  0  0  0  0  0  0  0  0  0
   12.3223  -10.8772  -12.0277 N   0  0  0  0  0  0  0  0  0  0  0  0
    9.7213   -6.1110  -12.0139 C   0  0  0  0  0  0  0  0  0  0  0  0
   11.0459   -6.6504  -12.4266 C   0  0  0  0  0  0  0  0  0  0  0  0
    7.5791   -5.5726  -11.3395 C   0  0  0  0  0  0  0  0  0  0  0  0
   11.2755   -8.1501  -12.4051 C   0  0  0  0  0  0  0  0  0  0  0  0
   12.7214   -8.5866  -12.6154 C   0  0  1  0  0  0  0  0  0  0  0  0
   13.6909   -7.4434  -12.5207 C   0  0  0  0  0  0  0  0  0  0  0  0
   13.0772   -9.6981  -11.6397 C   0  0  0  0  0  0  0  0  0  0  0  0
    8.1564   -8.0392  -11.4385 C   0  0  0  0  0  0  0  0  0  0  0  0
   13.1254  -11.6521  -12.9639 C   0  0  0  0  0  0  0  0  0  0  0  0
   12.0809  -11.6571  -10.8240 C   0  0  0  0  0  0  0  0  0  0  0  0
    7.0823   -8.5610  -12.4084 C   0  0  0  0  0  0  0  0  0  0  0  0
    6.7427  -10.0124  -12.0203 C   0  0  0  0  0  0  0  0  0  0  0  0
    6.1751  -11.4381  -13.8881 C   0  0  0  0  0  0  0  0  0  0  0  0
  1 23  1  0  0  0  0
  1 24  1  0  0  0  0
  1  2  1  0  0  0  0
  3  4  1  0  0  0  0
  3 17  1  0  0  0  0
  4  6  2  0  0  0  0
  4 13  1  0  0  0  0
  5 10  1  0  0  0  0
  5 14  2  0  0  0  0
  6  8  1  0  0  0  0
  7 12  1  0  0  0  0
  7 14  1  0  0  0  0
  7 19  1  0  0  0  0
  8 10  2  0  0  0  0
  9 14  1  0  0  0  0
 10 12  1  0  0  0  0
 11 18  1  0  0  0  0
 11 20  1  0  0  0  0
 11 21  1  0  0  0  0
 12 13  2  0  0  0  0
 13 15  1  0  0  0  0
 15 16  1  0  0  0  0
 16 17  1  0  0  0  0
 16 18  1  1  0  0  0
 19 22  1  0  0  0  0
 22 23  1  0  0  0  0
M  END
>  <CHROM.1>
-138.51281467,-112.97664672,90.65248674,68.64863085,-172.93413240,176.24713457
9.77796762,-7.97717988,-12.20352093,-2.77927079,0.04838541,0.04575301

>  <Name>
ligand

>  <RI>
0

>  <Rbt.Current_Directory>
/home/itssahil/PROJECTS/Mol_Feturizer/New_Systems/rnas/3TZR

>  <Rbt.Executable>
rbdock ($Id: //depot/dev/client3/rdock/2013.1/src/exe/rbdock.cxx#4 $)

>  <Rbt.Library>
libRbt.so (2013.1, Build901 2013/11/27)

>  <Rbt.Parameter_File>
/export/apps/rDock/src/rDock_2013.1_src/data/scripts/dock_solv.prm

>  <Rbt.Receptor>
prm/pocket_docking_4.prm

>  <SCORE>
-34.3819

>  <SCORE.INTER>
-23.4736

>  <SCORE.INTER.CONST>
1

>  <SCORE.INTER.POLAR>
0

>  <SCORE.INTER.ROT>
6

>  <SCORE.INTER.SOLV>
21.0437

>  <SCORE.INTER.VDW>
-30.2636

>  <SCORE.INTER.norm>
-0.978067

>  <SCORE.INTRA>
-10.9083

>  <SCORE.INTRA.DIHEDRAL>
-0.133639

>  <SCORE.INTRA.DIHEDRAL.0>
4.94008

>  <SCORE.INTRA.POLAR>
0

>  <SCORE.INTRA.POLAR.0>
0

>  <SCORE.INTRA.REPUL>
0

>  <SCORE.INTRA.REPUL.0>
0

>  <SCORE.INTRA.SOLV>
0.630885

>  <SCORE.INTRA.SOLV.lig_0>
-31.4704

>  <SCORE.INTRA.VDW>
-11.1569

>  <SCORE.INTRA.VDW.0>
10.2807

>  <SCORE.INTRA.norm>
-0.454512

>  <SCORE.RESTR>
0

>  <SCORE.RESTR.CAVITY>
0

>  <SCORE.RESTR.norm>
0

>  <SCORE.SYSTEM>
0

>  <SCORE.SYSTEM.CONST>
0

>  <SCORE.SYSTEM.DIHEDRAL>
0

>  <SCORE.SYSTEM.SOLV>
0

>  <SCORE.SYSTEM.norm>
0

>  <SCORE.heavy>
24

>  <SCORE.norm>
-1.43258

>  <RMSD>
1.594

$$$$
ligand
 OpenBabel11021811493D
libRbt.so/2013.1/901 2013/11/27
 24 26  0  0  0  0  0  0  0  0999 V2000
    5.6216  -10.5480  -12.8663 N   0  0  0  0  0  0  0  0  0  0  0  0
    4.4636  -10.6849  -11.9976 C   0  0  0  0  0  0  0  0  0  0  0  0
   13.2573   -6.2929  -13.2198 O   0  0  0  0  0  0  0  0  0  0  0  0
   12.0301   -5.7813  -12.8197 C   0  0  0  0  0  0  0  0  0  0  0  0
    8.1760   -4.3823  -11.6163 N   0  0  0  0  0  0  0  0  0  0  0  0
   11.7680   -4.2988  -12.8006 C   0  0  0  0  0  0  0  0  0  0  0  0
    8.4819   -6.6076  -11.5983 N   0  0  0  0  0  0  0  0  0  0  0  0
   10.5023   -3.7471  -12.4189 C   0  0  0  0  0  0  0  0  0  0  0  0
    6.2316   -5.7632  -10.8913 N   0  0  0  0  0  0  0  0  0  0  0  0
    9.4798   -4.6849  -12.0337 C   0  0  0  0  0  0  0  0  0  0  0  0
   12.3324  -10.8617  -12.1108 N   0  0  0  0  0  0  0  0  0  0  0  0
    9.7216   -6.1029  -12.0327 C   0  0  0  0  0  0  0  0  0  0  0  0
   11.0493   -6.6325  -12.4482 C   0  0  0  0  0  0  0  0  0  0  0  0
    7.5752   -5.5803  -11.3593 C   0  0  0  0  0  0  0  0  0  0  0  0
   11.2823   -8.1318  -12.4499 C   0  0  0  0  0  0  0  0  0  0  0  0
   12.7302   -8.5616  -12.6608 C   0  0  1  0  0  0  0  0  0  0  0  0
   13.6966   -7.4178  -12.5434 C   0  0  0  0  0  0  0  0  0  0  0  0
   13.0843   -9.6879  -11.7016 C   0  0  0  0  0  0  0  0  0  0  0  0
    8.1587   -8.0437  -11.4955 C   0  0  0  0  0  0  0  0  0  0  0  0
   13.1858  -11.6849  -12.9569 C   0  0  0  0  0  0  0  0  0  0  0  0
   11.9790  -11.5961  -10.9061 C   0  0  0  0  0  0  0  0  0  0  0  0
    6.9974   -8.5245  -12.3826 C   0  0  0  0  0  0  0  0  0  0  0  0
    6.7668  -10.0226  -12.1094 C   0  0  0  0  0  0  0  0  0  0  0  0
    5.9190  -11.8579  -13.4345 C   0  0  0  0  0  0  0  0  0  0  0  0
  1 23  1  0  0  0  0
  1 24  1  0  0  0  0
  1  2  1  0  0  0  0
  3  4  1  0  0  0  0
  3 17  1  0  0  0  0
  4  6  2  0  0  0  0
  4 13  1  0  0  0  0
  5 10  1  0  0  0  0
  5 14  2  0  0  0  0
  6  8  1  0  0  0  0
  7 12  1  0  0  0  0
  7 14  1  0  0  0  0
  7 19  1  0  0  0  0
  8 10  2  0  0  0  0
  9 14  1  0  0  0  0
 10 12  1  0  0  0  0
 11 18  1  0  0  0  0
 11 20  1  0  0  0  0
 11 21  1  0  0  0  0
 12 13  2  0  0  0  0
 13 15  1  0  0  0  0
 15 16  1  0  0  0  0
 16 17  1  0  0  0  0
 16 18  1  1  0  0  0
 19 22  1  0  0  0  0
 22 23  1  0  0  0  0
M  END
>  <CHROM.1>
-102.44917632,-118.59784417,95.92658365,68.56533544,-177.89349414,176.91047051
9.74895746,-7.95580889,-12.20553080,-2.81620973,0.05805052,0.04468579

>  <Name>
ligand

>  <RI>
0

>  <Rbt.Current_Directory>
/home/itssahil/PROJECTS/Mol_Feturizer/New_Systems/rnas/3TZR

>  <Rbt.Executable>
rbdock ($Id: //depot/dev/client3/rdock/2013.1/src/exe/rbdock.cxx#4 $)

>  <Rbt.Library>
libRbt.so (2013.1, Build901 2013/11/27)

>  <Rbt.Parameter_File>
/export/apps/rDock/src/rDock_2013.1_src/data/scripts/dock_solv.prm

>  <Rbt.Receptor>
prm/blind_docking_40.prm

>  <SCORE>
-34.4656

>  <SCORE.INTER>
-23.6318

>  <SCORE.INTER.CONST>
1

>  <SCORE.INTER.POLAR>
0

>  <SCORE.INTER.ROT>
6

>  <SCORE.INTER.SOLV>
21.0641

>  <SCORE.INTER.VDW>
-30.3759

>  <SCORE.INTER.norm>
-0.98466

>  <SCORE.INTRA>
-10.8338

>  <SCORE.INTRA.DIHEDRAL>
0.0861062

>  <SCORE.INTRA.DIHEDRAL.0>
4.94008

>  <SCORE.INTRA.POLAR>
0

>  <SCORE.INTRA.POLAR.0>
0

>  <SCORE.INTRA.REPUL>
0

>  <SCORE.INTRA.REPUL.0>
0

>  <SCORE.INTRA.SOLV>
0.723138

>  <SCORE.INTRA.SOLV.lig_0>
-31.4704

>  <SCORE.INTRA.VDW>
-11.2384

>  <SCORE.INTRA.VDW.0>
10.2807

>  <SCORE.INTRA.norm>
-0.451407

>  <SCORE.RESTR>
0

>  <SCORE.RESTR.CAVITY>
0

>  <SCORE.RESTR.norm>
0

>  <SCORE.SYSTEM>
0

>  <SCORE.SYSTEM.CONST>
0

>  <SCORE.SYSTEM.DIHEDRAL>
0

>  <SCORE.SYSTEM.SOLV>
0

>  <SCORE.SYSTEM.norm>
0

>  <SCORE.heavy>
24

>  <SCORE.norm>
-1.43607

>  <RMSD>
1.598

$$$$
ligand
 OpenBabel11021811493D
libRbt.so/2013.1/901 2013/11/27
 24 26  0  0  0  0  0  0  0  0999 V2000
    7.1321  -10.3800  -11.4704 N   0  0  0  0  0  0  0  0  0  0  0  0
    6.2646  -10.1177  -12.6075 C   0  0  0  0  0  0  0  0  0  0  0  0
   13.9021   -8.4256  -13.0957 O   0  0  0  0  0  0  0  0  0  0  0  0
   13.0029   -7.4018  -12.8293 C   0  0  0  0  0  0  0  0  0  0  0  0
   10.0908   -4.3744  -12.0461 N   0  0  0  0  0  0  0  0  0  0  0  0
   13.4344   -5.9593  -12.8332 C   0  0  0  0  0  0  0  0  0  0  0  0
    9.3607   -6.4982  -12.0031 N   0  0  0  0  0  0  0  0  0  0  0  0
   12.5208   -4.8833  -12.5892 C   0  0  0  0  0  0  0  0  0  0  0  0
    7.6724   -4.7058  -11.5414 N   0  0  0  0  0  0  0  0  0  0  0  0
   11.1535   -5.2465  -12.3206 C   0  0  0  0  0  0  0  0  0  0  0  0
   13.1341  -12.2954  -11.7545 N   0  0  0  0  0  0  0  0  0  0  0  0
   10.7311   -6.6213  -12.2986 C   0  0  0  0  0  0  0  0  0  0  0  0
   11.7129   -7.7069  -12.5695 C   0  0  0  0  0  0  0  0  0  0  0  0
    8.9937   -5.1643  -11.8602 C   0  0  0  0  0  0  0  0  0  0  0  0
   11.2463   -9.1505  -12.5514 C   0  0  0  0  0  0  0  0  0  0  0  0
   12.3596  -10.1913  -12.6055 C   0  0  1  0  0  0  0  0  0  0  0  0
   13.7200   -9.5962  -12.3797 C   0  0  0  0  0  0  0  0  0  0  0  0
   12.0734  -11.3121  -11.6177 C   0  0  0  0  0  0  0  0  0  0  0  0
    8.4184   -7.6320  -11.9413 C   0  0  0  0  0  0  0  0  0  0  0  0
   13.3281  -12.9475  -10.4665 C   0  0  0  0  0  0  0  0  0  0  0  0
   12.6995  -13.2727  -12.7401 C   0  0  0  0  0  0  0  0  0  0  0  0
    8.4182   -8.4195  -10.6197 C   0  0  0  0  0  0  0  0  0  0  0  0
    7.1163   -9.2390  -10.5439 C   0  0  0  0  0  0  0  0  0  0  0  0
    6.6668  -11.5983  -10.8173 C   0  0  0  0  0  0  0  0  0  0  0  0
  1 23  1  0  0  0  0
  1 24  1  0  0  0  0
  1  2  1  0  0  0  0
  3  4  1  0  0  0  0
  3 17  1  0  0  0  0
  4  6  2  0  0  0  0
  4 13  1  0  0  0  0
  5 10  1  0  0  0  0
  5 14  2  0  0  0  0
  6  8  1  0  0  0  0
  7 12  1  0  0  0  0
  7 14  1  0  0  0  0
  7 19  1  0  0  0  0
  8 10  2  0  0  0  0
  9 14  1  0  0  0  0
 10 12  1  0  0  0  0
 11 18  1  0  0  0  0
 11 20  1  0  0  0  0
 11 21  1  0  0  0  0
 12 13  2  0  0  0  0
 13 15  1  0  0  0  0
 15 16  1  0  0  0  0
 16 17  1  0  0  0  0
 16 18  1  1  0  0  0
 19 22  1  0  0  0  0
 22 23  1  0  0  0  0
M  END
>  <CHROM.1>
-106.04513160,81.81379266,150.04729821,177.67411992,162.06334186,72.72778126
10.59122330,-8.60233537,-11.98465273,2.14089590,0.17093857,-0.10370056

>  <Name>
ligand

>  <RI>
0

>  <Rbt.Current_Directory>
/home/itssahil/PROJECTS/Mol_Feturizer/New_Systems/rnas/3TZR

>  <Rbt.Executable>
rbdock ($Id: //depot/dev/client3/rdock/2013.1/src/exe/rbdock.cxx#4 $)

>  <Rbt.Library>
libRbt.so (2013.1, Build901 2013/11/27)

>  <Rbt.Parameter_File>
/export/apps/rDock/src/rDock_2013.1_src/data/scripts/dock_solv.prm

>  <Rbt.Receptor>
prm/pocket_docking_4.prm

>  <SCORE>
-32.555

>  <SCORE.INTER>
-22.3375

>  <SCORE.INTER.CONST>
1

>  <SCORE.INTER.POLAR>
0

>  <SCORE.INTER.ROT>
6

>  <SCORE.INTER.SOLV>
20.4789

>  <SCORE.INTER.VDW>
-29.318

>  <SCORE.INTER.norm>
-0.930729

>  <SCORE.INTRA>
-10.2428

>  <SCORE.INTRA.DIHEDRAL>
1.52997

>  <SCORE.INTRA.DIHEDRAL.0>
4.94008

>  <SCORE.INTRA.POLAR>
0

>  <SCORE.INTRA.POLAR.0>
0

>  <SCORE.INTRA.REPUL>
0

>  <SCORE.INTRA.REPUL.0>
0

>  <SCORE.INTRA.SOLV>
0.0340349

>  <SCORE.INTRA.SOLV.lig_0>
-31.4704

>  <SCORE.INTRA.VDW>
-11.0248

>  <SCORE.INTRA.VDW.0>
10.2807

>  <SCORE.INTRA.norm>
-0.426785

>  <SCORE.RESTR>
0.0253068

>  <SCORE.RESTR.CAVITY>
0.0253068

>  <SCORE.RESTR.norm>
0.00105445

>  <SCORE.SYSTEM>
0

>  <SCORE.SYSTEM.CONST>
0

>  <SCORE.SYSTEM.DIHEDRAL>
0

>  <SCORE.SYSTEM.SOLV>
0

>  <SCORE.SYSTEM.norm>
0

>  <SCORE.heavy>
24

>  <SCORE.norm>
-1.35646

>  <RMSD>
1.598

$$$$
ligand
 OpenBabel11021811493D
libRbt.so/2013.1/901 2013/11/27
 24 26  0  0  0  0  0  0  0  0999 V2000
    5.6632  -10.5880  -12.9044 N   0  0  0  0  0  0  0  0  0  0  0  0
    4.8033  -11.4574  -12.1177 C   0  0  0  0  0  0  0  0  0  0  0  0
   13.2533   -6.3360  -13.1615 O   0  0  0  0  0  0  0  0  0  0  0  0
   12.0238   -5.8194  -12.7752 C   0  0  0  0  0  0  0  0  0  0  0  0
    8.1628   -4.4051  -11.6129 N   0  0  0  0  0  0  0  0  0  0  0  0
   11.7634   -4.3365  -12.7715 C   0  0  0  0  0  0  0  0  0  0  0  0
    8.4658   -6.6305  -11.5722 N   0  0  0  0  0  0  0  0  0  0  0  0
   10.4956   -3.7799  -12.4042 C   0  0  0  0  0  0  0  0  0  0  0  0
    6.2114   -5.7771  -10.8894 N   0  0  0  0  0  0  0  0  0  0  0  0
    9.4691   -4.7130  -12.0178 C   0  0  0  0  0  0  0  0  0  0  0  0
   12.3620  -10.9097  -12.0531 N   0  0  0  0  0  0  0  0  0  0  0  0
    9.7093   -6.1312  -12.0022 C   0  0  0  0  0  0  0  0  0  0  0  0
   11.0393   -6.6661  -12.4030 C   0  0  0  0  0  0  0  0  0  0  0  0
    7.5586   -5.6000  -11.3493 C   0  0  0  0  0  0  0  0  0  0  0  0
   11.2706   -8.1656  -12.3894 C   0  0  0  0  0  0  0  0  0  0  0  0
   12.7194   -8.5989  -12.5857 C   0  0  1  0  0  0  0  0  0  0  0  0
   13.6863   -7.4552  -12.4717 C   0  0  0  0  0  0  0  0  0  0  0  0
   13.0652   -9.7168  -11.6137 C   0  0  0  0  0  0  0  0  0  0  0  0
    8.1402   -8.0652  -11.4587 C   0  0  0  0  0  0  0  0  0  0  0  0
   13.2172  -11.6329  -12.9845 C   0  0  0  0  0  0  0  0  0  0  0  0
   12.1131  -11.7284  -10.8769 C   0  0  0  0  0  0  0  0  0  0  0  0
    7.0523   -8.5737  -12.4203 C   0  0  0  0  0  0  0  0  0  0  0  0
    6.7373  -10.0388  -12.0647 C   0  0  0  0  0  0  0  0  0  0  0  0
    6.2038  -11.3675  -14.0123 C   0  0  0  0  0  0  0  0  0  0  0  0
  1 23  1  0  0  0  0
  1 24  1  0  0  0  0
  1  2  1  0  0  0  0
  3  4  1  0  0  0  0
  3 17  1  0  0  0  0
  4  6  2  0  0  0  0
  4 13  1  0  0  0  0
  5 10  1  0  0  0  0
  5 14  2  0  0  0  0
  6  8  1  0  0  0  0
  7 12  1  0  0  0  0
  7 14  1  0  0  0  0
  7 19  1  0  0  0  0
  8 10  2  0  0  0  0
  9 14  1  0  0  0  0
 10 12  1  0  0  0  0
 11 18  1  0  0  0  0
 11 20  1  0  0  0  0
 11 21  1  0  0  0  0
 12 13  2  0  0  0  0
 13 15  1  0  0  0  0
 15 16  1  0  0  0  0
 16 17  1  0  0  0  0
 16 18  1  1  0  0  0
 19 22  1  0  0  0  0
 22 23  1  0  0  0  0
M  END
>  <CHROM.1>
-141.95430614,-114.48145868,89.65665347,71.09883963,-174.08016418,177.66621335
9.78161715,-7.99837206,-12.21121011,-2.79070953,0.03762230,0.05529804

>  <Name>
ligand

>  <RI>
144

>  <Rbt.Current_Directory>
/home/itssahil/PROJECTS/Mol_Feturizer/New_Systems/rnas/3TZR

>  <Rbt.Executable>
rbdock ($Id: //depot/dev/client3/rdock/2013.1/src/exe/rbdock.cxx#4 $)

>  <Rbt.Library>
libRbt.so (2013.1, Build901 2013/11/27)

>  <Rbt.Parameter_File>
/export/apps/rDock/src/rDock_2013.1_src/data/scripts/dock_solv.prm

>  <Rbt.Receptor>
prm/blind_docking_60.prm

>  <SCORE>
-34.2937

>  <SCORE.INTER>
-23.3715

>  <SCORE.INTER.CONST>
1

>  <SCORE.INTER.POLAR>
0

>  <SCORE.INTER.ROT>
6

>  <SCORE.INTER.SOLV>
20.9386

>  <SCORE.INTER.VDW>
-30.1606

>  <SCORE.INTER.norm>
-0.973814

>  <SCORE.INTRA>
-10.9221

>  <SCORE.INTRA.DIHEDRAL>
-0.303471

>  <SCORE.INTRA.DIHEDRAL.0>
4.94008

>  <SCORE.INTRA.POLAR>
0

>  <SCORE.INTRA.POLAR.0>
0

>  <SCORE.INTRA.REPUL>
0

>  <SCORE.INTRA.REPUL.0>
0

>  <SCORE.INTRA.SOLV>
0.653829

>  <SCORE.INTRA.SOLV.lig_0>
-31.4704

>  <SCORE.INTRA.VDW>
-11.0973

>  <SCORE.INTRA.VDW.0>
10.2807

>  <SCORE.INTRA.norm>
-0.455089

>  <SCORE.RESTR>
0

>  <SCORE.RESTR.CAVITY>
0

>  <SCORE.RESTR.norm>
0

>  <SCORE.SYSTEM>
0

>  <SCORE.SYSTEM.CONST>
0

>  <SCORE.SYSTEM.DIHEDRAL>
0

>  <SCORE.SYSTEM.SOLV>
0

>  <SCORE.SYSTEM.norm>
0

>  <SCORE.heavy>
24

>  <SCORE.norm>
-1.4289

>  <RMSD>
1.601

$$$$
ligand
 OpenBabel11021811493D
libRbt.so/2013.1/901 2013/11/27
 24 26  0  0  0  0  0  0  0  0999 V2000
    5.7042  -10.5937  -12.9129 N   0  0  0  0  0  0  0  0  0  0  0  0
    4.8550  -11.4991  -12.1556 C   0  0  0  0  0  0  0  0  0  0  0  0
   13.2521   -6.3463  -13.1846 O   0  0  0  0  0  0  0  0  0  0  0  0
   12.0269   -5.8232  -12.7933 C   0  0  0  0  0  0  0  0  0  0  0  0
    8.1782   -4.3890  -11.6146 N   0  0  0  0  0  0  0  0  0  0  0  0
   11.7719   -4.3394  -12.7955 C   0  0  0  0  0  0  0  0  0  0  0  0
    8.4734   -6.6152  -11.5646 N   0  0  0  0  0  0  0  0  0  0  0  0
   10.5084   -3.7763  -12.4233 C   0  0  0  0  0  0  0  0  0  0  0  0
    6.2264   -5.7502  -10.8724 N   0  0  0  0  0  0  0  0  0  0  0  0
    9.4809   -4.7037  -12.0260 C   0  0  0  0  0  0  0  0  0  0  0  0
   12.3049  -10.8948  -12.0127 N   0  0  0  0  0  0  0  0  0  0  0  0
    9.7160   -6.1226  -12.0047 C   0  0  0  0  0  0  0  0  0  0  0  0
   11.0416   -6.6644  -12.4109 C   0  0  0  0  0  0  0  0  0  0  0  0
    7.5713   -5.5803  -11.3413 C   0  0  0  0  0  0  0  0  0  0  0  0
   11.2675   -8.1647  -12.3911 C   0  0  0  0  0  0  0  0  0  0  0  0
   12.7135   -8.6043  -12.5942 C   0  0  1  0  0  0  0  0  0  0  0  0
   13.6852   -7.4636  -12.4918 C   0  0  0  0  0  0  0  0  0  0  0  0
   13.0611   -9.7185  -11.6186 C   0  0  0  0  0  0  0  0  0  0  0  0
    8.1432   -8.0481  -11.4419 C   0  0  0  0  0  0  0  0  0  0  0  0
   13.1220  -11.6851  -12.9235 C   0  0  0  0  0  0  0  0  0  0  0  0
   12.0299  -11.6614  -10.8076 C   0  0  0  0  0  0  0  0  0  0  0  0
    7.0495   -8.5580  -12.3961 C   0  0  0  0  0  0  0  0  0  0  0  0
    6.7458  -10.0265  -12.0448 C   0  0  0  0  0  0  0  0  0  0  0  0
    6.2881  -11.3410  -14.0211 C   0  0  0  0  0  0  0  0  0  0  0  0
  1 23  1  0  0  0  0
  1 24  1  0  0  0  0
  1  2  1  0  0  0  0
  3  4  1  0  0  0  0
  3 17  1  0  0  0  0
  4  6  2  0  0  0  0
  4 13  1  0  0  0  0
  5 10  1  0  0  0  0
  5 14  2  0  0  0  0
  6  8  1  0  0  0  0
  7 12  1  0  0  0  0
  7 14  1  0  0  0  0
  7 19  1  0  0  0  0
  8 10  2  0  0  0  0
  9 14  1  0  0  0  0
 10 12  1  0  0  0  0
 11 18  1  0  0  0  0
 11 20  1  0  0  0  0
 11 21  1  0  0  0  0
 12 13  2  0  0  0  0
 13 15  1  0  0  0  0
 15 16  1  0  0  0  0
 16 17  1  0  0  0  0
 16 18  1  1  0  0  0
 19 22  1  0  0  0  0
 22 23  1  0  0  0  0
M  END
>  <CHROM.1>
-143.36189453,-114.36866583,91.86889166,68.61119015,-174.90711130,179.92397366
9.78246153,-7.99334880,-12.20766664,-2.75795799,0.03810797,0.05189055

>  <Name>
ligand

>  <RI>
144

>  <Rbt.Current_Directory>
/home/itssahil/PROJECTS/Mol_Feturizer/New_Systems/rnas/3TZR

>  <Rbt.Executable>
rbdock ($Id: //depot/dev/client3/rdock/2013.1/src/exe/rbdock.cxx#4 $)

>  <Rbt.Library>
libRbt.so (2013.1, Build901 2013/11/27)

>  <Rbt.Parameter_File>
/export/apps/rDock/src/rDock_2013.1_src/data/scripts/dock_solv.prm

>  <Rbt.Receptor>
prm/blind_docking_60.prm

>  <SCORE>
-34.3226

>  <SCORE.INTER>
-23.2961

>  <SCORE.INTER.CONST>
1

>  <SCORE.INTER.POLAR>
0

>  <SCORE.INTER.ROT>
6

>  <SCORE.INTER.SOLV>
21.0259

>  <SCORE.INTER.VDW>
-30.1394

>  <SCORE.INTER.norm>
-0.970671

>  <SCORE.INTRA>
-11.0265

>  <SCORE.INTRA.DIHEDRAL>
-0.46233

>  <SCORE.INTRA.DIHEDRAL.0>
4.94008

>  <SCORE.INTRA.POLAR>
0

>  <SCORE.INTRA.POLAR.0>
0

>  <SCORE.INTRA.REPUL>
0

>  <SCORE.INTRA.REPUL.0>
0

>  <SCORE.INTRA.SOLV>
0.642477

>  <SCORE.INTRA.SOLV.lig_0>
-31.4704

>  <SCORE.INTRA.VDW>
-11.1165

>  <SCORE.INTRA.VDW.0>
10.2807

>  <SCORE.INTRA.norm>
-0.459435

>  <SCORE.RESTR>
0

>  <SCORE.RESTR.CAVITY>
0

>  <SCORE.RESTR.norm>
0

>  <SCORE.SYSTEM>
0

>  <SCORE.SYSTEM.CONST>
0

>  <SCORE.SYSTEM.DIHEDRAL>
0

>  <SCORE.SYSTEM.SOLV>
0

>  <SCORE.SYSTEM.norm>
0

>  <SCORE.heavy>
24

>  <SCORE.norm>
-1.43011

>  <RMSD>
1.606

$$$$
ligand
 OpenBabel11021811493D
libRbt.so/2013.1/901 2013/11/27
 24 26  0  0  0  0  0  0  0  0999 V2000
    5.7851  -10.6117  -12.9377 N   0  0  0  0  0  0  0  0  0  0  0  0
    4.9706  -11.5596  -12.1945 C   0  0  0  0  0  0  0  0  0  0  0  0
   13.2226   -6.2763  -13.2475 O   0  0  0  0  0  0  0  0  0  0  0  0
   11.9959   -5.7659  -12.8443 C   0  0  0  0  0  0  0  0  0  0  0  0
    8.1446   -4.3717  -11.6268 N   0  0  0  0  0  0  0  0  0  0  0  0
   11.7222   -4.2854  -12.8534 C   0  0  0  0  0  0  0  0  0  0  0  0
    8.4684   -6.5936  -11.5653 N   0  0  0  0  0  0  0  0  0  0  0  0
   10.4565   -3.7356  -12.4691 C   0  0  0  0  0  0  0  0  0  0  0  0
    6.2195   -5.7519  -10.8506 N   0  0  0  0  0  0  0  0  0  0  0  0
    9.4459   -4.6729  -12.0525 C   0  0  0  0  0  0  0  0  0  0  0  0
   12.4055  -10.8479  -12.0772 N   0  0  0  0  0  0  0  0  0  0  0  0
    9.6991   -6.0886  -12.0244 C   0  0  0  0  0  0  0  0  0  0  0  0
   11.0261   -6.6166  -12.4437 C   0  0  0  0  0  0  0  0  0  0  0  0
    7.5562   -5.5685  -11.3377 C   0  0  0  0  0  0  0  0  0  0  0  0
   11.2711   -8.1138  -12.4165 C   0  0  0  0  0  0  0  0  0  0  0  0
   12.7199   -8.5367  -12.6349 C   0  0  1  0  0  0  0  0  0  0  0  0
   13.6784   -7.3833  -12.5526 C   0  0  0  0  0  0  0  0  0  0  0  0
   13.0937   -9.6397  -11.6562 C   0  0  0  0  0  0  0  0  0  0  0  0
    8.1578   -8.0296  -11.4286 C   0  0  0  0  0  0  0  0  0  0  0  0
   13.3181  -11.6391  -12.8914 C   0  0  0  0  0  0  0  0  0  0  0  0
   12.0492  -11.5884  -10.8771 C   0  0  0  0  0  0  0  0  0  0  0  0
    7.1766   -8.5953  -12.4698 C   0  0  0  0  0  0  0  0  0  0  0  0
    6.8221  -10.0391  -12.0675 C   0  0  0  0  0  0  0  0  0  0  0  0
    6.3748  -11.3133  -14.0724 C   0  0  0  0  0  0  0  0  0  0  0  0
  1 23  1  0  0  0  0
  1 24  1  0  0  0  0
  1  2  1  0  0  0  0
  3  4  1  0  0  0  0
  3 17  1  0  0  0  0
  4  6  2  0  0  0  0
  4 13  1  0  0  0  0
  5 10  1  0  0  0  0
  5 14  2  0  0  0  0
  6  8  1  0  0  0  0
  7 12  1  0  0  0  0
  7 14  1  0  0  0  0
  7 19  1  0  0  0  0
  8 10  2  0  0  0  0
  9 14  1  0  0  0  0
 10 12  1  0  0  0  0
 11 18  1  0  0  0  0
 11 20  1  0  0  0  0
 11 21  1  0  0  0  0
 12 13  2  0  0  0  0
 13 15  1  0  0  0  0
 15 16  1  0  0  0  0
 16 17  1  0  0  0  0
 16 18  1  1  0  0  0
 19 22  1  0  0  0  0
 22 23  1  0  0  0  0
M  END
>  <CHROM.1>
-148.77996926,-107.70892657,95.90612087,71.74679117,-172.46132786,174.40362545
9.80897645,-7.96265788,-12.23895647,-2.75580185,0.04321950,0.05278487

>  <Name>
ligand

>  <RI>
0

>  <Rbt.Current_Directory>
/home/itssahil/PROJECTS/Mol_Feturizer/New_Systems/rnas/3TZR

>  <Rbt.Executable>
rbdock ($Id: //depot/dev/client3/rdock/2013.1/src/exe/rbdock.cxx#4 $)

>  <Rbt.Library>
libRbt.so (2013.1, Build901 2013/11/27)

>  <Rbt.Parameter_File>
/export/apps/rDock/src/rDock_2013.1_src/data/scripts/dock_solv.prm

>  <Rbt.Receptor>
prm/blind_docking_100.prm

>  <SCORE>
-34.2847

>  <SCORE.INTER>
-23.1983

>  <SCORE.INTER.CONST>
1

>  <SCORE.INTER.POLAR>
0

>  <SCORE.INTER.ROT>
6

>  <SCORE.INTER.SOLV>
21.1886

>  <SCORE.INTER.VDW>
-30.1284

>  <SCORE.INTER.norm>
-0.966597

>  <SCORE.INTRA>
-11.0863

>  <SCORE.INTRA.DIHEDRAL>
-0.147323

>  <SCORE.INTRA.DIHEDRAL.0>
4.94008

>  <SCORE.INTRA.POLAR>
0

>  <SCORE.INTRA.POLAR.0>
0

>  <SCORE.INTRA.REPUL>
0

>  <SCORE.INTRA.REPUL.0>
0

>  <SCORE.INTRA.SOLV>
0.480562

>  <SCORE.INTRA.SOLV.lig_0>
-31.4704

>  <SCORE.INTRA.VDW>
-11.2529

>  <SCORE.INTRA.VDW.0>
10.2807

>  <SCORE.INTRA.norm>
-0.46193

>  <SCORE.RESTR>
0

>  <SCORE.RESTR.CAVITY>
0

>  <SCORE.RESTR.norm>
0

>  <SCORE.SYSTEM>
0

>  <SCORE.SYSTEM.CONST>
0

>  <SCORE.SYSTEM.DIHEDRAL>
0

>  <SCORE.SYSTEM.SOLV>
0

>  <SCORE.SYSTEM.norm>
0

>  <SCORE.heavy>
24

>  <SCORE.norm>
-1.42853

>  <RMSD>
1.626

$$$$
ligand
 OpenBabel11021811493D
libRbt.so/2013.1/901 2013/11/27
 24 26  0  0  0  0  0  0  0  0999 V2000
    5.6481  -10.2526  -12.2191 N   0  0  0  0  0  0  0  0  0  0  0  0
    4.7710  -11.0374  -11.3653 C   0  0  0  0  0  0  0  0  0  0  0  0
   13.7266   -7.4051  -12.5728 O   0  0  0  0  0  0  0  0  0  0  0  0
   12.5930   -6.6078  -12.4884 C   0  0  0  0  0  0  0  0  0  0  0  0
    8.9974   -4.3151  -12.2161 N   0  0  0  0  0  0  0  0  0  0  0  0
   12.6176   -5.1635  -12.9130 C   0  0  0  0  0  0  0  0  0  0  0  0
    8.8712   -6.4551  -11.5452 N   0  0  0  0  0  0  0  0  0  0  0  0
   11.4554   -4.3277  -12.8620 C   0  0  0  0  0  0  0  0  0  0  0  0
    6.7767   -5.0893  -11.3897 N   0  0  0  0  0  0  0  0  0  0  0  0
   10.2469   -4.9330  -12.3651 C   0  0  0  0  0  0  0  0  0  0  0  0
   11.8126  -11.1888  -10.3389 N   0  0  0  0  0  0  0  0  0  0  0  0
   10.2134   -6.3073  -11.9418 C   0  0  0  0  0  0  0  0  0  0  0  0
   11.4429   -7.1423  -12.0232 C   0  0  0  0  0  0  0  0  0  0  0  0
    8.1617   -5.2712  -11.7162 C   0  0  0  0  0  0  0  0  0  0  0  0
   11.3854   -8.5926  -11.5811 C   0  0  0  0  0  0  0  0  0  0  0  0
   12.7364   -9.2926  -11.4800 C   0  0  1  0  0  0  0  0  0  0  0  0
   13.8916   -8.3361  -11.5620 C   0  0  0  0  0  0  0  0  0  0  0  0
   12.7967  -10.1279  -10.2101 C   0  0  0  0  0  0  0  0  0  0  0  0
    8.2735   -7.7256  -11.0913 C   0  0  0  0  0  0  0  0  0  0  0  0
   12.1882  -12.0327  -11.4652 C   0  0  0  0  0  0  0  0  0  0  0  0
   11.8445  -11.9660   -9.1099 C   0  0  0  0  0  0  0  0  0  0  0  0
    7.2977   -8.3868  -12.0799 C   0  0  0  0  0  0  0  0  0  0  0  0
    6.7374   -9.6642  -11.4268 C   0  0  0  0  0  0  0  0  0  0  0  0
    6.1670  -11.1291  -13.2631 C   0  0  0  0  0  0  0  0  0  0  0  0
  1 23  1  0  0  0  0
  1 24  1  0  0  0  0
  1  2  1  0  0  0  0
  3  4  1  0  0  0  0
  3 17  1  0  0  0  0
  4  6  2  0  0  0  0
  4 13  1  0  0  0  0
  5 10  1  0  0  0  0
  5 14  2  0  0  0  0
  6  8  1  0  0  0  0
  7 12  1  0  0  0  0
  7 14  1  0  0  0  0
  7 19  1  0  0  0  0
  8 10  2  0  0  0  0
  9 14  1  0  0  0  0
 10 12  1  0  0  0  0
 11 18  1  0  0  0  0
 11 20  1  0  0  0  0
 11 21  1  0  0  0  0
 12 13  2  0  0  0  0
 13 15  1  0  0  0  0
 15 16  1  0  0  0  0
 16 17  1  0  0  0  0
 16 18  1  1  0  0  0
 19 22  1  0  0  0  0
 22 23  1  0  0  0  0
M  END
>  <CHROM.1>
-154.69737205,-107.71854394,62.89171081,65.36433689,-178.03411283,171.54461041
9.98555393,-8.16835304,-11.69218495,-2.87682484,-0.06548283,-0.20628461

>  <Name>
ligand

>  <RI>
0

>  <Rbt.Current_Directory>
/home/itssahil/PROJECTS/Mol_Feturizer/New_Systems/rnas/3TZR

>  <Rbt.Executable>
rbdock ($Id: //depot/dev/client3/rdock/2013.1/src/exe/rbdock.cxx#4 $)

>  <Rbt.Library>
libRbt.so (2013.1, Build901 2013/11/27)

>  <Rbt.Parameter_File>
/export/apps/rDock/src/rDock_2013.1_src/data/scripts/dock_solv.prm

>  <Rbt.Receptor>
prm/blind_docking_80.prm

>  <SCORE>
-31.1828

>  <SCORE.INTER>
-21.8408

>  <SCORE.INTER.CONST>
1

>  <SCORE.INTER.POLAR>
-0.652289

>  <SCORE.INTER.ROT>
6

>  <SCORE.INTER.SOLV>
21.9938

>  <SCORE.INTER.VDW>
-27.3175

>  <SCORE.INTER.norm>
-0.910032

>  <SCORE.INTRA>
-9.3444

>  <SCORE.INTRA.DIHEDRAL>
-2.43841

>  <SCORE.INTRA.DIHEDRAL.0>
4.94008

>  <SCORE.INTRA.POLAR>
0

>  <SCORE.INTRA.POLAR.0>
0

>  <SCORE.INTRA.REPUL>
0

>  <SCORE.INTRA.REPUL.0>
0

>  <SCORE.INTRA.SOLV>
0.4082

>  <SCORE.INTRA.SOLV.lig_0>
-31.4704

>  <SCORE.INTRA.VDW>
-8.32929

>  <SCORE.INTRA.VDW.0>
10.2807

>  <SCORE.INTRA.norm>
-0.38935

>  <SCORE.RESTR>
0.00240482

>  <SCORE.RESTR.CAVITY>
0.00240482

>  <SCORE.RESTR.norm>
0.000100201

>  <SCORE.SYSTEM>
0

>  <SCORE.SYSTEM.CONST>
0

>  <SCORE.SYSTEM.DIHEDRAL>
0

>  <SCORE.SYSTEM.SOLV>
0

>  <SCORE.SYSTEM.norm>
0

>  <SCORE.heavy>
24

>  <SCORE.norm>
-1.29928

>  <RMSD>
1.639

$$$$
ligand
 OpenBabel11021811493D
libRbt.so/2013.1/901 2013/11/27
 24 26  0  0  0  0  0  0  0  0999 V2000
    5.7830  -10.6276  -13.0830 N   0  0  0  0  0  0  0  0  0  0  0  0
    4.9793  -11.6352  -12.4098 C   0  0  0  0  0  0  0  0  0  0  0  0
   13.2388   -6.3545  -13.1851 O   0  0  0  0  0  0  0  0  0  0  0  0
   12.0125   -5.8345  -12.7932 C   0  0  0  0  0  0  0  0  0  0  0  0
    8.1604   -4.4094  -11.6144 N   0  0  0  0  0  0  0  0  0  0  0  0
   11.7583   -4.3505  -12.7819 C   0  0  0  0  0  0  0  0  0  0  0  0
    8.4541   -6.6362  -11.5850 N   0  0  0  0  0  0  0  0  0  0  0  0
   10.4938   -3.7904  -12.4088 C   0  0  0  0  0  0  0  0  0  0  0  0
    6.2051   -5.7765  -10.8925 N   0  0  0  0  0  0  0  0  0  0  0  0
    9.4644   -4.7209  -12.0242 C   0  0  0  0  0  0  0  0  0  0  0  0
   12.2655  -10.9062  -12.0454 N   0  0  0  0  0  0  0  0  0  0  0  0
    9.6986   -6.1401  -12.0158 C   0  0  0  0  0  0  0  0  0  0  0  0
   11.0253   -6.6787  -12.4225 C   0  0  0  0  0  0  0  0  0  0  0  0
    7.5518   -5.6030  -11.3550 C   0  0  0  0  0  0  0  0  0  0  0  0
   11.2503   -8.1792  -12.4165 C   0  0  0  0  0  0  0  0  0  0  0  0
   12.6967   -8.6178  -12.6186 C   0  0  1  0  0  0  0  0  0  0  0  0
   13.6687   -7.4787  -12.5016 C   0  0  0  0  0  0  0  0  0  0  0  0
   13.0402   -9.7417  -11.6527 C   0  0  0  0  0  0  0  0  0  0  0  0
    8.1227   -8.0700  -11.4774 C   0  0  0  0  0  0  0  0  0  0  0  0
   13.0634  -11.7016  -12.9687 C   0  0  0  0  0  0  0  0  0  0  0  0
   11.9930  -11.6760  -10.8418 C   0  0  0  0  0  0  0  0  0  0  0  0
    7.0971   -8.5894  -12.4997 C   0  0  0  0  0  0  0  0  0  0  0  0
    6.7634  -10.0521  -12.1512 C   0  0  0  0  0  0  0  0  0  0  0  0
    6.4418  -11.2595  -14.2205 C   0  0  0  0  0  0  0  0  0  0  0  0
  1 23  1  0  0  0  0
  1 24  1  0  0  0  0
  1  2  1  0  0  0  0
  3  4  1  0  0  0  0
  3 17  1  0  0  0  0
  4  6  2  0  0  0  0
  4 13  1  0  0  0  0
  5 10  1  0  0  0  0
  5 14  2  0  0  0  0
  6  8  1  0  0  0  0
  7 12  1  0  0  0  0
  7 14  1  0  0  0  0
  7 19  1  0  0  0  0
  8 10  2  0  0  0  0
  9 14  1  0  0  0  0
 10 12  1  0  0  0  0
 11 18  1  0  0  0  0
 11 20  1  0  0  0  0
 11 21  1  0  0  0  0
 12 13  2  0  0  0  0
 13 15  1  0  0  0  0
 15 16  1  0  0  0  0
 16 17  1  0  0  0  0
 16 18  1  1  0  0  0
 19 22  1  0  0  0  0
 22 23  1  0  0  0  0
M  END
>  <CHROM.1>
-149.94684583,-110.65491766,91.87061566,67.54655986,-174.19173362,179.90279304
9.78416100,-8.01266191,-12.25726090,-2.71938838,0.02514815,0.06961308

>  <Name>
ligand

>  <RI>
0

>  <Rbt.Current_Directory>
/home/itssahil/PROJECTS/Mol_Feturizer/New_Systems/rnas/3TZR

>  <Rbt.Executable>
rbdock ($Id: //depot/dev/client3/rdock/2013.1/src/exe/rbdock.cxx#4 $)

>  <Rbt.Library>
libRbt.so (2013.1, Build901 2013/11/27)

>  <Rbt.Parameter_File>
/export/apps/rDock/src/rDock_2013.1_src/data/scripts/dock_solv.prm

>  <Rbt.Receptor>
prm/pocket_docking_6.prm

>  <SCORE>
-34.4899

>  <SCORE.INTER>
-23.2996

>  <SCORE.INTER.CONST>
1

>  <SCORE.INTER.POLAR>
0

>  <SCORE.INTER.ROT>
6

>  <SCORE.INTER.SOLV>
21.1674

>  <SCORE.INTER.VDW>
-30.1889

>  <SCORE.INTER.norm>
-0.970817

>  <SCORE.INTRA>
-11.1903

>  <SCORE.INTRA.DIHEDRAL>
-0.919965

>  <SCORE.INTRA.DIHEDRAL.0>
4.94008

>  <SCORE.INTRA.POLAR>
0

>  <SCORE.INTRA.POLAR.0>
0

>  <SCORE.INTRA.REPUL>
0

>  <SCORE.INTRA.REPUL.0>
0

>  <SCORE.INTRA.SOLV>
0.546717

>  <SCORE.INTRA.SOLV.lig_0>
-31.4704

>  <SCORE.INTRA.VDW>
-11.0037

>  <SCORE.INTRA.VDW.0>
10.2807

>  <SCORE.INTRA.norm>
-0.466262

>  <SCORE.RESTR>
0

>  <SCORE.RESTR.CAVITY>
0

>  <SCORE.RESTR.norm>
0

>  <SCORE.SYSTEM>
0

>  <SCORE.SYSTEM.CONST>
0

>  <SCORE.SYSTEM.DIHEDRAL>
0

>  <SCORE.SYSTEM.SOLV>
0

>  <SCORE.SYSTEM.norm>
0

>  <SCORE.heavy>
24

>  <SCORE.norm>
-1.43708

>  <RMSD>
1.649

$$$$
ligand
 OpenBabel11021811493D
libRbt.so/2013.1/901 2013/11/27
 24 26  0  0  0  0  0  0  0  0999 V2000
    6.0655  -10.8997  -12.5252 N   0  0  0  0  0  0  0  0  0  0  0  0
    6.3732  -10.7923  -13.9423 C   0  0  0  0  0  0  0  0  0  0  0  0
   13.1736   -6.0374  -13.2808 O   0  0  0  0  0  0  0  0  0  0  0  0
   11.9144   -5.5931  -12.9002 C   0  0  0  0  0  0  0  0  0  0  0  0
    7.9765   -4.4085  -11.7389 N   0  0  0  0  0  0  0  0  0  0  0  0
   11.5302   -4.1413  -13.0084 C   0  0  0  0  0  0  0  0  0  0  0  0
    8.4668   -6.5904  -11.5278 N   0  0  0  0  0  0  0  0  0  0  0  0
   10.2291   -3.6620  -12.6488 C   0  0  0  0  0  0  0  0  0  0  0  0
    6.1653   -5.8710  -10.8480 N   0  0  0  0  0  0  0  0  0  0  0  0
    9.2943   -4.6408  -12.1573 C   0  0  0  0  0  0  0  0  0  0  0  0
   12.7571  -10.5769  -11.8216 N   0  0  0  0  0  0  0  0  0  0  0  0
    9.6533   -6.0282  -12.0344 C   0  0  0  0  0  0  0  0  0  0  0  0
   11.0138   -6.4838  -12.4311 C   0  0  0  0  0  0  0  0  0  0  0  0
    7.4816   -5.6229  -11.3614 C   0  0  0  0  0  0  0  0  0  0  0  0
   11.3708   -7.9529  -12.3033 C   0  0  0  0  0  0  0  0  0  0  0  0
   12.8459   -8.2808  -12.5081 C   0  0  1  0  0  0  0  0  0  0  0  0
   13.7155   -7.0561  -12.5163 C   0  0  0  0  0  0  0  0  0  0  0  0
   13.3075   -9.2819  -11.4598 C   0  0  0  0  0  0  0  0  0  0  0  0
    8.2659   -8.0326  -11.2889 C   0  0  0  0  0  0  0  0  0  0  0  0
   13.7300  -11.2771  -12.6493 C   0  0  0  0  0  0  0  0  0  0  0  0
   12.5362  -11.3174  -10.5893 C   0  0  0  0  0  0  0  0  0  0  0  0
    7.1624   -8.6944  -12.1321 C   0  0  0  0  0  0  0  0  0  0  0  0
    7.0693  -10.1783  -11.7300 C   0  0  0  0  0  0  0  0  0  0  0  0
    4.7292  -10.3564  -12.3094 C   0  0  0  0  0  0  0  0  0  0  0  0
  1 23  1  0  0  0  0
  1 24  1  0  0  0  0
  1  2  1  0  0  0  0
  3  4  1  0  0  0  0
  3 17  1  0  0  0  0
  4  6  2  0  0  0  0
  4 13  1  0  0  0  0
  5 10  1  0  0  0  0
  5 14  2  0  0  0  0
  6  8  1  0  0  0  0
  7 12  1  0  0  0  0
  7 14  1  0  0  0  0
  7 19  1  0  0  0  0
  8 10  2  0  0  0  0
  9 14  1  0  0  0  0
 10 12  1  0  0  0  0
 11 18  1  0  0  0  0
 11 20  1  0  0  0  0
 11 21  1  0  0  0  0
 12 13  2  0  0  0  0
 13 15  1  0  0  0  0
 15 16  1  0  0  0  0
 16 17  1  0  0  0  0
 16 18  1  1  0  0  0
 19 22  1  0  0  0  0
 22 23  1  0  0  0  0
M  END
>  <CHROM.1>
57.50126382,-116.88400895,92.04432347,74.19189233,-178.62592990,-178.00333922
9.85999245,-7.79333518,-12.15424170,-3.00355315,0.03300566,-0.01517871

>  <Name>
ligand

>  <RI>
144

>  <Rbt.Current_Directory>
/home/itssahil/PROJECTS/Mol_Feturizer/New_Systems/rnas/3TZR

>  <Rbt.Executable>
rbdock ($Id: //depot/dev/client3/rdock/2013.1/src/exe/rbdock.cxx#4 $)

>  <Rbt.Library>
libRbt.so (2013.1, Build901 2013/11/27)

>  <Rbt.Parameter_File>
/export/apps/rDock/src/rDock_2013.1_src/data/scripts/dock_solv.prm

>  <Rbt.Receptor>
prm/blind_docking_60.prm

>  <SCORE>
-29.3126

>  <SCORE.INTER>
-22.0571

>  <SCORE.INTER.CONST>
1

>  <SCORE.INTER.POLAR>
0

>  <SCORE.INTER.ROT>
6

>  <SCORE.INTER.SOLV>
21.1803

>  <SCORE.INTER.VDW>
-29.3648

>  <SCORE.INTER.norm>
-0.919045

>  <SCORE.INTRA>
-7.25725

>  <SCORE.INTRA.DIHEDRAL>
-1.69929

>  <SCORE.INTRA.DIHEDRAL.0>
4.94008

>  <SCORE.INTRA.POLAR>
0

>  <SCORE.INTRA.POLAR.0>
0

>  <SCORE.INTRA.REPUL>
0

>  <SCORE.INTRA.REPUL.0>
0

>  <SCORE.INTRA.SOLV>
0.649023

>  <SCORE.INTRA.SOLV.lig_0>
-31.4704

>  <SCORE.INTRA.VDW>
-6.73212

>  <SCORE.INTRA.VDW.0>
10.2807

>  <SCORE.INTRA.norm>
-0.302386

>  <SCORE.RESTR>
0.00177402

>  <SCORE.RESTR.CAVITY>
0.00177402

>  <SCORE.RESTR.norm>
7.39173e-05

>  <SCORE.SYSTEM>
0

>  <SCORE.SYSTEM.CONST>
0

>  <SCORE.SYSTEM.DIHEDRAL>
0

>  <SCORE.SYSTEM.SOLV>
0

>  <SCORE.SYSTEM.norm>
0

>  <SCORE.heavy>
24

>  <SCORE.norm>
-1.22136

>  <RMSD>
1.679

$$$$
ligand
 OpenBabel11021811493D
libRbt.so/2013.1/901 2013/11/27
 24 26  0  0  0  0  0  0  0  0999 V2000
    6.7819  -11.0478  -13.1823 N   0  0  0  0  0  0  0  0  0  0  0  0
    6.5310  -10.6188  -14.5488 C   0  0  0  0  0  0  0  0  0  0  0  0
   13.2273   -6.5307  -13.2856 O   0  0  0  0  0  0  0  0  0  0  0  0
   12.0282   -5.9740  -12.8613 C   0  0  0  0  0  0  0  0  0  0  0  0
    8.2554   -4.4349  -11.5743 N   0  0  0  0  0  0  0  0  0  0  0  0
   11.8037   -4.4854  -12.8854 C   0  0  0  0  0  0  0  0  0  0  0  0
    8.5067   -6.6654  -11.4883 N   0  0  0  0  0  0  0  0  0  0  0  0
   10.5665   -3.8883  -12.4796 C   0  0  0  0  0  0  0  0  0  0  0  0
    6.3047   -5.7391  -10.7335 N   0  0  0  0  0  0  0  0  0  0  0  0
    9.5355   -4.7854  -12.0259 C   0  0  0  0  0  0  0  0  0  0  0  0
   13.3573  -11.0504  -12.4157 N   0  0  0  0  0  0  0  0  0  0  0  0
    9.7422   -6.2083  -11.9833 C   0  0  0  0  0  0  0  0  0  0  0  0
   11.0406   -6.7862  -12.4259 C   0  0  0  0  0  0  0  0  0  0  0  0
    7.6348   -5.6074  -11.2543 C   0  0  0  0  0  0  0  0  0  0  0  0
   11.2364   -8.2901  -12.3827 C   0  0  0  0  0  0  0  0  0  0  0  0
   12.6647   -8.7643  -12.6287 C   0  0  1  0  0  0  0  0  0  0  0  0
   13.6626   -7.6426  -12.5856 C   0  0  0  0  0  0  0  0  0  0  0  0
   13.0250   -9.8657  -11.6432 C   0  0  0  0  0  0  0  0  0  0  0  0
    8.1520   -8.0882  -11.3236 C   0  0  0  0  0  0  0  0  0  0  0  0
   14.6804  -10.8666  -12.9967 C   0  0  0  0  0  0  0  0  0  0  0  0
   13.3755  -12.1791  -11.4985 C   0  0  0  0  0  0  0  0  0  0  0  0
    7.7657   -8.8266  -12.6168 C   0  0  0  0  0  0  0  0  0  0  0  0
    6.7166   -9.8990  -12.2677 C   0  0  0  0  0  0  0  0  0  0  0  0
    5.7885  -12.0577  -12.8349 C   0  0  0  0  0  0  0  0  0  0  0  0
  1 23  1  0  0  0  0
  1 24  1  0  0  0  0
  1  2  1  0  0  0  0
  3  4  1  0  0  0  0
  3 17  1  0  0  0  0
  4  6  2  0  0  0  0
  4 13  1  0  0  0  0
  5 10  1  0  0  0  0
  5 14  2  0  0  0  0
  6  8  1  0  0  0  0
  7 12  1  0  0  0  0
  7 14  1  0  0  0  0
  7 19  1  0  0  0  0
  8 10  2  0  0  0  0
  9 14  1  0  0  0  0
 10 12  1  0  0  0  0
 11 18  1  0  0  0  0
 11 20  1  0  0  0  0
 11 21  1  0  0  0  0
 12 13  2  0  0  0  0
 13 15  1  0  0  0  0
 15 16  1  0  0  0  0
 16 17  1  0  0  0  0
 16 18  1  1  0  0  0
 19 22  1  0  0  0  0
 22 23  1  0  0  0  0
M  END
>  <CHROM.1>
-60.38710124,-77.51877575,75.28742611,120.19955455,-147.77756592,-150.91291593
10.10043692,-8.07082291,-12.34539541,2.96188441,0.02415967,0.10790093

>  <Name>
ligand

>  <RI>
0

>  <Rbt.Current_Directory>
/home/itssahil/PROJECTS/Mol_Feturizer/New_Systems/rnas/3TZR

>  <Rbt.Executable>
rbdock ($Id: //depot/dev/client3/rdock/2013.1/src/exe/rbdock.cxx#4 $)

>  <Rbt.Library>
libRbt.so (2013.1, Build901 2013/11/27)

>  <Rbt.Parameter_File>
/export/apps/rDock/src/rDock_2013.1_src/data/scripts/dock_solv.prm

>  <Rbt.Receptor>
prm/blind_docking_40.prm

>  <SCORE>
-25.0022

>  <SCORE.INTER>
-20.4286

>  <SCORE.INTER.CONST>
1

>  <SCORE.INTER.POLAR>
0

>  <SCORE.INTER.ROT>
6

>  <SCORE.INTER.SOLV>
22.0351

>  <SCORE.INTER.VDW>
-28.5641

>  <SCORE.INTER.norm>
-0.851192

>  <SCORE.INTRA>
-4.62622

>  <SCORE.INTRA.DIHEDRAL>
7.3902

>  <SCORE.INTRA.DIHEDRAL.0>
4.94008

>  <SCORE.INTRA.POLAR>
0

>  <SCORE.INTRA.POLAR.0>
0

>  <SCORE.INTRA.REPUL>
0

>  <SCORE.INTRA.REPUL.0>
0

>  <SCORE.INTRA.SOLV>
-0.0239438

>  <SCORE.INTRA.SOLV.lig_0>
-31.4704

>  <SCORE.INTRA.VDW>
-8.30935

>  <SCORE.INTRA.VDW.0>
10.2807

>  <SCORE.INTRA.norm>
-0.192759

>  <SCORE.RESTR>
0.0526505

>  <SCORE.RESTR.CAVITY>
0.0526505

>  <SCORE.RESTR.norm>
0.00219377

>  <SCORE.SYSTEM>
0

>  <SCORE.SYSTEM.CONST>
0

>  <SCORE.SYSTEM.DIHEDRAL>
0

>  <SCORE.SYSTEM.SOLV>
0

>  <SCORE.SYSTEM.norm>
0

>  <SCORE.heavy>
24

>  <SCORE.norm>
-1.04176

>  <RMSD>
1.704

$$$$
ligand
 OpenBabel11021811493D
libRbt.so/2013.1/901 2013/11/27
 24 26  0  0  0  0  0  0  0  0999 V2000
    6.0296  -10.6794  -13.3261 N   0  0  0  0  0  0  0  0  0  0  0  0
    5.5320  -11.9698  -12.8772 C   0  0  0  0  0  0  0  0  0  0  0  0
   13.2236   -6.2681  -13.1988 O   0  0  0  0  0  0  0  0  0  0  0  0
   11.9932   -5.7661  -12.7963 C   0  0  0  0  0  0  0  0  0  0  0  0
    8.1303   -4.3966  -11.5875 N   0  0  0  0  0  0  0  0  0  0  0  0
   11.7251   -4.2850  -12.7608 C   0  0  0  0  0  0  0  0  0  0  0  0
    8.4451   -6.6207  -11.5942 N   0  0  0  0  0  0  0  0  0  0  0  0
   10.4561   -3.7429  -12.3763 C   0  0  0  0  0  0  0  0  0  0  0  0
    6.1896   -5.7936  -10.8837 N   0  0  0  0  0  0  0  0  0  0  0  0
    9.4364   -4.6891  -12.0047 C   0  0  0  0  0  0  0  0  0  0  0  0
   12.3053  -10.8499  -12.1379 N   0  0  0  0  0  0  0  0  0  0  0  0
    9.6840   -6.1060  -12.0194 C   0  0  0  0  0  0  0  0  0  0  0  0
   11.0149   -6.6255  -12.4372 C   0  0  0  0  0  0  0  0  0  0  0  0
    7.5336   -5.5999  -11.3459 C   0  0  0  0  0  0  0  0  0  0  0  0
   11.2540   -8.1237  -12.4556 C   0  0  0  0  0  0  0  0  0  0  0  0
   12.7042   -8.5452  -12.6675 C   0  0  1  0  0  0  0  0  0  0  0  0
   13.6656   -7.3990  -12.5342 C   0  0  0  0  0  0  0  0  0  0  0  0
   13.0603   -9.6810  -11.7203 C   0  0  0  0  0  0  0  0  0  0  0  0
    8.1275   -8.0591  -11.5088 C   0  0  0  0  0  0  0  0  0  0  0  0
   13.1679  -11.6868  -12.9610 C   0  0  0  0  0  0  0  0  0  0  0  0
   11.9197  -11.5732  -10.9363 C   0  0  0  0  0  0  0  0  0  0  0  0
    7.1003   -8.5707  -12.5335 C   0  0  0  0  0  0  0  0  0  0  0  0
    6.8865  -10.0772  -12.2948 C   0  0  0  0  0  0  0  0  0  0  0  0
    6.7632  -10.8846  -14.5700 C   0  0  0  0  0  0  0  0  0  0  0  0
  1 23  1  0  0  0  0
  1 24  1  0  0  0  0
  1  2  1  0  0  0  0
  3  4  1  0  0  0  0
  3 17  1  0  0  0  0
  4  6  2  0  0  0  0
  4 13  1  0  0  0  0
  5 10  1  0  0  0  0
  5 14  2  0  0  0  0
  6  8  1  0  0  0  0
  7 12  1  0  0  0  0
  7 14  1  0  0  0  0
  7 19  1  0  0  0  0
  8 10  2  0  0  0  0
  9 14  1  0  0  0  0
 10 12  1  0  0  0  0
 11 18  1  0  0  0  0
 11 20  1  0  0  0  0
 11 21  1  0  0  0  0
 12 13  2  0  0  0  0
 13 15  1  0  0  0  0
 15 16  1  0  0  0  0
 16 17  1  0  0  0  0
 16 18  1  1  0  0  0
 19 22  1  0  0  0  0
 22 23  1  0  0  0  0
M  END
>  <CHROM.1>
-163.41399640,-110.90218002,97.66297309,68.07610038,-179.69562675,-173.72627506
9.83579384,-7.97790753,-12.32726399,-2.61886890,0.01077323,0.10008176

>  <Name>
ligand

>  <RI>
0

>  <Rbt.Current_Directory>
/home/itssahil/PROJECTS/Mol_Feturizer/New_Systems/rnas/3TZR

>  <Rbt.Executable>
rbdock ($Id: //depot/dev/client3/rdock/2013.1/src/exe/rbdock.cxx#4 $)

>  <Rbt.Library>
libRbt.so (2013.1, Build901 2013/11/27)

>  <Rbt.Parameter_File>
/export/apps/rDock/src/rDock_2013.1_src/data/scripts/dock_solv.prm

>  <Rbt.Receptor>
prm/blind_docking_40.prm

>  <SCORE>
-34.0481

>  <SCORE.INTER>
-22.9232

>  <SCORE.INTER.CONST>
1

>  <SCORE.INTER.POLAR>
0

>  <SCORE.INTER.ROT>
6

>  <SCORE.INTER.SOLV>
21.5273

>  <SCORE.INTER.VDW>
-30.0579

>  <SCORE.INTER.norm>
-0.955132

>  <SCORE.INTRA>
-11.1329

>  <SCORE.INTRA.DIHEDRAL>
-1.29473

>  <SCORE.INTRA.DIHEDRAL.0>
4.94008

>  <SCORE.INTRA.POLAR>
0

>  <SCORE.INTRA.POLAR.0>
0

>  <SCORE.INTRA.REPUL>
0

>  <SCORE.INTRA.REPUL.0>
0

>  <SCORE.INTRA.SOLV>
0.477876

>  <SCORE.INTRA.SOLV.lig_0>
-31.4704

>  <SCORE.INTRA.VDW>
-10.7245

>  <SCORE.INTRA.VDW.0>
10.2807

>  <SCORE.INTRA.norm>
-0.463872

>  <SCORE.RESTR>
0.0079577

>  <SCORE.RESTR.CAVITY>
0.0079577

>  <SCORE.RESTR.norm>
0.000331571

>  <SCORE.SYSTEM>
0

>  <SCORE.SYSTEM.CONST>
0

>  <SCORE.SYSTEM.DIHEDRAL>
0

>  <SCORE.SYSTEM.SOLV>
0

>  <SCORE.SYSTEM.norm>
0

>  <SCORE.heavy>
24

>  <SCORE.norm>
-1.41867

>  <RMSD>
1.744

$$$$
ligand
 OpenBabel11021811493D
libRbt.so/2013.1/901 2013/11/27
 24 26  0  0  0  0  0  0  0  0999 V2000
    7.1824  -10.2772  -11.8113 N   0  0  0  0  0  0  0  0  0  0  0  0
    6.5072   -9.8152  -13.0133 C   0  0  0  0  0  0  0  0  0  0  0  0
   13.8631   -8.2898  -13.3173 O   0  0  0  0  0  0  0  0  0  0  0  0
   12.9853   -7.2742  -12.9625 C   0  0  0  0  0  0  0  0  0  0  0  0
   10.1365   -4.2669  -11.9140 N   0  0  0  0  0  0  0  0  0  0  0  0
   13.4413   -5.8425  -12.8667 C   0  0  0  0  0  0  0  0  0  0  0  0
    9.3710   -6.3762  -12.0166 N   0  0  0  0  0  0  0  0  0  0  0  0
   12.5497   -4.7730  -12.5301 C   0  0  0  0  0  0  0  0  0  0  0  0
    7.7201   -4.5960  -11.3984 N   0  0  0  0  0  0  0  0  0  0  0  0
   11.1803   -5.1332  -12.2682 C   0  0  0  0  0  0  0  0  0  0  0  0
   13.1374  -11.3976  -11.1290 N   0  0  0  0  0  0  0  0  0  0  0  0
   10.7348   -6.4989  -12.3412 C   0  0  0  0  0  0  0  0  0  0  0  0
   11.6941   -7.5770  -12.7063 C   0  0  0  0  0  0  0  0  0  0  0  0
    9.0288   -5.0508  -11.7702 C   0  0  0  0  0  0  0  0  0  0  0  0
   11.2033   -9.0104  -12.7876 C   0  0  0  0  0  0  0  0  0  0  0  0
   12.2977  -10.0620  -12.9352 C   0  0  1  0  0  0  0  0  0  0  0  0
   13.6711   -9.5070  -12.6869 C   0  0  0  0  0  0  0  0  0  0  0  0
   12.0063  -11.2481  -12.0284 C   0  0  0  0  0  0  0  0  0  0  0  0
    8.4104   -7.4962  -12.0242 C   0  0  0  0  0  0  0  0  0  0  0  0
   12.6369  -11.4471   -9.7620 C   0  0  0  0  0  0  0  0  0  0  0  0
   13.7942  -12.6530  -11.4579 C   0  0  0  0  0  0  0  0  0  0  0  0
    8.4141   -8.3781  -10.7636 C   0  0  0  0  0  0  0  0  0  0  0  0
    7.1374   -9.2397  -10.7711 C   0  0  0  0  0  0  0  0  0  0  0  0
    6.5270  -11.5017  -11.3659 C   0  0  0  0  0  0  0  0  0  0  0  0
  1 23  1  0  0  0  0
  1 24  1  0  0  0  0
  1  2  1  0  0  0  0
  3  4  1  0  0  0  0
  3 17  1  0  0  0  0
  4  6  2  0  0  0  0
  4 13  1  0  0  0  0
  5 10  1  0  0  0  0
  5 14  2  0  0  0  0
  6  8  1  0  0  0  0
  7 12  1  0  0  0  0
  7 14  1  0  0  0  0
  7 19  1  0  0  0  0
  8 10  2  0  0  0  0
  9 14  1  0  0  0  0
 10 12  1  0  0  0  0
 11 18  1  0  0  0  0
 11 20  1  0  0  0  0
 11 21  1  0  0  0  0
 12 13  2  0  0  0  0
 13 15  1  0  0  0  0
 15 16  1  0  0  0  0
 16 17  1  0  0  0  0
 16 18  1  1  0  0  0
 19 22  1  0  0  0  0
 22 23  1  0  0  0  0
M  END
>  <CHROM.1>
-95.40247275,81.89080194,127.96720175,-121.40657048,165.28410967,70.60051595
10.61279562,-8.36686047,-12.00345060,2.39460285,0.11694957,-0.12597081

>  <Name>
ligand

>  <RI>
0

>  <Rbt.Current_Directory>
/home/itssahil/PROJECTS/Mol_Feturizer/New_Systems/rnas/3TZR

>  <Rbt.Executable>
rbdock ($Id: //depot/dev/client3/rdock/2013.1/src/exe/rbdock.cxx#4 $)

>  <Rbt.Library>
libRbt.so (2013.1, Build901 2013/11/27)

>  <Rbt.Parameter_File>
/export/apps/rDock/src/rDock_2013.1_src/data/scripts/dock_solv.prm

>  <Rbt.Receptor>
prm/blind_docking_100.prm

>  <SCORE>
-25.8816

>  <SCORE.INTER>
-21.4476

>  <SCORE.INTER.CONST>
1

>  <SCORE.INTER.POLAR>
0

>  <SCORE.INTER.ROT>
6

>  <SCORE.INTER.SOLV>
22.04

>  <SCORE.INTER.VDW>
-29.2451

>  <SCORE.INTER.norm>
-0.893649

>  <SCORE.INTRA>
-4.61291

>  <SCORE.INTRA.DIHEDRAL>
6.60549

>  <SCORE.INTRA.DIHEDRAL.0>
4.94008

>  <SCORE.INTRA.POLAR>
0

>  <SCORE.INTRA.POLAR.0>
0

>  <SCORE.INTRA.REPUL>
0

>  <SCORE.INTRA.REPUL.0>
0

>  <SCORE.INTRA.SOLV>
0.20791

>  <SCORE.INTRA.SOLV.lig_0>
-31.4704

>  <SCORE.INTRA.VDW>
-8.01961

>  <SCORE.INTRA.VDW.0>
10.2807

>  <SCORE.INTRA.norm>
-0.192205

>  <SCORE.RESTR>
0.178885

>  <SCORE.RESTR.CAVITY>
0.178885

>  <SCORE.RESTR.norm>
0.00745352

>  <SCORE.SYSTEM>
0

>  <SCORE.SYSTEM.CONST>
0

>  <SCORE.SYSTEM.DIHEDRAL>
0

>  <SCORE.SYSTEM.SOLV>
0

>  <SCORE.SYSTEM.norm>
0

>  <SCORE.heavy>
24

>  <SCORE.norm>
-1.0784

>  <RMSD>
1.763

$$$$
ligand
 OpenBabel11021811493D
libRbt.so/2013.1/901 2013/11/27
 24 26  0  0  0  0  0  0  0  0999 V2000
    6.8734  -10.4001  -13.1061 N   0  0  0  0  0  0  0  0  0  0  0  0
    6.9017  -10.6392  -14.5401 C   0  0  0  0  0  0  0  0  0  0  0  0
   13.2458   -6.0489  -13.3523 O   0  0  0  0  0  0  0  0  0  0  0  0
   12.0001   -5.6201  -12.9139 C   0  0  0  0  0  0  0  0  0  0  0  0
    8.1020   -4.4819  -11.5842 N   0  0  0  0  0  0  0  0  0  0  0  0
   11.6254   -4.1619  -12.9240 C   0  0  0  0  0  0  0  0  0  0  0  0
    8.5793   -6.6758  -11.5184 N   0  0  0  0  0  0  0  0  0  0  0  0
   10.3375   -3.6966  -12.5035 C   0  0  0  0  0  0  0  0  0  0  0  0
    6.3013   -5.9837  -10.7384 N   0  0  0  0  0  0  0  0  0  0  0  0
    9.4071   -4.6972  -12.0489 C   0  0  0  0  0  0  0  0  0  0  0  0
   12.7597  -10.6496  -12.1098 N   0  0  0  0  0  0  0  0  0  0  0  0
    9.7575   -6.0919  -12.0195 C   0  0  0  0  0  0  0  0  0  0  0  0
   11.1040   -6.5316  -12.4772 C   0  0  0  0  0  0  0  0  0  0  0  0
    7.6065   -5.7136  -11.2688 C   0  0  0  0  0  0  0  0  0  0  0  0
   11.4519   -8.0082  -12.4479 C   0  0  0  0  0  0  0  0  0  0  0  0
   12.9187   -8.3330  -12.7091 C   0  0  1  0  0  0  0  0  0  0  0  0
   13.7979   -7.1160  -12.6649 C   0  0  0  0  0  0  0  0  0  0  0  0
   13.3977   -9.3992  -11.7356 C   0  0  0  0  0  0  0  0  0  0  0  0
    8.3724   -8.1285  -11.3624 C   0  0  0  0  0  0  0  0  0  0  0  0
   13.6790  -11.4030  -12.9519 C   0  0  0  0  0  0  0  0  0  0  0  0
   12.4959  -11.3891  -10.8854 C   0  0  0  0  0  0  0  0  0  0  0  0
    6.9061   -8.5933  -11.3869 C   0  0  0  0  0  0  0  0  0  0  0  0
    6.5484   -8.9933  -12.8306 C   0  0  0  0  0  0  0  0  0  0  0  0
    5.8853  -11.2966  -12.5169 C   0  0  0  0  0  0  0  0  0  0  0  0
  1 23  1  0  0  0  0
  1 24  1  0  0  0  0
  1  2  1  0  0  0  0
  3  4  1  0  0  0  0
  3 17  1  0  0  0  0
  4  6  2  0  0  0  0
  4 13  1  0  0  0  0
  5 10  1  0  0  0  0
  5 14  2  0  0  0  0
  6  8  1  0  0  0  0
  7 12  1  0  0  0  0
  7 14  1  0  0  0  0
  7 19  1  0  0  0  0
  8 10  2  0  0  0  0
  9 14  1  0  0  0  0
 10 12  1  0  0  0  0
 11 18  1  0  0  0  0
 11 20  1  0  0  0  0
 11 21  1  0  0  0  0
 12 13  2  0  0  0  0
 13 15  1  0  0  0  0
 15 16  1  0  0  0  0
 16 17  1  0  0  0  0
 16 18  1  1  0  0  0
 19 22  1  0  0  0  0
 22 23  1  0  0  0  0
M  END
>  <CHROM.1>
-163.23314933,-154.92338582,96.09892852,70.59389191,93.61816810,87.65693096
9.99885577,-7.80601199,-12.28424890,-3.13565525,0.04730570,0.06693538

>  <Name>
ligand

>  <RI>
0

>  <Rbt.Current_Directory>
/home/itssahil/PROJECTS/Mol_Feturizer/New_Systems/rnas/3TZR

>  <Rbt.Executable>
rbdock ($Id: //depot/dev/client3/rdock/2013.1/src/exe/rbdock.cxx#4 $)

>  <Rbt.Library>
libRbt.so (2013.1, Build901 2013/11/27)

>  <Rbt.Parameter_File>
/export/apps/rDock/src/rDock_2013.1_src/data/scripts/dock_solv.prm

>  <Rbt.Receptor>
prm/blind_docking_100.prm

>  <SCORE>
-27.018

>  <SCORE.INTER>
-20.6734

>  <SCORE.INTER.CONST>
1

>  <SCORE.INTER.POLAR>
0

>  <SCORE.INTER.ROT>
6

>  <SCORE.INTER.SOLV>
21.3448

>  <SCORE.INTER.VDW>
-28.4972

>  <SCORE.INTER.norm>
-0.86139

>  <SCORE.INTRA>
-6.34463

>  <SCORE.INTRA.DIHEDRAL>
4.50072

>  <SCORE.INTRA.DIHEDRAL.0>
4.94008

>  <SCORE.INTRA.POLAR>
0

>  <SCORE.INTRA.POLAR.0>
0

>  <SCORE.INTRA.REPUL>
0

>  <SCORE.INTRA.REPUL.0>
0

>  <SCORE.INTRA.SOLV>
2.18614

>  <SCORE.INTRA.SOLV.lig_0>
-31.4704

>  <SCORE.INTRA.VDW>
-9.68806

>  <SCORE.INTRA.VDW.0>
10.2807

>  <SCORE.INTRA.norm>
-0.26436

>  <SCORE.RESTR>
0

>  <SCORE.RESTR.CAVITY>
0

>  <SCORE.RESTR.norm>
0

>  <SCORE.SYSTEM>
0

>  <SCORE.SYSTEM.CONST>
0

>  <SCORE.SYSTEM.DIHEDRAL>
0

>  <SCORE.SYSTEM.SOLV>
0

>  <SCORE.SYSTEM.norm>
0

>  <SCORE.heavy>
24

>  <SCORE.norm>
-1.12575

>  <RMSD>
1.776

$$$$
ligand
 OpenBabel11021811493D
libRbt.so/2013.1/901 2013/11/27
 24 26  0  0  0  0  0  0  0  0999 V2000
    7.0106  -10.2638  -12.5475 N   0  0  0  0  0  0  0  0  0  0  0  0
    6.7690  -10.6194  -13.9365 C   0  0  0  0  0  0  0  0  0  0  0  0
   13.9010   -8.0172  -13.3040 O   0  0  0  0  0  0  0  0  0  0  0  0
   12.9357   -7.0838  -12.9507 C   0  0  0  0  0  0  0  0  0  0  0  0
    9.8298   -4.3468  -11.8919 N   0  0  0  0  0  0  0  0  0  0  0  0
   13.2340   -5.6080  -12.9562 C   0  0  0  0  0  0  0  0  0  0  0  0
    9.2995   -6.5289  -11.8398 N   0  0  0  0  0  0  0  0  0  0  0  0
   12.2480   -4.6236  -12.6230 C   0  0  0  0  0  0  0  0  0  0  0  0
    7.4960   -4.9052  -11.2175 N   0  0  0  0  0  0  0  0  0  0  0  0
   10.9432   -5.1141  -12.2621 C   0  0  0  0  0  0  0  0  0  0  0  0
   12.9958  -12.2595  -12.4099 N   0  0  0  0  0  0  0  0  0  0  0  0
   10.6493   -6.5220  -12.2380 C   0  0  0  0  0  0  0  0  0  0  0  0
   11.7017   -7.5092  -12.6031 C   0  0  0  0  0  0  0  0  0  0  0  0
    8.8255   -5.2364  -11.6423 C   0  0  0  0  0  0  0  0  0  0  0  0
   11.3699   -8.9896  -12.5810 C   0  0  0  0  0  0  0  0  0  0  0  0
   12.5652   -9.9233  -12.7388 C   0  0  1  0  0  0  0  0  0  0  0  0
   13.8795   -9.2095  -12.6013 C   0  0  0  0  0  0  0  0  0  0  0  0
   12.4564  -11.0796  -11.7562 C   0  0  0  0  0  0  0  0  0  0  0  0
    8.4705   -7.7449  -11.7326 C   0  0  0  0  0  0  0  0  0  0  0  0
   14.3730  -12.4413  -11.9714 C   0  0  0  0  0  0  0  0  0  0  0  0
   12.1921  -13.3971  -11.9910 C   0  0  0  0  0  0  0  0  0  0  0  0
    7.2300   -7.7810  -12.6417 C   0  0  0  0  0  0  0  0  0  0  0  0
    6.3614   -8.9841  -12.2291 C   0  0  0  0  0  0  0  0  0  0  0  0
    6.4974  -11.3407  -11.7083 C   0  0  0  0  0  0  0  0  0  0  0  0
  1 23  1  0  0  0  0
  1 24  1  0  0  0  0
  1  2  1  0  0  0  0
  3  4  1  0  0  0  0
  3 17  1  0  0  0  0
  4  6  2  0  0  0  0
  4 13  1  0  0  0  0
  5 10  1  0  0  0  0
  5 14  2  0  0  0  0
  6  8  1  0  0  0  0
  7 12  1  0  0  0  0
  7 14  1  0  0  0  0
  7 19  1  0  0  0  0
  8 10  2  0  0  0  0
  9 14  1  0  0  0  0
 10 12  1  0  0  0  0
 11 18  1  0  0  0  0
 11 20  1  0  0  0  0
 11 21  1  0  0  0  0
 12 13  2  0  0  0  0
 13 15  1  0  0  0  0
 15 16  1  0  0  0  0
 16 17  1  0  0  0  0
 16 18  1  1  0  0  0
 19 22  1  0  0  0  0
 22 23  1  0  0  0  0
M  END
>  <CHROM.1>
-83.37682801,-119.23394146,98.03896268,144.77780890,-170.26273240,-68.33779817
10.51736457,-8.45352678,-12.34911153,2.36838400,0.04519495,0.01796273

>  <Name>
ligand

>  <RI>
0

>  <Rbt.Current_Directory>
/home/itssahil/PROJECTS/Mol_Feturizer/New_Systems/rnas/3TZR

>  <Rbt.Executable>
rbdock ($Id: //depot/dev/client3/rdock/2013.1/src/exe/rbdock.cxx#4 $)

>  <Rbt.Library>
libRbt.so (2013.1, Build901 2013/11/27)

>  <Rbt.Parameter_File>
/export/apps/rDock/src/rDock_2013.1_src/data/scripts/dock_solv.prm

>  <Rbt.Receptor>
prm/pocket_docking_6.prm

>  <SCORE>
-29.261

>  <SCORE.INTER>
-20.3703

>  <SCORE.INTER.CONST>
1

>  <SCORE.INTER.POLAR>
0

>  <SCORE.INTER.ROT>
6

>  <SCORE.INTER.SOLV>
22.1326

>  <SCORE.INTER.VDW>
-28.5577

>  <SCORE.INTER.norm>
-0.848762

>  <SCORE.INTRA>
-8.89068

>  <SCORE.INTRA.DIHEDRAL>
2.68506

>  <SCORE.INTRA.DIHEDRAL.0>
4.94008

>  <SCORE.INTRA.POLAR>
0

>  <SCORE.INTRA.POLAR.0>
0

>  <SCORE.INTRA.REPUL>
0

>  <SCORE.INTRA.REPUL.0>
0

>  <SCORE.INTRA.SOLV>
1.03251

>  <SCORE.INTRA.SOLV.lig_0>
-31.4704

>  <SCORE.INTRA.VDW>
-10.7495

>  <SCORE.INTRA.VDW.0>
10.2807

>  <SCORE.INTRA.norm>
-0.370445

>  <SCORE.RESTR>
0

>  <SCORE.RESTR.CAVITY>
0

>  <SCORE.RESTR.norm>
0

>  <SCORE.SYSTEM>
0

>  <SCORE.SYSTEM.CONST>
0

>  <SCORE.SYSTEM.DIHEDRAL>
0

>  <SCORE.SYSTEM.SOLV>
0

>  <SCORE.SYSTEM.norm>
0

>  <SCORE.heavy>
24

>  <SCORE.norm>
-1.21921

>  <RMSD>
1.807

$$$$
ligand
 OpenBabel11021811493D
libRbt.so/2013.1/901 2013/11/27
 24 26  0  0  0  0  0  0  0  0999 V2000
    5.7153   -9.9895  -12.6146 N   0  0  0  0  0  0  0  0  0  0  0  0
    4.7416  -10.7282  -11.8269 C   0  0  0  0  0  0  0  0  0  0  0  0
   13.8826   -7.6243  -12.7097 O   0  0  0  0  0  0  0  0  0  0  0  0
   12.8056   -6.7512  -12.6345 C   0  0  0  0  0  0  0  0  0  0  0  0
    9.3732   -4.2173  -12.3955 N   0  0  0  0  0  0  0  0  0  0  0  0
   12.9390   -5.3064  -13.0367 C   0  0  0  0  0  0  0  0  0  0  0  0
    9.0854   -6.3524  -11.7596 N   0  0  0  0  0  0  0  0  0  0  0  0
   11.8368   -4.3923  -12.9950 C   0  0  0  0  0  0  0  0  0  0  0  0
    7.0882   -4.8461  -11.6230 N   0  0  0  0  0  0  0  0  0  0  0  0
   10.5796   -4.9187  -12.5302 C   0  0  0  0  0  0  0  0  0  0  0  0
   12.4603  -11.6779  -10.8149 N   0  0  0  0  0  0  0  0  0  0  0  0
   10.4422   -6.2930  -12.1285 C   0  0  0  0  0  0  0  0  0  0  0  0
   11.6122   -7.2105  -12.1993 C   0  0  0  0  0  0  0  0  0  0  0  0
    8.4634   -5.1196  -11.9260 C   0  0  0  0  0  0  0  0  0  0  0  0
   11.4453   -8.6592  -11.7803 C   0  0  0  0  0  0  0  0  0  0  0  0
   12.7422   -9.4530  -11.6645 C   0  0  1  0  0  0  0  0  0  0  0  0
   13.9624   -8.5784  -11.7101 C   0  0  0  0  0  0  0  0  0  0  0  0
   12.7191  -10.3080  -10.4064 C   0  0  0  0  0  0  0  0  0  0  0  0
    8.3920   -7.5842  -11.3364 C   0  0  0  0  0  0  0  0  0  0  0  0
   13.3689  -12.5555  -10.0895 C   0  0  0  0  0  0  0  0  0  0  0  0
   11.0854  -11.9886  -10.4561 C   0  0  0  0  0  0  0  0  0  0  0  0
    7.3941   -8.1633  -12.3540 C   0  0  0  0  0  0  0  0  0  0  0  0
    6.7522   -9.4221  -11.7410 C   0  0  0  0  0  0  0  0  0  0  0  0
    6.2911  -10.9027  -13.5953 C   0  0  0  0  0  0  0  0  0  0  0  0
  1 23  1  0  0  0  0
  1 24  1  0  0  0  0
  1  2  1  0  0  0  0
  3  4  1  0  0  0  0
  3 17  1  0  0  0  0
  4  6  2  0  0  0  0
  4 13  1  0  0  0  0
  5 10  1  0  0  0  0
  5 14  2  0  0  0  0
  6  8  1  0  0  0  0
  7 12  1  0  0  0  0
  7 14  1  0  0  0  0
  7 19  1  0  0  0  0
  8 10  2  0  0  0  0
  9 14  1  0  0  0  0
 10 12  1  0  0  0  0
 11 18  1  0  0  0  0
 11 20  1  0  0  0  0
 11 21  1  0  0  0  0
 12 13  2  0  0  0  0
 13 15  1  0  0  0  0
 15 16  1  0  0  0  0
 16 17  1  0  0  0  0
 16 18  1  1  0  0  0
 19 22  1  0  0  0  0
 22 23  1  0  0  0  0
M  END
>  <CHROM.1>
-153.75496011,-107.62719686,135.54566898,103.89759161,-179.05769021,176.14490556
10.16984400,-8.18029809,-11.90623701,3.07569956,-0.08268327,-0.19319628

>  <Name>
ligand

>  <RI>
144

>  <Rbt.Current_Directory>
/home/itssahil/PROJECTS/Mol_Feturizer/New_Systems/rnas/3TZR

>  <Rbt.Executable>
rbdock ($Id: //depot/dev/client3/rdock/2013.1/src/exe/rbdock.cxx#4 $)

>  <Rbt.Library>
libRbt.so (2013.1, Build901 2013/11/27)

>  <Rbt.Parameter_File>
/export/apps/rDock/src/rDock_2013.1_src/data/scripts/dock_solv.prm

>  <Rbt.Receptor>
prm/blind_docking_60.prm

>  <SCORE>
-29.1441

>  <SCORE.INTER>
-19.6637

>  <SCORE.INTER.CONST>
1

>  <SCORE.INTER.POLAR>
0

>  <SCORE.INTER.ROT>
6

>  <SCORE.INTER.SOLV>
22.5023

>  <SCORE.INTER.VDW>
-28.2099

>  <SCORE.INTER.norm>
-0.819323

>  <SCORE.INTRA>
-9.4804

>  <SCORE.INTRA.DIHEDRAL>
3.59014

>  <SCORE.INTRA.DIHEDRAL.0>
4.94008

>  <SCORE.INTRA.POLAR>
0

>  <SCORE.INTRA.POLAR.0>
0

>  <SCORE.INTRA.REPUL>
0

>  <SCORE.INTRA.REPUL.0>
0

>  <SCORE.INTRA.SOLV>
0.353221

>  <SCORE.INTRA.SOLV.lig_0>
-31.4704

>  <SCORE.INTRA.VDW>
-11.4521

>  <SCORE.INTRA.VDW.0>
10.2807

>  <SCORE.INTRA.norm>
-0.395017

>  <SCORE.RESTR>
0

>  <SCORE.RESTR.CAVITY>
0

>  <SCORE.RESTR.norm>
0

>  <SCORE.SYSTEM>
0

>  <SCORE.SYSTEM.CONST>
0

>  <SCORE.SYSTEM.DIHEDRAL>
0

>  <SCORE.SYSTEM.SOLV>
0

>  <SCORE.SYSTEM.norm>
0

>  <SCORE.heavy>
24

>  <SCORE.norm>
-1.21434

>  <RMSD>
1.821

$$$$
ligand
 OpenBabel11021811493D
libRbt.so/2013.1/901 2013/11/27
 24 26  0  0  0  0  0  0  0  0999 V2000
    6.4397  -10.0471  -13.4797 N   0  0  0  0  0  0  0  0  0  0  0  0
    5.5574  -10.8350  -12.6341 C   0  0  0  0  0  0  0  0  0  0  0  0
   13.5957   -7.1549  -13.1684 O   0  0  0  0  0  0  0  0  0  0  0  0
   12.5061   -6.3476  -12.8706 C   0  0  0  0  0  0  0  0  0  0  0  0
    9.0407   -4.0211  -11.9552 N   0  0  0  0  0  0  0  0  0  0  0  0
   12.5528   -4.8581  -13.0852 C   0  0  0  0  0  0  0  0  0  0  0  0
    8.8858   -6.2318  -11.5881 N   0  0  0  0  0  0  0  0  0  0  0  0
   11.4333   -4.0070  -12.8123 C   0  0  0  0  0  0  0  0  0  0  0  0
    6.8682   -4.8461  -11.0536 N   0  0  0  0  0  0  0  0  0  0  0  0
   10.2476   -4.6448  -12.3014 C   0  0  0  0  0  0  0  0  0  0  0  0
   12.0242  -11.3559  -11.5387 N   0  0  0  0  0  0  0  0  0  0  0  0
   10.1948   -6.0646  -12.0772 C   0  0  0  0  0  0  0  0  0  0  0  0
   11.3787   -6.9123  -12.3860 C   0  0  0  0  0  0  0  0  0  0  0  0
    8.2124   -5.0165  -11.5245 C   0  0  0  0  0  0  0  0  0  0  0  0
   11.3005   -8.4094  -12.1520 C   0  0  0  0  0  0  0  0  0  0  0  0
   12.6261   -9.1535  -12.2725 C   0  0  1  0  0  0  0  0  0  0  0  0
   13.8077   -8.2275  -12.3195 C   0  0  0  0  0  0  0  0  0  0  0  0
   12.7594  -10.1663  -11.1453 C   0  0  0  0  0  0  0  0  0  0  0  0
    8.2780   -7.5378  -11.2688 C   0  0  0  0  0  0  0  0  0  0  0  0
   12.9572  -12.2954  -12.1461 C   0  0  0  0  0  0  0  0  0  0  0  0
   11.4562  -11.9373  -10.3326 C   0  0  0  0  0  0  0  0  0  0  0  0
    7.1862   -8.0140  -12.2426 C   0  0  0  0  0  0  0  0  0  0  0  0
    7.5186   -9.4539  -12.6769 C   0  0  0  0  0  0  0  0  0  0  0  0
    6.9725  -10.9221  -14.5179 C   0  0  0  0  0  0  0  0  0  0  0  0
  1 23  1  0  0  0  0
  1 24  1  0  0  0  0
  1  2  1  0  0  0  0
  3  4  1  0  0  0  0
  3 17  1  0  0  0  0
  4  6  2  0  0  0  0
  4 13  1  0  0  0  0
  5 10  1  0  0  0  0
  5 14  2  0  0  0  0
  6  8  1  0  0  0  0
  7 12  1  0  0  0  0
  7 14  1  0  0  0  0
  7 19  1  0  0  0  0
  8 10  2  0  0  0  0
  9 14  1  0  0  0  0
 10 12  1  0  0  0  0
 11 18  1  0  0  0  0
 11 20  1  0  0  0  0
 11 21  1  0  0  0  0
 12 13  2  0  0  0  0
 13 15  1  0  0  0  0
 15 16  1  0  0  0  0
 16 17  1  0  0  0  0
 16 18  1  1  0  0  0
 19 22  1  0  0  0  0
 22 23  1  0  0  0  0
M  END
>  <CHROM.1>
-95.42986460,-108.34511765,95.15959257,82.19508412,129.25084519,172.99830851
10.12719726,-7.99473207,-12.23015119,2.08950263,-0.05192545,0.00510834

>  <Name>
ligand

>  <RI>
0

>  <Rbt.Current_Directory>
/home/itssahil/PROJECTS/Mol_Feturizer/New_Systems/rnas/3TZR

>  <Rbt.Executable>
rbdock ($Id: //depot/dev/client3/rdock/2013.1/src/exe/rbdock.cxx#4 $)

>  <Rbt.Library>
libRbt.so (2013.1, Build901 2013/11/27)

>  <Rbt.Parameter_File>
/export/apps/rDock/src/rDock_2013.1_src/data/scripts/dock_solv.prm

>  <Rbt.Receptor>
prm/blind_docking_100.prm

>  <SCORE>
-29.2542

>  <SCORE.INTER>
-21.2379

>  <SCORE.INTER.CONST>
1

>  <SCORE.INTER.POLAR>
0

>  <SCORE.INTER.ROT>
6

>  <SCORE.INTER.SOLV>
24.597

>  <SCORE.INTER.VDW>
-29.9576

>  <SCORE.INTER.norm>
-0.884912

>  <SCORE.INTRA>
-8.35367

>  <SCORE.INTRA.DIHEDRAL>
6.18512

>  <SCORE.INTRA.DIHEDRAL.0>
4.94008

>  <SCORE.INTRA.POLAR>
0

>  <SCORE.INTRA.POLAR.0>
0

>  <SCORE.INTRA.REPUL>
0

>  <SCORE.INTRA.REPUL.0>
0

>  <SCORE.INTRA.SOLV>
0.277951

>  <SCORE.INTRA.SOLV.lig_0>
-31.4704

>  <SCORE.INTRA.VDW>
-11.5852

>  <SCORE.INTRA.VDW.0>
10.2807

>  <SCORE.INTRA.norm>
-0.34807

>  <SCORE.RESTR>
0.337333

>  <SCORE.RESTR.CAVITY>
0.337333

>  <SCORE.RESTR.norm>
0.0140555

>  <SCORE.SYSTEM>
0

>  <SCORE.SYSTEM.CONST>
0

>  <SCORE.SYSTEM.DIHEDRAL>
0

>  <SCORE.SYSTEM.SOLV>
0

>  <SCORE.SYSTEM.norm>
0

>  <SCORE.heavy>
24

>  <SCORE.norm>
-1.21893

>  <RMSD>
1.846

$$$$
ligand
 OpenBabel11021811493D
libRbt.so/2013.1/901 2013/11/27
 24 26  0  0  0  0  0  0  0  0999 V2000
    7.0386  -10.1623  -12.5528 N   0  0  0  0  0  0  0  0  0  0  0  0
    6.7786  -10.5593  -13.9272 C   0  0  0  0  0  0  0  0  0  0  0  0
   13.9393   -8.2124  -13.2090 O   0  0  0  0  0  0  0  0  0  0  0  0
   13.0096   -7.2248  -12.9117 C   0  0  0  0  0  0  0  0  0  0  0  0
   10.0082   -4.3167  -12.0210 N   0  0  0  0  0  0  0  0  0  0  0  0
   13.3697   -5.7644  -12.9785 C   0  0  0  0  0  0  0  0  0  0  0  0
    9.3861   -6.4704  -11.8797 N   0  0  0  0  0  0  0  0  0  0  0  0
   12.4218   -4.7261  -12.7038 C   0  0  0  0  0  0  0  0  0  0  0  0
    7.6446   -4.7470  -11.3566 N   0  0  0  0  0  0  0  0  0  0  0  0
   11.0930   -5.1453  -12.3405 C   0  0  0  0  0  0  0  0  0  0  0  0
   13.3332  -12.1655  -11.8420 N   0  0  0  0  0  0  0  0  0  0  0  0
   10.7399   -6.5373  -12.2580 C   0  0  0  0  0  0  0  0  0  0  0  0
   11.7545   -7.5827  -12.5635 C   0  0  0  0  0  0  0  0  0  0  0  0
    8.9643   -5.1518  -11.7468 C   0  0  0  0  0  0  0  0  0  0  0  0
   11.3606   -9.0456  -12.4804 C   0  0  0  0  0  0  0  0  0  0  0  0
   12.5175  -10.0342  -12.5791 C   0  0  1  0  0  0  0  0  0  0  0  0
   13.8588   -9.3699  -12.4544 C   0  0  0  0  0  0  0  0  0  0  0  0
   12.3477  -11.1395  -11.5478 C   0  0  0  0  0  0  0  0  0  0  0  0
    8.5055   -7.6450  -11.7305 C   0  0  0  0  0  0  0  0  0  0  0  0
   13.6134  -12.9015  -10.6166 C   0  0  0  0  0  0  0  0  0  0  0  0
   12.7513  -13.0597  -12.8306 C   0  0  0  0  0  0  0  0  0  0  0  0
    7.2907   -7.6838  -12.6737 C   0  0  0  0  0  0  0  0  0  0  0  0
    6.3981   -8.8709  -12.2658 C   0  0  0  0  0  0  0  0  0  0  0  0
    6.5319  -11.2110  -11.6748 C   0  0  0  0  0  0  0  0  0  0  0  0
  1 23  1  0  0  0  0
  1 24  1  0  0  0  0
  1  2  1  0  0  0  0
  3  4  1  0  0  0  0
  3 17  1  0  0  0  0
  4  6  2  0  0  0  0
  4 13  1  0  0  0  0
  5 10  1  0  0  0  0
  5 14  2  0  0  0  0
  6  8  1  0  0  0  0
  7 12  1  0  0  0  0
  7 14  1  0  0  0  0
  7 19  1  0  0  0  0
  8 10  2  0  0  0  0
  9 14  1  0  0  0  0
 10 12  1  0  0  0  0
 11 18  1  0  0  0  0
 11 20  1  0  0  0  0
 11 21  1  0  0  0  0
 12 13  2  0  0  0  0
 13 15  1  0  0  0  0
 15 16  1  0  0  0  0
 16 17  1  0  0  0  0
 16 18  1  1  0  0  0
 19 22  1  0  0  0  0
 22 23  1  0  0  0  0
M  END
>  <CHROM.1>
-85.68922458,-118.12189475,155.13596121,170.07839910,-173.08480186,-68.71909660
10.57313570,-8.45998660,-12.29325800,2.33296941,0.01077166,-0.02154404

>  <Name>
ligand

>  <RI>
144

>  <Rbt.Current_Directory>
/home/itssahil/PROJECTS/Mol_Feturizer/New_Systems/rnas/3TZR

>  <Rbt.Executable>
rbdock ($Id: //depot/dev/client3/rdock/2013.1/src/exe/rbdock.cxx#4 $)

>  <Rbt.Library>
libRbt.so (2013.1, Build901 2013/11/27)

>  <Rbt.Parameter_File>
/export/apps/rDock/src/rDock_2013.1_src/data/scripts/dock_solv.prm

>  <Rbt.Receptor>
prm/pocket_docking_8.prm

>  <SCORE>
-30.775

>  <SCORE.INTER>
-20.3441

>  <SCORE.INTER.CONST>
1

>  <SCORE.INTER.POLAR>
0

>  <SCORE.INTER.ROT>
6

>  <SCORE.INTER.SOLV>
21.8133

>  <SCORE.INTER.VDW>
-28.4339

>  <SCORE.INTER.norm>
-0.847673

>  <SCORE.INTRA>
-10.4309

>  <SCORE.INTRA.DIHEDRAL>
-0.989361

>  <SCORE.INTRA.DIHEDRAL.0>
4.94008

>  <SCORE.INTRA.POLAR>
0

>  <SCORE.INTRA.POLAR.0>
0

>  <SCORE.INTRA.REPUL>
0

>  <SCORE.INTRA.REPUL.0>
0

>  <SCORE.INTRA.SOLV>
1.0254

>  <SCORE.INTRA.SOLV.lig_0>
-31.4704

>  <SCORE.INTRA.VDW>
-10.4489

>  <SCORE.INTRA.VDW.0>
10.2807

>  <SCORE.INTRA.norm>
-0.434619

>  <SCORE.RESTR>
0

>  <SCORE.RESTR.CAVITY>
0

>  <SCORE.RESTR.norm>
0

>  <SCORE.SYSTEM>
0

>  <SCORE.SYSTEM.CONST>
0

>  <SCORE.SYSTEM.DIHEDRAL>
0

>  <SCORE.SYSTEM.SOLV>
0

>  <SCORE.SYSTEM.norm>
0

>  <SCORE.heavy>
24

>  <SCORE.norm>
-1.28229

>  <RMSD>
1.849

$$$$
ligand
 OpenBabel11021811493D
libRbt.so/2013.1/901 2013/11/27
 24 26  0  0  0  0  0  0  0  0999 V2000
    7.0009  -10.1671  -12.5715 N   0  0  0  0  0  0  0  0  0  0  0  0
    6.7983  -10.5277  -13.9655 C   0  0  0  0  0  0  0  0  0  0  0  0
   13.9646   -8.2564  -13.1801 O   0  0  0  0  0  0  0  0  0  0  0  0
   13.0320   -7.2721  -12.8816 C   0  0  0  0  0  0  0  0  0  0  0  0
   10.0215   -4.3732  -11.9913 N   0  0  0  0  0  0  0  0  0  0  0  0
   13.3947   -5.8113  -12.9215 C   0  0  0  0  0  0  0  0  0  0  0  0
    9.3948   -6.5279  -11.8909 N   0  0  0  0  0  0  0  0  0  0  0  0
   12.4442   -4.7758  -12.6451 C   0  0  0  0  0  0  0  0  0  0  0  0
    7.6480   -4.8100  -11.3675 N   0  0  0  0  0  0  0  0  0  0  0  0
   11.1098   -5.1985  -12.3073 C   0  0  0  0  0  0  0  0  0  0  0  0
   13.4001  -12.1787  -11.8136 N   0  0  0  0  0  0  0  0  0  0  0  0
   10.7539   -6.5911  -12.2506 C   0  0  0  0  0  0  0  0  0  0  0  0
   11.7716   -7.6333  -12.5569 C   0  0  0  0  0  0  0  0  0  0  0  0
    8.9727   -5.2108  -11.7446 C   0  0  0  0  0  0  0  0  0  0  0  0
   11.3747   -9.0967  -12.5013 C   0  0  0  0  0  0  0  0  0  0  0  0
   12.5317  -10.0853  -12.5979 C   0  0  1  0  0  0  0  0  0  0  0  0
   13.8719   -9.4249  -12.4439 C   0  0  0  0  0  0  0  0  0  0  0  0
   12.3457  -11.2056  -11.5856 C   0  0  0  0  0  0  0  0  0  0  0  0
    8.5107   -7.7033  -11.7720 C   0  0  0  0  0  0  0  0  0  0  0  0
   13.6470  -12.8922  -10.5678 C   0  0  0  0  0  0  0  0  0  0  0  0
   12.9254  -13.1080  -12.8268 C   0  0  0  0  0  0  0  0  0  0  0  0
    7.2679   -7.6895  -12.6786 C   0  0  0  0  0  0  0  0  0  0  0  0
    6.3658   -8.8734  -12.2826 C   0  0  0  0  0  0  0  0  0  0  0  0
    6.4402  -11.2285  -11.7430 C   0  0  0  0  0  0  0  0  0  0  0  0
  1 23  1  0  0  0  0
  1 24  1  0  0  0  0
  1  2  1  0  0  0  0
  3  4  1  0  0  0  0
  3 17  1  0  0  0  0
  4  6  2  0  0  0  0
  4 13  1  0  0  0  0
  5 10  1  0  0  0  0
  5 14  2  0  0  0  0
  6  8  1  0  0  0  0
  7 12  1  0  0  0  0
  7 14  1  0  0  0  0
  7 19  1  0  0  0  0
  8 10  2  0  0  0  0
  9 14  1  0  0  0  0
 10 12  1  0  0  0  0
 11 18  1  0  0  0  0
 11 20  1  0  0  0  0
 11 21  1  0  0  0  0
 12 13  2  0  0  0  0
 13 15  1  0  0  0  0
 15 16  1  0  0  0  0
 16 17  1  0  0  0  0
 16 18  1  1  0  0  0
 19 22  1  0  0  0  0
 22 23  1  0  0  0  0
M  END
>  <CHROM.1>
-83.16959622,-121.33577693,154.10661577,174.48378124,-171.96022593,-65.98010917
10.58707112,-8.49709328,-12.29195468,2.38365024,0.00224011,-0.01691729

>  <Name>
ligand

>  <RI>
0

>  <Rbt.Current_Directory>
/home/itssahil/PROJECTS/Mol_Feturizer/New_Systems/rnas/3TZR

>  <Rbt.Executable>
rbdock ($Id: //depot/dev/client3/rdock/2013.1/src/exe/rbdock.cxx#4 $)

>  <Rbt.Library>
libRbt.so (2013.1, Build901 2013/11/27)

>  <Rbt.Parameter_File>
/export/apps/rDock/src/rDock_2013.1_src/data/scripts/dock_solv.prm

>  <Rbt.Receptor>
prm/pocket_docking_5.prm

>  <SCORE>
-30.6988

>  <SCORE.INTER>
-20.3818

>  <SCORE.INTER.CONST>
1

>  <SCORE.INTER.POLAR>
0

>  <SCORE.INTER.ROT>
6

>  <SCORE.INTER.SOLV>
21.5662

>  <SCORE.INTER.VDW>
-28.3766

>  <SCORE.INTER.norm>
-0.849243

>  <SCORE.INTRA>
-10.317

>  <SCORE.INTRA.DIHEDRAL>
-1.38098

>  <SCORE.INTRA.DIHEDRAL.0>
4.94008

>  <SCORE.INTRA.POLAR>
0

>  <SCORE.INTRA.POLAR.0>
0

>  <SCORE.INTRA.REPUL>
0

>  <SCORE.INTRA.REPUL.0>
0

>  <SCORE.INTRA.SOLV>
1.14585

>  <SCORE.INTRA.SOLV.lig_0>
-31.4704

>  <SCORE.INTRA.VDW>
-10.1994

>  <SCORE.INTRA.VDW.0>
10.2807

>  <SCORE.INTRA.norm>
-0.429875

>  <SCORE.RESTR>
0

>  <SCORE.RESTR.CAVITY>
0

>  <SCORE.RESTR.norm>
0

>  <SCORE.SYSTEM>
0

>  <SCORE.SYSTEM.CONST>
0

>  <SCORE.SYSTEM.DIHEDRAL>
0

>  <SCORE.SYSTEM.SOLV>
0

>  <SCORE.SYSTEM.norm>
0

>  <SCORE.heavy>
24

>  <SCORE.norm>
-1.27912

>  <RMSD>
1.870

$$$$
ligand
 OpenBabel11021811493D
libRbt.so/2013.1/901 2013/11/27
 24 26  0  0  0  0  0  0  0  0999 V2000
    5.2616  -10.6563  -12.8874 N   0  0  0  0  0  0  0  0  0  0  0  0
    4.5112  -10.7438  -11.6450 C   0  0  0  0  0  0  0  0  0  0  0  0
   13.0063   -5.5039  -12.8615 O   0  0  0  0  0  0  0  0  0  0  0  0
   11.6677   -5.1884  -12.6706 C   0  0  0  0  0  0  0  0  0  0  0  0
    7.5023   -4.3973  -12.1392 N   0  0  0  0  0  0  0  0  0  0  0  0
   11.2041   -3.7584  -12.5869 C   0  0  0  0  0  0  0  0  0  0  0  0
    8.1045   -6.5592  -12.2362 N   0  0  0  0  0  0  0  0  0  0  0  0
    9.8258   -3.4062  -12.4184 C   0  0  0  0  0  0  0  0  0  0  0  0
    5.6678   -6.0705  -11.9195 N   0  0  0  0  0  0  0  0  0  0  0  0
    8.8896   -4.4954  -12.3156 C   0  0  0  0  0  0  0  0  0  0  0  0
   12.3519  -10.2052  -12.2071 N   0  0  0  0  0  0  0  0  0  0  0  0
    9.3210   -5.8662  -12.3786 C   0  0  0  0  0  0  0  0  0  0  0  0
   10.7627   -6.1857  -12.5663 C   0  0  0  0  0  0  0  0  0  0  0  0
    7.0361   -5.6792  -12.0996 C   0  0  0  0  0  0  0  0  0  0  0  0
   11.1972   -7.6376  -12.6400 C   0  0  0  0  0  0  0  0  0  0  0  0
   12.7044   -7.8652  -12.5964 C   0  0  1  0  0  0  0  0  0  0  0  0
   13.4651   -6.6314  -12.2026 C   0  0  0  0  0  0  0  0  0  0  0  0
   13.0285   -9.0336  -11.6778 C   0  0  0  0  0  0  0  0  0  0  0  0
    7.9697   -8.0266  -12.3118 C   0  0  0  0  0  0  0  0  0  0  0  0
   13.3304  -11.2732  -12.3611 C   0  0  0  0  0  0  0  0  0  0  0  0
   11.3407  -10.6003  -11.2392 C   0  0  0  0  0  0  0  0  0  0  0  0
    6.5719   -8.5428  -12.6946 C   0  0  0  0  0  0  0  0  0  0  0  0
    6.5917  -10.0819  -12.6396 C   0  0  0  0  0  0  0  0  0  0  0  0
    5.3613  -11.9976  -13.4516 C   0  0  0  0  0  0  0  0  0  0  0  0
  1 23  1  0  0  0  0
  1 24  1  0  0  0  0
  1  2  1  0  0  0  0
  3  4  1  0  0  0  0
  3 17  1  0  0  0  0
  4  6  2  0  0  0  0
  4 13  1  0  0  0  0
  5 10  1  0  0  0  0
  5 14  2  0  0  0  0
  6  8  1  0  0  0  0
  7 12  1  0  0  0  0
  7 14  1  0  0  0  0
  7 19  1  0  0  0  0
  8 10  2  0  0  0  0
  9 14  1  0  0  0  0
 10 12  1  0  0  0  0
 11 18  1  0  0  0  0
 11 20  1  0  0  0  0
 11 21  1  0  0  0  0
 12 13  2  0  0  0  0
 13 15  1  0  0  0  0
 15 16  1  0  0  0  0
 16 17  1  0  0  0  0
 16 18  1  1  0  0  0
 19 22  1  0  0  0  0
 22 23  1  0  0  0  0
M  END
>  <CHROM.1>
-87.01866719,-156.36659587,127.22839614,59.62553495,-176.52507768,175.39601561
9.43073330,-7.65954184,-12.36142284,-2.69557326,-0.01893193,-0.00713255

>  <Name>
ligand

>  <RI>
144

>  <Rbt.Current_Directory>
/home/itssahil/PROJECTS/Mol_Feturizer/New_Systems/rnas/3TZR

>  <Rbt.Executable>
rbdock ($Id: //depot/dev/client3/rdock/2013.1/src/exe/rbdock.cxx#4 $)

>  <Rbt.Library>
libRbt.so (2013.1, Build901 2013/11/27)

>  <Rbt.Parameter_File>
/export/apps/rDock/src/rDock_2013.1_src/data/scripts/dock_solv.prm

>  <Rbt.Receptor>
prm/blind_docking_20.prm

>  <SCORE>
-26.1947

>  <SCORE.INTER>
-20.1964

>  <SCORE.INTER.CONST>
1

>  <SCORE.INTER.POLAR>
0

>  <SCORE.INTER.ROT>
6

>  <SCORE.INTER.SOLV>
21.6555

>  <SCORE.INTER.VDW>
-28.2827

>  <SCORE.INTER.norm>
-0.841516

>  <SCORE.INTRA>
-8.69243

>  <SCORE.INTRA.DIHEDRAL>
-0.0731731

>  <SCORE.INTRA.DIHEDRAL.0>
4.94008

>  <SCORE.INTRA.POLAR>
0

>  <SCORE.INTRA.POLAR.0>
0

>  <SCORE.INTRA.REPUL>
0

>  <SCORE.INTRA.REPUL.0>
0

>  <SCORE.INTRA.SOLV>
1.5837

>  <SCORE.INTRA.SOLV.lig_0>
-31.4704

>  <SCORE.INTRA.VDW>
-9.44769

>  <SCORE.INTRA.VDW.0>
10.2807

>  <SCORE.INTRA.norm>
-0.362184

>  <SCORE.RESTR>
2.69415

>  <SCORE.RESTR.CAVITY>
2.69415

>  <SCORE.RESTR.norm>
0.112256

>  <SCORE.SYSTEM>
0

>  <SCORE.SYSTEM.CONST>
0

>  <SCORE.SYSTEM.DIHEDRAL>
0

>  <SCORE.SYSTEM.SOLV>
0

>  <SCORE.SYSTEM.norm>
0

>  <SCORE.heavy>
24

>  <SCORE.norm>
-1.09144

>  <RMSD>
1.893

$$$$
ligand
 OpenBabel11021811493D
libRbt.so/2013.1/901 2013/11/27
 24 26  0  0  0  0  0  0  0  0999 V2000
    7.5539  -11.7922  -10.3624 N   0  0  0  0  0  0  0  0  0  0  0  0
    6.5817  -12.7588  -10.8469 C   0  0  0  0  0  0  0  0  0  0  0  0
   14.2392   -9.1440  -13.3633 O   0  0  0  0  0  0  0  0  0  0  0  0
   13.2883   -8.2098  -12.9750 C   0  0  0  0  0  0  0  0  0  0  0  0
   10.2237   -5.4609  -11.8302 N   0  0  0  0  0  0  0  0  0  0  0  0
   13.6407   -6.7553  -12.8100 C   0  0  0  0  0  0  0  0  0  0  0  0
    9.6107   -7.6120  -12.0358 N   0  0  0  0  0  0  0  0  0  0  0  0
   12.6724   -5.7676  -12.4376 C   0  0  0  0  0  0  0  0  0  0  0  0
    7.8320   -5.9823  -11.3601 N   0  0  0  0  0  0  0  0  0  0  0  0
   11.3296   -6.2347  -12.2092 C   0  0  0  0  0  0  0  0  0  0  0  0
   12.6224  -11.8692  -10.8376 N   0  0  0  0  0  0  0  0  0  0  0  0
   10.9828   -7.6237  -12.3483 C   0  0  0  0  0  0  0  0  0  0  0  0
   12.0194   -8.6140  -12.7487 C   0  0  0  0  0  0  0  0  0  0  0  0
    9.1731   -6.3265  -11.7352 C   0  0  0  0  0  0  0  0  0  0  0  0
   11.6323  -10.0733  -12.8996 C   0  0  0  0  0  0  0  0  0  0  0  0
   12.7999  -11.0375  -13.0799 C   0  0  1  0  0  0  0  0  0  0  0  0
   14.1281  -10.3989  -12.7900 C   0  0  0  0  0  0  0  0  0  0  0  0
   12.5848  -12.2809  -12.2303 C   0  0  0  0  0  0  0  0  0  0  0  0
    8.7320   -8.7955  -12.1051 C   0  0  0  0  0  0  0  0  0  0  0  0
   11.3134  -12.1152  -10.2479 C   0  0  0  0  0  0  0  0  0  0  0  0
   13.6243  -12.6837  -10.1681 C   0  0  0  0  0  0  0  0  0  0  0  0
    8.4851   -9.5140  -10.7674 C   0  0  0  0  0  0  0  0  0  0  0  0
    7.2890  -10.4684  -10.9434 C   0  0  0  0  0  0  0  0  0  0  0  0
    7.4711  -11.7574   -8.9066 C   0  0  0  0  0  0  0  0  0  0  0  0
  1 23  1  0  0  0  0
  1 24  1  0  0  0  0
  1  2  1  0  0  0  0
  3  4  1  0  0  0  0
  3 17  1  0  0  0  0
  4  6  2  0  0  0  0
  4 13  1  0  0  0  0
  5 10  1  0  0  0  0
  5 14  2  0  0  0  0
  6  8  1  0  0  0  0
  7 12  1  0  0  0  0
  7 14  1  0  0  0  0
  7 19  1  0  0  0  0
  8 10  2  0  0  0  0
  9 14  1  0  0  0  0
 10 12  1  0  0  0  0
 11 18  1  0  0  0  0
 11 20  1  0  0  0  0
 11 21  1  0  0  0  0
 12 13  2  0  0  0  0
 13 15  1  0  0  0  0
 15 16  1  0  0  0  0
 16 17  1  0  0  0  0
 16 18  1  1  0  0  0
 19 22  1  0  0  0  0
 22 23  1  0  0  0  0
M  END
>  <CHROM.1>
-164.80695050,97.99825750,115.96473358,-65.22980104,165.40367858,134.57514944
10.78274819,-9.43033980,-11.70551190,-2.47774423,0.27923631,-0.23540374

>  <Name>
ligand

>  <RI>
0

>  <Rbt.Current_Directory>
/home/itssahil/PROJECTS/Mol_Feturizer/New_Systems/rnas/3TZR

>  <Rbt.Executable>
rbdock ($Id: //depot/dev/client3/rdock/2013.1/src/exe/rbdock.cxx#4 $)

>  <Rbt.Library>
libRbt.so (2013.1, Build901 2013/11/27)

>  <Rbt.Parameter_File>
/export/apps/rDock/src/rDock_2013.1_src/data/scripts/dock_solv.prm

>  <Rbt.Receptor>
prm/pocket_docking_6.prm

>  <SCORE>
-27.6563

>  <SCORE.INTER>
-19.2572

>  <SCORE.INTER.CONST>
1

>  <SCORE.INTER.POLAR>
0

>  <SCORE.INTER.ROT>
6

>  <SCORE.INTER.SOLV>
16.4751

>  <SCORE.INTER.VDW>
-25.9298

>  <SCORE.INTER.norm>
-0.802385

>  <SCORE.INTRA>
-8.39911

>  <SCORE.INTRA.DIHEDRAL>
4.81712

>  <SCORE.INTRA.DIHEDRAL.0>
4.94008

>  <SCORE.INTRA.POLAR>
0

>  <SCORE.INTRA.POLAR.0>
0

>  <SCORE.INTRA.REPUL>
0

>  <SCORE.INTRA.REPUL.0>
0

>  <SCORE.INTRA.SOLV>
0.63311

>  <SCORE.INTRA.SOLV.lig_0>
-31.4704

>  <SCORE.INTRA.VDW>
-11.1242

>  <SCORE.INTRA.VDW.0>
10.2807

>  <SCORE.INTRA.norm>
-0.349963

>  <SCORE.RESTR>
0

>  <SCORE.RESTR.CAVITY>
0

>  <SCORE.RESTR.norm>
0

>  <SCORE.SYSTEM>
0

>  <SCORE.SYSTEM.CONST>
0

>  <SCORE.SYSTEM.DIHEDRAL>
0

>  <SCORE.SYSTEM.SOLV>
0

>  <SCORE.SYSTEM.norm>
0

>  <SCORE.heavy>
24

>  <SCORE.norm>
-1.15235

>  <RMSD>
1.920

$$$$
ligand
 OpenBabel11021811493D
libRbt.so/2013.1/901 2013/11/27
 24 26  0  0  0  0  0  0  0  0999 V2000
    5.1851  -10.6471  -12.8109 N   0  0  0  0  0  0  0  0  0  0  0  0
    4.0367  -10.6626  -11.9193 C   0  0  0  0  0  0  0  0  0  0  0  0
   13.7219   -8.1539  -13.1488 O   0  0  0  0  0  0  0  0  0  0  0  0
   12.6097   -7.3934  -12.8136 C   0  0  0  0  0  0  0  0  0  0  0  0
    9.0764   -5.2096  -11.8104 N   0  0  0  0  0  0  0  0  0  0  0  0
   12.6557   -5.8885  -12.8301 C   0  0  0  0  0  0  0  0  0  0  0  0
    8.9198   -7.4493  -11.7429 N   0  0  0  0  0  0  0  0  0  0  0  0
   11.5147   -5.0814  -12.5157 C   0  0  0  0  0  0  0  0  0  0  0  0
    6.8623   -6.1472  -11.1532 N   0  0  0  0  0  0  0  0  0  0  0  0
   10.3069   -5.7815  -12.1627 C   0  0  0  0  0  0  0  0  0  0  0  0
   12.0213  -11.0231  -10.4172 N   0  0  0  0  0  0  0  0  0  0  0  0
   10.2536   -7.2186  -12.1281 C   0  0  0  0  0  0  0  0  0  0  0  0
   11.4609   -8.0176  -12.4738 C   0  0  0  0  0  0  0  0  0  0  0  0
    8.2332   -6.2534  -11.5621 C   0  0  0  0  0  0  0  0  0  0  0  0
   11.3824   -9.5325  -12.4410 C   0  0  0  0  0  0  0  0  0  0  0  0
   12.7193  -10.2531  -12.5785 C   0  0  1  0  0  0  0  0  0  0  0  0
   13.8934   -9.3274  -12.4352 C   0  0  0  0  0  0  0  0  0  0  0  0
   12.7955  -11.4036  -11.5862 C   0  0  0  0  0  0  0  0  0  0  0  0
    8.3059   -8.7865  -11.6321 C   0  0  0  0  0  0  0  0  0  0  0  0
   10.8571  -11.8943  -10.3308 C   0  0  0  0  0  0  0  0  0  0  0  0
   12.8681  -11.2167   -9.2505 C   0  0  0  0  0  0  0  0  0  0  0  0
    7.0017   -8.9822  -12.4243 C   0  0  0  0  0  0  0  0  0  0  0  0
    6.4123  -10.3567  -12.0559 C   0  0  0  0  0  0  0  0  0  0  0  0
    5.2643  -11.9459  -13.4700 C   0  0  0  0  0  0  0  0  0  0  0  0
  1 23  1  0  0  0  0
  1 24  1  0  0  0  0
  1  2  1  0  0  0  0
  3  4  1  0  0  0  0
  3 17  1  0  0  0  0
  4  6  2  0  0  0  0
  4 13  1  0  0  0  0
  5 10  1  0  0  0  0
  5 14  2  0  0  0  0
  6  8  1  0  0  0  0
  7 12  1  0  0  0  0
  7 14  1  0  0  0  0
  7 19  1  0  0  0  0
  8 10  2  0  0  0  0
  9 14  1  0  0  0  0
 10 12  1  0  0  0  0
 11 18  1  0  0  0  0
 11 20  1  0  0  0  0
 11 21  1  0  0  0  0
 12 13  2  0  0  0  0
 13 15  1  0  0  0  0
 15 16  1  0  0  0  0
 16 17  1  0  0  0  0
 16 18  1  1  0  0  0
 19 22  1  0  0  0  0
 22 23  1  0  0  0  0
M  END
>  <CHROM.1>
-112.22532921,-126.26944238,113.16226269,-31.24308586,-172.93876024,-177.81466219
9.87942681,-8.81226782,-11.96749675,-2.97868521,-0.05990545,-0.13910024

>  <Name>
ligand

>  <RI>
0

>  <Rbt.Current_Directory>
/home/itssahil/PROJECTS/Mol_Feturizer/New_Systems/rnas/3TZR

>  <Rbt.Executable>
rbdock ($Id: //depot/dev/client3/rdock/2013.1/src/exe/rbdock.cxx#4 $)

>  <Rbt.Library>
libRbt.so (2013.1, Build901 2013/11/27)

>  <Rbt.Parameter_File>
/export/apps/rDock/src/rDock_2013.1_src/data/scripts/dock_solv.prm

>  <Rbt.Receptor>
prm/blind_docking_80.prm

>  <SCORE>
-26.4433

>  <SCORE.INTER>
-19.6372

>  <SCORE.INTER.CONST>
1

>  <SCORE.INTER.POLAR>
-0.501486

>  <SCORE.INTER.ROT>
6

>  <SCORE.INTER.SOLV>
18.2554

>  <SCORE.INTER.VDW>
-25.105

>  <SCORE.INTER.norm>
-0.818218

>  <SCORE.INTRA>
-7.17432

>  <SCORE.INTRA.DIHEDRAL>
3.5677

>  <SCORE.INTRA.DIHEDRAL.0>
4.94008

>  <SCORE.INTRA.POLAR>
0

>  <SCORE.INTRA.POLAR.0>
0

>  <SCORE.INTRA.REPUL>
0

>  <SCORE.INTRA.REPUL.0>
0

>  <SCORE.INTRA.SOLV>
1.22654

>  <SCORE.INTRA.SOLV.lig_0>
-31.4704

>  <SCORE.INTRA.VDW>
-9.57144

>  <SCORE.INTRA.VDW.0>
10.2807

>  <SCORE.INTRA.norm>
-0.29893

>  <SCORE.RESTR>
0.368243

>  <SCORE.RESTR.CAVITY>
0.368243

>  <SCORE.RESTR.norm>
0.0153435

>  <SCORE.SYSTEM>
0

>  <SCORE.SYSTEM.CONST>
0

>  <SCORE.SYSTEM.DIHEDRAL>
0

>  <SCORE.SYSTEM.SOLV>
0

>  <SCORE.SYSTEM.norm>
0

>  <SCORE.heavy>
24

>  <SCORE.norm>
-1.1018

>  <RMSD>
2.006

$$$$
ligand
 OpenBabel11021811493D
libRbt.so/2013.1/901 2013/11/27
 24 26  0  0  0  0  0  0  0  0999 V2000
    6.5072  -10.4515  -11.9310 N   0  0  0  0  0  0  0  0  0  0  0  0
    6.1422  -11.1451  -13.1558 C   0  0  0  0  0  0  0  0  0  0  0  0
   12.8040   -4.8000  -13.5243 O   0  0  0  0  0  0  0  0  0  0  0  0
   11.5425   -4.6339  -12.9685 C   0  0  0  0  0  0  0  0  0  0  0  0
    7.6314   -4.3133  -11.2776 N   0  0  0  0  0  0  0  0  0  0  0  0
   10.8878   -3.2797  -12.9021 C   0  0  0  0  0  0  0  0  0  0  0  0
    8.5364   -6.3687  -11.3198 N   0  0  0  0  0  0  0  0  0  0  0  0
    9.5764   -3.0861  -12.3594 C   0  0  0  0  0  0  0  0  0  0  0  0
    6.2458   -6.1549  -10.3280 N   0  0  0  0  0  0  0  0  0  0  0  0
    8.9063   -4.2579  -11.8581 C   0  0  0  0  0  0  0  0  0  0  0  0
   13.0219   -9.3255  -12.0043 N   0  0  0  0  0  0  0  0  0  0  0  0
    9.5265   -5.5550  -11.9014 C   0  0  0  0  0  0  0  0  0  0  0  0
   10.8868   -5.7114  -12.4852 C   0  0  0  0  0  0  0  0  0  0  0  0
    7.4191   -5.6231  -10.9590 C   0  0  0  0  0  0  0  0  0  0  0  0
   11.5206   -7.0892  -12.5308 C   0  0  0  0  0  0  0  0  0  0  0  0
   12.9933   -7.1116  -12.9258 C   0  0  1  0  0  0  0  0  0  0  0  0
   13.6152   -5.7444  -12.9193 C   0  0  0  0  0  0  0  0  0  0  0  0
   13.7586   -8.0735  -12.0297 C   0  0  0  0  0  0  0  0  0  0  0  0
    8.6353   -7.8353  -11.1914 C   0  0  0  0  0  0  0  0  0  0  0  0
   13.8772  -10.3753  -12.5412 C   0  0  0  0  0  0  0  0  0  0  0  0
   12.7004   -9.6152  -10.6157 C   0  0  0  0  0  0  0  0  0  0  0  0
    8.1524   -8.6392  -12.4110 C   0  0  0  0  0  0  0  0  0  0  0  0
    6.6750   -9.0144  -12.1902 C   0  0  0  0  0  0  0  0  0  0  0  0
    5.4601  -10.6925  -10.9447 C   0  0  0  0  0  0  0  0  0  0  0  0
  1 23  1  0  0  0  0
  1 24  1  0  0  0  0
  1  2  1  0  0  0  0
  3  4  1  0  0  0  0
  3 17  1  0  0  0  0
  4  6  2  0  0  0  0
  4 13  1  0  0  0  0
  5 10  1  0  0  0  0
  5 14  2  0  0  0  0
  6  8  1  0  0  0  0
  7 12  1  0  0  0  0
  7 14  1  0  0  0  0
  7 19  1  0  0  0  0
  8 10  2  0  0  0  0
  9 14  1  0  0  0  0
 10 12  1  0  0  0  0
 11 18  1  0  0  0  0
 11 20  1  0  0  0  0
 11 21  1  0  0  0  0
 12 13  2  0  0  0  0
 13 15  1  0  0  0  0
 15 16  1  0  0  0  0
 16 17  1  0  0  0  0
 16 18  1  1  0  0  0
 19 22  1  0  0  0  0
 22 23  1  0  0  0  0
M  END
>  <CHROM.1>
-97.06398063,-86.41823763,119.01599763,49.30437566,-93.69180929,-109.19491019
9.88272830,-7.17104640,-12.05000486,-2.72596026,0.14041675,-0.02818053

>  <Name>
ligand

>  <RI>
144

>  <Rbt.Current_Directory>
/home/itssahil/PROJECTS/Mol_Feturizer/New_Systems/rnas/3TZR

>  <Rbt.Executable>
rbdock ($Id: //depot/dev/client3/rdock/2013.1/src/exe/rbdock.cxx#4 $)

>  <Rbt.Library>
libRbt.so (2013.1, Build901 2013/11/27)

>  <Rbt.Parameter_File>
/export/apps/rDock/src/rDock_2013.1_src/data/scripts/dock_solv.prm

>  <Rbt.Receptor>
prm/blind_docking_20.prm

>  <SCORE>
-18.8163

>  <SCORE.INTER>
-16.5504

>  <SCORE.INTER.CONST>
1

>  <SCORE.INTER.POLAR>
0

>  <SCORE.INTER.ROT>
6

>  <SCORE.INTER.SOLV>
23.2346

>  <SCORE.INTER.VDW>
-26.3785

>  <SCORE.INTER.norm>
-0.689601

>  <SCORE.INTRA>
-6.104

>  <SCORE.INTRA.DIHEDRAL>
9.02331

>  <SCORE.INTRA.DIHEDRAL.0>
4.94008

>  <SCORE.INTRA.POLAR>
0

>  <SCORE.INTRA.POLAR.0>
0

>  <SCORE.INTRA.REPUL>
0

>  <SCORE.INTRA.REPUL.0>
0

>  <SCORE.INTRA.SOLV>
1.47795

>  <SCORE.INTRA.SOLV.lig_0>
-31.4704

>  <SCORE.INTRA.VDW>
-11.3546

>  <SCORE.INTRA.VDW.0>
10.2807

>  <SCORE.INTRA.norm>
-0.254334

>  <SCORE.RESTR>
3.8381

>  <SCORE.RESTR.CAVITY>
3.8381

>  <SCORE.RESTR.norm>
0.159921

>  <SCORE.SYSTEM>
0

>  <SCORE.SYSTEM.CONST>
0

>  <SCORE.SYSTEM.DIHEDRAL>
0

>  <SCORE.SYSTEM.SOLV>
0

>  <SCORE.SYSTEM.norm>
0

>  <SCORE.heavy>
24

>  <SCORE.norm>
-0.784014

>  <RMSD>
2.105

$$$$
ligand
 OpenBabel11021811493D
libRbt.so/2013.1/901 2013/11/27
 24 26  0  0  0  0  0  0  0  0999 V2000
    8.3529   -9.7152   -9.9750 N   0  0  0  0  0  0  0  0  0  0  0  0
    7.8727  -11.0254   -9.5659 C   0  0  0  0  0  0  0  0  0  0  0  0
   13.6610  -10.7737  -12.3839 O   0  0  0  0  0  0  0  0  0  0  0  0
   13.3210   -9.4277  -12.4047 C   0  0  0  0  0  0  0  0  0  0  0  0
   12.0884   -5.3366  -12.4572 N   0  0  0  0  0  0  0  0  0  0  0  0
   14.2932   -8.3814  -12.8812 C   0  0  0  0  0  0  0  0  0  0  0  0
   10.5790   -6.8257  -11.7155 N   0  0  0  0  0  0  0  0  0  0  0  0
   13.9576   -6.9900  -12.9386 C   0  0  0  0  0  0  0  0  0  0  0  0
    9.8809   -4.4198  -11.7503 N   0  0  0  0  0  0  0  0  0  0  0  0
   12.6350   -6.6269  -12.5000 C   0  0  0  0  0  0  0  0  0  0  0  0
   11.5133  -13.4577   -9.9388 N   0  0  0  0  0  0  0  0  0  0  0  0
   11.7018   -7.6145  -12.0280 C   0  0  0  0  0  0  0  0  0  0  0  0
   12.0897   -9.0513  -11.9965 C   0  0  0  0  0  0  0  0  0  0  0  0
   10.8190   -5.4810  -11.9776 C   0  0  0  0  0  0  0  0  0  0  0  0
   11.0882  -10.0794  -11.5044 C   0  0  0  0  0  0  0  0  0  0  0  0
   11.6516  -11.4799  -11.2881 C   0  0  1  0  0  0  0  0  0  0  0  0
   13.1526  -11.5129  -11.3298 C   0  0  0  0  0  0  0  0  0  0  0  0
   11.1199  -12.0600   -9.9862 C   0  0  0  0  0  0  0  0  0  0  0  0
    9.2857   -7.3658  -11.2542 C   0  0  0  0  0  0  0  0  0  0  0  0
   11.8014  -13.8096   -8.5550 C   0  0  0  0  0  0  0  0  0  0  0  0
   10.3898  -14.2445  -10.4227 C   0  0  0  0  0  0  0  0  0  0  0  0
    8.6925   -8.4900  -12.1208 C   0  0  0  0  0  0  0  0  0  0  0  0
    7.7328   -9.3201  -11.2477 C   0  0  0  0  0  0  0  0  0  0  0  0
    8.0360   -8.7653   -8.9145 C   0  0  0  0  0  0  0  0  0  0  0  0
  1 23  1  0  0  0  0
  1 24  1  0  0  0  0
  1  2  1  0  0  0  0
  3  4  1  0  0  0  0
  3 17  1  0  0  0  0
  4  6  2  0  0  0  0
  4 13  1  0  0  0  0
  5 10  1  0  0  0  0
  5 14  2  0  0  0  0
  6  8  1  0  0  0  0
  7 12  1  0  0  0  0
  7 14  1  0  0  0  0
  7 19  1  0  0  0  0
  8 10  2  0  0  0  0
  9 14  1  0  0  0  0
 10 12  1  0  0  0  0
 11 18  1  0  0  0  0
 11 20  1  0  0  0  0
 11 21  1  0  0  0  0
 12 13  2  0  0  0  0
 13 15  1  0  0  0  0
 15 16  1  0  0  0  0
 16 17  1  0  0  0  0
 16 18  1  1  0  0  0
 19 22  1  0  0  0  0
 22 23  1  0  0  0  0
M  END
>  <CHROM.1>
-146.00061766,-51.05072515,144.97945327,171.10095706,156.38944097,-49.55351634
10.99678536,-9.36581272,-11.23308544,1.64482424,-0.35987543,2.84512662

>  <Name>
ligand

>  <RI>
0

>  <Rbt.Current_Directory>
/home/itssahil/PROJECTS/Mol_Feturizer/New_Systems/rnas/3TZR

>  <Rbt.Executable>
rbdock ($Id: //depot/dev/client3/rdock/2013.1/src/exe/rbdock.cxx#4 $)

>  <Rbt.Library>
libRbt.so (2013.1, Build901 2013/11/27)

>  <Rbt.Parameter_File>
/export/apps/rDock/src/rDock_2013.1_src/data/scripts/dock_solv.prm

>  <Rbt.Receptor>
prm/pocket_docking_6.prm

>  <SCORE>
-21.0287

>  <SCORE.INTER>
-13.1387

>  <SCORE.INTER.CONST>
1

>  <SCORE.INTER.POLAR>
-0.70955

>  <SCORE.INTER.ROT>
6

>  <SCORE.INTER.SOLV>
17.3106

>  <SCORE.INTER.VDW>
-19.7642

>  <SCORE.INTER.norm>
-0.547446

>  <SCORE.INTRA>
-7.88999

>  <SCORE.INTRA.DIHEDRAL>
1.93561

>  <SCORE.INTRA.DIHEDRAL.0>
4.94008

>  <SCORE.INTRA.POLAR>
0

>  <SCORE.INTRA.POLAR.0>
0

>  <SCORE.INTRA.REPUL>
0

>  <SCORE.INTRA.REPUL.0>
0

>  <SCORE.INTRA.SOLV>
0.161732

>  <SCORE.INTRA.SOLV.lig_0>
-31.4704

>  <SCORE.INTRA.VDW>
-8.93866

>  <SCORE.INTRA.VDW.0>
10.2807

>  <SCORE.INTRA.norm>
-0.328749

>  <SCORE.RESTR>
0

>  <SCORE.RESTR.CAVITY>
0

>  <SCORE.RESTR.norm>
0

>  <SCORE.SYSTEM>
0

>  <SCORE.SYSTEM.CONST>
0

>  <SCORE.SYSTEM.DIHEDRAL>
0

>  <SCORE.SYSTEM.SOLV>
0

>  <SCORE.SYSTEM.norm>
0

>  <SCORE.heavy>
24

>  <SCORE.norm>
-0.876196

>  <RMSD>
3.091

$$$$
ligand
 OpenBabel11021811493D
libRbt.so/2013.1/901 2013/11/27
 24 26  0  0  0  0  0  0  0  0999 V2000
    7.4969   -6.1842  -11.3181 N   0  0  0  0  0  0  0  0  0  0  0  0
    7.1419   -7.3765  -12.0709 C   0  0  0  0  0  0  0  0  0  0  0  0
   11.1563  -11.4632  -12.5800 O   0  0  0  0  0  0  0  0  0  0  0  0
   11.7878  -10.2267  -12.5866 C   0  0  0  0  0  0  0  0  0  0  0  0
   13.5568   -6.3371  -12.6030 N   0  0  0  0  0  0  0  0  0  0  0  0
   13.2255  -10.0836  -13.0102 C   0  0  0  0  0  0  0  0  0  0  0  0
   11.4138   -6.4574  -11.9408 N   0  0  0  0  0  0  0  0  0  0  0  0
   13.8914   -8.8160  -13.0526 C   0  0  0  0  0  0  0  0  0  0  0  0
   12.4744   -4.1877  -11.9535 N   0  0  0  0  0  0  0  0  0  0  0  0
   13.1197   -7.6683  -12.6518 C   0  0  0  0  0  0  0  0  0  0  0  0
    7.6589  -12.0377  -10.2744 N   0  0  0  0  0  0  0  0  0  0  0  0
   11.7501   -7.7929  -12.2303 C   0  0  0  0  0  0  0  0  0  0  0  0
   11.0946   -9.1292  -12.2130 C   0  0  0  0  0  0  0  0  0  0  0  0
   12.4895   -5.6058  -12.1692 C   0  0  0  0  0  0  0  0  0  0  0  0
    9.6462   -9.2393  -11.7745 C   0  0  0  0  0  0  0  0  0  0  0  0
    9.1394  -10.6624  -11.5659 C   0  0  1  0  0  0  0  0  0  0  0  0
   10.2476  -11.6762  -11.5578 C   0  0  0  0  0  0  0  0  0  0  0  0
    8.3086  -10.7384  -10.2939 C   0  0  0  0  0  0  0  0  0  0  0  0
   10.0685   -6.0083  -11.5336 C   0  0  0  0  0  0  0  0  0  0  0  0
    6.9016  -12.1566   -9.0358 C   0  0  0  0  0  0  0  0  0  0  0  0
    6.7535  -12.0905  -11.4115 C   0  0  0  0  0  0  0  0  0  0  0  0
    9.3695   -5.0466  -12.5100 C   0  0  0  0  0  0  0  0  0  0  0  0
    7.8549   -5.0915  -12.2337 C   0  0  0  0  0  0  0  0  0  0  0  0
    6.3590   -5.8216  -10.4809 C   0  0  0  0  0  0  0  0  0  0  0  0
  1 23  1  0  0  0  0
  1 24  1  0  0  0  0
  1  2  1  0  0  0  0
  3  4  1  0  0  0  0
  3 17  1  0  0  0  0
  4  6  2  0  0  0  0
  4 13  1  0  0  0  0
  5 10  1  0  0  0  0
  5 14  2  0  0  0  0
  6  8  1  0  0  0  0
  7 12  1  0  0  0  0
  7 14  1  0  0  0  0
  7 19  1  0  0  0  0
  8 10  2  0  0  0  0
  9 14  1  0  0  0  0
 10 12  1  0  0  0  0
 11 18  1  0  0  0  0
 11 20  1  0  0  0  0
 11 21  1  0  0  0  0
 12 13  2  0  0  0  0
 13 15  1  0  0  0  0
 15 16  1  0  0  0  0
 16 17  1  0  0  0  0
 16 18  1  1  0  0  0
 19 22  1  0  0  0  0
 22 23  1  0  0  0  0
M  END
>  <CHROM.1>
-92.76180589,-116.19792428,177.60447971,169.87252538,159.32096219,-10.20843130
9.98755055,-8.43329172,-11.75348560,0.92393163,0.28958022,-0.07814315

>  <Name>
ligand

>  <RI>
144

>  <Rbt.Current_Directory>
/home/itssahil/PROJECTS/Mol_Feturizer/New_Systems/rnas/3TZR

>  <Rbt.Executable>
rbdock ($Id: //depot/dev/client3/rdock/2013.1/src/exe/rbdock.cxx#4 $)

>  <Rbt.Library>
libRbt.so (2013.1, Build901 2013/11/27)

>  <Rbt.Parameter_File>
/export/apps/rDock/src/rDock_2013.1_src/data/scripts/dock_solv.prm

>  <Rbt.Receptor>
prm/blind_docking_60.prm

>  <SCORE>
46.1129

>  <SCORE.INTER>
48.5419

>  <SCORE.INTER.CONST>
1

>  <SCORE.INTER.POLAR>
0

>  <SCORE.INTER.ROT>
6

>  <SCORE.INTER.SOLV>
24.7546

>  <SCORE.INTER.VDW>
16.5097

>  <SCORE.INTER.norm>
2.02258

>  <SCORE.INTRA>
-3.2058

>  <SCORE.INTRA.DIHEDRAL>
4.68522

>  <SCORE.INTRA.DIHEDRAL.0>
4.94008

>  <SCORE.INTRA.POLAR>
0

>  <SCORE.INTRA.POLAR.0>
0

>  <SCORE.INTRA.REPUL>
0

>  <SCORE.INTRA.REPUL.0>
0

>  <SCORE.INTRA.SOLV>
0.884923

>  <SCORE.INTRA.SOLV.lig_0>
-31.4704

>  <SCORE.INTRA.VDW>
-5.99087

>  <SCORE.INTRA.VDW.0>
10.2807

>  <SCORE.INTRA.norm>
-0.133575

>  <SCORE.RESTR>
0.776854

>  <SCORE.RESTR.CAVITY>
0.776854

>  <SCORE.RESTR.norm>
0.0323689

>  <SCORE.SYSTEM>
0

>  <SCORE.SYSTEM.CONST>
0

>  <SCORE.SYSTEM.DIHEDRAL>
0

>  <SCORE.SYSTEM.SOLV>
0

>  <SCORE.SYSTEM.norm>
0

>  <SCORE.heavy>
24

>  <SCORE.norm>
1.92137

>  <RMSD>
4.881

$$$$
ligand
 OpenBabel11021811493D
libRbt.so/2013.1/901 2013/11/27
 24 26  0  0  0  0  0  0  0  0999 V2000
   11.0845  -12.0670   -9.1480 N   0  0  0  0  0  0  0  0  0  0  0  0
   12.2311  -12.8525   -8.7206 C   0  0  0  0  0  0  0  0  0  0  0  0
    8.5568   -5.0826  -11.6306 O   0  0  0  0  0  0  0  0  0  0  0  0
    9.8526   -5.5028  -11.8989 C   0  0  0  0  0  0  0  0  0  0  0  0
   13.7947   -6.9696  -12.6521 N   0  0  0  0  0  0  0  0  0  0  0  0
   10.9616   -4.5145  -12.1446 C   0  0  0  0  0  0  0  0  0  0  0  0
   12.2009   -8.5158  -12.3135 N   0  0  0  0  0  0  0  0  0  0  0  0
   12.3119   -4.9215  -12.3958 C   0  0  0  0  0  0  0  0  0  0  0  0
   14.5195   -9.3520  -12.7625 N   0  0  0  0  0  0  0  0  0  0  0  0
   12.5646   -6.3390  -12.4188 C   0  0  0  0  0  0  0  0  0  0  0  0
    7.0705   -9.5613  -12.1823 N   0  0  0  0  0  0  0  0  0  0  0  0
   11.5114   -7.2941  -12.2009 C   0  0  0  0  0  0  0  0  0  0  0  0
   10.1244   -6.8255  -11.9318 C   0  0  0  0  0  0  0  0  0  0  0  0
   13.5512   -8.3102  -12.5763 C   0  0  0  0  0  0  0  0  0  0  0  0
    9.0288   -7.8481  -11.6949 C   0  0  0  0  0  0  0  0  0  0  0  0
    7.6125   -7.2836  -11.6629 C   0  0  1  0  0  0  0  0  0  0  0  0
    7.5430   -5.8661  -12.1544 C   0  0  0  0  0  0  0  0  0  0  0  0
    6.6731   -8.1888  -12.4453 C   0  0  0  0  0  0  0  0  0  0  0  0
   11.5881   -9.8398  -12.0928 C   0  0  0  0  0  0  0  0  0  0  0  0
    6.3455  -10.0356  -11.0113 C   0  0  0  0  0  0  0  0  0  0  0  0
    6.7001  -10.3537  -13.3444 C   0  0  0  0  0  0  0  0  0  0  0  0
   12.1387  -10.6309  -10.8937 C   0  0  0  0  0  0  0  0  0  0  0  0
   11.1676  -11.7868  -10.5885 C   0  0  0  0  0  0  0  0  0  0  0  0
    9.8759  -12.8164   -8.8235 C   0  0  0  0  0  0  0  0  0  0  0  0
  1 23  1  0  0  0  0
  1 24  1  0  0  0  0
  1  2  1  0  0  0  0
  3  4  1  0  0  0  0
  3 17  1  0  0  0  0
  4  6  2  0  0  0  0
  4 13  1  0  0  0  0
  5 10  1  0  0  0  0
  5 14  2  0  0  0  0
  6  8  1  0  0  0  0
  7 12  1  0  0  0  0
  7 14  1  0  0  0  0
  7 19  1  0  0  0  0
  8 10  2  0  0  0  0
  9 14  1  0  0  0  0
 10 12  1  0  0  0  0
 11 18  1  0  0  0  0
 11 20  1  0  0  0  0
 11 21  1  0  0  0  0
 12 13  2  0  0  0  0
 13 15  1  0  0  0  0
 15 16  1  0  0  0  0
 16 17  1  0  0  0  0
 16 18  1  6  0  0  0
 19 22  1  0  0  0  0
 22 23  1  0  0  0  0
M  END
>  <CHROM.1>
-79.21904958,-115.17985294,89.52798094,38.36493986,165.45000829,-145.32969909
10.30217252,-8.56406136,-11.61437666,1.32607537,0.00595291,2.78397449

>  <Name>
ligand

>  <RI>
0

>  <Rbt.Current_Directory>
/home/itssahil/PROJECTS/Mol_Feturizer/New_Systems/rnas/3TZR

>  <Rbt.Executable>
rbdock ($Id: //depot/dev/client3/rdock/2013.1/src/exe/rbdock.cxx#4 $)

>  <Rbt.Library>
libRbt.so (2013.1, Build901 2013/11/27)

>  <Rbt.Parameter_File>
/export/apps/rDock/src/rDock_2013.1_src/data/scripts/dock_solv.prm

>  <Rbt.Receptor>
prm/pocket_docking_4.prm

>  <SCORE>
-31.3834

>  <SCORE.INTER>
-24.1484

>  <SCORE.INTER.CONST>
1

>  <SCORE.INTER.POLAR>
-0.72111

>  <SCORE.INTER.ROT>
6

>  <SCORE.INTER.SOLV>
21.1239

>  <SCORE.INTER.VDW>
-28.3365

>  <SCORE.INTER.norm>
-1.00618

>  <SCORE.INTRA>
-7.23717

>  <SCORE.INTRA.DIHEDRAL>
3.70167

>  <SCORE.INTRA.DIHEDRAL.0>
4.94008

>  <SCORE.INTRA.POLAR>
0

>  <SCORE.INTRA.POLAR.0>
0

>  <SCORE.INTRA.REPUL>
0

>  <SCORE.INTRA.REPUL.0>
0

>  <SCORE.INTRA.SOLV>
0.538357

>  <SCORE.INTRA.SOLV.lig_0>
-31.4704

>  <SCORE.INTRA.VDW>
-9.35718

>  <SCORE.INTRA.VDW.0>
10.2807

>  <SCORE.INTRA.norm>
-0.301549

>  <SCORE.RESTR>
0.00213257

>  <SCORE.RESTR.CAVITY>
0.00213257

>  <SCORE.RESTR.norm>
8.8857e-05

>  <SCORE.SYSTEM>
0

>  <SCORE.SYSTEM.CONST>
0

>  <SCORE.SYSTEM.DIHEDRAL>
0

>  <SCORE.SYSTEM.SOLV>
0

>  <SCORE.SYSTEM.norm>
0

>  <SCORE.heavy>
24

>  <SCORE.norm>
-1.30764

>  <RMSD>
5.039

$$$$
ligand
 OpenBabel11021811493D
libRbt.so/2013.1/901 2013/11/27
 24 26  0  0  0  0  0  0  0  0999 V2000
   10.8395  -11.9960   -9.6457 N   0  0  0  0  0  0  0  0  0  0  0  0
   11.6255  -12.4738   -8.5195 C   0  0  0  0  0  0  0  0  0  0  0  0
    8.8582   -5.0230  -11.6827 O   0  0  0  0  0  0  0  0  0  0  0  0
   10.1264   -5.5350  -11.9217 C   0  0  0  0  0  0  0  0  0  0  0  0
   13.9723   -7.2778  -12.5776 N   0  0  0  0  0  0  0  0  0  0  0  0
   11.2966   -4.6300  -12.2018 C   0  0  0  0  0  0  0  0  0  0  0  0
   12.2827   -8.7046  -12.1839 N   0  0  0  0  0  0  0  0  0  0  0  0
   12.6199   -5.1316  -12.4238 C   0  0  0  0  0  0  0  0  0  0  0  0
   14.5463   -9.7035  -12.5769 N   0  0  0  0  0  0  0  0  0  0  0  0
   12.7831   -6.5617  -12.3822 C   0  0  0  0  0  0  0  0  0  0  0  0
    7.1472   -9.4215  -12.1139 N   0  0  0  0  0  0  0  0  0  0  0  0
   11.6708   -7.4384  -12.1309 C   0  0  0  0  0  0  0  0  0  0  0  0
   10.3146   -6.8723  -11.8940 C   0  0  0  0  0  0  0  0  0  0  0  0
   13.6445   -8.5958  -12.4446 C   0  0  0  0  0  0  0  0  0  0  0  0
    9.1556   -7.8127  -11.6210 C   0  0  0  0  0  0  0  0  0  0  0  0
    7.7775   -7.1598  -11.6253 C   0  0  1  0  0  0  0  0  0  0  0  0
    7.7999   -5.7640  -12.1795 C   0  0  0  0  0  0  0  0  0  0  0  0
    6.7871   -8.0384  -12.3746 C   0  0  0  0  0  0  0  0  0  0  0  0
   11.5866   -9.9765  -11.9099 C   0  0  0  0  0  0  0  0  0  0  0  0
    6.4414   -9.8651  -10.9194 C   0  0  0  0  0  0  0  0  0  0  0  0
    6.7177  -10.2082  -13.2595 C   0  0  0  0  0  0  0  0  0  0  0  0
   12.4608  -11.0923  -11.3119 C   0  0  0  0  0  0  0  0  0  0  0  0
   11.5440  -12.2622  -10.9079 C   0  0  0  0  0  0  0  0  0  0  0  0
    9.5445  -12.6660   -9.6110 C   0  0  0  0  0  0  0  0  0  0  0  0
  1 23  1  0  0  0  0
  1 24  1  0  0  0  0
  1  2  1  0  0  0  0
  3  4  1  0  0  0  0
  3 17  1  0  0  0  0
  4  6  2  0  0  0  0
  4 13  1  0  0  0  0
  5 10  1  0  0  0  0
  5 14  2  0  0  0  0
  6  8  1  0  0  0  0
  7 12  1  0  0  0  0
  7 14  1  0  0  0  0
  7 19  1  0  0  0  0
  8 10  2  0  0  0  0
  9 14  1  0  0  0  0
 10 12  1  0  0  0  0
 11 18  1  0  0  0  0
 11 20  1  0  0  0  0
 11 21  1  0  0  0  0
 12 13  2  0  0  0  0
 13 15  1  0  0  0  0
 15 16  1  0  0  0  0
 16 17  1  0  0  0  0
 16 18  1  6  0  0  0
 19 22  1  0  0  0  0
 22 23  1  0  0  0  0
M  END
>  <CHROM.1>
-90.12168369,-149.52940791,89.51021134,34.91665995,172.08113268,-77.72313135
10.39976169,-8.61713743,-11.64840300,1.30071917,-0.02249112,2.83623159

>  <Name>
ligand

>  <RI>
0

>  <Rbt.Current_Directory>
/home/itssahil/PROJECTS/Mol_Feturizer/New_Systems/rnas/3TZR

>  <Rbt.Executable>
rbdock ($Id: //depot/dev/client3/rdock/2013.1/src/exe/rbdock.cxx#4 $)

>  <Rbt.Library>
libRbt.so (2013.1, Build901 2013/11/27)

>  <Rbt.Parameter_File>
/export/apps/rDock/src/rDock_2013.1_src/data/scripts/dock_solv.prm

>  <Rbt.Receptor>
prm/pocket_docking_4.prm

>  <SCORE>
-31.6648

>  <SCORE.INTER>
-24.8862

>  <SCORE.INTER.CONST>
1

>  <SCORE.INTER.POLAR>
-0.719898

>  <SCORE.INTER.ROT>
6

>  <SCORE.INTER.SOLV>
19.3658

>  <SCORE.INTER.VDW>
-28.2464

>  <SCORE.INTER.norm>
-1.03693

>  <SCORE.INTRA>
-6.77856

>  <SCORE.INTRA.DIHEDRAL>
2.08545

>  <SCORE.INTRA.DIHEDRAL.0>
4.94008

>  <SCORE.INTRA.POLAR>
0

>  <SCORE.INTRA.POLAR.0>
0

>  <SCORE.INTRA.REPUL>
0

>  <SCORE.INTRA.REPUL.0>
0

>  <SCORE.INTRA.SOLV>
1.62993

>  <SCORE.INTRA.SOLV.lig_0>
-31.4704

>  <SCORE.INTRA.VDW>
-8.63625

>  <SCORE.INTRA.VDW.0>
10.2807

>  <SCORE.INTRA.norm>
-0.28244

>  <SCORE.RESTR>
0

>  <SCORE.RESTR.CAVITY>
0

>  <SCORE.RESTR.norm>
0

>  <SCORE.SYSTEM>
0

>  <SCORE.SYSTEM.CONST>
0

>  <SCORE.SYSTEM.DIHEDRAL>
0

>  <SCORE.SYSTEM.SOLV>
0

>  <SCORE.SYSTEM.norm>
0

>  <SCORE.heavy>
24

>  <SCORE.norm>
-1.31937

>  <RMSD>
5.056

$$$$
ligand
 OpenBabel11021811493D
libRbt.so/2013.1/901 2013/11/27
 24 26  0  0  0  0  0  0  0  0999 V2000
   11.6238  -11.7138   -9.7017 N   0  0  0  0  0  0  0  0  0  0  0  0
   12.8922  -12.3908   -9.4851 C   0  0  0  0  0  0  0  0  0  0  0  0
    7.7758   -4.7731  -11.5323 O   0  0  0  0  0  0  0  0  0  0  0  0
    9.1189   -4.9617  -11.8293 C   0  0  0  0  0  0  0  0  0  0  0  0
   13.2362   -5.7247  -12.6807 N   0  0  0  0  0  0  0  0  0  0  0  0
   10.0498   -3.7944  -12.0230 C   0  0  0  0  0  0  0  0  0  0  0  0
   11.9184   -7.5256  -12.4239 N   0  0  0  0  0  0  0  0  0  0  0  0
   11.4447   -3.9621  -12.3024 C   0  0  0  0  0  0  0  0  0  0  0  0
   14.3356   -7.9480  -12.9292 N   0  0  0  0  0  0  0  0  0  0  0  0
   11.9233   -5.3162  -12.4069 C   0  0  0  0  0  0  0  0  0  0  0  0
    6.9699   -9.4101  -12.2600 N   0  0  0  0  0  0  0  0  0  0  0  0
   11.0417   -6.4404  -12.2393 C   0  0  0  0  0  0  0  0  0  0  0  0
    9.6008   -6.2189  -11.9384 C   0  0  0  0  0  0  0  0  0  0  0  0
   13.2139   -7.0892  -12.6801 C   0  0  0  0  0  0  0  0  0  0  0  0
    8.6885   -7.4173  -11.7555 C   0  0  0  0  0  0  0  0  0  0  0  0
    7.2000   -7.0931  -11.6857 C   0  0  1  0  0  0  0  0  0  0  0  0
    6.8954   -5.6806  -12.0956 C   0  0  0  0  0  0  0  0  0  0  0  0
    6.4093   -8.0941  -12.5144 C   0  0  0  0  0  0  0  0  0  0  0  0
   11.5311   -8.9418  -12.2763 C   0  0  0  0  0  0  0  0  0  0  0  0
    6.1914  -10.0478  -11.2068 C   0  0  0  0  0  0  0  0  0  0  0  0
    6.8561  -10.1786  -13.4896 C   0  0  0  0  0  0  0  0  0  0  0  0
   12.0800   -9.6498  -11.0256 C   0  0  0  0  0  0  0  0  0  0  0  0
   11.5908  -11.1102  -11.0414 C   0  0  0  0  0  0  0  0  0  0  0  0
   10.5543  -12.6916   -9.5354 C   0  0  0  0  0  0  0  0  0  0  0  0
  1 23  1  0  0  0  0
  1 24  1  0  0  0  0
  1  2  1  0  0  0  0
  3  4  1  0  0  0  0
  3 17  1  0  0  0  0
  4  6  2  0  0  0  0
  4 13  1  0  0  0  0
  5 10  1  0  0  0  0
  5 14  2  0  0  0  0
  6  8  1  0  0  0  0
  7 12  1  0  0  0  0
  7 14  1  0  0  0  0
  7 19  1  0  0  0  0
  8 10  2  0  0  0  0
  9 14  1  0  0  0  0
 10 12  1  0  0  0  0
 11 18  1  0  0  0  0
 11 20  1  0  0  0  0
 11 21  1  0  0  0  0
 12 13  2  0  0  0  0
 13 15  1  0  0  0  0
 15 16  1  0  0  0  0
 16 17  1  0  0  0  0
 16 18  1  6  0  0  0
 19 22  1  0  0  0  0
 22 23  1  0  0  0  0
M  END
>  <CHROM.1>
-92.21636840,-107.84347680,94.87011566,42.19576320,-179.48216737,-158.71564665
10.07916784,-7.97244712,-11.76454081,1.14924535,0.03619231,2.88416930

>  <Name>
ligand

>  <RI>
0

>  <Rbt.Current_Directory>
/home/itssahil/PROJECTS/Mol_Feturizer/New_Systems/rnas/3TZR

>  <Rbt.Executable>
rbdock ($Id: //depot/dev/client3/rdock/2013.1/src/exe/rbdock.cxx#4 $)

>  <Rbt.Library>
libRbt.so (2013.1, Build901 2013/11/27)

>  <Rbt.Parameter_File>
/export/apps/rDock/src/rDock_2013.1_src/data/scripts/dock_solv.prm

>  <Rbt.Receptor>
prm/pocket_docking_3.prm

>  <SCORE>
-31.6163

>  <SCORE.INTER>
-22.4397

>  <SCORE.INTER.CONST>
1

>  <SCORE.INTER.POLAR>
-0.714594

>  <SCORE.INTER.ROT>
6

>  <SCORE.INTER.SOLV>
24.8148

>  <SCORE.INTER.VDW>
-28.4494

>  <SCORE.INTER.norm>
-0.934986

>  <SCORE.INTRA>
-9.25158

>  <SCORE.INTRA.DIHEDRAL>
1.67738

>  <SCORE.INTRA.DIHEDRAL.0>
4.94008

>  <SCORE.INTRA.POLAR>
0

>  <SCORE.INTRA.POLAR.0>
0

>  <SCORE.INTRA.REPUL>
0

>  <SCORE.INTRA.REPUL.0>
0

>  <SCORE.INTRA.SOLV>
0.461208

>  <SCORE.INTRA.SOLV.lig_0>
-31.4704

>  <SCORE.INTRA.VDW>
-10.3209

>  <SCORE.INTRA.VDW.0>
10.2807

>  <SCORE.INTRA.norm>
-0.385482

>  <SCORE.RESTR>
0.0749354

>  <SCORE.RESTR.CAVITY>
0.0749354

>  <SCORE.RESTR.norm>
0.00312231

>  <SCORE.SYSTEM>
0

>  <SCORE.SYSTEM.CONST>
0

>  <SCORE.SYSTEM.DIHEDRAL>
0

>  <SCORE.SYSTEM.SOLV>
0

>  <SCORE.SYSTEM.norm>
0

>  <SCORE.heavy>
24

>  <SCORE.norm>
-1.31735

>  <RMSD>
5.074

$$$$
ligand
 OpenBabel11021811493D
libRbt.so/2013.1/901 2013/11/27
 24 26  0  0  0  0  0  0  0  0999 V2000
   11.5965  -11.4904  -10.1238 N   0  0  0  0  0  0  0  0  0  0  0  0
   12.6506  -11.7946   -9.1695 C   0  0  0  0  0  0  0  0  0  0  0  0
    7.7545   -5.0541  -11.5688 O   0  0  0  0  0  0  0  0  0  0  0  0
    9.1100   -5.2194  -11.8198 C   0  0  0  0  0  0  0  0  0  0  0  0
   13.2659   -5.9117  -12.5327 N   0  0  0  0  0  0  0  0  0  0  0  0
   10.0300   -4.0363  -11.9640 C   0  0  0  0  0  0  0  0  0  0  0  0
   11.9665   -7.7346  -12.3480 N   0  0  0  0  0  0  0  0  0  0  0  0
   11.4364   -4.1803  -12.1953 C   0  0  0  0  0  0  0  0  0  0  0  0
   14.4062   -8.1154  -12.7716 N   0  0  0  0  0  0  0  0  0  0  0  0
   11.9383   -5.5258  -12.3008 C   0  0  0  0  0  0  0  0  0  0  0  0
    6.9238   -9.7083  -12.2659 N   0  0  0  0  0  0  0  0  0  0  0  0
   11.0678   -6.6646  -12.1804 C   0  0  0  0  0  0  0  0  0  0  0  0
    9.6140   -6.4679  -11.9285 C   0  0  0  0  0  0  0  0  0  0  0  0
   13.2638   -7.2762  -12.5515 C   0  0  0  0  0  0  0  0  0  0  0  0
    8.7134   -7.6817  -11.7949 C   0  0  0  0  0  0  0  0  0  0  0  0
    7.2188   -7.3797  -11.7743 C   0  0  1  0  0  0  0  0  0  0  0  0
    6.9083   -5.9660  -12.1757 C   0  0  0  0  0  0  0  0  0  0  0  0
    6.4731   -8.3801  -12.6445 C   0  0  0  0  0  0  0  0  0  0  0  0
   11.5950   -9.1581  -12.2337 C   0  0  0  0  0  0  0  0  0  0  0  0
    6.1430  -10.1512  -11.1187 C   0  0  0  0  0  0  0  0  0  0  0  0
    6.6810  -10.5908  -13.3963 C   0  0  0  0  0  0  0  0  0  0  0  0
   12.7421  -10.1120  -11.8583 C   0  0  0  0  0  0  0  0  0  0  0  0
   12.1352  -11.4792  -11.4913 C   0  0  0  0  0  0  0  0  0  0  0  0
   10.5485  -12.4941   -9.9762 C   0  0  0  0  0  0  0  0  0  0  0  0
  1 23  1  0  0  0  0
  1 24  1  0  0  0  0
  1  2  1  0  0  0  0
  3  4  1  0  0  0  0
  3 17  1  0  0  0  0
  4  6  2  0  0  0  0
  4 13  1  0  0  0  0
  5 10  1  0  0  0  0
  5 14  2  0  0  0  0
  6  8  1  0  0  0  0
  7 12  1  0  0  0  0
  7 14  1  0  0  0  0
  7 19  1  0  0  0  0
  8 10  2  0  0  0  0
  9 14  1  0  0  0  0
 10 12  1  0  0  0  0
 11 18  1  0  0  0  0
 11 20  1  0  0  0  0
 11 21  1  0  0  0  0
 12 13  2  0  0  0  0
 13 15  1  0  0  0  0
 15 16  1  0  0  0  0
 16 17  1  0  0  0  0
 16 18  1  6  0  0  0
 19 22  1  0  0  0  0
 22 23  1  0  0  0  0
M  END
>  <CHROM.1>
-85.20123973,-155.06936747,84.74136778,49.30329748,168.10995939,-79.60492703
10.12170230,-8.15101350,-11.81548806,0.78519981,0.04108833,2.93245530

>  <Name>
ligand

>  <RI>
144

>  <Rbt.Current_Directory>
/home/itssahil/PROJECTS/Mol_Feturizer/New_Systems/rnas/3TZR

>  <Rbt.Executable>
rbdock ($Id: //depot/dev/client3/rdock/2013.1/src/exe/rbdock.cxx#4 $)

>  <Rbt.Library>
libRbt.so (2013.1, Build901 2013/11/27)

>  <Rbt.Parameter_File>
/export/apps/rDock/src/rDock_2013.1_src/data/scripts/dock_solv.prm

>  <Rbt.Receptor>
prm/blind_docking_60.prm

>  <SCORE>
-31.5481

>  <SCORE.INTER>
-23.7682

>  <SCORE.INTER.CONST>
1

>  <SCORE.INTER.POLAR>
-0.710022

>  <SCORE.INTER.ROT>
6

>  <SCORE.INTER.SOLV>
23.6964

>  <SCORE.INTER.VDW>
-28.9775

>  <SCORE.INTER.norm>
-0.990342

>  <SCORE.INTRA>
-7.77991

>  <SCORE.INTRA.DIHEDRAL>
0.453658

>  <SCORE.INTRA.DIHEDRAL.0>
4.94008

>  <SCORE.INTRA.POLAR>
0

>  <SCORE.INTRA.POLAR.0>
0

>  <SCORE.INTRA.REPUL>
0

>  <SCORE.INTRA.REPUL.0>
0

>  <SCORE.INTRA.SOLV>
1.64874

>  <SCORE.INTRA.SOLV.lig_0>
-31.4704

>  <SCORE.INTRA.VDW>
-8.83111

>  <SCORE.INTRA.VDW.0>
10.2807

>  <SCORE.INTRA.norm>
-0.324163

>  <SCORE.RESTR>
0

>  <SCORE.RESTR.CAVITY>
0

>  <SCORE.RESTR.norm>
0

>  <SCORE.SYSTEM>
0

>  <SCORE.SYSTEM.CONST>
0

>  <SCORE.SYSTEM.DIHEDRAL>
0

>  <SCORE.SYSTEM.SOLV>
0

>  <SCORE.SYSTEM.norm>
0

>  <SCORE.heavy>
24

>  <SCORE.norm>
-1.31451

>  <RMSD>
5.111

$$$$
ligand
 OpenBabel11021811493D
libRbt.so/2013.1/901 2013/11/27
 24 26  0  0  0  0  0  0  0  0999 V2000
   11.5540  -11.5239  -10.1029 N   0  0  0  0  0  0  0  0  0  0  0  0
   12.5873  -11.7360   -9.1021 C   0  0  0  0  0  0  0  0  0  0  0  0
    7.8053   -5.2758  -11.5382 O   0  0  0  0  0  0  0  0  0  0  0  0
    9.1573   -5.4423  -11.8066 C   0  0  0  0  0  0  0  0  0  0  0  0
   13.3020   -6.1396  -12.5776 N   0  0  0  0  0  0  0  0  0  0  0  0
   10.0826   -4.2611  -11.9306 C   0  0  0  0  0  0  0  0  0  0  0  0
   11.9939   -7.9593  -12.4253 N   0  0  0  0  0  0  0  0  0  0  0  0
   11.4858   -4.4070  -12.1792 C   0  0  0  0  0  0  0  0  0  0  0  0
   14.4271   -8.3429  -12.8823 N   0  0  0  0  0  0  0  0  0  0  0  0
   11.9789   -5.7522  -12.3231 C   0  0  0  0  0  0  0  0  0  0  0  0
    6.8287   -9.9101  -12.2421 N   0  0  0  0  0  0  0  0  0  0  0  0
   11.1031   -6.8889  -12.2223 C   0  0  0  0  0  0  0  0  0  0  0  0
    9.6530   -6.6905  -11.9513 C   0  0  0  0  0  0  0  0  0  0  0  0
   13.2918   -7.5032  -12.6302 C   0  0  0  0  0  0  0  0  0  0  0  0
    8.7468   -7.9022  -11.8388 C   0  0  0  0  0  0  0  0  0  0  0  0
    7.2542   -7.5925  -11.7959 C   0  0  1  0  0  0  0  0  0  0  0  0
    6.9479   -6.1677  -12.1591 C   0  0  0  0  0  0  0  0  0  0  0  0
    6.4943   -8.5669  -12.6832 C   0  0  0  0  0  0  0  0  0  0  0  0
   11.6154   -9.3831  -12.3426 C   0  0  0  0  0  0  0  0  0  0  0  0
    5.9866  -10.2446  -11.1016 C   0  0  0  0  0  0  0  0  0  0  0  0
    6.5456  -10.8153  -13.3448 C   0  0  0  0  0  0  0  0  0  0  0  0
   12.7486  -10.3461  -11.9487 C   0  0  0  0  0  0  0  0  0  0  0  0
   12.1174  -11.6609  -11.4536 C   0  0  0  0  0  0  0  0  0  0  0  0
   10.4925  -12.4970   -9.8712 C   0  0  0  0  0  0  0  0  0  0  0  0
  1 23  1  0  0  0  0
  1 24  1  0  0  0  0
  1  2  1  0  0  0  0
  3  4  1  0  0  0  0
  3 17  1  0  0  0  0
  4  6  2  0  0  0  0
  4 13  1  0  0  0  0
  5 10  1  0  0  0  0
  5 14  2  0  0  0  0
  6  8  1  0  0  0  0
  7 12  1  0  0  0  0
  7 14  1  0  0  0  0
  7 19  1  0  0  0  0
  8 10  2  0  0  0  0
  9 14  1  0  0  0  0
 10 12  1  0  0  0  0
 11 18  1  0  0  0  0
 11 20  1  0  0  0  0
 11 21  1  0  0  0  0
 12 13  2  0  0  0  0
 13 15  1  0  0  0  0
 15 16  1  0  0  0  0
 16 17  1  0  0  0  0
 16 18  1  6  0  0  0
 19 22  1  0  0  0  0
 22 23  1  0  0  0  0
M  END
>  <CHROM.1>
-85.07391888,-152.78589335,82.64230038,55.52267380,161.24220968,-75.34925715
10.11958347,-8.33280105,-11.82536185,0.50322051,0.03238684,2.92462680

>  <Name>
ligand

>  <RI>
144

>  <Rbt.Current_Directory>
/home/itssahil/PROJECTS/Mol_Feturizer/New_Systems/rnas/3TZR

>  <Rbt.Executable>
rbdock ($Id: //depot/dev/client3/rdock/2013.1/src/exe/rbdock.cxx#4 $)

>  <Rbt.Library>
libRbt.so (2013.1, Build901 2013/11/27)

>  <Rbt.Parameter_File>
/export/apps/rDock/src/rDock_2013.1_src/data/scripts/dock_solv.prm

>  <Rbt.Receptor>
prm/blind_docking_60.prm

>  <SCORE>
-31.2564

>  <SCORE.INTER>
-23.0844

>  <SCORE.INTER.CONST>
1

>  <SCORE.INTER.POLAR>
-0.720079

>  <SCORE.INTER.ROT>
6

>  <SCORE.INTER.SOLV>
23.4823

>  <SCORE.INTER.VDW>
-28.4168

>  <SCORE.INTER.norm>
-0.96185

>  <SCORE.INTRA>
-8.17201

>  <SCORE.INTRA.DIHEDRAL>
0.21944

>  <SCORE.INTRA.DIHEDRAL.0>
4.94008

>  <SCORE.INTRA.POLAR>
0

>  <SCORE.INTRA.POLAR.0>
0

>  <SCORE.INTRA.REPUL>
0

>  <SCORE.INTRA.REPUL.0>
0

>  <SCORE.INTRA.SOLV>
1.59249

>  <SCORE.INTRA.SOLV.lig_0>
-31.4704

>  <SCORE.INTRA.VDW>
-9.07797

>  <SCORE.INTRA.VDW.0>
10.2807

>  <SCORE.INTRA.norm>
-0.3405

>  <SCORE.RESTR>
0

>  <SCORE.RESTR.CAVITY>
0

>  <SCORE.RESTR.norm>
0

>  <SCORE.SYSTEM>
0

>  <SCORE.SYSTEM.CONST>
0

>  <SCORE.SYSTEM.DIHEDRAL>
0

>  <SCORE.SYSTEM.SOLV>
0

>  <SCORE.SYSTEM.norm>
0

>  <SCORE.heavy>
24

>  <SCORE.norm>
-1.30235

>  <RMSD>
5.120

$$$$
ligand
 OpenBabel11021811493D
libRbt.so/2013.1/901 2013/11/27
 24 26  0  0  0  0  0  0  0  0999 V2000
   11.7074  -12.4768   -9.5546 N   0  0  0  0  0  0  0  0  0  0  0  0
   12.7920  -13.4121   -9.8062 C   0  0  0  0  0  0  0  0  0  0  0  0
    8.7577   -4.8600  -11.6809 O   0  0  0  0  0  0  0  0  0  0  0  0
   10.0279   -5.3230  -11.9973 C   0  0  0  0  0  0  0  0  0  0  0  0
   13.8891   -6.9189  -12.8935 N   0  0  0  0  0  0  0  0  0  0  0  0
   11.1529   -4.3725  -12.3100 C   0  0  0  0  0  0  0  0  0  0  0  0
   12.2680   -8.4110  -12.4563 N   0  0  0  0  0  0  0  0  0  0  0  0
   12.4785   -4.8237  -12.6120 C   0  0  0  0  0  0  0  0  0  0  0  0
   14.5394   -9.3233  -12.9899 N   0  0  0  0  0  0  0  0  0  0  0  0
   12.6891   -6.2481  -12.6189 C   0  0  0  0  0  0  0  0  0  0  0  0
    7.1732   -9.2996  -12.1573 N   0  0  0  0  0  0  0  0  0  0  0  0
   11.6195   -7.1677  -12.3371 C   0  0  0  0  0  0  0  0  0  0  0  0
   10.2598   -6.6536  -12.0168 C   0  0  0  0  0  0  0  0  0  0  0  0
   13.6106   -8.2501  -12.7816 C   0  0  0  0  0  0  0  0  0  0  0  0
    9.1467   -7.6389  -11.7128 C   0  0  0  0  0  0  0  0  0  0  0  0
    7.7501   -7.0324  -11.6299 C   0  0  1  0  0  0  0  0  0  0  0  0
    7.6997   -5.6224  -12.1449 C   0  0  0  0  0  0  0  0  0  0  0  0
    6.7514   -7.9232  -12.3531 C   0  0  0  0  0  0  0  0  0  0  0  0
   11.6277   -9.7122  -12.1838 C   0  0  0  0  0  0  0  0  0  0  0  0
    6.5965   -9.7864  -10.9114 C   0  0  0  0  0  0  0  0  0  0  0  0
    6.6593  -10.0771  -13.2740 C   0  0  0  0  0  0  0  0  0  0  0  0
   12.1846  -10.4820  -10.9738 C   0  0  0  0  0  0  0  0  0  0  0  0
   11.3521  -11.7647  -10.7904 C   0  0  0  0  0  0  0  0  0  0  0  0
   10.5723  -13.2293   -9.0325 C   0  0  0  0  0  0  0  0  0  0  0  0
  1 23  1  0  0  0  0
  1 24  1  0  0  0  0
  1  2  1  0  0  0  0
  3  4  1  0  0  0  0
  3 17  1  0  0  0  0
  4  6  2  0  0  0  0
  4 13  1  0  0  0  0
  5 10  1  0  0  0  0
  5 14  2  0  0  0  0
  6  8  1  0  0  0  0
  7 12  1  0  0  0  0
  7 14  1  0  0  0  0
  7 19  1  0  0  0  0
  8 10  2  0  0  0  0
  9 14  1  0  0  0  0
 10 12  1  0  0  0  0
 11 18  1  0  0  0  0
 11 20  1  0  0  0  0
 11 21  1  0  0  0  0
 12 13  2  0  0  0  0
 13 15  1  0  0  0  0
 15 16  1  0  0  0  0
 16 17  1  0  0  0  0
 16 18  1  6  0  0  0
 19 22  1  0  0  0  0
 22 23  1  0  0  0  0
M  END
>  <CHROM.1>
-88.86109354,-113.73592548,87.07401128,34.54532653,176.72496743,-172.82131248
10.48555442,-8.48673348,-11.76261813,1.20315179,-0.04561258,2.83494256

>  <Name>
ligand

>  <RI>
144

>  <Rbt.Current_Directory>
/home/itssahil/PROJECTS/Mol_Feturizer/New_Systems/rnas/3TZR

>  <Rbt.Executable>
rbdock ($Id: //depot/dev/client3/rdock/2013.1/src/exe/rbdock.cxx#4 $)

>  <Rbt.Library>
libRbt.so (2013.1, Build901 2013/11/27)

>  <Rbt.Parameter_File>
/export/apps/rDock/src/rDock_2013.1_src/data/scripts/dock_solv.prm

>  <Rbt.Receptor>
prm/pocket_docking_8.prm

>  <SCORE>
-29.1266

>  <SCORE.INTER>
-20.509

>  <SCORE.INTER.CONST>
1

>  <SCORE.INTER.POLAR>
0

>  <SCORE.INTER.ROT>
6

>  <SCORE.INTER.SOLV>
21.7689

>  <SCORE.INTER.VDW>
-28.529

>  <SCORE.INTER.norm>
-0.854541

>  <SCORE.INTRA>
-8.61766

>  <SCORE.INTRA.DIHEDRAL>
0.635849

>  <SCORE.INTRA.DIHEDRAL.0>
4.94008

>  <SCORE.INTRA.POLAR>
0

>  <SCORE.INTRA.POLAR.0>
0

>  <SCORE.INTRA.REPUL>
0

>  <SCORE.INTRA.REPUL.0>
0

>  <SCORE.INTRA.SOLV>
0.612854

>  <SCORE.INTRA.SOLV.lig_0>
-31.4704

>  <SCORE.INTRA.VDW>
-9.24201

>  <SCORE.INTRA.VDW.0>
10.2807

>  <SCORE.INTRA.norm>
-0.359069

>  <SCORE.RESTR>
0

>  <SCORE.RESTR.CAVITY>
0

>  <SCORE.RESTR.norm>
0

>  <SCORE.SYSTEM>
0

>  <SCORE.SYSTEM.CONST>
0

>  <SCORE.SYSTEM.DIHEDRAL>
0

>  <SCORE.SYSTEM.SOLV>
0

>  <SCORE.SYSTEM.norm>
0

>  <SCORE.heavy>
24

>  <SCORE.norm>
-1.21361

>  <RMSD>
5.131

$$$$
ligand
 OpenBabel11021811493D
libRbt.so/2013.1/901 2013/11/27
 24 26  0  0  0  0  0  0  0  0999 V2000
   11.8746  -12.8907   -9.5863 N   0  0  0  0  0  0  0  0  0  0  0  0
   11.2496  -14.2003   -9.6787 C   0  0  0  0  0  0  0  0  0  0  0  0
    8.8066   -4.9958  -11.6737 O   0  0  0  0  0  0  0  0  0  0  0  0
   10.0802   -5.4890  -11.9237 C   0  0  0  0  0  0  0  0  0  0  0  0
   13.9453   -7.1751  -12.6146 N   0  0  0  0  0  0  0  0  0  0  0  0
   11.2371   -4.5661  -12.2010 C   0  0  0  0  0  0  0  0  0  0  0  0
   12.2763   -8.6274  -12.2261 N   0  0  0  0  0  0  0  0  0  0  0  0
   12.5657   -5.0482  -12.4342 C   0  0  0  0  0  0  0  0  0  0  0  0
   14.5509   -9.5929  -12.6394 N   0  0  0  0  0  0  0  0  0  0  0  0
   12.7478   -6.4764  -12.4068 C   0  0  0  0  0  0  0  0  0  0  0  0
    7.1701   -9.4113  -12.1638 N   0  0  0  0  0  0  0  0  0  0  0  0
   11.6482   -7.3699  -12.1583 C   0  0  0  0  0  0  0  0  0  0  0  0
   10.2860   -6.8239  -11.9094 C   0  0  0  0  0  0  0  0  0  0  0  0
   13.6354   -8.4984  -12.4924 C   0  0  0  0  0  0  0  0  0  0  0  0
    9.1407   -7.7819  -11.6396 C   0  0  0  0  0  0  0  0  0  0  0  0
    7.7542   -7.1471  -11.6311 C   0  0  1  0  0  0  0  0  0  0  0  0
    7.7556   -5.7460  -12.1723 C   0  0  0  0  0  0  0  0  0  0  0  0
    6.7717   -8.0316  -12.3838 C   0  0  0  0  0  0  0  0  0  0  0  0
   11.5984   -9.9109  -11.9607 C   0  0  0  0  0  0  0  0  0  0  0  0
    6.5184   -9.8926  -10.9532 C   0  0  0  0  0  0  0  0  0  0  0  0
    6.7152  -10.1852  -13.3082 C   0  0  0  0  0  0  0  0  0  0  0  0
   12.2468  -10.7886  -10.8763 C   0  0  0  0  0  0  0  0  0  0  0  0
   11.3199  -11.9885  -10.6055 C   0  0  0  0  0  0  0  0  0  0  0  0
   11.6465  -12.3738   -8.2416 C   0  0  0  0  0  0  0  0  0  0  0  0
  1 23  1  0  0  0  0
  1 24  1  0  0  0  0
  1  2  1  0  0  0  0
  3  4  1  0  0  0  0
  3 17  1  0  0  0  0
  4  6  2  0  0  0  0
  4 13  1  0  0  0  0
  5 10  1  0  0  0  0
  5 14  2  0  0  0  0
  6  8  1  0  0  0  0
  7 12  1  0  0  0  0
  7 14  1  0  0  0  0
  7 19  1  0  0  0  0
  8 10  2  0  0  0  0
  9 14  1  0  0  0  0
 10 12  1  0  0  0  0
 11 18  1  0  0  0  0
 11 20  1  0  0  0  0
 11 21  1  0  0  0  0
 12 13  2  0  0  0  0
 13 15  1  0  0  0  0
 15 16  1  0  0  0  0
 16 17  1  0  0  0  0
 16 18  1  6  0  0  0
 19 22  1  0  0  0  0
 22 23  1  0  0  0  0
M  END
>  <CHROM.1>
-160.40016373,-124.45087503,88.40428411,33.58590208,172.87118294,179.38875663
10.49219312,-8.65877160,-11.62407782,1.21247339,0.00501960,2.82771889

>  <Name>
ligand

>  <RI>
0

>  <Rbt.Current_Directory>
/home/itssahil/PROJECTS/Mol_Feturizer/New_Systems/rnas/3TZR

>  <Rbt.Executable>
rbdock ($Id: //depot/dev/client3/rdock/2013.1/src/exe/rbdock.cxx#4 $)

>  <Rbt.Library>
libRbt.so (2013.1, Build901 2013/11/27)

>  <Rbt.Parameter_File>
/export/apps/rDock/src/rDock_2013.1_src/data/scripts/dock_solv.prm

>  <Rbt.Receptor>
prm/pocket_docking_4.prm

>  <SCORE>
-29.6471

>  <SCORE.INTER>
-21.4996

>  <SCORE.INTER.CONST>
1

>  <SCORE.INTER.POLAR>
0

>  <SCORE.INTER.ROT>
6

>  <SCORE.INTER.SOLV>
19.4717

>  <SCORE.INTER.VDW>
-28.4236

>  <SCORE.INTER.norm>
-0.895815

>  <SCORE.INTRA>
-8.14959

>  <SCORE.INTRA.DIHEDRAL>
0.32975

>  <SCORE.INTRA.DIHEDRAL.0>
4.94008

>  <SCORE.INTRA.POLAR>
0

>  <SCORE.INTRA.POLAR.0>
0

>  <SCORE.INTRA.REPUL>
0

>  <SCORE.INTRA.REPUL.0>
0

>  <SCORE.INTRA.SOLV>
0.883262

>  <SCORE.INTRA.SOLV.lig_0>
-31.4704

>  <SCORE.INTRA.VDW>
-8.7561

>  <SCORE.INTRA.VDW.0>
10.2807

>  <SCORE.INTRA.norm>
-0.339566

>  <SCORE.RESTR>
0.00202052

>  <SCORE.RESTR.CAVITY>
0.00202052

>  <SCORE.RESTR.norm>
8.41885e-05

>  <SCORE.SYSTEM>
0

>  <SCORE.SYSTEM.CONST>
0

>  <SCORE.SYSTEM.DIHEDRAL>
0

>  <SCORE.SYSTEM.SOLV>
0

>  <SCORE.SYSTEM.norm>
0

>  <SCORE.heavy>
24

>  <SCORE.norm>
-1.2353

>  <RMSD>
5.147

$$$$
ligand
 OpenBabel11021811493D
libRbt.so/2013.1/901 2013/11/27
 24 26  0  0  0  0  0  0  0  0999 V2000
   11.3559  -11.9124   -9.4219 N   0  0  0  0  0  0  0  0  0  0  0  0
   12.0979  -12.2391   -8.2148 C   0  0  0  0  0  0  0  0  0  0  0  0
    7.8830   -5.3520  -11.7638 O   0  0  0  0  0  0  0  0  0  0  0  0
    9.2341   -5.5637  -12.0036 C   0  0  0  0  0  0  0  0  0  0  0  0
   13.3781   -6.3837  -12.6470 N   0  0  0  0  0  0  0  0  0  0  0  0
   10.1471   -4.4321  -12.3947 C   0  0  0  0  0  0  0  0  0  0  0  0
   12.0887   -8.1345  -12.0835 N   0  0  0  0  0  0  0  0  0  0  0  0
   11.5493   -4.6191  -12.6203 C   0  0  0  0  0  0  0  0  0  0  0  0
   14.5212   -8.5918  -12.4712 N   0  0  0  0  0  0  0  0  0  0  0  0
   12.0538   -5.9594  -12.4697 C   0  0  0  0  0  0  0  0  0  0  0  0
    6.1984   -9.7328  -11.0792 N   0  0  0  0  0  0  0  0  0  0  0  0
   11.1897   -7.0522  -12.1116 C   0  0  0  0  0  0  0  0  0  0  0  0
    9.7403   -6.8095  -11.8752 C   0  0  0  0  0  0  0  0  0  0  0  0
   13.3803   -7.7254  -12.3979 C   0  0  0  0  0  0  0  0  0  0  0  0
    8.8466   -7.9731  -11.4888 C   0  0  0  0  0  0  0  0  0  0  0  0
    7.3517   -7.6725  -11.4990 C   0  0  1  0  0  0  0  0  0  0  0  0
    7.0286   -6.3649  -12.1637 C   0  0  0  0  0  0  0  0  0  0  0  0
    6.5930   -8.8238  -12.1415 C   0  0  0  0  0  0  0  0  0  0  0  0
   11.7244   -9.5078  -11.6852 C   0  0  0  0  0  0  0  0  0  0  0  0
    5.1001  -10.5587  -11.5624 C   0  0  0  0  0  0  0  0  0  0  0  0
    7.3465  -10.5715  -10.7728 C   0  0  0  0  0  0  0  0  0  0  0  0
   12.6458  -10.1585  -10.6390 C   0  0  0  0  0  0  0  0  0  0  0  0
   12.2813  -11.6513  -10.5336 C   0  0  0  0  0  0  0  0  0  0  0  0
   10.4679  -13.0293   -9.7239 C   0  0  0  0  0  0  0  0  0  0  0  0
  1 23  1  0  0  0  0
  1 24  1  0  0  0  0
  1  2  1  0  0  0  0
  3  4  1  0  0  0  0
  3 17  1  0  0  0  0
  4  6  2  0  0  0  0
  4 13  1  0  0  0  0
  5 10  1  0  0  0  0
  5 14  2  0  0  0  0
  6  8  1  0  0  0  0
  7 12  1  0  0  0  0
  7 14  1  0  0  0  0
  7 19  1  0  0  0  0
  8 10  2  0  0  0  0
  9 14  1  0  0  0  0
 10 12  1  0  0  0  0
 11 18  1  0  0  0  0
 11 20  1  0  0  0  0
 11 21  1  0  0  0  0
 12 13  2  0  0  0  0
 13 15  1  0  0  0  0
 15 16  1  0  0  0  0
 16 17  1  0  0  0  0
 16 18  1  6  0  0  0
 19 22  1  0  0  0  0
 22 23  1  0  0  0  0
M  END
>  <CHROM.1>
-91.61723908,-129.99387513,159.99838675,92.25436633,-169.83052082,-96.19500194
10.11476727,-8.49209869,-11.44077404,1.01077974,-0.00326474,2.76320071

>  <Name>
ligand

>  <RI>
0

>  <Rbt.Current_Directory>
/home/itssahil/PROJECTS/Mol_Feturizer/New_Systems/rnas/3TZR

>  <Rbt.Executable>
rbdock ($Id: //depot/dev/client3/rdock/2013.1/src/exe/rbdock.cxx#4 $)

>  <Rbt.Library>
libRbt.so (2013.1, Build901 2013/11/27)

>  <Rbt.Parameter_File>
/export/apps/rDock/src/rDock_2013.1_src/data/scripts/dock_solv.prm

>  <Rbt.Receptor>
prm/pocket_docking_7.prm

>  <SCORE>
-30.4325

>  <SCORE.INTER>
-23.9541

>  <SCORE.INTER.CONST>
1

>  <SCORE.INTER.POLAR>
-0.72111

>  <SCORE.INTER.ROT>
6

>  <SCORE.INTER.SOLV>
21.0216

>  <SCORE.INTER.VDW>
-28.1729

>  <SCORE.INTER.norm>
-0.998086

>  <SCORE.INTRA>
-6.47847

>  <SCORE.INTRA.DIHEDRAL>
5.20485

>  <SCORE.INTRA.DIHEDRAL.0>
4.94008

>  <SCORE.INTRA.POLAR>
0

>  <SCORE.INTRA.POLAR.0>
0

>  <SCORE.INTRA.REPUL>
0

>  <SCORE.INTRA.REPUL.0>
0

>  <SCORE.INTRA.SOLV>
1.25132

>  <SCORE.INTRA.SOLV.lig_0>
-31.4704

>  <SCORE.INTRA.VDW>
-9.70656

>  <SCORE.INTRA.VDW.0>
10.2807

>  <SCORE.INTRA.norm>
-0.269936

>  <SCORE.RESTR>
0

>  <SCORE.RESTR.CAVITY>
0

>  <SCORE.RESTR.norm>
0

>  <SCORE.SYSTEM>
0

>  <SCORE.SYSTEM.CONST>
0

>  <SCORE.SYSTEM.DIHEDRAL>
0

>  <SCORE.SYSTEM.SOLV>
0

>  <SCORE.SYSTEM.norm>
0

>  <SCORE.heavy>
24

>  <SCORE.norm>
-1.26802

>  <RMSD>
5.163

$$$$
ligand
 OpenBabel11021811493D
libRbt.so/2013.1/901 2013/11/27
 24 26  0  0  0  0  0  0  0  0999 V2000
   12.3388  -12.1036   -9.8190 N   0  0  0  0  0  0  0  0  0  0  0  0
   13.3186  -13.0321  -10.3594 C   0  0  0  0  0  0  0  0  0  0  0  0
    7.7644   -4.9737  -11.6022 O   0  0  0  0  0  0  0  0  0  0  0  0
    9.1226   -5.1566  -11.8250 C   0  0  0  0  0  0  0  0  0  0  0  0
   13.2841   -5.9011  -12.4463 N   0  0  0  0  0  0  0  0  0  0  0  0
   10.0547   -3.9852  -11.9863 C   0  0  0  0  0  0  0  0  0  0  0  0
   11.9666   -7.7079  -12.2331 N   0  0  0  0  0  0  0  0  0  0  0  0
   11.4635   -4.1466  -12.1892 C   0  0  0  0  0  0  0  0  0  0  0  0
   14.4099   -8.1195  -12.6037 N   0  0  0  0  0  0  0  0  0  0  0  0
   11.9559   -5.4985  -12.2483 C   0  0  0  0  0  0  0  0  0  0  0  0
    6.9973   -9.6314  -12.2699 N   0  0  0  0  0  0  0  0  0  0  0  0
   11.0742   -6.6266  -12.1111 C   0  0  0  0  0  0  0  0  0  0  0  0
    9.6180   -6.4116  -11.8900 C   0  0  0  0  0  0  0  0  0  0  0  0
   13.2710   -7.2656  -12.4269 C   0  0  0  0  0  0  0  0  0  0  0  0
    8.7052   -7.6140  -11.7379 C   0  0  0  0  0  0  0  0  0  0  0  0
    7.2130   -7.2998  -11.7516 C   0  0  1  0  0  0  0  0  0  0  0  0
    6.9211   -5.8957  -12.1978 C   0  0  0  0  0  0  0  0  0  0  0  0
    6.4740   -8.3185  -12.6062 C   0  0  0  0  0  0  0  0  0  0  0  0
   11.5815   -9.1246  -12.0854 C   0  0  0  0  0  0  0  0  0  0  0  0
    6.3056  -10.1137  -11.0822 C   0  0  0  0  0  0  0  0  0  0  0  0
    6.7196  -10.5132  -13.3928 C   0  0  0  0  0  0  0  0  0  0  0  0
   12.3375   -9.9045  -10.9959 C   0  0  0  0  0  0  0  0  0  0  0  0
   11.7310  -11.3172  -10.9018 C   0  0  0  0  0  0  0  0  0  0  0  0
   11.3335  -12.8754   -9.0971 C   0  0  0  0  0  0  0  0  0  0  0  0
  1 23  1  0  0  0  0
  1 24  1  0  0  0  0
  1  2  1  0  0  0  0
  3  4  1  0  0  0  0
  3 17  1  0  0  0  0
  4  6  2  0  0  0  0
  4 13  1  0  0  0  0
  5 10  1  0  0  0  0
  5 14  2  0  0  0  0
  6  8  1  0  0  0  0
  7 12  1  0  0  0  0
  7 14  1  0  0  0  0
  7 19  1  0  0  0  0
  8 10  2  0  0  0  0
  9 14  1  0  0  0  0
 10 12  1  0  0  0  0
 11 18  1  0  0  0  0
 11 20  1  0  0  0  0
 11 21  1  0  0  0  0
 12 13  2  0  0  0  0
 13 15  1  0  0  0  0
 15 16  1  0  0  0  0
 16 17  1  0  0  0  0
 16 18  1  6  0  0  0
 19 22  1  0  0  0  0
 22 23  1  0  0  0  0
M  END
>  <CHROM.1>
-101.15675172,-122.21924069,83.60699238,44.10852425,175.31739255,-176.21713905
10.20240551,-8.19839250,-11.71864823,0.96708348,0.06318203,2.91712527

>  <Name>
ligand

>  <RI>
0

>  <Rbt.Current_Directory>
/home/itssahil/PROJECTS/Mol_Feturizer/New_Systems/rnas/3TZR

>  <Rbt.Executable>
rbdock ($Id: //depot/dev/client3/rdock/2013.1/src/exe/rbdock.cxx#4 $)

>  <Rbt.Library>
libRbt.so (2013.1, Build901 2013/11/27)

>  <Rbt.Parameter_File>
/export/apps/rDock/src/rDock_2013.1_src/data/scripts/dock_solv.prm

>  <Rbt.Receptor>
prm/pocket_docking_4.prm

>  <SCORE>
-29.4282

>  <SCORE.INTER>
-20.0129

>  <SCORE.INTER.CONST>
1

>  <SCORE.INTER.POLAR>
0

>  <SCORE.INTER.ROT>
6

>  <SCORE.INTER.SOLV>
22.9466

>  <SCORE.INTER.VDW>
-28.5908

>  <SCORE.INTER.norm>
-0.833872

>  <SCORE.INTRA>
-9.41524

>  <SCORE.INTRA.DIHEDRAL>
-0.00628236

>  <SCORE.INTRA.DIHEDRAL.0>
4.94008

>  <SCORE.INTRA.POLAR>
0

>  <SCORE.INTRA.POLAR.0>
0

>  <SCORE.INTRA.REPUL>
0

>  <SCORE.INTRA.REPUL.0>
0

>  <SCORE.INTRA.SOLV>
0.800359

>  <SCORE.INTRA.SOLV.lig_0>
-31.4704

>  <SCORE.INTRA.VDW>
-9.81228

>  <SCORE.INTRA.VDW.0>
10.2807

>  <SCORE.INTRA.norm>
-0.392302

>  <SCORE.RESTR>
0

>  <SCORE.RESTR.CAVITY>
0

>  <SCORE.RESTR.norm>
0

>  <SCORE.SYSTEM>
0

>  <SCORE.SYSTEM.CONST>
0

>  <SCORE.SYSTEM.DIHEDRAL>
0

>  <SCORE.SYSTEM.SOLV>
0

>  <SCORE.SYSTEM.norm>
0

>  <SCORE.heavy>
24

>  <SCORE.norm>
-1.22617

>  <RMSD>
5.168

$$$$
ligand
 OpenBabel11021811493D
libRbt.so/2013.1/901 2013/11/27
 24 26  0  0  0  0  0  0  0  0999 V2000
   11.0132  -12.0307   -9.3881 N   0  0  0  0  0  0  0  0  0  0  0  0
   11.5330  -12.3663   -8.0722 C   0  0  0  0  0  0  0  0  0  0  0  0
    7.9978   -5.6930  -11.7689 O   0  0  0  0  0  0  0  0  0  0  0  0
    9.3374   -5.9573  -12.0211 C   0  0  0  0  0  0  0  0  0  0  0  0
   13.4409   -6.9367  -12.6996 N   0  0  0  0  0  0  0  0  0  0  0  0
   10.2856   -4.8658  -12.4411 C   0  0  0  0  0  0  0  0  0  0  0  0
   12.0964   -8.6307  -12.0927 N   0  0  0  0  0  0  0  0  0  0  0  0
   11.6773   -5.1069  -12.6801 C   0  0  0  0  0  0  0  0  0  0  0  0
   14.5059   -9.1817  -12.5015 N   0  0  0  0  0  0  0  0  0  0  0  0
   12.1350   -6.4620  -12.5137 C   0  0  0  0  0  0  0  0  0  0  0  0
    6.0844   -9.9455  -10.9857 N   0  0  0  0  0  0  0  0  0  0  0  0
   11.2367   -7.5171  -12.1278 C   0  0  0  0  0  0  0  0  0  0  0  0
    9.7999   -7.2184  -11.8784 C   0  0  0  0  0  0  0  0  0  0  0  0
   13.3979   -8.2735  -12.4289 C   0  0  0  0  0  0  0  0  0  0  0  0
    8.8698   -8.3427  -11.4627 C   0  0  0  0  0  0  0  0  0  0  0  0
    7.3866   -7.9883  -11.4603 C   0  0  1  0  0  0  0  0  0  0  0  0
    7.1027   -6.6806  -12.1422 C   0  0  0  0  0  0  0  0  0  0  0  0
    6.5792   -9.1215  -12.0752 C   0  0  0  0  0  0  0  0  0  0  0  0
   11.6878   -9.9834  -11.6680 C   0  0  0  0  0  0  0  0  0  0  0  0
    4.8847  -10.6370  -11.4379 C   0  0  0  0  0  0  0  0  0  0  0  0
    7.1201  -10.9154  -10.6662 C   0  0  0  0  0  0  0  0  0  0  0  0
   12.6556  -10.6942  -10.7062 C   0  0  0  0  0  0  0  0  0  0  0  0
   12.0868  -12.0902  -10.3902 C   0  0  0  0  0  0  0  0  0  0  0  0
    9.9416  -12.9682   -9.7044 C   0  0  0  0  0  0  0  0  0  0  0  0
  1 23  1  0  0  0  0
  1 24  1  0  0  0  0
  1  2  1  0  0  0  0
  3  4  1  0  0  0  0
  3 17  1  0  0  0  0
  4  6  2  0  0  0  0
  4 13  1  0  0  0  0
  5 10  1  0  0  0  0
  5 14  2  0  0  0  0
  6  8  1  0  0  0  0
  7 12  1  0  0  0  0
  7 14  1  0  0  0  0
  7 19  1  0  0  0  0
  8 10  2  0  0  0  0
  9 14  1  0  0  0  0
 10 12  1  0  0  0  0
 11 18  1  0  0  0  0
 11 20  1  0  0  0  0
 11 21  1  0  0  0  0
 12 13  2  0  0  0  0
 13 15  1  0  0  0  0
 15 16  1  0  0  0  0
 16 17  1  0  0  0  0
 16 18  1  6  0  0  0
 19 22  1  0  0  0  0
 22 23  1  0  0  0  0
M  END
>  <CHROM.1>
-98.83122944,-134.56533070,155.17321270,96.26911527,-179.07118930,-78.91255252
10.04937371,-8.85108860,-11.41904751,-2.80822946,0.03372601,-0.40484474

>  <Name>
ligand

>  <RI>
144

>  <Rbt.Current_Directory>
/home/itssahil/PROJECTS/Mol_Feturizer/New_Systems/rnas/3TZR

>  <Rbt.Executable>
rbdock ($Id: //depot/dev/client3/rdock/2013.1/src/exe/rbdock.cxx#4 $)

>  <Rbt.Library>
libRbt.so (2013.1, Build901 2013/11/27)

>  <Rbt.Parameter_File>
/export/apps/rDock/src/rDock_2013.1_src/data/scripts/dock_solv.prm

>  <Rbt.Receptor>
prm/blind_docking_60.prm

>  <SCORE>
-30.3729

>  <SCORE.INTER>
-22.3814

>  <SCORE.INTER.CONST>
1

>  <SCORE.INTER.POLAR>
-0.72111

>  <SCORE.INTER.ROT>
6

>  <SCORE.INTER.SOLV>
19.3282

>  <SCORE.INTER.VDW>
-26.56

>  <SCORE.INTER.norm>
-0.932558

>  <SCORE.INTRA>
-7.99149

>  <SCORE.INTRA.DIHEDRAL>
3.69803

>  <SCORE.INTRA.DIHEDRAL.0>
4.94008

>  <SCORE.INTRA.POLAR>
0

>  <SCORE.INTRA.POLAR.0>
0

>  <SCORE.INTRA.REPUL>
0

>  <SCORE.INTRA.REPUL.0>
0

>  <SCORE.INTRA.SOLV>
1.3163

>  <SCORE.INTRA.SOLV.lig_0>
-31.4704

>  <SCORE.INTRA.VDW>
-10.4987

>  <SCORE.INTRA.VDW.0>
10.2807

>  <SCORE.INTRA.norm>
-0.332979

>  <SCORE.RESTR>
0

>  <SCORE.RESTR.CAVITY>
0

>  <SCORE.RESTR.norm>
0

>  <SCORE.SYSTEM>
0

>  <SCORE.SYSTEM.CONST>
0

>  <SCORE.SYSTEM.DIHEDRAL>
0

>  <SCORE.SYSTEM.SOLV>
0

>  <SCORE.SYSTEM.norm>
0

>  <SCORE.heavy>
24

>  <SCORE.norm>
-1.26554

>  <RMSD>
5.173

$$$$
ligand
 OpenBabel11021811493D
libRbt.so/2013.1/901 2013/11/27
 24 26  0  0  0  0  0  0  0  0999 V2000
   10.9618  -11.9761   -9.0454 N   0  0  0  0  0  0  0  0  0  0  0  0
   11.7759  -12.7439   -8.1169 C   0  0  0  0  0  0  0  0  0  0  0  0
    8.0624   -5.6711  -11.7951 O   0  0  0  0  0  0  0  0  0  0  0  0
    9.3998   -5.9625  -12.0282 C   0  0  0  0  0  0  0  0  0  0  0  0
   13.4880   -7.0317  -12.6624 N   0  0  0  0  0  0  0  0  0  0  0  0
   10.3972   -4.8758  -12.3300 C   0  0  0  0  0  0  0  0  0  0  0  0
   12.0685   -8.7193  -12.2350 N   0  0  0  0  0  0  0  0  0  0  0  0
   11.7871   -5.1470  -12.5466 C   0  0  0  0  0  0  0  0  0  0  0  0
   14.4701   -9.3223  -12.6157 N   0  0  0  0  0  0  0  0  0  0  0  0
   12.1934   -6.5267  -12.4773 C   0  0  0  0  0  0  0  0  0  0  0  0
    5.9400   -9.8691  -11.4138 N   0  0  0  0  0  0  0  0  0  0  0  0
   11.2482   -7.5762  -12.2050 C   0  0  0  0  0  0  0  0  0  0  0  0
    9.8149   -7.2468  -11.9748 C   0  0  0  0  0  0  0  0  0  0  0  0
   13.3914   -8.3835  -12.5024 C   0  0  0  0  0  0  0  0  0  0  0  0
    8.8346   -8.3665  -11.6794 C   0  0  0  0  0  0  0  0  0  0  0  0
    7.3648   -7.9602  -11.6921 C   0  0  1  0  0  0  0  0  0  0  0  0
    7.1472   -6.5927  -12.2737 C   0  0  0  0  0  0  0  0  0  0  0  0
    6.5402   -9.0107  -12.4205 C   0  0  0  0  0  0  0  0  0  0  0  0
   11.6012  -10.0861  -11.9337 C   0  0  0  0  0  0  0  0  0  0  0  0
    4.6691  -10.3630  -11.9263 C   0  0  0  0  0  0  0  0  0  0  0  0
    6.8477  -10.9839  -11.1927 C   0  0  0  0  0  0  0  0  0  0  0  0
   12.3191  -10.7876  -10.7677 C   0  0  0  0  0  0  0  0  0  0  0  0
   11.5241  -12.0548  -10.4011 C   0  0  0  0  0  0  0  0  0  0  0  0
    9.6042  -12.5076   -9.0039 C   0  0  0  0  0  0  0  0  0  0  0  0
  1 23  1  0  0  0  0
  1 24  1  0  0  0  0
  1  2  1  0  0  0  0
  3  4  1  0  0  0  0
  3 17  1  0  0  0  0
  4  6  2  0  0  0  0
  4 13  1  0  0  0  0
  5 10  1  0  0  0  0
  5 14  2  0  0  0  0
  6  8  1  0  0  0  0
  7 12  1  0  0  0  0
  7 14  1  0  0  0  0
  7 19  1  0  0  0  0
  8 10  2  0  0  0  0
  9 14  1  0  0  0  0
 10 12  1  0  0  0  0
 11 18  1  0  0  0  0
 11 20  1  0  0  0  0
 11 21  1  0  0  0  0
 12 13  2  0  0  0  0
 13 15  1  0  0  0  0
 15 16  1  0  0  0  0
 16 17  1  0  0  0  0
 16 18  1  6  0  0  0
 19 22  1  0  0  0  0
 22 23  1  0  0  0  0
M  END
>  <CHROM.1>
-101.14684389,-120.99765356,149.61631348,98.48272902,168.17459797,-115.47368654
9.98562719,-8.85495160,-11.50227838,-0.06616337,0.00647270,2.71404553

>  <Name>
ligand

>  <RI>
0

>  <Rbt.Current_Directory>
/home/itssahil/PROJECTS/Mol_Feturizer/New_Systems/rnas/3TZR

>  <Rbt.Executable>
rbdock ($Id: //depot/dev/client3/rdock/2013.1/src/exe/rbdock.cxx#4 $)

>  <Rbt.Library>
libRbt.so (2013.1, Build901 2013/11/27)

>  <Rbt.Parameter_File>
/export/apps/rDock/src/rDock_2013.1_src/data/scripts/dock_solv.prm

>  <Rbt.Receptor>
prm/blind_docking_80.prm

>  <SCORE>
-27.9542

>  <SCORE.INTER>
-21.6242

>  <SCORE.INTER.CONST>
1

>  <SCORE.INTER.POLAR>
-0.72111

>  <SCORE.INTER.ROT>
6

>  <SCORE.INTER.SOLV>
19.7079

>  <SCORE.INTER.VDW>
-26.1818

>  <SCORE.INTER.norm>
-0.90101

>  <SCORE.INTRA>
-6.42798

>  <SCORE.INTRA.DIHEDRAL>
9.07222

>  <SCORE.INTRA.DIHEDRAL.0>
4.94008

>  <SCORE.INTRA.POLAR>
0

>  <SCORE.INTRA.POLAR.0>
0

>  <SCORE.INTRA.REPUL>
0

>  <SCORE.INTRA.REPUL.0>
0

>  <SCORE.INTRA.SOLV>
0.664434

>  <SCORE.INTRA.SOLV.lig_0>
-31.4704

>  <SCORE.INTRA.VDW>
-11.2963

>  <SCORE.INTRA.VDW.0>
10.2807

>  <SCORE.INTRA.norm>
-0.267832

>  <SCORE.RESTR>
0.0979692

>  <SCORE.RESTR.CAVITY>
0.0979692

>  <SCORE.RESTR.norm>
0.00408205

>  <SCORE.SYSTEM>
0

>  <SCORE.SYSTEM.CONST>
0

>  <SCORE.SYSTEM.DIHEDRAL>
0

>  <SCORE.SYSTEM.SOLV>
0

>  <SCORE.SYSTEM.norm>
0

>  <SCORE.heavy>
24

>  <SCORE.norm>
-1.16476

>  <RMSD>
5.174

$$$$
ligand
 OpenBabel11021811493D
libRbt.so/2013.1/901 2013/11/27
 24 26  0  0  0  0  0  0  0  0999 V2000
   11.4315  -11.8720   -9.4293 N   0  0  0  0  0  0  0  0  0  0  0  0
   12.1403  -12.2409   -8.2145 C   0  0  0  0  0  0  0  0  0  0  0  0
    7.8041   -5.4063  -11.7720 O   0  0  0  0  0  0  0  0  0  0  0  0
    9.1643   -5.5814  -11.9889 C   0  0  0  0  0  0  0  0  0  0  0  0
   13.3393   -6.2888  -12.5612 N   0  0  0  0  0  0  0  0  0  0  0  0
   10.0520   -4.4265  -12.3697 C   0  0  0  0  0  0  0  0  0  0  0  0
   12.0897   -8.0725  -12.0114 N   0  0  0  0  0  0  0  0  0  0  0  0
   11.4623   -4.5754  -12.5717 C   0  0  0  0  0  0  0  0  0  0  0  0
   14.5400   -8.4637  -12.3575 N   0  0  0  0  0  0  0  0  0  0  0  0
   12.0010   -5.9006  -12.4073 C   0  0  0  0  0  0  0  0  0  0  0  0
    6.1654   -9.7930  -11.0912 N   0  0  0  0  0  0  0  0  0  0  0  0
   11.1618   -7.0156  -12.0587 C   0  0  0  0  0  0  0  0  0  0  0  0
    9.7025   -6.8122  -11.8469 C   0  0  0  0  0  0  0  0  0  0  0  0
   13.3745   -7.6290  -12.3064 C   0  0  0  0  0  0  0  0  0  0  0  0
    8.8351   -7.9987  -11.4703 C   0  0  0  0  0  0  0  0  0  0  0  0
    7.3328   -7.7396  -11.5061 C   0  0  1  0  0  0  0  0  0  0  0  0
    6.9847   -6.4440  -12.1815 C   0  0  0  0  0  0  0  0  0  0  0  0
    6.6169   -8.9139  -12.1561 C   0  0  0  0  0  0  0  0  0  0  0  0
   11.7570   -9.4539  -11.6133 C   0  0  0  0  0  0  0  0  0  0  0  0
    5.0466  -10.5828  -11.5876 C   0  0  0  0  0  0  0  0  0  0  0  0
    7.2738  -10.6706  -10.7496 C   0  0  0  0  0  0  0  0  0  0  0  0
   12.7326  -10.1081  -10.6198 C   0  0  0  0  0  0  0  0  0  0  0  0
   12.3860  -11.6052  -10.5147 C   0  0  0  0  0  0  0  0  0  0  0  0
   10.5279  -12.9632   -9.7757 C   0  0  0  0  0  0  0  0  0  0  0  0
  1 23  1  0  0  0  0
  1 24  1  0  0  0  0
  1  2  1  0  0  0  0
  3  4  1  0  0  0  0
  3 17  1  0  0  0  0
  4  6  2  0  0  0  0
  4 13  1  0  0  0  0
  5 10  1  0  0  0  0
  5 14  2  0  0  0  0
  6  8  1  0  0  0  0
  7 12  1  0  0  0  0
  7 14  1  0  0  0  0
  7 19  1  0  0  0  0
  8 10  2  0  0  0  0
  9 14  1  0  0  0  0
 10 12  1  0  0  0  0
 11 18  1  0  0  0  0
 11 20  1  0  0  0  0
 11 21  1  0  0  0  0
 12 13  2  0  0  0  0
 13 15  1  0  0  0  0
 15 16  1  0  0  0  0
 16 17  1  0  0  0  0
 16 18  1  6  0  0  0
 19 22  1  0  0  0  0
 22 23  1  0  0  0  0
M  END
>  <CHROM.1>
-94.26595328,-133.89579044,156.63253550,95.33623606,-169.88471369,-91.61940989
10.10451443,-8.48258064,-11.41714433,0.76761055,0.01573690,2.76890987

>  <Name>
ligand

>  <RI>
0

>  <Rbt.Current_Directory>
/home/itssahil/PROJECTS/Mol_Feturizer/New_Systems/rnas/3TZR

>  <Rbt.Executable>
rbdock ($Id: //depot/dev/client3/rdock/2013.1/src/exe/rbdock.cxx#4 $)

>  <Rbt.Library>
libRbt.so (2013.1, Build901 2013/11/27)

>  <Rbt.Parameter_File>
/export/apps/rDock/src/rDock_2013.1_src/data/scripts/dock_solv.prm

>  <Rbt.Receptor>
prm/pocket_docking_6.prm

>  <SCORE>
-30.686

>  <SCORE.INTER>
-23.7864

>  <SCORE.INTER.CONST>
1

>  <SCORE.INTER.POLAR>
-0.72111

>  <SCORE.INTER.ROT>
6

>  <SCORE.INTER.SOLV>
21.122

>  <SCORE.INTER.VDW>
-28.0946

>  <SCORE.INTER.norm>
-0.991101

>  <SCORE.INTRA>
-6.89961

>  <SCORE.INTRA.DIHEDRAL>
5.33966

>  <SCORE.INTRA.DIHEDRAL.0>
4.94008

>  <SCORE.INTRA.POLAR>
0

>  <SCORE.INTRA.POLAR.0>
0

>  <SCORE.INTRA.REPUL>
0

>  <SCORE.INTRA.REPUL.0>
0

>  <SCORE.INTRA.SOLV>
1.33563

>  <SCORE.INTRA.SOLV.lig_0>
-31.4704

>  <SCORE.INTRA.VDW>
-10.2372

>  <SCORE.INTRA.VDW.0>
10.2807

>  <SCORE.INTRA.norm>
-0.287484

>  <SCORE.RESTR>
0

>  <SCORE.RESTR.CAVITY>
0

>  <SCORE.RESTR.norm>
0

>  <SCORE.SYSTEM>
0

>  <SCORE.SYSTEM.CONST>
0

>  <SCORE.SYSTEM.DIHEDRAL>
0

>  <SCORE.SYSTEM.SOLV>
0

>  <SCORE.SYSTEM.norm>
0

>  <SCORE.heavy>
24

>  <SCORE.norm>
-1.27858

>  <RMSD>
5.175

$$$$
ligand
 OpenBabel11021811493D
libRbt.so/2013.1/901 2013/11/27
 24 26  0  0  0  0  0  0  0  0999 V2000
   12.4692  -11.9638  -10.0723 N   0  0  0  0  0  0  0  0  0  0  0  0
   13.3248  -13.0005  -10.6268 C   0  0  0  0  0  0  0  0  0  0  0  0
    7.5452   -4.9664  -11.5691 O   0  0  0  0  0  0  0  0  0  0  0  0
    8.9034   -5.0917  -11.8282 C   0  0  0  0  0  0  0  0  0  0  0  0
   13.0740   -5.6610  -12.5642 N   0  0  0  0  0  0  0  0  0  0  0  0
    9.7847   -3.8820  -11.9917 C   0  0  0  0  0  0  0  0  0  0  0  0
   11.8338   -7.5216  -12.3507 N   0  0  0  0  0  0  0  0  0  0  0  0
   11.1933   -3.9842  -12.2317 C   0  0  0  0  0  0  0  0  0  0  0  0
   14.2812   -7.8303  -12.7882 N   0  0  0  0  0  0  0  0  0  0  0  0
   11.7365   -5.3144  -12.3267 C   0  0  0  0  0  0  0  0  0  0  0  0
    6.9153   -9.6441  -12.2694 N   0  0  0  0  0  0  0  0  0  0  0  0
   10.9032   -6.4786  -12.1879 C   0  0  0  0  0  0  0  0  0  0  0  0
    9.4457   -6.3249  -11.9274 C   0  0  0  0  0  0  0  0  0  0  0  0
   13.1146   -7.0250  -12.5686 C   0  0  0  0  0  0  0  0  0  0  0  0
    8.5847   -7.5648  -11.7743 C   0  0  0  0  0  0  0  0  0  0  0  0
    7.0815   -7.3096  -11.7459 C   0  0  1  0  0  0  0  0  0  0  0  0
    6.7238   -5.9109  -12.1600 C   0  0  0  0  0  0  0  0  0  0  0  0
    6.3615   -8.3423  -12.6000 C   0  0  0  0  0  0  0  0  0  0  0  0
   11.5081   -8.9547  -12.2186 C   0  0  0  0  0  0  0  0  0  0  0  0
    6.1802  -10.1836  -11.1334 C   0  0  0  0  0  0  0  0  0  0  0  0
    6.7311  -10.5043  -13.4277 C   0  0  0  0  0  0  0  0  0  0  0  0
   12.2764   -9.7081  -11.1190 C   0  0  0  0  0  0  0  0  0  0  0  0
   11.8455  -11.1864  -11.1526 C   0  0  0  0  0  0  0  0  0  0  0  0
   11.4633  -12.6070   -9.2345 C   0  0  0  0  0  0  0  0  0  0  0  0
  1 23  1  0  0  0  0
  1 24  1  0  0  0  0
  1  2  1  0  0  0  0
  3  4  1  0  0  0  0
  3 17  1  0  0  0  0
  4  6  2  0  0  0  0
  4 13  1  0  0  0  0
  5 10  1  0  0  0  0
  5 14  2  0  0  0  0
  6  8  1  0  0  0  0
  7 12  1  0  0  0  0
  7 14  1  0  0  0  0
  7 19  1  0  0  0  0
  8 10  2  0  0  0  0
  9 14  1  0  0  0  0
 10 12  1  0  0  0  0
 11 18  1  0  0  0  0
 11 20  1  0  0  0  0
 11 21  1  0  0  0  0
 12 13  2  0  0  0  0
 13 15  1  0  0  0  0
 15 16  1  0  0  0  0
 16 17  1  0  0  0  0
 16 18  1  6  0  0  0
 19 22  1  0  0  0  0
 22 23  1  0  0  0  0
M  END
>  <CHROM.1>
-117.26771952,-119.59823111,87.29580933,45.84914131,-178.30529063,-176.26625616
10.09585541,-8.09336303,-11.80365502,0.92912387,0.04497310,2.93898781

>  <Name>
ligand

>  <RI>
0

>  <Rbt.Current_Directory>
/home/itssahil/PROJECTS/Mol_Feturizer/New_Systems/rnas/3TZR

>  <Rbt.Executable>
rbdock ($Id: //depot/dev/client3/rdock/2013.1/src/exe/rbdock.cxx#4 $)

>  <Rbt.Library>
libRbt.so (2013.1, Build901 2013/11/27)

>  <Rbt.Parameter_File>
/export/apps/rDock/src/rDock_2013.1_src/data/scripts/dock_solv.prm

>  <Rbt.Receptor>
prm/pocket_docking_6.prm

>  <SCORE>
-29.8085

>  <SCORE.INTER>
-20.1727

>  <SCORE.INTER.CONST>
1

>  <SCORE.INTER.POLAR>
0

>  <SCORE.INTER.ROT>
6

>  <SCORE.INTER.SOLV>
23.8003

>  <SCORE.INTER.VDW>
-28.9819

>  <SCORE.INTER.norm>
-0.840529

>  <SCORE.INTRA>
-9.63583

>  <SCORE.INTRA.DIHEDRAL>
0.48517

>  <SCORE.INTRA.DIHEDRAL.0>
4.94008

>  <SCORE.INTRA.POLAR>
0

>  <SCORE.INTRA.POLAR.0>
0

>  <SCORE.INTRA.REPUL>
0

>  <SCORE.INTRA.REPUL.0>
0

>  <SCORE.INTRA.SOLV>
0.793381

>  <SCORE.INTRA.SOLV.lig_0>
-31.4704

>  <SCORE.INTRA.VDW>
-10.2751

>  <SCORE.INTRA.VDW.0>
10.2807

>  <SCORE.INTRA.norm>
-0.401493

>  <SCORE.RESTR>
0

>  <SCORE.RESTR.CAVITY>
0

>  <SCORE.RESTR.norm>
0

>  <SCORE.SYSTEM>
0

>  <SCORE.SYSTEM.CONST>
0

>  <SCORE.SYSTEM.DIHEDRAL>
0

>  <SCORE.SYSTEM.SOLV>
0

>  <SCORE.SYSTEM.norm>
0

>  <SCORE.heavy>
24

>  <SCORE.norm>
-1.24202

>  <RMSD>
5.187

$$$$
ligand
 OpenBabel11021811493D
libRbt.so/2013.1/901 2013/11/27
 24 26  0  0  0  0  0  0  0  0999 V2000
   11.7231  -12.9551   -9.4115 N   0  0  0  0  0  0  0  0  0  0  0  0
   10.9537  -14.1890   -9.4123 C   0  0  0  0  0  0  0  0  0  0  0  0
    9.4612   -4.8490  -11.8794 O   0  0  0  0  0  0  0  0  0  0  0  0
   10.6513   -5.5107  -12.1504 C   0  0  0  0  0  0  0  0  0  0  0  0
   14.2444   -7.7017  -12.8908 N   0  0  0  0  0  0  0  0  0  0  0  0
   11.8923   -4.7583  -12.5513 C   0  0  0  0  0  0  0  0  0  0  0  0
   12.4392   -8.9079  -12.3148 N   0  0  0  0  0  0  0  0  0  0  0  0
   13.1393   -5.4146  -12.8089 C   0  0  0  0  0  0  0  0  0  0  0  0
   14.5565  -10.1713  -12.7592 N   0  0  0  0  0  0  0  0  0  0  0  0
   13.1517   -6.8488  -12.6811 C   0  0  0  0  0  0  0  0  0  0  0  0
    7.3422   -9.0602  -12.0426 N   0  0  0  0  0  0  0  0  0  0  0  0
   11.9695   -7.5813  -12.3138 C   0  0  0  0  0  0  0  0  0  0  0  0
   10.6977   -6.8565  -12.0439 C   0  0  0  0  0  0  0  0  0  0  0  0
   13.7869   -8.9653  -12.6535 C   0  0  0  0  0  0  0  0  0  0  0  0
    9.4637   -7.6457  -11.6484 C   0  0  0  0  0  0  0  0  0  0  0  0
    8.1649   -6.8469  -11.6235 C   0  0  1  0  0  0  0  0  0  0  0  0
    8.3024   -5.4980  -12.2695 C   0  0  0  0  0  0  0  0  0  0  0  0
    7.0440   -7.6550  -12.2595 C   0  0  0  0  0  0  0  0  0  0  0  0
   11.6295  -10.0769  -11.9207 C   0  0  0  0  0  0  0  0  0  0  0  0
    6.9047   -9.4235  -10.7016 C   0  0  0  0  0  0  0  0  0  0  0  0
    6.5925   -9.8232  -13.0281 C   0  0  0  0  0  0  0  0  0  0  0  0
   12.2357  -10.9576  -10.8145 C   0  0  0  0  0  0  0  0  0  0  0  0
   11.1987  -12.0273  -10.4238 C   0  0  0  0  0  0  0  0  0  0  0  0
   11.6495  -12.3764   -8.0747 C   0  0  0  0  0  0  0  0  0  0  0  0
  1 23  1  0  0  0  0
  1 24  1  0  0  0  0
  1  2  1  0  0  0  0
  3  4  1  0  0  0  0
  3 17  1  0  0  0  0
  4  6  2  0  0  0  0
  4 13  1  0  0  0  0
  5 10  1  0  0  0  0
  5 14  2  0  0  0  0
  6  8  1  0  0  0  0
  7 12  1  0  0  0  0
  7 14  1  0  0  0  0
  7 19  1  0  0  0  0
  8 10  2  0  0  0  0
  9 14  1  0  0  0  0
 10 12  1  0  0  0  0
 11 18  1  0  0  0  0
 11 20  1  0  0  0  0
 11 21  1  0  0  0  0
 12 13  2  0  0  0  0
 13 15  1  0  0  0  0
 15 16  1  0  0  0  0
 16 17  1  0  0  0  0
 16 18  1  6  0  0  0
 19 22  1  0  0  0  0
 22 23  1  0  0  0  0
M  END
>  <CHROM.1>
-159.67909659,-125.07641946,81.98028931,29.25888354,173.81858561,177.32664970
10.71792538,-8.69256472,-11.64618899,1.30255790,-0.07836843,2.76732095

>  <Name>
ligand

>  <RI>
0

>  <Rbt.Current_Directory>
/home/itssahil/PROJECTS/Mol_Feturizer/New_Systems/rnas/3TZR

>  <Rbt.Executable>
rbdock ($Id: //depot/dev/client3/rdock/2013.1/src/exe/rbdock.cxx#4 $)

>  <Rbt.Library>
libRbt.so (2013.1, Build901 2013/11/27)

>  <Rbt.Parameter_File>
/export/apps/rDock/src/rDock_2013.1_src/data/scripts/dock_solv.prm

>  <Rbt.Receptor>
prm/pocket_docking_6.prm

>  <SCORE>
-30.4207

>  <SCORE.INTER>
-23.2467

>  <SCORE.INTER.CONST>
1

>  <SCORE.INTER.POLAR>
0

>  <SCORE.INTER.ROT>
6

>  <SCORE.INTER.SOLV>
18.5888

>  <SCORE.INTER.VDW>
-29.2941

>  <SCORE.INTER.norm>
-0.968615

>  <SCORE.INTRA>
-7.17396

>  <SCORE.INTRA.DIHEDRAL>
0.544836

>  <SCORE.INTRA.DIHEDRAL.0>
4.94008

>  <SCORE.INTRA.POLAR>
0

>  <SCORE.INTRA.POLAR.0>
0

>  <SCORE.INTRA.REPUL>
0

>  <SCORE.INTRA.REPUL.0>
0

>  <SCORE.INTRA.SOLV>
0.92691

>  <SCORE.INTRA.SOLV.lig_0>
-31.4704

>  <SCORE.INTRA.VDW>
-7.90984

>  <SCORE.INTRA.VDW.0>
10.2807

>  <SCORE.INTRA.norm>
-0.298915

>  <SCORE.RESTR>
0

>  <SCORE.RESTR.CAVITY>
0

>  <SCORE.RESTR.norm>
0

>  <SCORE.SYSTEM>
0

>  <SCORE.SYSTEM.CONST>
0

>  <SCORE.SYSTEM.DIHEDRAL>
0

>  <SCORE.SYSTEM.SOLV>
0

>  <SCORE.SYSTEM.norm>
0

>  <SCORE.heavy>
24

>  <SCORE.norm>
-1.26753

>  <RMSD>
5.188

$$$$
ligand
 OpenBabel11021811493D
libRbt.so/2013.1/901 2013/11/27
 24 26  0  0  0  0  0  0  0  0999 V2000
   11.7904  -12.9964   -9.4176 N   0  0  0  0  0  0  0  0  0  0  0  0
   10.9947  -14.2127   -9.3729 C   0  0  0  0  0  0  0  0  0  0  0  0
    9.4169   -4.9117  -11.8342 O   0  0  0  0  0  0  0  0  0  0  0  0
   10.6166   -5.5543  -12.1090 C   0  0  0  0  0  0  0  0  0  0  0  0
   14.2412   -7.6883  -12.8623 N   0  0  0  0  0  0  0  0  0  0  0  0
   11.8472   -4.7812  -12.5025 C   0  0  0  0  0  0  0  0  0  0  0  0
   12.4526   -8.9244  -12.2977 N   0  0  0  0  0  0  0  0  0  0  0  0
   13.1036   -5.4178  -12.7639 C   0  0  0  0  0  0  0  0  0  0  0  0
   14.5881  -10.1541  -12.7496 N   0  0  0  0  0  0  0  0  0  0  0  0
   13.1363   -6.8526  -12.6472 C   0  0  0  0  0  0  0  0  0  0  0  0
    7.3568   -9.1511  -12.0304 N   0  0  0  0  0  0  0  0  0  0  0  0
   11.9642   -7.6046  -12.2870 C   0  0  0  0  0  0  0  0  0  0  0  0
   10.6820   -6.9001  -12.0129 C   0  0  0  0  0  0  0  0  0  0  0  0
   13.8014   -8.9601  -12.6354 C   0  0  0  0  0  0  0  0  0  0  0  0
    9.4588   -7.7097  -11.6249 C   0  0  0  0  0  0  0  0  0  0  0  0
    8.1489   -6.9296  -11.5953 C   0  0  1  0  0  0  0  0  0  0  0  0
    8.2679   -5.5739  -12.2307 C   0  0  0  0  0  0  0  0  0  0  0  0
    7.0401   -7.7486  -12.2389 C   0  0  0  0  0  0  0  0  0  0  0  0
   11.6592  -10.1078  -11.9136 C   0  0  0  0  0  0  0  0  0  0  0  0
    6.8734   -9.5426  -10.7133 C   0  0  0  0  0  0  0  0  0  0  0  0
    6.6617   -9.9131  -13.0559 C   0  0  0  0  0  0  0  0  0  0  0  0
   12.2835  -10.9962  -10.8238 C   0  0  0  0  0  0  0  0  0  0  0  0
   11.2574  -12.0761  -10.4322 C   0  0  0  0  0  0  0  0  0  0  0  0
   11.7680  -12.3915   -8.0906 C   0  0  0  0  0  0  0  0  0  0  0  0
  1 23  1  0  0  0  0
  1 24  1  0  0  0  0
  1  2  1  0  0  0  0
  3  4  1  0  0  0  0
  3 17  1  0  0  0  0
  4  6  2  0  0  0  0
  4 13  1  0  0  0  0
  5 10  1  0  0  0  0
  5 14  2  0  0  0  0
  6  8  1  0  0  0  0
  7 12  1  0  0  0  0
  7 14  1  0  0  0  0
  7 19  1  0  0  0  0
  8 10  2  0  0  0  0
  9 14  1  0  0  0  0
 10 12  1  0  0  0  0
 11 18  1  0  0  0  0
 11 20  1  0  0  0  0
 11 21  1  0  0  0  0
 12 13  2  0  0  0  0
 13 15  1  0  0  0  0
 15 16  1  0  0  0  0
 16 17  1  0  0  0  0
 16 18  1  6  0  0  0
 19 22  1  0  0  0  0
 22 23  1  0  0  0  0
M  END
>  <CHROM.1>
-162.38393697,-125.67325828,84.22015364,29.36517427,173.37525850,178.37302789
10.72841149,-8.73536565,-11.62888320,1.28638303,-0.07042940,2.77157995

>  <Name>
ligand

>  <RI>
0

>  <Rbt.Current_Directory>
/home/itssahil/PROJECTS/Mol_Feturizer/New_Systems/rnas/3TZR

>  <Rbt.Executable>
rbdock ($Id: //depot/dev/client3/rdock/2013.1/src/exe/rbdock.cxx#4 $)

>  <Rbt.Library>
libRbt.so (2013.1, Build901 2013/11/27)

>  <Rbt.Parameter_File>
/export/apps/rDock/src/rDock_2013.1_src/data/scripts/dock_solv.prm

>  <Rbt.Receptor>
prm/pocket_docking_7.prm

>  <SCORE>
-30.3931

>  <SCORE.INTER>
-23.1459

>  <SCORE.INTER.CONST>
1

>  <SCORE.INTER.POLAR>
0

>  <SCORE.INTER.ROT>
6

>  <SCORE.INTER.SOLV>
18.554

>  <SCORE.INTER.VDW>
-29.2153

>  <SCORE.INTER.norm>
-0.964411

>  <SCORE.INTRA>
-7.25614

>  <SCORE.INTRA.DIHEDRAL>
0.525727

>  <SCORE.INTRA.DIHEDRAL.0>
4.94008

>  <SCORE.INTRA.POLAR>
0

>  <SCORE.INTRA.POLAR.0>
0

>  <SCORE.INTRA.REPUL>
0

>  <SCORE.INTRA.REPUL.0>
0

>  <SCORE.INTRA.SOLV>
0.93864

>  <SCORE.INTRA.SOLV.lig_0>
-31.4704

>  <SCORE.INTRA.VDW>
-7.98833

>  <SCORE.INTRA.VDW.0>
10.2807

>  <SCORE.INTRA.norm>
-0.302339

>  <SCORE.RESTR>
0.00892956

>  <SCORE.RESTR.CAVITY>
0.00892956

>  <SCORE.RESTR.norm>
0.000372065

>  <SCORE.SYSTEM>
0

>  <SCORE.SYSTEM.CONST>
0

>  <SCORE.SYSTEM.DIHEDRAL>
0

>  <SCORE.SYSTEM.SOLV>
0

>  <SCORE.SYSTEM.norm>
0

>  <SCORE.heavy>
24

>  <SCORE.norm>
-1.26638

>  <RMSD>
5.191

$$$$
ligand
 OpenBabel11021811493D
libRbt.so/2013.1/901 2013/11/27
 24 26  0  0  0  0  0  0  0  0999 V2000
   11.7749  -12.9275   -9.4479 N   0  0  0  0  0  0  0  0  0  0  0  0
   11.0565  -14.1907   -9.4977 C   0  0  0  0  0  0  0  0  0  0  0  0
    9.4418   -4.7807  -11.8482 O   0  0  0  0  0  0  0  0  0  0  0  0
   10.6380   -5.4339  -12.1127 C   0  0  0  0  0  0  0  0  0  0  0  0
   14.2502   -7.5997  -12.8344 N   0  0  0  0  0  0  0  0  0  0  0  0
   11.8771   -4.6723  -12.5019 C   0  0  0  0  0  0  0  0  0  0  0  0
   12.4484   -8.8192  -12.2758 N   0  0  0  0  0  0  0  0  0  0  0  0
   13.1301   -5.3198  -12.7526 C   0  0  0  0  0  0  0  0  0  0  0  0
   14.5769  -10.0677  -12.7092 N   0  0  0  0  0  0  0  0  0  0  0  0
   13.1507   -6.7544  -12.6297 C   0  0  0  0  0  0  0  0  0  0  0  0
    7.3397   -9.0040  -12.0235 N   0  0  0  0  0  0  0  0  0  0  0  0
   11.9704   -7.4956  -12.2737 C   0  0  0  0  0  0  0  0  0  0  0  0
   10.6921   -6.7798  -12.0106 C   0  0  0  0  0  0  0  0  0  0  0  0
   13.7990   -8.8670  -12.6049 C   0  0  0  0  0  0  0  0  0  0  0  0
    9.4602   -7.5781  -11.6269 C   0  0  0  0  0  0  0  0  0  0  0  0
    8.1563   -6.7875  -11.6087 C   0  0  1  0  0  0  0  0  0  0  0  0
    8.2900   -5.4355  -12.2491 C   0  0  0  0  0  0  0  0  0  0  0  0
    7.0452   -7.6004  -12.2558 C   0  0  0  0  0  0  0  0  0  0  0  0
   11.6433   -9.9946  -11.8918 C   0  0  0  0  0  0  0  0  0  0  0  0
    6.8862   -9.3555  -10.6846 C   0  0  0  0  0  0  0  0  0  0  0  0
    6.6010   -9.7747  -13.0112 C   0  0  0  0  0  0  0  0  0  0  0  0
   12.2564  -10.8865  -10.7984 C   0  0  0  0  0  0  0  0  0  0  0  0
   11.2493  -12.0022  -10.4618 C   0  0  0  0  0  0  0  0  0  0  0  0
   11.6315  -12.3775   -8.1046 C   0  0  0  0  0  0  0  0  0  0  0  0
  1 23  1  0  0  0  0
  1 24  1  0  0  0  0
  1  2  1  0  0  0  0
  3  4  1  0  0  0  0
  3 17  1  0  0  0  0
  4  6  2  0  0  0  0
  4 13  1  0  0  0  0
  5 10  1  0  0  0  0
  5 14  2  0  0  0  0
  6  8  1  0  0  0  0
  7 12  1  0  0  0  0
  7 14  1  0  0  0  0
  7 19  1  0  0  0  0
  8 10  2  0  0  0  0
  9 14  1  0  0  0  0
 10 12  1  0  0  0  0
 11 18  1  0  0  0  0
 11 20  1  0  0  0  0
 11 21  1  0  0  0  0
 12 13  2  0  0  0  0
 13 15  1  0  0  0  0
 15 16  1  0  0  0  0
 16 17  1  0  0  0  0
 16 18  1  6  0  0  0
 19 22  1  0  0  0  0
 22 23  1  0  0  0  0
M  END
>  <CHROM.1>
-159.57332287,-125.91573130,81.75910393,30.13558548,176.39150978,178.34208352
10.72555539,-8.62742234,-11.62846431,1.29016951,-0.07175712,2.77972825

>  <Name>
ligand

>  <RI>
144

>  <Rbt.Current_Directory>
/home/itssahil/PROJECTS/Mol_Feturizer/New_Systems/rnas/3TZR

>  <Rbt.Executable>
rbdock ($Id: //depot/dev/client3/rdock/2013.1/src/exe/rbdock.cxx#4 $)

>  <Rbt.Library>
libRbt.so (2013.1, Build901 2013/11/27)

>  <Rbt.Parameter_File>
/export/apps/rDock/src/rDock_2013.1_src/data/scripts/dock_solv.prm

>  <Rbt.Receptor>
prm/pocket_docking_8.prm

>  <SCORE>
-30.5187

>  <SCORE.INTER>
-23.209

>  <SCORE.INTER.CONST>
1

>  <SCORE.INTER.POLAR>
0

>  <SCORE.INTER.ROT>
6

>  <SCORE.INTER.SOLV>
18.7465

>  <SCORE.INTER.VDW>
-29.3215

>  <SCORE.INTER.norm>
-0.96704

>  <SCORE.INTRA>
-7.30971

>  <SCORE.INTRA.DIHEDRAL>
0.315324

>  <SCORE.INTRA.DIHEDRAL.0>
4.94008

>  <SCORE.INTRA.POLAR>
0

>  <SCORE.INTRA.POLAR.0>
0

>  <SCORE.INTRA.REPUL>
0

>  <SCORE.INTRA.REPUL.0>
0

>  <SCORE.INTRA.SOLV>
0.972539

>  <SCORE.INTRA.SOLV.lig_0>
-31.4704

>  <SCORE.INTRA.VDW>
-7.95365

>  <SCORE.INTRA.VDW.0>
10.2807

>  <SCORE.INTRA.norm>
-0.304571

>  <SCORE.RESTR>
0

>  <SCORE.RESTR.CAVITY>
0

>  <SCORE.RESTR.norm>
0

>  <SCORE.SYSTEM>
0

>  <SCORE.SYSTEM.CONST>
0

>  <SCORE.SYSTEM.DIHEDRAL>
0

>  <SCORE.SYSTEM.SOLV>
0

>  <SCORE.SYSTEM.norm>
0

>  <SCORE.heavy>
24

>  <SCORE.norm>
-1.27161

>  <RMSD>
5.193

$$$$
ligand
 OpenBabel11021811493D
libRbt.so/2013.1/901 2013/11/27
 24 26  0  0  0  0  0  0  0  0999 V2000
   11.7519  -10.4447  -11.6573 N   0  0  0  0  0  0  0  0  0  0  0  0
   11.2233  -11.4603  -10.7610 C   0  0  0  0  0  0  0  0  0  0  0  0
    6.5774   -6.6417  -11.6986 O   0  0  0  0  0  0  0  0  0  0  0  0
    7.8046   -6.0254  -11.9036 C   0  0  0  0  0  0  0  0  0  0  0  0
   11.6672   -4.2995  -12.5039 N   0  0  0  0  0  0  0  0  0  0  0  0
    7.9526   -4.5292  -11.8250 C   0  0  0  0  0  0  0  0  0  0  0  0
   11.5377   -6.5368  -12.6561 N   0  0  0  0  0  0  0  0  0  0  0  0
    9.2123   -3.8712  -12.0049 C   0  0  0  0  0  0  0  0  0  0  0  0
   13.7915   -5.5014  -13.0097 N   0  0  0  0  0  0  0  0  0  0  0  0
   10.3461   -4.7139  -12.2836 C   0  0  0  0  0  0  0  0  0  0  0  0
    6.4677  -11.0237  -12.7114 N   0  0  0  0  0  0  0  0  0  0  0  0
   10.2158   -6.1433  -12.3766 C   0  0  0  0  0  0  0  0  0  0  0  0
    8.8887   -6.7855  -12.1710 C   0  0  0  0  0  0  0  0  0  0  0  0
   12.3871   -5.4376  -12.7247 C   0  0  0  0  0  0  0  0  0  0  0  0
    8.7730   -8.2955  -12.2635 C   0  0  0  0  0  0  0  0  0  0  0  0
    7.3471   -8.8361  -12.2727 C   0  0  1  0  0  0  0  0  0  0  0  0
    6.3207   -7.7584  -12.4751 C   0  0  0  0  0  0  0  0  0  0  0  0
    7.2127   -9.9336  -13.3174 C   0  0  0  0  0  0  0  0  0  0  0  0
   11.9808   -7.9395  -12.7725 C   0  0  0  0  0  0  0  0  0  0  0  0
    5.0914  -10.5890  -12.5149 C   0  0  0  0  0  0  0  0  0  0  0  0
    6.5020  -12.1445  -13.6377 C   0  0  0  0  0  0  0  0  0  0  0  0
   13.1088   -8.3577  -11.8137 C   0  0  0  0  0  0  0  0  0  0  0  0
   12.5830   -9.4894  -10.9109 C   0  0  0  0  0  0  0  0  0  0  0  0
   12.5224  -11.1158  -12.6981 C   0  0  0  0  0  0  0  0  0  0  0  0
  1 23  1  0  0  0  0
  1 24  1  0  0  0  0
  1  2  1  0  0  0  0
  3  4  1  0  0  0  0
  3 17  1  0  0  0  0
  4  6  2  0  0  0  0
  4 13  1  0  0  0  0
  5 10  1  0  0  0  0
  5 14  2  0  0  0  0
  6  8  1  0  0  0  0
  7 12  1  0  0  0  0
  7 14  1  0  0  0  0
  7 19  1  0  0  0  0
  8 10  2  0  0  0  0
  9 14  1  0  0  0  0
 10 12  1  0  0  0  0
 11 18  1  0  0  0  0
 11 20  1  0  0  0  0
 11 21  1  0  0  0  0
 12 13  2  0  0  0  0
 13 15  1  0  0  0  0
 15 16  1  0  0  0  0
 16 17  1  0  0  0  0
 16 18  1  6  0  0  0
 19 22  1  0  0  0  0
 22 23  1  0  0  0  0
M  END
>  <CHROM.1>
-177.30866161,-122.33763071,69.31567836,135.58739416,118.92200030,40.29001310
9.61837074,-7.96743923,-12.29254221,-0.66820558,0.05872900,3.14011265

>  <Name>
ligand

>  <RI>
144

>  <Rbt.Current_Directory>
/home/itssahil/PROJECTS/Mol_Feturizer/New_Systems/rnas/3TZR

>  <Rbt.Executable>
rbdock ($Id: //depot/dev/client3/rdock/2013.1/src/exe/rbdock.cxx#4 $)

>  <Rbt.Library>
libRbt.so (2013.1, Build901 2013/11/27)

>  <Rbt.Parameter_File>
/export/apps/rDock/src/rDock_2013.1_src/data/scripts/dock_solv.prm

>  <Rbt.Receptor>
prm/blind_docking_20.prm

>  <SCORE>
-9.8387

>  <SCORE.INTER>
-10.541

>  <SCORE.INTER.CONST>
1

>  <SCORE.INTER.POLAR>
0

>  <SCORE.INTER.ROT>
6

>  <SCORE.INTER.SOLV>
23.7652

>  <SCORE.INTER.VDW>
-22.5491

>  <SCORE.INTER.norm>
-0.43921

>  <SCORE.INTRA>
-2.20593

>  <SCORE.INTRA.DIHEDRAL>
7.70315

>  <SCORE.INTRA.DIHEDRAL.0>
4.94008

>  <SCORE.INTRA.POLAR>
0

>  <SCORE.INTRA.POLAR.0>
0

>  <SCORE.INTRA.REPUL>
0

>  <SCORE.INTRA.REPUL.0>
0

>  <SCORE.INTRA.SOLV>
0.983005

>  <SCORE.INTRA.SOLV.lig_0>
-31.4704

>  <SCORE.INTRA.VDW>
-6.54901

>  <SCORE.INTRA.VDW.0>
10.2807

>  <SCORE.INTRA.norm>
-0.0919139

>  <SCORE.RESTR>
2.90827

>  <SCORE.RESTR.CAVITY>
2.90827

>  <SCORE.RESTR.norm>
0.121178

>  <SCORE.SYSTEM>
0

>  <SCORE.SYSTEM.CONST>
0

>  <SCORE.SYSTEM.DIHEDRAL>
0

>  <SCORE.SYSTEM.SOLV>
0

>  <SCORE.SYSTEM.norm>
0

>  <SCORE.heavy>
24

>  <SCORE.norm>
-0.409946

>  <RMSD>
5.194

$$$$
ligand
 OpenBabel11021811493D
libRbt.so/2013.1/901 2013/11/27
 24 26  0  0  0  0  0  0  0  0999 V2000
   11.4561  -11.9072   -9.3550 N   0  0  0  0  0  0  0  0  0  0  0  0
   12.2848  -12.2069   -8.1984 C   0  0  0  0  0  0  0  0  0  0  0  0
    7.7971   -5.4264  -11.7318 O   0  0  0  0  0  0  0  0  0  0  0  0
    9.1524   -5.6085  -11.9721 C   0  0  0  0  0  0  0  0  0  0  0  0
   13.3127   -6.3384  -12.6183 N   0  0  0  0  0  0  0  0  0  0  0  0
   10.0425   -4.4552  -12.3522 C   0  0  0  0  0  0  0  0  0  0  0  0
   12.0588   -8.1200  -12.0715 N   0  0  0  0  0  0  0  0  0  0  0  0
   11.4484   -4.6116  -12.5780 C   0  0  0  0  0  0  0  0  0  0  0  0
   14.5004   -8.5242  -12.4607 N   0  0  0  0  0  0  0  0  0  0  0  0
   11.9799   -5.9426  -12.4387 C   0  0  0  0  0  0  0  0  0  0  0  0
    6.0836   -9.7775  -11.0778 N   0  0  0  0  0  0  0  0  0  0  0  0
   11.1380   -7.0559  -12.0911 C   0  0  0  0  0  0  0  0  0  0  0  0
    9.6837   -6.8448  -11.8540 C   0  0  0  0  0  0  0  0  0  0  0  0
   13.3420   -7.6819  -12.3810 C   0  0  0  0  0  0  0  0  0  0  0  0
    8.8135   -8.0298  -11.4788 C   0  0  0  0  0  0  0  0  0  0  0  0
    7.3128   -7.7595  -11.4879 C   0  0  1  0  0  0  0  0  0  0  0  0
    6.9638   -6.4529  -12.1415 C   0  0  0  0  0  0  0  0  0  0  0  0
    6.5783   -8.9203  -12.1414 C   0  0  0  0  0  0  0  0  0  0  0  0
   11.7221   -9.5038  -11.6856 C   0  0  0  0  0  0  0  0  0  0  0  0
    4.9526  -10.5405  -11.5880 C   0  0  0  0  0  0  0  0  0  0  0  0
    7.1610  -10.6823  -10.7090 C   0  0  0  0  0  0  0  0  0  0  0  0
   12.6596  -10.1472  -10.6493 C   0  0  0  0  0  0  0  0  0  0  0  0
   12.2984  -11.6397  -10.5295 C   0  0  0  0  0  0  0  0  0  0  0  0
   10.5722  -13.0442   -9.5857 C   0  0  0  0  0  0  0  0  0  0  0  0
  1 23  1  0  0  0  0
  1 24  1  0  0  0  0
  1  2  1  0  0  0  0
  3  4  1  0  0  0  0
  3 17  1  0  0  0  0
  4  6  2  0  0  0  0
  4 13  1  0  0  0  0
  5 10  1  0  0  0  0
  5 14  2  0  0  0  0
  6  8  1  0  0  0  0
  7 12  1  0  0  0  0
  7 14  1  0  0  0  0
  7 19  1  0  0  0  0
  8 10  2  0  0  0  0
  9 14  1  0  0  0  0
 10 12  1  0  0  0  0
 11 18  1  0  0  0  0
 11 20  1  0  0  0  0
 11 21  1  0  0  0  0
 12 13  2  0  0  0  0
 13 15  1  0  0  0  0
 15 16  1  0  0  0  0
 16 17  1  0  0  0  0
 16 18  1  6  0  0  0
 19 22  1  0  0  0  0
 22 23  1  0  0  0  0
M  END
>  <CHROM.1>
-89.91682828,-130.27628621,156.54828371,97.91132619,-171.35106028,-99.66186914
10.07927437,-8.50949418,-11.41615807,0.69863556,0.00641437,2.75902965

>  <Name>
ligand

>  <RI>
0

>  <Rbt.Current_Directory>
/home/itssahil/PROJECTS/Mol_Feturizer/New_Systems/rnas/3TZR

>  <Rbt.Executable>
rbdock ($Id: //depot/dev/client3/rdock/2013.1/src/exe/rbdock.cxx#4 $)

>  <Rbt.Library>
libRbt.so (2013.1, Build901 2013/11/27)

>  <Rbt.Parameter_File>
/export/apps/rDock/src/rDock_2013.1_src/data/scripts/dock_solv.prm

>  <Rbt.Receptor>
prm/pocket_docking_4.prm

>  <SCORE>
-30.6493

>  <SCORE.INTER>
-24.1429

>  <SCORE.INTER.CONST>
1

>  <SCORE.INTER.POLAR>
-0.72111

>  <SCORE.INTER.ROT>
6

>  <SCORE.INTER.SOLV>
21.1409

>  <SCORE.INTER.VDW>
-28.3385

>  <SCORE.INTER.norm>
-1.00595

>  <SCORE.INTRA>
-6.50644

>  <SCORE.INTRA.DIHEDRAL>
6.38496

>  <SCORE.INTRA.DIHEDRAL.0>
4.94008

>  <SCORE.INTRA.POLAR>
0

>  <SCORE.INTRA.POLAR.0>
0

>  <SCORE.INTRA.REPUL>
0

>  <SCORE.INTRA.REPUL.0>
0

>  <SCORE.INTRA.SOLV>
1.18906

>  <SCORE.INTRA.SOLV.lig_0>
-31.4704

>  <SCORE.INTRA.VDW>
-10.2935

>  <SCORE.INTRA.VDW.0>
10.2807

>  <SCORE.INTRA.norm>
-0.271102

>  <SCORE.RESTR>
0

>  <SCORE.RESTR.CAVITY>
0

>  <SCORE.RESTR.norm>
0

>  <SCORE.SYSTEM>
0

>  <SCORE.SYSTEM.CONST>
0

>  <SCORE.SYSTEM.DIHEDRAL>
0

>  <SCORE.SYSTEM.SOLV>
0

>  <SCORE.SYSTEM.norm>
0

>  <SCORE.heavy>
24

>  <SCORE.norm>
-1.27706

>  <RMSD>
5.195

$$$$
ligand
 OpenBabel11021811493D
libRbt.so/2013.1/901 2013/11/27
 24 26  0  0  0  0  0  0  0  0999 V2000
   11.8153  -12.9754   -9.4030 N   0  0  0  0  0  0  0  0  0  0  0  0
   11.0364  -14.2025   -9.3616 C   0  0  0  0  0  0  0  0  0  0  0  0
    9.4506   -4.8541  -11.8811 O   0  0  0  0  0  0  0  0  0  0  0  0
   10.6396   -5.5154  -12.1580 C   0  0  0  0  0  0  0  0  0  0  0  0
   14.2308   -7.7044  -12.9136 N   0  0  0  0  0  0  0  0  0  0  0  0
   11.8733   -4.7642  -12.5829 C   0  0  0  0  0  0  0  0  0  0  0  0
   12.4364   -8.9089  -12.3011 N   0  0  0  0  0  0  0  0  0  0  0  0
   13.1192   -5.4198  -12.8472 C   0  0  0  0  0  0  0  0  0  0  0  0
   14.5524  -10.1711  -12.7550 N   0  0  0  0  0  0  0  0  0  0  0  0
   13.1379   -6.8523  -12.7016 C   0  0  0  0  0  0  0  0  0  0  0  0
    7.3603   -9.0744  -11.9961 N   0  0  0  0  0  0  0  0  0  0  0  0
   11.9625   -7.5838  -12.3112 C   0  0  0  0  0  0  0  0  0  0  0  0
   10.6916   -6.8596  -12.0352 C   0  0  0  0  0  0  0  0  0  0  0  0
   13.7803   -8.9663  -12.6552 C   0  0  0  0  0  0  0  0  0  0  0  0
    9.4649   -7.6476  -11.6152 C   0  0  0  0  0  0  0  0  0  0  0  0
    8.1640   -6.8526  -11.5849 C   0  0  1  0  0  0  0  0  0  0  0  0
    8.2894   -5.5115  -12.2493 C   0  0  0  0  0  0  0  0  0  0  0  0
    7.0382   -7.6721  -12.1974 C   0  0  0  0  0  0  0  0  0  0  0  0
   11.6353  -10.0753  -11.8829 C   0  0  0  0  0  0  0  0  0  0  0  0
    6.9117   -9.4649  -10.6663 C   0  0  0  0  0  0  0  0  0  0  0  0
    6.6385   -9.8373  -13.0023 C   0  0  0  0  0  0  0  0  0  0  0  0
   12.2825  -10.9718  -10.8132 C   0  0  0  0  0  0  0  0  0  0  0  0
   11.2666  -12.0575  -10.4113 C   0  0  0  0  0  0  0  0  0  0  0  0
   11.7892  -12.3773   -8.0729 C   0  0  0  0  0  0  0  0  0  0  0  0
  1 23  1  0  0  0  0
  1 24  1  0  0  0  0
  1  2  1  0  0  0  0
  3  4  1  0  0  0  0
  3 17  1  0  0  0  0
  4  6  2  0  0  0  0
  4 13  1  0  0  0  0
  5 10  1  0  0  0  0
  5 14  2  0  0  0  0
  6  8  1  0  0  0  0
  7 12  1  0  0  0  0
  7 14  1  0  0  0  0
  7 19  1  0  0  0  0
  8 10  2  0  0  0  0
  9 14  1  0  0  0  0
 10 12  1  0  0  0  0
 11 18  1  0  0  0  0
 11 20  1  0  0  0  0
 11 21  1  0  0  0  0
 12 13  2  0  0  0  0
 13 15  1  0  0  0  0
 15 16  1  0  0  0  0
 16 17  1  0  0  0  0
 16 18  1  6  0  0  0
 19 22  1  0  0  0  0
 22 23  1  0  0  0  0
M  END
>  <CHROM.1>
-161.71235611,-127.41949264,84.26529742,27.85759543,175.13137092,179.08255297
10.73517105,-8.70204184,-11.63345749,1.28109260,-0.08356315,2.76299097

>  <Name>
ligand

>  <RI>
144

>  <Rbt.Current_Directory>
/home/itssahil/PROJECTS/Mol_Feturizer/New_Systems/rnas/3TZR

>  <Rbt.Executable>
rbdock ($Id: //depot/dev/client3/rdock/2013.1/src/exe/rbdock.cxx#4 $)

>  <Rbt.Library>
libRbt.so (2013.1, Build901 2013/11/27)

>  <Rbt.Parameter_File>
/export/apps/rDock/src/rDock_2013.1_src/data/scripts/dock_solv.prm

>  <Rbt.Receptor>
prm/pocket_docking_8.prm

>  <SCORE>
-30.3894

>  <SCORE.INTER>
-23.4216

>  <SCORE.INTER.CONST>
1

>  <SCORE.INTER.POLAR>
0

>  <SCORE.INTER.ROT>
6

>  <SCORE.INTER.SOLV>
18.4369

>  <SCORE.INTER.VDW>
-29.36

>  <SCORE.INTER.norm>
-0.9759

>  <SCORE.INTRA>
-6.96945

>  <SCORE.INTRA.DIHEDRAL>
0.692764

>  <SCORE.INTRA.DIHEDRAL.0>
4.94008

>  <SCORE.INTRA.POLAR>
0

>  <SCORE.INTRA.POLAR.0>
0

>  <SCORE.INTRA.REPUL>
0

>  <SCORE.INTRA.REPUL.0>
0

>  <SCORE.INTRA.SOLV>
1.00957

>  <SCORE.INTRA.SOLV.lig_0>
-31.4704

>  <SCORE.INTRA.VDW>
-7.82061

>  <SCORE.INTRA.VDW.0>
10.2807

>  <SCORE.INTRA.norm>
-0.290394

>  <SCORE.RESTR>
0.001608

>  <SCORE.RESTR.CAVITY>
0.001608

>  <SCORE.RESTR.norm>
6.69999e-05

>  <SCORE.SYSTEM>
0

>  <SCORE.SYSTEM.CONST>
0

>  <SCORE.SYSTEM.DIHEDRAL>
0

>  <SCORE.SYSTEM.SOLV>
0

>  <SCORE.SYSTEM.norm>
0

>  <SCORE.heavy>
24

>  <SCORE.norm>
-1.26623

>  <RMSD>
5.198

$$$$
ligand
 OpenBabel11021811493D
libRbt.so/2013.1/901 2013/11/27
 24 26  0  0  0  0  0  0  0  0999 V2000
   11.9383  -11.6628   -9.2415 N   0  0  0  0  0  0  0  0  0  0  0  0
   13.1060  -11.8730   -8.4008 C   0  0  0  0  0  0  0  0  0  0  0  0
    8.8551   -5.3377  -11.5091 O   0  0  0  0  0  0  0  0  0  0  0  0
   10.1221   -5.7727  -11.8739 C   0  0  0  0  0  0  0  0  0  0  0  0
   13.9693   -7.2914  -12.9472 N   0  0  0  0  0  0  0  0  0  0  0  0
   11.2704   -4.8093  -12.0162 C   0  0  0  0  0  0  0  0  0  0  0  0
   12.3127   -8.7984  -12.7743 N   0  0  0  0  0  0  0  0  0  0  0  0
   12.5929   -5.2360  -12.3639 C   0  0  0  0  0  0  0  0  0  0  0  0
   14.5765   -9.6646  -13.4079 N   0  0  0  0  0  0  0  0  0  0  0  0
   12.7770   -6.6462  -12.5901 C   0  0  0  0  0  0  0  0  0  0  0  0
    7.0030   -9.6361  -12.4558 N   0  0  0  0  0  0  0  0  0  0  0  0
   11.6853   -7.5754  -12.4726 C   0  0  0  0  0  0  0  0  0  0  0  0
   10.3296   -7.0886  -12.0974 C   0  0  0  0  0  0  0  0  0  0  0  0
   13.6640   -8.6175  -13.0492 C   0  0  0  0  0  0  0  0  0  0  0  0
    9.1928   -8.0853  -11.9689 C   0  0  0  0  0  0  0  0  0  0  0  0
    7.8063   -7.4694  -11.8143 C   0  0  1  0  0  0  0  0  0  0  0  0
    7.7920   -5.9955  -12.1033 C   0  0  0  0  0  0  0  0  0  0  0  0
    6.8052   -8.2150  -12.6838 C   0  0  0  0  0  0  0  0  0  0  0  0
   11.6432  -10.1122  -12.7189 C   0  0  0  0  0  0  0  0  0  0  0  0
    6.0778  -10.0703  -11.4178 C   0  0  0  0  0  0  0  0  0  0  0  0
    6.7029  -10.3244  -13.7014 C   0  0  0  0  0  0  0  0  0  0  0  0
   11.1504  -10.5443  -11.3270 C   0  0  0  0  0  0  0  0  0  0  0  0
   12.3430  -11.1366  -10.5529 C   0  0  0  0  0  0  0  0  0  0  0  0
   11.2410  -12.9369   -9.3749 C   0  0  0  0  0  0  0  0  0  0  0  0
  1 23  1  0  0  0  0
  1 24  1  0  0  0  0
  1  2  1  0  0  0  0
  3  4  1  0  0  0  0
  3 17  1  0  0  0  0
  4  6  2  0  0  0  0
  4 13  1  0  0  0  0
  5 10  1  0  0  0  0
  5 14  2  0  0  0  0
  6  8  1  0  0  0  0
  7 12  1  0  0  0  0
  7 14  1  0  0  0  0
  7 19  1  0  0  0  0
  8 10  2  0  0  0  0
  9 14  1  0  0  0  0
 10 12  1  0  0  0  0
 11 18  1  0  0  0  0
 11 20  1  0  0  0  0
 11 21  1  0  0  0  0
 12 13  2  0  0  0  0
 13 15  1  0  0  0  0
 15 16  1  0  0  0  0
 16 17  1  0  0  0  0
 16 18  1  6  0  0  0
 19 22  1  0  0  0  0
 22 23  1  0  0  0  0
M  END
>  <CHROM.1>
-164.49781347,-63.34847154,93.91278894,47.47763947,-81.60692345,-175.99831358
10.55455014,-8.64154151,-11.83228613,0.55979993,0.03791532,2.78265830

>  <Name>
ligand

>  <RI>
0

>  <Rbt.Current_Directory>
/home/itssahil/PROJECTS/Mol_Feturizer/New_Systems/rnas/3TZR

>  <Rbt.Executable>
rbdock ($Id: //depot/dev/client3/rdock/2013.1/src/exe/rbdock.cxx#4 $)

>  <Rbt.Library>
libRbt.so (2013.1, Build901 2013/11/27)

>  <Rbt.Parameter_File>
/export/apps/rDock/src/rDock_2013.1_src/data/scripts/dock_solv.prm

>  <Rbt.Receptor>
prm/pocket_docking_5.prm

>  <SCORE>
-32.3111

>  <SCORE.INTER>
-22.6313

>  <SCORE.INTER.CONST>
1

>  <SCORE.INTER.POLAR>
-0.711807

>  <SCORE.INTER.ROT>
6

>  <SCORE.INTER.SOLV>
24.606

>  <SCORE.INTER.VDW>
-28.5169

>  <SCORE.INTER.norm>
-0.942972

>  <SCORE.INTRA>
-9.67974

>  <SCORE.INTRA.DIHEDRAL>
0.277236

>  <SCORE.INTRA.DIHEDRAL.0>
4.94008

>  <SCORE.INTRA.POLAR>
0

>  <SCORE.INTRA.POLAR.0>
0

>  <SCORE.INTRA.REPUL>
0

>  <SCORE.INTRA.REPUL.0>
0

>  <SCORE.INTRA.SOLV>
0.429999

>  <SCORE.INTRA.SOLV.lig_0>
-31.4704

>  <SCORE.INTRA.VDW>
-10.0334

>  <SCORE.INTRA.VDW.0>
10.2807

>  <SCORE.INTRA.norm>
-0.403322

>  <SCORE.RESTR>
0

>  <SCORE.RESTR.CAVITY>
0

>  <SCORE.RESTR.norm>
0

>  <SCORE.SYSTEM>
0

>  <SCORE.SYSTEM.CONST>
0

>  <SCORE.SYSTEM.DIHEDRAL>
0

>  <SCORE.SYSTEM.SOLV>
0

>  <SCORE.SYSTEM.norm>
0

>  <SCORE.heavy>
24

>  <SCORE.norm>
-1.34629

>  <RMSD>
5.207

$$$$
ligand
 OpenBabel11021811493D
libRbt.so/2013.1/901 2013/11/27
 24 26  0  0  0  0  0  0  0  0999 V2000
   11.8543  -11.6641   -9.4276 N   0  0  0  0  0  0  0  0  0  0  0  0
   13.1600  -12.1580   -9.0206 C   0  0  0  0  0  0  0  0  0  0  0  0
    7.6485   -5.1225  -11.6426 O   0  0  0  0  0  0  0  0  0  0  0  0
    9.0069   -5.2381  -11.9060 C   0  0  0  0  0  0  0  0  0  0  0  0
   13.1812   -5.7739  -12.6456 N   0  0  0  0  0  0  0  0  0  0  0  0
    9.8661   -4.0236  -12.1376 C   0  0  0  0  0  0  0  0  0  0  0  0
   11.9747   -7.6418  -12.3281 N   0  0  0  0  0  0  0  0  0  0  0  0
   11.2744   -4.1142  -12.3834 C   0  0  0  0  0  0  0  0  0  0  0  0
   14.4239   -7.9311  -12.7689 N   0  0  0  0  0  0  0  0  0  0  0  0
   11.8397   -5.4382  -12.4152 C   0  0  0  0  0  0  0  0  0  0  0  0
    6.0700   -9.5762  -11.5476 N   0  0  0  0  0  0  0  0  0  0  0  0
   11.0275   -6.6077  -12.2109 C   0  0  0  0  0  0  0  0  0  0  0  0
    9.5695   -6.4654  -11.9469 C   0  0  0  0  0  0  0  0  0  0  0  0
   13.2452   -7.1355  -12.5811 C   0  0  0  0  0  0  0  0  0  0  0  0
    8.7310   -7.7102  -11.7242 C   0  0  0  0  0  0  0  0  0  0  0  0
    7.2239   -7.4792  -11.6968 C   0  0  1  0  0  0  0  0  0  0  0  0
    6.8393   -6.1095  -12.1784 C   0  0  0  0  0  0  0  0  0  0  0  0
    6.5157   -8.5659  -12.4916 C   0  0  0  0  0  0  0  0  0  0  0  0
   11.6746   -9.0716  -12.1209 C   0  0  0  0  0  0  0  0  0  0  0  0
    4.9771  -10.3245  -12.1539 C   0  0  0  0  0  0  0  0  0  0  0  0
    7.1937  -10.4645  -11.2953 C   0  0  0  0  0  0  0  0  0  0  0  0
   12.3619   -9.7218  -10.9077 C   0  0  0  0  0  0  0  0  0  0  0  0
   11.9004  -11.1884  -10.8175 C   0  0  0  0  0  0  0  0  0  0  0  0
   10.8911  -12.7481   -9.2709 C   0  0  0  0  0  0  0  0  0  0  0  0
  1 23  1  0  0  0  0
  1 24  1  0  0  0  0
  1  2  1  0  0  0  0
  3  4  1  0  0  0  0
  3 17  1  0  0  0  0
  4  6  2  0  0  0  0
  4 13  1  0  0  0  0
  5 10  1  0  0  0  0
  5 14  2  0  0  0  0
  6  8  1  0  0  0  0
  7 12  1  0  0  0  0
  7 14  1  0  0  0  0
  7 19  1  0  0  0  0
  8 10  2  0  0  0  0
  9 14  1  0  0  0  0
 10 12  1  0  0  0  0
 11 18  1  0  0  0  0
 11 20  1  0  0  0  0
 11 21  1  0  0  0  0
 12 13  2  0  0  0  0
 13 15  1  0  0  0  0
 15 16  1  0  0  0  0
 16 17  1  0  0  0  0
 16 18  1  6  0  0  0
 19 22  1  0  0  0  0
 22 23  1  0  0  0  0
M  END
>  <CHROM.1>
-86.14752137,-114.00990079,157.95479193,96.84161678,178.05399918,-148.52731762
10.05138350,-8.14253964,-11.61083013,0.73981760,0.04339054,2.81621145

>  <Name>
ligand

>  <RI>
0

>  <Rbt.Current_Directory>
/home/itssahil/PROJECTS/Mol_Feturizer/New_Systems/rnas/3TZR

>  <Rbt.Executable>
rbdock ($Id: //depot/dev/client3/rdock/2013.1/src/exe/rbdock.cxx#4 $)

>  <Rbt.Library>
libRbt.so (2013.1, Build901 2013/11/27)

>  <Rbt.Parameter_File>
/export/apps/rDock/src/rDock_2013.1_src/data/scripts/dock_solv.prm

>  <Rbt.Receptor>
prm/pocket_docking_6.prm

>  <SCORE>
-30.9586

>  <SCORE.INTER>
-23.2655

>  <SCORE.INTER.CONST>
1

>  <SCORE.INTER.POLAR>
-0.72111

>  <SCORE.INTER.ROT>
6

>  <SCORE.INTER.SOLV>
23.5358

>  <SCORE.INTER.VDW>
-28.5519

>  <SCORE.INTER.norm>
-0.969396

>  <SCORE.INTRA>
-7.69311

>  <SCORE.INTRA.DIHEDRAL>
4.43728

>  <SCORE.INTRA.DIHEDRAL.0>
4.94008

>  <SCORE.INTRA.POLAR>
0

>  <SCORE.INTRA.POLAR.0>
0

>  <SCORE.INTRA.REPUL>
0

>  <SCORE.INTRA.REPUL.0>
0

>  <SCORE.INTRA.SOLV>
0.516283

>  <SCORE.INTRA.SOLV.lig_0>
-31.4704

>  <SCORE.INTRA.VDW>
-10.1699

>  <SCORE.INTRA.VDW.0>
10.2807

>  <SCORE.INTRA.norm>
-0.320546

>  <SCORE.RESTR>
0

>  <SCORE.RESTR.CAVITY>
0

>  <SCORE.RESTR.norm>
0

>  <SCORE.SYSTEM>
0

>  <SCORE.SYSTEM.CONST>
0

>  <SCORE.SYSTEM.DIHEDRAL>
0

>  <SCORE.SYSTEM.SOLV>
0

>  <SCORE.SYSTEM.norm>
0

>  <SCORE.heavy>
24

>  <SCORE.norm>
-1.28994

>  <RMSD>
5.208

$$$$
ligand
 OpenBabel11021811493D
libRbt.so/2013.1/901 2013/11/27
 24 26  0  0  0  0  0  0  0  0999 V2000
   12.3360  -11.6561  -11.7769 N   0  0  0  0  0  0  0  0  0  0  0  0
   12.6089  -13.0142  -12.2189 C   0  0  0  0  0  0  0  0  0  0  0  0
    7.3134   -4.8024  -11.6562 O   0  0  0  0  0  0  0  0  0  0  0  0
    8.6783   -4.8372  -11.9084 C   0  0  0  0  0  0  0  0  0  0  0  0
   12.8831   -5.1241  -12.6125 N   0  0  0  0  0  0  0  0  0  0  0  0
    9.4641   -3.5745  -12.1425 C   0  0  0  0  0  0  0  0  0  0  0  0
   11.7895   -7.0595  -12.2905 N   0  0  0  0  0  0  0  0  0  0  0  0
   10.8773   -3.5813  -12.3770 C   0  0  0  0  0  0  0  0  0  0  0  0
   14.2552   -7.2028  -12.7107 N   0  0  0  0  0  0  0  0  0  0  0  0
   11.5219   -4.8687  -12.3948 C   0  0  0  0  0  0  0  0  0  0  0  0
    7.0843   -9.5405  -12.1209 N   0  0  0  0  0  0  0  0  0  0  0  0
   10.7805   -6.0839  -12.1880 C   0  0  0  0  0  0  0  0  0  0  0  0
    9.3145   -6.0285  -11.9361 C   0  0  0  0  0  0  0  0  0  0  0  0
   13.0290   -6.4788  -12.5376 C   0  0  0  0  0  0  0  0  0  0  0  0
    8.5512   -7.3203  -11.7106 C   0  0  0  0  0  0  0  0  0  0  0  0
    7.0327   -7.1808  -11.6962 C   0  0  1  0  0  0  0  0  0  0  0  0
    6.5697   -5.8403  -12.1907 C   0  0  0  0  0  0  0  0  0  0  0  0
    6.3980   -8.3139  -12.4883 C   0  0  0  0  0  0  0  0  0  0  0  0
   11.5749   -8.5034  -12.0750 C   0  0  0  0  0  0  0  0  0  0  0  0
    6.4966  -10.0469  -10.8880 C   0  0  0  0  0  0  0  0  0  0  0  0
    6.8735  -10.4978  -13.1956 C   0  0  0  0  0  0  0  0  0  0  0  0
   12.4742   -9.4359  -12.9049 C   0  0  0  0  0  0  0  0  0  0  0  0
   11.8484  -10.8432  -12.9002 C   0  0  0  0  0  0  0  0  0  0  0  0
   11.3515  -11.7187  -10.7025 C   0  0  0  0  0  0  0  0  0  0  0  0
  1 23  1  0  0  0  0
  1 24  1  0  0  0  0
  1  2  1  0  0  0  0
  3  4  1  0  0  0  0
  3 17  1  0  0  0  0
  4  6  2  0  0  0  0
  4 13  1  0  0  0  0
  5 10  1  0  0  0  0
  5 14  2  0  0  0  0
  6  8  1  0  0  0  0
  7 12  1  0  0  0  0
  7 14  1  0  0  0  0
  7 19  1  0  0  0  0
  8 10  2  0  0  0  0
  9 14  1  0  0  0  0
 10 12  1  0  0  0  0
 11 18  1  0  0  0  0
 11 20  1  0  0  0  0
 11 21  1  0  0  0  0
 12 13  2  0  0  0  0
 13 15  1  0  0  0  0
 15 16  1  0  0  0  0
 16 17  1  0  0  0  0
 16 18  1  6  0  0  0
 19 22  1  0  0  0  0
 22 23  1  0  0  0  0
M  END
>  <CHROM.1>
-138.01990685,148.57041456,83.10522818,43.69564095,-162.71629627,-89.96666921
10.00905020,-7.78876923,-12.14177075,-1.03894246,0.07393706,-0.03431599

>  <Name>
ligand

>  <RI>
144

>  <Rbt.Current_Directory>
/home/itssahil/PROJECTS/Mol_Feturizer/New_Systems/rnas/3TZR

>  <Rbt.Executable>
rbdock ($Id: //depot/dev/client3/rdock/2013.1/src/exe/rbdock.cxx#4 $)

>  <Rbt.Library>
libRbt.so (2013.1, Build901 2013/11/27)

>  <Rbt.Parameter_File>
/export/apps/rDock/src/rDock_2013.1_src/data/scripts/dock_solv.prm

>  <Rbt.Receptor>
prm/pocket_docking_8.prm

>  <SCORE>
-23.0784

>  <SCORE.INTER>
-16.3096

>  <SCORE.INTER.CONST>
1

>  <SCORE.INTER.POLAR>
0

>  <SCORE.INTER.ROT>
6

>  <SCORE.INTER.SOLV>
25.1476

>  <SCORE.INTER.VDW>
-26.8556

>  <SCORE.INTER.norm>
-0.679568

>  <SCORE.INTRA>
-6.88035

>  <SCORE.INTRA.DIHEDRAL>
3.56543

>  <SCORE.INTRA.DIHEDRAL.0>
4.94008

>  <SCORE.INTRA.POLAR>
0

>  <SCORE.INTRA.POLAR.0>
0

>  <SCORE.INTRA.REPUL>
0

>  <SCORE.INTRA.REPUL.0>
0

>  <SCORE.INTRA.SOLV>
1.41477

>  <SCORE.INTRA.SOLV.lig_0>
-31.4704

>  <SCORE.INTRA.VDW>
-9.37044

>  <SCORE.INTRA.VDW.0>
10.2807

>  <SCORE.INTRA.norm>
-0.286681

>  <SCORE.RESTR>
0.111554

>  <SCORE.RESTR.CAVITY>
0.111554

>  <SCORE.RESTR.norm>
0.00464809

>  <SCORE.SYSTEM>
0

>  <SCORE.SYSTEM.CONST>
0

>  <SCORE.SYSTEM.DIHEDRAL>
0

>  <SCORE.SYSTEM.SOLV>
0

>  <SCORE.SYSTEM.norm>
0

>  <SCORE.heavy>
24

>  <SCORE.norm>
-0.961601

>  <RMSD>
5.216

$$$$
ligand
 OpenBabel11021811493D
libRbt.so/2013.1/901 2013/11/27
 24 26  0  0  0  0  0  0  0  0999 V2000
   11.4982  -12.4211  -11.2086 N   0  0  0  0  0  0  0  0  0  0  0  0
   11.5016  -12.2840   -9.7610 C   0  0  0  0  0  0  0  0  0  0  0  0
    7.6922   -5.6679  -11.6559 O   0  0  0  0  0  0  0  0  0  0  0  0
    9.0512   -5.7617  -11.9244 C   0  0  0  0  0  0  0  0  0  0  0  0
   13.2369   -6.2175  -12.6534 N   0  0  0  0  0  0  0  0  0  0  0  0
    9.8498   -4.5594  -12.3530 C   0  0  0  0  0  0  0  0  0  0  0  0
   12.1230   -8.0674  -12.0348 N   0  0  0  0  0  0  0  0  0  0  0  0
   11.2578   -4.6236  -12.6089 C   0  0  0  0  0  0  0  0  0  0  0  0
   14.5776   -8.3111  -12.4731 N   0  0  0  0  0  0  0  0  0  0  0  0
   11.8840   -5.9107  -12.4511 C   0  0  0  0  0  0  0  0  0  0  0  0
    6.1132  -10.0027  -10.8666 N   0  0  0  0  0  0  0  0  0  0  0  0
   11.1299   -7.0705  -12.0572 C   0  0  0  0  0  0  0  0  0  0  0  0
    9.6701   -6.9548  -11.7902 C   0  0  0  0  0  0  0  0  0  0  0  0
   13.3653   -7.5493  -12.3853 C   0  0  0  0  0  0  0  0  0  0  0  0
    8.8935   -8.1874  -11.3662 C   0  0  0  0  0  0  0  0  0  0  0  0
    7.3777   -8.0221  -11.3455 C   0  0  1  0  0  0  0  0  0  0  0  0
    6.9238   -6.7598  -12.0211 C   0  0  0  0  0  0  0  0  0  0  0  0
    6.7117   -9.2471  -11.9536 C   0  0  0  0  0  0  0  0  0  0  0  0
   11.8927   -9.4611  -11.6084 C   0  0  0  0  0  0  0  0  0  0  0  0
    4.9046  -10.6469  -11.3627 C   0  0  0  0  0  0  0  0  0  0  0  0
    7.0753  -11.0128  -10.4549 C   0  0  0  0  0  0  0  0  0  0  0  0
   12.3866  -10.5412  -12.5862 C   0  0  0  0  0  0  0  0  0  0  0  0
   12.7084  -11.8138  -11.7806 C   0  0  0  0  0  0  0  0  0  0  0  0
   11.4172  -13.8418  -11.5288 C   0  0  0  0  0  0  0  0  0  0  0  0
  1 23  1  0  0  0  0
  1 24  1  0  0  0  0
  1  2  1  0  0  0  0
  3  4  1  0  0  0  0
  3 17  1  0  0  0  0
  4  6  2  0  0  0  0
  4 13  1  0  0  0  0
  5 10  1  0  0  0  0
  5 14  2  0  0  0  0
  6  8  1  0  0  0  0
  7 12  1  0  0  0  0
  7 14  1  0  0  0  0
  7 19  1  0  0  0  0
  8 10  2  0  0  0  0
  9 14  1  0  0  0  0
 10 12  1  0  0  0  0
 11 18  1  0  0  0  0
 11 20  1  0  0  0  0
 11 21  1  0  0  0  0
 12 13  2  0  0  0  0
 13 15  1  0  0  0  0
 15 16  1  0  0  0  0
 16 17  1  0  0  0  0
 16 18  1  6  0  0  0
 19 22  1  0  0  0  0
 22 23  1  0  0  0  0
M  END
>  <CHROM.1>
-111.15349513,129.22750550,147.19553069,106.89778844,153.00502941,67.36537311
10.07868920,-8.67186902,-11.72813661,0.03264957,-0.11702383,2.96879308

>  <Name>
ligand

>  <RI>
144

>  <Rbt.Current_Directory>
/home/itssahil/PROJECTS/Mol_Feturizer/New_Systems/rnas/3TZR

>  <Rbt.Executable>
rbdock ($Id: //depot/dev/client3/rdock/2013.1/src/exe/rbdock.cxx#4 $)

>  <Rbt.Library>
libRbt.so (2013.1, Build901 2013/11/27)

>  <Rbt.Parameter_File>
/export/apps/rDock/src/rDock_2013.1_src/data/scripts/dock_solv.prm

>  <Rbt.Receptor>
prm/pocket_docking_8.prm

>  <SCORE>
-24.7326

>  <SCORE.INTER>
-17.6771

>  <SCORE.INTER.CONST>
1

>  <SCORE.INTER.POLAR>
0

>  <SCORE.INTER.ROT>
6

>  <SCORE.INTER.SOLV>
21.7268

>  <SCORE.INTER.VDW>
-26.627

>  <SCORE.INTER.norm>
-0.736544

>  <SCORE.INTRA>
-7.05551

>  <SCORE.INTRA.DIHEDRAL>
7.03173

>  <SCORE.INTRA.DIHEDRAL.0>
4.94008

>  <SCORE.INTRA.POLAR>
0

>  <SCORE.INTRA.POLAR.0>
0

>  <SCORE.INTRA.REPUL>
0

>  <SCORE.INTRA.REPUL.0>
0

>  <SCORE.INTRA.SOLV>
1.42028

>  <SCORE.INTRA.SOLV.lig_0>
-31.4704

>  <SCORE.INTRA.VDW>
-11.2815

>  <SCORE.INTRA.VDW.0>
10.2807

>  <SCORE.INTRA.norm>
-0.29398

>  <SCORE.RESTR>
0

>  <SCORE.RESTR.CAVITY>
0

>  <SCORE.RESTR.norm>
0

>  <SCORE.SYSTEM>
0

>  <SCORE.SYSTEM.CONST>
0

>  <SCORE.SYSTEM.DIHEDRAL>
0

>  <SCORE.SYSTEM.SOLV>
0

>  <SCORE.SYSTEM.norm>
0

>  <SCORE.heavy>
24

>  <SCORE.norm>
-1.03052

>  <RMSD>
5.255

$$$$
ligand
 OpenBabel11021811493D
libRbt.so/2013.1/901 2013/11/27
 24 26  0  0  0  0  0  0  0  0999 V2000
   13.2954  -10.9304  -12.5664 N   0  0  0  0  0  0  0  0  0  0  0  0
   13.2399  -12.1569  -11.7874 C   0  0  0  0  0  0  0  0  0  0  0  0
    7.1119   -6.5879  -10.9005 O   0  0  0  0  0  0  0  0  0  0  0  0
    8.1901   -5.9476  -11.4965 C   0  0  0  0  0  0  0  0  0  0  0  0
   11.6267   -4.0940  -13.2321 N   0  0  0  0  0  0  0  0  0  0  0  0
    8.0379   -4.5983  -12.1470 C   0  0  0  0  0  0  0  0  0  0  0  0
   11.9441   -6.1125  -12.2992 N   0  0  0  0  0  0  0  0  0  0  0  0
    9.1398   -3.9044  -12.7439 C   0  0  0  0  0  0  0  0  0  0  0  0
   13.9437   -5.0083  -13.3282 N   0  0  0  0  0  0  0  0  0  0  0  0
   10.4165   -4.5695  -12.7082 C   0  0  0  0  0  0  0  0  0  0  0  0
    7.1886  -10.7408  -10.3117 N   0  0  0  0  0  0  0  0  0  0  0  0
   10.5726   -5.8653  -12.1035 C   0  0  0  0  0  0  0  0  0  0  0  0
    9.4017   -6.5446  -11.4845 C   0  0  0  0  0  0  0  0  0  0  0  0
   12.5570   -5.0557  -12.9640 C   0  0  0  0  0  0  0  0  0  0  0  0
    9.5881   -7.9069  -10.8430 C   0  0  0  0  0  0  0  0  0  0  0  0
    8.2984   -8.6194  -10.4500 C   0  0  1  0  0  0  0  0  0  0  0  0
    7.0763   -7.9657  -11.0291 C   0  0  0  0  0  0  0  0  0  0  0  0
    8.3767  -10.0889  -10.8352 C   0  0  0  0  0  0  0  0  0  0  0  0
   12.6565   -7.2987  -11.7866 C   0  0  0  0  0  0  0  0  0  0  0  0
    6.4325  -11.2893  -11.4295 C   0  0  0  0  0  0  0  0  0  0  0  0
    7.6296  -11.8186   -9.4403 C   0  0  0  0  0  0  0  0  0  0  0  0
   12.3717   -8.6138  -12.5325 C   0  0  0  0  0  0  0  0  0  0  0  0
   12.9755   -9.7734  -11.7183 C   0  0  0  0  0  0  0  0  0  0  0  0
   14.6334  -10.8155  -13.1355 C   0  0  0  0  0  0  0  0  0  0  0  0
  1 23  1  0  0  0  0
  1 24  1  0  0  0  0
  1  2  1  0  0  0  0
  3  4  1  0  0  0  0
  3 17  1  0  0  0  0
  4  6  2  0  0  0  0
  4 13  1  0  0  0  0
  5 10  1  0  0  0  0
  5 14  2  0  0  0  0
  6  8  1  0  0  0  0
  7 12  1  0  0  0  0
  7 14  1  0  0  0  0
  7 19  1  0  0  0  0
  8 10  2  0  0  0  0
  9 14  1  0  0  0  0
 10 12  1  0  0  0  0
 11 18  1  0  0  0  0
 11 20  1  0  0  0  0
 11 21  1  0  0  0  0
 12 13  2  0  0  0  0
 13 15  1  0  0  0  0
 15 16  1  0  0  0  0
 16 17  1  0  0  0  0
 16 18  1  6  0  0  0
 19 22  1  0  0  0  0
 22 23  1  0  0  0  0
M  END
>  <CHROM.1>
-152.79919882,74.06853702,118.82364129,174.05426744,-169.54638538,-154.50754542
10.29088677,-7.90935401,-11.77860440,-0.85685219,-0.28039017,2.95412042

>  <Name>
ligand

>  <RI>
0

>  <Rbt.Current_Directory>
/home/itssahil/PROJECTS/Mol_Feturizer/New_Systems/rnas/3TZR

>  <Rbt.Executable>
rbdock ($Id: //depot/dev/client3/rdock/2013.1/src/exe/rbdock.cxx#4 $)

>  <Rbt.Library>
libRbt.so (2013.1, Build901 2013/11/27)

>  <Rbt.Parameter_File>
/export/apps/rDock/src/rDock_2013.1_src/data/scripts/dock_solv.prm

>  <Rbt.Receptor>
prm/pocket_docking_7.prm

>  <SCORE>
-25.2518

>  <SCORE.INTER>
-15.638

>  <SCORE.INTER.CONST>
1

>  <SCORE.INTER.POLAR>
0

>  <SCORE.INTER.ROT>
6

>  <SCORE.INTER.SOLV>
22.6164

>  <SCORE.INTER.VDW>
-25.5642

>  <SCORE.INTER.norm>
-0.651584

>  <SCORE.INTRA>
-10.1179

>  <SCORE.INTRA.DIHEDRAL>
2.48899

>  <SCORE.INTRA.DIHEDRAL.0>
4.94008

>  <SCORE.INTRA.POLAR>
0

>  <SCORE.INTRA.POLAR.0>
0

>  <SCORE.INTRA.REPUL>
0

>  <SCORE.INTRA.REPUL.0>
0

>  <SCORE.INTRA.SOLV>
-0.317493

>  <SCORE.INTRA.SOLV.lig_0>
-31.4704

>  <SCORE.INTRA.VDW>
-11.2036

>  <SCORE.INTRA.VDW.0>
10.2807

>  <SCORE.INTRA.norm>
-0.421579

>  <SCORE.RESTR>
0.504158

>  <SCORE.RESTR.CAVITY>
0.504158

>  <SCORE.RESTR.norm>
0.0210066

>  <SCORE.SYSTEM>
0

>  <SCORE.SYSTEM.CONST>
0

>  <SCORE.SYSTEM.DIHEDRAL>
0

>  <SCORE.SYSTEM.SOLV>
0

>  <SCORE.SYSTEM.norm>
0

>  <SCORE.heavy>
24

>  <SCORE.norm>
-1.05216

>  <RMSD>
5.263

$$$$
ligand
 OpenBabel11021811493D
libRbt.so/2013.1/901 2013/11/27
 24 26  0  0  0  0  0  0  0  0999 V2000
   11.7525  -11.6965   -9.5376 N   0  0  0  0  0  0  0  0  0  0  0  0
   12.4281  -11.9908   -8.2841 C   0  0  0  0  0  0  0  0  0  0  0  0
    9.6493   -4.5074  -12.0898 O   0  0  0  0  0  0  0  0  0  0  0  0
   10.8030   -5.2440  -12.3225 C   0  0  0  0  0  0  0  0  0  0  0  0
   14.2797   -7.6529  -12.9292 N   0  0  0  0  0  0  0  0  0  0  0  0
   12.0641   -4.5885  -12.8193 C   0  0  0  0  0  0  0  0  0  0  0  0
   12.4403   -8.7181  -12.2030 N   0  0  0  0  0  0  0  0  0  0  0  0
   13.2750   -5.3211  -13.0405 C   0  0  0  0  0  0  0  0  0  0  0  0
   14.4900  -10.1107  -12.5713 N   0  0  0  0  0  0  0  0  0  0  0  0
   13.2299   -6.7362  -12.7778 C   0  0  0  0  0  0  0  0  0  0  0  0
    7.3935   -8.6258  -11.8891 N   0  0  0  0  0  0  0  0  0  0  0  0
   12.0275   -7.3775  -12.3175 C   0  0  0  0  0  0  0  0  0  0  0  0
   10.7949   -6.5746  -12.0901 C   0  0  0  0  0  0  0  0  0  0  0  0
   13.7753   -8.8670  -12.5637 C   0  0  0  0  0  0  0  0  0  0  0  0
    9.5391   -7.2674  -11.5952 C   0  0  0  0  0  0  0  0  0  0  0  0
    8.2764   -6.4126  -11.6181 C   0  0  1  0  0  0  0  0  0  0  0  0
    8.4544   -5.1376  -12.3917 C   0  0  0  0  0  0  0  0  0  0  0  0
    7.1063   -7.2259  -12.1505 C   0  0  0  0  0  0  0  0  0  0  0  0
   11.5922   -9.8077  -11.6827 C   0  0  0  0  0  0  0  0  0  0  0  0
    7.1182   -8.8992  -10.4850 C   0  0  0  0  0  0  0  0  0  0  0  0
    6.5069   -9.4177  -12.7273 C   0  0  0  0  0  0  0  0  0  0  0  0
   12.1009  -11.2322  -11.9633 C   0  0  0  0  0  0  0  0  0  0  0  0
   12.6949  -11.8002  -10.6607 C   0  0  0  0  0  0  0  0  0  0  0  0
   10.6460  -12.6350   -9.6870 C   0  0  0  0  0  0  0  0  0  0  0  0
  1 23  1  0  0  0  0
  1 24  1  0  0  0  0
  1  2  1  0  0  0  0
  3  4  1  0  0  0  0
  3 17  1  0  0  0  0
  4  6  2  0  0  0  0
  4 13  1  0  0  0  0
  5 10  1  0  0  0  0
  5 14  2  0  0  0  0
  6  8  1  0  0  0  0
  7 12  1  0  0  0  0
  7 14  1  0  0  0  0
  7 19  1  0  0  0  0
  8 10  2  0  0  0  0
  9 14  1  0  0  0  0
 10 12  1  0  0  0  0
 11 18  1  0  0  0  0
 11 20  1  0  0  0  0
 11 21  1  0  0  0  0
 12 13  2  0  0  0  0
 13 15  1  0  0  0  0
 15 16  1  0  0  0  0
 16 17  1  0  0  0  0
 16 18  1  6  0  0  0
 19 22  1  0  0  0  0
 22 23  1  0  0  0  0
M  END
>  <CHROM.1>
-168.76273084,165.46208875,78.08331240,25.44171176,104.43526341,52.66859545
10.85531646,-8.33709558,-11.71653789,1.02145052,-0.11307466,2.76417797

>  <Name>
ligand

>  <RI>
144

>  <Rbt.Current_Directory>
/home/itssahil/PROJECTS/Mol_Feturizer/New_Systems/rnas/3TZR

>  <Rbt.Executable>
rbdock ($Id: //depot/dev/client3/rdock/2013.1/src/exe/rbdock.cxx#4 $)

>  <Rbt.Library>
libRbt.so (2013.1, Build901 2013/11/27)

>  <Rbt.Parameter_File>
/export/apps/rDock/src/rDock_2013.1_src/data/scripts/dock_solv.prm

>  <Rbt.Receptor>
prm/blind_docking_60.prm

>  <SCORE>
-29.1687

>  <SCORE.INTER>
-28.2449

>  <SCORE.INTER.CONST>
1

>  <SCORE.INTER.POLAR>
-0.72111

>  <SCORE.INTER.ROT>
6

>  <SCORE.INTER.SOLV>
18.6739

>  <SCORE.INTER.VDW>
-30.2509

>  <SCORE.INTER.norm>
-1.17687

>  <SCORE.INTRA>
-0.923823

>  <SCORE.INTRA.DIHEDRAL>
4.9593

>  <SCORE.INTRA.DIHEDRAL.0>
4.94008

>  <SCORE.INTRA.POLAR>
0

>  <SCORE.INTRA.POLAR.0>
0

>  <SCORE.INTRA.REPUL>
0

>  <SCORE.INTRA.REPUL.0>
0

>  <SCORE.INTRA.SOLV>
3.04567

>  <SCORE.INTRA.SOLV.lig_0>
-31.4704

>  <SCORE.INTRA.VDW>
-4.92631

>  <SCORE.INTRA.VDW.0>
10.2807

>  <SCORE.INTRA.norm>
-0.0384926

>  <SCORE.RESTR>
0

>  <SCORE.RESTR.CAVITY>
0

>  <SCORE.RESTR.norm>
0

>  <SCORE.SYSTEM>
0

>  <SCORE.SYSTEM.CONST>
0

>  <SCORE.SYSTEM.DIHEDRAL>
0

>  <SCORE.SYSTEM.SOLV>
0

>  <SCORE.SYSTEM.norm>
0

>  <SCORE.heavy>
24

>  <SCORE.norm>
-1.21536

>  <RMSD>
5.266

$$$$
ligand
 OpenBabel11021811493D
libRbt.so/2013.1/901 2013/11/27
 24 26  0  0  0  0  0  0  0  0999 V2000
   12.2623  -12.2911   -9.3760 N   0  0  0  0  0  0  0  0  0  0  0  0
   13.3046  -13.2492   -9.7078 C   0  0  0  0  0  0  0  0  0  0  0  0
    7.9443   -5.3307  -11.6978 O   0  0  0  0  0  0  0  0  0  0  0  0
    9.2945   -5.5479  -11.9378 C   0  0  0  0  0  0  0  0  0  0  0  0
   13.4306   -6.3931  -12.5990 N   0  0  0  0  0  0  0  0  0  0  0  0
   10.2376   -4.4039  -12.1998 C   0  0  0  0  0  0  0  0  0  0  0  0
   12.0953   -8.1619  -12.2331 N   0  0  0  0  0  0  0  0  0  0  0  0
   11.6392   -4.5991  -12.4224 C   0  0  0  0  0  0  0  0  0  0  0  0
   14.5239   -8.6330  -12.6288 N   0  0  0  0  0  0  0  0  0  0  0  0
   12.1127   -5.9588  -12.3996 C   0  0  0  0  0  0  0  0  0  0  0  0
    6.0596   -9.6579  -11.4681 N   0  0  0  0  0  0  0  0  0  0  0  0
   11.2199   -7.0621  -12.1657 C   0  0  0  0  0  0  0  0  0  0  0  0
    9.7721   -6.8114  -11.9275 C   0  0  0  0  0  0  0  0  0  0  0  0
   13.4003   -7.7527  -12.4857 C   0  0  0  0  0  0  0  0  0  0  0  0
    8.8477   -7.9874  -11.6730 C   0  0  0  0  0  0  0  0  0  0  0  0
    7.3598   -7.6534  -11.6750 C   0  0  1  0  0  0  0  0  0  0  0  0
    7.0757   -6.2790  -12.2099 C   0  0  0  0  0  0  0  0  0  0  0  0
    6.5881   -8.7173  -12.4410 C   0  0  0  0  0  0  0  0  0  0  0  0
   11.6955   -9.5595  -11.9799 C   0  0  0  0  0  0  0  0  0  0  0  0
    4.9514  -10.3798  -12.0786 C   0  0  0  0  0  0  0  0  0  0  0  0
    7.1274  -10.5872  -11.1340 C   0  0  0  0  0  0  0  0  0  0  0  0
   12.3949  -10.2418  -10.7916 C   0  0  0  0  0  0  0  0  0  0  0  0
   11.7675  -11.6345  -10.5944 C   0  0  0  0  0  0  0  0  0  0  0  0
   11.1927  -13.0054   -8.6882 C   0  0  0  0  0  0  0  0  0  0  0  0
  1 23  1  0  0  0  0
  1 24  1  0  0  0  0
  1  2  1  0  0  0  0
  3  4  1  0  0  0  0
  3 17  1  0  0  0  0
  4  6  2  0  0  0  0
  4 13  1  0  0  0  0
  5 10  1  0  0  0  0
  5 14  2  0  0  0  0
  6  8  1  0  0  0  0
  7 12  1  0  0  0  0
  7 14  1  0  0  0  0
  7 19  1  0  0  0  0
  8 10  2  0  0  0  0
  9 14  1  0  0  0  0
 10 12  1  0  0  0  0
 11 18  1  0  0  0  0
 11 20  1  0  0  0  0
 11 21  1  0  0  0  0
 12 13  2  0  0  0  0
 13 15  1  0  0  0  0
 15 16  1  0  0  0  0
 16 17  1  0  0  0  0
 16 18  1  6  0  0  0
 19 22  1  0  0  0  0
 22 23  1  0  0  0  0
M  END
>  <CHROM.1>
-99.61761392,-118.01469199,159.68332330,97.01643523,174.79403757,-172.96187724
10.20720296,-8.54092374,-11.56378478,0.78871006,0.01848945,2.80872207

>  <Name>
ligand

>  <RI>
0

>  <Rbt.Current_Directory>
/home/itssahil/PROJECTS/Mol_Feturizer/New_Systems/rnas/3TZR

>  <Rbt.Executable>
rbdock ($Id: //depot/dev/client3/rdock/2013.1/src/exe/rbdock.cxx#4 $)

>  <Rbt.Library>
libRbt.so (2013.1, Build901 2013/11/27)

>  <Rbt.Parameter_File>
/export/apps/rDock/src/rDock_2013.1_src/data/scripts/dock_solv.prm

>  <Rbt.Receptor>
prm/pocket_docking_7.prm

>  <SCORE>
-28.0986

>  <SCORE.INTER>
-19.4164

>  <SCORE.INTER.CONST>
1

>  <SCORE.INTER.POLAR>
0

>  <SCORE.INTER.ROT>
6

>  <SCORE.INTER.SOLV>
21.109

>  <SCORE.INTER.VDW>
-27.5806

>  <SCORE.INTER.norm>
-0.809017

>  <SCORE.INTRA>
-8.68223

>  <SCORE.INTRA.DIHEDRAL>
2.50814

>  <SCORE.INTRA.DIHEDRAL.0>
4.94008

>  <SCORE.INTRA.POLAR>
0

>  <SCORE.INTRA.POLAR.0>
0

>  <SCORE.INTRA.REPUL>
0

>  <SCORE.INTRA.REPUL.0>
0

>  <SCORE.INTRA.SOLV>
0.584447

>  <SCORE.INTRA.SOLV.lig_0>
-31.4704

>  <SCORE.INTRA.VDW>
-10.2285

>  <SCORE.INTRA.VDW.0>
10.2807

>  <SCORE.INTRA.norm>
-0.36176

>  <SCORE.RESTR>
0

>  <SCORE.RESTR.CAVITY>
0

>  <SCORE.RESTR.norm>
0

>  <SCORE.SYSTEM>
0

>  <SCORE.SYSTEM.CONST>
0

>  <SCORE.SYSTEM.DIHEDRAL>
0

>  <SCORE.SYSTEM.SOLV>
0

>  <SCORE.SYSTEM.norm>
0

>  <SCORE.heavy>
24

>  <SCORE.norm>
-1.17078

>  <RMSD>
5.280

$$$$
ligand
 OpenBabel11021811493D
libRbt.so/2013.1/901 2013/11/27
 24 26  0  0  0  0  0  0  0  0999 V2000
   12.3514  -11.9821  -10.2016 N   0  0  0  0  0  0  0  0  0  0  0  0
   13.5406  -12.7735   -9.9303 C   0  0  0  0  0  0  0  0  0  0  0  0
    7.8026   -5.3834  -11.7707 O   0  0  0  0  0  0  0  0  0  0  0  0
    9.1638   -5.5640  -11.9762 C   0  0  0  0  0  0  0  0  0  0  0  0
   13.3409   -6.2873  -12.5121 N   0  0  0  0  0  0  0  0  0  0  0  0
   10.0570   -4.4151  -12.3623 C   0  0  0  0  0  0  0  0  0  0  0  0
   12.0830   -8.0624  -11.9534 N   0  0  0  0  0  0  0  0  0  0  0  0
   11.4684   -4.5695  -12.5529 C   0  0  0  0  0  0  0  0  0  0  0  0
   14.5346   -8.4631  -12.2783 N   0  0  0  0  0  0  0  0  0  0  0  0
   12.0026   -5.8943  -12.3715 C   0  0  0  0  0  0  0  0  0  0  0  0
    6.1657   -9.7692  -11.0587 N   0  0  0  0  0  0  0  0  0  0  0  0
   11.1581   -7.0037  -12.0177 C   0  0  0  0  0  0  0  0  0  0  0  0
    9.6979   -6.7946  -11.8183 C   0  0  0  0  0  0  0  0  0  0  0  0
   13.3709   -7.6250  -12.2438 C   0  0  0  0  0  0  0  0  0  0  0  0
    8.8248   -7.9752  -11.4359 C   0  0  0  0  0  0  0  0  0  0  0  0
    7.3234   -7.7127  -11.4849 C   0  0  1  0  0  0  0  0  0  0  0  0
    6.9834   -6.4231  -12.1756 C   0  0  0  0  0  0  0  0  0  0  0  0
    6.6091   -8.8917  -12.1282 C   0  0  0  0  0  0  0  0  0  0  0  0
   11.7440   -9.4389  -11.5439 C   0  0  0  0  0  0  0  0  0  0  0  0
    5.0045  -10.5150  -11.5249 C   0  0  0  0  0  0  0  0  0  0  0  0
    7.2552  -10.6875  -10.7668 C   0  0  0  0  0  0  0  0  0  0  0  0
   12.5512  -10.5514  -12.2349 C   0  0  0  0  0  0  0  0  0  0  0  0
   12.1097  -11.9058  -11.6494 C   0  0  0  0  0  0  0  0  0  0  0  0
   11.2272  -12.6020   -9.5094 C   0  0  0  0  0  0  0  0  0  0  0  0
  1 23  1  0  0  0  0
  1 24  1  0  0  0  0
  1  2  1  0  0  0  0
  3  4  1  0  0  0  0
  3 17  1  0  0  0  0
  4  6  2  0  0  0  0
  4 13  1  0  0  0  0
  5 10  1  0  0  0  0
  5 14  2  0  0  0  0
  6  8  1  0  0  0  0
  7 12  1  0  0  0  0
  7 14  1  0  0  0  0
  7 19  1  0  0  0  0
  8 10  2  0  0  0  0
  9 14  1  0  0  0  0
 10 12  1  0  0  0  0
 11 18  1  0  0  0  0
 11 20  1  0  0  0  0
 11 21  1  0  0  0  0
 12 13  2  0  0  0  0
 13 15  1  0  0  0  0
 15 16  1  0  0  0  0
 16 17  1  0  0  0  0
 16 18  1  6  0  0  0
 19 22  1  0  0  0  0
 22 23  1  0  0  0  0
M  END
>  <CHROM.1>
-102.33264946,147.09236328,153.73714161,94.48949045,177.70917395,-60.32471626
10.21561387,-8.51474226,-11.60871480,0.55999119,-0.03940295,2.87946687

>  <Name>
ligand

>  <RI>
144

>  <Rbt.Current_Directory>
/home/itssahil/PROJECTS/Mol_Feturizer/New_Systems/rnas/3TZR

>  <Rbt.Executable>
rbdock ($Id: //depot/dev/client3/rdock/2013.1/src/exe/rbdock.cxx#4 $)

>  <Rbt.Library>
libRbt.so (2013.1, Build901 2013/11/27)

>  <Rbt.Parameter_File>
/export/apps/rDock/src/rDock_2013.1_src/data/scripts/dock_solv.prm

>  <Rbt.Receptor>
prm/blind_docking_60.prm

>  <SCORE>
-27.3832

>  <SCORE.INTER>
-19.1975

>  <SCORE.INTER.CONST>
1

>  <SCORE.INTER.POLAR>
0

>  <SCORE.INTER.ROT>
6

>  <SCORE.INTER.SOLV>
20.9446

>  <SCORE.INTER.VDW>
-27.3799

>  <SCORE.INTER.norm>
-0.799897

>  <SCORE.INTRA>
-8.18767

>  <SCORE.INTRA.DIHEDRAL>
2.284

>  <SCORE.INTRA.DIHEDRAL.0>
4.94008

>  <SCORE.INTRA.POLAR>
0

>  <SCORE.INTRA.POLAR.0>
0

>  <SCORE.INTRA.REPUL>
0

>  <SCORE.INTRA.REPUL.0>
0

>  <SCORE.INTRA.SOLV>
1.4749

>  <SCORE.INTRA.SOLV.lig_0>
-31.4704

>  <SCORE.INTRA.VDW>
-10.0671

>  <SCORE.INTRA.VDW.0>
10.2807

>  <SCORE.INTRA.norm>
-0.341153

>  <SCORE.RESTR>
0.00196462

>  <SCORE.RESTR.CAVITY>
0.00196462

>  <SCORE.RESTR.norm>
8.1859e-05

>  <SCORE.SYSTEM>
0

>  <SCORE.SYSTEM.CONST>
0

>  <SCORE.SYSTEM.DIHEDRAL>
0

>  <SCORE.SYSTEM.SOLV>
0

>  <SCORE.SYSTEM.norm>
0

>  <SCORE.heavy>
24

>  <SCORE.norm>
-1.14097

>  <RMSD>
5.300

$$$$
ligand
 OpenBabel11021811493D
libRbt.so/2013.1/901 2013/11/27
 24 26  0  0  0  0  0  0  0  0999 V2000
   13.0604  -11.9523  -10.4802 N   0  0  0  0  0  0  0  0  0  0  0  0
   13.7056  -13.0097  -11.2418 C   0  0  0  0  0  0  0  0  0  0  0  0
    7.5135   -5.0036  -11.5698 O   0  0  0  0  0  0  0  0  0  0  0  0
    8.8722   -5.0926  -11.8416 C   0  0  0  0  0  0  0  0  0  0  0  0
   13.0500   -5.5495  -12.6139 N   0  0  0  0  0  0  0  0  0  0  0  0
    9.7160   -3.8599  -12.0295 C   0  0  0  0  0  0  0  0  0  0  0  0
   11.8671   -7.4426  -12.3640 N   0  0  0  0  0  0  0  0  0  0  0  0
   11.1244   -3.9241  -12.2829 C   0  0  0  0  0  0  0  0  0  0  0  0
   14.3180   -7.6853  -12.8231 N   0  0  0  0  0  0  0  0  0  0  0  0
   11.7054   -5.2390  -12.3668 C   0  0  0  0  0  0  0  0  0  0  0  0
    6.9254   -9.7177  -12.1157 N   0  0  0  0  0  0  0  0  0  0  0  0
   10.9080   -6.4251  -12.2046 C   0  0  0  0  0  0  0  0  0  0  0  0
    9.4493   -6.3107  -11.9309 C   0  0  0  0  0  0  0  0  0  0  0  0
   13.1305   -6.9117  -12.6015 C   0  0  0  0  0  0  0  0  0  0  0  0
    8.6266   -7.5731  -11.7531 C   0  0  0  0  0  0  0  0  0  0  0  0
    7.1169   -7.3615  -11.7122 C   0  0  1  0  0  0  0  0  0  0  0  0
    6.7143   -5.9792  -12.1402 C   0  0  0  0  0  0  0  0  0  0  0  0
    6.4190   -8.4256  -12.5456 C   0  0  0  0  0  0  0  0  0  0  0  0
   11.5848   -8.8827  -12.2104 C   0  0  0  0  0  0  0  0  0  0  0  0
    6.3427  -10.0337  -10.8187 C   0  0  0  0  0  0  0  0  0  0  0  0
    6.5010  -10.7023  -13.0986 C   0  0  0  0  0  0  0  0  0  0  0  0
   12.5379   -9.6465  -11.2749 C   0  0  0  0  0  0  0  0  0  0  0  0
   12.1984  -11.1466  -11.3566 C   0  0  0  0  0  0  0  0  0  0  0  0
   12.2920  -12.5718   -9.4064 C   0  0  0  0  0  0  0  0  0  0  0  0
  1 23  1  0  0  0  0
  1 24  1  0  0  0  0
  1  2  1  0  0  0  0
  3  4  1  0  0  0  0
  3 17  1  0  0  0  0
  4  6  2  0  0  0  0
  4 13  1  0  0  0  0
  5 10  1  0  0  0  0
  5 14  2  0  0  0  0
  6  8  1  0  0  0  0
  7 12  1  0  0  0  0
  7 14  1  0  0  0  0
  7 19  1  0  0  0  0
  8 10  2  0  0  0  0
  9 14  1  0  0  0  0
 10 12  1  0  0  0  0
 11 18  1  0  0  0  0
 11 20  1  0  0  0  0
 11 21  1  0  0  0  0
 12 13  2  0  0  0  0
 13 15  1  0  0  0  0
 15 16  1  0  0  0  0
 16 17  1  0  0  0  0
 16 18  1  6  0  0  0
 19 22  1  0  0  0  0
 22 23  1  0  0  0  0
M  END
>  <CHROM.1>
-125.78847019,-129.07644594,74.11574939,51.05324357,-173.72101503,-179.55973731
10.20285305,-8.07359228,-11.84212566,0.80766871,0.01196012,2.96652185

>  <Name>
ligand

>  <RI>
0

>  <Rbt.Current_Directory>
/home/itssahil/PROJECTS/Mol_Feturizer/New_Systems/rnas/3TZR

>  <Rbt.Executable>
rbdock ($Id: //depot/dev/client3/rdock/2013.1/src/exe/rbdock.cxx#4 $)

>  <Rbt.Library>
libRbt.so (2013.1, Build901 2013/11/27)

>  <Rbt.Parameter_File>
/export/apps/rDock/src/rDock_2013.1_src/data/scripts/dock_solv.prm

>  <Rbt.Receptor>
prm/pocket_docking_3.prm

>  <SCORE>
-28.8084

>  <SCORE.INTER>
-19.6887

>  <SCORE.INTER.CONST>
1

>  <SCORE.INTER.POLAR>
0

>  <SCORE.INTER.ROT>
6

>  <SCORE.INTER.SOLV>
23.9635

>  <SCORE.INTER.VDW>
-28.7137

>  <SCORE.INTER.norm>
-0.820364

>  <SCORE.INTRA>
-9.1197

>  <SCORE.INTRA.DIHEDRAL>
-0.515941

>  <SCORE.INTRA.DIHEDRAL.0>
4.94008

>  <SCORE.INTRA.POLAR>
0

>  <SCORE.INTRA.POLAR.0>
0

>  <SCORE.INTRA.REPUL>
0

>  <SCORE.INTRA.REPUL.0>
0

>  <SCORE.INTRA.SOLV>
1.08404

>  <SCORE.INTRA.SOLV.lig_0>
-31.4704

>  <SCORE.INTRA.VDW>
-9.40374

>  <SCORE.INTRA.VDW.0>
10.2807

>  <SCORE.INTRA.norm>
-0.379987

>  <SCORE.RESTR>
0

>  <SCORE.RESTR.CAVITY>
0

>  <SCORE.RESTR.norm>
0

>  <SCORE.SYSTEM>
0

>  <SCORE.SYSTEM.CONST>
0

>  <SCORE.SYSTEM.DIHEDRAL>
0

>  <SCORE.SYSTEM.SOLV>
0

>  <SCORE.SYSTEM.norm>
0

>  <SCORE.heavy>
24

>  <SCORE.norm>
-1.20035

>  <RMSD>
5.305

$$$$
ligand
 OpenBabel11021811493D
libRbt.so/2013.1/901 2013/11/27
 24 26  0  0  0  0  0  0  0  0999 V2000
   13.1360  -11.8976  -10.5233 N   0  0  0  0  0  0  0  0  0  0  0  0
   13.7111  -12.9861  -11.2970 C   0  0  0  0  0  0  0  0  0  0  0  0
    7.5415   -4.9388  -11.5930 O   0  0  0  0  0  0  0  0  0  0  0  0
    8.9002   -5.0312  -11.8635 C   0  0  0  0  0  0  0  0  0  0  0  0
   13.0778   -5.4977  -12.6308 N   0  0  0  0  0  0  0  0  0  0  0  0
    9.7454   -3.8006  -12.0594 C   0  0  0  0  0  0  0  0  0  0  0  0
   11.8928   -7.3878  -12.3686 N   0  0  0  0  0  0  0  0  0  0  0  0
   11.1538   -3.8681  -12.3117 C   0  0  0  0  0  0  0  0  0  0  0  0
   14.3436   -7.6362  -12.8249 N   0  0  0  0  0  0  0  0  0  0  0  0
   11.7334   -5.1841  -12.3864 C   0  0  0  0  0  0  0  0  0  0  0  0
    6.9613   -9.6549  -12.1195 N   0  0  0  0  0  0  0  0  0  0  0  0
   10.9347   -6.3683  -12.2165 C   0  0  0  0  0  0  0  0  0  0  0  0
    9.4760   -6.2504  -11.9443 C   0  0  0  0  0  0  0  0  0  0  0  0
   13.1569   -6.8599  -12.6091 C   0  0  0  0  0  0  0  0  0  0  0  0
    8.6518   -7.5107  -11.7584 C   0  0  0  0  0  0  0  0  0  0  0  0
    7.1424   -7.2972  -11.7197 C   0  0  1  0  0  0  0  0  0  0  0  0
    6.7415   -5.9174  -12.1572 C   0  0  0  0  0  0  0  0  0  0  0  0
    6.4437   -8.3662  -12.5462 C   0  0  0  0  0  0  0  0  0  0  0  0
   11.6089   -8.8266  -12.2054 C   0  0  0  0  0  0  0  0  0  0  0  0
    6.3778   -9.9812  -10.8253 C   0  0  0  0  0  0  0  0  0  0  0  0
    6.5494  -10.6399  -13.1072 C   0  0  0  0  0  0  0  0  0  0  0  0
   12.5691   -9.5879  -11.2753 C   0  0  0  0  0  0  0  0  0  0  0  0
   12.2424  -11.0904  -11.3661 C   0  0  0  0  0  0  0  0  0  0  0  0
   12.4181  -12.4753   -9.3928 C   0  0  0  0  0  0  0  0  0  0  0  0
  1 23  1  0  0  0  0
  1 24  1  0  0  0  0
  1  2  1  0  0  0  0
  3  4  1  0  0  0  0
  3 17  1  0  0  0  0
  4  6  2  0  0  0  0
  4 13  1  0  0  0  0
  5 10  1  0  0  0  0
  5 14  2  0  0  0  0
  6  8  1  0  0  0  0
  7 12  1  0  0  0  0
  7 14  1  0  0  0  0
  7 19  1  0  0  0  0
  8 10  2  0  0  0  0
  9 14  1  0  0  0  0
 10 12  1  0  0  0  0
 11 18  1  0  0  0  0
 11 20  1  0  0  0  0
 11 21  1  0  0  0  0
 12 13  2  0  0  0  0
 13 15  1  0  0  0  0
 15 16  1  0  0  0  0
 16 17  1  0  0  0  0
 16 18  1  6  0  0  0
 19 22  1  0  0  0  0
 22 23  1  0  0  0  0
M  END
>  <CHROM.1>
-129.06758247,-129.65746866,74.85417344,50.32399971,-172.70522103,178.87947641
10.23797062,-8.01550335,-11.85526016,0.80442291,0.01184400,2.96675127

>  <Name>
ligand

>  <RI>
0

>  <Rbt.Current_Directory>
/home/itssahil/PROJECTS/Mol_Feturizer/New_Systems/rnas/3TZR

>  <Rbt.Executable>
rbdock ($Id: //depot/dev/client3/rdock/2013.1/src/exe/rbdock.cxx#4 $)

>  <Rbt.Library>
libRbt.so (2013.1, Build901 2013/11/27)

>  <Rbt.Parameter_File>
/export/apps/rDock/src/rDock_2013.1_src/data/scripts/dock_solv.prm

>  <Rbt.Receptor>
prm/pocket_docking_3.prm

>  <SCORE>
-28.8606

>  <SCORE.INTER>
-19.789

>  <SCORE.INTER.CONST>
1

>  <SCORE.INTER.POLAR>
0

>  <SCORE.INTER.ROT>
6

>  <SCORE.INTER.SOLV>
24.2191

>  <SCORE.INTER.VDW>
-28.8657

>  <SCORE.INTER.norm>
-0.824543

>  <SCORE.INTRA>
-9.08601

>  <SCORE.INTRA.DIHEDRAL>
-0.457598

>  <SCORE.INTRA.DIHEDRAL.0>
4.94008

>  <SCORE.INTRA.POLAR>
0

>  <SCORE.INTRA.POLAR.0>
0

>  <SCORE.INTRA.REPUL>
0

>  <SCORE.INTRA.REPUL.0>
0

>  <SCORE.INTRA.SOLV>
1.1128

>  <SCORE.INTRA.SOLV.lig_0>
-31.4704

>  <SCORE.INTRA.VDW>
-9.41361

>  <SCORE.INTRA.VDW.0>
10.2807

>  <SCORE.INTRA.norm>
-0.378584

>  <SCORE.RESTR>
0.0144096

>  <SCORE.RESTR.CAVITY>
0.0144096

>  <SCORE.RESTR.norm>
0.000600402

>  <SCORE.SYSTEM>
0

>  <SCORE.SYSTEM.CONST>
0

>  <SCORE.SYSTEM.DIHEDRAL>
0

>  <SCORE.SYSTEM.SOLV>
0

>  <SCORE.SYSTEM.norm>
0

>  <SCORE.heavy>
24

>  <SCORE.norm>
-1.20253

>  <RMSD>
5.318

$$$$
ligand
 OpenBabel11021811493D
libRbt.so/2013.1/901 2013/11/27
 24 26  0  0  0  0  0  0  0  0999 V2000
   12.0129  -12.2502  -10.9451 N   0  0  0  0  0  0  0  0  0  0  0  0
   12.4410  -12.1100   -9.5626 C   0  0  0  0  0  0  0  0  0  0  0  0
    7.7979   -5.3186  -11.7912 O   0  0  0  0  0  0  0  0  0  0  0  0
    9.1618   -5.4963  -11.9806 C   0  0  0  0  0  0  0  0  0  0  0  0
   13.3446   -6.2158  -12.4762 N   0  0  0  0  0  0  0  0  0  0  0  0
   10.0683   -4.3339  -12.2869 C   0  0  0  0  0  0  0  0  0  0  0  0
   12.0669   -8.0106  -12.0384 N   0  0  0  0  0  0  0  0  0  0  0  0
   11.4822   -4.4865  -12.4590 C   0  0  0  0  0  0  0  0  0  0  0  0
   14.5222   -8.4084  -12.3384 N   0  0  0  0  0  0  0  0  0  0  0  0
   12.0059   -5.8226  -12.3397 C   0  0  0  0  0  0  0  0  0  0  0  0
    6.0767   -9.6978  -11.3468 N   0  0  0  0  0  0  0  0  0  0  0  0
   11.1490   -6.9442  -12.0626 C   0  0  0  0  0  0  0  0  0  0  0  0
    9.6863   -6.7370  -11.8796 C   0  0  0  0  0  0  0  0  0  0  0  0
   13.3625   -7.5661  -12.2803 C   0  0  0  0  0  0  0  0  0  0  0  0
    8.8000   -7.9311  -11.5784 C   0  0  0  0  0  0  0  0  0  0  0  0
    7.3012   -7.6569  -11.6413 C   0  0  1  0  0  0  0  0  0  0  0  0
    6.9812   -6.3297  -12.2673 C   0  0  0  0  0  0  0  0  0  0  0  0
    6.5932   -8.7949  -12.3609 C   0  0  0  0  0  0  0  0  0  0  0  0
   11.7130   -9.4051  -11.7106 C   0  0  0  0  0  0  0  0  0  0  0  0
    4.9686  -10.4501  -11.9195 C   0  0  0  0  0  0  0  0  0  0  0  0
    7.1521  -10.6069  -10.9826 C   0  0  0  0  0  0  0  0  0  0  0  0
   12.2635  -10.4703  -12.6744 C   0  0  0  0  0  0  0  0  0  0  0  0
   12.9553  -11.5661  -11.8420 C   0  0  0  0  0  0  0  0  0  0  0  0
   11.9295  -13.6738  -11.2514 C   0  0  0  0  0  0  0  0  0  0  0  0
  1 23  1  0  0  0  0
  1 24  1  0  0  0  0
  1  2  1  0  0  0  0
  3  4  1  0  0  0  0
  3 17  1  0  0  0  0
  4  6  2  0  0  0  0
  4 13  1  0  0  0  0
  5 10  1  0  0  0  0
  5 14  2  0  0  0  0
  6  8  1  0  0  0  0
  7 12  1  0  0  0  0
  7 14  1  0  0  0  0
  7 19  1  0  0  0  0
  8 10  2  0  0  0  0
  9 14  1  0  0  0  0
 10 12  1  0  0  0  0
 11 18  1  0  0  0  0
 11 20  1  0  0  0  0
 11 21  1  0  0  0  0
 12 13  2  0  0  0  0
 13 15  1  0  0  0  0
 15 16  1  0  0  0  0
 16 17  1  0  0  0  0
 16 18  1  6  0  0  0
 19 22  1  0  0  0  0
 22 23  1  0  0  0  0
M  END
>  <CHROM.1>
-121.00467557,132.63793346,156.75265606,96.79658965,129.87025201,62.48968387
10.19116832,-8.47510704,-11.80808890,0.59517058,-0.03367488,2.97344896

>  <Name>
ligand

>  <RI>
0

>  <Rbt.Current_Directory>
/home/itssahil/PROJECTS/Mol_Feturizer/New_Systems/rnas/3TZR

>  <Rbt.Executable>
rbdock ($Id: //depot/dev/client3/rdock/2013.1/src/exe/rbdock.cxx#4 $)

>  <Rbt.Library>
libRbt.so (2013.1, Build901 2013/11/27)

>  <Rbt.Parameter_File>
/export/apps/rDock/src/rDock_2013.1_src/data/scripts/dock_solv.prm

>  <Rbt.Receptor>
prm/pocket_docking_3.prm

>  <SCORE>
-25.4741

>  <SCORE.INTER>
-20.0739

>  <SCORE.INTER.CONST>
1

>  <SCORE.INTER.POLAR>
0

>  <SCORE.INTER.ROT>
6

>  <SCORE.INTER.SOLV>
21.0049

>  <SCORE.INTER.VDW>
-27.9842

>  <SCORE.INTER.norm>
-0.836411

>  <SCORE.INTRA>
-5.40022

>  <SCORE.INTRA.DIHEDRAL>
8.09658

>  <SCORE.INTRA.DIHEDRAL.0>
4.94008

>  <SCORE.INTRA.POLAR>
0

>  <SCORE.INTRA.POLAR.0>
0

>  <SCORE.INTRA.REPUL>
0

>  <SCORE.INTRA.REPUL.0>
0

>  <SCORE.INTRA.SOLV>
1.96728

>  <SCORE.INTRA.SOLV.lig_0>
-31.4704

>  <SCORE.INTRA.VDW>
-10.4321

>  <SCORE.INTRA.VDW.0>
10.2807

>  <SCORE.INTRA.norm>
-0.225009

>  <SCORE.RESTR>
0

>  <SCORE.RESTR.CAVITY>
0

>  <SCORE.RESTR.norm>
0

>  <SCORE.SYSTEM>
0

>  <SCORE.SYSTEM.CONST>
0

>  <SCORE.SYSTEM.DIHEDRAL>
0

>  <SCORE.SYSTEM.SOLV>
0

>  <SCORE.SYSTEM.norm>
0

>  <SCORE.heavy>
24

>  <SCORE.norm>
-1.06142

>  <RMSD>
5.329

$$$$
ligand
 OpenBabel11021811493D
libRbt.so/2013.1/901 2013/11/27
 24 26  0  0  0  0  0  0  0  0999 V2000
   12.6579  -12.3586   -9.6123 N   0  0  0  0  0  0  0  0  0  0  0  0
   11.6364  -13.3933   -9.6241 C   0  0  0  0  0  0  0  0  0  0  0  0
    9.1130   -5.3922  -11.5069 O   0  0  0  0  0  0  0  0  0  0  0  0
   10.3529   -5.8927  -11.8809 C   0  0  0  0  0  0  0  0  0  0  0  0
   14.1087   -7.6095  -12.9789 N   0  0  0  0  0  0  0  0  0  0  0  0
   11.5428   -4.9871  -12.0565 C   0  0  0  0  0  0  0  0  0  0  0  0
   12.3860   -9.0336  -12.7560 N   0  0  0  0  0  0  0  0  0  0  0  0
   12.8387   -5.4817  -12.4144 C   0  0  0  0  0  0  0  0  0  0  0  0
   14.5974  -10.0164  -13.4046 N   0  0  0  0  0  0  0  0  0  0  0  0
   12.9533   -6.9027  -12.6174 C   0  0  0  0  0  0  0  0  0  0  0  0
    7.0825   -9.6175  -12.3899 N   0  0  0  0  0  0  0  0  0  0  0  0
   11.8211   -7.7773  -12.4680 C   0  0  0  0  0  0  0  0  0  0  0  0
   10.4953   -7.2207  -12.0833 C   0  0  0  0  0  0  0  0  0  0  0  0
   13.7403   -8.9214  -13.0526 C   0  0  0  0  0  0  0  0  0  0  0  0
    9.3150   -8.1603  -11.9211 C   0  0  0  0  0  0  0  0  0  0  0  0
    7.9613   -7.4772  -11.7588 C   0  0  1  0  0  0  0  0  0  0  0  0
    8.0119   -6.0096  -12.0744 C   0  0  0  0  0  0  0  0  0  0  0  0
    6.9138   -8.1900  -12.6007 C   0  0  0  0  0  0  0  0  0  0  0  0
   11.6567  -10.3133  -12.6675 C   0  0  0  0  0  0  0  0  0  0  0  0
    6.2752  -10.0135  -11.2438 C   0  0  0  0  0  0  0  0  0  0  0  0
    6.6054  -10.2951  -13.5852 C   0  0  0  0  0  0  0  0  0  0  0  0
   12.3869  -11.4390  -11.9150 C   0  0  0  0  0  0  0  0  0  0  0  0
   12.2184  -11.2000  -10.4028 C   0  0  0  0  0  0  0  0  0  0  0  0
   12.9106  -11.9873   -8.2246 C   0  0  0  0  0  0  0  0  0  0  0  0
  1 23  1  0  0  0  0
  1 24  1  0  0  0  0
  1  2  1  0  0  0  0
  3  4  1  0  0  0  0
  3 17  1  0  0  0  0
  4  6  2  0  0  0  0
  4 13  1  0  0  0  0
  5 10  1  0  0  0  0
  5 14  2  0  0  0  0
  6  8  1  0  0  0  0
  7 12  1  0  0  0  0
  7 14  1  0  0  0  0
  7 19  1  0  0  0  0
  8 10  2  0  0  0  0
  9 14  1  0  0  0  0
 10 12  1  0  0  0  0
 11 18  1  0  0  0  0
 11 20  1  0  0  0  0
 11 21  1  0  0  0  0
 12 13  2  0  0  0  0
 13 15  1  0  0  0  0
 15 16  1  0  0  0  0
 16 17  1  0  0  0  0
 16 18  1  6  0  0  0
 19 22  1  0  0  0  0
 22 23  1  0  0  0  0
M  END
>  <CHROM.1>
-78.68222862,-132.26358263,88.63491851,45.28629518,79.46239053,168.96818282
10.74658250,-8.83960676,-11.84722607,0.68366633,0.00333153,2.81376552

>  <Name>
ligand

>  <RI>
144

>  <Rbt.Current_Directory>
/home/itssahil/PROJECTS/Mol_Feturizer/New_Systems/rnas/3TZR

>  <Rbt.Executable>
rbdock ($Id: //depot/dev/client3/rdock/2013.1/src/exe/rbdock.cxx#4 $)

>  <Rbt.Library>
libRbt.so (2013.1, Build901 2013/11/27)

>  <Rbt.Parameter_File>
/export/apps/rDock/src/rDock_2013.1_src/data/scripts/dock_solv.prm

>  <Rbt.Receptor>
prm/pocket_docking_8.prm

>  <SCORE>
-29.1265

>  <SCORE.INTER>
-20.6284

>  <SCORE.INTER.CONST>
1

>  <SCORE.INTER.POLAR>
0

>  <SCORE.INTER.ROT>
6

>  <SCORE.INTER.SOLV>
23.1852

>  <SCORE.INTER.VDW>
-29.0807

>  <SCORE.INTER.norm>
-0.859518

>  <SCORE.INTRA>
-8.49806

>  <SCORE.INTRA.DIHEDRAL>
0.538121

>  <SCORE.INTRA.DIHEDRAL.0>
4.94008

>  <SCORE.INTRA.POLAR>
0

>  <SCORE.INTRA.POLAR.0>
0

>  <SCORE.INTRA.REPUL>
0

>  <SCORE.INTRA.REPUL.0>
0

>  <SCORE.INTRA.SOLV>
1.48144

>  <SCORE.INTRA.SOLV.lig_0>
-31.4704

>  <SCORE.INTRA.VDW>
-9.50784

>  <SCORE.INTRA.VDW.0>
10.2807

>  <SCORE.INTRA.norm>
-0.354086

>  <SCORE.RESTR>
0

>  <SCORE.RESTR.CAVITY>
0

>  <SCORE.RESTR.norm>
0

>  <SCORE.SYSTEM>
0

>  <SCORE.SYSTEM.CONST>
0

>  <SCORE.SYSTEM.DIHEDRAL>
0

>  <SCORE.SYSTEM.SOLV>
0

>  <SCORE.SYSTEM.norm>
0

>  <SCORE.heavy>
24

>  <SCORE.norm>
-1.2136

>  <RMSD>
5.334

$$$$
ligand
 OpenBabel11021811493D
libRbt.so/2013.1/901 2013/11/27
 24 26  0  0  0  0  0  0  0  0999 V2000
   12.0455  -12.5789   -9.3403 N   0  0  0  0  0  0  0  0  0  0  0  0
   10.9438  -12.9745   -8.4777 C   0  0  0  0  0  0  0  0  0  0  0  0
    9.2363   -5.8826  -11.5113 O   0  0  0  0  0  0  0  0  0  0  0  0
   10.4790   -6.3756  -11.8860 C   0  0  0  0  0  0  0  0  0  0  0  0
   14.2439   -8.0699  -12.9875 N   0  0  0  0  0  0  0  0  0  0  0  0
   11.6660   -5.4643  -12.0512 C   0  0  0  0  0  0  0  0  0  0  0  0
   12.5259   -9.5020  -12.7806 N   0  0  0  0  0  0  0  0  0  0  0  0
   12.9646   -5.9513  -12.4095 C   0  0  0  0  0  0  0  0  0  0  0  0
   14.7425  -10.4716  -13.4310 N   0  0  0  0  0  0  0  0  0  0  0  0
   13.0849   -7.3702  -12.6235 C   0  0  0  0  0  0  0  0  0  0  0  0
    7.0523  -10.0800  -12.2469 N   0  0  0  0  0  0  0  0  0  0  0  0
   11.9556   -8.2501  -12.4841 C   0  0  0  0  0  0  0  0  0  0  0  0
   10.6267   -7.7014  -12.0986 C   0  0  0  0  0  0  0  0  0  0  0  0
   13.8804   -9.3825  -13.0726 C   0  0  0  0  0  0  0  0  0  0  0  0
    9.4494   -8.6465  -11.9470 C   0  0  0  0  0  0  0  0  0  0  0  0
    8.0928   -7.9697  -11.7830 C   0  0  1  0  0  0  0  0  0  0  0  0
    8.1388   -6.4995  -12.0867 C   0  0  0  0  0  0  0  0  0  0  0  0
    7.0502   -8.6795  -12.6333 C   0  0  0  0  0  0  0  0  0  0  0  0
   11.8009  -10.7850  -12.7042 C   0  0  0  0  0  0  0  0  0  0  0  0
    6.2781  -10.2218  -11.0212 C   0  0  0  0  0  0  0  0  0  0  0  0
    6.4174  -10.8301  -13.3191 C   0  0  0  0  0  0  0  0  0  0  0  0
   12.3567  -11.7983  -11.6887 C   0  0  0  0  0  0  0  0  0  0  0  0
   11.5744  -11.6429  -10.3711 C   0  0  0  0  0  0  0  0  0  0  0  0
   13.0780  -11.9727   -8.5073 C   0  0  0  0  0  0  0  0  0  0  0  0
  1 23  1  0  0  0  0
  1 24  1  0  0  0  0
  1  2  1  0  0  0  0
  3  4  1  0  0  0  0
  3 17  1  0  0  0  0
  4  6  2  0  0  0  0
  4 13  1  0  0  0  0
  5 10  1  0  0  0  0
  5 14  2  0  0  0  0
  6  8  1  0  0  0  0
  7 12  1  0  0  0  0
  7 14  1  0  0  0  0
  7 19  1  0  0  0  0
  8 10  2  0  0  0  0
  9 14  1  0  0  0  0
 10 12  1  0  0  0  0
 11 18  1  0  0  0  0
 11 20  1  0  0  0  0
 11 21  1  0  0  0  0
 12 13  2  0  0  0  0
 13 15  1  0  0  0  0
 15 16  1  0  0  0  0
 16 17  1  0  0  0  0
 16 18  1  6  0  0  0
 19 22  1  0  0  0  0
 22 23  1  0  0  0  0
M  END
>  <CHROM.1>
-147.69896129,-118.09615562,80.08602833,55.83377059,94.75194193,-179.95504778
10.74352493,-9.22465816,-11.76657628,0.41711921,-0.02757685,2.73703756

>  <Name>
ligand

>  <RI>
0

>  <Rbt.Current_Directory>
/home/itssahil/PROJECTS/Mol_Feturizer/New_Systems/rnas/3TZR

>  <Rbt.Executable>
rbdock ($Id: //depot/dev/client3/rdock/2013.1/src/exe/rbdock.cxx#4 $)

>  <Rbt.Library>
libRbt.so (2013.1, Build901 2013/11/27)

>  <Rbt.Parameter_File>
/export/apps/rDock/src/rDock_2013.1_src/data/scripts/dock_solv.prm

>  <Rbt.Receptor>
prm/pocket_docking_7.prm

>  <SCORE>
-27.6686

>  <SCORE.INTER>
-18.3599

>  <SCORE.INTER.CONST>
1

>  <SCORE.INTER.POLAR>
0

>  <SCORE.INTER.ROT>
6

>  <SCORE.INTER.SOLV>
21.9667

>  <SCORE.INTER.VDW>
-27.1621

>  <SCORE.INTER.norm>
-0.764994

>  <SCORE.INTRA>
-9.30871

>  <SCORE.INTRA.DIHEDRAL>
1.76278

>  <SCORE.INTRA.DIHEDRAL.0>
4.94008

>  <SCORE.INTRA.POLAR>
0

>  <SCORE.INTRA.POLAR.0>
0

>  <SCORE.INTRA.REPUL>
0

>  <SCORE.INTRA.REPUL.0>
0

>  <SCORE.INTRA.SOLV>
0.644722

>  <SCORE.INTRA.SOLV.lig_0>
-31.4704

>  <SCORE.INTRA.VDW>
-10.5125

>  <SCORE.INTRA.VDW.0>
10.2807

>  <SCORE.INTRA.norm>
-0.387863

>  <SCORE.RESTR>
0

>  <SCORE.RESTR.CAVITY>
0

>  <SCORE.RESTR.norm>
0

>  <SCORE.SYSTEM>
0

>  <SCORE.SYSTEM.CONST>
0

>  <SCORE.SYSTEM.DIHEDRAL>
0

>  <SCORE.SYSTEM.SOLV>
0

>  <SCORE.SYSTEM.norm>
0

>  <SCORE.heavy>
24

>  <SCORE.norm>
-1.15286

>  <RMSD>
5.335

$$$$
ligand
 OpenBabel11021811493D
libRbt.so/2013.1/901 2013/11/27
 24 26  0  0  0  0  0  0  0  0999 V2000
   12.8091  -11.9744   -9.6826 N   0  0  0  0  0  0  0  0  0  0  0  0
   13.4346  -13.1620  -10.2416 C   0  0  0  0  0  0  0  0  0  0  0  0
    7.5745   -5.2819  -11.6818 O   0  0  0  0  0  0  0  0  0  0  0  0
    8.9355   -5.3817  -11.9374 C   0  0  0  0  0  0  0  0  0  0  0  0
   13.1213   -5.8666  -12.6469 N   0  0  0  0  0  0  0  0  0  0  0  0
    9.7735   -4.1604  -12.2073 C   0  0  0  0  0  0  0  0  0  0  0  0
   11.9475   -7.7443  -12.2701 N   0  0  0  0  0  0  0  0  0  0  0  0
   11.1841   -4.2338  -12.4460 C   0  0  0  0  0  0  0  0  0  0  0  0
   14.4030   -8.0039  -12.6941 N   0  0  0  0  0  0  0  0  0  0  0  0
   11.7732   -5.5476  -12.4317 C   0  0  0  0  0  0  0  0  0  0  0  0
    5.9916   -9.7103  -11.4354 N   0  0  0  0  0  0  0  0  0  0  0  0
   10.9815   -6.7241  -12.1903 C   0  0  0  0  0  0  0  0  0  0  0  0
    9.5203   -6.5994  -11.9354 C   0  0  0  0  0  0  0  0  0  0  0  0
   13.2095   -7.2239  -12.5364 C   0  0  0  0  0  0  0  0  0  0  0  0
    8.7035   -7.8510  -11.6732 C   0  0  0  0  0  0  0  0  0  0  0  0
    7.1924   -7.6464  -11.6578 C   0  0  1  0  0  0  0  0  0  0  0  0
    6.7850   -6.3008  -12.1863 C   0  0  0  0  0  0  0  0  0  0  0  0
    6.5066   -8.7718  -12.4175 C   0  0  0  0  0  0  0  0  0  0  0  0
   11.6725   -9.1715  -12.0157 C   0  0  0  0  0  0  0  0  0  0  0  0
    4.8917  -10.4516  -12.0376 C   0  0  0  0  0  0  0  0  0  0  0  0
    7.0716  -10.6230  -11.0949 C   0  0  0  0  0  0  0  0  0  0  0  0
   12.4995   -9.8128  -10.8880 C   0  0  0  0  0  0  0  0  0  0  0  0
   12.0358  -11.2715  -10.7163 C   0  0  0  0  0  0  0  0  0  0  0  0
   11.9561  -12.3904   -8.5750 C   0  0  0  0  0  0  0  0  0  0  0  0
  1 23  1  0  0  0  0
  1 24  1  0  0  0  0
  1  2  1  0  0  0  0
  3  4  1  0  0  0  0
  3 17  1  0  0  0  0
  4  6  2  0  0  0  0
  4 13  1  0  0  0  0
  5 10  1  0  0  0  0
  5 14  2  0  0  0  0
  6  8  1  0  0  0  0
  7 12  1  0  0  0  0
  7 14  1  0  0  0  0
  7 19  1  0  0  0  0
  8 10  2  0  0  0  0
  9 14  1  0  0  0  0
 10 12  1  0  0  0  0
 11 18  1  0  0  0  0
 11 20  1  0  0  0  0
 11 21  1  0  0  0  0
 12 13  2  0  0  0  0
 13 15  1  0  0  0  0
 15 16  1  0  0  0  0
 16 17  1  0  0  0  0
 16 18  1  6  0  0  0
 19 22  1  0  0  0  0
 22 23  1  0  0  0  0
M  END
>  <CHROM.1>
-122.83783741,-121.31281660,156.27390082,100.84815176,177.24249245,178.13772045
10.12250069,-8.29614185,-11.61033698,0.66800483,0.02573240,2.83408597

>  <Name>
ligand

>  <RI>
0

>  <Rbt.Current_Directory>
/home/itssahil/PROJECTS/Mol_Feturizer/New_Systems/rnas/3TZR

>  <Rbt.Executable>
rbdock ($Id: //depot/dev/client3/rdock/2013.1/src/exe/rbdock.cxx#4 $)

>  <Rbt.Library>
libRbt.so (2013.1, Build901 2013/11/27)

>  <Rbt.Parameter_File>
/export/apps/rDock/src/rDock_2013.1_src/data/scripts/dock_solv.prm

>  <Rbt.Receptor>
prm/pocket_docking_6.prm

>  <SCORE>
-28.5838

>  <SCORE.INTER>
-19.9855

>  <SCORE.INTER.CONST>
1

>  <SCORE.INTER.POLAR>
0

>  <SCORE.INTER.ROT>
6

>  <SCORE.INTER.SOLV>
22.9524

>  <SCORE.INTER.VDW>
-28.5745

>  <SCORE.INTER.norm>
-0.832731

>  <SCORE.INTRA>
-8.59823

>  <SCORE.INTRA.DIHEDRAL>
3.55473

>  <SCORE.INTRA.DIHEDRAL.0>
4.94008

>  <SCORE.INTRA.POLAR>
0

>  <SCORE.INTRA.POLAR.0>
0

>  <SCORE.INTRA.REPUL>
0

>  <SCORE.INTRA.REPUL.0>
0

>  <SCORE.INTRA.SOLV>
0.703677

>  <SCORE.INTRA.SOLV.lig_0>
-31.4704

>  <SCORE.INTRA.VDW>
-10.7274

>  <SCORE.INTRA.VDW.0>
10.2807

>  <SCORE.INTRA.norm>
-0.35826

>  <SCORE.RESTR>
0

>  <SCORE.RESTR.CAVITY>
0

>  <SCORE.RESTR.norm>
0

>  <SCORE.SYSTEM>
0

>  <SCORE.SYSTEM.CONST>
0

>  <SCORE.SYSTEM.DIHEDRAL>
0

>  <SCORE.SYSTEM.SOLV>
0

>  <SCORE.SYSTEM.norm>
0

>  <SCORE.heavy>
24

>  <SCORE.norm>
-1.19099

>  <RMSD>
5.340

$$$$
ligand
 OpenBabel11021811493D
libRbt.so/2013.1/901 2013/11/27
 24 26  0  0  0  0  0  0  0  0999 V2000
   12.7174  -12.4251   -9.6097 N   0  0  0  0  0  0  0  0  0  0  0  0
   12.4681  -13.8464   -9.7889 C   0  0  0  0  0  0  0  0  0  0  0  0
    7.8361   -5.3369  -11.6990 O   0  0  0  0  0  0  0  0  0  0  0  0
    9.1962   -5.5312  -11.8993 C   0  0  0  0  0  0  0  0  0  0  0  0
   13.3640   -6.3053  -12.4370 N   0  0  0  0  0  0  0  0  0  0  0  0
   10.1247   -4.3726  -12.1487 C   0  0  0  0  0  0  0  0  0  0  0  0
   12.0522   -8.0949  -12.0871 N   0  0  0  0  0  0  0  0  0  0  0  0
   11.5353   -4.5436  -12.3305 C   0  0  0  0  0  0  0  0  0  0  0  0
   14.4992   -8.5243  -12.4107 N   0  0  0  0  0  0  0  0  0  0  0  0
   12.0332   -5.8938  -12.2789 C   0  0  0  0  0  0  0  0  0  0  0  0
    5.9987   -9.6784  -11.4691 N   0  0  0  0  0  0  0  0  0  0  0  0
   11.1550   -7.0111  -12.0566 C   0  0  0  0  0  0  0  0  0  0  0  0
    9.6968   -6.7853  -11.8611 C   0  0  0  0  0  0  0  0  0  0  0  0
   13.3559   -7.6639  -12.3088 C   0  0  0  0  0  0  0  0  0  0  0  0
    8.7877   -7.9756  -11.6183 C   0  0  0  0  0  0  0  0  0  0  0  0
    7.2945   -7.6699  -11.6650 C   0  0  1  0  0  0  0  0  0  0  0  0
    6.9997   -6.3071  -12.2235 C   0  0  0  0  0  0  0  0  0  0  0  0
    6.5642   -8.7567  -12.4394 C   0  0  0  0  0  0  0  0  0  0  0  0
   11.6717   -9.4969  -11.8287 C   0  0  0  0  0  0  0  0  0  0  0  0
    4.8726  -10.3655  -12.0868 C   0  0  0  0  0  0  0  0  0  0  0  0
    7.0338  -10.6408  -11.1259 C   0  0  0  0  0  0  0  0  0  0  0  0
   12.5139  -10.2250  -10.7670 C   0  0  0  0  0  0  0  0  0  0  0  0
   11.9458  -11.6454  -10.5880 C   0  0  0  0  0  0  0  0  0  0  0  0
   12.3518  -12.0699   -8.2432 C   0  0  0  0  0  0  0  0  0  0  0  0
  1 23  1  0  0  0  0
  1 24  1  0  0  0  0
  1  2  1  0  0  0  0
  3  4  1  0  0  0  0
  3 17  1  0  0  0  0
  4  6  2  0  0  0  0
  4 13  1  0  0  0  0
  5 10  1  0  0  0  0
  5 14  2  0  0  0  0
  6  8  1  0  0  0  0
  7 12  1  0  0  0  0
  7 14  1  0  0  0  0
  7 19  1  0  0  0  0
  8 10  2  0  0  0  0
  9 14  1  0  0  0  0
 10 12  1  0  0  0  0
 11 18  1  0  0  0  0
 11 20  1  0  0  0  0
 11 21  1  0  0  0  0
 12 13  2  0  0  0  0
 13 15  1  0  0  0  0
 15 16  1  0  0  0  0
 16 17  1  0  0  0  0
 16 18  1  6  0  0  0
 19 22  1  0  0  0  0
 22 23  1  0  0  0  0
M  END
>  <CHROM.1>
-160.62753145,-127.73286748,156.37357553,98.38580324,177.76618975,178.57778586
10.20096101,-8.51067614,-11.50063391,0.73455051,0.05322675,2.82728346

>  <Name>
ligand

>  <RI>
0

>  <Rbt.Current_Directory>
/home/itssahil/PROJECTS/Mol_Feturizer/New_Systems/rnas/3TZR

>  <Rbt.Executable>
rbdock ($Id: //depot/dev/client3/rdock/2013.1/src/exe/rbdock.cxx#4 $)

>  <Rbt.Library>
libRbt.so (2013.1, Build901 2013/11/27)

>  <Rbt.Parameter_File>
/export/apps/rDock/src/rDock_2013.1_src/data/scripts/dock_solv.prm

>  <Rbt.Receptor>
prm/pocket_docking_6.prm

>  <SCORE>
-29.1805

>  <SCORE.INTER>
-20.5207

>  <SCORE.INTER.CONST>
1

>  <SCORE.INTER.POLAR>
0

>  <SCORE.INTER.ROT>
6

>  <SCORE.INTER.SOLV>
21.0496

>  <SCORE.INTER.VDW>
-28.297

>  <SCORE.INTER.norm>
-0.855029

>  <SCORE.INTRA>
-8.65977

>  <SCORE.INTRA.DIHEDRAL>
1.46487

>  <SCORE.INTRA.DIHEDRAL.0>
4.94008

>  <SCORE.INTRA.POLAR>
0

>  <SCORE.INTRA.POLAR.0>
0

>  <SCORE.INTRA.REPUL>
0

>  <SCORE.INTRA.REPUL.0>
0

>  <SCORE.INTRA.SOLV>
0.88603

>  <SCORE.INTRA.SOLV.lig_0>
-31.4704

>  <SCORE.INTRA.VDW>
-9.83522

>  <SCORE.INTRA.VDW.0>
10.2807

>  <SCORE.INTRA.norm>
-0.360824

>  <SCORE.RESTR>
0

>  <SCORE.RESTR.CAVITY>
0

>  <SCORE.RESTR.norm>
0

>  <SCORE.SYSTEM>
0

>  <SCORE.SYSTEM.CONST>
0

>  <SCORE.SYSTEM.DIHEDRAL>
0

>  <SCORE.SYSTEM.SOLV>
0

>  <SCORE.SYSTEM.norm>
0

>  <SCORE.heavy>
24

>  <SCORE.norm>
-1.21585

>  <RMSD>
5.340

$$$$
ligand
 OpenBabel11021811493D
libRbt.so/2013.1/901 2013/11/27
 24 26  0  0  0  0  0  0  0  0999 V2000
   12.7268  -12.3842   -9.5977 N   0  0  0  0  0  0  0  0  0  0  0  0
   12.5748  -13.8068   -9.8571 C   0  0  0  0  0  0  0  0  0  0  0  0
    7.8490   -5.2995  -11.7167 O   0  0  0  0  0  0  0  0  0  0  0  0
    9.2081   -5.4980  -11.9203 C   0  0  0  0  0  0  0  0  0  0  0  0
   13.3725   -6.2841  -12.4669 N   0  0  0  0  0  0  0  0  0  0  0  0
   10.1379   -4.3429  -12.1814 C   0  0  0  0  0  0  0  0  0  0  0  0
   12.0585   -8.0685  -12.0994 N   0  0  0  0  0  0  0  0  0  0  0  0
   11.5475   -4.5181  -12.3668 C   0  0  0  0  0  0  0  0  0  0  0  0
   14.5034   -8.5051  -12.4283 N   0  0  0  0  0  0  0  0  0  0  0  0
   12.0430   -5.8688  -12.3071 C   0  0  0  0  0  0  0  0  0  0  0  0
    6.0235   -9.6481  -11.4497 N   0  0  0  0  0  0  0  0  0  0  0  0
   11.1634   -6.9828  -12.0737 C   0  0  0  0  0  0  0  0  0  0  0  0
    9.7063   -6.7527  -11.8748 C   0  0  0  0  0  0  0  0  0  0  0  0
   13.3622   -7.6417  -12.3287 C   0  0  0  0  0  0  0  0  0  0  0  0
    8.7958   -7.9394  -11.6202 C   0  0  0  0  0  0  0  0  0  0  0  0
    7.3030   -7.6311  -11.6639 C   0  0  1  0  0  0  0  0  0  0  0  0
    7.0090   -6.2719  -12.2312 C   0  0  0  0  0  0  0  0  0  0  0  0
    6.5679   -8.7221  -12.4278 C   0  0  0  0  0  0  0  0  0  0  0  0
   11.6761   -9.4678  -11.8295 C   0  0  0  0  0  0  0  0  0  0  0  0
    4.9049  -10.3564  -12.0571 C   0  0  0  0  0  0  0  0  0  0  0  0
    7.0763  -10.5920  -11.1084 C   0  0  0  0  0  0  0  0  0  0  0  0
   12.5206  -10.1899  -10.7655 C   0  0  0  0  0  0  0  0  0  0  0  0
   11.9427  -11.6034  -10.5651 C   0  0  0  0  0  0  0  0  0  0  0  0
   12.2909  -12.1240   -8.2304 C   0  0  0  0  0  0  0  0  0  0  0  0
  1 23  1  0  0  0  0
  1 24  1  0  0  0  0
  1  2  1  0  0  0  0
  3  4  1  0  0  0  0
  3 17  1  0  0  0  0
  4  6  2  0  0  0  0
  4 13  1  0  0  0  0
  5 10  1  0  0  0  0
  5 14  2  0  0  0  0
  6  8  1  0  0  0  0
  7 12  1  0  0  0  0
  7 14  1  0  0  0  0
  7 19  1  0  0  0  0
  8 10  2  0  0  0  0
  9 14  1  0  0  0  0
 10 12  1  0  0  0  0
 11 18  1  0  0  0  0
 11 20  1  0  0  0  0
 11 21  1  0  0  0  0
 12 13  2  0  0  0  0
 13 15  1  0  0  0  0
 15 16  1  0  0  0  0
 16 17  1  0  0  0  0
 16 18  1  6  0  0  0
 19 22  1  0  0  0  0
 22 23  1  0  0  0  0
M  END
>  <CHROM.1>
-154.36808485,-127.73568593,157.20598483,97.42773496,177.26993046,177.76490301
10.21360635,-8.48310329,-11.50813454,0.74944498,0.04731658,2.82334921

>  <Name>
ligand

>  <RI>
144

>  <Rbt.Current_Directory>
/home/itssahil/PROJECTS/Mol_Feturizer/New_Systems/rnas/3TZR

>  <Rbt.Executable>
rbdock ($Id: //depot/dev/client3/rdock/2013.1/src/exe/rbdock.cxx#4 $)

>  <Rbt.Library>
libRbt.so (2013.1, Build901 2013/11/27)

>  <Rbt.Parameter_File>
/export/apps/rDock/src/rDock_2013.1_src/data/scripts/dock_solv.prm

>  <Rbt.Receptor>
prm/pocket_docking_8.prm

>  <SCORE>
-29.1989

>  <SCORE.INTER>
-20.5072

>  <SCORE.INTER.CONST>
1

>  <SCORE.INTER.POLAR>
0

>  <SCORE.INTER.ROT>
6

>  <SCORE.INTER.SOLV>
21.1984

>  <SCORE.INTER.VDW>
-28.3376

>  <SCORE.INTER.norm>
-0.854466

>  <SCORE.INTRA>
-8.6917

>  <SCORE.INTRA.DIHEDRAL>
1.67948

>  <SCORE.INTRA.DIHEDRAL.0>
4.94008

>  <SCORE.INTRA.POLAR>
0

>  <SCORE.INTRA.POLAR.0>
0

>  <SCORE.INTRA.REPUL>
0

>  <SCORE.INTRA.REPUL.0>
0

>  <SCORE.INTRA.SOLV>
0.88181

>  <SCORE.INTRA.SOLV.lig_0>
-31.4704

>  <SCORE.INTRA.VDW>
-9.97235

>  <SCORE.INTRA.VDW.0>
10.2807

>  <SCORE.INTRA.norm>
-0.362154

>  <SCORE.RESTR>
0

>  <SCORE.RESTR.CAVITY>
0

>  <SCORE.RESTR.norm>
0

>  <SCORE.SYSTEM>
0

>  <SCORE.SYSTEM.CONST>
0

>  <SCORE.SYSTEM.DIHEDRAL>
0

>  <SCORE.SYSTEM.SOLV>
0

>  <SCORE.SYSTEM.norm>
0

>  <SCORE.heavy>
24

>  <SCORE.norm>
-1.21662

>  <RMSD>
5.340

$$$$
ligand
 OpenBabel11021811493D
libRbt.so/2013.1/901 2013/11/27
 24 26  0  0  0  0  0  0  0  0999 V2000
   12.7654  -12.3894   -9.6430 N   0  0  0  0  0  0  0  0  0  0  0  0
   12.6108  -13.8115   -9.9038 C   0  0  0  0  0  0  0  0  0  0  0  0
    7.8510   -5.2685  -11.7328 O   0  0  0  0  0  0  0  0  0  0  0  0
    9.2109   -5.4697  -11.9274 C   0  0  0  0  0  0  0  0  0  0  0  0
   13.3772   -6.2644  -12.4464 N   0  0  0  0  0  0  0  0  0  0  0  0
   10.1446   -4.3168  -12.1842 C   0  0  0  0  0  0  0  0  0  0  0  0
   12.0575   -8.0458  -12.0849 N   0  0  0  0  0  0  0  0  0  0  0  0
   11.5550   -4.4949  -12.3604 C   0  0  0  0  0  0  0  0  0  0  0  0
   14.5037   -8.4875  -12.3976 N   0  0  0  0  0  0  0  0  0  0  0  0
   12.0476   -5.8464  -12.2957 C   0  0  0  0  0  0  0  0  0  0  0  0
    6.0388   -9.6280  -11.4726 N   0  0  0  0  0  0  0  0  0  0  0  0
   11.1644   -6.9584  -12.0664 C   0  0  0  0  0  0  0  0  0  0  0  0
    9.7065   -6.7253  -11.8771 C   0  0  0  0  0  0  0  0  0  0  0  0
   13.3635   -7.6218  -12.3065 C   0  0  0  0  0  0  0  0  0  0  0  0
    8.7922   -7.9100  -11.6266 C   0  0  0  0  0  0  0  0  0  0  0  0
    7.3003   -7.5990  -11.6803 C   0  0  1  0  0  0  0  0  0  0  0  0
    7.0124   -6.2399  -12.2514 C   0  0  0  0  0  0  0  0  0  0  0  0
    6.5680   -8.6896  -12.4473 C   0  0  0  0  0  0  0  0  0  0  0  0
   11.6708   -9.4441  -11.8155 C   0  0  0  0  0  0  0  0  0  0  0  0
    4.9445  -10.3659  -12.0890 C   0  0  0  0  0  0  0  0  0  0  0  0
    7.1124  -10.5437  -11.1201 C   0  0  0  0  0  0  0  0  0  0  0  0
   12.5462  -10.1858  -10.7907 C   0  0  0  0  0  0  0  0  0  0  0  0
   11.9799  -11.6064  -10.6074 C   0  0  0  0  0  0  0  0  0  0  0  0
   12.3332  -12.1304   -8.2742 C   0  0  0  0  0  0  0  0  0  0  0  0
  1 23  1  0  0  0  0
  1 24  1  0  0  0  0
  1  2  1  0  0  0  0
  3  4  1  0  0  0  0
  3 17  1  0  0  0  0
  4  6  2  0  0  0  0
  4 13  1  0  0  0  0
  5 10  1  0  0  0  0
  5 14  2  0  0  0  0
  6  8  1  0  0  0  0
  7 12  1  0  0  0  0
  7 14  1  0  0  0  0
  7 19  1  0  0  0  0
  8 10  2  0  0  0  0
  9 14  1  0  0  0  0
 10 12  1  0  0  0  0
 11 18  1  0  0  0  0
 11 20  1  0  0  0  0
 11 21  1  0  0  0  0
 12 13  2  0  0  0  0
 13 15  1  0  0  0  0
 15 16  1  0  0  0  0
 16 17  1  0  0  0  0
 16 18  1  6  0  0  0
 19 22  1  0  0  0  0
 22 23  1  0  0  0  0
M  END
>  <CHROM.1>
-155.27183466,-130.33527263,158.72430696,96.29322868,178.52350986,179.76490468
10.22648533,-8.46444865,-11.51883128,0.75587068,0.05064405,2.83124410

>  <Name>
ligand

>  <RI>
0

>  <Rbt.Current_Directory>
/home/itssahil/PROJECTS/Mol_Feturizer/New_Systems/rnas/3TZR

>  <Rbt.Executable>
rbdock ($Id: //depot/dev/client3/rdock/2013.1/src/exe/rbdock.cxx#4 $)

>  <Rbt.Library>
libRbt.so (2013.1, Build901 2013/11/27)

>  <Rbt.Parameter_File>
/export/apps/rDock/src/rDock_2013.1_src/data/scripts/dock_solv.prm

>  <Rbt.Receptor>
prm/pocket_docking_5.prm

>  <SCORE>
-29.1384

>  <SCORE.INTER>
-20.6143

>  <SCORE.INTER.CONST>
1

>  <SCORE.INTER.POLAR>
0

>  <SCORE.INTER.ROT>
6

>  <SCORE.INTER.SOLV>
21.1572

>  <SCORE.INTER.VDW>
-28.3953

>  <SCORE.INTER.norm>
-0.858931

>  <SCORE.INTRA>
-8.52409

>  <SCORE.INTRA.DIHEDRAL>
1.36938

>  <SCORE.INTRA.DIHEDRAL.0>
4.94008

>  <SCORE.INTRA.POLAR>
0

>  <SCORE.INTRA.POLAR.0>
0

>  <SCORE.INTRA.REPUL>
0

>  <SCORE.INTRA.REPUL.0>
0

>  <SCORE.INTRA.SOLV>
0.963582

>  <SCORE.INTRA.SOLV.lig_0>
-31.4704

>  <SCORE.INTRA.VDW>
-9.69057

>  <SCORE.INTRA.VDW.0>
10.2807

>  <SCORE.INTRA.norm>
-0.35517

>  <SCORE.RESTR>
0

>  <SCORE.RESTR.CAVITY>
0

>  <SCORE.RESTR.norm>
0

>  <SCORE.SYSTEM>
0

>  <SCORE.SYSTEM.CONST>
0

>  <SCORE.SYSTEM.DIHEDRAL>
0

>  <SCORE.SYSTEM.SOLV>
0

>  <SCORE.SYSTEM.norm>
0

>  <SCORE.heavy>
24

>  <SCORE.norm>
-1.2141

>  <RMSD>
5.343

$$$$
ligand
 OpenBabel11021811493D
libRbt.so/2013.1/901 2013/11/27
 24 26  0  0  0  0  0  0  0  0999 V2000
   12.8035  -12.3796   -9.5497 N   0  0  0  0  0  0  0  0  0  0  0  0
   12.7038  -13.8101   -9.7904 C   0  0  0  0  0  0  0  0  0  0  0  0
    7.8206   -5.3723  -11.7105 O   0  0  0  0  0  0  0  0  0  0  0  0
    9.1813   -5.5561  -11.9170 C   0  0  0  0  0  0  0  0  0  0  0  0
   13.3531   -6.2965  -12.4709 N   0  0  0  0  0  0  0  0  0  0  0  0
   10.0960   -4.3924  -12.1929 C   0  0  0  0  0  0  0  0  0  0  0  0
   12.0624   -8.0931  -12.0812 N   0  0  0  0  0  0  0  0  0  0  0  0
   11.5070   -4.5521  -12.3817 C   0  0  0  0  0  0  0  0  0  0  0  0
   14.5113   -8.5030  -12.4146 N   0  0  0  0  0  0  0  0  0  0  0  0
   12.0192   -5.8960  -12.3104 C   0  0  0  0  0  0  0  0  0  0  0  0
    6.0085   -9.7140  -11.3929 N   0  0  0  0  0  0  0  0  0  0  0  0
   11.1542   -7.0183  -12.0629 C   0  0  0  0  0  0  0  0  0  0  0  0
    9.6950   -6.8041  -11.8610 C   0  0  0  0  0  0  0  0  0  0  0  0
   13.3600   -7.6527  -12.3194 C   0  0  0  0  0  0  0  0  0  0  0  0
    8.8001   -7.9993  -11.5914 C   0  0  0  0  0  0  0  0  0  0  0  0
    7.3035   -7.7098  -11.6328 C   0  0  1  0  0  0  0  0  0  0  0  0
    6.9908   -6.3599  -12.2124 C   0  0  0  0  0  0  0  0  0  0  0  0
    6.5791   -8.8171  -12.3832 C   0  0  0  0  0  0  0  0  0  0  0  0
   11.6981   -9.4944  -11.7961 C   0  0  0  0  0  0  0  0  0  0  0  0
    4.8768  -10.4062  -11.9945 C   0  0  0  0  0  0  0  0  0  0  0  0
    7.0373  -10.6761  -11.0305 C   0  0  0  0  0  0  0  0  0  0  0  0
   12.5651  -10.2003  -10.7393 C   0  0  0  0  0  0  0  0  0  0  0  0
   12.0410  -11.6380  -10.5642 C   0  0  0  0  0  0  0  0  0  0  0  0
   12.2999  -12.1100   -8.2076 C   0  0  0  0  0  0  0  0  0  0  0  0
  1 23  1  0  0  0  0
  1 24  1  0  0  0  0
  1  2  1  0  0  0  0
  3  4  1  0  0  0  0
  3 17  1  0  0  0  0
  4  6  2  0  0  0  0
  4 13  1  0  0  0  0
  5 10  1  0  0  0  0
  5 14  2  0  0  0  0
  6  8  1  0  0  0  0
  7 12  1  0  0  0  0
  7 14  1  0  0  0  0
  7 19  1  0  0  0  0
  8 10  2  0  0  0  0
  9 14  1  0  0  0  0
 10 12  1  0  0  0  0
 11 18  1  0  0  0  0
 11 20  1  0  0  0  0
 11 21  1  0  0  0  0
 12 13  2  0  0  0  0
 13 15  1  0  0  0  0
 15 16  1  0  0  0  0
 16 17  1  0  0  0  0
 16 18  1  6  0  0  0
 19 22  1  0  0  0  0
 22 23  1  0  0  0  0
M  END
>  <CHROM.1>
-155.75372377,-128.38455804,155.68740488,99.43973920,179.62407379,-179.02037024
10.21903348,-8.52281180,-11.48355207,0.71811674,0.04480702,2.81583095

>  <Name>
ligand

>  <RI>
0

>  <Rbt.Current_Directory>
/home/itssahil/PROJECTS/Mol_Feturizer/New_Systems/rnas/3TZR

>  <Rbt.Executable>
rbdock ($Id: //depot/dev/client3/rdock/2013.1/src/exe/rbdock.cxx#4 $)

>  <Rbt.Library>
libRbt.so (2013.1, Build901 2013/11/27)

>  <Rbt.Parameter_File>
/export/apps/rDock/src/rDock_2013.1_src/data/scripts/dock_solv.prm

>  <Rbt.Receptor>
prm/pocket_docking_6.prm

>  <SCORE>
-29.1601

>  <SCORE.INTER>
-20.4641

>  <SCORE.INTER.CONST>
1

>  <SCORE.INTER.POLAR>
0

>  <SCORE.INTER.ROT>
6

>  <SCORE.INTER.SOLV>
21.2229

>  <SCORE.INTER.VDW>
-28.317

>  <SCORE.INTER.norm>
-0.852669

>  <SCORE.INTRA>
-8.69603

>  <SCORE.INTRA.DIHEDRAL>
1.89285

>  <SCORE.INTRA.DIHEDRAL.0>
4.94008

>  <SCORE.INTRA.POLAR>
0

>  <SCORE.INTRA.POLAR.0>
0

>  <SCORE.INTRA.REPUL>
0

>  <SCORE.INTRA.REPUL.0>
0

>  <SCORE.INTRA.SOLV>
0.92288

>  <SCORE.INTRA.SOLV.lig_0>
-31.4704

>  <SCORE.INTRA.VDW>
-10.1039

>  <SCORE.INTRA.VDW.0>
10.2807

>  <SCORE.INTRA.norm>
-0.362334

>  <SCORE.RESTR>
0

>  <SCORE.RESTR.CAVITY>
0

>  <SCORE.RESTR.norm>
0

>  <SCORE.SYSTEM>
0

>  <SCORE.SYSTEM.CONST>
0

>  <SCORE.SYSTEM.DIHEDRAL>
0

>  <SCORE.SYSTEM.SOLV>
0

>  <SCORE.SYSTEM.norm>
0

>  <SCORE.heavy>
24

>  <SCORE.norm>
-1.215

>  <RMSD>
5.357

$$$$
ligand
 OpenBabel11021811493D
libRbt.so/2013.1/901 2013/11/27
 24 26  0  0  0  0  0  0  0  0999 V2000
   12.7898  -12.4329   -9.5235 N   0  0  0  0  0  0  0  0  0  0  0  0
   12.7178  -13.8594   -9.7958 C   0  0  0  0  0  0  0  0  0  0  0  0
    7.8495   -5.3978  -11.7615 O   0  0  0  0  0  0  0  0  0  0  0  0
    9.2093   -5.5955  -11.9602 C   0  0  0  0  0  0  0  0  0  0  0  0
   13.3769   -6.3777  -12.4879 N   0  0  0  0  0  0  0  0  0  0  0  0
   10.1349   -4.4430  -12.2465 C   0  0  0  0  0  0  0  0  0  0  0  0
   12.0695   -8.1585  -12.0815 N   0  0  0  0  0  0  0  0  0  0  0  0
   11.5453   -4.6169  -12.4275 C   0  0  0  0  0  0  0  0  0  0  0  0
   14.5162   -8.5930  -12.3999 N   0  0  0  0  0  0  0  0  0  0  0  0
   12.0458   -5.9641  -12.3378 C   0  0  0  0  0  0  0  0  0  0  0  0
    6.0293   -9.7392  -11.3986 N   0  0  0  0  0  0  0  0  0  0  0  0
   11.1704   -7.0759  -12.0801 C   0  0  0  0  0  0  0  0  0  0  0  0
    9.7123   -6.8470  -11.8868 C   0  0  0  0  0  0  0  0  0  0  0  0
   13.3717   -7.7320  -12.3198 C   0  0  0  0  0  0  0  0  0  0  0  0
    8.8062   -8.0313  -11.6063 C   0  0  0  0  0  0  0  0  0  0  0  0
    7.3123   -7.7297  -11.6573 C   0  0  1  0  0  0  0  0  0  0  0  0
    7.0133   -6.3845  -12.2546 C   0  0  0  0  0  0  0  0  0  0  0  0
    6.5816   -8.8401  -12.3971 C   0  0  0  0  0  0  0  0  0  0  0  0
   11.6923   -9.5530  -11.7808 C   0  0  0  0  0  0  0  0  0  0  0  0
    4.8761  -10.4172  -11.9752 C   0  0  0  0  0  0  0  0  0  0  0  0
    7.0587  -10.7129  -11.0702 C   0  0  0  0  0  0  0  0  0  0  0  0
   12.5580  -10.2579  -10.7223 C   0  0  0  0  0  0  0  0  0  0  0  0
   12.0123  -11.6841  -10.5211 C   0  0  0  0  0  0  0  0  0  0  0  0
   12.2822  -12.2028   -8.1756 C   0  0  0  0  0  0  0  0  0  0  0  0
  1 23  1  0  0  0  0
  1 24  1  0  0  0  0
  1  2  1  0  0  0  0
  3  4  1  0  0  0  0
  3 17  1  0  0  0  0
  4  6  2  0  0  0  0
  4 13  1  0  0  0  0
  5 10  1  0  0  0  0
  5 14  2  0  0  0  0
  6  8  1  0  0  0  0
  7 12  1  0  0  0  0
  7 14  1  0  0  0  0
  7 19  1  0  0  0  0
  8 10  2  0  0  0  0
  9 14  1  0  0  0  0
 10 12  1  0  0  0  0
 11 18  1  0  0  0  0
 11 20  1  0  0  0  0
 11 21  1  0  0  0  0
 12 13  2  0  0  0  0
 13 15  1  0  0  0  0
 15 16  1  0  0  0  0
 16 17  1  0  0  0  0
 16 18  1  6  0  0  0
 19 22  1  0  0  0  0
 22 23  1  0  0  0  0
M  END
>  <CHROM.1>
-152.53745887,-128.97899952,154.61094084,97.97222017,179.12838460,179.79146909
10.22945909,-8.57219155,-11.49360320,0.73443186,0.04512954,2.80824509

>  <Name>
ligand

>  <RI>
0

>  <Rbt.Current_Directory>
/home/itssahil/PROJECTS/Mol_Feturizer/New_Systems/rnas/3TZR

>  <Rbt.Executable>
rbdock ($Id: //depot/dev/client3/rdock/2013.1/src/exe/rbdock.cxx#4 $)

>  <Rbt.Library>
libRbt.so (2013.1, Build901 2013/11/27)

>  <Rbt.Parameter_File>
/export/apps/rDock/src/rDock_2013.1_src/data/scripts/dock_solv.prm

>  <Rbt.Receptor>
prm/pocket_docking_7.prm

>  <SCORE>
-29.0446

>  <SCORE.INTER>
-20.278

>  <SCORE.INTER.CONST>
1

>  <SCORE.INTER.POLAR>
0

>  <SCORE.INTER.ROT>
6

>  <SCORE.INTER.SOLV>
20.8289

>  <SCORE.INTER.VDW>
-28.0616

>  <SCORE.INTER.norm>
-0.844915

>  <SCORE.INTRA>
-8.76733

>  <SCORE.INTRA.DIHEDRAL>
1.98033

>  <SCORE.INTRA.DIHEDRAL.0>
4.94008

>  <SCORE.INTRA.POLAR>
0

>  <SCORE.INTRA.POLAR.0>
0

>  <SCORE.INTRA.REPUL>
0

>  <SCORE.INTRA.REPUL.0>
0

>  <SCORE.INTRA.SOLV>
0.934289

>  <SCORE.INTRA.SOLV.lig_0>
-31.4704

>  <SCORE.INTRA.VDW>
-10.2246

>  <SCORE.INTRA.VDW.0>
10.2807

>  <SCORE.INTRA.norm>
-0.365306

>  <SCORE.RESTR>
0.000685228

>  <SCORE.RESTR.CAVITY>
0.000685228

>  <SCORE.RESTR.norm>
2.85512e-05

>  <SCORE.SYSTEM>
0

>  <SCORE.SYSTEM.CONST>
0

>  <SCORE.SYSTEM.DIHEDRAL>
0

>  <SCORE.SYSTEM.SOLV>
0

>  <SCORE.SYSTEM.norm>
0

>  <SCORE.heavy>
24

>  <SCORE.norm>
-1.21019

>  <RMSD>
5.358

$$$$
ligand
 OpenBabel11021811493D
libRbt.so/2013.1/901 2013/11/27
 24 26  0  0  0  0  0  0  0  0999 V2000
   12.5583  -12.6035   -9.1740 N   0  0  0  0  0  0  0  0  0  0  0  0
   12.1643  -14.0007   -9.0911 C   0  0  0  0  0  0  0  0  0  0  0  0
    7.9852   -5.6957  -11.7752 O   0  0  0  0  0  0  0  0  0  0  0  0
    9.3285   -5.9414  -12.0262 C   0  0  0  0  0  0  0  0  0  0  0  0
   13.4440   -6.8674  -12.7070 N   0  0  0  0  0  0  0  0  0  0  0  0
   10.2718   -4.8292  -12.4002 C   0  0  0  0  0  0  0  0  0  0  0  0
   12.1074   -8.5911  -12.1706 N   0  0  0  0  0  0  0  0  0  0  0  0
   11.6670   -5.0519  -12.6367 C   0  0  0  0  0  0  0  0  0  0  0  0
   14.5239   -9.1104  -12.5798 N   0  0  0  0  0  0  0  0  0  0  0  0
   12.1333   -6.4088  -12.5147 C   0  0  0  0  0  0  0  0  0  0  0  0
    5.9977   -9.9174  -11.1542 N   0  0  0  0  0  0  0  0  0  0  0  0
   11.2399   -7.4831  -12.1731 C   0  0  0  0  0  0  0  0  0  0  0  0
    9.7992   -7.2035  -11.9244 C   0  0  0  0  0  0  0  0  0  0  0  0
   13.4088   -8.2132  -12.4838 C   0  0  0  0  0  0  0  0  0  0  0  0
    8.8741   -8.3483  -11.5558 C   0  0  0  0  0  0  0  0  0  0  0  0
    7.3884   -8.0047  -11.5524 C   0  0  1  0  0  0  0  0  0  0  0  0
    7.1001   -6.6757  -12.1901 C   0  0  0  0  0  0  0  0  0  0  0  0
    6.5939   -9.1211  -12.2130 C   0  0  0  0  0  0  0  0  0  0  0  0
   11.7056   -9.9609  -11.7968 C   0  0  0  0  0  0  0  0  0  0  0  0
    4.7930  -10.5496  -11.6747 C   0  0  0  0  0  0  0  0  0  0  0  0
    6.9642  -10.9367  -10.7770 C   0  0  0  0  0  0  0  0  0  0  0  0
   12.5242  -10.6035  -10.6638 C   0  0  0  0  0  0  0  0  0  0  0  0
   11.8646  -11.9440  -10.2894 C   0  0  0  0  0  0  0  0  0  0  0  0
   12.2388  -11.9666   -7.9013 C   0  0  0  0  0  0  0  0  0  0  0  0
  1 23  1  0  0  0  0
  1 24  1  0  0  0  0
  1  2  1  0  0  0  0
  3  4  1  0  0  0  0
  3 17  1  0  0  0  0
  4  6  2  0  0  0  0
  4 13  1  0  0  0  0
  5 10  1  0  0  0  0
  5 14  2  0  0  0  0
  6  8  1  0  0  0  0
  7 12  1  0  0  0  0
  7 14  1  0  0  0  0
  7 19  1  0  0  0  0
  8 10  2  0  0  0  0
  9 14  1  0  0  0  0
 10 12  1  0  0  0  0
 11 18  1  0  0  0  0
 11 20  1  0  0  0  0
 11 21  1  0  0  0  0
 12 13  2  0  0  0  0
 13 15  1  0  0  0  0
 15 16  1  0  0  0  0
 16 17  1  0  0  0  0
 16 18  1  6  0  0  0
 19 22  1  0  0  0  0
 22 23  1  0  0  0  0
M  END
>  <CHROM.1>
-164.08112881,-123.91514351,153.61863743,101.27421819,173.07469451,-177.84980659
10.22123476,-8.87247387,-11.42183546,0.71827847,0.00605920,2.72249384

>  <Name>
ligand

>  <RI>
144

>  <Rbt.Current_Directory>
/home/itssahil/PROJECTS/Mol_Feturizer/New_Systems/rnas/3TZR

>  <Rbt.Executable>
rbdock ($Id: //depot/dev/client3/rdock/2013.1/src/exe/rbdock.cxx#4 $)

>  <Rbt.Library>
libRbt.so (2013.1, Build901 2013/11/27)

>  <Rbt.Parameter_File>
/export/apps/rDock/src/rDock_2013.1_src/data/scripts/dock_solv.prm

>  <Rbt.Receptor>
prm/blind_docking_60.prm

>  <SCORE>
-27.8894

>  <SCORE.INTER>
-19.1731

>  <SCORE.INTER.CONST>
1

>  <SCORE.INTER.POLAR>
0

>  <SCORE.INTER.ROT>
6

>  <SCORE.INTER.SOLV>
20.0159

>  <SCORE.INTER.VDW>
-27.0541

>  <SCORE.INTER.norm>
-0.79888

>  <SCORE.INTRA>
-8.71626

>  <SCORE.INTRA.DIHEDRAL>
1.94576

>  <SCORE.INTRA.DIHEDRAL.0>
4.94008

>  <SCORE.INTRA.POLAR>
0

>  <SCORE.INTRA.POLAR.0>
0

>  <SCORE.INTRA.REPUL>
0

>  <SCORE.INTRA.REPUL.0>
0

>  <SCORE.INTRA.SOLV>
0.732187

>  <SCORE.INTRA.SOLV.lig_0>
-31.4704

>  <SCORE.INTRA.VDW>
-10.0552

>  <SCORE.INTRA.VDW.0>
10.2807

>  <SCORE.INTRA.norm>
-0.363177

>  <SCORE.RESTR>
0

>  <SCORE.RESTR.CAVITY>
0

>  <SCORE.RESTR.norm>
0

>  <SCORE.SYSTEM>
0

>  <SCORE.SYSTEM.CONST>
0

>  <SCORE.SYSTEM.DIHEDRAL>
0

>  <SCORE.SYSTEM.SOLV>
0

>  <SCORE.SYSTEM.norm>
0

>  <SCORE.heavy>
24

>  <SCORE.norm>
-1.16206

>  <RMSD>
5.359

$$$$
ligand
 OpenBabel11021811493D
libRbt.so/2013.1/901 2013/11/27
 24 26  0  0  0  0  0  0  0  0999 V2000
   12.1489  -13.2653  -11.9437 N   0  0  0  0  0  0  0  0  0  0  0  0
   11.3128  -14.3933  -12.3217 C   0  0  0  0  0  0  0  0  0  0  0  0
    9.2348   -5.2451  -11.7068 O   0  0  0  0  0  0  0  0  0  0  0  0
   10.4650   -5.8099  -12.0160 C   0  0  0  0  0  0  0  0  0  0  0  0
   14.1887   -7.7144  -12.8906 N   0  0  0  0  0  0  0  0  0  0  0  0
   11.6661   -4.9539  -12.3185 C   0  0  0  0  0  0  0  0  0  0  0  0
   12.4480   -9.0698  -12.4683 N   0  0  0  0  0  0  0  0  0  0  0  0
   12.9524   -5.5114  -12.6128 C   0  0  0  0  0  0  0  0  0  0  0  0
   14.6408  -10.1638  -12.9892 N   0  0  0  0  0  0  0  0  0  0  0  0
   13.0458   -6.9483  -12.6222 C   0  0  0  0  0  0  0  0  0  0  0  0
    7.2406   -9.5371  -12.1280 N   0  0  0  0  0  0  0  0  0  0  0  0
   11.9026   -7.7779  -12.3501 C   0  0  0  0  0  0  0  0  0  0  0  0
   10.5874   -7.1549  -12.0375 C   0  0  0  0  0  0  0  0  0  0  0  0
   13.8016   -9.0186  -12.7842 C   0  0  0  0  0  0  0  0  0  0  0  0
    9.3954   -8.0465  -11.7436 C   0  0  0  0  0  0  0  0  0  0  0  0
    8.0525   -7.3279  -11.6684 C   0  0  1  0  0  0  0  0  0  0  0  0
    8.1212   -5.9173  -12.1799 C   0  0  0  0  0  0  0  0  0  0  0  0
    6.9893   -8.1324  -12.4007 C   0  0  0  0  0  0  0  0  0  0  0  0
   11.7016  -10.3148  -12.2036 C   0  0  0  0  0  0  0  0  0  0  0  0
    6.5484   -9.8998  -10.8987 C   0  0  0  0  0  0  0  0  0  0  0  0
    6.6999  -10.3018  -13.2409 C   0  0  0  0  0  0  0  0  0  0  0  0
   12.0343  -11.0147  -10.8746 C   0  0  0  0  0  0  0  0  0  0  0  0
   11.4718  -12.4476  -10.9272 C   0  0  0  0  0  0  0  0  0  0  0  0
   13.4159  -13.7877  -11.4446 C   0  0  0  0  0  0  0  0  0  0  0  0
  1 23  1  0  0  0  0
  1 24  1  0  0  0  0
  1  2  1  0  0  0  0
  3  4  1  0  0  0  0
  3 17  1  0  0  0  0
  4  6  2  0  0  0  0
  4 13  1  0  0  0  0
  5 10  1  0  0  0  0
  5 14  2  0  0  0  0
  6  8  1  0  0  0  0
  7 12  1  0  0  0  0
  7 14  1  0  0  0  0
  7 19  1  0  0  0  0
  8 10  2  0  0  0  0
  9 14  1  0  0  0  0
 10 12  1  0  0  0  0
 11 18  1  0  0  0  0
 11 20  1  0  0  0  0
 11 21  1  0  0  0  0
 12 13  2  0  0  0  0
 13 15  1  0  0  0  0
 15 16  1  0  0  0  0
 16 17  1  0  0  0  0
 16 18  1  6  0  0  0
 19 22  1  0  0  0  0
 22 23  1  0  0  0  0
M  END
>  <CHROM.1>
-158.77782916,-104.51146498,87.61873117,38.48951187,-165.10935068,65.72550583
10.76531665,-9.02157811,-12.10068488,1.00986601,-0.07399825,3.06929901

>  <Name>
ligand

>  <RI>
0

>  <Rbt.Current_Directory>
/home/itssahil/PROJECTS/Mol_Feturizer/New_Systems/rnas/3TZR

>  <Rbt.Executable>
rbdock ($Id: //depot/dev/client3/rdock/2013.1/src/exe/rbdock.cxx#4 $)

>  <Rbt.Library>
libRbt.so (2013.1, Build901 2013/11/27)

>  <Rbt.Parameter_File>
/export/apps/rDock/src/rDock_2013.1_src/data/scripts/dock_solv.prm

>  <Rbt.Receptor>
prm/pocket_docking_6.prm

>  <SCORE>
-27.7742

>  <SCORE.INTER>
-19.2559

>  <SCORE.INTER.CONST>
1

>  <SCORE.INTER.POLAR>
0

>  <SCORE.INTER.ROT>
6

>  <SCORE.INTER.SOLV>
19.8484

>  <SCORE.INTER.VDW>
-27.0534

>  <SCORE.INTER.norm>
-0.80233

>  <SCORE.INTRA>
-8.51831

>  <SCORE.INTRA.DIHEDRAL>
0.342807

>  <SCORE.INTRA.DIHEDRAL.0>
4.94008

>  <SCORE.INTRA.POLAR>
0

>  <SCORE.INTRA.POLAR.0>
0

>  <SCORE.INTRA.REPUL>
0

>  <SCORE.INTRA.REPUL.0>
0

>  <SCORE.INTRA.SOLV>
1.75502

>  <SCORE.INTRA.SOLV.lig_0>
-31.4704

>  <SCORE.INTRA.VDW>
-9.56723

>  <SCORE.INTRA.VDW.0>
10.2807

>  <SCORE.INTRA.norm>
-0.35493

>  <SCORE.RESTR>
0

>  <SCORE.RESTR.CAVITY>
0

>  <SCORE.RESTR.norm>
0

>  <SCORE.SYSTEM>
0

>  <SCORE.SYSTEM.CONST>
0

>  <SCORE.SYSTEM.DIHEDRAL>
0

>  <SCORE.SYSTEM.SOLV>
0

>  <SCORE.SYSTEM.norm>
0

>  <SCORE.heavy>
24

>  <SCORE.norm>
-1.15726

>  <RMSD>
5.360

$$$$
ligand
 OpenBabel11021811493D
libRbt.so/2013.1/901 2013/11/27
 24 26  0  0  0  0  0  0  0  0999 V2000
   12.9182  -12.2171   -9.4054 N   0  0  0  0  0  0  0  0  0  0  0  0
   13.1270  -13.6219   -9.7174 C   0  0  0  0  0  0  0  0  0  0  0  0
    7.7841   -5.4477  -11.7265 O   0  0  0  0  0  0  0  0  0  0  0  0
    9.1402   -5.6098  -11.9768 C   0  0  0  0  0  0  0  0  0  0  0  0
   13.3048   -6.2806  -12.6582 N   0  0  0  0  0  0  0  0  0  0  0  0
   10.0174   -4.4378  -12.3284 C   0  0  0  0  0  0  0  0  0  0  0  0
   12.0705   -8.0888  -12.1559 N   0  0  0  0  0  0  0  0  0  0  0  0
   11.4239   -4.5741  -12.5636 C   0  0  0  0  0  0  0  0  0  0  0  0
   14.5144   -8.4581  -12.5651 N   0  0  0  0  0  0  0  0  0  0  0  0
   11.9689   -5.9031  -12.4629 C   0  0  0  0  0  0  0  0  0  0  0  0
    6.0712   -9.8045  -11.1844 N   0  0  0  0  0  0  0  0  0  0  0  0
   11.1393   -7.0337  -12.1428 C   0  0  0  0  0  0  0  0  0  0  0  0
    9.6840   -6.8436  -11.8947 C   0  0  0  0  0  0  0  0  0  0  0  0
   13.3482   -7.6298  -12.4580 C   0  0  0  0  0  0  0  0  0  0  0  0
    8.8269   -8.0469  -11.5489 C   0  0  0  0  0  0  0  0  0  0  0  0
    7.3236   -7.7913  -11.5450 C   0  0  1  0  0  0  0  0  0  0  0  0
    6.9592   -6.4708  -12.1611 C   0  0  0  0  0  0  0  0  0  0  0  0
    6.5979   -8.9410  -12.2274 C   0  0  0  0  0  0  0  0  0  0  0  0
   11.7489   -9.4860  -11.8069 C   0  0  0  0  0  0  0  0  0  0  0  0
    4.9364  -10.5411  -11.7243 C   0  0  0  0  0  0  0  0  0  0  0  0
    7.1271  -10.7324  -10.8108 C   0  0  0  0  0  0  0  0  0  0  0  0
   12.5808  -10.0890  -10.6619 C   0  0  0  0  0  0  0  0  0  0  0  0
   12.1664  -11.5619  -10.4852 C   0  0  0  0  0  0  0  0  0  0  0  0
   12.2018  -12.1364   -8.1375 C   0  0  0  0  0  0  0  0  0  0  0  0
  1 23  1  0  0  0  0
  1 24  1  0  0  0  0
  1  2  1  0  0  0  0
  3  4  1  0  0  0  0
  3 17  1  0  0  0  0
  4  6  2  0  0  0  0
  4 13  1  0  0  0  0
  5 10  1  0  0  0  0
  5 14  2  0  0  0  0
  6  8  1  0  0  0  0
  7 12  1  0  0  0  0
  7 14  1  0  0  0  0
  7 19  1  0  0  0  0
  8 10  2  0  0  0  0
  9 14  1  0  0  0  0
 10 12  1  0  0  0  0
 11 18  1  0  0  0  0
 11 20  1  0  0  0  0
 11 21  1  0  0  0  0
 12 13  2  0  0  0  0
 13 15  1  0  0  0  0
 15 16  1  0  0  0  0
 16 17  1  0  0  0  0
 16 18  1  6  0  0  0
 19 22  1  0  0  0  0
 22 23  1  0  0  0  0
M  END
>  <CHROM.1>
-147.16676456,-122.67785857,155.76321953,100.07528149,-177.04762980,179.96127379
10.24399237,-8.53481615,-11.46608104,0.69569317,0.01475328,2.77415814

>  <Name>
ligand

>  <RI>
0

>  <Rbt.Current_Directory>
/home/itssahil/PROJECTS/Mol_Feturizer/New_Systems/rnas/3TZR

>  <Rbt.Executable>
rbdock ($Id: //depot/dev/client3/rdock/2013.1/src/exe/rbdock.cxx#4 $)

>  <Rbt.Library>
libRbt.so (2013.1, Build901 2013/11/27)

>  <Rbt.Parameter_File>
/export/apps/rDock/src/rDock_2013.1_src/data/scripts/dock_solv.prm

>  <Rbt.Receptor>
prm/pocket_docking_5.prm

>  <SCORE>
-29.0303

>  <SCORE.INTER>
-20.1962

>  <SCORE.INTER.CONST>
1

>  <SCORE.INTER.POLAR>
0

>  <SCORE.INTER.ROT>
6

>  <SCORE.INTER.SOLV>
22.0662

>  <SCORE.INTER.VDW>
-28.4195

>  <SCORE.INTER.norm>
-0.841507

>  <SCORE.INTRA>
-8.83418

>  <SCORE.INTRA.DIHEDRAL>
2.48899

>  <SCORE.INTRA.DIHEDRAL.0>
4.94008

>  <SCORE.INTRA.POLAR>
0

>  <SCORE.INTRA.POLAR.0>
0

>  <SCORE.INTRA.REPUL>
0

>  <SCORE.INTRA.REPUL.0>
0

>  <SCORE.INTRA.SOLV>
0.809277

>  <SCORE.INTRA.SOLV.lig_0>
-31.4704

>  <SCORE.INTRA.VDW>
-10.4833

>  <SCORE.INTRA.VDW.0>
10.2807

>  <SCORE.INTRA.norm>
-0.368091

>  <SCORE.RESTR>
0

>  <SCORE.RESTR.CAVITY>
0

>  <SCORE.RESTR.norm>
0

>  <SCORE.SYSTEM>
0

>  <SCORE.SYSTEM.CONST>
0

>  <SCORE.SYSTEM.DIHEDRAL>
0

>  <SCORE.SYSTEM.SOLV>
0

>  <SCORE.SYSTEM.norm>
0

>  <SCORE.heavy>
24

>  <SCORE.norm>
-1.2096

>  <RMSD>
5.367

$$$$
ligand
 OpenBabel11021811493D
libRbt.so/2013.1/901 2013/11/27
 24 26  0  0  0  0  0  0  0  0999 V2000
   12.5407  -10.6968  -12.6083 N   0  0  0  0  0  0  0  0  0  0  0  0
   12.0475  -10.9924  -11.2727 C   0  0  0  0  0  0  0  0  0  0  0  0
    6.5747   -6.4854  -11.9589 O   0  0  0  0  0  0  0  0  0  0  0  0
    7.8154   -5.9036  -12.1822 C   0  0  0  0  0  0  0  0  0  0  0  0
   11.7166   -4.2699  -12.7908 N   0  0  0  0  0  0  0  0  0  0  0  0
    7.9528   -4.4272  -12.4431 C   0  0  0  0  0  0  0  0  0  0  0  0
   11.6061   -6.4834  -12.4253 N   0  0  0  0  0  0  0  0  0  0  0  0
    9.2233   -3.7982  -12.6486 C   0  0  0  0  0  0  0  0  0  0  0  0
   13.8827   -5.5034  -12.7904 N   0  0  0  0  0  0  0  0  0  0  0  0
   10.3806   -4.6542  -12.6095 C   0  0  0  0  0  0  0  0  0  0  0  0
    6.0737  -10.6554  -12.4664 N   0  0  0  0  0  0  0  0  0  0  0  0
   10.2622   -6.0686  -12.3765 C   0  0  0  0  0  0  0  0  0  0  0  0
    8.9220   -6.6779  -12.1563 C   0  0  0  0  0  0  0  0  0  0  0  0
   12.4566   -5.4097  -12.6669 C   0  0  0  0  0  0  0  0  0  0  0  0
    8.8182   -8.1701  -11.9025 C   0  0  0  0  0  0  0  0  0  0  0  0
    7.4012   -8.7333  -11.9236 C   0  0  1  0  0  0  0  0  0  0  0  0
    6.3990   -7.7586  -12.4728 C   0  0  0  0  0  0  0  0  0  0  0  0
    7.3742  -10.0474  -12.6894 C   0  0  0  0  0  0  0  0  0  0  0  0
   12.0604   -7.8630  -12.1652 C   0  0  0  0  0  0  0  0  0  0  0  0
    5.8064  -11.5860  -13.5547 C   0  0  0  0  0  0  0  0  0  0  0  0
    6.1397  -11.3784  -11.2061 C   0  0  0  0  0  0  0  0  0  0  0  0
   13.2463   -8.3403  -13.0212 C   0  0  0  0  0  0  0  0  0  0  0  0
   13.6579   -9.7441  -12.5393 C   0  0  0  0  0  0  0  0  0  0  0  0
   12.9529  -11.9517  -13.2270 C   0  0  0  0  0  0  0  0  0  0  0  0
  1 23  1  0  0  0  0
  1 24  1  0  0  0  0
  1  2  1  0  0  0  0
  3  4  1  0  0  0  0
  3 17  1  0  0  0  0
  4  6  2  0  0  0  0
  4 13  1  0  0  0  0
  5 10  1  0  0  0  0
  5 14  2  0  0  0  0
  6  8  1  0  0  0  0
  7 12  1  0  0  0  0
  7 14  1  0  0  0  0
  7 19  1  0  0  0  0
  8 10  2  0  0  0  0
  9 14  1  0  0  0  0
 10 12  1  0  0  0  0
 11 18  1  0  0  0  0
 11 20  1  0  0  0  0
 11 21  1  0  0  0  0
 12 13  2  0  0  0  0
 13 15  1  0  0  0  0
 15 16  1  0  0  0  0
 16 17  1  0  0  0  0
 16 18  1  6  0  0  0
 19 22  1  0  0  0  0
 22 23  1  0  0  0  0
M  END
>  <CHROM.1>
-106.88508791,144.16768537,157.54375184,169.57492483,175.36629647,57.28133649
9.79512410,-7.96040549,-12.41727464,-0.50373813,-0.04686230,3.13529935

>  <Name>
ligand

>  <RI>
0

>  <Rbt.Current_Directory>
/home/itssahil/PROJECTS/Mol_Feturizer/New_Systems/rnas/3TZR

>  <Rbt.Executable>
rbdock ($Id: //depot/dev/client3/rdock/2013.1/src/exe/rbdock.cxx#4 $)

>  <Rbt.Library>
libRbt.so (2013.1, Build901 2013/11/27)

>  <Rbt.Parameter_File>
/export/apps/rDock/src/rDock_2013.1_src/data/scripts/dock_solv.prm

>  <Rbt.Receptor>
prm/blind_docking_100.prm

>  <SCORE>
-24.7294

>  <SCORE.INTER>
-15.4726

>  <SCORE.INTER.CONST>
1

>  <SCORE.INTER.POLAR>
0

>  <SCORE.INTER.ROT>
6

>  <SCORE.INTER.SOLV>
23.6168

>  <SCORE.INTER.VDW>
-25.7873

>  <SCORE.INTER.norm>
-0.64469

>  <SCORE.INTRA>
-9.25684

>  <SCORE.INTRA.DIHEDRAL>
-0.377617

>  <SCORE.INTRA.DIHEDRAL.0>
4.94008

>  <SCORE.INTRA.POLAR>
0

>  <SCORE.INTRA.POLAR.0>
0

>  <SCORE.INTRA.REPUL>
0

>  <SCORE.INTRA.REPUL.0>
0

>  <SCORE.INTRA.SOLV>
1.5482

>  <SCORE.INTRA.SOLV.lig_0>
-31.4704

>  <SCORE.INTRA.VDW>
-9.84213

>  <SCORE.INTRA.VDW.0>
10.2807

>  <SCORE.INTRA.norm>
-0.385702

>  <SCORE.RESTR>
0

>  <SCORE.RESTR.CAVITY>
0

>  <SCORE.RESTR.norm>
0

>  <SCORE.SYSTEM>
0

>  <SCORE.SYSTEM.CONST>
0

>  <SCORE.SYSTEM.DIHEDRAL>
0

>  <SCORE.SYSTEM.SOLV>
0

>  <SCORE.SYSTEM.norm>
0

>  <SCORE.heavy>
24

>  <SCORE.norm>
-1.03039

>  <RMSD>
5.379

$$$$
ligand
 OpenBabel11021811493D
libRbt.so/2013.1/901 2013/11/27
 24 26  0  0  0  0  0  0  0  0999 V2000
   12.8387  -11.5579  -11.2408 N   0  0  0  0  0  0  0  0  0  0  0  0
   13.8444  -12.5745  -11.5043 C   0  0  0  0  0  0  0  0  0  0  0  0
    7.3694   -5.1065  -11.7018 O   0  0  0  0  0  0  0  0  0  0  0  0
    8.7377   -5.1553  -11.9321 C   0  0  0  0  0  0  0  0  0  0  0  0
   12.9508   -5.4837  -12.5652 N   0  0  0  0  0  0  0  0  0  0  0  0
    9.5360   -3.9025  -12.1774 C   0  0  0  0  0  0  0  0  0  0  0  0
   11.8387   -7.4053  -12.2241 N   0  0  0  0  0  0  0  0  0  0  0  0
   10.9525   -3.9232  -12.3897 C   0  0  0  0  0  0  0  0  0  0  0  0
   14.3095   -7.5732  -12.6032 N   0  0  0  0  0  0  0  0  0  0  0  0
   11.5883   -5.2152  -12.3735 C   0  0  0  0  0  0  0  0  0  0  0  0
    5.9970   -9.6189  -11.5192 N   0  0  0  0  0  0  0  0  0  0  0  0
   10.8352   -6.4211  -12.1556 C   0  0  0  0  0  0  0  0  0  0  0  0
    9.3659   -6.3511  -11.9276 C   0  0  0  0  0  0  0  0  0  0  0  0
   13.0859   -6.8378  -12.4627 C   0  0  0  0  0  0  0  0  0  0  0  0
    8.5901   -7.6332  -11.6899 C   0  0  0  0  0  0  0  0  0  0  0  0
    7.0726   -7.4833  -11.7018 C   0  0  1  0  0  0  0  0  0  0  0  0
    6.6268   -6.1491  -12.2284 C   0  0  0  0  0  0  0  0  0  0  0  0
    6.4422   -8.6267  -12.4824 C   0  0  0  0  0  0  0  0  0  0  0  0
   11.6107   -8.8434  -11.9851 C   0  0  0  0  0  0  0  0  0  0  0  0
    4.9233  -10.3977  -12.1212 C   0  0  0  0  0  0  0  0  0  0  0  0
    7.1292  -10.4846  -11.2287 C   0  0  0  0  0  0  0  0  0  0  0  0
   12.3510   -9.7970  -12.9387 C   0  0  0  0  0  0  0  0  0  0  0  0
   12.0987  -11.2427  -12.4710 C   0  0  0  0  0  0  0  0  0  0  0  0
   11.9477  -12.0609  -10.2014 C   0  0  0  0  0  0  0  0  0  0  0  0
  1 23  1  0  0  0  0
  1 24  1  0  0  0  0
  1  2  1  0  0  0  0
  3  4  1  0  0  0  0
  3 17  1  0  0  0  0
  4  6  2  0  0  0  0
  4 13  1  0  0  0  0
  5 10  1  0  0  0  0
  5 14  2  0  0  0  0
  6  8  1  0  0  0  0
  7 12  1  0  0  0  0
  7 14  1  0  0  0  0
  7 19  1  0  0  0  0
  8 10  2  0  0  0  0
  9 14  1  0  0  0  0
 10 12  1  0  0  0  0
 11 18  1  0  0  0  0
 11 20  1  0  0  0  0
 11 21  1  0  0  0  0
 12 13  2  0  0  0  0
 13 15  1  0  0  0  0
 15 16  1  0  0  0  0
 16 17  1  0  0  0  0
 16 18  1  6  0  0  0
 19 22  1  0  0  0  0
 22 23  1  0  0  0  0
M  END
>  <CHROM.1>
-114.33299172,139.21517544,155.65409473,98.32720690,175.12472093,-72.76725853
10.04827722,-8.04535966,-11.97385800,0.49679523,-0.04542735,3.02370109

>  <Name>
ligand

>  <RI>
0

>  <Rbt.Current_Directory>
/home/itssahil/PROJECTS/Mol_Feturizer/New_Systems/rnas/3TZR

>  <Rbt.Executable>
rbdock ($Id: //depot/dev/client3/rdock/2013.1/src/exe/rbdock.cxx#4 $)

>  <Rbt.Library>
libRbt.so (2013.1, Build901 2013/11/27)

>  <Rbt.Parameter_File>
/export/apps/rDock/src/rDock_2013.1_src/data/scripts/dock_solv.prm

>  <Rbt.Receptor>
prm/blind_docking_80.prm

>  <SCORE>
-27.0259

>  <SCORE.INTER>
-19.0711

>  <SCORE.INTER.CONST>
1

>  <SCORE.INTER.POLAR>
0

>  <SCORE.INTER.ROT>
6

>  <SCORE.INTER.SOLV>
23.531

>  <SCORE.INTER.VDW>
-28.1577

>  <SCORE.INTER.norm>
-0.794628

>  <SCORE.INTRA>
-7.95801

>  <SCORE.INTRA.DIHEDRAL>
3.768

>  <SCORE.INTRA.DIHEDRAL.0>
4.94008

>  <SCORE.INTRA.POLAR>
0

>  <SCORE.INTRA.POLAR.0>
0

>  <SCORE.INTRA.REPUL>
0

>  <SCORE.INTRA.REPUL.0>
0

>  <SCORE.INTRA.SOLV>
1.30383

>  <SCORE.INTRA.SOLV.lig_0>
-31.4704

>  <SCORE.INTRA.VDW>
-10.4939

>  <SCORE.INTRA.VDW.0>
10.2807

>  <SCORE.INTRA.norm>
-0.331584

>  <SCORE.RESTR>
0.00317953

>  <SCORE.RESTR.CAVITY>
0.00317953

>  <SCORE.RESTR.norm>
0.00013248

>  <SCORE.SYSTEM>
0

>  <SCORE.SYSTEM.CONST>
0

>  <SCORE.SYSTEM.DIHEDRAL>
0

>  <SCORE.SYSTEM.SOLV>
0

>  <SCORE.SYSTEM.norm>
0

>  <SCORE.heavy>
24

>  <SCORE.norm>
-1.12608

>  <RMSD>
5.399

$$$$
ligand
 OpenBabel11021811493D
libRbt.so/2013.1/901 2013/11/27
 24 26  0  0  0  0  0  0  0  0999 V2000
   12.6217  -12.9348  -12.1656 N   0  0  0  0  0  0  0  0  0  0  0  0
   11.9992  -14.1094  -11.5765 C   0  0  0  0  0  0  0  0  0  0  0  0
    7.7189   -5.5707  -11.2576 O   0  0  0  0  0  0  0  0  0  0  0  0
    9.0217   -5.6814  -11.7249 C   0  0  0  0  0  0  0  0  0  0  0  0
   13.0558   -6.1734  -13.0449 N   0  0  0  0  0  0  0  0  0  0  0  0
    9.6967   -4.5416  -12.4407 C   0  0  0  0  0  0  0  0  0  0  0  0
   12.1243   -7.9311  -12.0018 N   0  0  0  0  0  0  0  0  0  0  0  0
   11.0486   -4.6206  -12.9076 C   0  0  0  0  0  0  0  0  0  0  0  0
   14.4874   -8.1979  -12.7897 N   0  0  0  0  0  0  0  0  0  0  0  0
   11.7406   -5.8614  -12.6732 C   0  0  0  0  0  0  0  0  0  0  0  0
    6.4525   -9.1302  -12.2873 N   0  0  0  0  0  0  0  0  0  0  0  0
   11.1025   -6.9634  -12.0043 C   0  0  0  0  0  0  0  0  0  0  0  0
    9.6992   -6.8328  -11.5254 C   0  0  0  0  0  0  0  0  0  0  0  0
   13.2756   -7.4503  -12.6164 C   0  0  0  0  0  0  0  0  0  0  0  0
    9.0463   -8.0028  -10.8134 C   0  0  0  0  0  0  0  0  0  0  0  0
    7.5473   -7.8596  -10.5731 C   0  0  1  0  0  0  0  0  0  0  0  0
    6.9451   -6.7156  -11.3376 C   0  0  0  0  0  0  0  0  0  0  0  0
    6.8416   -9.1699  -10.8882 C   0  0  0  0  0  0  0  0  0  0  0  0
   12.0171   -9.2518  -11.3524 C   0  0  0  0  0  0  0  0  0  0  0  0
    7.4796   -9.8026  -13.0714 C   0  0  0  0  0  0  0  0  0  0  0  0
    5.1923   -9.8457  -12.4109 C   0  0  0  0  0  0  0  0  0  0  0  0
   12.3404  -10.4579  -12.2511 C   0  0  0  0  0  0  0  0  0  0  0  0
   12.2787  -11.7339  -11.3906 C   0  0  0  0  0  0  0  0  0  0  0  0
   14.0637  -13.1524  -12.1937 C   0  0  0  0  0  0  0  0  0  0  0  0
  1 23  1  0  0  0  0
  1 24  1  0  0  0  0
  1  2  1  0  0  0  0
  3  4  1  0  0  0  0
  3 17  1  0  0  0  0
  4  6  2  0  0  0  0
  4 13  1  0  0  0  0
  5 10  1  0  0  0  0
  5 14  2  0  0  0  0
  6  8  1  0  0  0  0
  7 12  1  0  0  0  0
  7 14  1  0  0  0  0
  7 19  1  0  0  0  0
  8 10  2  0  0  0  0
  9 14  1  0  0  0  0
 10 12  1  0  0  0  0
 11 18  1  0  0  0  0
 11 20  1  0  0  0  0
 11 21  1  0  0  0  0
 12 13  2  0  0  0  0
 13 15  1  0  0  0  0
 15 16  1  0  0  0  0
 16 17  1  0  0  0  0
 16 18  1  6  0  0  0
 19 22  1  0  0  0  0
 22 23  1  0  0  0  0
M  END
>  <CHROM.1>
-154.17848899,126.97039774,95.51202523,-90.72273771,175.93949391,-178.05168876
10.28900273,-8.54594256,-11.96192427,0.73257365,-0.10861147,3.08571527

>  <Name>
ligand

>  <RI>
0

>  <Rbt.Current_Directory>
/home/itssahil/PROJECTS/Mol_Feturizer/New_Systems/rnas/3TZR

>  <Rbt.Executable>
rbdock ($Id: //depot/dev/client3/rdock/2013.1/src/exe/rbdock.cxx#4 $)

>  <Rbt.Library>
libRbt.so (2013.1, Build901 2013/11/27)

>  <Rbt.Parameter_File>
/export/apps/rDock/src/rDock_2013.1_src/data/scripts/dock_solv.prm

>  <Rbt.Receptor>
prm/pocket_docking_7.prm

>  <SCORE>
-19.277

>  <SCORE.INTER>
-11.0288

>  <SCORE.INTER.CONST>
1

>  <SCORE.INTER.POLAR>
0

>  <SCORE.INTER.ROT>
6

>  <SCORE.INTER.SOLV>
23.3849

>  <SCORE.INTER.VDW>
-22.7475

>  <SCORE.INTER.norm>
-0.459535

>  <SCORE.INTRA>
-8.24812

>  <SCORE.INTRA.DIHEDRAL>
1.5162

>  <SCORE.INTRA.DIHEDRAL.0>
4.94008

>  <SCORE.INTRA.POLAR>
0

>  <SCORE.INTRA.POLAR.0>
0

>  <SCORE.INTRA.REPUL>
0

>  <SCORE.INTRA.REPUL.0>
0

>  <SCORE.INTRA.SOLV>
1.13444

>  <SCORE.INTRA.SOLV.lig_0>
-31.4704

>  <SCORE.INTRA.VDW>
-9.57345

>  <SCORE.INTRA.VDW.0>
10.2807

>  <SCORE.INTRA.norm>
-0.343672

>  <SCORE.RESTR>
0

>  <SCORE.RESTR.CAVITY>
0

>  <SCORE.RESTR.norm>
0

>  <SCORE.SYSTEM>
0

>  <SCORE.SYSTEM.CONST>
0

>  <SCORE.SYSTEM.DIHEDRAL>
0

>  <SCORE.SYSTEM.SOLV>
0

>  <SCORE.SYSTEM.norm>
0

>  <SCORE.heavy>
24

>  <SCORE.norm>
-0.803207

>  <RMSD>
5.423

$$$$
ligand
 OpenBabel11021811493D
libRbt.so/2013.1/901 2013/11/27
 24 26  0  0  0  0  0  0  0  0999 V2000
   12.9239  -13.0440  -10.0758 N   0  0  0  0  0  0  0  0  0  0  0  0
   11.7933  -13.7246   -9.4653 C   0  0  0  0  0  0  0  0  0  0  0  0
    9.3157   -5.2561  -11.5804 O   0  0  0  0  0  0  0  0  0  0  0  0
   10.5237   -5.8492  -11.9220 C   0  0  0  0  0  0  0  0  0  0  0  0
   14.1719   -7.8432  -12.9087 N   0  0  0  0  0  0  0  0  0  0  0  0
   11.7620   -5.0256  -12.1569 C   0  0  0  0  0  0  0  0  0  0  0  0
   12.3727   -9.1501  -12.5924 N   0  0  0  0  0  0  0  0  0  0  0  0
   13.0264   -5.6148  -12.4829 C   0  0  0  0  0  0  0  0  0  0  0  0
   14.5222  -10.2964  -13.1773 N   0  0  0  0  0  0  0  0  0  0  0  0
   13.0597   -7.0502  -12.5931 C   0  0  0  0  0  0  0  0  0  0  0  0
    7.1482   -9.4199  -12.3150 N   0  0  0  0  0  0  0  0  0  0  0  0
   11.8807   -7.8478  -12.3863 C   0  0  0  0  0  0  0  0  0  0  0  0
   10.5901   -7.1934  -12.0377 C   0  0  0  0  0  0  0  0  0  0  0  0
   13.7298   -9.1341  -12.8966 C   0  0  0  0  0  0  0  0  0  0  0  0
    9.3595   -8.0522  -11.8139 C   0  0  0  0  0  0  0  0  0  0  0  0
    8.0471   -7.2846  -11.6954 C   0  0  1  0  0  0  0  0  0  0  0  0
    8.1790   -5.8458  -12.1058 C   0  0  0  0  0  0  0  0  0  0  0  0
    6.9575   -7.9901  -12.4885 C   0  0  0  0  0  0  0  0  0  0  0  0
   11.5727  -10.3780  -12.4203 C   0  0  0  0  0  0  0  0  0  0  0  0
    6.4716   -9.8309  -11.0923 C   0  0  0  0  0  0  0  0  0  0  0  0
    6.5428  -10.0834  -13.4590 C   0  0  0  0  0  0  0  0  0  0  0  0
   12.3726  -11.6431  -12.0645 C   0  0  0  0  0  0  0  0  0  0  0  0
   12.5259  -11.7050  -10.5332 C   0  0  0  0  0  0  0  0  0  0  0  0
   13.9946  -12.9692   -9.0883 C   0  0  0  0  0  0  0  0  0  0  0  0
  1 23  1  0  0  0  0
  1 24  1  0  0  0  0
  1  2  1  0  0  0  0
  3  4  1  0  0  0  0
  3 17  1  0  0  0  0
  4  6  2  0  0  0  0
  4 13  1  0  0  0  0
  5 10  1  0  0  0  0
  5 14  2  0  0  0  0
  6  8  1  0  0  0  0
  7 12  1  0  0  0  0
  7 14  1  0  0  0  0
  7 19  1  0  0  0  0
  8 10  2  0  0  0  0
  9 14  1  0  0  0  0
 10 12  1  0  0  0  0
 11 18  1  0  0  0  0
 11 20  1  0  0  0  0
 11 21  1  0  0  0  0
 12 13  2  0  0  0  0
 13 15  1  0  0  0  0
 15 16  1  0  0  0  0
 16 17  1  0  0  0  0
 16 18  1  6  0  0  0
 19 22  1  0  0  0  0
 22 23  1  0  0  0  0
M  END
>  <CHROM.1>
-105.30089169,-153.36170333,85.62021692,38.44649023,87.34883336,163.50501689
10.88640551,-8.94776779,-11.85456744,0.81208756,-0.01252590,2.86425797

>  <Name>
ligand

>  <RI>
0

>  <Rbt.Current_Directory>
/home/itssahil/PROJECTS/Mol_Feturizer/New_Systems/rnas/3TZR

>  <Rbt.Executable>
rbdock ($Id: //depot/dev/client3/rdock/2013.1/src/exe/rbdock.cxx#4 $)

>  <Rbt.Library>
libRbt.so (2013.1, Build901 2013/11/27)

>  <Rbt.Parameter_File>
/export/apps/rDock/src/rDock_2013.1_src/data/scripts/dock_solv.prm

>  <Rbt.Receptor>
prm/pocket_docking_3.prm

>  <SCORE>
-26.0309

>  <SCORE.INTER>
-20.5229

>  <SCORE.INTER.CONST>
1

>  <SCORE.INTER.POLAR>
0

>  <SCORE.INTER.ROT>
6

>  <SCORE.INTER.SOLV>
20.1958

>  <SCORE.INTER.VDW>
-28.0138

>  <SCORE.INTER.norm>
-0.85512

>  <SCORE.INTRA>
-5.50799

>  <SCORE.INTRA.DIHEDRAL>
4.25417

>  <SCORE.INTRA.DIHEDRAL.0>
4.94008

>  <SCORE.INTRA.POLAR>
0

>  <SCORE.INTRA.POLAR.0>
0

>  <SCORE.INTRA.REPUL>
0

>  <SCORE.INTRA.REPUL.0>
0

>  <SCORE.INTRA.SOLV>
2.21434

>  <SCORE.INTRA.SOLV.lig_0>
-31.4704

>  <SCORE.INTRA.VDW>
-8.74224

>  <SCORE.INTRA.VDW.0>
10.2807

>  <SCORE.INTRA.norm>
-0.229499

>  <SCORE.RESTR>
0

>  <SCORE.RESTR.CAVITY>
0

>  <SCORE.RESTR.norm>
0

>  <SCORE.SYSTEM>
0

>  <SCORE.SYSTEM.CONST>
0

>  <SCORE.SYSTEM.DIHEDRAL>
0

>  <SCORE.SYSTEM.SOLV>
0

>  <SCORE.SYSTEM.norm>
0

>  <SCORE.heavy>
24

>  <SCORE.norm>
-1.08462

>  <RMSD>
5.448

$$$$
ligand
 OpenBabel11021811493D
libRbt.so/2013.1/901 2013/11/27
 24 26  0  0  0  0  0  0  0  0999 V2000
   12.7513  -12.5182   -9.5068 N   0  0  0  0  0  0  0  0  0  0  0  0
   12.6907  -11.7421   -8.2787 C   0  0  0  0  0  0  0  0  0  0  0  0
    9.3450   -5.3919  -11.5745 O   0  0  0  0  0  0  0  0  0  0  0  0
   10.5618   -5.9648  -11.9191 C   0  0  0  0  0  0  0  0  0  0  0  0
   14.2384   -7.8990  -12.9196 N   0  0  0  0  0  0  0  0  0  0  0  0
   11.7936   -5.1237  -12.1244 C   0  0  0  0  0  0  0  0  0  0  0  0
   12.4499   -9.2309  -12.6488 N   0  0  0  0  0  0  0  0  0  0  0  0
   13.0666   -5.6926  -12.4529 C   0  0  0  0  0  0  0  0  0  0  0  0
   14.6159  -10.3418  -13.2412 N   0  0  0  0  0  0  0  0  0  0  0  0
   13.1155   -7.1247  -12.5956 C   0  0  0  0  0  0  0  0  0  0  0  0
    7.1591   -9.5561  -12.3369 N   0  0  0  0  0  0  0  0  0  0  0  0
   11.9430   -7.9386  -12.4173 C   0  0  0  0  0  0  0  0  0  0  0  0
   10.6429   -7.3053  -12.0649 C   0  0  0  0  0  0  0  0  0  0  0  0
   13.8093   -9.1943  -12.9408 C   0  0  0  0  0  0  0  0  0  0  0  0
    9.4192   -8.1813  -11.8714 C   0  0  0  0  0  0  0  0  0  0  0  0
    8.0982   -7.4298  -11.7468 C   0  0  1  0  0  0  0  0  0  0  0  0
    8.2188   -5.9807  -12.1230 C   0  0  0  0  0  0  0  0  0  0  0  0
    7.0225   -8.1278  -12.5651 C   0  0  0  0  0  0  0  0  0  0  0  0
   11.6611  -10.4703  -12.5117 C   0  0  0  0  0  0  0  0  0  0  0  0
    6.3974   -9.9084  -11.1463 C   0  0  0  0  0  0  0  0  0  0  0  0
    6.6045  -10.2386  -13.4954 C   0  0  0  0  0  0  0  0  0  0  0  0
   11.5305  -11.0151  -11.0789 C   0  0  0  0  0  0  0  0  0  0  0  0
   12.8832  -11.6259  -10.6673 C   0  0  0  0  0  0  0  0  0  0  0  0
   13.8845  -13.4314   -9.4101 C   0  0  0  0  0  0  0  0  0  0  0  0
  1 23  1  0  0  0  0
  1 24  1  0  0  0  0
  1  2  1  0  0  0  0
  3  4  1  0  0  0  0
  3 17  1  0  0  0  0
  4  6  2  0  0  0  0
  4 13  1  0  0  0  0
  5 10  1  0  0  0  0
  5 14  2  0  0  0  0
  6  8  1  0  0  0  0
  7 12  1  0  0  0  0
  7 14  1  0  0  0  0
  7 19  1  0  0  0  0
  8 10  2  0  0  0  0
  9 14  1  0  0  0  0
 10 12  1  0  0  0  0
 11 18  1  0  0  0  0
 11 20  1  0  0  0  0
 11 21  1  0  0  0  0
 12 13  2  0  0  0  0
 13 15  1  0  0  0  0
 15 16  1  0  0  0  0
 16 17  1  0  0  0  0
 16 18  1  6  0  0  0
 19 22  1  0  0  0  0
 22 23  1  0  0  0  0
M  END
>  <CHROM.1>
-79.95684356,-82.25031736,86.57648361,42.95393114,-73.27675420,-162.63167504
10.93196555,-8.90612380,-11.77834601,0.66657819,0.01295530,2.79631633

>  <Name>
ligand

>  <RI>
0

>  <Rbt.Current_Directory>
/home/itssahil/PROJECTS/Mol_Feturizer/New_Systems/rnas/3TZR

>  <Rbt.Executable>
rbdock ($Id: //depot/dev/client3/rdock/2013.1/src/exe/rbdock.cxx#4 $)

>  <Rbt.Library>
libRbt.so (2013.1, Build901 2013/11/27)

>  <Rbt.Parameter_File>
/export/apps/rDock/src/rDock_2013.1_src/data/scripts/dock_solv.prm

>  <Rbt.Receptor>
prm/pocket_docking_6.prm

>  <SCORE>
-29.5546

>  <SCORE.INTER>
-20.4664

>  <SCORE.INTER.CONST>
1

>  <SCORE.INTER.POLAR>
0

>  <SCORE.INTER.ROT>
6

>  <SCORE.INTER.SOLV>
21.9797

>  <SCORE.INTER.VDW>
-28.5709

>  <SCORE.INTER.norm>
-0.852768

>  <SCORE.INTRA>
-9.08814

>  <SCORE.INTRA.DIHEDRAL>
0.438411

>  <SCORE.INTRA.DIHEDRAL.0>
4.94008

>  <SCORE.INTRA.POLAR>
0

>  <SCORE.INTRA.POLAR.0>
0

>  <SCORE.INTRA.REPUL>
0

>  <SCORE.INTRA.REPUL.0>
0

>  <SCORE.INTRA.SOLV>
1.30566

>  <SCORE.INTRA.SOLV.lig_0>
-31.4704

>  <SCORE.INTRA.VDW>
-9.96018

>  <SCORE.INTRA.VDW.0>
10.2807

>  <SCORE.INTRA.norm>
-0.378672

>  <SCORE.RESTR>
0

>  <SCORE.RESTR.CAVITY>
0

>  <SCORE.RESTR.norm>
0

>  <SCORE.SYSTEM>
0

>  <SCORE.SYSTEM.CONST>
0

>  <SCORE.SYSTEM.DIHEDRAL>
0

>  <SCORE.SYSTEM.SOLV>
0

>  <SCORE.SYSTEM.norm>
0

>  <SCORE.heavy>
24

>  <SCORE.norm>
-1.23144

>  <RMSD>
5.457

$$$$
ligand
 OpenBabel11021811493D
libRbt.so/2013.1/901 2013/11/27
 24 26  0  0  0  0  0  0  0  0999 V2000
   13.0096  -11.9825  -12.9106 N   0  0  0  0  0  0  0  0  0  0  0  0
   12.1594  -13.1069  -13.2673 C   0  0  0  0  0  0  0  0  0  0  0  0
    7.2652   -5.0617  -11.7578 O   0  0  0  0  0  0  0  0  0  0  0  0
    8.6232   -5.0527  -12.0471 C   0  0  0  0  0  0  0  0  0  0  0  0
   12.8189   -5.1937  -12.8438 N   0  0  0  0  0  0  0  0  0  0  0  0
    9.3278   -3.7879  -12.4601 C   0  0  0  0  0  0  0  0  0  0  0  0
   11.8487   -7.1309  -12.2506 N   0  0  0  0  0  0  0  0  0  0  0  0
   10.7327   -3.7462  -12.7368 C   0  0  0  0  0  0  0  0  0  0  0  0
   14.3074   -7.1898  -12.7281 N   0  0  0  0  0  0  0  0  0  0  0  0
   11.4509   -4.9884  -12.6160 C   0  0  0  0  0  0  0  0  0  0  0  0
    6.3453   -9.6638  -11.0553 N   0  0  0  0  0  0  0  0  0  0  0  0
   10.7872   -6.2071  -12.2373 C   0  0  0  0  0  0  0  0  0  0  0  0
    9.3271   -6.2013  -11.9477 C   0  0  0  0  0  0  0  0  0  0  0  0
   13.0456   -6.5184  -12.6068 C   0  0  0  0  0  0  0  0  0  0  0  0
    8.6465   -7.4947  -11.5403 C   0  0  0  0  0  0  0  0  0  0  0  0
    7.1233   -7.4383  -11.4950 C   0  0  1  0  0  0  0  0  0  0  0  0
    6.5706   -6.1976  -12.1362 C   0  0  0  0  0  0  0  0  0  0  0  0
    6.5366   -8.6947  -12.1206 C   0  0  0  0  0  0  0  0  0  0  0  0
   11.7244   -8.5461  -11.8519 C   0  0  0  0  0  0  0  0  0  0  0  0
    5.3947  -10.6691  -11.5109 C   0  0  0  0  0  0  0  0  0  0  0  0
    7.6334  -10.2871  -10.7951 C   0  0  0  0  0  0  0  0  0  0  0  0
   12.4852   -9.5504  -12.7348 C   0  0  0  0  0  0  0  0  0  0  0  0
   12.2333  -10.9670  -12.1851 C   0  0  0  0  0  0  0  0  0  0  0  0
   14.1107  -12.4871  -12.0981 C   0  0  0  0  0  0  0  0  0  0  0  0
  1 23  1  0  0  0  0
  1 24  1  0  0  0  0
  1  2  1  0  0  0  0
  3  4  1  0  0  0  0
  3 17  1  0  0  0  0
  4  6  2  0  0  0  0
  4 13  1  0  0  0  0
  5 10  1  0  0  0  0
  5 14  2  0  0  0  0
  6  8  1  0  0  0  0
  7 12  1  0  0  0  0
  7 14  1  0  0  0  0
  7 19  1  0  0  0  0
  8 10  2  0  0  0  0
  9 14  1  0  0  0  0
 10 12  1  0  0  0  0
 11 18  1  0  0  0  0
 11 20  1  0  0  0  0
 11 21  1  0  0  0  0
 12 13  2  0  0  0  0
 13 15  1  0  0  0  0
 15 16  1  0  0  0  0
 16 17  1  0  0  0  0
 16 18  1  6  0  0  0
 19 22  1  0  0  0  0
 22 23  1  0  0  0  0
M  END
>  <CHROM.1>
-132.68423015,139.22902760,160.95530591,91.65270560,-179.43824401,-175.60442556
10.11967876,-7.98443599,-12.15115564,0.71066538,-0.16542900,3.09957533

>  <Name>
ligand

>  <RI>
0

>  <Rbt.Current_Directory>
/home/itssahil/PROJECTS/Mol_Feturizer/New_Systems/rnas/3TZR

>  <Rbt.Executable>
rbdock ($Id: //depot/dev/client3/rdock/2013.1/src/exe/rbdock.cxx#4 $)

>  <Rbt.Library>
libRbt.so (2013.1, Build901 2013/11/27)

>  <Rbt.Parameter_File>
/export/apps/rDock/src/rDock_2013.1_src/data/scripts/dock_solv.prm

>  <Rbt.Receptor>
prm/pocket_docking_2.prm

>  <SCORE>
-25.4541

>  <SCORE.INTER>
-18.1492

>  <SCORE.INTER.CONST>
1

>  <SCORE.INTER.POLAR>
0

>  <SCORE.INTER.ROT>
6

>  <SCORE.INTER.SOLV>
24.4935

>  <SCORE.INTER.VDW>
-27.864

>  <SCORE.INTER.norm>
-0.756217

>  <SCORE.INTRA>
-7.97976

>  <SCORE.INTRA.DIHEDRAL>
1.78852

>  <SCORE.INTRA.DIHEDRAL.0>
4.94008

>  <SCORE.INTRA.POLAR>
0

>  <SCORE.INTRA.POLAR.0>
0

>  <SCORE.INTRA.REPUL>
0

>  <SCORE.INTRA.REPUL.0>
0

>  <SCORE.INTRA.SOLV>
1.09625

>  <SCORE.INTRA.SOLV.lig_0>
-31.4704

>  <SCORE.INTRA.VDW>
-9.42214

>  <SCORE.INTRA.VDW.0>
10.2807

>  <SCORE.INTRA.norm>
-0.33249

>  <SCORE.RESTR>
0.674875

>  <SCORE.RESTR.CAVITY>
0.674875

>  <SCORE.RESTR.norm>
0.0281198

>  <SCORE.SYSTEM>
0

>  <SCORE.SYSTEM.CONST>
0

>  <SCORE.SYSTEM.DIHEDRAL>
0

>  <SCORE.SYSTEM.SOLV>
0

>  <SCORE.SYSTEM.norm>
0

>  <SCORE.heavy>
24

>  <SCORE.norm>
-1.06059

>  <RMSD>
5.461

$$$$
ligand
 OpenBabel11021811493D
libRbt.so/2013.1/901 2013/11/27
 24 26  0  0  0  0  0  0  0  0999 V2000
   13.0476  -12.4380  -13.1562 N   0  0  0  0  0  0  0  0  0  0  0  0
   12.3229  -13.6764  -13.3916 C   0  0  0  0  0  0  0  0  0  0  0  0
    7.6689   -5.0093  -11.5711 O   0  0  0  0  0  0  0  0  0  0  0  0
    9.0262   -5.1454  -11.8298 C   0  0  0  0  0  0  0  0  0  0  0  0
   13.1923   -5.7476  -12.5643 N   0  0  0  0  0  0  0  0  0  0  0  0
    9.9171   -3.9427  -11.9927 C   0  0  0  0  0  0  0  0  0  0  0  0
   11.9374   -7.5984  -12.3517 N   0  0  0  0  0  0  0  0  0  0  0  0
   11.3249   -4.0560  -12.2322 C   0  0  0  0  0  0  0  0  0  0  0  0
   14.3825   -7.9263  -12.7883 N   0  0  0  0  0  0  0  0  0  0  0  0
   11.8576   -5.3905  -12.3273 C   0  0  0  0  0  0  0  0  0  0  0  0
    7.0160   -9.6796  -12.2870 N   0  0  0  0  0  0  0  0  0  0  0  0
   11.0150   -6.5481  -12.1889 C   0  0  0  0  0  0  0  0  0  0  0  0
    9.5587   -6.3829  -11.9290 C   0  0  0  0  0  0  0  0  0  0  0  0
   13.2222   -7.1119  -12.5690 C   0  0  0  0  0  0  0  0  0  0  0  0
    8.6878   -7.6159  -11.7764 C   0  0  0  0  0  0  0  0  0  0  0  0
    7.1867   -7.3488  -11.7486 C   0  0  1  0  0  0  0  0  0  0  0  0
    6.8403   -5.9472  -12.1625 C   0  0  0  0  0  0  0  0  0  0  0  0
    6.4589   -8.3756  -12.6031 C   0  0  0  0  0  0  0  0  0  0  0  0
   11.6003   -9.0289  -12.2200 C   0  0  0  0  0  0  0  0  0  0  0  0
    6.3427  -10.1944  -11.1022 C   0  0  0  0  0  0  0  0  0  0  0  0
    6.7540  -10.5530  -13.4201 C   0  0  0  0  0  0  0  0  0  0  0  0
   12.5676  -10.0022  -12.9155 C   0  0  0  0  0  0  0  0  0  0  0  0
   12.1631  -11.4398  -12.5385 C   0  0  0  0  0  0  0  0  0  0  0  0
   14.1887  -12.7370  -12.2983 C   0  0  0  0  0  0  0  0  0  0  0  0
  1 23  1  0  0  0  0
  1 24  1  0  0  0  0
  1  2  1  0  0  0  0
  3  4  1  0  0  0  0
  3 17  1  0  0  0  0
  4  6  2  0  0  0  0
  4 13  1  0  0  0  0
  5 10  1  0  0  0  0
  5 14  2  0  0  0  0
  6  8  1  0  0  0  0
  7 12  1  0  0  0  0
  7 14  1  0  0  0  0
  7 19  1  0  0  0  0
  8 10  2  0  0  0  0
  9 14  1  0  0  0  0
 10 12  1  0  0  0  0
 11 18  1  0  0  0  0
 11 20  1  0  0  0  0
 11 21  1  0  0  0  0
 12 13  2  0  0  0  0
 13 15  1  0  0  0  0
 15 16  1  0  0  0  0
 16 17  1  0  0  0  0
 16 18  1  6  0  0  0
 19 22  1  0  0  0  0
 22 23  1  0  0  0  0
M  END
>  <CHROM.1>
-150.41990188,158.59455690,84.14226161,45.02105167,173.38937191,-179.55964879
10.31104816,-8.21893805,-12.33941367,0.84485374,-0.07499675,-3.05210897

>  <Name>
ligand

>  <RI>
0

>  <Rbt.Current_Directory>
/home/itssahil/PROJECTS/Mol_Feturizer/New_Systems/rnas/3TZR

>  <Rbt.Executable>
rbdock ($Id: //depot/dev/client3/rdock/2013.1/src/exe/rbdock.cxx#4 $)

>  <Rbt.Library>
libRbt.so (2013.1, Build901 2013/11/27)

>  <Rbt.Parameter_File>
/export/apps/rDock/src/rDock_2013.1_src/data/scripts/dock_solv.prm

>  <Rbt.Receptor>
prm/pocket_docking_5.prm

>  <SCORE>
-29.5246

>  <SCORE.INTER>
-21.2598

>  <SCORE.INTER.CONST>
1

>  <SCORE.INTER.POLAR>
0

>  <SCORE.INTER.ROT>
6

>  <SCORE.INTER.SOLV>
24.5305

>  <SCORE.INTER.VDW>
-29.95

>  <SCORE.INTER.norm>
-0.885823

>  <SCORE.INTRA>
-8.26485

>  <SCORE.INTRA.DIHEDRAL>
-0.876261

>  <SCORE.INTRA.DIHEDRAL.0>
4.94008

>  <SCORE.INTRA.POLAR>
0

>  <SCORE.INTRA.POLAR.0>
0

>  <SCORE.INTRA.REPUL>
0

>  <SCORE.INTRA.REPUL.0>
0

>  <SCORE.INTRA.SOLV>
1.61576

>  <SCORE.INTRA.SOLV.lig_0>
-31.4704

>  <SCORE.INTRA.VDW>
-8.6346

>  <SCORE.INTRA.VDW.0>
10.2807

>  <SCORE.INTRA.norm>
-0.344369

>  <SCORE.RESTR>
0

>  <SCORE.RESTR.CAVITY>
0

>  <SCORE.RESTR.norm>
0

>  <SCORE.SYSTEM>
0

>  <SCORE.SYSTEM.CONST>
0

>  <SCORE.SYSTEM.DIHEDRAL>
0

>  <SCORE.SYSTEM.SOLV>
0

>  <SCORE.SYSTEM.norm>
0

>  <SCORE.heavy>
24

>  <SCORE.norm>
-1.23019

>  <RMSD>
5.463

$$$$
ligand
 OpenBabel11021811493D
libRbt.so/2013.1/901 2013/11/27
 24 26  0  0  0  0  0  0  0  0999 V2000
   13.1368  -11.1992  -11.5569 N   0  0  0  0  0  0  0  0  0  0  0  0
   14.1434  -11.7478  -12.4513 C   0  0  0  0  0  0  0  0  0  0  0  0
    6.7638   -6.0093  -12.0195 O   0  0  0  0  0  0  0  0  0  0  0  0
    8.1185   -5.7552  -12.1869 C   0  0  0  0  0  0  0  0  0  0  0  0
   12.3258   -5.1371  -12.6060 N   0  0  0  0  0  0  0  0  0  0  0  0
    8.6194   -4.3814  -12.5455 C   0  0  0  0  0  0  0  0  0  0  0  0
   11.6688   -7.2213  -12.0863 N   0  0  0  0  0  0  0  0  0  0  0  0
   10.0132   -4.0869  -12.6964 C   0  0  0  0  0  0  0  0  0  0  0  0
   14.1310   -6.8357  -12.3428 N   0  0  0  0  0  0  0  0  0  0  0  0
   10.9284   -5.1816  -12.5025 C   0  0  0  0  0  0  0  0  0  0  0  0
    5.5170  -10.2373  -11.8192 N   0  0  0  0  0  0  0  0  0  0  0  0
   10.4623   -6.5023  -12.1748 C   0  0  0  0  0  0  0  0  0  0  0  0
    9.0049   -6.7601  -12.0162 C   0  0  0  0  0  0  0  0  0  0  0  0
   12.7637   -6.4017  -12.3395 C   0  0  0  0  0  0  0  0  0  0  0  0
    8.5331   -8.1577  -11.6609 C   0  0  0  0  0  0  0  0  0  0  0  0
    7.0264   -8.3750  -11.7517 C   0  0  1  0  0  0  0  0  0  0  0  0
    6.3200   -7.2479  -12.4493 C   0  0  0  0  0  0  0  0  0  0  0  0
    6.7319   -9.7109  -12.4171 C   0  0  0  0  0  0  0  0  0  0  0  0
   11.7647   -8.6392  -11.6892 C   0  0  0  0  0  0  0  0  0  0  0  0
    4.9042  -11.1655  -12.7598 C   0  0  0  0  0  0  0  0  0  0  0  0
    5.8978  -10.9453  -10.6071 C   0  0  0  0  0  0  0  0  0  0  0  0
   11.6545   -9.6560  -12.8384 C   0  0  0  0  0  0  0  0  0  0  0  0
   11.8508  -11.0684  -12.2564 C   0  0  0  0  0  0  0  0  0  0  0  0
   13.0243  -12.0852  -10.4037 C   0  0  0  0  0  0  0  0  0  0  0  0
  1 23  1  0  0  0  0
  1 24  1  0  0  0  0
  1  2  1  0  0  0  0
  3  4  1  0  0  0  0
  3 17  1  0  0  0  0
  4  6  2  0  0  0  0
  4 13  1  0  0  0  0
  5 10  1  0  0  0  0
  5 14  2  0  0  0  0
  6  8  1  0  0  0  0
  7 12  1  0  0  0  0
  7 14  1  0  0  0  0
  7 19  1  0  0  0  0
  8 10  2  0  0  0  0
  9 14  1  0  0  0  0
 10 12  1  0  0  0  0
 11 18  1  0  0  0  0
 11 20  1  0  0  0  0
 11 21  1  0  0  0  0
 12 13  2  0  0  0  0
 13 15  1  0  0  0  0
 15 16  1  0  0  0  0
 16 17  1  0  0  0  0
 16 18  1  6  0  0  0
 19 22  1  0  0  0  0
 22 23  1  0  0  0  0
M  END
>  <CHROM.1>
-94.78594806,89.03000660,156.29291995,146.87349969,176.98209961,-57.22398505
9.78239939,-8.24142391,-12.07349872,0.05382400,-0.00874582,3.02380442

>  <Name>
ligand

>  <RI>
144

>  <Rbt.Current_Directory>
/home/itssahil/PROJECTS/Mol_Feturizer/New_Systems/rnas/3TZR

>  <Rbt.Executable>
rbdock ($Id: //depot/dev/client3/rdock/2013.1/src/exe/rbdock.cxx#4 $)

>  <Rbt.Library>
libRbt.so (2013.1, Build901 2013/11/27)

>  <Rbt.Parameter_File>
/export/apps/rDock/src/rDock_2013.1_src/data/scripts/dock_solv.prm

>  <Rbt.Receptor>
prm/blind_docking_60.prm

>  <SCORE>
-21.8348

>  <SCORE.INTER>
-11.7507

>  <SCORE.INTER.CONST>
1

>  <SCORE.INTER.POLAR>
0

>  <SCORE.INTER.ROT>
6

>  <SCORE.INTER.SOLV>
25.1052

>  <SCORE.INTER.VDW>
-23.8022

>  <SCORE.INTER.norm>
-0.489614

>  <SCORE.INTRA>
-10.0841

>  <SCORE.INTRA.DIHEDRAL>
1.89545

>  <SCORE.INTRA.DIHEDRAL.0>
4.94008

>  <SCORE.INTRA.POLAR>
0

>  <SCORE.INTRA.POLAR.0>
0

>  <SCORE.INTRA.REPUL>
0

>  <SCORE.INTRA.REPUL.0>
0

>  <SCORE.INTRA.SOLV>
0.0303162

>  <SCORE.INTRA.SOLV.lig_0>
-31.4704

>  <SCORE.INTRA.VDW>
-11.047

>  <SCORE.INTRA.VDW.0>
10.2807

>  <SCORE.INTRA.norm>
-0.420171

>  <SCORE.RESTR>
0

>  <SCORE.RESTR.CAVITY>
0

>  <SCORE.RESTR.norm>
0

>  <SCORE.SYSTEM>
0

>  <SCORE.SYSTEM.CONST>
0

>  <SCORE.SYSTEM.DIHEDRAL>
0

>  <SCORE.SYSTEM.SOLV>
0

>  <SCORE.SYSTEM.norm>
0

>  <SCORE.heavy>
24

>  <SCORE.norm>
-0.909785

>  <RMSD>
5.472

$$$$
ligand
 OpenBabel11021811493D
libRbt.so/2013.1/901 2013/11/27
 24 26  0  0  0  0  0  0  0  0999 V2000
   13.4567  -12.0129  -12.5744 N   0  0  0  0  0  0  0  0  0  0  0  0
   12.8931  -12.9960  -13.4855 C   0  0  0  0  0  0  0  0  0  0  0  0
    7.4548   -4.8798  -11.5904 O   0  0  0  0  0  0  0  0  0  0  0  0
    8.8161   -4.9511  -11.8542 C   0  0  0  0  0  0  0  0  0  0  0  0
   13.0038   -5.3537  -12.6025 N   0  0  0  0  0  0  0  0  0  0  0  0
    9.6453   -3.7075  -12.0348 C   0  0  0  0  0  0  0  0  0  0  0  0
   11.8435   -7.2621  -12.3631 N   0  0  0  0  0  0  0  0  0  0  0  0
   11.0559   -3.7534  -12.2800 C   0  0  0  0  0  0  0  0  0  0  0  0
   14.2999   -7.4729  -12.8081 N   0  0  0  0  0  0  0  0  0  0  0  0
   11.6539   -5.0607  -12.3629 C   0  0  0  0  0  0  0  0  0  0  0  0
    7.0117   -9.5886  -12.2294 N   0  0  0  0  0  0  0  0  0  0  0  0
   10.8707   -6.2571  -12.2075 C   0  0  0  0  0  0  0  0  0  0  0  0
    9.4091   -6.1616  -11.9423 C   0  0  0  0  0  0  0  0  0  0  0  0
   13.1015   -6.7148  -12.5921 C   0  0  0  0  0  0  0  0  0  0  0  0
    8.6013   -7.4346  -11.7718 C   0  0  0  0  0  0  0  0  0  0  0  0
    7.0889   -7.2422  -11.7395 C   0  0  1  0  0  0  0  0  0  0  0  0
    6.6714   -5.8643  -12.1673 C   0  0  0  0  0  0  0  0  0  0  0  0
    6.4094   -8.3135  -12.5790 C   0  0  0  0  0  0  0  0  0  0  0  0
   11.5786   -8.7060  -12.2139 C   0  0  0  0  0  0  0  0  0  0  0  0
    6.3308  -10.1139  -11.0537 C   0  0  0  0  0  0  0  0  0  0  0  0
    6.8142  -10.4883  -13.3551 C   0  0  0  0  0  0  0  0  0  0  0  0
   12.7060   -9.6372  -12.6918 C   0  0  0  0  0  0  0  0  0  0  0  0
   12.4238  -11.0539  -12.1574 C   0  0  0  0  0  0  0  0  0  0  0  0
   14.0124  -12.7237  -11.4283 C   0  0  0  0  0  0  0  0  0  0  0  0
  1 23  1  0  0  0  0
  1 24  1  0  0  0  0
  1  2  1  0  0  0  0
  3  4  1  0  0  0  0
  3 17  1  0  0  0  0
  4  6  2  0  0  0  0
  4 13  1  0  0  0  0
  5 10  1  0  0  0  0
  5 14  2  0  0  0  0
  6  8  1  0  0  0  0
  7 12  1  0  0  0  0
  7 14  1  0  0  0  0
  7 19  1  0  0  0  0
  8 10  2  0  0  0  0
  9 14  1  0  0  0  0
 10 12  1  0  0  0  0
 11 18  1  0  0  0  0
 11 20  1  0  0  0  0
 11 21  1  0  0  0  0
 12 13  2  0  0  0  0
 13 15  1  0  0  0  0
 15 16  1  0  0  0  0
 16 17  1  0  0  0  0
 16 18  1  6  0  0  0
 19 22  1  0  0  0  0
 22 23  1  0  0  0  0
M  END
>  <CHROM.1>
-113.44131419,168.55124694,85.06944636,46.26411224,166.32003821,179.80367736
10.27157767,-7.96485315,-12.25508899,0.77675381,-0.06246854,-3.10873521

>  <Name>
ligand

>  <RI>
0

>  <Rbt.Current_Directory>
/home/itssahil/PROJECTS/Mol_Feturizer/New_Systems/rnas/3TZR

>  <Rbt.Executable>
rbdock ($Id: //depot/dev/client3/rdock/2013.1/src/exe/rbdock.cxx#4 $)

>  <Rbt.Library>
libRbt.so (2013.1, Build901 2013/11/27)

>  <Rbt.Parameter_File>
/export/apps/rDock/src/rDock_2013.1_src/data/scripts/dock_solv.prm

>  <Rbt.Receptor>
prm/blind_docking_40.prm

>  <SCORE>
-26.6597

>  <SCORE.INTER>
-19.4062

>  <SCORE.INTER.CONST>
1

>  <SCORE.INTER.POLAR>
0

>  <SCORE.INTER.ROT>
6

>  <SCORE.INTER.SOLV>
24.7402

>  <SCORE.INTER.VDW>
-28.7842

>  <SCORE.INTER.norm>
-0.808592

>  <SCORE.INTRA>
-7.27081

>  <SCORE.INTRA.DIHEDRAL>
0.769842

>  <SCORE.INTRA.DIHEDRAL.0>
4.94008

>  <SCORE.INTRA.POLAR>
0

>  <SCORE.INTRA.POLAR.0>
0

>  <SCORE.INTRA.REPUL>
0

>  <SCORE.INTRA.REPUL.0>
0

>  <SCORE.INTRA.SOLV>
1.76111

>  <SCORE.INTRA.SOLV.lig_0>
-31.4704

>  <SCORE.INTRA.VDW>
-8.53629

>  <SCORE.INTRA.VDW.0>
10.2807

>  <SCORE.INTRA.norm>
-0.30295

>  <SCORE.RESTR>
0.0173482

>  <SCORE.RESTR.CAVITY>
0.0173482

>  <SCORE.RESTR.norm>
0.000722843

>  <SCORE.SYSTEM>
0

>  <SCORE.SYSTEM.CONST>
0

>  <SCORE.SYSTEM.DIHEDRAL>
0

>  <SCORE.SYSTEM.SOLV>
0

>  <SCORE.SYSTEM.norm>
0

>  <SCORE.heavy>
24

>  <SCORE.norm>
-1.11082

>  <RMSD>
5.478

$$$$
ligand
 OpenBabel11021811493D
libRbt.so/2013.1/901 2013/11/27
 24 26  0  0  0  0  0  0  0  0999 V2000
   13.6146  -10.7453  -12.0116 N   0  0  0  0  0  0  0  0  0  0  0  0
   14.3745  -11.9473  -12.3152 C   0  0  0  0  0  0  0  0  0  0  0  0
    6.6314   -6.4879  -11.9302 O   0  0  0  0  0  0  0  0  0  0  0  0
    7.8869   -5.9445  -12.1671 C   0  0  0  0  0  0  0  0  0  0  0  0
   11.8296   -4.4342  -12.8253 N   0  0  0  0  0  0  0  0  0  0  0  0
    8.0727   -4.4659  -12.3817 C   0  0  0  0  0  0  0  0  0  0  0  0
   11.6457   -6.6535  -12.5316 N   0  0  0  0  0  0  0  0  0  0  0  0
    9.3602   -3.8770  -12.6001 C   0  0  0  0  0  0  0  0  0  0  0  0
   13.9473   -5.7452  -12.9247 N   0  0  0  0  0  0  0  0  0  0  0  0
   10.4853   -4.7754  -12.6211 C   0  0  0  0  0  0  0  0  0  0  0  0
    5.9783  -10.6391  -12.5305 N   0  0  0  0  0  0  0  0  0  0  0  0
   10.3200   -6.1919  -12.4327 C   0  0  0  0  0  0  0  0  0  0  0  0
    8.9641   -6.7590  -12.1972 C   0  0  0  0  0  0  0  0  0  0  0  0
   12.5293   -5.6039  -12.7598 C   0  0  0  0  0  0  0  0  0  0  0  0
    8.8110   -8.2544  -11.9910 C   0  0  0  0  0  0  0  0  0  0  0  0
    7.3738   -8.7643  -11.9929 C   0  0  1  0  0  0  0  0  0  0  0  0
    6.3950   -7.7353  -12.4817 C   0  0  0  0  0  0  0  0  0  0  0  0
    7.2780  -10.0493  -12.8015 C   0  0  0  0  0  0  0  0  0  0  0  0
   12.0546   -8.0570  -12.3305 C   0  0  0  0  0  0  0  0  0  0  0  0
    5.7101  -11.6507  -13.5437 C   0  0  0  0  0  0  0  0  0  0  0  0
    6.0466  -11.2631  -11.2185 C   0  0  0  0  0  0  0  0  0  0  0  0
   13.4002   -8.4502  -12.9643 C   0  0  0  0  0  0  0  0  0  0  0  0
   13.3832   -9.9662  -13.2362 C   0  0  0  0  0  0  0  0  0  0  0  0
   12.3556  -11.1490  -11.3955 C   0  0  0  0  0  0  0  0  0  0  0  0
  1 23  1  0  0  0  0
  1 24  1  0  0  0  0
  1  2  1  0  0  0  0
  3  4  1  0  0  0  0
  3 17  1  0  0  0  0
  4  6  2  0  0  0  0
  4 13  1  0  0  0  0
  5 10  1  0  0  0  0
  5 14  2  0  0  0  0
  6  8  1  0  0  0  0
  7 12  1  0  0  0  0
  7 14  1  0  0  0  0
  7 19  1  0  0  0  0
  8 10  2  0  0  0  0
  9 14  1  0  0  0  0
 10 12  1  0  0  0  0
 11 18  1  0  0  0  0
 11 20  1  0  0  0  0
 11 21  1  0  0  0  0
 12 13  2  0  0  0  0
 13 15  1  0  0  0  0
 15 16  1  0  0  0  0
 16 17  1  0  0  0  0
 16 18  1  6  0  0  0
 19 22  1  0  0  0  0
 22 23  1  0  0  0  0
M  END
>  <CHROM.1>
-145.28563296,158.62564074,164.73756579,167.77199256,-154.52286872,-77.71136082
9.93087275,-8.04254902,-12.41773077,-0.17777342,-0.02920073,3.10523130

>  <Name>
ligand

>  <RI>
0

>  <Rbt.Current_Directory>
/home/itssahil/PROJECTS/Mol_Feturizer/New_Systems/rnas/3TZR

>  <Rbt.Executable>
rbdock ($Id: //depot/dev/client3/rdock/2013.1/src/exe/rbdock.cxx#4 $)

>  <Rbt.Library>
libRbt.so (2013.1, Build901 2013/11/27)

>  <Rbt.Parameter_File>
/export/apps/rDock/src/rDock_2013.1_src/data/scripts/dock_solv.prm

>  <Rbt.Receptor>
prm/blind_docking_40.prm

>  <SCORE>
-23.6329

>  <SCORE.INTER>
-16.7617

>  <SCORE.INTER.CONST>
1

>  <SCORE.INTER.POLAR>
0

>  <SCORE.INTER.ROT>
6

>  <SCORE.INTER.SOLV>
23.5675

>  <SCORE.INTER.VDW>
-26.6303

>  <SCORE.INTER.norm>
-0.698405

>  <SCORE.INTRA>
-6.87539

>  <SCORE.INTRA.DIHEDRAL>
1.84928

>  <SCORE.INTRA.DIHEDRAL.0>
4.94008

>  <SCORE.INTRA.POLAR>
0

>  <SCORE.INTRA.POLAR.0>
0

>  <SCORE.INTRA.REPUL>
0

>  <SCORE.INTRA.REPUL.0>
0

>  <SCORE.INTRA.SOLV>
1.6397

>  <SCORE.INTRA.SOLV.lig_0>
-31.4704

>  <SCORE.INTRA.VDW>
-8.61989

>  <SCORE.INTRA.VDW.0>
10.2807

>  <SCORE.INTRA.norm>
-0.286475

>  <SCORE.RESTR>
0.00425278

>  <SCORE.RESTR.CAVITY>
0.00425278

>  <SCORE.RESTR.norm>
0.000177199

>  <SCORE.SYSTEM>
0

>  <SCORE.SYSTEM.CONST>
0

>  <SCORE.SYSTEM.DIHEDRAL>
0

>  <SCORE.SYSTEM.SOLV>
0

>  <SCORE.SYSTEM.norm>
0

>  <SCORE.heavy>
24

>  <SCORE.norm>
-0.984702

>  <RMSD>
5.495

$$$$
ligand
 OpenBabel11021811493D
libRbt.so/2013.1/901 2013/11/27
 24 26  0  0  0  0  0  0  0  0999 V2000
   12.9011  -11.6496  -11.4554 N   0  0  0  0  0  0  0  0  0  0  0  0
   12.6734  -11.2979  -10.0630 C   0  0  0  0  0  0  0  0  0  0  0  0
    7.3008   -5.1366  -11.6734 O   0  0  0  0  0  0  0  0  0  0  0  0
    8.6703   -5.1686  -11.9002 C   0  0  0  0  0  0  0  0  0  0  0  0
   12.8882   -5.4463  -12.5253 N   0  0  0  0  0  0  0  0  0  0  0  0
    9.4571   -3.9044  -12.1229 C   0  0  0  0  0  0  0  0  0  0  0  0
   11.7938   -7.3837  -12.2185 N   0  0  0  0  0  0  0  0  0  0  0  0
   10.8744   -3.9081  -12.3311 C   0  0  0  0  0  0  0  0  0  0  0  0
   14.2672   -7.5217  -12.5924 N   0  0  0  0  0  0  0  0  0  0  0  0
   11.5226   -5.1939  -12.3335 C   0  0  0  0  0  0  0  0  0  0  0  0
    5.9629   -9.6601  -11.5668 N   0  0  0  0  0  0  0  0  0  0  0  0
   10.7805   -6.4104  -12.1373 C   0  0  0  0  0  0  0  0  0  0  0  0
    9.3100   -6.3582  -11.9128 C   0  0  0  0  0  0  0  0  0  0  0  0
   13.0361   -6.8004  -12.4440 C   0  0  0  0  0  0  0  0  0  0  0  0
    8.5459   -7.6514  -11.6982 C   0  0  0  0  0  0  0  0  0  0  0  0
    7.0271   -7.5159  -11.7124 C   0  0  1  0  0  0  0  0  0  0  0  0
    6.5699   -6.1778  -12.2190 C   0  0  0  0  0  0  0  0  0  0  0  0
    6.4101   -8.6526  -12.5132 C   0  0  0  0  0  0  0  0  0  0  0  0
   11.5789   -8.8276  -12.0032 C   0  0  0  0  0  0  0  0  0  0  0  0
    4.9018  -10.4399  -12.1895 C   0  0  0  0  0  0  0  0  0  0  0  0
    7.0989  -10.5203  -11.2751 C   0  0  0  0  0  0  0  0  0  0  0  0
   12.3238   -9.7584  -12.9757 C   0  0  0  0  0  0  0  0  0  0  0  0
   13.4285  -10.4930  -12.1932 C   0  0  0  0  0  0  0  0  0  0  0  0
   13.8331  -12.7709  -11.4928 C   0  0  0  0  0  0  0  0  0  0  0  0
  1 23  1  0  0  0  0
  1 24  1  0  0  0  0
  1  2  1  0  0  0  0
  3  4  1  0  0  0  0
  3 17  1  0  0  0  0
  4  6  2  0  0  0  0
  4 13  1  0  0  0  0
  5 10  1  0  0  0  0
  5 14  2  0  0  0  0
  6  8  1  0  0  0  0
  7 12  1  0  0  0  0
  7 14  1  0  0  0  0
  7 19  1  0  0  0  0
  8 10  2  0  0  0  0
  9 14  1  0  0  0  0
 10 12  1  0  0  0  0
 11 18  1  0  0  0  0
 11 20  1  0  0  0  0
 11 21  1  0  0  0  0
 12 13  2  0  0  0  0
 13 15  1  0  0  0  0
 15 16  1  0  0  0  0
 16 17  1  0  0  0  0
 16 18  1  6  0  0  0
 19 22  1  0  0  0  0
 22 23  1  0  0  0  0
M  END
>  <CHROM.1>
-98.56294924,138.81740726,155.82839682,98.73174715,110.57185390,81.36259613
10.10055247,-7.99303134,-11.96311465,0.41192902,-0.03059577,3.03030367

>  <Name>
ligand

>  <RI>
0

>  <Rbt.Current_Directory>
/home/itssahil/PROJECTS/Mol_Feturizer/New_Systems/rnas/3TZR

>  <Rbt.Executable>
rbdock ($Id: //depot/dev/client3/rdock/2013.1/src/exe/rbdock.cxx#4 $)

>  <Rbt.Library>
libRbt.so (2013.1, Build901 2013/11/27)

>  <Rbt.Parameter_File>
/export/apps/rDock/src/rDock_2013.1_src/data/scripts/dock_solv.prm

>  <Rbt.Receptor>
prm/blind_docking_100.prm

>  <SCORE>
-24.299

>  <SCORE.INTER>
-19.9863

>  <SCORE.INTER.CONST>
1

>  <SCORE.INTER.POLAR>
0

>  <SCORE.INTER.ROT>
6

>  <SCORE.INTER.SOLV>
22.7068

>  <SCORE.INTER.VDW>
-28.4932

>  <SCORE.INTER.norm>
-0.832764

>  <SCORE.INTRA>
-4.34052

>  <SCORE.INTRA.DIHEDRAL>
9.24071

>  <SCORE.INTRA.DIHEDRAL.0>
4.94008

>  <SCORE.INTRA.POLAR>
0

>  <SCORE.INTRA.POLAR.0>
0

>  <SCORE.INTRA.REPUL>
0

>  <SCORE.INTRA.REPUL.0>
0

>  <SCORE.INTRA.SOLV>
2.4955

>  <SCORE.INTRA.SOLV.lig_0>
-31.4704

>  <SCORE.INTRA.VDW>
-10.2086

>  <SCORE.INTRA.VDW.0>
10.2807

>  <SCORE.INTRA.norm>
-0.180855

>  <SCORE.RESTR>
0.0278325

>  <SCORE.RESTR.CAVITY>
0.0278325

>  <SCORE.RESTR.norm>
0.00115969

>  <SCORE.SYSTEM>
0

>  <SCORE.SYSTEM.CONST>
0

>  <SCORE.SYSTEM.DIHEDRAL>
0

>  <SCORE.SYSTEM.SOLV>
0

>  <SCORE.SYSTEM.norm>
0

>  <SCORE.heavy>
24

>  <SCORE.norm>
-1.01246

>  <RMSD>
5.499

$$$$
ligand
 OpenBabel11021811493D
libRbt.so/2013.1/901 2013/11/27
 24 26  0  0  0  0  0  0  0  0999 V2000
   12.8962  -11.7630  -12.4855 N   0  0  0  0  0  0  0  0  0  0  0  0
   12.3101  -13.0549  -12.8048 C   0  0  0  0  0  0  0  0  0  0  0  0
    7.5383   -5.2089  -11.6529 O   0  0  0  0  0  0  0  0  0  0  0  0
    8.8989   -5.2885  -11.9177 C   0  0  0  0  0  0  0  0  0  0  0  0
   13.0850   -5.7140  -12.6624 N   0  0  0  0  0  0  0  0  0  0  0  0
    9.7261   -4.0516  -12.1472 C   0  0  0  0  0  0  0  0  0  0  0  0
   11.9277   -7.6134  -12.3484 N   0  0  0  0  0  0  0  0  0  0  0  0
   11.1360   -4.1050  -12.3945 C   0  0  0  0  0  0  0  0  0  0  0  0
   14.3832   -7.8380  -12.7921 N   0  0  0  0  0  0  0  0  0  0  0  0
   11.7354   -5.4138  -12.4300 C   0  0  0  0  0  0  0  0  0  0  0  0
    5.9761   -9.6470  -11.5584 N   0  0  0  0  0  0  0  0  0  0  0  0
   10.9541   -6.6045  -12.2278 C   0  0  0  0  0  0  0  0  0  0  0  0
    9.4931   -6.5007  -11.9621 C   0  0  0  0  0  0  0  0  0  0  0  0
   13.1844   -7.0737  -12.6013 C   0  0  0  0  0  0  0  0  0  0  0  0
    8.6875   -7.7674  -11.7417 C   0  0  0  0  0  0  0  0  0  0  0  0
    7.1749   -7.5756  -11.7124 C   0  0  1  0  0  0  0  0  0  0  0  0
    6.7545   -6.2152  -12.1903 C   0  0  0  0  0  0  0  0  0  0  0  0
    6.4944   -8.6784  -12.5091 C   0  0  0  0  0  0  0  0  0  0  0  0
   11.6650   -9.0510  -12.1443 C   0  0  0  0  0  0  0  0  0  0  0  0
    4.9062  -10.3979  -12.2011 C   0  0  0  0  0  0  0  0  0  0  0  0
    7.0666  -10.5445  -11.2106 C   0  0  0  0  0  0  0  0  0  0  0  0
   12.5353   -9.7365  -11.0768 C   0  0  0  0  0  0  0  0  0  0  0  0
   12.3588  -11.2605  -11.2130 C   0  0  0  0  0  0  0  0  0  0  0  0
   14.3441  -11.9261  -12.4207 C   0  0  0  0  0  0  0  0  0  0  0  0
  1 23  1  0  0  0  0
  1 24  1  0  0  0  0
  1  2  1  0  0  0  0
  3  4  1  0  0  0  0
  3 17  1  0  0  0  0
  4  6  2  0  0  0  0
  4 13  1  0  0  0  0
  5 10  1  0  0  0  0
  5 14  2  0  0  0  0
  6  8  1  0  0  0  0
  7 12  1  0  0  0  0
  7 14  1  0  0  0  0
  7 19  1  0  0  0  0
  8 10  2  0  0  0  0
  9 14  1  0  0  0  0
 10 12  1  0  0  0  0
 11 18  1  0  0  0  0
 11 20  1  0  0  0  0
 11 21  1  0  0  0  0
 12 13  2  0  0  0  0
 13 15  1  0  0  0  0
 15 16  1  0  0  0  0
 16 17  1  0  0  0  0
 16 18  1  6  0  0  0
 19 22  1  0  0  0  0
 22 23  1  0  0  0  0
M  END
>  <CHROM.1>
-159.53787486,-123.27988783,157.90845520,101.57235680,-167.54131062,65.95057214
10.18168535,-8.17576418,-12.09333458,0.43832777,-0.07457106,3.11124641

>  <Name>
ligand

>  <RI>
0

>  <Rbt.Current_Directory>
/home/itssahil/PROJECTS/Mol_Feturizer/New_Systems/rnas/3TZR

>  <Rbt.Executable>
rbdock ($Id: //depot/dev/client3/rdock/2013.1/src/exe/rbdock.cxx#4 $)

>  <Rbt.Library>
libRbt.so (2013.1, Build901 2013/11/27)

>  <Rbt.Parameter_File>
/export/apps/rDock/src/rDock_2013.1_src/data/scripts/dock_solv.prm

>  <Rbt.Receptor>
prm/pocket_docking_3.prm

>  <SCORE>
-28.1076

>  <SCORE.INTER>
-20.265

>  <SCORE.INTER.CONST>
1

>  <SCORE.INTER.POLAR>
0

>  <SCORE.INTER.ROT>
6

>  <SCORE.INTER.SOLV>
23.5799

>  <SCORE.INTER.VDW>
-28.97

>  <SCORE.INTER.norm>
-0.844375

>  <SCORE.INTRA>
-7.8426

>  <SCORE.INTRA.DIHEDRAL>
2.45051

>  <SCORE.INTRA.DIHEDRAL.0>
4.94008

>  <SCORE.INTRA.POLAR>
0

>  <SCORE.INTRA.POLAR.0>
0

>  <SCORE.INTRA.REPUL>
0

>  <SCORE.INTRA.REPUL.0>
0

>  <SCORE.INTRA.SOLV>
2.0226

>  <SCORE.INTRA.SOLV.lig_0>
-31.4704

>  <SCORE.INTRA.VDW>
-10.0792

>  <SCORE.INTRA.VDW.0>
10.2807

>  <SCORE.INTRA.norm>
-0.326775

>  <SCORE.RESTR>
0

>  <SCORE.RESTR.CAVITY>
0

>  <SCORE.RESTR.norm>
0

>  <SCORE.SYSTEM>
0

>  <SCORE.SYSTEM.CONST>
0

>  <SCORE.SYSTEM.DIHEDRAL>
0

>  <SCORE.SYSTEM.SOLV>
0

>  <SCORE.SYSTEM.norm>
0

>  <SCORE.heavy>
24

>  <SCORE.norm>
-1.17115

>  <RMSD>
5.503

$$$$
ligand
 OpenBabel11021811493D
libRbt.so/2013.1/901 2013/11/27
 24 26  0  0  0  0  0  0  0  0999 V2000
   12.8483  -11.4983  -12.5294 N   0  0  0  0  0  0  0  0  0  0  0  0
   12.3491  -12.8464  -12.7479 C   0  0  0  0  0  0  0  0  0  0  0  0
    7.3494   -5.1651  -11.6647 O   0  0  0  0  0  0  0  0  0  0  0  0
    8.7103   -5.1858  -11.9389 C   0  0  0  0  0  0  0  0  0  0  0  0
   12.9058   -5.4296  -12.7119 N   0  0  0  0  0  0  0  0  0  0  0  0
    9.4808   -3.9145  -12.1779 C   0  0  0  0  0  0  0  0  0  0  0  0
   11.8352   -7.3769  -12.3841 N   0  0  0  0  0  0  0  0  0  0  0  0
   10.8900   -3.9068  -12.4350 C   0  0  0  0  0  0  0  0  0  0  0  0
   14.2950   -7.4950  -12.8446 N   0  0  0  0  0  0  0  0  0  0  0  0
   11.5460   -5.1882  -12.4709 C   0  0  0  0  0  0  0  0  0  0  0  0
    5.9463   -9.6468  -11.5447 N   0  0  0  0  0  0  0  0  0  0  0  0
   10.8191   -6.4113  -12.2596 C   0  0  0  0  0  0  0  0  0  0  0  0
    9.3569   -6.3709  -11.9840 C   0  0  0  0  0  0  0  0  0  0  0  0
   13.0652   -6.7834  -12.6475 C   0  0  0  0  0  0  0  0  0  0  0  0
    8.6091   -7.6710  -11.7541 C   0  0  0  0  0  0  0  0  0  0  0  0
    7.0899   -7.5457  -11.7147 C   0  0  1  0  0  0  0  0  0  0  0  0
    6.6068   -6.2066  -12.1936 C   0  0  0  0  0  0  0  0  0  0  0  0
    6.4529   -8.6798  -12.5034 C   0  0  0  0  0  0  0  0  0  0  0  0
   11.6373   -8.8240  -12.1740 C   0  0  0  0  0  0  0  0  0  0  0  0
    4.8962  -10.4263  -12.1863 C   0  0  0  0  0  0  0  0  0  0  0  0
    7.0513  -10.5184  -11.1777 C   0  0  0  0  0  0  0  0  0  0  0  0
   12.5462   -9.4678  -11.1128 C   0  0  0  0  0  0  0  0  0  0  0  0
   12.4075  -10.9980  -11.2195 C   0  0  0  0  0  0  0  0  0  0  0  0
   14.3036  -11.5340  -12.6197 C   0  0  0  0  0  0  0  0  0  0  0  0
  1 23  1  0  0  0  0
  1 24  1  0  0  0  0
  1  2  1  0  0  0  0
  3  4  1  0  0  0  0
  3 17  1  0  0  0  0
  4  6  2  0  0  0  0
  4 13  1  0  0  0  0
  5 10  1  0  0  0  0
  5 14  2  0  0  0  0
  6  8  1  0  0  0  0
  7 12  1  0  0  0  0
  7 14  1  0  0  0  0
  7 19  1  0  0  0  0
  8 10  2  0  0  0  0
  9 14  1  0  0  0  0
 10 12  1  0  0  0  0
 11 18  1  0  0  0  0
 11 20  1  0  0  0  0
 11 21  1  0  0  0  0
 12 13  2  0  0  0  0
 13 15  1  0  0  0  0
 15 16  1  0  0  0  0
 16 17  1  0  0  0  0
 16 18  1  6  0  0  0
 19 22  1  0  0  0  0
 22 23  1  0  0  0  0
M  END
>  <CHROM.1>
-163.20059127,-123.39997614,157.20502867,103.35673474,-168.97313770,62.06895563
10.09282830,-8.01290376,-12.11759323,0.38162473,-0.08282931,3.10635651

>  <Name>
ligand

>  <RI>
144

>  <Rbt.Current_Directory>
/home/itssahil/PROJECTS/Mol_Feturizer/New_Systems/rnas/3TZR

>  <Rbt.Executable>
rbdock ($Id: //depot/dev/client3/rdock/2013.1/src/exe/rbdock.cxx#4 $)

>  <Rbt.Library>
libRbt.so (2013.1, Build901 2013/11/27)

>  <Rbt.Parameter_File>
/export/apps/rDock/src/rDock_2013.1_src/data/scripts/dock_solv.prm

>  <Rbt.Receptor>
prm/pocket_docking_8.prm

>  <SCORE>
-28.2499

>  <SCORE.INTER>
-20.3973

>  <SCORE.INTER.CONST>
1

>  <SCORE.INTER.POLAR>
0

>  <SCORE.INTER.ROT>
6

>  <SCORE.INTER.SOLV>
24.2598

>  <SCORE.INTER.VDW>
-29.2848

>  <SCORE.INTER.norm>
-0.849889

>  <SCORE.INTRA>
-7.85252

>  <SCORE.INTRA.DIHEDRAL>
2.25815

>  <SCORE.INTRA.DIHEDRAL.0>
4.94008

>  <SCORE.INTRA.POLAR>
0

>  <SCORE.INTRA.POLAR.0>
0

>  <SCORE.INTRA.REPUL>
0

>  <SCORE.INTRA.REPUL.0>
0

>  <SCORE.INTRA.SOLV>
2.01126

>  <SCORE.INTRA.SOLV.lig_0>
-31.4704

>  <SCORE.INTRA.VDW>
-9.98723

>  <SCORE.INTRA.VDW.0>
10.2807

>  <SCORE.INTRA.norm>
-0.327188

>  <SCORE.RESTR>
0

>  <SCORE.RESTR.CAVITY>
0

>  <SCORE.RESTR.norm>
0

>  <SCORE.SYSTEM>
0

>  <SCORE.SYSTEM.CONST>
0

>  <SCORE.SYSTEM.DIHEDRAL>
0

>  <SCORE.SYSTEM.SOLV>
0

>  <SCORE.SYSTEM.norm>
0

>  <SCORE.heavy>
24

>  <SCORE.norm>
-1.17708

>  <RMSD>
5.505

$$$$
ligand
 OpenBabel11021811493D
libRbt.so/2013.1/901 2013/11/27
 24 26  0  0  0  0  0  0  0  0999 V2000
   12.8963  -11.6791  -12.5350 N   0  0  0  0  0  0  0  0  0  0  0  0
   12.3738  -12.9939  -12.8704 C   0  0  0  0  0  0  0  0  0  0  0  0
    7.4733   -5.2116  -11.6179 O   0  0  0  0  0  0  0  0  0  0  0  0
    8.8344   -5.2803  -11.8835 C   0  0  0  0  0  0  0  0  0  0  0  0
   13.0230   -5.6729  -12.6320 N   0  0  0  0  0  0  0  0  0  0  0  0
    9.6536   -4.0363  -12.1025 C   0  0  0  0  0  0  0  0  0  0  0  0
   11.8778   -7.5822  -12.3341 N   0  0  0  0  0  0  0  0  0  0  0  0
   11.0639   -4.0787  -12.3503 C   0  0  0  0  0  0  0  0  0  0  0  0
   14.3346   -7.7875  -12.7799 N   0  0  0  0  0  0  0  0  0  0  0  0
   11.6716   -5.3833  -12.3970 C   0  0  0  0  0  0  0  0  0  0  0  0
    5.9630   -9.6736  -11.5626 N   0  0  0  0  0  0  0  0  0  0  0  0
   10.8978   -6.5805  -12.2049 C   0  0  0  0  0  0  0  0  0  0  0  0
    9.4363   -6.4884  -11.9383 C   0  0  0  0  0  0  0  0  0  0  0  0
   13.1310   -7.0324  -12.5825 C   0  0  0  0  0  0  0  0  0  0  0  0
    8.6387   -7.7619  -11.7286 C   0  0  0  0  0  0  0  0  0  0  0  0
    7.1249   -7.5800  -11.6975 C   0  0  1  0  0  0  0  0  0  0  0  0
    6.6958   -6.2183  -12.1638 C   0  0  0  0  0  0  0  0  0  0  0  0
    6.4513   -8.6803  -12.5036 C   0  0  0  0  0  0  0  0  0  0  0  0
   11.6243   -9.0232  -12.1423 C   0  0  0  0  0  0  0  0  0  0  0  0
    4.8714  -10.4063  -12.1897 C   0  0  0  0  0  0  0  0  0  0  0  0
    7.0629  -10.5808  -11.2749 C   0  0  0  0  0  0  0  0  0  0  0  0
   12.4830   -9.7072  -11.0646 C   0  0  0  0  0  0  0  0  0  0  0  0
   12.3591  -11.2322  -11.2420 C   0  0  0  0  0  0  0  0  0  0  0  0
   14.3520  -11.7652  -12.5020 C   0  0  0  0  0  0  0  0  0  0  0  0
  1 23  1  0  0  0  0
  1 24  1  0  0  0  0
  1  2  1  0  0  0  0
  3  4  1  0  0  0  0
  3 17  1  0  0  0  0
  4  6  2  0  0  0  0
  4 13  1  0  0  0  0
  5 10  1  0  0  0  0
  5 14  2  0  0  0  0
  6  8  1  0  0  0  0
  7 12  1  0  0  0  0
  7 14  1  0  0  0  0
  7 19  1  0  0  0  0
  8 10  2  0  0  0  0
  9 14  1  0  0  0  0
 10 12  1  0  0  0  0
 11 18  1  0  0  0  0
 11 20  1  0  0  0  0
 11 21  1  0  0  0  0
 12 13  2  0  0  0  0
 13 15  1  0  0  0  0
 15 16  1  0  0  0  0
 16 17  1  0  0  0  0
 16 18  1  6  0  0  0
 19 22  1  0  0  0  0
 22 23  1  0  0  0  0
M  END
>  <CHROM.1>
-160.70931128,-122.32149657,156.34148851,100.44635455,-165.67022716,63.39377746
10.14407259,-8.15075093,-12.09063569,0.42059062,-0.07599044,3.12236394

>  <Name>
ligand

>  <RI>
0

>  <Rbt.Current_Directory>
/home/itssahil/PROJECTS/Mol_Feturizer/New_Systems/rnas/3TZR

>  <Rbt.Executable>
rbdock ($Id: //depot/dev/client3/rdock/2013.1/src/exe/rbdock.cxx#4 $)

>  <Rbt.Library>
libRbt.so (2013.1, Build901 2013/11/27)

>  <Rbt.Parameter_File>
/export/apps/rDock/src/rDock_2013.1_src/data/scripts/dock_solv.prm

>  <Rbt.Receptor>
prm/pocket_docking_7.prm

>  <SCORE>
-28.2191

>  <SCORE.INTER>
-20.4135

>  <SCORE.INTER.CONST>
1

>  <SCORE.INTER.POLAR>
0

>  <SCORE.INTER.ROT>
6

>  <SCORE.INTER.SOLV>
23.5177

>  <SCORE.INTER.VDW>
-29.0483

>  <SCORE.INTER.norm>
-0.850564

>  <SCORE.INTRA>
-7.80554

>  <SCORE.INTRA.DIHEDRAL>
2.43062

>  <SCORE.INTRA.DIHEDRAL.0>
4.94008

>  <SCORE.INTRA.POLAR>
0

>  <SCORE.INTRA.POLAR.0>
0

>  <SCORE.INTRA.REPUL>
0

>  <SCORE.INTRA.REPUL.0>
0

>  <SCORE.INTRA.SOLV>
2.20605

>  <SCORE.INTRA.SOLV.lig_0>
-31.4704

>  <SCORE.INTRA.VDW>
-10.1239

>  <SCORE.INTRA.VDW.0>
10.2807

>  <SCORE.INTRA.norm>
-0.325231

>  <SCORE.RESTR>
0

>  <SCORE.RESTR.CAVITY>
0

>  <SCORE.RESTR.norm>
0

>  <SCORE.SYSTEM>
0

>  <SCORE.SYSTEM.CONST>
0

>  <SCORE.SYSTEM.DIHEDRAL>
0

>  <SCORE.SYSTEM.SOLV>
0

>  <SCORE.SYSTEM.norm>
0

>  <SCORE.heavy>
24

>  <SCORE.norm>
-1.1758

>  <RMSD>
5.509

$$$$
ligand
 OpenBabel11021811493D
libRbt.so/2013.1/901 2013/11/27
 24 26  0  0  0  0  0  0  0  0999 V2000
   13.2945  -11.9522  -13.1949 N   0  0  0  0  0  0  0  0  0  0  0  0
   12.6864  -13.2377  -13.4982 C   0  0  0  0  0  0  0  0  0  0  0  0
    7.3605   -4.9608  -11.5170 O   0  0  0  0  0  0  0  0  0  0  0  0
    8.7252   -4.9942  -11.7702 C   0  0  0  0  0  0  0  0  0  0  0  0
   12.9266   -5.2825  -12.4941 N   0  0  0  0  0  0  0  0  0  0  0  0
    9.5313   -3.7280  -11.8885 C   0  0  0  0  0  0  0  0  0  0  0  0
   11.8022   -7.2216  -12.3493 N   0  0  0  0  0  0  0  0  0  0  0  0
   10.9447   -3.7359  -12.1215 C   0  0  0  0  0  0  0  0  0  0  0  0
   14.2662   -7.3653  -12.7788 N   0  0  0  0  0  0  0  0  0  0  0  0
   11.5692   -5.0265  -12.2552 C   0  0  0  0  0  0  0  0  0  0  0  0
    6.9404   -9.6603  -12.2908 N   0  0  0  0  0  0  0  0  0  0  0  0
   10.8083   -6.2435  -12.1597 C   0  0  0  0  0  0  0  0  0  0  0  0
    9.3428   -6.1880  -11.9050 C   0  0  0  0  0  0  0  0  0  0  0  0
   13.0511   -6.6406  -12.5419 C   0  0  0  0  0  0  0  0  0  0  0  0
    8.5589   -7.4826  -11.7979 C   0  0  0  0  0  0  0  0  0  0  0  0
    7.0428   -7.3211  -11.7722 C   0  0  1  0  0  0  0  0  0  0  0  0
    6.6019   -5.9342  -12.1438 C   0  0  0  0  0  0  0  0  0  0  0  0
    6.3921   -8.3677  -12.6640 C   0  0  0  0  0  0  0  0  0  0  0  0
   11.5646   -8.6755  -12.2655 C   0  0  0  0  0  0  0  0  0  0  0  0
    6.1812  -10.1744  -11.1589 C   0  0  0  0  0  0  0  0  0  0  0  0
    6.7830  -10.5478  -13.4324 C   0  0  0  0  0  0  0  0  0  0  0  0
   12.6536   -9.5603  -12.8963 C   0  0  0  0  0  0  0  0  0  0  0  0
   12.2925  -11.0345  -12.6343 C   0  0  0  0  0  0  0  0  0  0  0  0
   14.3882  -12.1786  -12.2569 C   0  0  0  0  0  0  0  0  0  0  0  0
  1 23  1  0  0  0  0
  1 24  1  0  0  0  0
  1  2  1  0  0  0  0
  3  4  1  0  0  0  0
  3 17  1  0  0  0  0
  4  6  2  0  0  0  0
  4 13  1  0  0  0  0
  5 10  1  0  0  0  0
  5 14  2  0  0  0  0
  6  8  1  0  0  0  0
  7 12  1  0  0  0  0
  7 14  1  0  0  0  0
  7 19  1  0  0  0  0
  8 10  2  0  0  0  0
  9 14  1  0  0  0  0
 10 12  1  0  0  0  0
 11 18  1  0  0  0  0
 11 20  1  0  0  0  0
 11 21  1  0  0  0  0
 12 13  2  0  0  0  0
 13 15  1  0  0  0  0
 15 16  1  0  0  0  0
 16 17  1  0  0  0  0
 16 18  1  6  0  0  0
 19 22  1  0  0  0  0
 22 23  1  0  0  0  0
M  END
>  <CHROM.1>
-153.58756455,162.85529227,84.61139369,50.67971422,176.20392882,-179.40137280
10.21283480,-7.95473887,-12.33446961,0.74876680,-0.07637963,-3.03985933

>  <Name>
ligand

>  <RI>
0

>  <Rbt.Current_Directory>
/home/itssahil/PROJECTS/Mol_Feturizer/New_Systems/rnas/3TZR

>  <Rbt.Executable>
rbdock ($Id: //depot/dev/client3/rdock/2013.1/src/exe/rbdock.cxx#4 $)

>  <Rbt.Library>
libRbt.so (2013.1, Build901 2013/11/27)

>  <Rbt.Parameter_File>
/export/apps/rDock/src/rDock_2013.1_src/data/scripts/dock_solv.prm

>  <Rbt.Receptor>
prm/blind_docking_40.prm

>  <SCORE>
-28.4558

>  <SCORE.INTER>
-20.1815

>  <SCORE.INTER.CONST>
1

>  <SCORE.INTER.POLAR>
0

>  <SCORE.INTER.ROT>
6

>  <SCORE.INTER.SOLV>
25.7296

>  <SCORE.INTER.VDW>
-29.6308

>  <SCORE.INTER.norm>
-0.840894

>  <SCORE.INTRA>
-8.64578

>  <SCORE.INTRA.DIHEDRAL>
-1.59945

>  <SCORE.INTRA.DIHEDRAL.0>
4.94008

>  <SCORE.INTRA.POLAR>
0

>  <SCORE.INTRA.POLAR.0>
0

>  <SCORE.INTRA.REPUL>
0

>  <SCORE.INTRA.REPUL.0>
0

>  <SCORE.INTRA.SOLV>
1.62831

>  <SCORE.INTRA.SOLV.lig_0>
-31.4704

>  <SCORE.INTRA.VDW>
-8.66021

>  <SCORE.INTRA.VDW.0>
10.2807

>  <SCORE.INTRA.norm>
-0.360241

>  <SCORE.RESTR>
0.371472

>  <SCORE.RESTR.CAVITY>
0.371472

>  <SCORE.RESTR.norm>
0.015478

>  <SCORE.SYSTEM>
0

>  <SCORE.SYSTEM.CONST>
0

>  <SCORE.SYSTEM.DIHEDRAL>
0

>  <SCORE.SYSTEM.SOLV>
0

>  <SCORE.SYSTEM.norm>
0

>  <SCORE.heavy>
24

>  <SCORE.norm>
-1.18566

>  <RMSD>
5.513

$$$$
ligand
 OpenBabel11021811493D
libRbt.so/2013.1/901 2013/11/27
 24 26  0  0  0  0  0  0  0  0999 V2000
   13.4167  -12.2780  -12.2437 N   0  0  0  0  0  0  0  0  0  0  0  0
   14.7574  -11.8209  -12.5721 C   0  0  0  0  0  0  0  0  0  0  0  0
    7.6247   -4.8974  -11.6515 O   0  0  0  0  0  0  0  0  0  0  0  0
    8.9838   -5.0516  -11.8900 C   0  0  0  0  0  0  0  0  0  0  0  0
   13.1539   -5.7061  -12.5539 N   0  0  0  0  0  0  0  0  0  0  0  0
    9.8822   -3.8618  -12.1004 C   0  0  0  0  0  0  0  0  0  0  0  0
   11.8879   -7.5393  -12.2670 N   0  0  0  0  0  0  0  0  0  0  0  0
   11.2916   -3.9925  -12.3203 C   0  0  0  0  0  0  0  0  0  0  0  0
   14.3355   -7.8982  -12.6633 N   0  0  0  0  0  0  0  0  0  0  0  0
   11.8187   -5.3323  -12.3472 C   0  0  0  0  0  0  0  0  0  0  0  0
    7.0115   -9.5849  -12.2139 N   0  0  0  0  0  0  0  0  0  0  0  0
   10.9691   -6.4784  -12.1630 C   0  0  0  0  0  0  0  0  0  0  0  0
    9.5112   -6.2947  -11.9257 C   0  0  0  0  0  0  0  0  0  0  0  0
   13.1771   -7.0692  -12.4941 C   0  0  0  0  0  0  0  0  0  0  0  0
    8.6328   -7.5153  -11.7239 C   0  0  0  0  0  0  0  0  0  0  0  0
    7.1329   -7.2405  -11.7236 C   0  0  1  0  0  0  0  0  0  0  0  0
    6.7974   -5.8584  -12.2065 C   0  0  0  0  0  0  0  0  0  0  0  0
    6.4084   -8.3031  -12.5361 C   0  0  0  0  0  0  0  0  0  0  0  0
   11.5425   -8.9605  -12.0715 C   0  0  0  0  0  0  0  0  0  0  0  0
    6.3575  -10.1173  -11.0262 C   0  0  0  0  0  0  0  0  0  0  0  0
    6.7801  -10.4728  -13.3424 C   0  0  0  0  0  0  0  0  0  0  0  0
   12.5559   -9.9703  -12.6373 C   0  0  0  0  0  0  0  0  0  0  0  0
   12.6263  -11.1746  -11.6796 C   0  0  0  0  0  0  0  0  0  0  0  0
   12.8049  -12.7989  -13.4609 C   0  0  0  0  0  0  0  0  0  0  0  0
  1 23  1  0  0  0  0
  1 24  1  0  0  0  0
  1  2  1  0  0  0  0
  3  4  1  0  0  0  0
  3 17  1  0  0  0  0
  4  6  2  0  0  0  0
  4 13  1  0  0  0  0
  5 10  1  0  0  0  0
  5 14  2  0  0  0  0
  6  8  1  0  0  0  0
  7 12  1  0  0  0  0
  7 14  1  0  0  0  0
  7 19  1  0  0  0  0
  8 10  2  0  0  0  0
  9 14  1  0  0  0  0
 10 12  1  0  0  0  0
 11 18  1  0  0  0  0
 11 20  1  0  0  0  0
 11 21  1  0  0  0  0
 12 13  2  0  0  0  0
 13 15  1  0  0  0  0
 15 16  1  0  0  0  0
 16 17  1  0  0  0  0
 16 18  1  6  0  0  0
 19 22  1  0  0  0  0
 22 23  1  0  0  0  0
M  END
>  <CHROM.1>
57.05623632,162.13401241,86.10361455,41.61156977,143.55690583,171.37448629
10.36663828,-8.05807424,-12.24746819,0.66118463,-0.06101453,-3.09256957

>  <Name>
ligand

>  <RI>
0

>  <Rbt.Current_Directory>
/home/itssahil/PROJECTS/Mol_Feturizer/New_Systems/rnas/3TZR

>  <Rbt.Executable>
rbdock ($Id: //depot/dev/client3/rdock/2013.1/src/exe/rbdock.cxx#4 $)

>  <Rbt.Library>
libRbt.so (2013.1, Build901 2013/11/27)

>  <Rbt.Parameter_File>
/export/apps/rDock/src/rDock_2013.1_src/data/scripts/dock_solv.prm

>  <Rbt.Receptor>
prm/blind_docking_40.prm

>  <SCORE>
-22.5114

>  <SCORE.INTER>
-20.8972

>  <SCORE.INTER.CONST>
1

>  <SCORE.INTER.POLAR>
0

>  <SCORE.INTER.ROT>
6

>  <SCORE.INTER.SOLV>
23.698

>  <SCORE.INTER.VDW>
-29.4308

>  <SCORE.INTER.norm>
-0.870717

>  <SCORE.INTRA>
-1.64511

>  <SCORE.INTRA.DIHEDRAL>
2.23012

>  <SCORE.INTRA.DIHEDRAL.0>
4.94008

>  <SCORE.INTRA.POLAR>
0

>  <SCORE.INTRA.POLAR.0>
0

>  <SCORE.INTRA.REPUL>
0

>  <SCORE.INTRA.REPUL.0>
0

>  <SCORE.INTRA.SOLV>
2.82074

>  <SCORE.INTRA.SOLV.lig_0>
-31.4704

>  <SCORE.INTRA.VDW>
-4.17054

>  <SCORE.INTRA.VDW.0>
10.2807

>  <SCORE.INTRA.norm>
-0.0685463

>  <SCORE.RESTR>
0.0308741

>  <SCORE.RESTR.CAVITY>
0.0308741

>  <SCORE.RESTR.norm>
0.00128642

>  <SCORE.SYSTEM>
0

>  <SCORE.SYSTEM.CONST>
0

>  <SCORE.SYSTEM.DIHEDRAL>
0

>  <SCORE.SYSTEM.SOLV>
0

>  <SCORE.SYSTEM.norm>
0

>  <SCORE.heavy>
24

>  <SCORE.norm>
-0.937977

>  <RMSD>
5.518

$$$$
ligand
 OpenBabel11021811493D
libRbt.so/2013.1/901 2013/11/27
 24 26  0  0  0  0  0  0  0  0999 V2000
   12.9206  -11.5142  -12.5788 N   0  0  0  0  0  0  0  0  0  0  0  0
   12.4050  -12.8437  -12.8631 C   0  0  0  0  0  0  0  0  0  0  0  0
    7.3863   -5.1578  -11.6627 O   0  0  0  0  0  0  0  0  0  0  0  0
    8.7479   -5.1911  -11.9324 C   0  0  0  0  0  0  0  0  0  0  0  0
   12.9434   -5.4738  -12.6919 N   0  0  0  0  0  0  0  0  0  0  0  0
    9.5317   -3.9266  -12.1643 C   0  0  0  0  0  0  0  0  0  0  0  0
   11.8525   -7.4115  -12.3744 N   0  0  0  0  0  0  0  0  0  0  0  0
   10.9418   -3.9321  -12.4166 C   0  0  0  0  0  0  0  0  0  0  0  0
   14.3126   -7.5524  -12.8268 N   0  0  0  0  0  0  0  0  0  0  0  0
   11.5853   -5.2197  -12.4547 C   0  0  0  0  0  0  0  0  0  0  0  0
    5.9467   -9.6303  -11.5631 N   0  0  0  0  0  0  0  0  0  0  0  0
   10.8456   -6.4363  -12.2500 C   0  0  0  0  0  0  0  0  0  0  0  0
    9.3829   -6.3824  -11.9792 C   0  0  0  0  0  0  0  0  0  0  0  0
   13.0892   -6.8293  -12.6315 C   0  0  0  0  0  0  0  0  0  0  0  0
    8.6215   -7.6758  -11.7564 C   0  0  0  0  0  0  0  0  0  0  0  0
    7.1034   -7.5355  -11.7217 C   0  0  1  0  0  0  0  0  0  0  0  0
    6.6353   -6.1901  -12.1977 C   0  0  0  0  0  0  0  0  0  0  0  0
    6.4580   -8.6607  -12.5165 C   0  0  0  0  0  0  0  0  0  0  0  0
   11.6396   -8.8573  -12.1700 C   0  0  0  0  0  0  0  0  0  0  0  0
    4.8613  -10.3695  -12.1935 C   0  0  0  0  0  0  0  0  0  0  0  0
    7.0353  -10.5380  -11.2367 C   0  0  0  0  0  0  0  0  0  0  0  0
   12.5566   -9.5190  -11.1269 C   0  0  0  0  0  0  0  0  0  0  0  0
   12.4333  -11.0473  -11.2731 C   0  0  0  0  0  0  0  0  0  0  0  0
   14.3775  -11.5776  -12.6080 C   0  0  0  0  0  0  0  0  0  0  0  0
  1 23  1  0  0  0  0
  1 24  1  0  0  0  0
  1  2  1  0  0  0  0
  3  4  1  0  0  0  0
  3 17  1  0  0  0  0
  4  6  2  0  0  0  0
  4 13  1  0  0  0  0
  5 10  1  0  0  0  0
  5 14  2  0  0  0  0
  6  8  1  0  0  0  0
  7 12  1  0  0  0  0
  7 14  1  0  0  0  0
  7 19  1  0  0  0  0
  8 10  2  0  0  0  0
  9 14  1  0  0  0  0
 10 12  1  0  0  0  0
 11 18  1  0  0  0  0
 11 20  1  0  0  0  0
 11 21  1  0  0  0  0
 12 13  2  0  0  0  0
 13 15  1  0  0  0  0
 15 16  1  0  0  0  0
 16 17  1  0  0  0  0
 16 18  1  6  0  0  0
 19 22  1  0  0  0  0
 22 23  1  0  0  0  0
M  END
>  <CHROM.1>
-161.41862826,-124.51439403,155.37424290,102.96873329,-167.06395707,64.05164989
10.11800261,-8.02828689,-12.12686890,0.38782032,-0.08140081,3.11564699

>  <Name>
ligand

>  <RI>
0

>  <Rbt.Current_Directory>
/home/itssahil/PROJECTS/Mol_Feturizer/New_Systems/rnas/3TZR

>  <Rbt.Executable>
rbdock ($Id: //depot/dev/client3/rdock/2013.1/src/exe/rbdock.cxx#4 $)

>  <Rbt.Library>
libRbt.so (2013.1, Build901 2013/11/27)

>  <Rbt.Parameter_File>
/export/apps/rDock/src/rDock_2013.1_src/data/scripts/dock_solv.prm

>  <Rbt.Receptor>
prm/pocket_docking_5.prm

>  <SCORE>
-28.2826

>  <SCORE.INTER>
-20.4709

>  <SCORE.INTER.CONST>
1

>  <SCORE.INTER.POLAR>
0

>  <SCORE.INTER.ROT>
6

>  <SCORE.INTER.SOLV>
24.1832

>  <SCORE.INTER.VDW>
-29.3084

>  <SCORE.INTER.norm>
-0.852954

>  <SCORE.INTRA>
-7.8117

>  <SCORE.INTRA.DIHEDRAL>
2.63208

>  <SCORE.INTRA.DIHEDRAL.0>
4.94008

>  <SCORE.INTRA.POLAR>
0

>  <SCORE.INTRA.POLAR.0>
0

>  <SCORE.INTRA.REPUL>
0

>  <SCORE.INTRA.REPUL.0>
0

>  <SCORE.INTRA.SOLV>
2.14027

>  <SCORE.INTRA.SOLV.lig_0>
-31.4704

>  <SCORE.INTRA.VDW>
-10.1979

>  <SCORE.INTRA.VDW.0>
10.2807

>  <SCORE.INTRA.norm>
-0.325488

>  <SCORE.RESTR>
0

>  <SCORE.RESTR.CAVITY>
0

>  <SCORE.RESTR.norm>
0

>  <SCORE.SYSTEM>
0

>  <SCORE.SYSTEM.CONST>
0

>  <SCORE.SYSTEM.DIHEDRAL>
0

>  <SCORE.SYSTEM.SOLV>
0

>  <SCORE.SYSTEM.norm>
0

>  <SCORE.heavy>
24

>  <SCORE.norm>
-1.17844

>  <RMSD>
5.524

$$$$
ligand
 OpenBabel11021811493D
libRbt.so/2013.1/901 2013/11/27
 24 26  0  0  0  0  0  0  0  0999 V2000
   13.4537  -11.7318  -12.4394 N   0  0  0  0  0  0  0  0  0  0  0  0
   14.9035  -11.8392  -12.4677 C   0  0  0  0  0  0  0  0  0  0  0  0
    7.9155   -5.0396  -11.6849 O   0  0  0  0  0  0  0  0  0  0  0  0
    9.2724   -5.2750  -11.8619 C   0  0  0  0  0  0  0  0  0  0  0  0
   13.4230   -6.1759  -12.3308 N   0  0  0  0  0  0  0  0  0  0  0  0
   10.2419   -4.1438  -12.0792 C   0  0  0  0  0  0  0  0  0  0  0  0
   12.0484   -7.9265  -12.0284 N   0  0  0  0  0  0  0  0  0  0  0  0
   11.6496   -4.3578  -12.2365 C   0  0  0  0  0  0  0  0  0  0  0  0
   14.4862   -8.4303  -12.3112 N   0  0  0  0  0  0  0  0  0  0  0  0
   12.1032   -5.7238  -12.1926 C   0  0  0  0  0  0  0  0  0  0  0  0
    7.0313   -9.7085  -12.0604 N   0  0  0  0  0  0  0  0  0  0  0  0
   11.1857   -6.8149  -12.0011 C   0  0  0  0  0  0  0  0  0  0  0  0
    9.7319   -6.5448  -11.8303 C   0  0  0  0  0  0  0  0  0  0  0  0
   13.3692   -7.5349  -12.2199 C   0  0  0  0  0  0  0  0  0  0  0  0
    8.7809   -7.7082  -11.6197 C   0  0  0  0  0  0  0  0  0  0  0  0
    7.2993   -7.3542  -11.6907 C   0  0  1  0  0  0  0  0  0  0  0  0
    7.0589   -5.9761  -12.2373 C   0  0  0  0  0  0  0  0  0  0  0  0
    6.5498   -8.4076  -12.4923 C   0  0  0  0  0  0  0  0  0  0  0  0
   11.6185   -9.3186  -11.7950 C   0  0  0  0  0  0  0  0  0  0  0  0
    6.3728  -10.0518  -10.8073 C   0  0  0  0  0  0  0  0  0  0  0  0
    6.6673  -10.6721  -13.0874 C   0  0  0  0  0  0  0  0  0  0  0  0
   11.5699  -10.2134  -13.0454 C   0  0  0  0  0  0  0  0  0  0  0  0
   13.0028  -10.6809  -13.3629 C   0  0  0  0  0  0  0  0  0  0  0  0
   12.8962  -13.0299  -12.8022 C   0  0  0  0  0  0  0  0  0  0  0  0
  1 23  1  0  0  0  0
  1 24  1  0  0  0  0
  1  2  1  0  0  0  0
  3  4  1  0  0  0  0
  3 17  1  0  0  0  0
  4  6  2  0  0  0  0
  4 13  1  0  0  0  0
  5 10  1  0  0  0  0
  5 14  2  0  0  0  0
  6  8  1  0  0  0  0
  7 12  1  0  0  0  0
  7 14  1  0  0  0  0
  7 19  1  0  0  0  0
  8 10  2  0  0  0  0
  9 14  1  0  0  0  0
 10 12  1  0  0  0  0
 11 18  1  0  0  0  0
 11 20  1  0  0  0  0
 11 21  1  0  0  0  0
 12 13  2  0  0  0  0
 13 15  1  0  0  0  0
 15 16  1  0  0  0  0
 16 17  1  0  0  0  0
 16 18  1  6  0  0  0
 19 22  1  0  0  0  0
 22 23  1  0  0  0  0
M  END
>  <CHROM.1>
-161.36661489,106.66060015,79.65135374,43.83557830,79.75849560,75.41055680
10.49233347,-8.23577322,-12.20064814,0.55655579,-0.06372061,-3.06449897

>  <Name>
ligand

>  <RI>
0

>  <Rbt.Current_Directory>
/home/itssahil/PROJECTS/Mol_Feturizer/New_Systems/rnas/3TZR

>  <Rbt.Executable>
rbdock ($Id: //depot/dev/client3/rdock/2013.1/src/exe/rbdock.cxx#4 $)

>  <Rbt.Library>
libRbt.so (2013.1, Build901 2013/11/27)

>  <Rbt.Parameter_File>
/export/apps/rDock/src/rDock_2013.1_src/data/scripts/dock_solv.prm

>  <Rbt.Receptor>
prm/blind_docking_80.prm

>  <SCORE>
-27.108

>  <SCORE.INTER>
-20.2308

>  <SCORE.INTER.CONST>
1

>  <SCORE.INTER.POLAR>
0

>  <SCORE.INTER.ROT>
6

>  <SCORE.INTER.SOLV>
22.1661

>  <SCORE.INTER.VDW>
-28.4759

>  <SCORE.INTER.norm>
-0.842948

>  <SCORE.INTRA>
-6.87721

>  <SCORE.INTRA.DIHEDRAL>
0.599903

>  <SCORE.INTRA.DIHEDRAL.0>
4.94008

>  <SCORE.INTRA.POLAR>
0

>  <SCORE.INTRA.POLAR.0>
0

>  <SCORE.INTRA.REPUL>
0

>  <SCORE.INTRA.REPUL.0>
0

>  <SCORE.INTRA.SOLV>
4.53928

>  <SCORE.INTRA.SOLV.lig_0>
-31.4704

>  <SCORE.INTRA.VDW>
-9.4468

>  <SCORE.INTRA.VDW.0>
10.2807

>  <SCORE.INTRA.norm>
-0.28655

>  <SCORE.RESTR>
0

>  <SCORE.RESTR.CAVITY>
0

>  <SCORE.RESTR.norm>
0

>  <SCORE.SYSTEM>
0

>  <SCORE.SYSTEM.CONST>
0

>  <SCORE.SYSTEM.DIHEDRAL>
0

>  <SCORE.SYSTEM.SOLV>
0

>  <SCORE.SYSTEM.norm>
0

>  <SCORE.heavy>
24

>  <SCORE.norm>
-1.1295

>  <RMSD>
5.527

$$$$
ligand
 OpenBabel11021811493D
libRbt.so/2013.1/901 2013/11/27
 24 26  0  0  0  0  0  0  0  0999 V2000
   13.2264  -11.6586  -13.3150 N   0  0  0  0  0  0  0  0  0  0  0  0
   12.7319  -13.0257  -13.2871 C   0  0  0  0  0  0  0  0  0  0  0  0
    7.2996   -4.7529  -11.4982 O   0  0  0  0  0  0  0  0  0  0  0  0
    8.6646   -4.7663  -11.7517 C   0  0  0  0  0  0  0  0  0  0  0  0
   12.8702   -4.9920  -12.4738 N   0  0  0  0  0  0  0  0  0  0  0  0
    9.4487   -3.4881  -11.8874 C   0  0  0  0  0  0  0  0  0  0  0  0
   11.7792   -6.9480  -12.3024 N   0  0  0  0  0  0  0  0  0  0  0  0
   10.8620   -3.4748  -12.1210 C   0  0  0  0  0  0  0  0  0  0  0  0
   14.2453   -7.0550  -12.7312 N   0  0  0  0  0  0  0  0  0  0  0  0
   11.5085   -4.7562  -12.2377 C   0  0  0  0  0  0  0  0  0  0  0  0
    7.0092   -9.4595  -12.2557 N   0  0  0  0  0  0  0  0  0  0  0  0
   10.7688   -5.9847  -12.1255 C   0  0  0  0  0  0  0  0  0  0  0  0
    9.3026   -5.9509  -11.8708 C   0  0  0  0  0  0  0  0  0  0  0  0
   13.0179   -6.3483  -12.5034 C   0  0  0  0  0  0  0  0  0  0  0  0
    8.5411   -7.2573  -11.7459 C   0  0  0  0  0  0  0  0  0  0  0  0
    7.0224   -7.1216  -11.7216 C   0  0  1  0  0  0  0  0  0  0  0  0
    6.5577   -5.7476  -12.1116 C   0  0  0  0  0  0  0  0  0  0  0  0
    6.3896   -8.1911  -12.5990 C   0  0  0  0  0  0  0  0  0  0  0  0
   11.5667   -8.4046  -12.1990 C   0  0  0  0  0  0  0  0  0  0  0  0
    6.3194  -10.0119  -11.0977 C   0  0  0  0  0  0  0  0  0  0  0  0
    6.8460  -10.3482  -13.3955 C   0  0  0  0  0  0  0  0  0  0  0  0
   12.5794   -9.2757  -12.9621 C   0  0  0  0  0  0  0  0  0  0  0  0
   12.2615  -10.7547  -12.6729 C   0  0  0  0  0  0  0  0  0  0  0  0
   14.5148  -11.6289  -12.6319 C   0  0  0  0  0  0  0  0  0  0  0  0
  1 23  1  0  0  0  0
  1 24  1  0  0  0  0
  1  2  1  0  0  0  0
  3  4  1  0  0  0  0
  3 17  1  0  0  0  0
  4  6  2  0  0  0  0
  4 13  1  0  0  0  0
  5 10  1  0  0  0  0
  5 14  2  0  0  0  0
  6  8  1  0  0  0  0
  7 12  1  0  0  0  0
  7 14  1  0  0  0  0
  7 19  1  0  0  0  0
  8 10  2  0  0  0  0
  9 14  1  0  0  0  0
 10 12  1  0  0  0  0
 11 18  1  0  0  0  0
 11 20  1  0  0  0  0
 11 21  1  0  0  0  0
 12 13  2  0  0  0  0
 13 15  1  0  0  0  0
 15 16  1  0  0  0  0
 16 17  1  0  0  0  0
 16 18  1  6  0  0  0
 19 22  1  0  0  0  0
 22 23  1  0  0  0  0
M  END
>  <CHROM.1>
-166.81751017,155.83508661,84.28838582,47.84533283,176.49763245,-177.25386375
10.20009196,-7.69993551,-12.32323575,0.74180871,-0.09051869,-3.03502956

>  <Name>
ligand

>  <RI>
144

>  <Rbt.Current_Directory>
/home/itssahil/PROJECTS/Mol_Feturizer/New_Systems/rnas/3TZR

>  <Rbt.Executable>
rbdock ($Id: //depot/dev/client3/rdock/2013.1/src/exe/rbdock.cxx#4 $)

>  <Rbt.Library>
libRbt.so (2013.1, Build901 2013/11/27)

>  <Rbt.Parameter_File>
/export/apps/rDock/src/rDock_2013.1_src/data/scripts/dock_solv.prm

>  <Rbt.Receptor>
prm/blind_docking_60.prm

>  <SCORE>
-27.1021

>  <SCORE.INTER>
-19.409

>  <SCORE.INTER.CONST>
1

>  <SCORE.INTER.POLAR>
0

>  <SCORE.INTER.ROT>
6

>  <SCORE.INTER.SOLV>
26.5687

>  <SCORE.INTER.VDW>
-29.3955

>  <SCORE.INTER.norm>
-0.808707

>  <SCORE.INTRA>
-8.51832

>  <SCORE.INTRA.DIHEDRAL>
-2.11264

>  <SCORE.INTRA.DIHEDRAL.0>
4.94008

>  <SCORE.INTRA.POLAR>
0

>  <SCORE.INTRA.POLAR.0>
0

>  <SCORE.INTRA.REPUL>
0

>  <SCORE.INTRA.REPUL.0>
0

>  <SCORE.INTRA.SOLV>
1.74797

>  <SCORE.INTRA.SOLV.lig_0>
-31.4704

>  <SCORE.INTRA.VDW>
-8.33598

>  <SCORE.INTRA.VDW.0>
10.2807

>  <SCORE.INTRA.norm>
-0.35493

>  <SCORE.RESTR>
0.825219

>  <SCORE.RESTR.CAVITY>
0.825219

>  <SCORE.RESTR.norm>
0.0343841

>  <SCORE.SYSTEM>
0

>  <SCORE.SYSTEM.CONST>
0

>  <SCORE.SYSTEM.DIHEDRAL>
0

>  <SCORE.SYSTEM.SOLV>
0

>  <SCORE.SYSTEM.norm>
0

>  <SCORE.heavy>
24

>  <SCORE.norm>
-1.12925

>  <RMSD>
5.529

$$$$
ligand
 OpenBabel11021811493D
libRbt.so/2013.1/901 2013/11/27
 24 26  0  0  0  0  0  0  0  0999 V2000
   13.0754  -12.8678  -12.6629 N   0  0  0  0  0  0  0  0  0  0  0  0
   12.2899  -13.5669  -13.6672 C   0  0  0  0  0  0  0  0  0  0  0  0
    7.8108   -5.3360  -11.7051 O   0  0  0  0  0  0  0  0  0  0  0  0
    9.1732   -5.5036  -11.9141 C   0  0  0  0  0  0  0  0  0  0  0  0
   13.3527   -6.1938  -12.4744 N   0  0  0  0  0  0  0  0  0  0  0  0
   10.0720   -4.3300  -12.1997 C   0  0  0  0  0  0  0  0  0  0  0  0
   12.0863   -8.0043  -12.0699 N   0  0  0  0  0  0  0  0  0  0  0  0
   11.4845   -4.4727  -12.3913 C   0  0  0  0  0  0  0  0  0  0  0  0
   14.5395   -8.3848  -12.4073 N   0  0  0  0  0  0  0  0  0  0  0  0
   12.0142   -5.8094  -12.3129 C   0  0  0  0  0  0  0  0  0  0  0  0
    6.0846   -9.7166  -11.3557 N   0  0  0  0  0  0  0  0  0  0  0  0
   11.1644   -6.9412  -12.0559 C   0  0  0  0  0  0  0  0  0  0  0  0
    9.7031   -6.7445  -11.8515 C   0  0  0  0  0  0  0  0  0  0  0  0
   13.3775   -7.5488  -12.3143 C   0  0  0  0  0  0  0  0  0  0  0  0
    8.8244   -7.9494  -11.5720 C   0  0  0  0  0  0  0  0  0  0  0  0
    7.3240   -7.6795  -11.6112 C   0  0  1  0  0  0  0  0  0  0  0  0
    6.9924   -6.3374  -12.1985 C   0  0  0  0  0  0  0  0  0  0  0  0
    6.6121   -8.8008  -12.3526 C   0  0  0  0  0  0  0  0  0  0  0  0
   11.7409   -9.4083  -11.7750 C   0  0  0  0  0  0  0  0  0  0  0  0
    4.9651  -10.4416  -11.9413 C   0  0  0  0  0  0  0  0  0  0  0  0
    7.1477  -10.6477  -11.0118 C   0  0  0  0  0  0  0  0  0  0  0  0
   12.4299  -10.4586  -12.6632 C   0  0  0  0  0  0  0  0  0  0  0  0
   12.2589  -11.8394  -12.0026 C   0  0  0  0  0  0  0  0  0  0  0  0
   13.5636  -13.8523  -11.7037 C   0  0  0  0  0  0  0  0  0  0  0  0
  1 23  1  0  0  0  0
  1 24  1  0  0  0  0
  1  2  1  0  0  0  0
  3  4  1  0  0  0  0
  3 17  1  0  0  0  0
  4  6  2  0  0  0  0
  4 13  1  0  0  0  0
  5 10  1  0  0  0  0
  5 14  2  0  0  0  0
  6  8  1  0  0  0  0
  7 12  1  0  0  0  0
  7 14  1  0  0  0  0
  7 19  1  0  0  0  0
  8 10  2  0  0  0  0
  9 14  1  0  0  0  0
 10 12  1  0  0  0  0
 11 18  1  0  0  0  0
 11 20  1  0  0  0  0
 11 21  1  0  0  0  0
 12 13  2  0  0  0  0
 13 15  1  0  0  0  0
 15 16  1  0  0  0  0
 16 17  1  0  0  0  0
 16 18  1  6  0  0  0
 19 22  1  0  0  0  0
 22 23  1  0  0  0  0
M  END
>  <CHROM.1>
-94.31864320,140.16760854,156.14231085,98.03221071,165.40423497,-170.44180560
10.29164636,-8.58982035,-12.08880519,0.73714735,-0.09815827,-3.12871421

>  <Name>
ligand

>  <RI>
0

>  <Rbt.Current_Directory>
/home/itssahil/PROJECTS/Mol_Feturizer/New_Systems/rnas/3TZR

>  <Rbt.Executable>
rbdock ($Id: //depot/dev/client3/rdock/2013.1/src/exe/rbdock.cxx#4 $)

>  <Rbt.Library>
libRbt.so (2013.1, Build901 2013/11/27)

>  <Rbt.Parameter_File>
/export/apps/rDock/src/rDock_2013.1_src/data/scripts/dock_solv.prm

>  <Rbt.Receptor>
prm/pocket_docking_4.prm

>  <SCORE>
-27.4843

>  <SCORE.INTER>
-19.6833

>  <SCORE.INTER.CONST>
1

>  <SCORE.INTER.POLAR>
0

>  <SCORE.INTER.ROT>
6

>  <SCORE.INTER.SOLV>
21.2906

>  <SCORE.INTER.VDW>
-27.8191

>  <SCORE.INTER.norm>
-0.820137

>  <SCORE.INTRA>
-7.80104

>  <SCORE.INTRA.DIHEDRAL>
3.24089

>  <SCORE.INTRA.DIHEDRAL.0>
4.94008

>  <SCORE.INTRA.POLAR>
0

>  <SCORE.INTRA.POLAR.0>
0

>  <SCORE.INTRA.REPUL>
0

>  <SCORE.INTRA.REPUL.0>
0

>  <SCORE.INTRA.SOLV>
1.29259

>  <SCORE.INTRA.SOLV.lig_0>
-31.4704

>  <SCORE.INTRA.VDW>
-10.0678

>  <SCORE.INTRA.VDW.0>
10.2807

>  <SCORE.INTRA.norm>
-0.325043

>  <SCORE.RESTR>
0

>  <SCORE.RESTR.CAVITY>
0

>  <SCORE.RESTR.norm>
0

>  <SCORE.SYSTEM>
0

>  <SCORE.SYSTEM.CONST>
0

>  <SCORE.SYSTEM.DIHEDRAL>
0

>  <SCORE.SYSTEM.SOLV>
0

>  <SCORE.SYSTEM.norm>
0

>  <SCORE.heavy>
24

>  <SCORE.norm>
-1.14518

>  <RMSD>
5.534

$$$$
ligand
 OpenBabel11021811493D
libRbt.so/2013.1/901 2013/11/27
 24 26  0  0  0  0  0  0  0  0999 V2000
   13.4883  -11.4599  -11.9751 N   0  0  0  0  0  0  0  0  0  0  0  0
   13.1313  -11.3557  -13.3808 C   0  0  0  0  0  0  0  0  0  0  0  0
    7.3991   -5.1354  -11.6535 O   0  0  0  0  0  0  0  0  0  0  0  0
    8.7599   -5.1741  -11.9261 C   0  0  0  0  0  0  0  0  0  0  0  0
   12.9526   -5.4736  -12.6945 N   0  0  0  0  0  0  0  0  0  0  0  0
    9.5482   -3.9129  -12.1604 C   0  0  0  0  0  0  0  0  0  0  0  0
   11.8549   -7.4069  -12.3736 N   0  0  0  0  0  0  0  0  0  0  0  0
   10.9577   -3.9240  -12.4157 C   0  0  0  0  0  0  0  0  0  0  0  0
   14.3134   -7.5576  -12.8313 N   0  0  0  0  0  0  0  0  0  0  0  0
   11.5960   -5.2141  -12.4545 C   0  0  0  0  0  0  0  0  0  0  0  0
    5.9769   -9.6213  -11.5498 N   0  0  0  0  0  0  0  0  0  0  0  0
   10.8520   -6.4277  -12.2476 C   0  0  0  0  0  0  0  0  0  0  0  0
    9.3902   -6.3679  -11.9737 C   0  0  0  0  0  0  0  0  0  0  0  0
   13.0933   -6.8296  -12.6337 C   0  0  0  0  0  0  0  0  0  0  0  0
    8.6242   -7.6582  -11.7485 C   0  0  0  0  0  0  0  0  0  0  0  0
    7.1068   -7.5120  -11.7106 C   0  0  1  0  0  0  0  0  0  0  0  0
    6.6429   -6.1650  -12.1863 C   0  0  0  0  0  0  0  0  0  0  0  0
    6.4553   -8.6351  -12.5033 C   0  0  0  0  0  0  0  0  0  0  0  0
   11.6368   -8.8517  -12.1679 C   0  0  0  0  0  0  0  0  0  0  0  0
    4.9068  -10.3867  -12.1749 C   0  0  0  0  0  0  0  0  0  0  0  0
    7.0916  -10.5010  -11.2348 C   0  0  0  0  0  0  0  0  0  0  0  0
   12.3769   -9.4672  -10.9678 C   0  0  0  0  0  0  0  0  0  0  0  0
   12.3765  -10.9986  -11.1316 C   0  0  0  0  0  0  0  0  0  0  0  0
   13.8231  -12.8516  -11.6949 C   0  0  0  0  0  0  0  0  0  0  0  0
  1 23  1  0  0  0  0
  1 24  1  0  0  0  0
  1  2  1  0  0  0  0
  3  4  1  0  0  0  0
  3 17  1  0  0  0  0
  4  6  2  0  0  0  0
  4 13  1  0  0  0  0
  5 10  1  0  0  0  0
  5 14  2  0  0  0  0
  6  8  1  0  0  0  0
  7 12  1  0  0  0  0
  7 14  1  0  0  0  0
  7 19  1  0  0  0  0
  8 10  2  0  0  0  0
  9 14  1  0  0  0  0
 10 12  1  0  0  0  0
 11 18  1  0  0  0  0
 11 20  1  0  0  0  0
 11 21  1  0  0  0  0
 12 13  2  0  0  0  0
 13 15  1  0  0  0  0
 15 16  1  0  0  0  0
 16 17  1  0  0  0  0
 16 18  1  6  0  0  0
 19 22  1  0  0  0  0
 22 23  1  0  0  0  0
M  END
>  <CHROM.1>
-83.55941658,-114.50021918,156.72441899,101.33100873,-163.91046325,85.07590569
10.15019214,-8.00288351,-12.06578703,0.41074846,-0.06899149,3.07196292

>  <Name>
ligand

>  <RI>
0

>  <Rbt.Current_Directory>
/home/itssahil/PROJECTS/Mol_Feturizer/New_Systems/rnas/3TZR

>  <Rbt.Executable>
rbdock ($Id: //depot/dev/client3/rdock/2013.1/src/exe/rbdock.cxx#4 $)

>  <Rbt.Library>
libRbt.so (2013.1, Build901 2013/11/27)

>  <Rbt.Parameter_File>
/export/apps/rDock/src/rDock_2013.1_src/data/scripts/dock_solv.prm

>  <Rbt.Receptor>
prm/blind_docking_100.prm

>  <SCORE>
-26.8804

>  <SCORE.INTER>
-20.4967

>  <SCORE.INTER.CONST>
1

>  <SCORE.INTER.POLAR>
0

>  <SCORE.INTER.ROT>
6

>  <SCORE.INTER.SOLV>
23.7728

>  <SCORE.INTER.VDW>
-29.1887

>  <SCORE.INTER.norm>
-0.854029

>  <SCORE.INTRA>
-6.38373

>  <SCORE.INTRA.DIHEDRAL>
4.88649

>  <SCORE.INTRA.DIHEDRAL.0>
4.94008

>  <SCORE.INTRA.POLAR>
0

>  <SCORE.INTRA.POLAR.0>
0

>  <SCORE.INTRA.REPUL>
0

>  <SCORE.INTRA.REPUL.0>
0

>  <SCORE.INTRA.SOLV>
2.03641

>  <SCORE.INTRA.SOLV.lig_0>
-31.4704

>  <SCORE.INTRA.VDW>
-9.84518

>  <SCORE.INTRA.VDW.0>
10.2807

>  <SCORE.INTRA.norm>
-0.265989

>  <SCORE.RESTR>
0

>  <SCORE.RESTR.CAVITY>
0

>  <SCORE.RESTR.norm>
0

>  <SCORE.SYSTEM>
0

>  <SCORE.SYSTEM.CONST>
0

>  <SCORE.SYSTEM.DIHEDRAL>
0

>  <SCORE.SYSTEM.SOLV>
0

>  <SCORE.SYSTEM.norm>
0

>  <SCORE.heavy>
24

>  <SCORE.norm>
-1.12002

>  <RMSD>
5.538

$$$$
ligand
 OpenBabel11021811493D
libRbt.so/2013.1/901 2013/11/27
 24 26  0  0  0  0  0  0  0  0999 V2000
   13.7303  -11.6937  -11.9268 N   0  0  0  0  0  0  0  0  0  0  0  0
   14.8032  -11.2803  -12.8169 C   0  0  0  0  0  0  0  0  0  0  0  0
    7.3415   -4.8661  -11.5301 O   0  0  0  0  0  0  0  0  0  0  0  0
    8.7045   -4.9198  -11.7890 C   0  0  0  0  0  0  0  0  0  0  0  0
   12.8983   -5.2702  -12.5297 N   0  0  0  0  0  0  0  0  0  0  0  0
    9.5284   -3.6656  -11.9123 C   0  0  0  0  0  0  0  0  0  0  0  0
   11.7463   -7.1926  -12.3774 N   0  0  0  0  0  0  0  0  0  0  0  0
   10.9406   -3.6944  -12.1512 C   0  0  0  0  0  0  0  0  0  0  0  0
   14.2062   -7.3727  -12.8169 N   0  0  0  0  0  0  0  0  0  0  0  0
   11.5457   -4.9941  -12.2856 C   0  0  0  0  0  0  0  0  0  0  0  0
    6.9078   -9.5499  -12.3511 N   0  0  0  0  0  0  0  0  0  0  0  0
   10.7676   -6.1998  -12.1852 C   0  0  0  0  0  0  0  0  0  0  0  0
    9.3041   -6.1226  -11.9245 C   0  0  0  0  0  0  0  0  0  0  0  0
   13.0028   -6.6301  -12.5760 C   0  0  0  0  0  0  0  0  0  0  0  0
    8.5019   -7.4056  -11.8123 C   0  0  0  0  0  0  0  0  0  0  0  0
    6.9884   -7.2220  -11.7806 C   0  0  1  0  0  0  0  0  0  0  0  0
    6.5662   -5.8293  -12.1524 C   0  0  0  0  0  0  0  0  0  0  0  0
    6.3189   -8.2602  -12.6683 C   0  0  0  0  0  0  0  0  0  0  0  0
   11.4879   -8.6428  -12.2906 C   0  0  0  0  0  0  0  0  0  0  0  0
    6.1483  -10.1488  -11.2619 C   0  0  0  0  0  0  0  0  0  0  0  0
    6.8031  -10.3821  -13.5394 C   0  0  0  0  0  0  0  0  0  0  0  0
   12.6160   -9.4782  -11.6609 C   0  0  0  0  0  0  0  0  0  0  0  0
   12.5131  -10.9169  -12.2011 C   0  0  0  0  0  0  0  0  0  0  0  0
   13.5028  -13.1209  -12.1240 C   0  0  0  0  0  0  0  0  0  0  0  0
  1 23  1  0  0  0  0
  1 24  1  0  0  0  0
  1  2  1  0  0  0  0
  3  4  1  0  0  0  0
  3 17  1  0  0  0  0
  4  6  2  0  0  0  0
  4 13  1  0  0  0  0
  5 10  1  0  0  0  0
  5 14  2  0  0  0  0
  6  8  1  0  0  0  0
  7 12  1  0  0  0  0
  7 14  1  0  0  0  0
  7 19  1  0  0  0  0
  8 10  2  0  0  0  0
  9 14  1  0  0  0  0
 10 12  1  0  0  0  0
 11 18  1  0  0  0  0
 11 20  1  0  0  0  0
 11 21  1  0  0  0  0
 12 13  2  0  0  0  0
 13 15  1  0  0  0  0
 15 16  1  0  0  0  0
 16 17  1  0  0  0  0
 16 18  1  6  0  0  0
 19 22  1  0  0  0  0
 22 23  1  0  0  0  0
M  END
>  <CHROM.1>
-74.71782025,-142.91426506,88.64591484,47.33184172,-154.53271930,165.65379003
10.26765256,-7.83907602,-12.19781854,0.61454750,-0.03380860,-3.11591459

>  <Name>
ligand

>  <RI>
0

>  <Rbt.Current_Directory>
/home/itssahil/PROJECTS/Mol_Feturizer/New_Systems/rnas/3TZR

>  <Rbt.Executable>
rbdock ($Id: //depot/dev/client3/rdock/2013.1/src/exe/rbdock.cxx#4 $)

>  <Rbt.Library>
libRbt.so (2013.1, Build901 2013/11/27)

>  <Rbt.Parameter_File>
/export/apps/rDock/src/rDock_2013.1_src/data/scripts/dock_solv.prm

>  <Rbt.Receptor>
prm/blind_docking_40.prm

>  <SCORE>
-27.0914

>  <SCORE.INTER>
-20.0507

>  <SCORE.INTER.CONST>
1

>  <SCORE.INTER.POLAR>
0

>  <SCORE.INTER.ROT>
6

>  <SCORE.INTER.SOLV>
24.9237

>  <SCORE.INTER.VDW>
-29.275

>  <SCORE.INTER.norm>
-0.835445

>  <SCORE.INTRA>
-7.06159

>  <SCORE.INTRA.DIHEDRAL>
1.29568

>  <SCORE.INTRA.DIHEDRAL.0>
4.94008

>  <SCORE.INTRA.POLAR>
0

>  <SCORE.INTRA.POLAR.0>
0

>  <SCORE.INTRA.REPUL>
0

>  <SCORE.INTRA.REPUL.0>
0

>  <SCORE.INTRA.SOLV>
2.4852

>  <SCORE.INTRA.SOLV.lig_0>
-31.4704

>  <SCORE.INTRA.VDW>
-8.95204

>  <SCORE.INTRA.VDW.0>
10.2807

>  <SCORE.INTRA.norm>
-0.294233

>  <SCORE.RESTR>
0.0208973

>  <SCORE.RESTR.CAVITY>
0.0208973

>  <SCORE.RESTR.norm>
0.000870723

>  <SCORE.SYSTEM>
0

>  <SCORE.SYSTEM.CONST>
0

>  <SCORE.SYSTEM.DIHEDRAL>
0

>  <SCORE.SYSTEM.SOLV>
0

>  <SCORE.SYSTEM.norm>
0

>  <SCORE.heavy>
24

>  <SCORE.norm>
-1.12881

>  <RMSD>
5.554

$$$$
ligand
 OpenBabel11021811493D
libRbt.so/2013.1/901 2013/11/27
 24 26  0  0  0  0  0  0  0  0999 V2000
   13.7281  -10.3731  -12.9758 N   0  0  0  0  0  0  0  0  0  0  0  0
   12.3969  -10.9453  -12.8541 C   0  0  0  0  0  0  0  0  0  0  0  0
    6.6343   -6.5854  -11.8496 O   0  0  0  0  0  0  0  0  0  0  0  0
    7.8401   -5.9461  -12.1047 C   0  0  0  0  0  0  0  0  0  0  0  0
   11.6431   -4.1412  -12.8384 N   0  0  0  0  0  0  0  0  0  0  0  0
    7.9278   -4.4457  -12.1941 C   0  0  0  0  0  0  0  0  0  0  0  0
   11.6045   -6.3849  -12.7377 N   0  0  0  0  0  0  0  0  0  0  0  0
    9.1639   -3.7609  -12.4284 C   0  0  0  0  0  0  0  0  0  0  0  0
   13.8225   -5.3040  -13.1724 N   0  0  0  0  0  0  0  0  0  0  0  0
   10.3353   -4.5822  -12.5926 C   0  0  0  0  0  0  0  0  0  0  0  0
    6.1249  -10.6206  -12.8893 N   0  0  0  0  0  0  0  0  0  0  0  0
   10.2629   -6.0172  -12.5248 C   0  0  0  0  0  0  0  0  0  0  0  0
    8.9583   -6.6862  -12.2676 C   0  0  0  0  0  0  0  0  0  0  0  0
   12.4113   -5.2663  -12.9178 C   0  0  0  0  0  0  0  0  0  0  0  0
    8.9037   -8.2005  -12.1900 C   0  0  0  0  0  0  0  0  0  0  0  0
    7.5006   -8.7969  -12.1593 C   0  0  1  0  0  0  0  0  0  0  0  0
    6.4369   -7.7921  -12.4983 C   0  0  0  0  0  0  0  0  0  0  0  0
    7.4300  -10.0098  -13.0747 C   0  0  0  0  0  0  0  0  0  0  0  0
   12.1044   -7.7723  -12.6876 C   0  0  0  0  0  0  0  0  0  0  0  0
    5.8657  -11.5070  -14.0159 C   0  0  0  0  0  0  0  0  0  0  0  0
    6.1747  -11.3924  -11.6576 C   0  0  0  0  0  0  0  0  0  0  0  0
   13.6281   -7.9203  -12.5347 C   0  0  0  0  0  0  0  0  0  0  0  0
   13.9246   -9.3214  -11.9680 C   0  0  0  0  0  0  0  0  0  0  0  0
   14.6999  -11.4488  -12.8144 C   0  0  0  0  0  0  0  0  0  0  0  0
  1 23  1  0  0  0  0
  1 24  1  0  0  0  0
  1  2  1  0  0  0  0
  3  4  1  0  0  0  0
  3 17  1  0  0  0  0
  4  6  2  0  0  0  0
  4 13  1  0  0  0  0
  5 10  1  0  0  0  0
  5 14  2  0  0  0  0
  6  8  1  0  0  0  0
  7 12  1  0  0  0  0
  7 14  1  0  0  0  0
  7 19  1  0  0  0  0
  8 10  2  0  0  0  0
  9 14  1  0  0  0  0
 10 12  1  0  0  0  0
 11 18  1  0  0  0  0
 11 20  1  0  0  0  0
 11 21  1  0  0  0  0
 12 13  2  0  0  0  0
 13 15  1  0  0  0  0
 15 16  1  0  0  0  0
 16 17  1  0  0  0  0
 16 18  1  6  0  0  0
 19 22  1  0  0  0  0
 22 23  1  0  0  0  0
M  END
>  <CHROM.1>
-95.49198765,-162.69288890,162.67669136,173.68013147,158.56408900,73.57558593
9.98297105,-7.85850229,-12.58745844,-0.23863031,-0.03462932,-3.09578592

>  <Name>
ligand

>  <RI>
0

>  <Rbt.Current_Directory>
/home/itssahil/PROJECTS/Mol_Feturizer/New_Systems/rnas/3TZR

>  <Rbt.Executable>
rbdock ($Id: //depot/dev/client3/rdock/2013.1/src/exe/rbdock.cxx#4 $)

>  <Rbt.Library>
libRbt.so (2013.1, Build901 2013/11/27)

>  <Rbt.Parameter_File>
/export/apps/rDock/src/rDock_2013.1_src/data/scripts/dock_solv.prm

>  <Rbt.Receptor>
prm/blind_docking_100.prm

>  <SCORE>
-22.411

>  <SCORE.INTER>
-15.6927

>  <SCORE.INTER.CONST>
1

>  <SCORE.INTER.POLAR>
0

>  <SCORE.INTER.ROT>
6

>  <SCORE.INTER.SOLV>
24.7936

>  <SCORE.INTER.VDW>
-26.3263

>  <SCORE.INTER.norm>
-0.653861

>  <SCORE.INTRA>
-6.71831

>  <SCORE.INTRA.DIHEDRAL>
0.850481

>  <SCORE.INTRA.DIHEDRAL.0>
4.94008

>  <SCORE.INTRA.POLAR>
0

>  <SCORE.INTRA.POLAR.0>
0

>  <SCORE.INTRA.REPUL>
0

>  <SCORE.INTRA.REPUL.0>
0

>  <SCORE.INTRA.SOLV>
1.81625

>  <SCORE.INTRA.SOLV.lig_0>
-31.4704

>  <SCORE.INTRA.VDW>
-8.05168

>  <SCORE.INTRA.VDW.0>
10.2807

>  <SCORE.INTRA.norm>
-0.27993

>  <SCORE.RESTR>
0

>  <SCORE.RESTR.CAVITY>
0

>  <SCORE.RESTR.norm>
0

>  <SCORE.SYSTEM>
0

>  <SCORE.SYSTEM.CONST>
0

>  <SCORE.SYSTEM.DIHEDRAL>
0

>  <SCORE.SYSTEM.SOLV>
0

>  <SCORE.SYSTEM.norm>
0

>  <SCORE.heavy>
24

>  <SCORE.norm>
-0.93379

>  <RMSD>
5.571

$$$$
ligand
 OpenBabel11021811493D
libRbt.so/2013.1/901 2013/11/27
 24 26  0  0  0  0  0  0  0  0999 V2000
   13.1255  -12.2862  -13.0391 N   0  0  0  0  0  0  0  0  0  0  0  0
   12.4988  -13.5973  -13.0896 C   0  0  0  0  0  0  0  0  0  0  0  0
    7.3882   -5.2300  -11.6674 O   0  0  0  0  0  0  0  0  0  0  0  0
    8.7557   -5.2676  -11.9048 C   0  0  0  0  0  0  0  0  0  0  0  0
   12.9681   -5.5615  -12.5590 N   0  0  0  0  0  0  0  0  0  0  0  0
    9.5418   -4.0087  -12.1578 C   0  0  0  0  0  0  0  0  0  0  0  0
   11.8746   -7.4916  -12.2066 N   0  0  0  0  0  0  0  0  0  0  0  0
   10.9573   -4.0178  -12.3775 C   0  0  0  0  0  0  0  0  0  0  0  0
   14.3447   -7.6392  -12.5981 N   0  0  0  0  0  0  0  0  0  0  0  0
   11.6044   -5.3041  -12.3609 C   0  0  0  0  0  0  0  0  0  0  0  0
    5.9458   -9.6955  -11.4622 N   0  0  0  0  0  0  0  0  0  0  0  0
   10.8629   -6.5159  -12.1356 C   0  0  0  0  0  0  0  0  0  0  0  0
    9.3942   -6.4580  -11.9001 C   0  0  0  0  0  0  0  0  0  0  0  0
   13.1155   -6.9140  -12.4533 C   0  0  0  0  0  0  0  0  0  0  0  0
    8.6309   -7.7460  -11.6547 C   0  0  0  0  0  0  0  0  0  0  0  0
    7.1121   -7.6093  -11.6591 C   0  0  1  0  0  0  0  0  0  0  0  0
    6.6520   -6.2806  -12.1871 C   0  0  0  0  0  0  0  0  0  0  0  0
    6.4875   -8.7603  -12.4331 C   0  0  0  0  0  0  0  0  0  0  0  0
   11.6602   -8.9309  -11.9623 C   0  0  0  0  0  0  0  0  0  0  0  0
    4.8831  -10.4601  -12.1008 C   0  0  0  0  0  0  0  0  0  0  0  0
    7.0240  -10.5878  -11.0662 C   0  0  0  0  0  0  0  0  0  0  0  0
   12.4964   -9.8811  -12.8368 C   0  0  0  0  0  0  0  0  0  0  0  0
   12.2416  -11.3248  -12.3647 C   0  0  0  0  0  0  0  0  0  0  0  0
   14.3970  -12.4187  -12.3369 C   0  0  0  0  0  0  0  0  0  0  0  0
  1 23  1  0  0  0  0
  1 24  1  0  0  0  0
  1  2  1  0  0  0  0
  3  4  1  0  0  0  0
  3 17  1  0  0  0  0
  4  6  2  0  0  0  0
  4 13  1  0  0  0  0
  5 10  1  0  0  0  0
  5 14  2  0  0  0  0
  6  8  1  0  0  0  0
  7 12  1  0  0  0  0
  7 14  1  0  0  0  0
  7 19  1  0  0  0  0
  8 10  2  0  0  0  0
  9 14  1  0  0  0  0
 10 12  1  0  0  0  0
 11 18  1  0  0  0  0
 11 20  1  0  0  0  0
 11 21  1  0  0  0  0
 12 13  2  0  0  0  0
 13 15  1  0  0  0  0
 15 16  1  0  0  0  0
 16 17  1  0  0  0  0
 16 18  1  6  0  0  0
 19 22  1  0  0  0  0
 22 23  1  0  0  0  0
M  END
>  <CHROM.1>
-153.16446193,144.26763637,155.71500153,103.48394522,175.02021845,-173.07752858
10.13264607,-8.22367458,-12.18618175,0.59493051,-0.11068373,-3.11495963

>  <Name>
ligand

>  <RI>
0

>  <Rbt.Current_Directory>
/home/itssahil/PROJECTS/Mol_Feturizer/New_Systems/rnas/3TZR

>  <Rbt.Executable>
rbdock ($Id: //depot/dev/client3/rdock/2013.1/src/exe/rbdock.cxx#4 $)

>  <Rbt.Library>
libRbt.so (2013.1, Build901 2013/11/27)

>  <Rbt.Parameter_File>
/export/apps/rDock/src/rDock_2013.1_src/data/scripts/dock_solv.prm

>  <Rbt.Receptor>
prm/blind_docking_80.prm

>  <SCORE>
-28.2431

>  <SCORE.INTER>
-20.1506

>  <SCORE.INTER.CONST>
1

>  <SCORE.INTER.POLAR>
0

>  <SCORE.INTER.ROT>
6

>  <SCORE.INTER.SOLV>
23.833

>  <SCORE.INTER.VDW>
-28.978

>  <SCORE.INTER.norm>
-0.839607

>  <SCORE.INTRA>
-8.09251

>  <SCORE.INTRA.DIHEDRAL>
2.57744

>  <SCORE.INTRA.DIHEDRAL.0>
4.94008

>  <SCORE.INTRA.POLAR>
0

>  <SCORE.INTRA.POLAR.0>
0

>  <SCORE.INTRA.REPUL>
0

>  <SCORE.INTRA.REPUL.0>
0

>  <SCORE.INTRA.SOLV>
1.27286

>  <SCORE.INTRA.SOLV.lig_0>
-31.4704

>  <SCORE.INTRA.VDW>
-10.0177

>  <SCORE.INTRA.VDW.0>
10.2807

>  <SCORE.INTRA.norm>
-0.337188

>  <SCORE.RESTR>
0

>  <SCORE.RESTR.CAVITY>
0

>  <SCORE.RESTR.norm>
0

>  <SCORE.SYSTEM>
0

>  <SCORE.SYSTEM.CONST>
0

>  <SCORE.SYSTEM.DIHEDRAL>
0

>  <SCORE.SYSTEM.SOLV>
0

>  <SCORE.SYSTEM.norm>
0

>  <SCORE.heavy>
24

>  <SCORE.norm>
-1.1768

>  <RMSD>
5.572

$$$$
ligand
 OpenBabel11021811493D
libRbt.so/2013.1/901 2013/11/27
 24 26  0  0  0  0  0  0  0  0999 V2000
   13.1496  -12.1894  -13.0557 N   0  0  0  0  0  0  0  0  0  0  0  0
   12.5196  -13.4977  -13.1303 C   0  0  0  0  0  0  0  0  0  0  0  0
    7.3396   -5.1559  -11.6728 O   0  0  0  0  0  0  0  0  0  0  0  0
    8.7088   -5.1920  -11.9008 C   0  0  0  0  0  0  0  0  0  0  0  0
   12.9253   -5.4824  -12.5293 N   0  0  0  0  0  0  0  0  0  0  0  0
    9.4990   -3.9303  -12.1259 C   0  0  0  0  0  0  0  0  0  0  0  0
   11.8257   -7.4163  -12.2189 N   0  0  0  0  0  0  0  0  0  0  0  0
   10.9160   -3.9383  -12.3354 C   0  0  0  0  0  0  0  0  0  0  0  0
   14.2984   -7.5618  -12.5949 N   0  0  0  0  0  0  0  0  0  0  0  0
   11.5606   -5.2260  -12.3367 C   0  0  0  0  0  0  0  0  0  0  0  0
    5.9598   -9.6604  -11.5573 N   0  0  0  0  0  0  0  0  0  0  0  0
   10.8153   -6.4401  -12.1381 C   0  0  0  0  0  0  0  0  0  0  0  0
    9.3451   -6.3834  -11.9124 C   0  0  0  0  0  0  0  0  0  0  0  0
   13.0695   -6.8369  -12.4464 C   0  0  0  0  0  0  0  0  0  0  0  0
    8.5776   -7.6742  -11.6952 C   0  0  0  0  0  0  0  0  0  0  0  0
    7.0591   -7.5344  -11.7083 C   0  0  1  0  0  0  0  0  0  0  0  0
    6.6053   -6.1958  -12.2163 C   0  0  0  0  0  0  0  0  0  0  0  0
    6.4382   -8.6705  -12.5070 C   0  0  0  0  0  0  0  0  0  0  0  0
   11.6070   -8.8593  -12.0015 C   0  0  0  0  0  0  0  0  0  0  0  0
    4.8847  -10.4185  -12.1829 C   0  0  0  0  0  0  0  0  0  0  0  0
    7.0724  -10.5458  -11.2512 C   0  0  0  0  0  0  0  0  0  0  0  0
   12.4773   -9.7956  -12.8574 C   0  0  0  0  0  0  0  0  0  0  0  0
   12.2690  -11.2389  -12.3617 C   0  0  0  0  0  0  0  0  0  0  0  0
   14.4218  -12.3383  -12.3581 C   0  0  0  0  0  0  0  0  0  0  0  0
  1 23  1  0  0  0  0
  1 24  1  0  0  0  0
  1  2  1  0  0  0  0
  3  4  1  0  0  0  0
  3 17  1  0  0  0  0
  4  6  2  0  0  0  0
  4 13  1  0  0  0  0
  5 10  1  0  0  0  0
  5 14  2  0  0  0  0
  6  8  1  0  0  0  0
  7 12  1  0  0  0  0
  7 14  1  0  0  0  0
  7 19  1  0  0  0  0
  8 10  2  0  0  0  0
  9 14  1  0  0  0  0
 10 12  1  0  0  0  0
 11 18  1  0  0  0  0
 11 20  1  0  0  0  0
 11 21  1  0  0  0  0
 12 13  2  0  0  0  0
 13 15  1  0  0  0  0
 15 16  1  0  0  0  0
 16 17  1  0  0  0  0
 16 18  1  6  0  0  0
 19 22  1  0  0  0  0
 22 23  1  0  0  0  0
M  END
>  <CHROM.1>
-150.30206957,145.97175362,155.05047917,100.09558614,171.91510240,-175.34498831
10.10831549,-8.14867459,-12.21252827,0.60309989,-0.09893297,-3.10464820

>  <Name>
ligand

>  <RI>
0

>  <Rbt.Current_Directory>
/home/itssahil/PROJECTS/Mol_Feturizer/New_Systems/rnas/3TZR

>  <Rbt.Executable>
rbdock ($Id: //depot/dev/client3/rdock/2013.1/src/exe/rbdock.cxx#4 $)

>  <Rbt.Library>
libRbt.so (2013.1, Build901 2013/11/27)

>  <Rbt.Parameter_File>
/export/apps/rDock/src/rDock_2013.1_src/data/scripts/dock_solv.prm

>  <Rbt.Receptor>
prm/blind_docking_80.prm

>  <SCORE>
-28.4339

>  <SCORE.INTER>
-20.3579

>  <SCORE.INTER.CONST>
1

>  <SCORE.INTER.POLAR>
0

>  <SCORE.INTER.ROT>
6

>  <SCORE.INTER.SOLV>
23.9993

>  <SCORE.INTER.VDW>
-29.1717

>  <SCORE.INTER.norm>
-0.848245

>  <SCORE.INTRA>
-8.076

>  <SCORE.INTRA.DIHEDRAL>
2.47164

>  <SCORE.INTRA.DIHEDRAL.0>
4.94008

>  <SCORE.INTRA.POLAR>
0

>  <SCORE.INTRA.POLAR.0>
0

>  <SCORE.INTRA.REPUL>
0

>  <SCORE.INTRA.REPUL.0>
0

>  <SCORE.INTRA.SOLV>
1.34513

>  <SCORE.INTRA.SOLV.lig_0>
-31.4704

>  <SCORE.INTRA.VDW>
-9.98439

>  <SCORE.INTRA.VDW.0>
10.2807

>  <SCORE.INTRA.norm>
-0.3365

>  <SCORE.RESTR>
0

>  <SCORE.RESTR.CAVITY>
0

>  <SCORE.RESTR.norm>
0

>  <SCORE.SYSTEM>
0

>  <SCORE.SYSTEM.CONST>
0

>  <SCORE.SYSTEM.DIHEDRAL>
0

>  <SCORE.SYSTEM.SOLV>
0

>  <SCORE.SYSTEM.norm>
0

>  <SCORE.heavy>
24

>  <SCORE.norm>
-1.18475

>  <RMSD>
5.578

$$$$
ligand
 OpenBabel11021811493D
libRbt.so/2013.1/901 2013/11/27
 24 26  0  0  0  0  0  0  0  0999 V2000
   13.4768  -11.8882  -13.1310 N   0  0  0  0  0  0  0  0  0  0  0  0
   12.8032  -13.1257  -13.4905 C   0  0  0  0  0  0  0  0  0  0  0  0
    7.3156   -5.1224  -11.5695 O   0  0  0  0  0  0  0  0  0  0  0  0
    8.6769   -5.1011  -11.8421 C   0  0  0  0  0  0  0  0  0  0  0  0
   12.8781   -5.2165  -12.6135 N   0  0  0  0  0  0  0  0  0  0  0  0
    9.4128   -3.8051  -12.0558 C   0  0  0  0  0  0  0  0  0  0  0  0
   11.8604   -7.1980  -12.3242 N   0  0  0  0  0  0  0  0  0  0  0  0
   10.8215   -3.7544  -12.3106 C   0  0  0  0  0  0  0  0  0  0  0  0
   14.3230   -7.2406  -12.7832 N   0  0  0  0  0  0  0  0  0  0  0  0
   11.5121   -5.0166  -12.3699 C   0  0  0  0  0  0  0  0  0  0  0  0
    6.0003   -9.6242  -11.5358 N   0  0  0  0  0  0  0  0  0  0  0  0
   10.8184   -6.2627  -12.1829 C   0  0  0  0  0  0  0  0  0  0  0  0
    9.3554   -6.2672  -11.9086 C   0  0  0  0  0  0  0  0  0  0  0  0
   13.0741   -6.5664  -12.5745 C   0  0  0  0  0  0  0  0  0  0  0  0
    8.6429   -7.5912  -11.7045 C   0  0  0  0  0  0  0  0  0  0  0  0
    7.1208   -7.5078  -11.6649 C   0  0  1  0  0  0  0  0  0  0  0  0
    6.6020   -6.1735  -12.1190 C   0  0  0  0  0  0  0  0  0  0  0  0
    6.5155   -8.6437  -12.4758 C   0  0  0  0  0  0  0  0  0  0  0  0
   11.7017   -8.6536  -12.1418 C   0  0  0  0  0  0  0  0  0  0  0  0
    4.9344  -10.3731  -12.1877 C   0  0  0  0  0  0  0  0  0  0  0  0
    7.0942  -10.5205  -11.1959 C   0  0  0  0  0  0  0  0  0  0  0  0
   12.6902   -9.5298  -12.9303 C   0  0  0  0  0  0  0  0  0  0  0  0
   12.5460  -10.9833  -12.4417 C   0  0  0  0  0  0  0  0  0  0  0  0
   14.6156  -12.2223  -12.2830 C   0  0  0  0  0  0  0  0  0  0  0  0
  1 23  1  0  0  0  0
  1 24  1  0  0  0  0
  1  2  1  0  0  0  0
  3  4  1  0  0  0  0
  3 17  1  0  0  0  0
  4  6  2  0  0  0  0
  4 13  1  0  0  0  0
  5 10  1  0  0  0  0
  5 14  2  0  0  0  0
  6  8  1  0  0  0  0
  7 12  1  0  0  0  0
  7 14  1  0  0  0  0
  7 19  1  0  0  0  0
  8 10  2  0  0  0  0
  9 14  1  0  0  0  0
 10 12  1  0  0  0  0
 11 18  1  0  0  0  0
 11 20  1  0  0  0  0
 11 21  1  0  0  0  0
 12 13  2  0  0  0  0
 13 15  1  0  0  0  0
 15 16  1  0  0  0  0
 16 17  1  0  0  0  0
 16 18  1  6  0  0  0
 19 22  1  0  0  0  0
 22 23  1  0  0  0  0
M  END
>  <CHROM.1>
-137.22101683,152.83949344,154.77508618,104.94651526,170.34804574,-178.99832414
10.17315562,-7.99157928,-12.24422934,0.54289901,-0.12055246,-3.09859936

>  <Name>
ligand

>  <RI>
0

>  <Rbt.Current_Directory>
/home/itssahil/PROJECTS/Mol_Feturizer/New_Systems/rnas/3TZR

>  <Rbt.Executable>
rbdock ($Id: //depot/dev/client3/rdock/2013.1/src/exe/rbdock.cxx#4 $)

>  <Rbt.Library>
libRbt.so (2013.1, Build901 2013/11/27)

>  <Rbt.Parameter_File>
/export/apps/rDock/src/rDock_2013.1_src/data/scripts/dock_solv.prm

>  <Rbt.Receptor>
prm/blind_docking_100.prm

>  <SCORE>
-26.9082

>  <SCORE.INTER>
-19.7202

>  <SCORE.INTER.CONST>
1

>  <SCORE.INTER.POLAR>
0

>  <SCORE.INTER.ROT>
6

>  <SCORE.INTER.SOLV>
24.9528

>  <SCORE.INTER.VDW>
-29.0644

>  <SCORE.INTER.norm>
-0.821673

>  <SCORE.INTRA>
-7.3867

>  <SCORE.INTRA.DIHEDRAL>
3.7879

>  <SCORE.INTRA.DIHEDRAL.0>
4.94008

>  <SCORE.INTRA.POLAR>
0

>  <SCORE.INTRA.POLAR.0>
0

>  <SCORE.INTRA.REPUL>
0

>  <SCORE.INTRA.REPUL.0>
0

>  <SCORE.INTRA.SOLV>
1.46804

>  <SCORE.INTRA.SOLV.lig_0>
-31.4704

>  <SCORE.INTRA.VDW>
-10.0147

>  <SCORE.INTRA.VDW.0>
10.2807

>  <SCORE.INTRA.norm>
-0.307779

>  <SCORE.RESTR>
0.198706

>  <SCORE.RESTR.CAVITY>
0.198706

>  <SCORE.RESTR.norm>
0.0082794

>  <SCORE.SYSTEM>
0

>  <SCORE.SYSTEM.CONST>
0

>  <SCORE.SYSTEM.DIHEDRAL>
0

>  <SCORE.SYSTEM.SOLV>
0

>  <SCORE.SYSTEM.norm>
0

>  <SCORE.heavy>
24

>  <SCORE.norm>
-1.12117

>  <RMSD>
5.634

$$$$
ligand
 OpenBabel11021811493D
libRbt.so/2013.1/901 2013/11/27
 24 26  0  0  0  0  0  0  0  0999 V2000
   13.8315  -11.7494  -11.8490 N   0  0  0  0  0  0  0  0  0  0  0  0
   14.8904  -11.3705  -12.7706 C   0  0  0  0  0  0  0  0  0  0  0  0
    7.2830   -5.0394  -11.6280 O   0  0  0  0  0  0  0  0  0  0  0  0
    8.6458   -5.0641  -11.8924 C   0  0  0  0  0  0  0  0  0  0  0  0
   12.8450   -5.3223  -12.6402 N   0  0  0  0  0  0  0  0  0  0  0  0
    9.4287   -3.7933  -12.0900 C   0  0  0  0  0  0  0  0  0  0  0  0
   11.7557   -7.2687  -12.3748 N   0  0  0  0  0  0  0  0  0  0  0  0
   10.8398   -3.7906  -12.3362 C   0  0  0  0  0  0  0  0  0  0  0  0
   14.2179   -7.3950  -12.8198 N   0  0  0  0  0  0  0  0  0  0  0  0
   11.4854   -5.0760  -12.4028 C   0  0  0  0  0  0  0  0  0  0  0  0
    5.9446   -9.5648  -11.6506 N   0  0  0  0  0  0  0  0  0  0  0  0
   10.7467   -6.2982  -12.2311 C   0  0  0  0  0  0  0  0  0  0  0  0
    9.2828   -6.2531  -11.9655 C   0  0  0  0  0  0  0  0  0  0  0  0
   12.9926   -6.6786  -12.6123 C   0  0  0  0  0  0  0  0  0  0  0  0
    8.5225   -7.5526  -11.7776 C   0  0  0  0  0  0  0  0  0  0  0  0
    7.0040   -7.4154  -11.7462 C   0  0  1  0  0  0  0  0  0  0  0  0
    6.5359   -6.0594  -12.1912 C   0  0  0  0  0  0  0  0  0  0  0  0
    6.3638   -8.5217  -12.5709 C   0  0  0  0  0  0  0  0  0  0  0  0
   11.5441   -8.7193  -12.2066 C   0  0  0  0  0  0  0  0  0  0  0  0
    4.8641  -10.3201  -12.2700 C   0  0  0  0  0  0  0  0  0  0  0  0
    7.0881  -10.4355  -11.4270 C   0  0  0  0  0  0  0  0  0  0  0  0
   12.7547   -9.5062  -11.6755 C   0  0  0  0  0  0  0  0  0  0  0  0
   12.6144  -10.9728  -12.1246 C   0  0  0  0  0  0  0  0  0  0  0  0
   13.5915  -13.1802  -11.9984 C   0  0  0  0  0  0  0  0  0  0  0  0
  1 23  1  0  0  0  0
  1 24  1  0  0  0  0
  1  2  1  0  0  0  0
  3  4  1  0  0  0  0
  3 17  1  0  0  0  0
  4  6  2  0  0  0  0
  4 13  1  0  0  0  0
  5 10  1  0  0  0  0
  5 14  2  0  0  0  0
  6  8  1  0  0  0  0
  7 12  1  0  0  0  0
  7 14  1  0  0  0  0
  7 19  1  0  0  0  0
  8 10  2  0  0  0  0
  9 14  1  0  0  0  0
 10 12  1  0  0  0  0
 11 18  1  0  0  0  0
 11 20  1  0  0  0  0
 11 21  1  0  0  0  0
 12 13  2  0  0  0  0
 13 15  1  0  0  0  0
 15 16  1  0  0  0  0
 16 17  1  0  0  0  0
 16 18  1  6  0  0  0
 19 22  1  0  0  0  0
 22 23  1  0  0  0  0
M  END
>  <CHROM.1>
-72.69527660,-149.02813034,155.72940874,98.53236511,-155.61913854,170.73201835
10.18990642,-7.94279578,-12.12975384,0.47201629,-0.06629189,3.10339365

>  <Name>
ligand

>  <RI>
0

>  <Rbt.Current_Directory>
/home/itssahil/PROJECTS/Mol_Feturizer/New_Systems/rnas/3TZR

>  <Rbt.Executable>
rbdock ($Id: //depot/dev/client3/rdock/2013.1/src/exe/rbdock.cxx#4 $)

>  <Rbt.Library>
libRbt.so (2013.1, Build901 2013/11/27)

>  <Rbt.Parameter_File>
/export/apps/rDock/src/rDock_2013.1_src/data/scripts/dock_solv.prm

>  <Rbt.Receptor>
prm/blind_docking_40.prm

>  <SCORE>
-25.1816

>  <SCORE.INTER>
-19.4141

>  <SCORE.INTER.CONST>
1

>  <SCORE.INTER.POLAR>
0

>  <SCORE.INTER.ROT>
6

>  <SCORE.INTER.SOLV>
23.765

>  <SCORE.INTER.VDW>
-28.4644

>  <SCORE.INTER.norm>
-0.808922

>  <SCORE.INTRA>
-5.84873

>  <SCORE.INTRA.DIHEDRAL>
3.52685

>  <SCORE.INTRA.DIHEDRAL.0>
4.94008

>  <SCORE.INTRA.POLAR>
0

>  <SCORE.INTRA.POLAR.0>
0

>  <SCORE.INTRA.REPUL>
0

>  <SCORE.INTRA.REPUL.0>
0

>  <SCORE.INTRA.SOLV>
2.3975

>  <SCORE.INTRA.SOLV.lig_0>
-31.4704

>  <SCORE.INTRA.VDW>
-8.8109

>  <SCORE.INTRA.VDW.0>
10.2807

>  <SCORE.INTRA.norm>
-0.243697

>  <SCORE.RESTR>
0.0812509

>  <SCORE.RESTR.CAVITY>
0.0812509

>  <SCORE.RESTR.norm>
0.00338545

>  <SCORE.SYSTEM>
0

>  <SCORE.SYSTEM.CONST>
0

>  <SCORE.SYSTEM.DIHEDRAL>
0

>  <SCORE.SYSTEM.SOLV>
0

>  <SCORE.SYSTEM.norm>
0

>  <SCORE.heavy>
24

>  <SCORE.norm>
-1.04923

>  <RMSD>
5.667

$$$$
ligand
 OpenBabel11021811493D
libRbt.so/2013.1/901 2013/11/27
 24 26  0  0  0  0  0  0  0  0999 V2000
   13.6835  -11.9011  -12.9968 N   0  0  0  0  0  0  0  0  0  0  0  0
   12.9910  -13.0869  -13.4748 C   0  0  0  0  0  0  0  0  0  0  0  0
    6.9469   -5.6170  -11.7839 O   0  0  0  0  0  0  0  0  0  0  0  0
    8.3196   -5.4998  -11.9560 C   0  0  0  0  0  0  0  0  0  0  0  0
   12.5635   -5.3203  -12.4205 N   0  0  0  0  0  0  0  0  0  0  0  0
    8.9798   -4.1536  -12.0935 C   0  0  0  0  0  0  0  0  0  0  0  0
   11.6638   -7.3705  -12.2398 N   0  0  0  0  0  0  0  0  0  0  0  0
   10.3965   -4.0043  -12.2439 C   0  0  0  0  0  0  0  0  0  0  0  0
   14.1502   -7.2403  -12.5185 N   0  0  0  0  0  0  0  0  0  0  0  0
   11.1732   -5.2165  -12.2739 C   0  0  0  0  0  0  0  0  0  0  0  0
    5.9139  -10.1839  -11.9241 N   0  0  0  0  0  0  0  0  0  0  0  0
   10.5536   -6.5095  -12.1591 C   0  0  0  0  0  0  0  0  0  0  0  0
    9.0783   -6.6167  -11.9925 C   0  0  0  0  0  0  0  0  0  0  0  0
   12.8469   -6.6548  -12.3901 C   0  0  0  0  0  0  0  0  0  0  0  0
    8.4441   -7.9891  -11.8633 C   0  0  0  0  0  0  0  0  0  0  0  0
    6.9209   -8.0074  -11.9335 C   0  0  1  0  0  0  0  0  0  0  0  0
    6.3471   -6.7007  -12.4017 C   0  0  0  0  0  0  0  0  0  0  0  0
    6.4534   -9.1629  -12.8056 C   0  0  0  0  0  0  0  0  0  0  0  0
   11.5911   -8.8371  -12.0941 C   0  0  0  0  0  0  0  0  0  0  0  0
    4.4604  -10.1501  -12.0135 C   0  0  0  0  0  0  0  0  0  0  0  0
    6.4057  -11.4701  -12.3927 C   0  0  0  0  0  0  0  0  0  0  0  0
   12.6571   -9.6315  -12.8683 C   0  0  0  0  0  0  0  0  0  0  0  0
   12.7585  -11.0380  -12.2487 C   0  0  0  0  0  0  0  0  0  0  0  0
   14.7974  -12.3334  -12.1602 C   0  0  0  0  0  0  0  0  0  0  0  0
  1 23  1  0  0  0  0
  1 24  1  0  0  0  0
  1  2  1  0  0  0  0
  3  4  1  0  0  0  0
  3 17  1  0  0  0  0
  4  6  2  0  0  0  0
  4 13  1  0  0  0  0
  5 10  1  0  0  0  0
  5 14  2  0  0  0  0
  6  8  1  0  0  0  0
  7 12  1  0  0  0  0
  7 14  1  0  0  0  0
  7 19  1  0  0  0  0
  8 10  2  0  0  0  0
  9 14  1  0  0  0  0
 10 12  1  0  0  0  0
 11 18  1  0  0  0  0
 11 20  1  0  0  0  0
 11 21  1  0  0  0  0
 12 13  2  0  0  0  0
 13 15  1  0  0  0  0
 15 16  1  0  0  0  0
 16 17  1  0  0  0  0
 16 18  1  6  0  0  0
 19 22  1  0  0  0  0
 22 23  1  0  0  0  0
M  END
>  <CHROM.1>
-121.27752887,150.51685337,104.66633627,106.11038003,160.66901811,175.57534228
9.98228232,-8.25406544,-12.30876424,0.40990579,-0.05219546,-3.07836557

>  <Name>
ligand

>  <RI>
0

>  <Rbt.Current_Directory>
/home/itssahil/PROJECTS/Mol_Feturizer/New_Systems/rnas/3TZR

>  <Rbt.Executable>
rbdock ($Id: //depot/dev/client3/rdock/2013.1/src/exe/rbdock.cxx#4 $)

>  <Rbt.Library>
libRbt.so (2013.1, Build901 2013/11/27)

>  <Rbt.Parameter_File>
/export/apps/rDock/src/rDock_2013.1_src/data/scripts/dock_solv.prm

>  <Rbt.Receptor>
prm/blind_docking_40.prm

>  <SCORE>
-21.8513

>  <SCORE.INTER>
-14.9051

>  <SCORE.INTER.CONST>
1

>  <SCORE.INTER.POLAR>
0

>  <SCORE.INTER.ROT>
6

>  <SCORE.INTER.SOLV>
24.2156

>  <SCORE.INTER.VDW>
-25.6086

>  <SCORE.INTER.norm>
-0.621046

>  <SCORE.INTRA>
-6.96438

>  <SCORE.INTRA.DIHEDRAL>
6.42661

>  <SCORE.INTRA.DIHEDRAL.0>
4.94008

>  <SCORE.INTRA.POLAR>
0

>  <SCORE.INTRA.POLAR.0>
0

>  <SCORE.INTRA.REPUL>
0

>  <SCORE.INTRA.REPUL.0>
0

>  <SCORE.INTRA.SOLV>
1.55016

>  <SCORE.INTRA.SOLV.lig_0>
-31.4704

>  <SCORE.INTRA.VDW>
-10.9528

>  <SCORE.INTRA.VDW.0>
10.2807

>  <SCORE.INTRA.norm>
-0.290182

>  <SCORE.RESTR>
0.0181265

>  <SCORE.RESTR.CAVITY>
0.0181265

>  <SCORE.RESTR.norm>
0.000755272

>  <SCORE.SYSTEM>
0

>  <SCORE.SYSTEM.CONST>
0

>  <SCORE.SYSTEM.DIHEDRAL>
0

>  <SCORE.SYSTEM.SOLV>
0

>  <SCORE.SYSTEM.norm>
0

>  <SCORE.heavy>
24

>  <SCORE.norm>
-0.910473

>  <RMSD>
5.698

$$$$
ligand
 OpenBabel11021811493D
libRbt.so/2013.1/901 2013/11/27
 24 26  0  0  0  0  0  0  0  0999 V2000
   12.2801  -14.6246  -12.7193 N   0  0  0  0  0  0  0  0  0  0  0  0
   11.4151  -14.4783  -13.8789 C   0  0  0  0  0  0  0  0  0  0  0  0
    7.9105   -8.1332  -12.1899 O   0  0  0  0  0  0  0  0  0  0  0  0
    7.9338   -9.2779  -11.4045 C   0  0  0  0  0  0  0  0  0  0  0  0
    8.1835  -12.8378   -9.0541 N   0  0  0  0  0  0  0  0  0  0  0  0
    6.6666   -9.8758  -10.8534 C   0  0  0  0  0  0  0  0  0  0  0  0
   10.1251  -12.0079   -9.8202 N   0  0  0  0  0  0  0  0  0  0  0  0
    6.6609  -11.0712  -10.0642 C   0  0  0  0  0  0  0  0  0  0  0  0
   10.2468  -14.0918   -8.4350 N   0  0  0  0  0  0  0  0  0  0  0  0
    7.9404  -11.6781   -9.8034 C   0  0  0  0  0  0  0  0  0  0  0  0
   11.5475   -5.9231  -12.7897 N   0  0  0  0  0  0  0  0  0  0  0  0
    9.1600  -11.1088  -10.3109 C   0  0  0  0  0  0  0  0  0  0  0  0
    9.1174   -9.8712  -11.1369 C   0  0  0  0  0  0  0  0  0  0  0  0
    9.5345  -13.0280   -9.0820 C   0  0  0  0  0  0  0  0  0  0  0  0
   10.4135   -9.2911  -11.6714 C   0  0  0  0  0  0  0  0  0  0  0  0
   10.2925   -7.9073  -12.3005 C   0  0  1  0  0  0  0  0  0  0  0  0
    8.9683   -7.2570  -12.0187 C   0  0  0  0  0  0  0  0  0  0  0  0
   11.4494   -7.0276  -11.8511 C   0  0  0  0  0  0  0  0  0  0  0  0
   11.5668  -11.9278  -10.1244 C   0  0  0  0  0  0  0  0  0  0  0  0
   10.8848   -4.7633  -12.2087 C   0  0  0  0  0  0  0  0  0  0  0  0
   12.9606   -5.6370  -12.9818 C   0  0  0  0  0  0  0  0  0  0  0  0
   11.9817  -12.4669  -11.5042 C   0  0  0  0  0  0  0  0  0  0  0  0
   11.6751  -13.9757  -11.5474 C   0  0  0  0  0  0  0  0  0  0  0  0
   12.4883  -16.0494  -12.4865 C   0  0  0  0  0  0  0  0  0  0  0  0
  1 23  1  0  0  0  0
  1 24  1  0  0  0  0
  1  2  1  0  0  0  0
  3  4  1  0  0  0  0
  3 17  1  0  0  0  0
  4  6  2  0  0  0  0
  4 13  1  0  0  0  0
  5 10  1  0  0  0  0
  5 14  2  0  0  0  0
  6  8  1  0  0  0  0
  7 12  1  0  0  0  0
  7 14  1  0  0  0  0
  7 19  1  0  0  0  0
  8 10  2  0  0  0  0
  9 14  1  0  0  0  0
 10 12  1  0  0  0  0
 11 18  1  0  0  0  0
 11 20  1  0  0  0  0
 11 21  1  0  0  0  0
 12 13  2  0  0  0  0
 13 15  1  0  0  0  0
 15 16  1  0  0  0  0
 16 17  1  0  0  0  0
 16 18  1  1  0  0  0
 19 22  1  0  0  0  0
 22 23  1  0  0  0  0
M  END
>  <CHROM.1>
-84.25978541,-78.72389312,98.71644625,161.18962206,-63.91291571,-168.63481045
10.15027490,-10.57413804,-11.32050329,-1.51282744,0.52131039,-0.18631482

>  <Name>
ligand

>  <RI>
0

>  <Rbt.Current_Directory>
/home/itssahil/PROJECTS/Mol_Feturizer/New_Systems/rnas/3TZR

>  <Rbt.Executable>
rbdock ($Id: //depot/dev/client3/rdock/2013.1/src/exe/rbdock.cxx#4 $)

>  <Rbt.Library>
libRbt.so (2013.1, Build901 2013/11/27)

>  <Rbt.Parameter_File>
/export/apps/rDock/src/rDock_2013.1_src/data/scripts/dock_solv.prm

>  <Rbt.Receptor>
prm/pocket_docking_7.prm

>  <SCORE>
-19.6315

>  <SCORE.INTER>
-9.69856

>  <SCORE.INTER.CONST>
1

>  <SCORE.INTER.POLAR>
0

>  <SCORE.INTER.ROT>
6

>  <SCORE.INTER.SOLV>
9.92714

>  <SCORE.INTER.VDW>
-17.3748

>  <SCORE.INTER.norm>
-0.404107

>  <SCORE.INTRA>
-9.93296

>  <SCORE.INTRA.DIHEDRAL>
0.459776

>  <SCORE.INTRA.DIHEDRAL.0>
4.94008

>  <SCORE.INTRA.POLAR>
0

>  <SCORE.INTRA.POLAR.0>
0

>  <SCORE.INTRA.REPUL>
0

>  <SCORE.INTRA.REPUL.0>
0

>  <SCORE.INTRA.SOLV>
1.1533

>  <SCORE.INTRA.SOLV.lig_0>
-31.4704

>  <SCORE.INTRA.VDW>
-10.7395

>  <SCORE.INTRA.VDW.0>
10.2807

>  <SCORE.INTRA.norm>
-0.413873

>  <SCORE.RESTR>
0

>  <SCORE.RESTR.CAVITY>
0

>  <SCORE.RESTR.norm>
0

>  <SCORE.SYSTEM>
0

>  <SCORE.SYSTEM.CONST>
0

>  <SCORE.SYSTEM.DIHEDRAL>
0

>  <SCORE.SYSTEM.SOLV>
0

>  <SCORE.SYSTEM.norm>
0

>  <SCORE.heavy>
24

>  <SCORE.norm>
-0.81798

>  <RMSD>
6.374

$$$$
ligand
 OpenBabel11021811493D
libRbt.so/2013.1/901 2013/11/27
 24 26  0  0  0  0  0  0  0  0999 V2000
    7.4972  -12.4093   -9.2231 N   0  0  0  0  0  0  0  0  0  0  0  0
    7.0856  -11.3348  -10.1121 C   0  0  0  0  0  0  0  0  0  0  0  0
   14.9877  -10.7552  -12.8123 O   0  0  0  0  0  0  0  0  0  0  0  0
   14.3780  -11.9305  -12.3943 C   0  0  0  0  0  0  0  0  0  0  0  0
   12.3900  -15.4424  -10.9895 N   0  0  0  0  0  0  0  0  0  0  0  0
   15.0200  -13.2721  -12.6280 C   0  0  0  0  0  0  0  0  0  0  0  0
   11.3509  -13.4871  -10.6117 N   0  0  0  0  0  0  0  0  0  0  0  0
   14.4253  -14.4967  -12.1821 C   0  0  0  0  0  0  0  0  0  0  0  0
   10.2017  -15.5608   -9.8018 N   0  0  0  0  0  0  0  0  0  0  0  0
   13.1598  -14.3895  -11.5035 C   0  0  0  0  0  0  0  0  0  0  0  0
   11.7748   -7.4079  -11.8641 N   0  0  0  0  0  0  0  0  0  0  0  0
   12.5281  -13.1154  -11.2872 C   0  0  0  0  0  0  0  0  0  0  0  0
   13.1883  -11.8670  -11.7577 C   0  0  0  0  0  0  0  0  0  0  0  0
   11.2830  -14.8654  -10.4382 C   0  0  0  0  0  0  0  0  0  0  0  0
   12.5111  -10.5317  -11.5118 C   0  0  0  0  0  0  0  0  0  0  0  0
   13.1418   -9.3439  -12.2307 C   0  0  1  0  0  0  0  0  0  0  0  0
   14.1410   -9.7612  -13.2716 C   0  0  0  0  0  0  0  0  0  0  0  0
   12.0569   -8.4593  -12.8262 C   0  0  0  0  0  0  0  0  0  0  0  0
   10.3612  -12.5314  -10.0783 C   0  0  0  0  0  0  0  0  0  0  0  0
   12.5184   -6.2165  -12.2510 C   0  0  0  0  0  0  0  0  0  0  0  0
   10.3470   -7.1362  -11.9199 C   0  0  0  0  0  0  0  0  0  0  0  0
    9.8900  -12.8026   -8.6392 C   0  0  0  0  0  0  0  0  0  0  0  0
    8.6192  -11.9716   -8.3805 C   0  0  0  0  0  0  0  0  0  0  0  0
    6.3462  -12.7935   -8.4138 C   0  0  0  0  0  0  0  0  0  0  0  0
  1 23  1  0  0  0  0
  1 24  1  0  0  0  0
  1  2  1  0  0  0  0
  3  4  1  0  0  0  0
  3 17  1  0  0  0  0
  4  6  2  0  0  0  0
  4 13  1  0  0  0  0
  5 10  1  0  0  0  0
  5 14  2  0  0  0  0
  6  8  1  0  0  0  0
  7 12  1  0  0  0  0
  7 14  1  0  0  0  0
  7 19  1  0  0  0  0
  8 10  2  0  0  0  0
  9 14  1  0  0  0  0
 10 12  1  0  0  0  0
 11 18  1  0  0  0  0
 11 20  1  0  0  0  0
 11 21  1  0  0  0  0
 12 13  2  0  0  0  0
 13 15  1  0  0  0  0
 15 16  1  0  0  0  0
 16 17  1  0  0  0  0
 16 18  1  6  0  0  0
 19 22  1  0  0  0  0
 22 23  1  0  0  0  0
M  END
>  <CHROM.1>
-117.38288696,-133.11182212,97.64689188,94.38036636,-165.09068650,65.35040686
11.54056518,-11.64474418,-11.10533519,2.38385219,-0.46005382,2.92841624

>  <Name>
ligand

>  <RI>
144

>  <Rbt.Current_Directory>
/home/itssahil/PROJECTS/Mol_Feturizer/New_Systems/rnas/3TZR

>  <Rbt.Executable>
rbdock ($Id: //depot/dev/client3/rdock/2013.1/src/exe/rbdock.cxx#4 $)

>  <Rbt.Library>
libRbt.so (2013.1, Build901 2013/11/27)

>  <Rbt.Parameter_File>
/export/apps/rDock/src/rDock_2013.1_src/data/scripts/dock_solv.prm

>  <Rbt.Receptor>
prm/pocket_docking_8.prm

>  <SCORE>
-20.4176

>  <SCORE.INTER>
-12.1809

>  <SCORE.INTER.CONST>
1

>  <SCORE.INTER.POLAR>
0

>  <SCORE.INTER.ROT>
6

>  <SCORE.INTER.SOLV>
11.4485

>  <SCORE.INTER.VDW>
-19.5367

>  <SCORE.INTER.norm>
-0.507536

>  <SCORE.INTRA>
-8.23677

>  <SCORE.INTRA.DIHEDRAL>
4.46536

>  <SCORE.INTRA.DIHEDRAL.0>
4.94008

>  <SCORE.INTRA.POLAR>
0

>  <SCORE.INTRA.POLAR.0>
0

>  <SCORE.INTRA.REPUL>
0

>  <SCORE.INTRA.REPUL.0>
0

>  <SCORE.INTRA.SOLV>
1.63491

>  <SCORE.INTRA.SOLV.lig_0>
-31.4704

>  <SCORE.INTRA.VDW>
-11.2869

>  <SCORE.INTRA.VDW.0>
10.2807

>  <SCORE.INTRA.norm>
-0.343199

>  <SCORE.RESTR>
0

>  <SCORE.RESTR.CAVITY>
0

>  <SCORE.RESTR.norm>
0

>  <SCORE.SYSTEM>
0

>  <SCORE.SYSTEM.CONST>
0

>  <SCORE.SYSTEM.DIHEDRAL>
0

>  <SCORE.SYSTEM.SOLV>
0

>  <SCORE.SYSTEM.norm>
0

>  <SCORE.heavy>
24

>  <SCORE.norm>
-0.850734

>  <RMSD>
6.521

$$$$
ligand
 OpenBabel11021811493D
libRbt.so/2013.1/901 2013/11/27
 24 26  0  0  0  0  0  0  0  0999 V2000
   13.8515  -12.1258  -12.5818 N   0  0  0  0  0  0  0  0  0  0  0  0
   15.2543  -12.5083  -12.5764 C   0  0  0  0  0  0  0  0  0  0  0  0
    7.8913   -8.2950  -12.3104 O   0  0  0  0  0  0  0  0  0  0  0  0
    7.8283   -9.3977  -11.4690 C   0  0  0  0  0  0  0  0  0  0  0  0
    7.8169  -12.8339   -8.9290 N   0  0  0  0  0  0  0  0  0  0  0  0
    6.5090   -9.9485  -10.9968 C   0  0  0  0  0  0  0  0  0  0  0  0
    9.8303  -12.0717   -9.5701 N   0  0  0  0  0  0  0  0  0  0  0  0
    6.4160  -11.1013  -10.1515 C   0  0  0  0  0  0  0  0  0  0  0  0
    9.7985  -14.0825   -8.0759 N   0  0  0  0  0  0  0  0  0  0  0  0
    7.6582  -11.7114   -9.7537 C   0  0  0  0  0  0  0  0  0  0  0  0
   11.5899   -6.1564  -12.7021 N   0  0  0  0  0  0  0  0  0  0  0  0
    8.9259  -11.1861  -10.1850 C   0  0  0  0  0  0  0  0  0  0  0  0
    8.9747   -9.9925  -11.0731 C   0  0  0  0  0  0  0  0  0  0  0  0
    9.1619  -13.0440   -8.8335 C   0  0  0  0  0  0  0  0  0  0  0  0
   10.3211   -9.4589  -11.5254 C   0  0  0  0  0  0  0  0  0  0  0  0
   10.2779   -8.1081  -12.2316 C   0  0  1  0  0  0  0  0  0  0  0  0
    8.9468   -7.4258  -12.0954 C   0  0  0  0  0  0  0  0  0  0  0  0
   11.4091   -7.2224  -11.7316 C   0  0  0  0  0  0  0  0  0  0  0  0
   11.2935  -12.0275   -9.7556 C   0  0  0  0  0  0  0  0  0  0  0  0
   10.9781   -4.9439  -12.1754 C   0  0  0  0  0  0  0  0  0  0  0  0
   13.0207   -5.9537  -12.8670 C   0  0  0  0  0  0  0  0  0  0  0  0
   11.7848  -12.2709  -11.1930 C   0  0  0  0  0  0  0  0  0  0  0  0
   13.3181  -12.1265  -11.2122 C   0  0  0  0  0  0  0  0  0  0  0  0
   13.7446  -10.8046  -13.1906 C   0  0  0  0  0  0  0  0  0  0  0  0
  1 23  1  0  0  0  0
  1 24  1  0  0  0  0
  1  2  1  0  0  0  0
  3  4  1  0  0  0  0
  3 17  1  0  0  0  0
  4  6  2  0  0  0  0
  4 13  1  0  0  0  0
  5 10  1  0  0  0  0
  5 14  2  0  0  0  0
  6  8  1  0  0  0  0
  7 12  1  0  0  0  0
  7 14  1  0  0  0  0
  7 19  1  0  0  0  0
  8 10  2  0  0  0  0
  9 14  1  0  0  0  0
 10 12  1  0  0  0  0
 11 18  1  0  0  0  0
 11 20  1  0  0  0  0
 11 21  1  0  0  0  0
 12 13  2  0  0  0  0
 13 15  1  0  0  0  0
 15 16  1  0  0  0  0
 16 17  1  0  0  0  0
 16 18  1  1  0  0  0
 19 22  1  0  0  0  0
 22 23  1  0  0  0  0
M  END
>  <CHROM.1>
-157.91797324,-62.41858850,102.51625841,162.13381273,177.49565956,-170.68178185
10.39851298,-10.14350870,-11.18968455,-1.15057872,-0.30446789,2.76824676

>  <Name>
ligand

>  <RI>
0

>  <Rbt.Current_Directory>
/home/itssahil/PROJECTS/Mol_Feturizer/New_Systems/rnas/3TZR

>  <Rbt.Executable>
rbdock ($Id: //depot/dev/client3/rdock/2013.1/src/exe/rbdock.cxx#4 $)

>  <Rbt.Library>
libRbt.so (2013.1, Build901 2013/11/27)

>  <Rbt.Parameter_File>
/export/apps/rDock/src/rDock_2013.1_src/data/scripts/dock_solv.prm

>  <Rbt.Receptor>
prm/pocket_docking_7.prm

>  <SCORE>
-22.0546

>  <SCORE.INTER>
-11.2174

>  <SCORE.INTER.CONST>
1

>  <SCORE.INTER.POLAR>
0

>  <SCORE.INTER.ROT>
6

>  <SCORE.INTER.SOLV>
12.9643

>  <SCORE.INTER.VDW>
-19.3997

>  <SCORE.INTER.norm>
-0.467393

>  <SCORE.INTRA>
-10.8372

>  <SCORE.INTRA.DIHEDRAL>
0.33762

>  <SCORE.INTRA.DIHEDRAL.0>
4.94008

>  <SCORE.INTRA.POLAR>
0

>  <SCORE.INTRA.POLAR.0>
0

>  <SCORE.INTRA.REPUL>
0

>  <SCORE.INTRA.REPUL.0>
0

>  <SCORE.INTRA.SOLV>
-0.46548

>  <SCORE.INTRA.SOLV.lig_0>
-31.4704

>  <SCORE.INTRA.VDW>
-10.7733

>  <SCORE.INTRA.VDW.0>
10.2807

>  <SCORE.INTRA.norm>
-0.451549

>  <SCORE.RESTR>
0

>  <SCORE.RESTR.CAVITY>
0

>  <SCORE.RESTR.norm>
0

>  <SCORE.SYSTEM>
0

>  <SCORE.SYSTEM.CONST>
0

>  <SCORE.SYSTEM.DIHEDRAL>
0

>  <SCORE.SYSTEM.SOLV>
0

>  <SCORE.SYSTEM.norm>
0

>  <SCORE.heavy>
24

>  <SCORE.norm>
-0.918942

>  <RMSD>
6.531

$$$$
ligand
 OpenBabel11021811493D
libRbt.so/2013.1/901 2013/11/27
 24 26  0  0  0  0  0  0  0  0999 V2000
   12.0912  -13.5010   -6.2180 N   0  0  0  0  0  0  0  0  0  0  0  0
   12.6070  -13.3002   -4.8734 C   0  0  0  0  0  0  0  0  0  0  0  0
   14.1717   -9.3492  -12.8897 O   0  0  0  0  0  0  0  0  0  0  0  0
   14.3251  -10.6554  -12.4445 C   0  0  0  0  0  0  0  0  0  0  0  0
   14.6782  -14.6343  -10.9272 N   0  0  0  0  0  0  0  0  0  0  0  0
   15.4706  -11.5131  -12.9125 C   0  0  0  0  0  0  0  0  0  0  0  0
   12.9299  -13.4340  -10.1869 N   0  0  0  0  0  0  0  0  0  0  0  0
   15.6670  -12.8536  -12.4472 C   0  0  0  0  0  0  0  0  0  0  0  0
   13.1548  -15.7721   -9.3153 N   0  0  0  0  0  0  0  0  0  0  0  0
   14.6983  -13.3592  -11.5094 C   0  0  0  0  0  0  0  0  0  0  0  0
   10.1284   -7.6883  -11.2832 N   0  0  0  0  0  0  0  0  0  0  0  0
   13.5907  -12.5557  -11.0657 C   0  0  0  0  0  0  0  0  0  0  0  0
   13.4324  -11.1631  -11.5671 C   0  0  0  0  0  0  0  0  0  0  0  0
   13.5852  -14.6585  -10.1106 C   0  0  0  0  0  0  0  0  0  0  0  0
   12.2631  -10.3278  -11.0802 C   0  0  0  0  0  0  0  0  0  0  0  0
   12.0542   -9.0120  -11.8220 C   0  0  1  0  0  0  0  0  0  0  0  0
   12.8693   -8.9210  -13.0803 C   0  0  0  0  0  0  0  0  0  0  0  0
   10.5741   -8.8016  -12.1032 C   0  0  0  0  0  0  0  0  0  0  0  0
   11.7466  -13.0718   -9.3832 C   0  0  0  0  0  0  0  0  0  0  0  0
   10.3123   -6.4562  -12.0380 C   0  0  0  0  0  0  0  0  0  0  0  0
    8.7147   -7.8886  -11.0056 C   0  0  0  0  0  0  0  0  0  0  0  0
   12.0007  -12.0603   -8.2521 C   0  0  0  0  0  0  0  0  0  0  0  0
   12.8866  -12.7353   -7.1883 C   0  0  0  0  0  0  0  0  0  0  0  0
   12.1319  -14.9294   -6.5102 C   0  0  0  0  0  0  0  0  0  0  0  0
  1 23  1  0  0  0  0
  1 24  1  0  0  0  0
  1  2  1  0  0  0  0
  3  4  1  0  0  0  0
  3 17  1  0  0  0  0
  4  6  2  0  0  0  0
  4 13  1  0  0  0  0
  5 10  1  0  0  0  0
  5 14  2  0  0  0  0
  6  8  1  0  0  0  0
  7 12  1  0  0  0  0
  7 14  1  0  0  0  0
  7 19  1  0  0  0  0
  8 10  2  0  0  0  0
  9 14  1  0  0  0  0
 10 12  1  0  0  0  0
 11 18  1  0  0  0  0
 11 20  1  0  0  0  0
 11 21  1  0  0  0  0
 12 13  2  0  0  0  0
 13 15  1  0  0  0  0
 15 16  1  0  0  0  0
 16 17  1  0  0  0  0
 16 18  1  6  0  0  0
 19 22  1  0  0  0  0
 22 23  1  0  0  0  0
M  END
>  <CHROM.1>
-138.61635014,-68.72924338,89.66740640,111.32488995,-67.52067687,-85.83859486
12.67116294,-11.55832739,-10.35809210,1.27062941,-0.77129002,2.30093046

>  <Name>
ligand

>  <RI>
0

>  <Rbt.Current_Directory>
/home/itssahil/PROJECTS/Mol_Feturizer/New_Systems/rnas/3TZR

>  <Rbt.Executable>
rbdock ($Id: //depot/dev/client3/rdock/2013.1/src/exe/rbdock.cxx#4 $)

>  <Rbt.Library>
libRbt.so (2013.1, Build901 2013/11/27)

>  <Rbt.Parameter_File>
/export/apps/rDock/src/rDock_2013.1_src/data/scripts/dock_solv.prm

>  <Rbt.Receptor>
prm/pocket_docking_7.prm

>  <SCORE>
-20.8231

>  <SCORE.INTER>
-13.811

>  <SCORE.INTER.CONST>
1

>  <SCORE.INTER.POLAR>
0

>  <SCORE.INTER.ROT>
6

>  <SCORE.INTER.SOLV>
11.6208

>  <SCORE.INTER.VDW>
-20.681

>  <SCORE.INTER.norm>
-0.575459

>  <SCORE.INTRA>
-7.01203

>  <SCORE.INTRA.DIHEDRAL>
6.49979

>  <SCORE.INTRA.DIHEDRAL.0>
4.94008

>  <SCORE.INTRA.POLAR>
0

>  <SCORE.INTRA.POLAR.0>
0

>  <SCORE.INTRA.REPUL>
0

>  <SCORE.INTRA.REPUL.0>
0

>  <SCORE.INTRA.SOLV>
2.93275

>  <SCORE.INTRA.SOLV.lig_0>
-31.4704

>  <SCORE.INTRA.VDW>
-11.7283

>  <SCORE.INTRA.VDW.0>
10.2807

>  <SCORE.INTRA.norm>
-0.292168

>  <SCORE.RESTR>
0

>  <SCORE.RESTR.CAVITY>
0

>  <SCORE.RESTR.norm>
0

>  <SCORE.SYSTEM>
0

>  <SCORE.SYSTEM.CONST>
0

>  <SCORE.SYSTEM.DIHEDRAL>
0

>  <SCORE.SYSTEM.SOLV>
0

>  <SCORE.SYSTEM.norm>
0

>  <SCORE.heavy>
24

>  <SCORE.norm>
-0.867627

>  <RMSD>
7.221

$$$$
ligand
 OpenBabel11021811493D
libRbt.so/2013.1/901 2013/11/27
 24 26  0  0  0  0  0  0  0  0999 V2000
    6.9668  -12.3962   -9.6664 N   0  0  0  0  0  0  0  0  0  0  0  0
    8.2233  -11.6896   -9.4763 C   0  0  0  0  0  0  0  0  0  0  0  0
   11.2534  -15.2561  -10.8241 O   0  0  0  0  0  0  0  0  0  0  0  0
    9.9091  -15.2544  -11.1711 C   0  0  0  0  0  0  0  0  0  0  0  0
    5.7288  -15.2957  -12.0559 N   0  0  0  0  0  0  0  0  0  0  0  0
    9.4710  -15.3431  -12.6088 C   0  0  0  0  0  0  0  0  0  0  0  0
    6.2895  -15.1443   -9.8860 N   0  0  0  0  0  0  0  0  0  0  0  0
    8.0908  -15.3714  -12.9911 C   0  0  0  0  0  0  0  0  0  0  0  0
    3.8441  -15.1648  -10.4299 N   0  0  0  0  0  0  0  0  0  0  0  0
    7.1247  -15.2947  -11.9261 C   0  0  0  0  0  0  0  0  0  0  0  0
   12.4830  -13.6438   -7.1865 N   0  0  0  0  0  0  0  0  0  0  0  0
    7.5296  -15.1942  -10.5495 C   0  0  0  0  0  0  0  0  0  0  0  0
    8.9758  -15.1799  -10.1973 C   0  0  0  0  0  0  0  0  0  0  0  0
    5.2325  -15.2093  -10.7877 C   0  0  0  0  0  0  0  0  0  0  0  0
    9.3833  -15.0830   -8.7390 C   0  0  0  0  0  0  0  0  0  0  0  0
   10.8691  -14.8394   -8.4968 C   0  0  1  0  0  0  0  0  0  0  0  0
   11.6048  -14.4576   -9.7494 C   0  0  0  0  0  0  0  0  0  0  0  0
   11.0549  -13.7970   -7.4046 C   0  0  0  0  0  0  0  0  0  0  0  0
    6.1318  -15.1167   -8.4192 C   0  0  0  0  0  0  0  0  0  0  0  0
   12.8774  -12.3129   -7.6283 C   0  0  0  0  0  0  0  0  0  0  0  0
   12.7240  -13.7794   -5.7586 C   0  0  0  0  0  0  0  0  0  0  0  0
    6.7987  -13.9282   -7.7054 C   0  0  0  0  0  0  0  0  0  0  0  0
    6.3116  -12.6276   -8.3712 C   0  0  0  0  0  0  0  0  0  0  0  0
    6.1260  -11.5955  -10.5491 C   0  0  0  0  0  0  0  0  0  0  0  0
  1 23  1  0  0  0  0
  1 24  1  0  0  0  0
  1  2  1  0  0  0  0
  3  4  1  0  0  0  0
  3 17  1  0  0  0  0
  4  6  2  0  0  0  0
  4 13  1  0  0  0  0
  5 10  1  0  0  0  0
  5 14  2  0  0  0  0
  6  8  1  0  0  0  0
  7 12  1  0  0  0  0
  7 14  1  0  0  0  0
  7 19  1  0  0  0  0
  8 10  2  0  0  0  0
  9 14  1  0  0  0  0
 10 12  1  0  0  0  0
 11 18  1  0  0  0  0
 11 20  1  0  0  0  0
 11 21  1  0  0  0  0
 12 13  2  0  0  0  0
 13 15  1  0  0  0  0
 15 16  1  0  0  0  0
 16 17  1  0  0  0  0
 16 18  1  1  0  0  0
 19 22  1  0  0  0  0
 22 23  1  0  0  0  0
M  END
>  <CHROM.1>
-86.79460513,59.57712088,112.50236030,177.99541878,53.05200810,-76.11336762
8.59056555,-14.22883157,-9.60842249,2.69133851,0.14248358,-2.12542139

>  <Name>
ligand

>  <RI>
0

>  <Rbt.Current_Directory>
/home/itssahil/PROJECTS/Mol_Feturizer/New_Systems/rnas/3TZR

>  <Rbt.Executable>
rbdock ($Id: //depot/dev/client3/rdock/2013.1/src/exe/rbdock.cxx#4 $)

>  <Rbt.Library>
libRbt.so (2013.1, Build901 2013/11/27)

>  <Rbt.Parameter_File>
/export/apps/rDock/src/rDock_2013.1_src/data/scripts/dock_solv.prm

>  <Rbt.Receptor>
prm/pocket_docking_7.prm

>  <SCORE>
-9.45042

>  <SCORE.INTER>
1.70289

>  <SCORE.INTER.CONST>
1

>  <SCORE.INTER.POLAR>
0

>  <SCORE.INTER.ROT>
6

>  <SCORE.INTER.SOLV>
7.00329

>  <SCORE.INTER.VDW>
-8.79917

>  <SCORE.INTER.norm>
0.0709536

>  <SCORE.INTRA>
-11.1533

>  <SCORE.INTRA.DIHEDRAL>
0.7337

>  <SCORE.INTRA.DIHEDRAL.0>
4.94008

>  <SCORE.INTRA.POLAR>
0

>  <SCORE.INTRA.POLAR.0>
0

>  <SCORE.INTRA.REPUL>
0

>  <SCORE.INTRA.REPUL.0>
0

>  <SCORE.INTRA.SOLV>
1.62513

>  <SCORE.INTRA.SOLV.lig_0>
-31.4704

>  <SCORE.INTRA.VDW>
-12.3327

>  <SCORE.INTRA.VDW.0>
10.2807

>  <SCORE.INTRA.norm>
-0.464721

>  <SCORE.RESTR>
0

>  <SCORE.RESTR.CAVITY>
0

>  <SCORE.RESTR.norm>
0

>  <SCORE.SYSTEM>
0

>  <SCORE.SYSTEM.CONST>
0

>  <SCORE.SYSTEM.DIHEDRAL>
0

>  <SCORE.SYSTEM.SOLV>
0

>  <SCORE.SYSTEM.norm>
0

>  <SCORE.heavy>
24

>  <SCORE.norm>
-0.393768

>  <RMSD>
7.722

$$$$
ligand
 OpenBabel11021811493D
libRbt.so/2013.1/901 2013/11/27
 24 26  0  0  0  0  0  0  0  0999 V2000
    9.9302  -14.8303  -13.7948 N   0  0  0  0  0  0  0  0  0  0  0  0
    9.2515  -15.3152  -12.6038 C   0  0  0  0  0  0  0  0  0  0  0  0
   12.5809  -10.7730   -9.4049 O   0  0  0  0  0  0  0  0  0  0  0  0
   13.0290  -12.0114   -9.8447 C   0  0  0  0  0  0  0  0  0  0  0  0
   14.2951  -15.8031  -11.3542 N   0  0  0  0  0  0  0  0  0  0  0  0
   13.6880  -12.9852   -8.9043 C   0  0  0  0  0  0  0  0  0  0  0  0
   13.3375  -14.4084  -12.8319 N   0  0  0  0  0  0  0  0  0  0  0  0
   14.1336  -14.2795   -9.3266 C   0  0  0  0  0  0  0  0  0  0  0  0
   14.0930  -16.6357  -13.6950 N   0  0  0  0  0  0  0  0  0  0  0  0
   13.9350  -14.6089  -10.7142 C   0  0  0  0  0  0  0  0  0  0  0  0
   12.2070   -7.6385  -12.0624 N   0  0  0  0  0  0  0  0  0  0  0  0
   13.3207  -13.6821  -11.6266 C   0  0  0  0  0  0  0  0  0  0  0  0
   12.8621  -12.3518  -11.1412 C   0  0  0  0  0  0  0  0  0  0  0  0
   13.9125  -15.6627  -12.6566 C   0  0  0  0  0  0  0  0  0  0  0  0
   12.2077  -11.3913  -12.1166 C   0  0  0  0  0  0  0  0  0  0  0  0
   11.9887   -9.9787  -11.5857 C   0  0  1  0  0  0  0  0  0  0  0  0
   12.7189   -9.7245  -10.2980 C   0  0  0  0  0  0  0  0  0  0  0  0
   12.3667   -8.9582  -12.6486 C   0  0  0  0  0  0  0  0  0  0  0  0
   12.7417  -13.9353  -14.0962 C   0  0  0  0  0  0  0  0  0  0  0  0
   13.1301   -6.7254  -12.7226 C   0  0  0  0  0  0  0  0  0  0  0  0
   10.8372   -7.2148  -12.3066 C   0  0  0  0  0  0  0  0  0  0  0  0
   12.1156  -15.0273  -14.9807 C   0  0  0  0  0  0  0  0  0  0  0  0
   11.0212  -15.7424  -14.1663 C   0  0  0  0  0  0  0  0  0  0  0  0
    8.9448  -14.7207  -14.8646 C   0  0  0  0  0  0  0  0  0  0  0  0
  1 23  1  0  0  0  0
  1 24  1  0  0  0  0
  1  2  1  0  0  0  0
  3  4  1  0  0  0  0
  3 17  1  0  0  0  0
  4  6  2  0  0  0  0
  4 13  1  0  0  0  0
  5 10  1  0  0  0  0
  5 14  2  0  0  0  0
  6  8  1  0  0  0  0
  7 12  1  0  0  0  0
  7 14  1  0  0  0  0
  7 19  1  0  0  0  0
  8 10  2  0  0  0  0
  9 14  1  0  0  0  0
 10 12  1  0  0  0  0
 11 18  1  0  0  0  0
 11 20  1  0  0  0  0
 11 21  1  0  0  0  0
 12 13  2  0  0  0  0
 13 15  1  0  0  0  0
 15 16  1  0  0  0  0
 16 17  1  0  0  0  0
 16 18  1  6  0  0  0
 19 22  1  0  0  0  0
 22 23  1  0  0  0  0
M  END
>  <CHROM.1>
-155.23714872,-145.10849914,152.09688848,-176.96258203,58.32052517,62.91218516
12.37452211,-12.61731355,-12.13435351,1.60413755,0.85082802,-2.94141806

>  <Name>
ligand

>  <RI>
0

>  <Rbt.Current_Directory>
/home/itssahil/PROJECTS/Mol_Feturizer/New_Systems/rnas/3TZR

>  <Rbt.Executable>
rbdock ($Id: //depot/dev/client3/rdock/2013.1/src/exe/rbdock.cxx#4 $)

>  <Rbt.Library>
libRbt.so (2013.1, Build901 2013/11/27)

>  <Rbt.Parameter_File>
/export/apps/rDock/src/rDock_2013.1_src/data/scripts/dock_solv.prm

>  <Rbt.Receptor>
prm/pocket_docking_6.prm

>  <SCORE>
-17.588

>  <SCORE.INTER>
-8.32021

>  <SCORE.INTER.CONST>
1

>  <SCORE.INTER.POLAR>
-0.72111

>  <SCORE.INTER.ROT>
6

>  <SCORE.INTER.SOLV>
9.79527

>  <SCORE.INTER.VDW>
-14.0082

>  <SCORE.INTER.norm>
-0.346675

>  <SCORE.INTRA>
-9.26774

>  <SCORE.INTRA.DIHEDRAL>
-1.47121

>  <SCORE.INTRA.DIHEDRAL.0>
4.94008

>  <SCORE.INTRA.POLAR>
0

>  <SCORE.INTRA.POLAR.0>
0

>  <SCORE.INTRA.REPUL>
0

>  <SCORE.INTRA.REPUL.0>
0

>  <SCORE.INTRA.SOLV>
2.79606

>  <SCORE.INTRA.SOLV.lig_0>
-31.4704

>  <SCORE.INTRA.VDW>
-9.93017

>  <SCORE.INTRA.VDW.0>
10.2807

>  <SCORE.INTRA.norm>
-0.386156

>  <SCORE.RESTR>
0

>  <SCORE.RESTR.CAVITY>
0

>  <SCORE.RESTR.norm>
0

>  <SCORE.SYSTEM>
0

>  <SCORE.SYSTEM.CONST>
0

>  <SCORE.SYSTEM.DIHEDRAL>
0

>  <SCORE.SYSTEM.SOLV>
0

>  <SCORE.SYSTEM.norm>
0

>  <SCORE.heavy>
24

>  <SCORE.norm>
-0.732831

>  <RMSD>
7.770

$$$$
ligand
 OpenBabel11021811493D
libRbt.so/2013.1/901 2013/11/27
 24 26  0  0  0  0  0  0  0  0999 V2000
    8.5597  -16.0491  -10.4166 N   0  0  0  0  0  0  0  0  0  0  0  0
    7.3865  -16.1353  -11.2712 C   0  0  0  0  0  0  0  0  0  0  0  0
   11.2760  -11.9179   -8.3007 O   0  0  0  0  0  0  0  0  0  0  0  0
   10.0265  -12.5160   -8.2058 C   0  0  0  0  0  0  0  0  0  0  0  0
    6.2662  -14.5283   -7.9419 N   0  0  0  0  0  0  0  0  0  0  0  0
    8.7610  -11.7162   -8.3664 C   0  0  0  0  0  0  0  0  0  0  0  0
    8.0999  -15.7975   -7.6732 N   0  0  0  0  0  0  0  0  0  0  0  0
    7.4609  -12.3139   -8.3007 C   0  0  0  0  0  0  0  0  0  0  0  0
    5.8832  -16.9544   -7.5172 N   0  0  0  0  0  0  0  0  0  0  0  0
    7.4146  -13.7321   -8.0556 C   0  0  0  0  0  0  0  0  0  0  0  0
   12.5350  -14.5877   -5.3805 N   0  0  0  0  0  0  0  0  0  0  0  0
    8.6154  -14.5053   -7.8850 C   0  0  0  0  0  0  0  0  0  0  0  0
    9.9461  -13.8441   -7.9728 C   0  0  0  0  0  0  0  0  0  0  0  0
    6.7096  -15.7985   -7.7132 C   0  0  0  0  0  0  0  0  0  0  0  0
   11.2018  -14.6781   -7.7998 C   0  0  0  0  0  0  0  0  0  0  0  0
   12.4956  -13.8812   -7.6719 C   0  0  1  0  0  0  0  0  0  0  0  0
   12.2534  -12.4147   -7.4558 C   0  0  0  0  0  0  0  0  0  0  0  0
   13.3626  -14.4688   -6.5686 C   0  0  0  0  0  0  0  0  0  0  0  0
    8.9289  -17.0083   -7.5178 C   0  0  0  0  0  0  0  0  0  0  0  0
   12.6677  -15.9413   -4.8590 C   0  0  0  0  0  0  0  0  0  0  0  0
   13.0338  -13.6330   -4.4031 C   0  0  0  0  0  0  0  0  0  0  0  0
    9.8405  -17.3423   -8.7112 C   0  0  0  0  0  0  0  0  0  0  0  0
    8.9744  -17.3912   -9.9839 C   0  0  0  0  0  0  0  0  0  0  0  0
    9.6190  -15.3843  -11.1673 C   0  0  0  0  0  0  0  0  0  0  0  0
  1 23  1  0  0  0  0
  1 24  1  0  0  0  0
  1  2  1  0  0  0  0
  3  4  1  0  0  0  0
  3 17  1  0  0  0  0
  4  6  2  0  0  0  0
  4 13  1  0  0  0  0
  5 10  1  0  0  0  0
  5 14  2  0  0  0  0
  6  8  1  0  0  0  0
  7 12  1  0  0  0  0
  7 14  1  0  0  0  0
  7 19  1  0  0  0  0
  8 10  2  0  0  0  0
  9 14  1  0  0  0  0
 10 12  1  0  0  0  0
 11 18  1  0  0  0  0
 11 20  1  0  0  0  0
 11 21  1  0  0  0  0
 12 13  2  0  0  0  0
 13 15  1  0  0  0  0
 15 16  1  0  0  0  0
 16 17  1  0  0  0  0
 16 18  1  1  0  0  0
 19 22  1  0  0  0  0
 22 23  1  0  0  0  0
M  END
>  <CHROM.1>
-158.89924512,-59.70048701,129.49775085,-51.30398279,-53.32469853,73.20769668
9.70509149,-14.73356986,-7.96200289,-2.86540442,-0.56441454,-0.10150586

>  <Name>
ligand

>  <RI>
144

>  <Rbt.Current_Directory>
/home/itssahil/PROJECTS/Mol_Feturizer/New_Systems/rnas/3TZR

>  <Rbt.Executable>
rbdock ($Id: //depot/dev/client3/rdock/2013.1/src/exe/rbdock.cxx#4 $)

>  <Rbt.Library>
libRbt.so (2013.1, Build901 2013/11/27)

>  <Rbt.Parameter_File>
/export/apps/rDock/src/rDock_2013.1_src/data/scripts/dock_solv.prm

>  <Rbt.Receptor>
prm/pocket_docking_8.prm

>  <SCORE>
-19.0839

>  <SCORE.INTER>
-7.96108

>  <SCORE.INTER.CONST>
1

>  <SCORE.INTER.POLAR>
-0.72111

>  <SCORE.INTER.ROT>
6

>  <SCORE.INTER.SOLV>
4.83282

>  <SCORE.INTER.VDW>
-12.1146

>  <SCORE.INTER.norm>
-0.331712

>  <SCORE.INTRA>
-11.1228

>  <SCORE.INTRA.DIHEDRAL>
0.309501

>  <SCORE.INTRA.DIHEDRAL.0>
4.94008

>  <SCORE.INTRA.POLAR>
0

>  <SCORE.INTRA.POLAR.0>
0

>  <SCORE.INTRA.REPUL>
0

>  <SCORE.INTRA.REPUL.0>
0

>  <SCORE.INTRA.SOLV>
2.32378

>  <SCORE.INTRA.SOLV.lig_0>
-31.4704

>  <SCORE.INTRA.VDW>
-12.4394

>  <SCORE.INTRA.VDW.0>
10.2807

>  <SCORE.INTRA.norm>
-0.46345

>  <SCORE.RESTR>
0

>  <SCORE.RESTR.CAVITY>
0

>  <SCORE.RESTR.norm>
0

>  <SCORE.SYSTEM>
0

>  <SCORE.SYSTEM.CONST>
0

>  <SCORE.SYSTEM.DIHEDRAL>
0

>  <SCORE.SYSTEM.SOLV>
0

>  <SCORE.SYSTEM.norm>
0

>  <SCORE.heavy>
24

>  <SCORE.norm>
-0.795161

>  <RMSD>
8.293

$$$$
ligand
 OpenBabel11021811493D
libRbt.so/2013.1/901 2013/11/27
 24 26  0  0  0  0  0  0  0  0999 V2000
    9.5186  -16.6470  -11.1880 N   0  0  0  0  0  0  0  0  0  0  0  0
   10.6398  -16.5107  -10.2724 C   0  0  0  0  0  0  0  0  0  0  0  0
   15.3012  -12.6936  -12.2517 O   0  0  0  0  0  0  0  0  0  0  0  0
   14.8987  -13.8002  -12.9875 C   0  0  0  0  0  0  0  0  0  0  0  0
   13.4776  -17.1691  -15.1987 N   0  0  0  0  0  0  0  0  0  0  0  0
   15.8808  -14.8618  -13.4062 C   0  0  0  0  0  0  0  0  0  0  0  0
   11.9454  -15.6276  -14.6314 N   0  0  0  0  0  0  0  0  0  0  0  0
   15.4864  -16.0264  -14.1413 C   0  0  0  0  0  0  0  0  0  0  0  0
   11.1367  -17.6096  -15.9331 N   0  0  0  0  0  0  0  0  0  0  0  0
   14.0912  -16.1326  -14.4813 C   0  0  0  0  0  0  0  0  0  0  0  0
   12.7743   -9.2450  -12.0799 N   0  0  0  0  0  0  0  0  0  0  0  0
   13.1451  -15.1181  -14.1008 C   0  0  0  0  0  0  0  0  0  0  0  0
   13.5977  -13.9299  -13.3269 C   0  0  0  0  0  0  0  0  0  0  0  0
   12.1547  -16.8429  -15.2746 C   0  0  0  0  0  0  0  0  0  0  0  0
   12.5833  -12.8750  -12.9263 C   0  0  0  0  0  0  0  0  0  0  0  0
   13.1753  -11.5942  -12.3481 C   0  0  1  0  0  0  0  0  0  0  0  0
   14.6613  -11.5021  -12.5465 C   0  0  0  0  0  0  0  0  0  0  0  0
   12.4620  -10.3823  -12.9283 C   0  0  0  0  0  0  0  0  0  0  0  0
   10.6230  -14.9982  -14.4512 C   0  0  0  0  0  0  0  0  0  0  0  0
   13.6660   -8.3548  -12.8109 C   0  0  0  0  0  0  0  0  0  0  0  0
   11.5244   -8.5599  -11.7901 C   0  0  0  0  0  0  0  0  0  0  0  0
   10.0593  -15.0436  -13.0205 C   0  0  0  0  0  0  0  0  0  0  0  0
    9.9776  -16.5167  -12.5783 C   0  0  0  0  0  0  0  0  0  0  0  0
    8.8989  -17.9467  -10.9550 C   0  0  0  0  0  0  0  0  0  0  0  0
  1 23  1  0  0  0  0
  1 24  1  0  0  0  0
  1  2  1  0  0  0  0
  3  4  1  0  0  0  0
  3 17  1  0  0  0  0
  4  6  2  0  0  0  0
  4 13  1  0  0  0  0
  5 10  1  0  0  0  0
  5 14  2  0  0  0  0
  6  8  1  0  0  0  0
  7 12  1  0  0  0  0
  7 14  1  0  0  0  0
  7 19  1  0  0  0  0
  8 10  2  0  0  0  0
  9 14  1  0  0  0  0
 10 12  1  0  0  0  0
 11 18  1  0  0  0  0
 11 20  1  0  0  0  0
 11 21  1  0  0  0  0
 12 13  2  0  0  0  0
 13 15  1  0  0  0  0
 15 16  1  0  0  0  0
 16 17  1  0  0  0  0
 16 18  1  6  0  0  0
 19 22  1  0  0  0  0
 22 23  1  0  0  0  0
M  END
>  <CHROM.1>
-84.79265510,-68.82568287,109.10071833,163.56788361,-57.50702841,176.74775020
12.49835800,-14.10211041,-13.09235339,1.93523100,-0.46855289,-2.84293629

>  <Name>
ligand

>  <RI>
144

>  <Rbt.Current_Directory>
/home/itssahil/PROJECTS/Mol_Feturizer/New_Systems/rnas/3TZR

>  <Rbt.Executable>
rbdock ($Id: //depot/dev/client3/rdock/2013.1/src/exe/rbdock.cxx#4 $)

>  <Rbt.Library>
libRbt.so (2013.1, Build901 2013/11/27)

>  <Rbt.Parameter_File>
/export/apps/rDock/src/rDock_2013.1_src/data/scripts/dock_solv.prm

>  <Rbt.Receptor>
prm/pocket_docking_8.prm

>  <SCORE>
-15.4687

>  <SCORE.INTER>
-4.72807

>  <SCORE.INTER.CONST>
1

>  <SCORE.INTER.POLAR>
0

>  <SCORE.INTER.ROT>
6

>  <SCORE.INTER.SOLV>
11.4264

>  <SCORE.INTER.VDW>
-14.5609

>  <SCORE.INTER.norm>
-0.197003

>  <SCORE.INTRA>
-10.7406

>  <SCORE.INTRA.DIHEDRAL>
0.308101

>  <SCORE.INTRA.DIHEDRAL.0>
4.94008

>  <SCORE.INTRA.POLAR>
0

>  <SCORE.INTRA.POLAR.0>
0

>  <SCORE.INTRA.REPUL>
0

>  <SCORE.INTRA.REPUL.0>
0

>  <SCORE.INTRA.SOLV>
0.674391

>  <SCORE.INTRA.SOLV.lig_0>
-31.4704

>  <SCORE.INTRA.VDW>
-11.2318

>  <SCORE.INTRA.VDW.0>
10.2807

>  <SCORE.INTRA.norm>
-0.447525

>  <SCORE.RESTR>
0

>  <SCORE.RESTR.CAVITY>
0

>  <SCORE.RESTR.norm>
0

>  <SCORE.SYSTEM>
0

>  <SCORE.SYSTEM.CONST>
0

>  <SCORE.SYSTEM.DIHEDRAL>
0

>  <SCORE.SYSTEM.SOLV>
0

>  <SCORE.SYSTEM.norm>
0

>  <SCORE.heavy>
24

>  <SCORE.norm>
-0.644528

>  <RMSD>
8.327

$$$$
ligand
 OpenBabel11021811493D
libRbt.so/2013.1/901 2013/11/27
 24 26  0  0  0  0  0  0  0  0999 V2000
    3.9796  -17.7400  -11.5125 N   0  0  0  0  0  0  0  0  0  0  0  0
    4.4100  -19.1239  -11.3946 C   0  0  0  0  0  0  0  0  0  0  0  0
    4.1117  -10.3907  -11.1959 O   0  0  0  0  0  0  0  0  0  0  0  0
    3.0940  -10.9698  -10.4497 C   0  0  0  0  0  0  0  0  0  0  0  0
    0.0334  -12.9258   -8.1989 N   0  0  0  0  0  0  0  0  0  0  0  0
    1.8594  -10.1942  -10.0740 C   0  0  0  0  0  0  0  0  0  0  0  0
    1.8458  -14.1547   -8.6996 N   0  0  0  0  0  0  0  0  0  0  0  0
    0.7833  -10.7764   -9.3290 C   0  0  0  0  0  0  0  0  0  0  0  0
    0.0401  -15.2786   -7.3756 N   0  0  0  0  0  0  0  0  0  0  0  0
    0.9417  -12.1524   -8.9353 C   0  0  0  0  0  0  0  0  0  0  0  0
    6.8525  -12.4242   -8.9759 N   0  0  0  0  0  0  0  0  0  0  0  0
    2.1227  -12.9003   -9.2744 C   0  0  0  0  0  0  0  0  0  0  0  0
    3.2115  -12.2579  -10.0603 C   0  0  0  0  0  0  0  0  0  0  0  0
    0.6056  -14.1580   -8.0701 C   0  0  0  0  0  0  0  0  0  0  0  0
    4.4453  -13.0658  -10.4166 C   0  0  0  0  0  0  0  0  0  0  0  0
    5.5960  -12.2616  -11.0121 C   0  0  1  0  0  0  0  0  0  0  0  0
    5.4000  -10.7792  -10.8714 C   0  0  0  0  0  0  0  0  0  0  0  0
    6.9151  -12.7075  -10.3995 C   0  0  0  0  0  0  0  0  0  0  0  0
    2.7185  -15.3378   -8.8254 C   0  0  0  0  0  0  0  0  0  0  0  0
    6.8896  -13.6876   -8.2517 C   0  0  0  0  0  0  0  0  0  0  0  0
    8.0219  -11.6285   -8.6369 C   0  0  0  0  0  0  0  0  0  0  0  0
    2.8119  -15.9426  -10.2369 C   0  0  0  0  0  0  0  0  0  0  0  0
    3.7504  -17.1626  -10.1804 C   0  0  0  0  0  0  0  0  0  0  0  0
    5.0103  -17.0053  -12.2374 C   0  0  0  0  0  0  0  0  0  0  0  0
  1 23  1  0  0  0  0
  1 24  1  0  0  0  0
  1  2  1  0  0  0  0
  3  4  1  0  0  0  0
  3 17  1  0  0  0  0
  4  6  2  0  0  0  0
  4 13  1  0  0  0  0
  5 10  1  0  0  0  0
  5 14  2  0  0  0  0
  6  8  1  0  0  0  0
  7 12  1  0  0  0  0
  7 14  1  0  0  0  0
  7 19  1  0  0  0  0
  8 10  2  0  0  0  0
  9 14  1  0  0  0  0
 10 12  1  0  0  0  0
 11 18  1  0  0  0  0
 11 20  1  0  0  0  0
 11 21  1  0  0  0  0
 12 13  2  0  0  0  0
 13 15  1  0  0  0  0
 15 16  1  0  0  0  0
 16 17  1  0  0  0  0
 16 18  1  1  0  0  0
 19 22  1  0  0  0  0
 22 23  1  0  0  0  0
M  END
>  <CHROM.1>
-158.16515349,-68.10186414,114.93091695,-62.40665125,-179.69477840,-175.53282959
3.66461420,-13.61990400,-9.79872848,-1.68992708,0.26036719,0.13959211

>  <Name>
ligand

>  <RI>
144

>  <Rbt.Current_Directory>
/home/itssahil/PROJECTS/Mol_Feturizer/New_Systems/rnas/3TZR

>  <Rbt.Executable>
rbdock ($Id: //depot/dev/client3/rdock/2013.1/src/exe/rbdock.cxx#4 $)

>  <Rbt.Library>
libRbt.so (2013.1, Build901 2013/11/27)

>  <Rbt.Parameter_File>
/export/apps/rDock/src/rDock_2013.1_src/data/scripts/dock_solv.prm

>  <Rbt.Receptor>
prm/pocket_docking_8.prm

>  <SCORE>
-12.0505

>  <SCORE.INTER>
-0.542492

>  <SCORE.INTER.CONST>
1

>  <SCORE.INTER.POLAR>
0

>  <SCORE.INTER.ROT>
6

>  <SCORE.INTER.SOLV>
6.61423

>  <SCORE.INTER.VDW>
-10.1664

>  <SCORE.INTER.norm>
-0.0226038

>  <SCORE.INTRA>
-11.508

>  <SCORE.INTRA.DIHEDRAL>
-0.578923

>  <SCORE.INTRA.DIHEDRAL.0>
4.94008

>  <SCORE.INTRA.POLAR>
0

>  <SCORE.INTRA.POLAR.0>
0

>  <SCORE.INTRA.REPUL>
0

>  <SCORE.INTRA.REPUL.0>
0

>  <SCORE.INTRA.SOLV>
-0.18188

>  <SCORE.INTRA.SOLV.lig_0>
-31.4704

>  <SCORE.INTRA.VDW>
-11.1276

>  <SCORE.INTRA.VDW.0>
10.2807

>  <SCORE.INTRA.norm>
-0.479499

>  <SCORE.RESTR>
0

>  <SCORE.RESTR.CAVITY>
0

>  <SCORE.RESTR.norm>
0

>  <SCORE.SYSTEM>
0

>  <SCORE.SYSTEM.CONST>
0

>  <SCORE.SYSTEM.DIHEDRAL>
0

>  <SCORE.SYSTEM.SOLV>
0

>  <SCORE.SYSTEM.norm>
0

>  <SCORE.heavy>
24

>  <SCORE.norm>
-0.502103

>  <RMSD>
9.305

$$$$
ligand
 OpenBabel11021811493D
libRbt.so/2013.1/901 2013/11/27
 24 26  0  0  0  0  0  0  0  0999 V2000
   15.1213  -14.6730  -12.7388 N   0  0  0  0  0  0  0  0  0  0  0  0
   13.8917  -15.1785  -13.3277 C   0  0  0  0  0  0  0  0  0  0  0  0
   13.5642  -15.9309   -4.9029 O   0  0  0  0  0  0  0  0  0  0  0  0
   13.2618  -14.7850   -5.6262 C   0  0  0  0  0  0  0  0  0  0  0  0
   12.4308  -11.3315   -8.0014 N   0  0  0  0  0  0  0  0  0  0  0  0
   12.7947  -13.5275   -4.9425 C   0  0  0  0  0  0  0  0  0  0  0  0
   13.1057  -13.1663   -9.1076 N   0  0  0  0  0  0  0  0  0  0  0  0
   12.5032  -12.3241   -5.6629 C   0  0  0  0  0  0  0  0  0  0  0  0
   12.6072  -11.1302  -10.4796 N   0  0  0  0  0  0  0  0  0  0  0  0
   12.6637  -12.3736   -7.0931 C   0  0  0  0  0  0  0  0  0  0  0  0
   11.9784  -18.1557   -7.9584 N   0  0  0  0  0  0  0  0  0  0  0  0
   13.0944  -13.5729   -7.7603 C   0  0  0  0  0  0  0  0  0  0  0  0
   13.3976  -14.7973   -6.9701 C   0  0  0  0  0  0  0  0  0  0  0  0
   12.7152  -11.8376   -9.2364 C   0  0  0  0  0  0  0  0  0  0  0  0
   13.8599  -16.0499   -7.6909 C   0  0  0  0  0  0  0  0  0  0  0  0
   13.9177  -17.3077   -6.8308 C   0  0  1  0  0  0  0  0  0  0  0  0
   13.2355  -17.1336   -5.5040 C   0  0  0  0  0  0  0  0  0  0  0  0
   13.3455  -18.4902   -7.5979 C   0  0  0  0  0  0  0  0  0  0  0  0
   13.5586  -14.0130  -10.2279 C   0  0  0  0  0  0  0  0  0  0  0  0
   11.8303  -18.3090   -9.3994 C   0  0  0  0  0  0  0  0  0  0  0  0
   11.1037  -19.0931   -7.2717 C   0  0  0  0  0  0  0  0  0  0  0  0
   15.0704  -14.2946  -10.2739 C   0  0  0  0  0  0  0  0  0  0  0  0
   15.3442  -15.2851  -11.4212 C   0  0  0  0  0  0  0  0  0  0  0  0
   16.2176  -14.9717  -13.6533 C   0  0  0  0  0  0  0  0  0  0  0  0
  1 23  1  0  0  0  0
  1 24  1  0  0  0  0
  1  2  1  0  0  0  0
  3  4  1  0  0  0  0
  3 17  1  0  0  0  0
  4  6  2  0  0  0  0
  4 13  1  0  0  0  0
  5 10  1  0  0  0  0
  5 14  2  0  0  0  0
  6  8  1  0  0  0  0
  7 12  1  0  0  0  0
  7 14  1  0  0  0  0
  7 19  1  0  0  0  0
  8 10  2  0  0  0  0
  9 14  1  0  0  0  0
 10 12  1  0  0  0  0
 11 18  1  0  0  0  0
 11 20  1  0  0  0  0
 11 21  1  0  0  0  0
 12 13  2  0  0  0  0
 13 15  1  0  0  0  0
 15 16  1  0  0  0  0
 16 17  1  0  0  0  0
 16 18  1  6  0  0  0
 19 22  1  0  0  0  0
 22 23  1  0  0  0  0
M  END
>  <CHROM.1>
-106.39313822,-69.74680425,125.37466147,-58.49718549,175.04397452,68.98979567
13.37626610,-14.99754071,-8.57423596,-0.33291679,-1.27890882,-3.10523772

>  <Name>
ligand

>  <RI>
144

>  <Rbt.Current_Directory>
/home/itssahil/PROJECTS/Mol_Feturizer/New_Systems/rnas/3TZR

>  <Rbt.Executable>
rbdock ($Id: //depot/dev/client3/rdock/2013.1/src/exe/rbdock.cxx#4 $)

>  <Rbt.Library>
libRbt.so (2013.1, Build901 2013/11/27)

>  <Rbt.Parameter_File>
/export/apps/rDock/src/rDock_2013.1_src/data/scripts/dock_solv.prm

>  <Rbt.Receptor>
prm/pocket_docking_8.prm

>  <SCORE>
-16.1871

>  <SCORE.INTER>
-5.58337

>  <SCORE.INTER.CONST>
1

>  <SCORE.INTER.POLAR>
0

>  <SCORE.INTER.ROT>
6

>  <SCORE.INTER.SOLV>
7.27206

>  <SCORE.INTER.VDW>
-13.7463

>  <SCORE.INTER.norm>
-0.232641

>  <SCORE.INTRA>
-10.6557

>  <SCORE.INTRA.DIHEDRAL>
1.12971

>  <SCORE.INTRA.DIHEDRAL.0>
4.94008

>  <SCORE.INTRA.POLAR>
0

>  <SCORE.INTRA.POLAR.0>
0

>  <SCORE.INTRA.REPUL>
0

>  <SCORE.INTRA.REPUL.0>
0

>  <SCORE.INTRA.SOLV>
0.019453

>  <SCORE.INTRA.SOLV.lig_0>
-31.4704

>  <SCORE.INTRA.VDW>
-11.2303

>  <SCORE.INTRA.VDW.0>
10.2807

>  <SCORE.INTRA.norm>
-0.443988

>  <SCORE.RESTR>
0.0519859

>  <SCORE.RESTR.CAVITY>
0.0519859

>  <SCORE.RESTR.norm>
0.00216608

>  <SCORE.SYSTEM>
0

>  <SCORE.SYSTEM.CONST>
0

>  <SCORE.SYSTEM.DIHEDRAL>
0

>  <SCORE.SYSTEM.SOLV>
0

>  <SCORE.SYSTEM.norm>
0

>  <SCORE.heavy>
24

>  <SCORE.norm>
-0.674463

>  <RMSD>
9.441

$$$$
ligand
 OpenBabel11021811493D
libRbt.so/2013.1/901 2013/11/27
 24 26  0  0  0  0  0  0  0  0999 V2000
   20.4752    0.2960   -5.7206 N   0  0  0  0  0  0  0  0  0  0  0  0
   21.4969    1.2932   -5.4451 C   0  0  0  0  0  0  0  0  0  0  0  0
   14.4384   -1.0513   -3.0310 O   0  0  0  0  0  0  0  0  0  0  0  0
   15.1173   -2.2471   -3.2227 C   0  0  0  0  0  0  0  0  0  0  0  0
   17.3572   -5.8260   -3.8808 N   0  0  0  0  0  0  0  0  0  0  0  0
   14.3888   -3.5642   -3.2608 C   0  0  0  0  0  0  0  0  0  0  0  0
   18.5288   -3.9104   -3.8227 N   0  0  0  0  0  0  0  0  0  0  0  0
   15.0622   -4.8085   -3.4848 C   0  0  0  0  0  0  0  0  0  0  0  0
   19.8213   -6.0228   -4.2019 N   0  0  0  0  0  0  0  0  0  0  0  0
   16.4902   -4.7468   -3.6596 C   0  0  0  0  0  0  0  0  0  0  0  0
   17.4719    2.4187   -2.5504 N   0  0  0  0  0  0  0  0  0  0  0  0
   17.2005   -3.4969   -3.6102 C   0  0  0  0  0  0  0  0  0  0  0  0
   16.4580   -2.2264   -3.3865 C   0  0  0  0  0  0  0  0  0  0  0  0
   18.6076   -5.2895   -3.9854 C   0  0  0  0  0  0  0  0  0  0  0  0
   17.2235   -0.9169   -3.3472 C   0  0  0  0  0  0  0  0  0  0  0  0
   16.4168    0.2908   -2.8822 C   0  0  1  0  0  0  0  0  0  0  0  0
   15.0957   -0.0928   -2.2793 C   0  0  0  0  0  0  0  0  0  0  0  0
   17.2432    1.1301   -1.9196 C   0  0  0  0  0  0  0  0  0  0  0  0
   19.6762   -2.9909   -3.9459 C   0  0  0  0  0  0  0  0  0  0  0  0
   16.3034    3.2580   -2.3228 C   0  0  0  0  0  0  0  0  0  0  0  0
   18.6370    3.0151   -1.9160 C   0  0  0  0  0  0  0  0  0  0  0  0
   19.5478   -1.9172   -5.0402 C   0  0  0  0  0  0  0  0  0  0  0  0
   20.5067   -0.7609   -4.6997 C   0  0  0  0  0  0  0  0  0  0  0  0
   19.1812    0.9685   -5.7463 C   0  0  0  0  0  0  0  0  0  0  0  0
  1 23  1  0  0  0  0
  1 24  1  0  0  0  0
  1  2  1  0  0  0  0
  3  4  1  0  0  0  0
  3 17  1  0  0  0  0
  4  6  2  0  0  0  0
  4 13  1  0  0  0  0
  5 10  1  0  0  0  0
  5 14  2  0  0  0  0
  6  8  1  0  0  0  0
  7 12  1  0  0  0  0
  7 14  1  0  0  0  0
  7 19  1  0  0  0  0
  8 10  2  0  0  0  0
  9 14  1  0  0  0  0
 10 12  1  0  0  0  0
 11 18  1  0  0  0  0
 11 20  1  0  0  0  0
 11 21  1  0  0  0  0
 12 13  2  0  0  0  0
 13 15  1  0  0  0  0
 15 16  1  0  0  0  0
 16 17  1  0  0  0  0
 16 18  1  1  0  0  0
 19 22  1  0  0  0  0
 22 23  1  0  0  0  0
M  END
>  <CHROM.1>
-173.60650389,-55.89530194,82.75229592,115.36921805,158.63980317,178.34662907
17.67591693,-1.41128384,-3.64665244,-1.44227019,-0.41093565,-3.00807377

>  <Name>
ligand

>  <RI>
144

>  <Rbt.Current_Directory>
/home/itssahil/PROJECTS/Mol_Feturizer/New_Systems/rnas/3TZR

>  <Rbt.Executable>
rbdock ($Id: //depot/dev/client3/rdock/2013.1/src/exe/rbdock.cxx#4 $)

>  <Rbt.Library>
libRbt.so (2013.1, Build901 2013/11/27)

>  <Rbt.Parameter_File>
/export/apps/rDock/src/rDock_2013.1_src/data/scripts/dock_solv.prm

>  <Rbt.Receptor>
prm/blind_docking_60.prm

>  <SCORE>
-20.7758

>  <SCORE.INTER>
-13.0052

>  <SCORE.INTER.CONST>
1

>  <SCORE.INTER.POLAR>
-0.54031

>  <SCORE.INTER.ROT>
6

>  <SCORE.INTER.SOLV>
10.5773

>  <SCORE.INTER.VDW>
-17.9949

>  <SCORE.INTER.norm>
-0.541885

>  <SCORE.INTRA>
-8.25602

>  <SCORE.INTRA.DIHEDRAL>
3.73809

>  <SCORE.INTRA.DIHEDRAL.0>
4.94008

>  <SCORE.INTRA.POLAR>
0

>  <SCORE.INTRA.POLAR.0>
0

>  <SCORE.INTRA.REPUL>
0

>  <SCORE.INTRA.REPUL.0>
0

>  <SCORE.INTRA.SOLV>
-0.431145

>  <SCORE.INTRA.SOLV.lig_0>
-31.4704

>  <SCORE.INTRA.VDW>
-9.90949

>  <SCORE.INTRA.VDW.0>
10.2807

>  <SCORE.INTRA.norm>
-0.344001

>  <SCORE.RESTR>
0.48544

>  <SCORE.RESTR.CAVITY>
0.48544

>  <SCORE.RESTR.norm>
0.0202267

>  <SCORE.SYSTEM>
0

>  <SCORE.SYSTEM.CONST>
0

>  <SCORE.SYSTEM.DIHEDRAL>
0

>  <SCORE.SYSTEM.SOLV>
0

>  <SCORE.SYSTEM.norm>
0

>  <SCORE.heavy>
24

>  <SCORE.norm>
-0.865659

>  <RMSD>
14.769

$$$$
ligand
 OpenBabel11021811493D
libRbt.so/2013.1/901 2013/11/27
 24 26  0  0  0  0  0  0  0  0999 V2000
   11.2629    4.0919   -5.3252 N   0  0  0  0  0  0  0  0  0  0  0  0
   10.9920    5.4950   -5.0564 C   0  0  0  0  0  0  0  0  0  0  0  0
   18.3247    2.6713   -3.7823 O   0  0  0  0  0  0  0  0  0  0  0  0
   17.2885    3.5418   -3.4717 C   0  0  0  0  0  0  0  0  0  0  0  0
   13.9741    6.0785   -2.5560 N   0  0  0  0  0  0  0  0  0  0  0  0
   17.5037    5.0312   -3.4259 C   0  0  0  0  0  0  0  0  0  0  0  0
   13.5641    3.8702   -2.5857 N   0  0  0  0  0  0  0  0  0  0  0  0
   16.4454    5.9519   -3.1356 C   0  0  0  0  0  0  0  0  0  0  0  0
   11.6371    5.3775   -2.0458 N   0  0  0  0  0  0  0  0  0  0  0  0
   15.1497    5.3824   -2.8703 C   0  0  0  0  0  0  0  0  0  0  0  0
   18.0770   -1.3867   -2.6774 N   0  0  0  0  0  0  0  0  0  0  0  0
   14.9338    3.9605   -2.8958 C   0  0  0  0  0  0  0  0  0  0  0  0
   16.0607    3.0413   -3.2137 C   0  0  0  0  0  0  0  0  0  0  0  0
   13.0072    5.1298   -2.3911 C   0  0  0  0  0  0  0  0  0  0  0  0
   15.8112    1.5450   -3.2453 C   0  0  0  0  0  0  0  0  0  0  0  0
   17.0643    0.6818   -3.3459 C   0  0  1  0  0  0  0  0  0  0  0  0
   18.3254    1.4622   -3.1085 C   0  0  0  0  0  0  0  0  0  0  0  0
   16.9582   -0.5031   -2.3978 C   0  0  0  0  0  0  0  0  0  0  0  0
   12.7991    2.6087   -2.5586 C   0  0  0  0  0  0  0  0  0  0  0  0
   18.5689   -1.9223   -1.4152 C   0  0  0  0  0  0  0  0  0  0  0  0
   17.5805   -2.4700   -3.5112 C   0  0  0  0  0  0  0  0  0  0  0  0
   12.0864    2.2401   -3.8712 C   0  0  0  0  0  0  0  0  0  0  0  0
   10.9816    3.2812   -4.1319 C   0  0  0  0  0  0  0  0  0  0  0  0
   10.4352    3.6787   -6.4528 C   0  0  0  0  0  0  0  0  0  0  0  0
  1 23  1  0  0  0  0
  1 24  1  0  0  0  0
  1  2  1  0  0  0  0
  3  4  1  0  0  0  0
  3 17  1  0  0  0  0
  4  6  2  0  0  0  0
  4 13  1  0  0  0  0
  5 10  1  0  0  0  0
  5 14  2  0  0  0  0
  6  8  1  0  0  0  0
  7 12  1  0  0  0  0
  7 14  1  0  0  0  0
  7 19  1  0  0  0  0
  8 10  2  0  0  0  0
  9 14  1  0  0  0  0
 10 12  1  0  0  0  0
 11 18  1  0  0  0  0
 11 20  1  0  0  0  0
 11 21  1  0  0  0  0
 12 13  2  0  0  0  0
 13 15  1  0  0  0  0
 15 16  1  0  0  0  0
 16 17  1  0  0  0  0
 16 18  1  1  0  0  0
 19 22  1  0  0  0  0
 22 23  1  0  0  0  0
M  END
>  <CHROM.1>
-135.93256992,-92.79370108,141.47316494,171.78066646,-66.32461455,113.73471319
14.92338513,2.77936222,-3.33487334,2.47979954,-0.25900422,0.06866788

>  <Name>
ligand

>  <RI>
144

>  <Rbt.Current_Directory>
/home/itssahil/PROJECTS/Mol_Feturizer/New_Systems/rnas/3TZR

>  <Rbt.Executable>
rbdock ($Id: //depot/dev/client3/rdock/2013.1/src/exe/rbdock.cxx#4 $)

>  <Rbt.Library>
libRbt.so (2013.1, Build901 2013/11/27)

>  <Rbt.Parameter_File>
/export/apps/rDock/src/rDock_2013.1_src/data/scripts/dock_solv.prm

>  <Rbt.Receptor>
prm/blind_docking_20.prm

>  <SCORE>
-11.249

>  <SCORE.INTER>
-4.54348

>  <SCORE.INTER.CONST>
1

>  <SCORE.INTER.POLAR>
0

>  <SCORE.INTER.ROT>
6

>  <SCORE.INTER.SOLV>
10.6009

>  <SCORE.INTER.VDW>
-14.1626

>  <SCORE.INTER.norm>
-0.189312

>  <SCORE.INTRA>
-6.79283

>  <SCORE.INTRA.DIHEDRAL>
5.74575

>  <SCORE.INTRA.DIHEDRAL.0>
4.94008

>  <SCORE.INTRA.POLAR>
0

>  <SCORE.INTRA.POLAR.0>
0

>  <SCORE.INTRA.REPUL>
0

>  <SCORE.INTRA.REPUL.0>
0

>  <SCORE.INTRA.SOLV>
4.56398

>  <SCORE.INTRA.SOLV.lig_0>
-31.4704

>  <SCORE.INTRA.VDW>
-11.9477

>  <SCORE.INTRA.VDW.0>
10.2807

>  <SCORE.INTRA.norm>
-0.283035

>  <SCORE.RESTR>
0.087353

>  <SCORE.RESTR.CAVITY>
0.087353

>  <SCORE.RESTR.norm>
0.00363971

>  <SCORE.SYSTEM>
0

>  <SCORE.SYSTEM.CONST>
0

>  <SCORE.SYSTEM.DIHEDRAL>
0

>  <SCORE.SYSTEM.SOLV>
0

>  <SCORE.SYSTEM.norm>
0

>  <SCORE.heavy>
24

>  <SCORE.norm>
-0.468707

>  <RMSD>
15.091

$$$$
ligand
 OpenBabel11021811493D
libRbt.so/2013.1/901 2013/11/27
 24 26  0  0  0  0  0  0  0  0999 V2000
   10.4200    3.2789   -5.2988 N   0  0  0  0  0  0  0  0  0  0  0  0
   10.4278    3.3619   -6.7505 C   0  0  0  0  0  0  0  0  0  0  0  0
   18.9034    2.8311   -3.9809 O   0  0  0  0  0  0  0  0  0  0  0  0
   17.8627    3.7109   -3.7152 C   0  0  0  0  0  0  0  0  0  0  0  0
   14.5349    6.2763   -2.9381 N   0  0  0  0  0  0  0  0  0  0  0  0
   18.0821    5.2003   -3.6942 C   0  0  0  0  0  0  0  0  0  0  0  0
   14.1177    4.0692   -2.9334 N   0  0  0  0  0  0  0  0  0  0  0  0
   17.0199    6.1301   -3.4504 C   0  0  0  0  0  0  0  0  0  0  0  0
   12.1829    5.5933   -2.4747 N   0  0  0  0  0  0  0  0  0  0  0  0
   15.7157    5.5702   -3.2074 C   0  0  0  0  0  0  0  0  0  0  0  0
   18.6658   -1.1480   -2.7271 N   0  0  0  0  0  0  0  0  0  0  0  0
   15.4954    4.1488   -3.2095 C   0  0  0  0  0  0  0  0  0  0  0  0
   16.6267    3.2198   -3.4791 C   0  0  0  0  0  0  0  0  0  0  0  0
   13.5606    5.3342   -2.7791 C   0  0  0  0  0  0  0  0  0  0  0  0
   16.3726    1.7239   -3.4867 C   0  0  0  0  0  0  0  0  0  0  0  0
   17.6247    0.8549   -3.5370 C   0  0  1  0  0  0  0  0  0  0  0  0
   18.8822    1.6360   -3.2828 C   0  0  0  0  0  0  0  0  0  0  0  0
   17.4897   -0.3100   -2.5681 C   0  0  0  0  0  0  0  0  0  0  0  0
   13.3476    2.8109   -2.9005 C   0  0  0  0  0  0  0  0  0  0  0  0
   18.9128   -1.8403   -1.4696 C   0  0  0  0  0  0  0  0  0  0  0  0
   18.3743   -2.1162   -3.7726 C   0  0  0  0  0  0  0  0  0  0  0  0
   11.8659    2.9328   -3.2962 C   0  0  0  0  0  0  0  0  0  0  0  0
   11.7923    3.3491   -4.7772 C   0  0  0  0  0  0  0  0  0  0  0  0
    9.6027    4.3732   -4.7870 C   0  0  0  0  0  0  0  0  0  0  0  0
  1 23  1  0  0  0  0
  1 24  1  0  0  0  0
  1  2  1  0  0  0  0
  3  4  1  0  0  0  0
  3 17  1  0  0  0  0
  4  6  2  0  0  0  0
  4 13  1  0  0  0  0
  5 10  1  0  0  0  0
  5 14  2  0  0  0  0
  6  8  1  0  0  0  0
  7 12  1  0  0  0  0
  7 14  1  0  0  0  0
  7 19  1  0  0  0  0
  8 10  2  0  0  0  0
  9 14  1  0  0  0  0
 10 12  1  0  0  0  0
 11 18  1  0  0  0  0
 11 20  1  0  0  0  0
 11 21  1  0  0  0  0
 12 13  2  0  0  0  0
 13 15  1  0  0  0  0
 15 16  1  0  0  0  0
 16 17  1  0  0  0  0
 16 18  1  1  0  0  0
 19 22  1  0  0  0  0
 22 23  1  0  0  0  0
M  END
>  <CHROM.1>
-166.39546544,-149.97362835,152.66843506,176.16128319,65.01189184,170.79275818
15.28743539,2.86106270,-3.53946047,2.61472548,-0.22240894,0.05292441

>  <Name>
ligand

>  <RI>
0

>  <Rbt.Current_Directory>
/home/itssahil/PROJECTS/Mol_Feturizer/New_Systems/rnas/3TZR

>  <Rbt.Executable>
rbdock ($Id: //depot/dev/client3/rdock/2013.1/src/exe/rbdock.cxx#4 $)

>  <Rbt.Library>
libRbt.so (2013.1, Build901 2013/11/27)

>  <Rbt.Parameter_File>
/export/apps/rDock/src/rDock_2013.1_src/data/scripts/dock_solv.prm

>  <Rbt.Receptor>
prm/blind_docking_80.prm

>  <SCORE>
-19.4216

>  <SCORE.INTER>
-11.3907

>  <SCORE.INTER.CONST>
1

>  <SCORE.INTER.POLAR>
0

>  <SCORE.INTER.ROT>
6

>  <SCORE.INTER.SOLV>
11.2945

>  <SCORE.INTER.VDW>
-18.9587

>  <SCORE.INTER.norm>
-0.474614

>  <SCORE.INTRA>
-8.11565

>  <SCORE.INTRA.DIHEDRAL>
-1.69201

>  <SCORE.INTRA.DIHEDRAL.0>
4.94008

>  <SCORE.INTRA.POLAR>
0

>  <SCORE.INTRA.POLAR.0>
0

>  <SCORE.INTRA.REPUL>
0

>  <SCORE.INTRA.REPUL.0>
0

>  <SCORE.INTRA.SOLV>
3.94436

>  <SCORE.INTRA.SOLV.lig_0>
-31.4704

>  <SCORE.INTRA.VDW>
-9.24182

>  <SCORE.INTRA.VDW.0>
10.2807

>  <SCORE.INTRA.norm>
-0.338152

>  <SCORE.RESTR>
0.0848255

>  <SCORE.RESTR.CAVITY>
0.0848255

>  <SCORE.RESTR.norm>
0.0035344

>  <SCORE.SYSTEM>
0

>  <SCORE.SYSTEM.CONST>
0

>  <SCORE.SYSTEM.DIHEDRAL>
0

>  <SCORE.SYSTEM.SOLV>
0

>  <SCORE.SYSTEM.norm>
0

>  <SCORE.heavy>
24

>  <SCORE.norm>
-0.809232

>  <RMSD>
15.149

$$$$
ligand
 OpenBabel11021811493D
libRbt.so/2013.1/901 2013/11/27
 24 26  0  0  0  0  0  0  0  0999 V2000
   10.2835    4.2903   -4.9605 N   0  0  0  0  0  0  0  0  0  0  0  0
    9.0298    4.9587   -4.6509 C   0  0  0  0  0  0  0  0  0  0  0  0
   18.5809    2.7870   -3.5903 O   0  0  0  0  0  0  0  0  0  0  0  0
   17.5622    3.6910   -3.3204 C   0  0  0  0  0  0  0  0  0  0  0  0
   14.2993    6.3393   -2.5464 N   0  0  0  0  0  0  0  0  0  0  0  0
   17.8386    5.1646   -3.1830 C   0  0  0  0  0  0  0  0  0  0  0  0
   13.7958    4.1570   -2.7191 N   0  0  0  0  0  0  0  0  0  0  0  0
   16.8018    6.1208   -2.9325 C   0  0  0  0  0  0  0  0  0  0  0  0
   11.8996    5.7287   -2.2600 N   0  0  0  0  0  0  0  0  0  0  0  0
   15.4648    5.6026   -2.8003 C   0  0  0  0  0  0  0  0  0  0  0  0
   18.0529   -1.3103   -2.7289 N   0  0  0  0  0  0  0  0  0  0  0  0
   15.1891    4.1955   -2.9139 C   0  0  0  0  0  0  0  0  0  0  0  0
   16.2964    3.2388   -3.1865 C   0  0  0  0  0  0  0  0  0  0  0  0
   13.2811    5.4316   -2.5068 C   0  0  0  0  0  0  0  0  0  0  0  0
   15.9844    1.7593   -3.3126 C   0  0  0  0  0  0  0  0  0  0  0  0
   17.2021    0.8424   -3.3560 C   0  0  1  0  0  0  0  0  0  0  0  0
   18.4729    1.5493   -2.9800 C   0  0  0  0  0  0  0  0  0  0  0  0
   16.9663   -0.3786   -2.4798 C   0  0  0  0  0  0  0  0  0  0  0  0
   12.9762    2.9339   -2.8162 C   0  0  0  0  0  0  0  0  0  0  0  0
   18.5703   -1.7694   -1.4469 C   0  0  0  0  0  0  0  0  0  0  0  0
   17.5028   -2.4354   -3.4685 C   0  0  0  0  0  0  0  0  0  0  0  0
   12.0976    2.8257   -4.0745 C   0  0  0  0  0  0  0  0  0  0  0  0
   10.7590    3.5338   -3.7934 C   0  0  0  0  0  0  0  0  0  0  0  0
   10.0588    3.4132   -6.1039 C   0  0  0  0  0  0  0  0  0  0  0  0
  1 23  1  0  0  0  0
  1 24  1  0  0  0  0
  1  2  1  0  0  0  0
  3  4  1  0  0  0  0
  3 17  1  0  0  0  0
  4  6  2  0  0  0  0
  4 13  1  0  0  0  0
  5 10  1  0  0  0  0
  5 14  2  0  0  0  0
  6  8  1  0  0  0  0
  7 12  1  0  0  0  0
  7 14  1  0  0  0  0
  7 19  1  0  0  0  0
  8 10  2  0  0  0  0
  9 14  1  0  0  0  0
 10 12  1  0  0  0  0
 11 18  1  0  0  0  0
 11 20  1  0  0  0  0
 11 21  1  0  0  0  0
 12 13  2  0  0  0  0
 13 15  1  0  0  0  0
 15 16  1  0  0  0  0
 16 17  1  0  0  0  0
 16 18  1  1  0  0  0
 19 22  1  0  0  0  0
 22 23  1  0  0  0  0
M  END
>  <CHROM.1>
-179.19744060,-106.51390996,132.36540754,170.89148251,-86.96223797,140.60442716
14.91025470,2.93306052,-3.27737923,2.57566788,-0.23374058,0.08656916

>  <Name>
ligand

>  <RI>
144

>  <Rbt.Current_Directory>
/home/itssahil/PROJECTS/Mol_Feturizer/New_Systems/rnas/3TZR

>  <Rbt.Executable>
rbdock ($Id: //depot/dev/client3/rdock/2013.1/src/exe/rbdock.cxx#4 $)

>  <Rbt.Library>
libRbt.so (2013.1, Build901 2013/11/27)

>  <Rbt.Parameter_File>
/export/apps/rDock/src/rDock_2013.1_src/data/scripts/dock_solv.prm

>  <Rbt.Receptor>
prm/blind_docking_20.prm

>  <SCORE>
-13.4088

>  <SCORE.INTER>
-8.88042

>  <SCORE.INTER.CONST>
1

>  <SCORE.INTER.POLAR>
0

>  <SCORE.INTER.ROT>
6

>  <SCORE.INTER.SOLV>
10.132

>  <SCORE.INTER.VDW>
-16.8976

>  <SCORE.INTER.norm>
-0.370018

>  <SCORE.INTRA>
-5.07711

>  <SCORE.INTRA.DIHEDRAL>
5.13631

>  <SCORE.INTRA.DIHEDRAL.0>
4.94008

>  <SCORE.INTRA.POLAR>
0

>  <SCORE.INTRA.POLAR.0>
0

>  <SCORE.INTRA.REPUL>
0

>  <SCORE.INTRA.REPUL.0>
0

>  <SCORE.INTRA.SOLV>
4.10263

>  <SCORE.INTRA.SOLV.lig_0>
-31.4704

>  <SCORE.INTRA.VDW>
-9.69658

>  <SCORE.INTRA.VDW.0>
10.2807

>  <SCORE.INTRA.norm>
-0.211546

>  <SCORE.RESTR>
0.548759

>  <SCORE.RESTR.CAVITY>
0.548759

>  <SCORE.RESTR.norm>
0.0228649

>  <SCORE.SYSTEM>
0

>  <SCORE.SYSTEM.CONST>
0

>  <SCORE.SYSTEM.DIHEDRAL>
0

>  <SCORE.SYSTEM.SOLV>
0

>  <SCORE.SYSTEM.norm>
0

>  <SCORE.heavy>
24

>  <SCORE.norm>
-0.558699

>  <RMSD>
15.239

$$$$
ligand
 OpenBabel11021811493D
libRbt.so/2013.1/901 2013/11/27
 24 26  0  0  0  0  0  0  0  0999 V2000
   10.2057    3.3450   -5.0996 N   0  0  0  0  0  0  0  0  0  0  0  0
   10.2027    3.3754   -6.5533 C   0  0  0  0  0  0  0  0  0  0  0  0
   18.0223    3.7771   -3.4197 O   0  0  0  0  0  0  0  0  0  0  0  0
   16.8550    4.4233   -3.0359 C   0  0  0  0  0  0  0  0  0  0  0  0
   13.1618    6.2604   -1.9204 N   0  0  0  0  0  0  0  0  0  0  0  0
   16.8319    5.9044   -2.7659 C   0  0  0  0  0  0  0  0  0  0  0  0
   13.1052    4.0450   -2.2870 N   0  0  0  0  0  0  0  0  0  0  0  0
   15.6353    6.5994   -2.3959 C   0  0  0  0  0  0  0  0  0  0  0  0
   10.9528    5.1437   -1.6264 N   0  0  0  0  0  0  0  0  0  0  0  0
   14.4394    5.8062   -2.2763 C   0  0  0  0  0  0  0  0  0  0  0  0
   16.3024   -0.6915   -3.2814 N   0  0  0  0  0  0  0  0  0  0  0  0
   14.4507    4.3880   -2.5164 C   0  0  0  0  0  0  0  0  0  0  0  0
   15.7154    3.7090   -2.9103 C   0  0  0  0  0  0  0  0  0  0  0  0
   12.3526    5.1618   -1.9393 C   0  0  0  0  0  0  0  0  0  0  0  0
   15.7054    2.2139   -3.1688 C   0  0  0  0  0  0  0  0  0  0  0  0
   17.0807    1.5763   -3.3340 C   0  0  1  0  0  0  0  0  0  0  0  0
   18.1973    2.4951   -2.9279 C   0  0  0  0  0  0  0  0  0  0  0  0
   17.1399    0.2608   -2.5725 C   0  0  0  0  0  0  0  0  0  0  0  0
   12.5479    2.6922   -2.4778 C   0  0  0  0  0  0  0  0  0  0  0  0
   17.0553   -1.9257   -3.4591 C   0  0  0  0  0  0  0  0  0  0  0  0
   15.1322   -0.9438   -2.4553 C   0  0  0  0  0  0  0  0  0  0  0  0
   12.1596    2.3354   -3.9230 C   0  0  0  0  0  0  0  0  0  0  0  0
   11.5617    3.5895   -4.5879 C   0  0  0  0  0  0  0  0  0  0  0  0
    9.2700    4.3575   -4.6235 C   0  0  0  0  0  0  0  0  0  0  0  0
  1 23  1  0  0  0  0
  1 24  1  0  0  0  0
  1  2  1  0  0  0  0
  3  4  1  0  0  0  0
  3 17  1  0  0  0  0
  4  6  2  0  0  0  0
  4 13  1  0  0  0  0
  5 10  1  0  0  0  0
  5 14  2  0  0  0  0
  6  8  1  0  0  0  0
  7 12  1  0  0  0  0
  7 14  1  0  0  0  0
  7 19  1  0  0  0  0
  8 10  2  0  0  0  0
  9 14  1  0  0  0  0
 10 12  1  0  0  0  0
 11 18  1  0  0  0  0
 11 20  1  0  0  0  0
 11 21  1  0  0  0  0
 12 13  2  0  0  0  0
 13 15  1  0  0  0  0
 15 16  1  0  0  0  0
 16 17  1  0  0  0  0
 16 18  1  1  0  0  0
 19 22  1  0  0  0  0
 22 23  1  0  0  0  0
M  END
>  <CHROM.1>
-111.58200614,-82.51213197,131.26724760,70.72929279,-37.59201755,-123.11329642
14.29707530,3.14728264,-3.18908345,2.67186596,-0.25107094,0.22206721

>  <Name>
ligand

>  <RI>
144

>  <Rbt.Current_Directory>
/home/itssahil/PROJECTS/Mol_Feturizer/New_Systems/rnas/3TZR

>  <Rbt.Executable>
rbdock ($Id: //depot/dev/client3/rdock/2013.1/src/exe/rbdock.cxx#4 $)

>  <Rbt.Library>
libRbt.so (2013.1, Build901 2013/11/27)

>  <Rbt.Parameter_File>
/export/apps/rDock/src/rDock_2013.1_src/data/scripts/dock_solv.prm

>  <Rbt.Receptor>
prm/blind_docking_20.prm

>  <SCORE>
-11.5394

>  <SCORE.INTER>
-5.4694

>  <SCORE.INTER.CONST>
1

>  <SCORE.INTER.POLAR>
0

>  <SCORE.INTER.ROT>
6

>  <SCORE.INTER.SOLV>
11.8969

>  <SCORE.INTER.VDW>
-15.2119

>  <SCORE.INTER.norm>
-0.227892

>  <SCORE.INTRA>
-6.06999

>  <SCORE.INTRA.DIHEDRAL>
8.26569

>  <SCORE.INTRA.DIHEDRAL.0>
4.94008

>  <SCORE.INTRA.POLAR>
0

>  <SCORE.INTRA.POLAR.0>
0

>  <SCORE.INTRA.REPUL>
0

>  <SCORE.INTRA.REPUL.0>
0

>  <SCORE.INTRA.SOLV>
2.9612

>  <SCORE.INTRA.SOLV.lig_0>
-31.4704

>  <SCORE.INTRA.VDW>
-11.6834

>  <SCORE.INTRA.VDW.0>
10.2807

>  <SCORE.INTRA.norm>
-0.252916

>  <SCORE.RESTR>
0

>  <SCORE.RESTR.CAVITY>
0

>  <SCORE.RESTR.norm>
0

>  <SCORE.SYSTEM>
0

>  <SCORE.SYSTEM.CONST>
0

>  <SCORE.SYSTEM.DIHEDRAL>
0

>  <SCORE.SYSTEM.SOLV>
0

>  <SCORE.SYSTEM.norm>
0

>  <SCORE.heavy>
24

>  <SCORE.norm>
-0.480808

>  <RMSD>
15.249

$$$$
ligand
 OpenBabel11021811493D
libRbt.so/2013.1/901 2013/11/27
 24 26  0  0  0  0  0  0  0  0999 V2000
   10.3286    3.2919   -5.0228 N   0  0  0  0  0  0  0  0  0  0  0  0
   10.1954    3.3981   -6.4668 C   0  0  0  0  0  0  0  0  0  0  0  0
   17.7332    4.0629   -3.3956 O   0  0  0  0  0  0  0  0  0  0  0  0
   16.5645    4.6528   -2.9328 C   0  0  0  0  0  0  0  0  0  0  0  0
   12.8690    6.3174   -1.5795 N   0  0  0  0  0  0  0  0  0  0  0  0
   16.5124    6.1150   -2.5777 C   0  0  0  0  0  0  0  0  0  0  0  0
   12.8575    4.1254   -2.0703 N   0  0  0  0  0  0  0  0  0  0  0  0
   15.3127    6.7535   -2.1249 C   0  0  0  0  0  0  0  0  0  0  0  0
   10.7033    5.1229   -1.2694 N   0  0  0  0  0  0  0  0  0  0  0  0
   14.1438    5.9208   -2.0074 C   0  0  0  0  0  0  0  0  0  0  0  0
   16.2493   -0.4825   -3.5277 N   0  0  0  0  0  0  0  0  0  0  0  0
   14.1836    4.5193   -2.3287 C   0  0  0  0  0  0  0  0  0  0  0  0
   15.4499    3.9001   -2.8069 C   0  0  0  0  0  0  0  0  0  0  0  0
   12.0892    5.1987   -1.6318 C   0  0  0  0  0  0  0  0  0  0  0  0
   15.4698    2.4223   -3.1501 C   0  0  0  0  0  0  0  0  0  0  0  0
   16.8543    1.8347   -3.4018 C   0  0  1  0  0  0  0  0  0  0  0  0
   17.9608    2.7609   -2.9848 C   0  0  0  0  0  0  0  0  0  0  0  0
   16.9775    0.4806   -2.7197 C   0  0  0  0  0  0  0  0  0  0  0  0
   12.3294    2.7700   -2.3177 C   0  0  0  0  0  0  0  0  0  0  0  0
   17.1568   -1.5638   -3.8867 C   0  0  0  0  0  0  0  0  0  0  0  0
   15.1622   -1.0027   -2.7134 C   0  0  0  0  0  0  0  0  0  0  0  0
   12.2793    2.3400   -3.7940 C   0  0  0  0  0  0  0  0  0  0  0  0
   11.7253    3.5143   -4.6224 C   0  0  0  0  0  0  0  0  0  0  0  0
    9.4403    4.2747   -4.4125 C   0  0  0  0  0  0  0  0  0  0  0  0
  1 23  1  0  0  0  0
  1 24  1  0  0  0  0
  1  2  1  0  0  0  0
  3  4  1  0  0  0  0
  3 17  1  0  0  0  0
  4  6  2  0  0  0  0
  4 13  1  0  0  0  0
  5 10  1  0  0  0  0
  5 14  2  0  0  0  0
  6  8  1  0  0  0  0
  7 12  1  0  0  0  0
  7 14  1  0  0  0  0
  7 19  1  0  0  0  0
  8 10  2  0  0  0  0
  9 14  1  0  0  0  0
 10 12  1  0  0  0  0
 11 18  1  0  0  0  0
 11 20  1  0  0  0  0
 11 21  1  0  0  0  0
 12 13  2  0  0  0  0
 13 15  1  0  0  0  0
 15 16  1  0  0  0  0
 16 17  1  0  0  0  0
 16 18  1  1  0  0  0
 19 22  1  0  0  0  0
 22 23  1  0  0  0  0
M  END
>  <CHROM.1>
-124.54302460,-65.51695769,123.97804485,76.40664108,-44.00631125,-104.28272716
14.15799960,3.26354799,-3.12114057,2.63924178,-0.22939171,0.32248234

>  <Name>
ligand

>  <RI>
144

>  <Rbt.Current_Directory>
/home/itssahil/PROJECTS/Mol_Feturizer/New_Systems/rnas/3TZR

>  <Rbt.Executable>
rbdock ($Id: //depot/dev/client3/rdock/2013.1/src/exe/rbdock.cxx#4 $)

>  <Rbt.Library>
libRbt.so (2013.1, Build901 2013/11/27)

>  <Rbt.Parameter_File>
/export/apps/rDock/src/rDock_2013.1_src/data/scripts/dock_solv.prm

>  <Rbt.Receptor>
prm/blind_docking_20.prm

>  <SCORE>
-12.1909

>  <SCORE.INTER>
-4.78027

>  <SCORE.INTER.CONST>
1

>  <SCORE.INTER.POLAR>
0

>  <SCORE.INTER.ROT>
6

>  <SCORE.INTER.SOLV>
12.287

>  <SCORE.INTER.VDW>
-14.8825

>  <SCORE.INTER.norm>
-0.199178

>  <SCORE.INTRA>
-7.41061

>  <SCORE.INTRA.DIHEDRAL>
7.44662

>  <SCORE.INTRA.DIHEDRAL.0>
4.94008

>  <SCORE.INTRA.POLAR>
0

>  <SCORE.INTRA.POLAR.0>
0

>  <SCORE.INTRA.REPUL>
0

>  <SCORE.INTRA.REPUL.0>
0

>  <SCORE.INTRA.SOLV>
2.10017

>  <SCORE.INTRA.SOLV.lig_0>
-31.4704

>  <SCORE.INTRA.VDW>
-12.184

>  <SCORE.INTRA.VDW.0>
10.2807

>  <SCORE.INTRA.norm>
-0.308775

>  <SCORE.RESTR>
0

>  <SCORE.RESTR.CAVITY>
0

>  <SCORE.RESTR.norm>
0

>  <SCORE.SYSTEM>
0

>  <SCORE.SYSTEM.CONST>
0

>  <SCORE.SYSTEM.DIHEDRAL>
0

>  <SCORE.SYSTEM.SOLV>
0

>  <SCORE.SYSTEM.norm>
0

>  <SCORE.heavy>
24

>  <SCORE.norm>
-0.507953

>  <RMSD>
15.329

$$$$
ligand
 OpenBabel11021811493D
libRbt.so/2013.1/901 2013/11/27
 24 26  0  0  0  0  0  0  0  0999 V2000
   11.2280    4.0440   -5.4083 N   0  0  0  0  0  0  0  0  0  0  0  0
   10.9850    5.4423   -5.0919 C   0  0  0  0  0  0  0  0  0  0  0  0
   18.0349    3.8739   -3.4723 O   0  0  0  0  0  0  0  0  0  0  0  0
   16.8558    4.4878   -3.0716 C   0  0  0  0  0  0  0  0  0  0  0  0
   13.1297    6.2226   -1.9032 N   0  0  0  0  0  0  0  0  0  0  0  0
   16.7961    5.9674   -2.7995 C   0  0  0  0  0  0  0  0  0  0  0  0
   13.1284    4.0068   -2.2717 N   0  0  0  0  0  0  0  0  0  0  0  0
   15.5862    6.6293   -2.4122 C   0  0  0  0  0  0  0  0  0  0  0  0
   10.9561    5.0458   -1.5801 N   0  0  0  0  0  0  0  0  0  0  0  0
   14.4142    5.8037   -2.2772 C   0  0  0  0  0  0  0  0  0  0  0  0
   16.4303   -0.6369   -3.3091 N   0  0  0  0  0  0  0  0  0  0  0  0
   14.4608    4.3865   -2.5191 C   0  0  0  0  0  0  0  0  0  0  0  0
   15.7379    3.7426   -2.9313 C   0  0  0  0  0  0  0  0  0  0  0  0
   12.3505    5.1023   -1.9122 C   0  0  0  0  0  0  0  0  0  0  0  0
   15.7651    2.2480   -3.1913 C   0  0  0  0  0  0  0  0  0  0  0  0
   17.1549    1.6483   -3.3762 C   0  0  1  0  0  0  0  0  0  0  0  0
   18.2516    2.5968   -2.9844 C   0  0  0  0  0  0  0  0  0  0  0  0
   17.2604    0.3342   -2.6172 C   0  0  0  0  0  0  0  0  0  0  0  0
   12.6056    2.6394   -2.4564 C   0  0  0  0  0  0  0  0  0  0  0  0
   17.1879   -1.8727   -3.4529 C   0  0  0  0  0  0  0  0  0  0  0  0
   15.2554   -0.8733   -2.4850 C   0  0  0  0  0  0  0  0  0  0  0  0
   12.1439    2.2958   -3.8831 C   0  0  0  0  0  0  0  0  0  0  0  0
   10.9490    3.2009   -4.2371 C   0  0  0  0  0  0  0  0  0  0  0  0
   10.3780    3.6806   -6.5364 C   0  0  0  0  0  0  0  0  0  0  0  0
  1 23  1  0  0  0  0
  1 24  1  0  0  0  0
  1  2  1  0  0  0  0
  3  4  1  0  0  0  0
  3 17  1  0  0  0  0
  4  6  2  0  0  0  0
  4 13  1  0  0  0  0
  5 10  1  0  0  0  0
  5 14  2  0  0  0  0
  6  8  1  0  0  0  0
  7 12  1  0  0  0  0
  7 14  1  0  0  0  0
  7 19  1  0  0  0  0
  8 10  2  0  0  0  0
  9 14  1  0  0  0  0
 10 12  1  0  0  0  0
 11 18  1  0  0  0  0
 11 20  1  0  0  0  0
 11 21  1  0  0  0  0
 12 13  2  0  0  0  0
 13 15  1  0  0  0  0
 15 16  1  0  0  0  0
 16 17  1  0  0  0  0
 16 18  1  1  0  0  0
 19 22  1  0  0  0  0
 22 23  1  0  0  0  0
M  END
>  <CHROM.1>
-126.31578959,-85.33612553,133.65856751,70.24554674,-63.98436743,119.71338967
14.43085194,3.24219596,-3.21685435,2.55933833,-0.25995214,0.19420565

>  <Name>
ligand

>  <RI>
144

>  <Rbt.Current_Directory>
/home/itssahil/PROJECTS/Mol_Feturizer/New_Systems/rnas/3TZR

>  <Rbt.Executable>
rbdock ($Id: //depot/dev/client3/rdock/2013.1/src/exe/rbdock.cxx#4 $)

>  <Rbt.Library>
libRbt.so (2013.1, Build901 2013/11/27)

>  <Rbt.Parameter_File>
/export/apps/rDock/src/rDock_2013.1_src/data/scripts/dock_solv.prm

>  <Rbt.Receptor>
prm/blind_docking_20.prm

>  <SCORE>
-9.50429

>  <SCORE.INTER>
-2.03982

>  <SCORE.INTER.CONST>
1

>  <SCORE.INTER.POLAR>
0

>  <SCORE.INTER.ROT>
6

>  <SCORE.INTER.SOLV>
11.1841

>  <SCORE.INTER.VDW>
-12.6879

>  <SCORE.INTER.norm>
-0.0849924

>  <SCORE.INTRA>
-7.46448

>  <SCORE.INTRA.DIHEDRAL>
6.59757

>  <SCORE.INTRA.DIHEDRAL.0>
4.94008

>  <SCORE.INTRA.POLAR>
0

>  <SCORE.INTRA.POLAR.0>
0

>  <SCORE.INTRA.REPUL>
0

>  <SCORE.INTRA.REPUL.0>
0

>  <SCORE.INTRA.SOLV>
3.24576

>  <SCORE.INTRA.SOLV.lig_0>
-31.4704

>  <SCORE.INTRA.VDW>
-12.3861

>  <SCORE.INTRA.VDW.0>
10.2807

>  <SCORE.INTRA.norm>
-0.31102

>  <SCORE.RESTR>
0

>  <SCORE.RESTR.CAVITY>
0

>  <SCORE.RESTR.norm>
0

>  <SCORE.SYSTEM>
0

>  <SCORE.SYSTEM.CONST>
0

>  <SCORE.SYSTEM.DIHEDRAL>
0

>  <SCORE.SYSTEM.SOLV>
0

>  <SCORE.SYSTEM.norm>
0

>  <SCORE.heavy>
24

>  <SCORE.norm>
-0.396012

>  <RMSD>
15.352

$$$$
ligand
 OpenBabel11021811493D
libRbt.so/2013.1/901 2013/11/27
 24 26  0  0  0  0  0  0  0  0999 V2000
   14.1175    6.2303   -0.1482 N   0  0  0  0  0  0  0  0  0  0  0  0
   14.5330    6.1046    1.2396 C   0  0  0  0  0  0  0  0  0  0  0  0
   16.0804   -0.8060   -1.7988 O   0  0  0  0  0  0  0  0  0  0  0  0
   15.0532    0.0479   -2.1777 C   0  0  0  0  0  0  0  0  0  0  0  0
   12.0100    2.8256   -3.3101 N   0  0  0  0  0  0  0  0  0  0  0  0
   13.6227   -0.4195   -2.2238 C   0  0  0  0  0  0  0  0  0  0  0  0
   14.1163    3.6059   -3.2855 N   0  0  0  0  0  0  0  0  0  0  0  0
   12.5419    0.4488   -2.5842 C   0  0  0  0  0  0  0  0  0  0  0  0
   12.3152    5.2149   -3.9516 N   0  0  0  0  0  0  0  0  0  0  0  0
   12.8890    1.8052   -2.9207 C   0  0  0  0  0  0  0  0  0  0  0  0
   18.4874    0.9461   -4.5909 N   0  0  0  0  0  0  0  0  0  0  0  0
   14.2531    2.2606   -2.8957 C   0  0  0  0  0  0  0  0  0  0  0  0
   15.3435    1.3262   -2.5036 C   0  0  0  0  0  0  0  0  0  0  0  0
   12.7845    3.9287   -3.5237 C   0  0  0  0  0  0  0  0  0  0  0  0
   16.7752    1.8277   -2.4738 C   0  0  0  0  0  0  0  0  0  0  0  0
   17.8359    0.7473   -2.2915 C   0  0  1  0  0  0  0  0  0  0  0  0
   17.2846   -0.6396   -2.4607 C   0  0  0  0  0  0  0  0  0  0  0  0
   19.0033    0.9991   -3.2338 C   0  0  0  0  0  0  0  0  0  0  0  0
   15.2305    4.5713   -3.3468 C   0  0  0  0  0  0  0  0  0  0  0  0
   19.0423    2.0656   -5.3397 C   0  0  0  0  0  0  0  0  0  0  0  0
   18.9324   -0.3076   -5.1789 C   0  0  0  0  0  0  0  0  0  0  0  0
   15.1236    5.7654   -2.3827 C   0  0  0  0  0  0  0  0  0  0  0  0
   14.7995    5.2260   -0.9769 C   0  0  0  0  0  0  0  0  0  0  0  0
   12.6692    6.0672   -0.2040 C   0  0  0  0  0  0  0  0  0  0  0  0
  1 23  1  0  0  0  0
  1 24  1  0  0  0  0
  1  2  1  0  0  0  0
  3  4  1  0  0  0  0
  3 17  1  0  0  0  0
  4  6  2  0  0  0  0
  4 13  1  0  0  0  0
  5 10  1  0  0  0  0
  5 14  2  0  0  0  0
  6  8  1  0  0  0  0
  7 12  1  0  0  0  0
  7 14  1  0  0  0  0
  7 19  1  0  0  0  0
  8 10  2  0  0  0  0
  9 14  1  0  0  0  0
 10 12  1  0  0  0  0
 11 18  1  0  0  0  0
 11 20  1  0  0  0  0
 11 21  1  0  0  0  0
 12 13  2  0  0  0  0
 13 15  1  0  0  0  0
 15 16  1  0  0  0  0
 16 17  1  0  0  0  0
 16 18  1  6  0  0  0
 19 22  1  0  0  0  0
 22 23  1  0  0  0  0
M  END
>  <CHROM.1>
-144.89081834,-116.52895272,135.27603073,-60.92246108,49.11373402,-155.05007345
15.27389332,2.54028179,-2.59630107,-2.25942554,-0.17462263,-2.85419003

>  <Name>
ligand

>  <RI>
144

>  <Rbt.Current_Directory>
/home/itssahil/PROJECTS/Mol_Feturizer/New_Systems/rnas/3TZR

>  <Rbt.Executable>
rbdock ($Id: //depot/dev/client3/rdock/2013.1/src/exe/rbdock.cxx#4 $)

>  <Rbt.Library>
libRbt.so (2013.1, Build901 2013/11/27)

>  <Rbt.Parameter_File>
/export/apps/rDock/src/rDock_2013.1_src/data/scripts/dock_solv.prm

>  <Rbt.Receptor>
prm/blind_docking_60.prm

>  <SCORE>
-17.0072

>  <SCORE.INTER>
-8.2913

>  <SCORE.INTER.CONST>
1

>  <SCORE.INTER.POLAR>
0

>  <SCORE.INTER.ROT>
6

>  <SCORE.INTER.SOLV>
12.3767

>  <SCORE.INTER.VDW>
-17.2531

>  <SCORE.INTER.norm>
-0.345471

>  <SCORE.INTRA>
-8.72059

>  <SCORE.INTRA.DIHEDRAL>
2.39479

>  <SCORE.INTRA.DIHEDRAL.0>
4.94008

>  <SCORE.INTRA.POLAR>
0

>  <SCORE.INTRA.POLAR.0>
0

>  <SCORE.INTRA.REPUL>
0

>  <SCORE.INTRA.REPUL.0>
0

>  <SCORE.INTRA.SOLV>
2.59809

>  <SCORE.INTRA.SOLV.lig_0>
-31.4704

>  <SCORE.INTRA.VDW>
-11.217

>  <SCORE.INTRA.VDW.0>
10.2807

>  <SCORE.INTRA.norm>
-0.363358

>  <SCORE.RESTR>
0.00466285

>  <SCORE.RESTR.CAVITY>
0.00466285

>  <SCORE.RESTR.norm>
0.000194285

>  <SCORE.SYSTEM>
0

>  <SCORE.SYSTEM.CONST>
0

>  <SCORE.SYSTEM.DIHEDRAL>
0

>  <SCORE.SYSTEM.SOLV>
0

>  <SCORE.SYSTEM.norm>
0

>  <SCORE.heavy>
24

>  <SCORE.norm>
-0.708634

>  <RMSD>
15.686

$$$$
ligand
 OpenBabel11021811493D
libRbt.so/2013.1/901 2013/11/27
 24 26  0  0  0  0  0  0  0  0999 V2000
   10.1456    4.2295   -5.1332 N   0  0  0  0  0  0  0  0  0  0  0  0
    8.8708    4.8069   -4.7383 C   0  0  0  0  0  0  0  0  0  0  0  0
   18.3284    4.1466   -2.5650 O   0  0  0  0  0  0  0  0  0  0  0  0
   17.3305    5.0278   -2.9592 C   0  0  0  0  0  0  0  0  0  0  0  0
   14.1642    7.5901   -4.2507 N   0  0  0  0  0  0  0  0  0  0  0  0
   17.5752    6.5121   -3.0201 C   0  0  0  0  0  0  0  0  0  0  0  0
   13.7037    5.3929   -4.1747 N   0  0  0  0  0  0  0  0  0  0  0  0
   16.5715    7.4394   -3.4500 C   0  0  0  0  0  0  0  0  0  0  0  0
   11.8608    6.9158   -4.9238 N   0  0  0  0  0  0  0  0  0  0  0  0
   15.2933    6.8841   -3.8125 C   0  0  0  0  0  0  0  0  0  0  0  0
   15.8787    0.0525   -2.4741 N   0  0  0  0  0  0  0  0  0  0  0  0
   15.0413    5.4696   -3.7442 C   0  0  0  0  0  0  0  0  0  0  0  0
   16.1180    4.5414   -3.3026 C   0  0  0  0  0  0  0  0  0  0  0  0
   13.1977    6.6531   -4.4751 C   0  0  0  0  0  0  0  0  0  0  0  0
   15.8361    3.0516   -3.2463 C   0  0  0  0  0  0  0  0  0  0  0  0
   16.9128    2.2145   -2.5640 C   0  0  1  0  0  0  0  0  0  0  0  0
   17.9156    3.0527   -1.8240 C   0  0  0  0  0  0  0  0  0  0  0  0
   16.2692    1.1831   -1.6495 C   0  0  0  0  0  0  0  0  0  0  0  0
   12.9633    4.1311   -4.3675 C   0  0  0  0  0  0  0  0  0  0  0  0
   16.8269   -1.0306   -2.2515 C   0  0  0  0  0  0  0  0  0  0  0  0
   14.5509   -0.3609   -2.0482 C   0  0  0  0  0  0  0  0  0  0  0  0
   11.8455    3.8585   -3.3461 C   0  0  0  0  0  0  0  0  0  0  0  0
   10.6250    3.2994   -4.1010 C   0  0  0  0  0  0  0  0  0  0  0  0
    9.9592    3.5514   -6.4111 C   0  0  0  0  0  0  0  0  0  0  0  0
  1 23  1  0  0  0  0
  1 24  1  0  0  0  0
  1  2  1  0  0  0  0
  3  4  1  0  0  0  0
  3 17  1  0  0  0  0
  4  6  2  0  0  0  0
  4 13  1  0  0  0  0
  5 10  1  0  0  0  0
  5 14  2  0  0  0  0
  6  8  1  0  0  0  0
  7 12  1  0  0  0  0
  7 14  1  0  0  0  0
  7 19  1  0  0  0  0
  8 10  2  0  0  0  0
  9 14  1  0  0  0  0
 10 12  1  0  0  0  0
 11 18  1  0  0  0  0
 11 20  1  0  0  0  0
 11 21  1  0  0  0  0
 12 13  2  0  0  0  0
 13 15  1  0  0  0  0
 15 16  1  0  0  0  0
 16 17  1  0  0  0  0
 16 18  1  1  0  0  0
 19 22  1  0  0  0  0
 22 23  1  0  0  0  0
M  END
>  <CHROM.1>
-109.33823413,110.00051200,104.43662614,82.34723444,137.99062277,-58.61156672
14.42354394,4.00078872,-3.53554739,2.64128625,-0.30357284,-0.20731852

>  <Name>
ligand

>  <RI>
144

>  <Rbt.Current_Directory>
/home/itssahil/PROJECTS/Mol_Feturizer/New_Systems/rnas/3TZR

>  <Rbt.Executable>
rbdock ($Id: //depot/dev/client3/rdock/2013.1/src/exe/rbdock.cxx#4 $)

>  <Rbt.Library>
libRbt.so (2013.1, Build901 2013/11/27)

>  <Rbt.Parameter_File>
/export/apps/rDock/src/rDock_2013.1_src/data/scripts/dock_solv.prm

>  <Rbt.Receptor>
prm/blind_docking_20.prm

>  <SCORE>
-12.2805

>  <SCORE.INTER>
-6.01526

>  <SCORE.INTER.CONST>
1

>  <SCORE.INTER.POLAR>
0

>  <SCORE.INTER.ROT>
6

>  <SCORE.INTER.SOLV>
14.9969

>  <SCORE.INTER.VDW>
-16.6091

>  <SCORE.INTER.norm>
-0.250636

>  <SCORE.INTRA>
-6.74

>  <SCORE.INTRA.DIHEDRAL>
6.54543

>  <SCORE.INTRA.DIHEDRAL.0>
4.94008

>  <SCORE.INTRA.POLAR>
0

>  <SCORE.INTRA.POLAR.0>
0

>  <SCORE.INTRA.REPUL>
0

>  <SCORE.INTRA.REPUL.0>
0

>  <SCORE.INTRA.SOLV>
4.22715

>  <SCORE.INTRA.SOLV.lig_0>
-31.4704

>  <SCORE.INTRA.VDW>
-12.1263

>  <SCORE.INTRA.VDW.0>
10.2807

>  <SCORE.INTRA.norm>
-0.280833

>  <SCORE.RESTR>
0.474796

>  <SCORE.RESTR.CAVITY>
0.474796

>  <SCORE.RESTR.norm>
0.0197832

>  <SCORE.SYSTEM>
0

>  <SCORE.SYSTEM.CONST>
0

>  <SCORE.SYSTEM.DIHEDRAL>
0

>  <SCORE.SYSTEM.SOLV>
0

>  <SCORE.SYSTEM.norm>
0

>  <SCORE.heavy>
24

>  <SCORE.norm>
-0.511686

>  <RMSD>
15.760

$$$$
ligand
 OpenBabel11021811493D
libRbt.so/2013.1/901 2013/11/27
 24 26  0  0  0  0  0  0  0  0999 V2000
   10.2908    3.4323   -1.2795 N   0  0  0  0  0  0  0  0  0  0  0  0
    9.5599    4.6778   -1.1098 C   0  0  0  0  0  0  0  0  0  0  0  0
   18.1225    4.2513   -2.6429 O   0  0  0  0  0  0  0  0  0  0  0  0
   17.0227    5.0166   -3.0068 C   0  0  0  0  0  0  0  0  0  0  0  0
   13.5560    7.2120   -4.1990 N   0  0  0  0  0  0  0  0  0  0  0  0
   17.1080    6.5170   -3.0980 C   0  0  0  0  0  0  0  0  0  0  0  0
   13.3316    4.9805   -4.0741 N   0  0  0  0  0  0  0  0  0  0  0  0
   15.9961    7.3269   -3.4979 C   0  0  0  0  0  0  0  0  0  0  0  0
   11.3107    6.2897   -4.7658 N   0  0  0  0  0  0  0  0  0  0  0  0
   14.7696    6.6353   -3.7990 C   0  0  0  0  0  0  0  0  0  0  0  0
   16.0797   -0.0587   -2.3989 N   0  0  0  0  0  0  0  0  0  0  0  0
   14.6701    5.2037   -3.7010 C   0  0  0  0  0  0  0  0  0  0  0  0
   15.8549    4.4006   -3.2925 C   0  0  0  0  0  0  0  0  0  0  0  0
   12.6847    6.1757   -4.3700 C   0  0  0  0  0  0  0  0  0  0  0  0
   15.7332    2.8908   -3.2042 C   0  0  0  0  0  0  0  0  0  0  0  0
   16.9182    2.1826   -2.5564 C   0  0  1  0  0  0  0  0  0  0  0  0
   17.8567    3.1338   -1.8706 C   0  0  0  0  0  0  0  0  0  0  0  0
   16.4236    1.1063   -1.6019 C   0  0  0  0  0  0  0  0  0  0  0  0
   12.7203    3.6453   -4.2185 C   0  0  0  0  0  0  0  0  0  0  0  0
   17.0711   -1.0967   -2.1509 C   0  0  0  0  0  0  0  0  0  0  0  0
   14.7696   -0.5155   -1.9622 C   0  0  0  0  0  0  0  0  0  0  0  0
   11.3530    3.4675   -3.5360 C   0  0  0  0  0  0  0  0  0  0  0  0
   11.5378    3.6704   -2.0204 C   0  0  0  0  0  0  0  0  0  0  0  0
   10.5588    2.8805    0.0438 C   0  0  0  0  0  0  0  0  0  0  0  0
  1 23  1  0  0  0  0
  1 24  1  0  0  0  0
  1  2  1  0  0  0  0
  3  4  1  0  0  0  0
  3 17  1  0  0  0  0
  4  6  2  0  0  0  0
  4 13  1  0  0  0  0
  5 10  1  0  0  0  0
  5 14  2  0  0  0  0
  6  8  1  0  0  0  0
  7 12  1  0  0  0  0
  7 14  1  0  0  0  0
  7 19  1  0  0  0  0
  8 10  2  0  0  0  0
  9 14  1  0  0  0  0
 10 12  1  0  0  0  0
 11 18  1  0  0  0  0
 11 20  1  0  0  0  0
 11 21  1  0  0  0  0
 12 13  2  0  0  0  0
 13 15  1  0  0  0  0
 15 16  1  0  0  0  0
 16 17  1  0  0  0  0
 16 18  1  1  0  0  0
 19 22  1  0  0  0  0
 22 23  1  0  0  0  0
M  END
>  <CHROM.1>
-92.50970428,132.50102132,109.00140285,80.53478366,-62.16126519,-176.33814905
14.33991000,3.78401072,-2.79695478,2.57213724,0.12452831,-0.35402510

>  <Name>
ligand

>  <RI>
144

>  <Rbt.Current_Directory>
/home/itssahil/PROJECTS/Mol_Feturizer/New_Systems/rnas/3TZR

>  <Rbt.Executable>
rbdock ($Id: //depot/dev/client3/rdock/2013.1/src/exe/rbdock.cxx#4 $)

>  <Rbt.Library>
libRbt.so (2013.1, Build901 2013/11/27)

>  <Rbt.Parameter_File>
/export/apps/rDock/src/rDock_2013.1_src/data/scripts/dock_solv.prm

>  <Rbt.Receptor>
prm/blind_docking_20.prm

>  <SCORE>
-16.6181

>  <SCORE.INTER>
-6.6161

>  <SCORE.INTER.CONST>
1

>  <SCORE.INTER.POLAR>
0

>  <SCORE.INTER.ROT>
6

>  <SCORE.INTER.SOLV>
13.4537

>  <SCORE.INTER.VDW>
-16.4953

>  <SCORE.INTER.norm>
-0.275671

>  <SCORE.INTRA>
-10.086

>  <SCORE.INTRA.DIHEDRAL>
1.18751

>  <SCORE.INTRA.DIHEDRAL.0>
4.94008

>  <SCORE.INTRA.POLAR>
0

>  <SCORE.INTRA.POLAR.0>
0

>  <SCORE.INTRA.REPUL>
0

>  <SCORE.INTRA.REPUL.0>
0

>  <SCORE.INTRA.SOLV>
1.9905

>  <SCORE.INTRA.SOLV.lig_0>
-31.4704

>  <SCORE.INTRA.VDW>
-11.675

>  <SCORE.INTRA.VDW.0>
10.2807

>  <SCORE.INTRA.norm>
-0.42025

>  <SCORE.RESTR>
0.0840272

>  <SCORE.RESTR.CAVITY>
0.0840272

>  <SCORE.RESTR.norm>
0.00350113

>  <SCORE.SYSTEM>
0

>  <SCORE.SYSTEM.CONST>
0

>  <SCORE.SYSTEM.DIHEDRAL>
0

>  <SCORE.SYSTEM.SOLV>
0

>  <SCORE.SYSTEM.norm>
0

>  <SCORE.heavy>
24

>  <SCORE.norm>
-0.69242

>  <RMSD>
15.824

$$$$
ligand
 OpenBabel11021811493D
libRbt.so/2013.1/901 2013/11/27
 24 26  0  0  0  0  0  0  0  0999 V2000
   11.4611    3.5168   -0.3928 N   0  0  0  0  0  0  0  0  0  0  0  0
   10.4584    2.5691    0.0665 C   0  0  0  0  0  0  0  0  0  0  0  0
   18.2279    4.2860   -2.9169 O   0  0  0  0  0  0  0  0  0  0  0  0
   17.0587    4.9812   -3.1953 C   0  0  0  0  0  0  0  0  0  0  0  0
   13.3808    6.9543   -4.1109 N   0  0  0  0  0  0  0  0  0  0  0  0
   17.0544    6.4796   -3.3421 C   0  0  0  0  0  0  0  0  0  0  0  0
   13.2893    4.7205   -3.8938 N   0  0  0  0  0  0  0  0  0  0  0  0
   15.8674    7.2174   -3.6566 C   0  0  0  0  0  0  0  0  0  0  0  0
   11.1440    5.9002   -4.4252 N   0  0  0  0  0  0  0  0  0  0  0  0
   14.6564    6.4544   -3.8138 C   0  0  0  0  0  0  0  0  0  0  0  0
   16.4752   -0.1161   -2.3363 N   0  0  0  0  0  0  0  0  0  0  0  0
   14.6436    5.0242   -3.6611 C   0  0  0  0  0  0  0  0  0  0  0  0
   15.9036    4.2973   -3.3454 C   0  0  0  0  0  0  0  0  0  0  0  0
   12.5539    5.8700   -4.1626 C   0  0  0  0  0  0  0  0  0  0  0  0
   15.8720    2.7875   -3.1977 C   0  0  0  0  0  0  0  0  0  0  0  0
   17.1501    2.1641   -2.6470 C   0  0  1  0  0  0  0  0  0  0  0  0
   18.0980    3.1858   -2.0871 C   0  0  0  0  0  0  0  0  0  0  0  0
   16.8080    1.1002   -1.6149 C   0  0  0  0  0  0  0  0  0  0  0  0
   12.7393    3.3519   -3.9350 C   0  0  0  0  0  0  0  0  0  0  0  0
   17.4542   -1.1388   -1.9935 C   0  0  0  0  0  0  0  0  0  0  0  0
   15.1527   -0.5353   -1.8994 C   0  0  0  0  0  0  0  0  0  0  0  0
   12.3999    2.7348   -2.5672 C   0  0  0  0  0  0  0  0  0  0  0  0
   11.3954    3.6594   -1.8542 C   0  0  0  0  0  0  0  0  0  0  0  0
   11.2193    4.7909    0.2746 C   0  0  0  0  0  0  0  0  0  0  0  0
  1 23  1  0  0  0  0
  1 24  1  0  0  0  0
  1  2  1  0  0  0  0
  3  4  1  0  0  0  0
  3 17  1  0  0  0  0
  4  6  2  0  0  0  0
  4 13  1  0  0  0  0
  5 10  1  0  0  0  0
  5 14  2  0  0  0  0
  6  8  1  0  0  0  0
  7 12  1  0  0  0  0
  7 14  1  0  0  0  0
  7 19  1  0  0  0  0
  8 10  2  0  0  0  0
  9 14  1  0  0  0  0
 10 12  1  0  0  0  0
 11 18  1  0  0  0  0
 11 20  1  0  0  0  0
 11 21  1  0  0  0  0
 12 13  2  0  0  0  0
 13 15  1  0  0  0  0
 15 16  1  0  0  0  0
 16 17  1  0  0  0  0
 16 18  1  1  0  0  0
 19 22  1  0  0  0  0
 22 23  1  0  0  0  0
M  END
>  <CHROM.1>
-94.97490003,83.06464026,116.55221081,81.54139899,57.40778932,-154.61943281
14.57040516,3.65358323,-2.63646112,2.53153599,0.23122235,-0.39807891

>  <Name>
ligand

>  <RI>
144

>  <Rbt.Current_Directory>
/home/itssahil/PROJECTS/Mol_Feturizer/New_Systems/rnas/3TZR

>  <Rbt.Executable>
rbdock ($Id: //depot/dev/client3/rdock/2013.1/src/exe/rbdock.cxx#4 $)

>  <Rbt.Library>
libRbt.so (2013.1, Build901 2013/11/27)

>  <Rbt.Parameter_File>
/export/apps/rDock/src/rDock_2013.1_src/data/scripts/dock_solv.prm

>  <Rbt.Receptor>
prm/blind_docking_20.prm

>  <SCORE>
-16.5687

>  <SCORE.INTER>
-7.20741

>  <SCORE.INTER.CONST>
1

>  <SCORE.INTER.POLAR>
0

>  <SCORE.INTER.ROT>
6

>  <SCORE.INTER.SOLV>
12.6563

>  <SCORE.INTER.VDW>
-16.6237

>  <SCORE.INTER.norm>
-0.300309

>  <SCORE.INTRA>
-9.66405

>  <SCORE.INTRA.DIHEDRAL>
3.89155

>  <SCORE.INTRA.DIHEDRAL.0>
4.94008

>  <SCORE.INTRA.POLAR>
0

>  <SCORE.INTRA.POLAR.0>
0

>  <SCORE.INTRA.REPUL>
0

>  <SCORE.INTRA.REPUL.0>
0

>  <SCORE.INTRA.SOLV>
1.10835

>  <SCORE.INTRA.SOLV.lig_0>
-31.4704

>  <SCORE.INTRA.VDW>
-12.164

>  <SCORE.INTRA.VDW.0>
10.2807

>  <SCORE.INTRA.norm>
-0.402669

>  <SCORE.RESTR>
0.302713

>  <SCORE.RESTR.CAVITY>
0.302713

>  <SCORE.RESTR.norm>
0.012613

>  <SCORE.SYSTEM>
0

>  <SCORE.SYSTEM.CONST>
0

>  <SCORE.SYSTEM.DIHEDRAL>
0

>  <SCORE.SYSTEM.SOLV>
0

>  <SCORE.SYSTEM.norm>
0

>  <SCORE.heavy>
24

>  <SCORE.norm>
-0.690364

>  <RMSD>
15.851

$$$$
ligand
 OpenBabel11021811493D
libRbt.so/2013.1/901 2013/11/27
 24 26  0  0  0  0  0  0  0  0999 V2000
   10.7748    3.6381   -0.5966 N   0  0  0  0  0  0  0  0  0  0  0  0
    9.4247    4.1020   -0.3201 C   0  0  0  0  0  0  0  0  0  0  0  0
   18.2215    4.2497   -3.0633 O   0  0  0  0  0  0  0  0  0  0  0  0
   17.0641    4.9724   -3.3202 C   0  0  0  0  0  0  0  0  0  0  0  0
   13.4161    7.0315   -4.1638 N   0  0  0  0  0  0  0  0  0  0  0  0
   17.0971    6.4672   -3.4973 C   0  0  0  0  0  0  0  0  0  0  0  0
   13.2691    4.8058   -3.8985 N   0  0  0  0  0  0  0  0  0  0  0  0
   15.9220    7.2323   -3.7906 C   0  0  0  0  0  0  0  0  0  0  0  0
   11.1421    6.0356   -4.3885 N   0  0  0  0  0  0  0  0  0  0  0  0
   14.6859    6.5012   -3.8954 C   0  0  0  0  0  0  0  0  0  0  0  0
   16.4272   -0.1073   -2.3386 N   0  0  0  0  0  0  0  0  0  0  0  0
   14.6379    5.0752   -3.7132 C   0  0  0  0  0  0  0  0  0  0  0  0
   15.8862    4.3189   -3.4212 C   0  0  0  0  0  0  0  0  0  0  0  0
   12.5581    5.9703   -4.1683 C   0  0  0  0  0  0  0  0  0  0  0  0
   15.8170    2.8139   -3.2418 C   0  0  0  0  0  0  0  0  0  0  0  0
   17.0936    2.1651   -2.7176 C   0  0  1  0  0  0  0  0  0  0  0  0
   18.0865    3.1700   -2.2076 C   0  0  0  0  0  0  0  0  0  0  0  0
   16.7541    1.1317   -1.6541 C   0  0  0  0  0  0  0  0  0  0  0  0
   12.6801    3.4529   -3.8951 C   0  0  0  0  0  0  0  0  0  0  0  0
   17.4166   -1.1118   -1.9728 C   0  0  0  0  0  0  0  0  0  0  0  0
   15.1107   -0.5245   -1.8821 C   0  0  0  0  0  0  0  0  0  0  0  0
   12.1971    2.9461   -2.5252 C   0  0  0  0  0  0  0  0  0  0  0  0
   11.1373    3.9279   -1.9913 C   0  0  0  0  0  0  0  0  0  0  0  0
   11.6810    4.3009    0.3343 C   0  0  0  0  0  0  0  0  0  0  0  0
  1 23  1  0  0  0  0
  1 24  1  0  0  0  0
  1  2  1  0  0  0  0
  3  4  1  0  0  0  0
  3 17  1  0  0  0  0
  4  6  2  0  0  0  0
  4 13  1  0  0  0  0
  5 10  1  0  0  0  0
  5 14  2  0  0  0  0
  6  8  1  0  0  0  0
  7 12  1  0  0  0  0
  7 14  1  0  0  0  0
  7 19  1  0  0  0  0
  8 10  2  0  0  0  0
  9 14  1  0  0  0  0
 10 12  1  0  0  0  0
 11 18  1  0  0  0  0
 11 20  1  0  0  0  0
 11 21  1  0  0  0  0
 12 13  2  0  0  0  0
 13 15  1  0  0  0  0
 15 16  1  0  0  0  0
 16 17  1  0  0  0  0
 16 18  1  1  0  0  0
 19 22  1  0  0  0  0
 22 23  1  0  0  0  0
M  END
>  <CHROM.1>
-153.50249477,90.70947530,116.04844628,84.21893216,58.79577413,-171.02438900
14.48380531,3.75430335,-2.70357201,2.62505113,0.24002993,-0.40022613

>  <Name>
ligand

>  <RI>
144

>  <Rbt.Current_Directory>
/home/itssahil/PROJECTS/Mol_Feturizer/New_Systems/rnas/3TZR

>  <Rbt.Executable>
rbdock ($Id: //depot/dev/client3/rdock/2013.1/src/exe/rbdock.cxx#4 $)

>  <Rbt.Library>
libRbt.so (2013.1, Build901 2013/11/27)

>  <Rbt.Parameter_File>
/export/apps/rDock/src/rDock_2013.1_src/data/scripts/dock_solv.prm

>  <Rbt.Receptor>
prm/blind_docking_20.prm

>  <SCORE>
-16.5915

>  <SCORE.INTER>
-6.6277

>  <SCORE.INTER.CONST>
1

>  <SCORE.INTER.POLAR>
0

>  <SCORE.INTER.ROT>
6

>  <SCORE.INTER.SOLV>
11.7994

>  <SCORE.INTER.VDW>
-15.9516

>  <SCORE.INTER.norm>
-0.276154

>  <SCORE.INTRA>
-10.2702

>  <SCORE.INTRA.DIHEDRAL>
1.88729

>  <SCORE.INTRA.DIHEDRAL.0>
4.94008

>  <SCORE.INTRA.POLAR>
0

>  <SCORE.INTRA.POLAR.0>
0

>  <SCORE.INTRA.REPUL>
0

>  <SCORE.INTRA.REPUL.0>
0

>  <SCORE.INTRA.SOLV>
1.47441

>  <SCORE.INTRA.SOLV.lig_0>
-31.4704

>  <SCORE.INTRA.VDW>
-11.9511

>  <SCORE.INTRA.VDW.0>
10.2807

>  <SCORE.INTRA.norm>
-0.427925

>  <SCORE.RESTR>
0.306375

>  <SCORE.RESTR.CAVITY>
0.306375

>  <SCORE.RESTR.norm>
0.0127656

>  <SCORE.SYSTEM>
0

>  <SCORE.SYSTEM.CONST>
0

>  <SCORE.SYSTEM.DIHEDRAL>
0

>  <SCORE.SYSTEM.SOLV>
0

>  <SCORE.SYSTEM.norm>
0

>  <SCORE.heavy>
24

>  <SCORE.norm>
-0.691314

>  <RMSD>
15.872

$$$$
ligand
 OpenBabel11021811493D
libRbt.so/2013.1/901 2013/11/27
 24 26  0  0  0  0  0  0  0  0999 V2000
   10.4617    4.1732   -3.2717 N   0  0  0  0  0  0  0  0  0  0  0  0
    9.7363    4.0835   -4.5288 C   0  0  0  0  0  0  0  0  0  0  0  0
   18.3491    2.6525   -2.3385 O   0  0  0  0  0  0  0  0  0  0  0  0
   17.3282    1.7116   -2.3243 C   0  0  0  0  0  0  0  0  0  0  0  0
   14.0628   -1.0430   -2.2328 N   0  0  0  0  0  0  0  0  0  0  0  0
   17.6226    0.2375   -2.2384 C   0  0  0  0  0  0  0  0  0  0  0  0
   13.5298    1.1342   -2.3786 N   0  0  0  0  0  0  0  0  0  0  0  0
   16.5872   -0.7515   -2.1941 C   0  0  0  0  0  0  0  0  0  0  0  0
   11.6318   -0.5004   -2.3289 N   0  0  0  0  0  0  0  0  0  0  0  0
   15.2317   -0.2692   -2.2516 C   0  0  0  0  0  0  0  0  0  0  0  0
   15.5092    6.4173   -3.1939 N   0  0  0  0  0  0  0  0  0  0  0  0
   14.9368    1.1353   -2.3492 C   0  0  0  0  0  0  0  0  0  0  0  0
   16.0447    2.1289   -2.3806 C   0  0  0  0  0  0  0  0  0  0  0  0
   13.0251   -0.1598   -2.3050 C   0  0  0  0  0  0  0  0  0  0  0  0
   15.7136    3.6066   -2.4741 C   0  0  0  0  0  0  0  0  0  0  0  0
   16.9050    4.5217   -2.7360 C   0  0  1  0  0  0  0  0  0  0  0  0
   18.1395    3.7649   -3.1351 C   0  0  0  0  0  0  0  0  0  0  0  0
   16.5377    5.5711   -3.7742 C   0  0  0  0  0  0  0  0  0  0  0  0
   12.6975    2.3525   -2.3953 C   0  0  0  0  0  0  0  0  0  0  0  0
   16.1426    7.6186   -2.6672 C   0  0  0  0  0  0  0  0  0  0  0  0
   14.5854    6.7750   -4.2589 C   0  0  0  0  0  0  0  0  0  0  0  0
   12.6757    3.1194   -3.7288 C   0  0  0  0  0  0  0  0  0  0  0  0
   11.8875    4.4266   -3.5234 C   0  0  0  0  0  0  0  0  0  0  0  0
    9.8657    5.2436   -2.4802 C   0  0  0  0  0  0  0  0  0  0  0  0
  1 23  1  0  0  0  0
  1 24  1  0  0  0  0
  1  2  1  0  0  0  0
  3  4  1  0  0  0  0
  3 17  1  0  0  0  0
  4  6  2  0  0  0  0
  4 13  1  0  0  0  0
  5 10  1  0  0  0  0
  5 14  2  0  0  0  0
  6  8  1  0  0  0  0
  7 12  1  0  0  0  0
  7 14  1  0  0  0  0
  7 19  1  0  0  0  0
  8 10  2  0  0  0  0
  9 14  1  0  0  0  0
 10 12  1  0  0  0  0
 11 18  1  0  0  0  0
 11 20  1  0  0  0  0
 11 21  1  0  0  0  0
 12 13  2  0  0  0  0
 13 15  1  0  0  0  0
 15 16  1  0  0  0  0
 16 17  1  0  0  0  0
 16 18  1  6  0  0  0
 19 22  1  0  0  0  0
 22 23  1  0  0  0  0
M  END
>  <CHROM.1>
-87.26419536,73.64717601,97.74892072,65.26457495,-174.14922923,-67.43383702
14.48722612,2.96056502,-2.84018708,2.59949091,-0.08100910,-0.17583974

>  <Name>
ligand

>  <RI>
144

>  <Rbt.Current_Directory>
/home/itssahil/PROJECTS/Mol_Feturizer/New_Systems/rnas/3TZR

>  <Rbt.Executable>
rbdock ($Id: //depot/dev/client3/rdock/2013.1/src/exe/rbdock.cxx#4 $)

>  <Rbt.Library>
libRbt.so (2013.1, Build901 2013/11/27)

>  <Rbt.Parameter_File>
/export/apps/rDock/src/rDock_2013.1_src/data/scripts/dock_solv.prm

>  <Rbt.Receptor>
prm/blind_docking_20.prm

>  <SCORE>
-5.94874

>  <SCORE.INTER>
5.87297

>  <SCORE.INTER.CONST>
1

>  <SCORE.INTER.POLAR>
0

>  <SCORE.INTER.ROT>
6

>  <SCORE.INTER.SOLV>
22.0479

>  <SCORE.INTER.VDW>
-11.034

>  <SCORE.INTER.norm>
0.244707

>  <SCORE.INTRA>
-11.8677

>  <SCORE.INTRA.DIHEDRAL>
-0.503355

>  <SCORE.INTRA.DIHEDRAL.0>
4.94008

>  <SCORE.INTRA.POLAR>
0

>  <SCORE.INTRA.POLAR.0>
0

>  <SCORE.INTRA.REPUL>
0

>  <SCORE.INTRA.REPUL.0>
0

>  <SCORE.INTRA.SOLV>
-0.0925092

>  <SCORE.INTRA.SOLV.lig_0>
-31.4704

>  <SCORE.INTRA.VDW>
-11.5698

>  <SCORE.INTRA.VDW.0>
10.2807

>  <SCORE.INTRA.norm>
-0.494488

>  <SCORE.RESTR>
0.0460014

>  <SCORE.RESTR.CAVITY>
0.0460014

>  <SCORE.RESTR.norm>
0.00191672

>  <SCORE.SYSTEM>
0

>  <SCORE.SYSTEM.CONST>
0

>  <SCORE.SYSTEM.DIHEDRAL>
0

>  <SCORE.SYSTEM.SOLV>
0

>  <SCORE.SYSTEM.norm>
0

>  <SCORE.heavy>
24

>  <SCORE.norm>
-0.247864

>  <RMSD>
15.885

$$$$
ligand
 OpenBabel11021811493D
libRbt.so/2013.1/901 2013/11/27
 24 26  0  0  0  0  0  0  0  0999 V2000
   14.0593    5.2289    0.3572 N   0  0  0  0  0  0  0  0  0  0  0  0
   12.7673    5.0358    0.9958 C   0  0  0  0  0  0  0  0  0  0  0  0
   16.0649   -0.2755   -1.7751 O   0  0  0  0  0  0  0  0  0  0  0  0
   14.9713    0.4524   -2.2246 C   0  0  0  0  0  0  0  0  0  0  0  0
   11.7006    2.8551   -3.5616 N   0  0  0  0  0  0  0  0  0  0  0  0
   13.6207   -0.1898   -2.3983 C   0  0  0  0  0  0  0  0  0  0  0  0
   13.6810    3.8932   -3.3473 N   0  0  0  0  0  0  0  0  0  0  0  0
   12.4707    0.5452   -2.8336 C   0  0  0  0  0  0  0  0  0  0  0  0
   11.7493    5.2804   -4.1352 N   0  0  0  0  0  0  0  0  0  0  0  0
   12.6680    1.9431   -3.1170 C   0  0  0  0  0  0  0  0  0  0  0  0
   18.3706    2.1334   -4.2878 N   0  0  0  0  0  0  0  0  0  0  0  0
   13.9564    2.5656   -2.9700 C   0  0  0  0  0  0  0  0  0  0  0  0
   15.1216    1.7655   -2.5035 C   0  0  0  0  0  0  0  0  0  0  0  0
   12.3427    4.0523   -3.6910 C   0  0  0  0  0  0  0  0  0  0  0  0
   16.4705    2.4420   -2.3452 C   0  0  0  0  0  0  0  0  0  0  0  0
   17.6420    1.4990   -2.0928 C   0  0  1  0  0  0  0  0  0  0  0  0
   17.2877    0.0590   -2.3308 C   0  0  0  0  0  0  0  0  0  0  0  0
   18.8403    1.9212   -2.9295 C   0  0  0  0  0  0  0  0  0  0  0  0
   14.6642    4.9924   -3.2987 C   0  0  0  0  0  0  0  0  0  0  0  0
   18.7828    3.4631   -4.7164 C   0  0  0  0  0  0  0  0  0  0  0  0
   19.0000    1.1282   -5.1298 C   0  0  0  0  0  0  0  0  0  0  0  0
   15.1274    5.4025   -1.8901 C   0  0  0  0  0  0  0  0  0  0  0  0
   13.8793    5.6783   -1.0307 C   0  0  0  0  0  0  0  0  0  0  0  0
   14.8084    6.2074    1.1373 C   0  0  0  0  0  0  0  0  0  0  0  0
  1 23  1  0  0  0  0
  1 24  1  0  0  0  0
  1  2  1  0  0  0  0
  3  4  1  0  0  0  0
  3 17  1  0  0  0  0
  4  6  2  0  0  0  0
  4 13  1  0  0  0  0
  5 10  1  0  0  0  0
  5 14  2  0  0  0  0
  6  8  1  0  0  0  0
  7 12  1  0  0  0  0
  7 14  1  0  0  0  0
  7 19  1  0  0  0  0
  8 10  2  0  0  0  0
  9 14  1  0  0  0  0
 10 12  1  0  0  0  0
 11 18  1  0  0  0  0
 11 20  1  0  0  0  0
 11 21  1  0  0  0  0
 12 13  2  0  0  0  0
 13 15  1  0  0  0  0
 15 16  1  0  0  0  0
 16 17  1  0  0  0  0
 16 18  1  6  0  0  0
 19 22  1  0  0  0  0
 22 23  1  0  0  0  0
M  END
>  <CHROM.1>
-158.90224059,-66.72641142,126.88023945,-48.29663524,-52.37822289,142.90157728
15.07776573,2.88918145,-2.48099678,-2.42515128,-0.03767260,-2.65110319

>  <Name>
ligand

>  <RI>
144

>  <Rbt.Current_Directory>
/home/itssahil/PROJECTS/Mol_Feturizer/New_Systems/rnas/3TZR

>  <Rbt.Executable>
rbdock ($Id: //depot/dev/client3/rdock/2013.1/src/exe/rbdock.cxx#4 $)

>  <Rbt.Library>
libRbt.so (2013.1, Build901 2013/11/27)

>  <Rbt.Parameter_File>
/export/apps/rDock/src/rDock_2013.1_src/data/scripts/dock_solv.prm

>  <Rbt.Receptor>
prm/blind_docking_20.prm

>  <SCORE>
-15.9035

>  <SCORE.INTER>
-7.96642

>  <SCORE.INTER.CONST>
1

>  <SCORE.INTER.POLAR>
0

>  <SCORE.INTER.ROT>
6

>  <SCORE.INTER.SOLV>
11.833

>  <SCORE.INTER.VDW>
-16.8553

>  <SCORE.INTER.norm>
-0.331934

>  <SCORE.INTRA>
-8.7175

>  <SCORE.INTRA.DIHEDRAL>
3.70399

>  <SCORE.INTRA.DIHEDRAL.0>
4.94008

>  <SCORE.INTRA.POLAR>
0

>  <SCORE.INTRA.POLAR.0>
0

>  <SCORE.INTRA.REPUL>
0

>  <SCORE.INTRA.REPUL.0>
0

>  <SCORE.INTRA.SOLV>
0.82524

>  <SCORE.INTRA.SOLV.lig_0>
-31.4704

>  <SCORE.INTRA.VDW>
-10.9821

>  <SCORE.INTRA.VDW.0>
10.2807

>  <SCORE.INTRA.norm>
-0.363229

>  <SCORE.RESTR>
0.780426

>  <SCORE.RESTR.CAVITY>
0.780426

>  <SCORE.RESTR.norm>
0.0325177

>  <SCORE.SYSTEM>
0

>  <SCORE.SYSTEM.CONST>
0

>  <SCORE.SYSTEM.DIHEDRAL>
0

>  <SCORE.SYSTEM.SOLV>
0

>  <SCORE.SYSTEM.norm>
0

>  <SCORE.heavy>
24

>  <SCORE.norm>
-0.662646

>  <RMSD>
15.885

$$$$
ligand
 OpenBabel11021811493D
libRbt.so/2013.1/901 2013/11/27
 24 26  0  0  0  0  0  0  0  0999 V2000
   17.9616   -2.3376   -2.3730 N   0  0  0  0  0  0  0  0  0  0  0  0
   19.0357   -1.9239   -1.4845 C   0  0  0  0  0  0  0  0  0  0  0  0
   13.6830    6.0080   -3.2710 O   0  0  0  0  0  0  0  0  0  0  0  0
   14.9400    5.4183   -3.2722 C   0  0  0  0  0  0  0  0  0  0  0  0
   18.7259    3.4376   -3.2190 N   0  0  0  0  0  0  0  0  0  0  0  0
   16.1953    6.2495   -3.2554 C   0  0  0  0  0  0  0  0  0  0  0  0
   16.9084    2.1183   -3.2605 N   0  0  0  0  0  0  0  0  0  0  0  0
   17.5031    5.6656   -3.2281 C   0  0  0  0  0  0  0  0  0  0  0  0
   19.1398    0.9796   -3.2345 N   0  0  0  0  0  0  0  0  0  0  0  0
   17.5675    4.2271   -3.2330 C   0  0  0  0  0  0  0  0  0  0  0  0
   10.5936    4.0812   -5.0210 N   0  0  0  0  0  0  0  0  0  0  0  0
   16.3764    3.4212   -3.2645 C   0  0  0  0  0  0  0  0  0  0  0  0
   15.0373    4.0710   -3.2804 C   0  0  0  0  0  0  0  0  0  0  0  0
   18.2987    2.1416   -3.2294 C   0  0  0  0  0  0  0  0  0  0  0  0
   13.7923    3.2041   -3.3038 C   0  0  0  0  0  0  0  0  0  0  0  0
   12.4874    3.9521   -3.5552 C   0  0  1  0  0  0  0  0  0  0  0  0
   12.7090    5.3647   -4.0149 C   0  0  0  0  0  0  0  0  0  0  0  0
   11.6241    3.1774   -4.5394 C   0  0  0  0  0  0  0  0  0  0  0  0
   16.0951    0.8883   -3.2062 C   0  0  0  0  0  0  0  0  0  0  0  0
   10.1245    3.5999   -6.3133 C   0  0  0  0  0  0  0  0  0  0  0  0
    9.5026    4.0518   -4.0596 C   0  0  0  0  0  0  0  0  0  0  0  0
   16.6398   -0.2239   -2.2934 C   0  0  0  0  0  0  0  0  0  0  0  0
   17.4756   -1.1906   -3.1531 C   0  0  0  0  0  0  0  0  0  0  0  0
   18.4736   -3.3904   -3.2429 C   0  0  0  0  0  0  0  0  0  0  0  0
  1 23  1  0  0  0  0
  1 24  1  0  0  0  0
  1  2  1  0  0  0  0
  3  4  1  0  0  0  0
  3 17  1  0  0  0  0
  4  6  2  0  0  0  0
  4 13  1  0  0  0  0
  5 10  1  0  0  0  0
  5 14  2  0  0  0  0
  6  8  1  0  0  0  0
  7 12  1  0  0  0  0
  7 14  1  0  0  0  0
  7 19  1  0  0  0  0
  8 10  2  0  0  0  0
  9 14  1  0  0  0  0
 10 12  1  0  0  0  0
 11 18  1  0  0  0  0
 11 20  1  0  0  0  0
 11 21  1  0  0  0  0
 12 13  2  0  0  0  0
 13 15  1  0  0  0  0
 15 16  1  0  0  0  0
 16 17  1  0  0  0  0
 16 18  1  6  0  0  0
 19 22  1  0  0  0  0
 22 23  1  0  0  0  0
M  END
>  <CHROM.1>
-73.44610356,-138.97445749,156.53626279,-164.57626935,-94.57805379,-176.18227747
15.38977570,2.53715414,-3.44008362,0.68133176,0.23712875,3.12563489

>  <Name>
ligand

>  <RI>
0

>  <Rbt.Current_Directory>
/home/itssahil/PROJECTS/Mol_Feturizer/New_Systems/rnas/3TZR

>  <Rbt.Executable>
rbdock ($Id: //depot/dev/client3/rdock/2013.1/src/exe/rbdock.cxx#4 $)

>  <Rbt.Library>
libRbt.so (2013.1, Build901 2013/11/27)

>  <Rbt.Parameter_File>
/export/apps/rDock/src/rDock_2013.1_src/data/scripts/dock_solv.prm

>  <Rbt.Receptor>
prm/blind_docking_40.prm

>  <SCORE>
-17.0236

>  <SCORE.INTER>
-13.0061

>  <SCORE.INTER.CONST>
1

>  <SCORE.INTER.POLAR>
0

>  <SCORE.INTER.ROT>
6

>  <SCORE.INTER.SOLV>
11.6678

>  <SCORE.INTER.VDW>
-20.16

>  <SCORE.INTER.norm>
-0.541922

>  <SCORE.INTRA>
-4.01745

>  <SCORE.INTRA.DIHEDRAL>
1.81592

>  <SCORE.INTRA.DIHEDRAL.0>
4.94008

>  <SCORE.INTRA.POLAR>
0

>  <SCORE.INTRA.POLAR.0>
0

>  <SCORE.INTRA.REPUL>
0

>  <SCORE.INTRA.REPUL.0>
0

>  <SCORE.INTRA.SOLV>
5.37486

>  <SCORE.INTRA.SOLV.lig_0>
-31.4704

>  <SCORE.INTRA.VDW>
-7.61284

>  <SCORE.INTRA.VDW.0>
10.2807

>  <SCORE.INTRA.norm>
-0.167394

>  <SCORE.RESTR>
0

>  <SCORE.RESTR.CAVITY>
0

>  <SCORE.RESTR.norm>
0

>  <SCORE.SYSTEM>
0

>  <SCORE.SYSTEM.CONST>
0

>  <SCORE.SYSTEM.DIHEDRAL>
0

>  <SCORE.SYSTEM.SOLV>
0

>  <SCORE.SYSTEM.norm>
0

>  <SCORE.heavy>
24

>  <SCORE.norm>
-0.709316

>  <RMSD>
15.913

$$$$
ligand
 OpenBabel11021811493D
libRbt.so/2013.1/901 2013/11/27
 24 26  0  0  0  0  0  0  0  0999 V2000
   17.9702   -1.9166   -3.0445 N   0  0  0  0  0  0  0  0  0  0  0  0
   18.3217   -3.2735   -3.4312 C   0  0  0  0  0  0  0  0  0  0  0  0
   14.4184    6.1464   -3.1055 O   0  0  0  0  0  0  0  0  0  0  0  0
   15.5771    5.4198   -3.3448 C   0  0  0  0  0  0  0  0  0  0  0  0
   19.0620    3.0330   -3.9910 N   0  0  0  0  0  0  0  0  0  0  0  0
   16.8705    6.1031   -3.7015 C   0  0  0  0  0  0  0  0  0  0  0  0
   17.1744    1.9277   -3.4801 N   0  0  0  0  0  0  0  0  0  0  0  0
   18.0858    5.3786   -3.9257 C   0  0  0  0  0  0  0  0  0  0  0  0
   19.2298    0.5490   -3.8689 N   0  0  0  0  0  0  0  0  0  0  0  0
   18.0133    3.9453   -3.8085 C   0  0  0  0  0  0  0  0  0  0  0  0
   10.7138    4.3774   -3.5998 N   0  0  0  0  0  0  0  0  0  0  0  0
   16.7807    3.2788   -3.4835 C   0  0  0  0  0  0  0  0  0  0  0  0
   15.5441    4.0730   -3.2472 C   0  0  0  0  0  0  0  0  0  0  0  0
   18.5267    1.7960   -3.7777 C   0  0  0  0  0  0  0  0  0  0  0  0
   14.2557    3.3527   -2.8959 C   0  0  0  0  0  0  0  0  0  0  0  0
   13.0040    4.2237   -2.9049 C   0  0  1  0  0  0  0  0  0  0  0  0
   13.2376    5.5665   -3.5361 C   0  0  0  0  0  0  0  0  0  0  0  0
   11.8595    3.4843   -3.5813 C   0  0  0  0  0  0  0  0  0  0  0  0
   16.2881    0.8043   -3.1201 C   0  0  0  0  0  0  0  0  0  0  0  0
    9.7895    3.9213   -4.6291 C   0  0  0  0  0  0  0  0  0  0  0  0
   10.0759    4.2967   -2.2952 C   0  0  0  0  0  0  0  0  0  0  0  0
   16.3028   -0.3868   -4.0937 C   0  0  0  0  0  0  0  0  0  0  0  0
   16.5400   -1.6738   -3.2815 C   0  0  0  0  0  0  0  0  0  0  0  0
   18.3099   -1.7445   -1.6366 C   0  0  0  0  0  0  0  0  0  0  0  0
  1 23  1  0  0  0  0
  1 24  1  0  0  0  0
  1  2  1  0  0  0  0
  3  4  1  0  0  0  0
  3 17  1  0  0  0  0
  4  6  2  0  0  0  0
  4 13  1  0  0  0  0
  5 10  1  0  0  0  0
  5 14  2  0  0  0  0
  6  8  1  0  0  0  0
  7 12  1  0  0  0  0
  7 14  1  0  0  0  0
  7 19  1  0  0  0  0
  8 10  2  0  0  0  0
  9 14  1  0  0  0  0
 10 12  1  0  0  0  0
 11 18  1  0  0  0  0
 11 20  1  0  0  0  0
 11 21  1  0  0  0  0
 12 13  2  0  0  0  0
 13 15  1  0  0  0  0
 15 16  1  0  0  0  0
 16 17  1  0  0  0  0
 16 18  1  6  0  0  0
 19 22  1  0  0  0  0
 22 23  1  0  0  0  0
M  END
>  <CHROM.1>
-128.98485777,132.33839566,159.72310301,-178.10299482,128.80547120,-84.64019320
15.58600350,2.53398823,-3.39346173,0.73889104,-0.03764047,3.07239026

>  <Name>
ligand

>  <RI>
0

>  <Rbt.Current_Directory>
/home/itssahil/PROJECTS/Mol_Feturizer/New_Systems/rnas/3TZR

>  <Rbt.Executable>
rbdock ($Id: //depot/dev/client3/rdock/2013.1/src/exe/rbdock.cxx#4 $)

>  <Rbt.Library>
libRbt.so (2013.1, Build901 2013/11/27)

>  <Rbt.Parameter_File>
/export/apps/rDock/src/rDock_2013.1_src/data/scripts/dock_solv.prm

>  <Rbt.Receptor>
prm/blind_docking_80.prm

>  <SCORE>
-16.0959

>  <SCORE.INTER>
-11.7035

>  <SCORE.INTER.CONST>
1

>  <SCORE.INTER.POLAR>
0

>  <SCORE.INTER.ROT>
6

>  <SCORE.INTER.SOLV>
9.13598

>  <SCORE.INTER.VDW>
-18.4477

>  <SCORE.INTER.norm>
-0.487646

>  <SCORE.INTRA>
-4.3928

>  <SCORE.INTRA.DIHEDRAL>
6.43219

>  <SCORE.INTRA.DIHEDRAL.0>
4.94008

>  <SCORE.INTRA.POLAR>
0

>  <SCORE.INTRA.POLAR.0>
0

>  <SCORE.INTRA.REPUL>
0.0223267

>  <SCORE.INTRA.REPUL.0>
0

>  <SCORE.INTRA.SOLV>
5.72956

>  <SCORE.INTRA.SOLV.lig_0>
-31.4704

>  <SCORE.INTRA.VDW>
-10.5853

>  <SCORE.INTRA.VDW.0>
10.2807

>  <SCORE.INTRA.norm>
-0.183033

>  <SCORE.RESTR>
0.000421138

>  <SCORE.RESTR.CAVITY>
0.000421138

>  <SCORE.RESTR.norm>
1.75474e-05

>  <SCORE.SYSTEM>
0

>  <SCORE.SYSTEM.CONST>
0

>  <SCORE.SYSTEM.DIHEDRAL>
0

>  <SCORE.SYSTEM.SOLV>
0

>  <SCORE.SYSTEM.norm>
0

>  <SCORE.heavy>
24

>  <SCORE.norm>
-0.670662

>  <RMSD>
15.971

$$$$
ligand
 OpenBabel11021811493D
libRbt.so/2013.1/901 2013/11/27
 24 26  0  0  0  0  0  0  0  0999 V2000
   11.7494    5.0313   -1.7832 N   0  0  0  0  0  0  0  0  0  0  0  0
   12.6026    5.1934   -0.6170 C   0  0  0  0  0  0  0  0  0  0  0  0
   18.0825    4.2616   -2.5340 O   0  0  0  0  0  0  0  0  0  0  0  0
   16.9925    5.0237   -2.9326 C   0  0  0  0  0  0  0  0  0  0  0  0
   13.5607    7.2097   -4.2376 N   0  0  0  0  0  0  0  0  0  0  0  0
   17.0679    6.5261   -2.9952 C   0  0  0  0  0  0  0  0  0  0  0  0
   13.3515    4.9746   -4.1594 N   0  0  0  0  0  0  0  0  0  0  0  0
   15.9671    7.3333   -3.4296 C   0  0  0  0  0  0  0  0  0  0  0  0
   11.3505    6.2782   -4.9165 N   0  0  0  0  0  0  0  0  0  0  0  0
   14.7611    6.6366   -3.7950 C   0  0  0  0  0  0  0  0  0  0  0  0
   16.0446   -0.0593   -2.4534 N   0  0  0  0  0  0  0  0  0  0  0  0
   14.6705    5.2027   -3.7251 C   0  0  0  0  0  0  0  0  0  0  0  0
   15.8439    4.4029   -3.2788 C   0  0  0  0  0  0  0  0  0  0  0  0
   12.7071    6.1691   -4.4634 C   0  0  0  0  0  0  0  0  0  0  0  0
   15.7322    2.8908   -3.2208 C   0  0  0  0  0  0  0  0  0  0  0  0
   16.8945    2.1818   -2.5340 C   0  0  1  0  0  0  0  0  0  0  0  0
   17.7938    3.1291   -1.7925 C   0  0  0  0  0  0  0  0  0  0  0  0
   16.3689    1.0854   -1.6197 C   0  0  0  0  0  0  0  0  0  0  0  0
   12.7592    3.6369   -4.3523 C   0  0  0  0  0  0  0  0  0  0  0  0
   17.0442   -1.0942   -2.2260 C   0  0  0  0  0  0  0  0  0  0  0  0
   14.7352   -0.5417   -2.0431 C   0  0  0  0  0  0  0  0  0  0  0  0
   11.4157    3.4006   -3.6408 C   0  0  0  0  0  0  0  0  0  0  0  0
   11.6247    3.6081   -2.1290 C   0  0  0  0  0  0  0  0  0  0  0  0
   10.4492    5.6176   -1.4783 C   0  0  0  0  0  0  0  0  0  0  0  0
  1 23  1  0  0  0  0
  1 24  1  0  0  0  0
  1  2  1  0  0  0  0
  3  4  1  0  0  0  0
  3 17  1  0  0  0  0
  4  6  2  0  0  0  0
  4 13  1  0  0  0  0
  5 10  1  0  0  0  0
  5 14  2  0  0  0  0
  6  8  1  0  0  0  0
  7 12  1  0  0  0  0
  7 14  1  0  0  0  0
  7 19  1  0  0  0  0
  8 10  2  0  0  0  0
  9 14  1  0  0  0  0
 10 12  1  0  0  0  0
 11 18  1  0  0  0  0
 11 20  1  0  0  0  0
 11 21  1  0  0  0  0
 12 13  2  0  0  0  0
 13 15  1  0  0  0  0
 15 16  1  0  0  0  0
 16 17  1  0  0  0  0
 16 18  1  1  0  0  0
 19 22  1  0  0  0  0
 22 23  1  0  0  0  0
M  END
>  <CHROM.1>
-149.85580644,127.93636022,107.60645789,79.38829196,-59.11747553,74.76670521
14.53201229,3.99399355,-2.88846045,2.29409004,0.01322995,-0.23441904

>  <Name>
ligand

>  <RI>
144

>  <Rbt.Current_Directory>
/home/itssahil/PROJECTS/Mol_Feturizer/New_Systems/rnas/3TZR

>  <Rbt.Executable>
rbdock ($Id: //depot/dev/client3/rdock/2013.1/src/exe/rbdock.cxx#4 $)

>  <Rbt.Library>
libRbt.so (2013.1, Build901 2013/11/27)

>  <Rbt.Parameter_File>
/export/apps/rDock/src/rDock_2013.1_src/data/scripts/dock_solv.prm

>  <Rbt.Receptor>
prm/blind_docking_20.prm

>  <SCORE>
-14.9055

>  <SCORE.INTER>
-4.66467

>  <SCORE.INTER.CONST>
1

>  <SCORE.INTER.POLAR>
0

>  <SCORE.INTER.ROT>
6

>  <SCORE.INTER.SOLV>
12.735

>  <SCORE.INTER.VDW>
-14.9548

>  <SCORE.INTER.norm>
-0.194361

>  <SCORE.INTRA>
-10.2409

>  <SCORE.INTRA.DIHEDRAL>
1.6068

>  <SCORE.INTRA.DIHEDRAL.0>
4.94008

>  <SCORE.INTRA.POLAR>
0

>  <SCORE.INTRA.POLAR.0>
0

>  <SCORE.INTRA.REPUL>
0

>  <SCORE.INTRA.REPUL.0>
0

>  <SCORE.INTRA.SOLV>
4.28109

>  <SCORE.INTRA.SOLV.lig_0>
-31.4704

>  <SCORE.INTRA.VDW>
-13.1848

>  <SCORE.INTRA.VDW.0>
10.2807

>  <SCORE.INTRA.norm>
-0.426703

>  <SCORE.RESTR>
0

>  <SCORE.RESTR.CAVITY>
0

>  <SCORE.RESTR.norm>
0

>  <SCORE.SYSTEM>
0

>  <SCORE.SYSTEM.CONST>
0

>  <SCORE.SYSTEM.DIHEDRAL>
0

>  <SCORE.SYSTEM.SOLV>
0

>  <SCORE.SYSTEM.norm>
0

>  <SCORE.heavy>
24

>  <SCORE.norm>
-0.621064

>  <RMSD>
16.019

$$$$
ligand
 OpenBabel11021811493D
libRbt.so/2013.1/901 2013/11/27
 24 26  0  0  0  0  0  0  0  0999 V2000
    8.9855    3.4991    0.6700 N   0  0  0  0  0  0  0  0  0  0  0  0
    7.8285    2.8861    1.3025 C   0  0  0  0  0  0  0  0  0  0  0  0
   16.8813    3.9070   -3.5469 O   0  0  0  0  0  0  0  0  0  0  0  0
   15.9834    4.6620   -2.8043 C   0  0  0  0  0  0  0  0  0  0  0  0
   13.0822    6.8561   -0.5619 N   0  0  0  0  0  0  0  0  0  0  0  0
   16.2711    6.0968   -2.4503 C   0  0  0  0  0  0  0  0  0  0  0  0
   12.5758    4.7182   -1.0295 N   0  0  0  0  0  0  0  0  0  0  0  0
   15.3493    6.9052   -1.7095 C   0  0  0  0  0  0  0  0  0  0  0  0
   10.8923    6.0234    0.2891 N   0  0  0  0  0  0  0  0  0  0  0  0
   14.1229    6.2726   -1.2981 C   0  0  0  0  0  0  0  0  0  0  0  0
   16.9812   -0.1328   -3.0878 N   0  0  0  0  0  0  0  0  0  0  0  0
   13.8422    4.8982   -1.6163 C   0  0  0  0  0  0  0  0  0  0  0  0
   14.8245    4.0989   -2.3986 C   0  0  0  0  0  0  0  0  0  0  0  0
   12.1356    5.8845   -0.4127 C   0  0  0  0  0  0  0  0  0  0  0  0
   14.5063    2.6535   -2.7328 C   0  0  0  0  0  0  0  0  0  0  0  0
   15.6632    1.8565   -3.3260 C   0  0  1  0  0  0  0  0  0  0  0  0
   16.9796    2.5694   -3.2047 C   0  0  0  0  0  0  0  0  0  0  0  0
   15.7209    0.4737   -2.6948 C   0  0  0  0  0  0  0  0  0  0  0  0
   11.7801    3.4799   -1.1325 C   0  0  0  0  0  0  0  0  0  0  0  0
   17.4332   -0.9995   -2.0078 C   0  0  0  0  0  0  0  0  0  0  0  0
   16.7314   -0.9246   -4.2820 C   0  0  0  0  0  0  0  0  0  0  0  0
   11.3508    2.8572    0.2072 C   0  0  0  0  0  0  0  0  0  0  0  0
    9.8647    2.4654    0.1055 C   0  0  0  0  0  0  0  0  0  0  0  0
    8.5070    4.4094   -0.3643 C   0  0  0  0  0  0  0  0  0  0  0  0
  1 23  1  0  0  0  0
  1 24  1  0  0  0  0
  1  2  1  0  0  0  0
  3  4  1  0  0  0  0
  3 17  1  0  0  0  0
  4  6  2  0  0  0  0
  4 13  1  0  0  0  0
  5 10  1  0  0  0  0
  5 14  2  0  0  0  0
  6  8  1  0  0  0  0
  7 12  1  0  0  0  0
  7 14  1  0  0  0  0
  7 19  1  0  0  0  0
  8 10  2  0  0  0  0
  9 14  1  0  0  0  0
 10 12  1  0  0  0  0
 11 18  1  0  0  0  0
 11 20  1  0  0  0  0
 11 21  1  0  0  0  0
 12 13  2  0  0  0  0
 13 15  1  0  0  0  0
 15 16  1  0  0  0  0
 16 17  1  0  0  0  0
 16 18  1  1  0  0  0
 19 22  1  0  0  0  0
 22 23  1  0  0  0  0
M  END
>  <CHROM.1>
-145.46644879,124.63213923,147.75224445,-168.66718542,134.72479345,-96.47945767
13.63772884,3.45326348,-1.58085099,2.73244415,0.43118721,0.07733681

>  <Name>
ligand

>  <RI>
144

>  <Rbt.Current_Directory>
/home/itssahil/PROJECTS/Mol_Feturizer/New_Systems/rnas/3TZR

>  <Rbt.Executable>
rbdock ($Id: //depot/dev/client3/rdock/2013.1/src/exe/rbdock.cxx#4 $)

>  <Rbt.Library>
libRbt.so (2013.1, Build901 2013/11/27)

>  <Rbt.Parameter_File>
/export/apps/rDock/src/rDock_2013.1_src/data/scripts/dock_solv.prm

>  <Rbt.Receptor>
prm/blind_docking_20.prm

>  <SCORE>
-2.38973

>  <SCORE.INTER>
1.33288

>  <SCORE.INTER.CONST>
1

>  <SCORE.INTER.POLAR>
0

>  <SCORE.INTER.ROT>
6

>  <SCORE.INTER.SOLV>
10.1383

>  <SCORE.INTER.VDW>
-10.0908

>  <SCORE.INTER.norm>
0.0555365

>  <SCORE.INTRA>
-3.72261

>  <SCORE.INTRA.DIHEDRAL>
8.02569

>  <SCORE.INTRA.DIHEDRAL.0>
4.94008

>  <SCORE.INTRA.POLAR>
0

>  <SCORE.INTRA.POLAR.0>
0

>  <SCORE.INTRA.REPUL>
0.000338229

>  <SCORE.INTRA.REPUL.0>
0

>  <SCORE.INTRA.SOLV>
5.06755

>  <SCORE.INTRA.SOLV.lig_0>
-31.4704

>  <SCORE.INTRA.VDW>
-10.2709

>  <SCORE.INTRA.VDW.0>
10.2807

>  <SCORE.INTRA.norm>
-0.155109

>  <SCORE.RESTR>
0

>  <SCORE.RESTR.CAVITY>
0

>  <SCORE.RESTR.norm>
0

>  <SCORE.SYSTEM>
0

>  <SCORE.SYSTEM.CONST>
0

>  <SCORE.SYSTEM.DIHEDRAL>
0

>  <SCORE.SYSTEM.SOLV>
0

>  <SCORE.SYSTEM.norm>
0

>  <SCORE.heavy>
24

>  <SCORE.norm>
-0.0995723

>  <RMSD>
16.137

$$$$
ligand
 OpenBabel11021811493D
libRbt.so/2013.1/901 2013/11/27
 24 26  0  0  0  0  0  0  0  0999 V2000
   10.2372    3.8946   -3.4624 N   0  0  0  0  0  0  0  0  0  0  0  0
   10.3907    3.5587   -4.8687 C   0  0  0  0  0  0  0  0  0  0  0  0
   17.4929    4.0987   -3.9662 O   0  0  0  0  0  0  0  0  0  0  0  0
   16.6976    4.8582   -3.1186 C   0  0  0  0  0  0  0  0  0  0  0  0
   14.1131    7.0596   -0.5238 N   0  0  0  0  0  0  0  0  0  0  0  0
   16.9778    6.3183   -2.8807 C   0  0  0  0  0  0  0  0  0  0  0  0
   13.6288    4.8845   -0.8064 N   0  0  0  0  0  0  0  0  0  0  0  0
   16.1565    7.1302   -2.0333 C   0  0  0  0  0  0  0  0  0  0  0  0
   12.1305    6.1948    0.7150 N   0  0  0  0  0  0  0  0  0  0  0  0
   15.0427    6.4766   -1.3963 C   0  0  0  0  0  0  0  0  0  0  0  0
   15.5575   -0.2040   -3.2018 N   0  0  0  0  0  0  0  0  0  0  0  0
   14.7727    5.0789   -1.6028 C   0  0  0  0  0  0  0  0  0  0  0  0
   15.6464    4.2761   -2.5016 C   0  0  0  0  0  0  0  0  0  0  0  0
   13.2464    6.0643   -0.1769 C   0  0  0  0  0  0  0  0  0  0  0  0
   15.3399    2.8054   -2.7145 C   0  0  0  0  0  0  0  0  0  0  0  0
   16.4166    2.0206   -3.4561 C   0  0  1  0  0  0  0  0  0  0  0  0
   17.7033    2.7843   -3.5867 C   0  0  0  0  0  0  0  0  0  0  0  0
   16.6365    0.6741   -2.7831 C   0  0  0  0  0  0  0  0  0  0  0  0
   12.8808    3.6154   -0.7213 C   0  0  0  0  0  0  0  0  0  0  0  0
   16.1091   -1.5301   -3.4443 C   0  0  0  0  0  0  0  0  0  0  0  0
   14.5950   -0.2633   -2.1129 C   0  0  0  0  0  0  0  0  0  0  0  0
   11.4557    3.6485   -1.3000 C   0  0  0  0  0  0  0  0  0  0  0  0
   11.5513    3.9541   -2.8065 C   0  0  0  0  0  0  0  0  0  0  0  0
    9.5441    5.1750   -3.3756 C   0  0  0  0  0  0  0  0  0  0  0  0
  1 23  1  0  0  0  0
  1 24  1  0  0  0  0
  1  2  1  0  0  0  0
  3  4  1  0  0  0  0
  3 17  1  0  0  0  0
  4  6  2  0  0  0  0
  4 13  1  0  0  0  0
  5 10  1  0  0  0  0
  5 14  2  0  0  0  0
  6  8  1  0  0  0  0
  7 12  1  0  0  0  0
  7 14  1  0  0  0  0
  7 19  1  0  0  0  0
  8 10  2  0  0  0  0
  9 14  1  0  0  0  0
 10 12  1  0  0  0  0
 11 18  1  0  0  0  0
 11 20  1  0  0  0  0
 11 21  1  0  0  0  0
 12 13  2  0  0  0  0
 13 15  1  0  0  0  0
 15 16  1  0  0  0  0
 16 17  1  0  0  0  0
 16 18  1  1  0  0  0
 19 22  1  0  0  0  0
 22 23  1  0  0  0  0
M  END
>  <CHROM.1>
-153.29570931,-113.30472180,139.87429864,78.67440741,62.66204424,175.29161877
14.28901854,3.75678250,-2.37526428,2.34467147,0.01975678,0.32276488

>  <Name>
ligand

>  <RI>
144

>  <Rbt.Current_Directory>
/home/itssahil/PROJECTS/Mol_Feturizer/New_Systems/rnas/3TZR

>  <Rbt.Executable>
rbdock ($Id: //depot/dev/client3/rdock/2013.1/src/exe/rbdock.cxx#4 $)

>  <Rbt.Library>
libRbt.so (2013.1, Build901 2013/11/27)

>  <Rbt.Parameter_File>
/export/apps/rDock/src/rDock_2013.1_src/data/scripts/dock_solv.prm

>  <Rbt.Receptor>
prm/blind_docking_20.prm

>  <SCORE>
4.30416

>  <SCORE.INTER>
14.9251

>  <SCORE.INTER.CONST>
1

>  <SCORE.INTER.POLAR>
0

>  <SCORE.INTER.ROT>
6

>  <SCORE.INTER.SOLV>
13.6747

>  <SCORE.INTER.VDW>
-2.20816

>  <SCORE.INTER.norm>
0.621879

>  <SCORE.INTRA>
-10.6209

>  <SCORE.INTRA.DIHEDRAL>
0.357611

>  <SCORE.INTRA.DIHEDRAL.0>
4.94008

>  <SCORE.INTRA.POLAR>
0

>  <SCORE.INTRA.POLAR.0>
0

>  <SCORE.INTRA.REPUL>
0

>  <SCORE.INTRA.REPUL.0>
0

>  <SCORE.INTRA.SOLV>
0.878752

>  <SCORE.INTRA.SOLV.lig_0>
-31.4704

>  <SCORE.INTRA.VDW>
-11.2391

>  <SCORE.INTRA.VDW.0>
10.2807

>  <SCORE.INTRA.norm>
-0.442539

>  <SCORE.RESTR>
0

>  <SCORE.RESTR.CAVITY>
0

>  <SCORE.RESTR.norm>
0

>  <SCORE.SYSTEM>
0

>  <SCORE.SYSTEM.CONST>
0

>  <SCORE.SYSTEM.DIHEDRAL>
0

>  <SCORE.SYSTEM.SOLV>
0

>  <SCORE.SYSTEM.norm>
0

>  <SCORE.heavy>
24

>  <SCORE.norm>
0.17934

>  <RMSD>
16.180

$$$$
ligand
 OpenBabel11021811493D
libRbt.so/2013.1/901 2013/11/27
 24 26  0  0  0  0  0  0  0  0999 V2000
   15.3742    0.4507   -2.4187 N   0  0  0  0  0  0  0  0  0  0  0  0
   16.4085    0.8503   -3.3594 C   0  0  0  0  0  0  0  0  0  0  0  0
    9.3389    5.8335   -1.8366 O   0  0  0  0  0  0  0  0  0  0  0  0
   10.6910    5.7695   -1.5277 C   0  0  0  0  0  0  0  0  0  0  0  0
   14.8584    5.3975   -0.6596 N   0  0  0  0  0  0  0  0  0  0  0  0
   11.3013    6.6742   -0.4903 C   0  0  0  0  0  0  0  0  0  0  0  0
   14.0382    4.0191   -2.2322 N   0  0  0  0  0  0  0  0  0  0  0  0
   12.6871    6.6090   -0.1335 C   0  0  0  0  0  0  0  0  0  0  0  0
   16.4807    3.8232   -1.7100 N   0  0  0  0  0  0  0  0  0  0  0  0
   13.4877    5.6364   -0.8311 C   0  0  0  0  0  0  0  0  0  0  0  0
   10.4681    3.3806   -5.6391 N   0  0  0  0  0  0  0  0  0  0  0  0
   12.9206    4.7766   -1.8352 C   0  0  0  0  0  0  0  0  0  0  0  0
   11.4723    4.8711   -2.1657 C   0  0  0  0  0  0  0  0  0  0  0  0
   15.1771    4.3931   -1.5267 C   0  0  0  0  0  0  0  0  0  0  0  0
   10.8904    3.9490   -3.2208 C   0  0  0  0  0  0  0  0  0  0  0  0
    9.4659    4.2785   -3.6540 C   0  0  1  0  0  0  0  0  0  0  0  0
    9.0079    5.6224   -3.1639 C   0  0  0  0  0  0  0  0  0  0  0  0
    9.3424    4.1677   -5.1661 C   0  0  0  0  0  0  0  0  0  0  0  0
   13.9888    2.9118   -3.2062 C   0  0  0  0  0  0  0  0  0  0  0  0
   10.1583    1.9702   -5.4474 C   0  0  0  0  0  0  0  0  0  0  0  0
   10.6315    3.6599   -7.0571 C   0  0  0  0  0  0  0  0  0  0  0  0
   13.2185    1.6618   -2.7467 C   0  0  0  0  0  0  0  0  0  0  0  0
   14.0643    0.4198   -3.0848 C   0  0  0  0  0  0  0  0  0  0  0  0
   15.7281   -0.8602   -1.8862 C   0  0  0  0  0  0  0  0  0  0  0  0
  1 23  1  0  0  0  0
  1 24  1  0  0  0  0
  1  2  1  0  0  0  0
  3  4  1  0  0  0  0
  3 17  1  0  0  0  0
  4  6  2  0  0  0  0
  4 13  1  0  0  0  0
  5 10  1  0  0  0  0
  5 14  2  0  0  0  0
  6  8  1  0  0  0  0
  7 12  1  0  0  0  0
  7 14  1  0  0  0  0
  7 19  1  0  0  0  0
  8 10  2  0  0  0  0
  9 14  1  0  0  0  0
 10 12  1  0  0  0  0
 11 18  1  0  0  0  0
 11 20  1  0  0  0  0
 11 21  1  0  0  0  0
 12 13  2  0  0  0  0
 13 15  1  0  0  0  0
 15 16  1  0  0  0  0
 16 17  1  0  0  0  0
 16 18  1  6  0  0  0
 19 22  1  0  0  0  0
 22 23  1  0  0  0  0
M  END
>  <CHROM.1>
-102.05514447,-67.41746216,81.21398322,18.22990686,-134.09348854,59.62894344
12.54872230,3.66669938,-2.78581282,0.28085199,0.51124743,-2.44553714

>  <Name>
ligand

>  <RI>
144

>  <Rbt.Current_Directory>
/home/itssahil/PROJECTS/Mol_Feturizer/New_Systems/rnas/3TZR

>  <Rbt.Executable>
rbdock ($Id: //depot/dev/client3/rdock/2013.1/src/exe/rbdock.cxx#4 $)

>  <Rbt.Library>
libRbt.so (2013.1, Build901 2013/11/27)

>  <Rbt.Parameter_File>
/export/apps/rDock/src/rDock_2013.1_src/data/scripts/dock_solv.prm

>  <Rbt.Receptor>
prm/blind_docking_20.prm

>  <SCORE>
24.1211

>  <SCORE.INTER>
25.8161

>  <SCORE.INTER.CONST>
1

>  <SCORE.INTER.POLAR>
0

>  <SCORE.INTER.ROT>
6

>  <SCORE.INTER.SOLV>
16.7643

>  <SCORE.INTER.VDW>
4.02261

>  <SCORE.INTER.norm>
1.07567

>  <SCORE.INTRA>
-1.70242

>  <SCORE.INTRA.DIHEDRAL>
7.68334

>  <SCORE.INTRA.DIHEDRAL.0>
4.94008

>  <SCORE.INTRA.POLAR>
0

>  <SCORE.INTRA.POLAR.0>
0

>  <SCORE.INTRA.REPUL>
0

>  <SCORE.INTRA.REPUL.0>
0

>  <SCORE.INTRA.SOLV>
2.68552

>  <SCORE.INTRA.SOLV.lig_0>
-31.4704

>  <SCORE.INTRA.VDW>
-6.88685

>  <SCORE.INTRA.VDW.0>
10.2807

>  <SCORE.INTRA.norm>
-0.070934

>  <SCORE.RESTR>
0.00747984

>  <SCORE.RESTR.CAVITY>
0.00747984

>  <SCORE.RESTR.norm>
0.00031166

>  <SCORE.SYSTEM>
0

>  <SCORE.SYSTEM.CONST>
0

>  <SCORE.SYSTEM.DIHEDRAL>
0

>  <SCORE.SYSTEM.SOLV>
0

>  <SCORE.SYSTEM.norm>
0

>  <SCORE.heavy>
24

>  <SCORE.norm>
1.00505

>  <RMSD>
16.204

$$$$
ligand
 OpenBabel11021811493D
libRbt.so/2013.1/901 2013/11/27
 24 26  0  0  0  0  0  0  0  0999 V2000
    9.0999    3.5969   -0.1086 N   0  0  0  0  0  0  0  0  0  0  0  0
    8.5908    4.9247   -0.4119 C   0  0  0  0  0  0  0  0  0  0  0  0
   17.4251    4.1228   -3.9911 O   0  0  0  0  0  0  0  0  0  0  0  0
   16.6361    4.8677   -3.1247 C   0  0  0  0  0  0  0  0  0  0  0  0
   14.0721    7.0223   -0.4710 N   0  0  0  0  0  0  0  0  0  0  0  0
   16.9035    6.3294   -2.8824 C   0  0  0  0  0  0  0  0  0  0  0  0
   13.6082    4.8435   -0.7593 N   0  0  0  0  0  0  0  0  0  0  0  0
   16.0878    7.1263   -2.0154 C   0  0  0  0  0  0  0  0  0  0  0  0
   12.1217    6.1266    0.7966 N   0  0  0  0  0  0  0  0  0  0  0  0
   14.9929    6.4557   -1.3634 C   0  0  0  0  0  0  0  0  0  0  0  0
   16.0658   -0.3391   -3.6827 N   0  0  0  0  0  0  0  0  0  0  0  0
   14.7356    5.0563   -1.5742 C   0  0  0  0  0  0  0  0  0  0  0  0
   15.6026    4.2694   -2.4933 C   0  0  0  0  0  0  0  0  0  0  0  0
   13.2232    6.0148   -0.1155 C   0  0  0  0  0  0  0  0  0  0  0  0
   15.3095    2.7966   -2.7104 C   0  0  0  0  0  0  0  0  0  0  0  0
   16.3821    2.0291   -3.4757 C   0  0  1  0  0  0  0  0  0  0  0  0
   17.6574    2.8086   -3.6238 C   0  0  0  0  0  0  0  0  0  0  0  0
   16.6293    0.6811   -2.8155 C   0  0  0  0  0  0  0  0  0  0  0  0
   12.8765    3.5652   -0.6694 C   0  0  0  0  0  0  0  0  0  0  0  0
   17.1596   -1.0954   -4.2773 C   0  0  0  0  0  0  0  0  0  0  0  0
   15.2541   -1.2170   -2.8544 C   0  0  0  0  0  0  0  0  0  0  0  0
   11.3958    3.6211   -1.0830 C   0  0  0  0  0  0  0  0  0  0  0  0
   10.5367    3.6593    0.1948 C   0  0  0  0  0  0  0  0  0  0  0  0
    8.3431    3.0687    1.0208 C   0  0  0  0  0  0  0  0  0  0  0  0
  1 23  1  0  0  0  0
  1 24  1  0  0  0  0
  1  2  1  0  0  0  0
  3  4  1  0  0  0  0
  3 17  1  0  0  0  0
  4  6  2  0  0  0  0
  4 13  1  0  0  0  0
  5 10  1  0  0  0  0
  5 14  2  0  0  0  0
  6  8  1  0  0  0  0
  7 12  1  0  0  0  0
  7 14  1  0  0  0  0
  7 19  1  0  0  0  0
  8 10  2  0  0  0  0
  9 14  1  0  0  0  0
 10 12  1  0  0  0  0
 11 18  1  0  0  0  0
 11 20  1  0  0  0  0
 11 21  1  0  0  0  0
 12 13  2  0  0  0  0
 13 15  1  0  0  0  0
 15 16  1  0  0  0  0
 16 17  1  0  0  0  0
 16 18  1  1  0  0  0
 19 22  1  0  0  0  0
 22 23  1  0  0  0  0
M  END
>  <CHROM.1>
-84.44135230,-119.54999975,110.02322446,108.03381544,-101.47252017,-175.07907965
14.13218541,3.65764156,-1.76990039,2.65736445,0.42129143,0.22308831

>  <Name>
ligand

>  <RI>
144

>  <Rbt.Current_Directory>
/home/itssahil/PROJECTS/Mol_Feturizer/New_Systems/rnas/3TZR

>  <Rbt.Executable>
rbdock ($Id: //depot/dev/client3/rdock/2013.1/src/exe/rbdock.cxx#4 $)

>  <Rbt.Library>
libRbt.so (2013.1, Build901 2013/11/27)

>  <Rbt.Parameter_File>
/export/apps/rDock/src/rDock_2013.1_src/data/scripts/dock_solv.prm

>  <Rbt.Receptor>
prm/blind_docking_20.prm

>  <SCORE>
8.44886

>  <SCORE.INTER>
13.9077

>  <SCORE.INTER.CONST>
1

>  <SCORE.INTER.POLAR>
0

>  <SCORE.INTER.ROT>
6

>  <SCORE.INTER.SOLV>
12.5104

>  <SCORE.INTER.VDW>
-2.49831

>  <SCORE.INTER.norm>
0.579489

>  <SCORE.INTRA>
-5.4633

>  <SCORE.INTRA.DIHEDRAL>
8.44705

>  <SCORE.INTRA.DIHEDRAL.0>
4.94008

>  <SCORE.INTRA.POLAR>
0

>  <SCORE.INTRA.POLAR.0>
0

>  <SCORE.INTRA.REPUL>
0

>  <SCORE.INTRA.REPUL.0>
0

>  <SCORE.INTRA.SOLV>
3.43501

>  <SCORE.INTRA.SOLV.lig_0>
-31.4704

>  <SCORE.INTRA.VDW>
-11.4043

>  <SCORE.INTRA.VDW.0>
10.2807

>  <SCORE.INTRA.norm>
-0.227637

>  <SCORE.RESTR>
0.00442839

>  <SCORE.RESTR.CAVITY>
0.00442839

>  <SCORE.RESTR.norm>
0.000184516

>  <SCORE.SYSTEM>
0

>  <SCORE.SYSTEM.CONST>
0

>  <SCORE.SYSTEM.DIHEDRAL>
0

>  <SCORE.SYSTEM.SOLV>
0

>  <SCORE.SYSTEM.norm>
0

>  <SCORE.heavy>
24

>  <SCORE.norm>
0.352036

>  <RMSD>
16.351

$$$$
ligand
 OpenBabel11021811493D
libRbt.so/2013.1/901 2013/11/27
 24 26  0  0  0  0  0  0  0  0999 V2000
    8.4698    3.3360    2.3959 N   0  0  0  0  0  0  0  0  0  0  0  0
    7.5845    3.0001    1.2924 C   0  0  0  0  0  0  0  0  0  0  0  0
   11.0840    3.2354   -5.1990 O   0  0  0  0  0  0  0  0  0  0  0  0
   10.2034    3.9253   -4.3766 C   0  0  0  0  0  0  0  0  0  0  0  0
    7.5971    5.9902   -1.6929 N   0  0  0  0  0  0  0  0  0  0  0  0
    8.8426    4.3463   -4.8643 C   0  0  0  0  0  0  0  0  0  0  0  0
    9.6128    5.4161   -0.8847 N   0  0  0  0  0  0  0  0  0  0  0  0
    7.9053    5.0341   -4.0274 C   0  0  0  0  0  0  0  0  0  0  0  0
    8.0692    6.6327    0.6689 N   0  0  0  0  0  0  0  0  0  0  0  0
    8.3325    5.3238   -2.6831 C   0  0  0  0  0  0  0  0  0  0  0  0
   14.9329    3.1040   -2.3765 N   0  0  0  0  0  0  0  0  0  0  0  0
    9.6355    4.9409   -2.2092 C   0  0  0  0  0  0  0  0  0  0  0  0
   10.5731    4.2170   -3.1105 C   0  0  0  0  0  0  0  0  0  0  0  0
    8.4005    6.0310   -0.5905 C   0  0  0  0  0  0  0  0  0  0  0  0
   11.9396    3.8128   -2.5895 C   0  0  0  0  0  0  0  0  0  0  0  0
   12.9073    3.2917   -3.6466 C   0  0  1  0  0  0  0  0  0  0  0  0
   12.4251    3.5425   -5.0468 C   0  0  0  0  0  0  0  0  0  0  0  0
   14.2913    3.8819   -3.4223 C   0  0  0  0  0  0  0  0  0  0  0  0
   10.6999    5.2097    0.0915 C   0  0  0  0  0  0  0  0  0  0  0  0
   15.5129    1.9110   -2.9784 C   0  0  0  0  0  0  0  0  0  0  0  0
   15.9860    3.9273   -1.8032 C   0  0  0  0  0  0  0  0  0  0  0  0
   10.4716    4.0741    1.1040 C   0  0  0  0  0  0  0  0  0  0  0  0
    9.3172    4.4825    2.0382 C   0  0  0  0  0  0  0  0  0  0  0  0
    7.6466    3.6303    3.5634 C   0  0  0  0  0  0  0  0  0  0  0  0
  1 23  1  0  0  0  0
  1 24  1  0  0  0  0
  1  2  1  0  0  0  0
  3  4  1  0  0  0  0
  3 17  1  0  0  0  0
  4  6  2  0  0  0  0
  4 13  1  0  0  0  0
  5 10  1  0  0  0  0
  5 14  2  0  0  0  0
  6  8  1  0  0  0  0
  7 12  1  0  0  0  0
  7 14  1  0  0  0  0
  7 19  1  0  0  0  0
  8 10  2  0  0  0  0
  9 14  1  0  0  0  0
 10 12  1  0  0  0  0
 11 18  1  0  0  0  0
 11 20  1  0  0  0  0
 11 21  1  0  0  0  0
 12 13  2  0  0  0  0
 13 15  1  0  0  0  0
 15 16  1  0  0  0  0
 16 17  1  0  0  0  0
 16 18  1  6  0  0  0
 19 22  1  0  0  0  0
 22 23  1  0  0  0  0
M  END
>  <CHROM.1>
-77.08987903,-100.08078715,82.91714823,81.10553896,-67.85408037,143.07726111
10.58892876,4.22034539,-1.61358911,-2.46730128,0.29062852,-1.49587011

>  <Name>
ligand

>  <RI>
144

>  <Rbt.Current_Directory>
/home/itssahil/PROJECTS/Mol_Feturizer/New_Systems/rnas/3TZR

>  <Rbt.Executable>
rbdock ($Id: //depot/dev/client3/rdock/2013.1/src/exe/rbdock.cxx#4 $)

>  <Rbt.Library>
libRbt.so (2013.1, Build901 2013/11/27)

>  <Rbt.Parameter_File>
/export/apps/rDock/src/rDock_2013.1_src/data/scripts/dock_solv.prm

>  <Rbt.Receptor>
prm/blind_docking_20.prm

>  <SCORE>
-6.15444

>  <SCORE.INTER>
0.238871

>  <SCORE.INTER.CONST>
1

>  <SCORE.INTER.POLAR>
0

>  <SCORE.INTER.ROT>
6

>  <SCORE.INTER.SOLV>
10.5292

>  <SCORE.INTER.VDW>
-10.9505

>  <SCORE.INTER.norm>
0.00995297

>  <SCORE.INTRA>
-7.02384

>  <SCORE.INTRA.DIHEDRAL>
2.75363

>  <SCORE.INTRA.DIHEDRAL.0>
4.94008

>  <SCORE.INTRA.POLAR>
0

>  <SCORE.INTRA.POLAR.0>
0

>  <SCORE.INTRA.REPUL>
0

>  <SCORE.INTRA.REPUL.0>
0

>  <SCORE.INTRA.SOLV>
4.34198

>  <SCORE.INTRA.SOLV.lig_0>
-31.4704

>  <SCORE.INTRA.VDW>
-10.5716

>  <SCORE.INTRA.VDW.0>
10.2807

>  <SCORE.INTRA.norm>
-0.29266

>  <SCORE.RESTR>
0.630527

>  <SCORE.RESTR.CAVITY>
0.630527

>  <SCORE.RESTR.norm>
0.026272

>  <SCORE.SYSTEM>
0

>  <SCORE.SYSTEM.CONST>
0

>  <SCORE.SYSTEM.DIHEDRAL>
0

>  <SCORE.SYSTEM.SOLV>
0

>  <SCORE.SYSTEM.norm>
0

>  <SCORE.heavy>
24

>  <SCORE.norm>
-0.256435

>  <RMSD>
16.390

$$$$
ligand
 OpenBabel11021811493D
libRbt.so/2013.1/901 2013/11/27
 24 26  0  0  0  0  0  0  0  0999 V2000
   10.7478    5.0293   -3.6750 N   0  0  0  0  0  0  0  0  0  0  0  0
    9.3838    5.5270   -3.5962 C   0  0  0  0  0  0  0  0  0  0  0  0
   16.8577    5.7603   -2.6469 O   0  0  0  0  0  0  0  0  0  0  0  0
   15.6276    5.7623   -2.0030 C   0  0  0  0  0  0  0  0  0  0  0  0
   11.7788    5.6393   -0.1508 N   0  0  0  0  0  0  0  0  0  0  0  0
   15.2349    6.8749   -1.0676 C   0  0  0  0  0  0  0  0  0  0  0  0
   12.2854    3.9299   -1.5171 N   0  0  0  0  0  0  0  0  0  0  0  0
   13.9614    6.9147   -0.4129 C   0  0  0  0  0  0  0  0  0  0  0  0
   10.0360    3.8769   -0.4152 N   0  0  0  0  0  0  0  0  0  0  0  0
   13.0644    5.8203   -0.6798 C   0  0  0  0  0  0  0  0  0  0  0  0
   16.6171    1.5480   -2.3366 N   0  0  0  0  0  0  0  0  0  0  0  0
   13.4329    4.7434   -1.5592 C   0  0  0  0  0  0  0  0  0  0  0  0
   14.7630    4.7491   -2.2275 C   0  0  0  0  0  0  0  0  0  0  0  0
   11.3129    4.4727   -0.6840 C   0  0  0  0  0  0  0  0  0  0  0  0
   15.1299    3.6092   -3.1593 C   0  0  0  0  0  0  0  0  0  0  0  0
   16.5876    3.5822   -3.6064 C   0  0  1  0  0  0  0  0  0  0  0  0
   17.4529    4.5222   -2.8166 C   0  0  0  0  0  0  0  0  0  0  0  0
   17.1224    2.1591   -3.5539 C   0  0  0  0  0  0  0  0  0  0  0  0
   12.1035    2.7064   -2.3217 C   0  0  0  0  0  0  0  0  0  0  0  0
   16.5065    0.1117   -2.5525 C   0  0  0  0  0  0  0  0  0  0  0  0
   17.5819    1.8139   -1.2811 C   0  0  0  0  0  0  0  0  0  0  0  0
   12.0641    2.9175   -3.8451 C   0  0  0  0  0  0  0  0  0  0  0  0
   10.7594    3.6559   -4.1985 C   0  0  0  0  0  0  0  0  0  0  0  0
   11.5095    5.9294   -4.5335 C   0  0  0  0  0  0  0  0  0  0  0  0
  1 23  1  0  0  0  0
  1 24  1  0  0  0  0
  1  2  1  0  0  0  0
  3  4  1  0  0  0  0
  3 17  1  0  0  0  0
  4  6  2  0  0  0  0
  4 13  1  0  0  0  0
  5 10  1  0  0  0  0
  5 14  2  0  0  0  0
  6  8  1  0  0  0  0
  7 12  1  0  0  0  0
  7 14  1  0  0  0  0
  7 19  1  0  0  0  0
  8 10  2  0  0  0  0
  9 14  1  0  0  0  0
 10 12  1  0  0  0  0
 11 18  1  0  0  0  0
 11 20  1  0  0  0  0
 11 21  1  0  0  0  0
 12 13  2  0  0  0  0
 13 15  1  0  0  0  0
 15 16  1  0  0  0  0
 16 17  1  0  0  0  0
 16 18  1  1  0  0  0
 19 22  1  0  0  0  0
 22 23  1  0  0  0  0
M  END
>  <CHROM.1>
-159.83109907,-63.75094228,151.55788870,-41.27576972,-69.29344778,67.17172235
13.83562500,4.17630912,-2.33735121,2.83053951,-0.11677167,0.40835394

>  <Name>
ligand

>  <RI>
0

>  <Rbt.Current_Directory>
/home/itssahil/PROJECTS/Mol_Feturizer/New_Systems/rnas/3TZR

>  <Rbt.Executable>
rbdock ($Id: //depot/dev/client3/rdock/2013.1/src/exe/rbdock.cxx#4 $)

>  <Rbt.Library>
libRbt.so (2013.1, Build901 2013/11/27)

>  <Rbt.Parameter_File>
/export/apps/rDock/src/rDock_2013.1_src/data/scripts/dock_solv.prm

>  <Rbt.Receptor>
prm/blind_docking_100.prm

>  <SCORE>
-9.20714

>  <SCORE.INTER>
-0.0937091

>  <SCORE.INTER.CONST>
1

>  <SCORE.INTER.POLAR>
0

>  <SCORE.INTER.ROT>
6

>  <SCORE.INTER.SOLV>
12.154

>  <SCORE.INTER.VDW>
-11.7138

>  <SCORE.INTER.norm>
-0.00390454

>  <SCORE.INTRA>
-9.11343

>  <SCORE.INTRA.DIHEDRAL>
-0.325951

>  <SCORE.INTRA.DIHEDRAL.0>
4.94008

>  <SCORE.INTRA.POLAR>
0

>  <SCORE.INTRA.POLAR.0>
0

>  <SCORE.INTRA.REPUL>
0

>  <SCORE.INTRA.REPUL.0>
0

>  <SCORE.INTRA.SOLV>
3.35251

>  <SCORE.INTRA.SOLV.lig_0>
-31.4704

>  <SCORE.INTRA.VDW>
-10.6267

>  <SCORE.INTRA.VDW.0>
10.2807

>  <SCORE.INTRA.norm>
-0.379726

>  <SCORE.RESTR>
0

>  <SCORE.RESTR.CAVITY>
0

>  <SCORE.RESTR.norm>
0

>  <SCORE.SYSTEM>
0

>  <SCORE.SYSTEM.CONST>
0

>  <SCORE.SYSTEM.DIHEDRAL>
0

>  <SCORE.SYSTEM.SOLV>
0

>  <SCORE.SYSTEM.norm>
0

>  <SCORE.heavy>
24

>  <SCORE.norm>
-0.383631

>  <RMSD>
16.404

$$$$
ligand
 OpenBabel11021811493D
libRbt.so/2013.1/901 2013/11/27
 24 26  0  0  0  0  0  0  0  0999 V2000
   15.4994    4.6139   -3.1530 N   0  0  0  0  0  0  0  0  0  0  0  0
   16.7086    3.9117   -2.7542 C   0  0  0  0  0  0  0  0  0  0  0  0
    8.4113    6.1828   -1.1809 O   0  0  0  0  0  0  0  0  0  0  0  0
    8.5714    5.6266   -2.4430 C   0  0  0  0  0  0  0  0  0  0  0  0
    9.2530    3.8944   -6.2892 N   0  0  0  0  0  0  0  0  0  0  0  0
    7.5337    5.8118   -3.5180 C   0  0  0  0  0  0  0  0  0  0  0  0
   10.8460    3.5528   -4.7429 N   0  0  0  0  0  0  0  0  0  0  0  0
    7.6880    5.2721   -4.8360 C   0  0  0  0  0  0  0  0  0  0  0  0
   11.2210    2.5420   -7.0044 N   0  0  0  0  0  0  0  0  0  0  0  0
    8.8898    4.5200   -5.0884 C   0  0  0  0  0  0  0  0  0  0  0  0
   10.3621    2.7959    0.2789 N   0  0  0  0  0  0  0  0  0  0  0  0
    9.8819    4.3225   -4.0658 C   0  0  0  0  0  0  0  0  0  0  0  0
    9.6853    4.9118   -2.7131 C   0  0  0  0  0  0  0  0  0  0  0  0
   10.4642    3.3098   -6.0581 C   0  0  0  0  0  0  0  0  0  0  0  0
   10.7475    4.7007   -1.6504 C   0  0  0  0  0  0  0  0  0  0  0  0
   10.3515    5.1364   -0.2438 C   0  0  1  0  0  0  0  0  0  0  0  0
    8.8835    5.4292   -0.1202 C   0  0  0  0  0  0  0  0  0  0  0  0
   10.7962    4.0926    0.7695 C   0  0  0  0  0  0  0  0  0  0  0  0
   12.1351    3.1340   -4.1596 C   0  0  0  0  0  0  0  0  0  0  0  0
   11.3613    1.8034    0.6509 C   0  0  0  0  0  0  0  0  0  0  0  0
    9.0964    2.4857    0.9249 C   0  0  0  0  0  0  0  0  0  0  0  0
   13.1695    4.2566   -3.9687 C   0  0  0  0  0  0  0  0  0  0  0  0
   14.3549    3.6916   -3.1637 C   0  0  0  0  0  0  0  0  0  0  0  0
   15.2846    5.7128   -2.2182 C   0  0  0  0  0  0  0  0  0  0  0  0
  1 23  1  0  0  0  0
  1 24  1  0  0  0  0
  1  2  1  0  0  0  0
  3  4  1  0  0  0  0
  3 17  1  0  0  0  0
  4  6  2  0  0  0  0
  4 13  1  0  0  0  0
  5 10  1  0  0  0  0
  5 14  2  0  0  0  0
  6  8  1  0  0  0  0
  7 12  1  0  0  0  0
  7 14  1  0  0  0  0
  7 19  1  0  0  0  0
  8 10  2  0  0  0  0
  9 14  1  0  0  0  0
 10 12  1  0  0  0  0
 11 18  1  0  0  0  0
 11 20  1  0  0  0  0
 11 21  1  0  0  0  0
 12 13  2  0  0  0  0
 13 15  1  0  0  0  0
 15 16  1  0  0  0  0
 16 17  1  0  0  0  0
 16 18  1  1  0  0  0
 19 22  1  0  0  0  0
 22 23  1  0  0  0  0
M  END
>  <CHROM.1>
-162.75869321,-71.22433492,145.21884860,-48.68357084,171.54818432,169.14346115
10.98013588,4.21248640,-2.69810867,-0.24576509,-0.11468369,1.57469612

>  <Name>
ligand

>  <RI>
144

>  <Rbt.Current_Directory>
/home/itssahil/PROJECTS/Mol_Feturizer/New_Systems/rnas/3TZR

>  <Rbt.Executable>
rbdock ($Id: //depot/dev/client3/rdock/2013.1/src/exe/rbdock.cxx#4 $)

>  <Rbt.Library>
libRbt.so (2013.1, Build901 2013/11/27)

>  <Rbt.Parameter_File>
/export/apps/rDock/src/rDock_2013.1_src/data/scripts/dock_solv.prm

>  <Rbt.Receptor>
prm/blind_docking_20.prm

>  <SCORE>
-15.1137

>  <SCORE.INTER>
-5.49123

>  <SCORE.INTER.CONST>
1

>  <SCORE.INTER.POLAR>
-1.61555

>  <SCORE.INTER.ROT>
6

>  <SCORE.INTER.SOLV>
22.0726

>  <SCORE.INTER.VDW>
-13.2332

>  <SCORE.INTER.norm>
-0.228801

>  <SCORE.INTRA>
-10.1736

>  <SCORE.INTRA.DIHEDRAL>
-0.632438

>  <SCORE.INTRA.DIHEDRAL.0>
4.94008

>  <SCORE.INTRA.POLAR>
0

>  <SCORE.INTRA.POLAR.0>
0

>  <SCORE.INTRA.REPUL>
0

>  <SCORE.INTRA.REPUL.0>
0

>  <SCORE.INTRA.SOLV>
-0.10529

>  <SCORE.INTRA.SOLV.lig_0>
-31.4704

>  <SCORE.INTRA.VDW>
-9.8047

>  <SCORE.INTRA.VDW.0>
10.2807

>  <SCORE.INTRA.norm>
-0.423898

>  <SCORE.RESTR>
0.551115

>  <SCORE.RESTR.CAVITY>
0.551115

>  <SCORE.RESTR.norm>
0.0229631

>  <SCORE.SYSTEM>
0

>  <SCORE.SYSTEM.CONST>
0

>  <SCORE.SYSTEM.DIHEDRAL>
0

>  <SCORE.SYSTEM.SOLV>
0

>  <SCORE.SYSTEM.norm>
0

>  <SCORE.heavy>
24

>  <SCORE.norm>
-0.629736

>  <RMSD>
16.447

$$$$
ligand
 OpenBabel11021811493D
libRbt.so/2013.1/901 2013/11/27
 24 26  0  0  0  0  0  0  0  0999 V2000
    9.1391    3.6988   -0.2064 N   0  0  0  0  0  0  0  0  0  0  0  0
    8.6561    5.0156   -0.5898 C   0  0  0  0  0  0  0  0  0  0  0  0
   17.5140    4.0542   -3.9143 O   0  0  0  0  0  0  0  0  0  0  0  0
   16.7140    4.8177   -3.0748 C   0  0  0  0  0  0  0  0  0  0  0  0
   14.1164    7.0290   -0.5015 N   0  0  0  0  0  0  0  0  0  0  0  0
   16.9750    6.2856   -2.8653 C   0  0  0  0  0  0  0  0  0  0  0  0
   13.6612    4.8425   -0.7415 N   0  0  0  0  0  0  0  0  0  0  0  0
   16.1481    7.1011   -2.0266 C   0  0  0  0  0  0  0  0  0  0  0  0
   12.1550    6.1588    0.7669 N   0  0  0  0  0  0  0  0  0  0  0  0
   15.0481    6.4434   -1.3701 C   0  0  0  0  0  0  0  0  0  0  0  0
   17.7738   -0.0427   -3.3871 N   0  0  0  0  0  0  0  0  0  0  0  0
   14.7966    5.0386   -1.5494 C   0  0  0  0  0  0  0  0  0  0  0  0
   15.6754    4.2320   -2.4399 C   0  0  0  0  0  0  0  0  0  0  0  0
   13.2664    6.0279   -0.1305 C   0  0  0  0  0  0  0  0  0  0  0  0
   15.3884    2.7536   -2.6241 C   0  0  0  0  0  0  0  0  0  0  0  0
   16.4711    1.9707   -3.3592 C   0  0  1  0  0  0  0  0  0  0  0  0
   17.7458    2.7500   -3.5128 C   0  0  0  0  0  0  0  0  0  0  0  0
   16.7148    0.6399   -2.6637 C   0  0  0  0  0  0  0  0  0  0  0  0
   12.9320    3.5647   -0.6281 C   0  0  0  0  0  0  0  0  0  0  0  0
   18.5175   -0.8690   -2.4459 C   0  0  0  0  0  0  0  0  0  0  0  0
   17.1440   -0.8859   -4.3909 C   0  0  0  0  0  0  0  0  0  0  0  0
   11.4669    3.5965   -1.0964 C   0  0  0  0  0  0  0  0  0  0  0  0
   10.5657    3.7610    0.1418 C   0  0  0  0  0  0  0  0  0  0  0  0
    8.3391    3.2335    0.9210 C   0  0  0  0  0  0  0  0  0  0  0  0
  1 23  1  0  0  0  0
  1 24  1  0  0  0  0
  1  2  1  0  0  0  0
  3  4  1  0  0  0  0
  3 17  1  0  0  0  0
  4  6  2  0  0  0  0
  4 13  1  0  0  0  0
  5 10  1  0  0  0  0
  5 14  2  0  0  0  0
  6  8  1  0  0  0  0
  7 12  1  0  0  0  0
  7 14  1  0  0  0  0
  7 19  1  0  0  0  0
  8 10  2  0  0  0  0
  9 14  1  0  0  0  0
 10 12  1  0  0  0  0
 11 18  1  0  0  0  0
 11 20  1  0  0  0  0
 11 21  1  0  0  0  0
 12 13  2  0  0  0  0
 13 15  1  0  0  0  0
 15 16  1  0  0  0  0
 16 17  1  0  0  0  0
 16 18  1  1  0  0  0
 19 22  1  0  0  0  0
 22 23  1  0  0  0  0
M  END
>  <CHROM.1>
-86.69895019,-117.87297752,149.35535236,-178.62989348,-98.26566405,-175.67600796
14.40604347,3.69877609,-1.73607178,2.68593093,0.38127554,0.14966926

>  <Name>
ligand

>  <RI>
144

>  <Rbt.Current_Directory>
/home/itssahil/PROJECTS/Mol_Feturizer/New_Systems/rnas/3TZR

>  <Rbt.Executable>
rbdock ($Id: //depot/dev/client3/rdock/2013.1/src/exe/rbdock.cxx#4 $)

>  <Rbt.Library>
libRbt.so (2013.1, Build901 2013/11/27)

>  <Rbt.Parameter_File>
/export/apps/rDock/src/rDock_2013.1_src/data/scripts/dock_solv.prm

>  <Rbt.Receptor>
prm/blind_docking_20.prm

>  <SCORE>
7.52821

>  <SCORE.INTER>
14.8526

>  <SCORE.INTER.CONST>
1

>  <SCORE.INTER.POLAR>
0

>  <SCORE.INTER.ROT>
6

>  <SCORE.INTER.SOLV>
10.4461

>  <SCORE.INTER.VDW>
-1.1803

>  <SCORE.INTER.norm>
0.618858

>  <SCORE.INTRA>
-7.32439

>  <SCORE.INTRA.DIHEDRAL>
2.60658

>  <SCORE.INTRA.DIHEDRAL.0>
4.94008

>  <SCORE.INTRA.POLAR>
0

>  <SCORE.INTRA.POLAR.0>
0

>  <SCORE.INTRA.REPUL>
0

>  <SCORE.INTRA.REPUL.0>
0

>  <SCORE.INTRA.SOLV>
3.61607

>  <SCORE.INTRA.SOLV.lig_0>
-31.4704

>  <SCORE.INTRA.VDW>
-10.4357

>  <SCORE.INTRA.VDW.0>
10.2807

>  <SCORE.INTRA.norm>
-0.305183

>  <SCORE.RESTR>
0

>  <SCORE.RESTR.CAVITY>
0

>  <SCORE.RESTR.norm>
0

>  <SCORE.SYSTEM>
0

>  <SCORE.SYSTEM.CONST>
0

>  <SCORE.SYSTEM.DIHEDRAL>
0

>  <SCORE.SYSTEM.SOLV>
0

>  <SCORE.SYSTEM.norm>
0

>  <SCORE.heavy>
24

>  <SCORE.norm>
0.313675

>  <RMSD>
16.459

$$$$
ligand
 OpenBabel11021811493D
libRbt.so/2013.1/901 2013/11/27
 24 26  0  0  0  0  0  0  0  0999 V2000
   15.4614    4.6608   -3.1613 N   0  0  0  0  0  0  0  0  0  0  0  0
   16.6660    3.9673   -2.7344 C   0  0  0  0  0  0  0  0  0  0  0  0
    8.4092    6.2106   -1.1905 O   0  0  0  0  0  0  0  0  0  0  0  0
    8.5596    5.6505   -2.4521 C   0  0  0  0  0  0  0  0  0  0  0  0
    9.2114    3.9069   -6.2984 N   0  0  0  0  0  0  0  0  0  0  0  0
    7.5121    5.8297   -3.5187 C   0  0  0  0  0  0  0  0  0  0  0  0
   10.8187    3.5741   -4.7649 N   0  0  0  0  0  0  0  0  0  0  0  0
    7.6561    5.2859   -4.8361 C   0  0  0  0  0  0  0  0  0  0  0  0
   11.1762    2.5566   -7.0262 N   0  0  0  0  0  0  0  0  0  0  0  0
    8.8573    4.5358   -5.0965 C   0  0  0  0  0  0  0  0  0  0  0  0
   10.3535    2.8365    0.2792 N   0  0  0  0  0  0  0  0  0  0  0  0
    9.8588    4.3440   -4.0820 C   0  0  0  0  0  0  0  0  0  0  0  0
    9.6726    4.9373   -2.7296 C   0  0  0  0  0  0  0  0  0  0  0  0
   10.4260    3.3259   -6.0759 C   0  0  0  0  0  0  0  0  0  0  0  0
   10.7446    4.7322   -1.6755 C   0  0  0  0  0  0  0  0  0  0  0  0
   10.3599    5.1717   -0.2669 C   0  0  1  0  0  0  0  0  0  0  0  0
    8.8924    5.4617   -0.1315 C   0  0  0  0  0  0  0  0  0  0  0  0
   10.8158    4.1323    0.7459 C   0  0  0  0  0  0  0  0  0  0  0  0
   12.1137    3.1602   -4.1914 C   0  0  0  0  0  0  0  0  0  0  0  0
   11.3481    1.8347    0.6384 C   0  0  0  0  0  0  0  0  0  0  0  0
    9.0993    2.5497    0.9576 C   0  0  0  0  0  0  0  0  0  0  0  0
   13.1423    4.2881   -4.0003 C   0  0  0  0  0  0  0  0  0  0  0  0
   14.3187    3.7364   -3.1733 C   0  0  0  0  0  0  0  0  0  0  0  0
   15.2318    5.7741   -2.2473 C   0  0  0  0  0  0  0  0  0  0  0  0
  1 23  1  0  0  0  0
  1 24  1  0  0  0  0
  1  2  1  0  0  0  0
  3  4  1  0  0  0  0
  3 17  1  0  0  0  0
  4  6  2  0  0  0  0
  4 13  1  0  0  0  0
  5 10  1  0  0  0  0
  5 14  2  0  0  0  0
  6  8  1  0  0  0  0
  7 12  1  0  0  0  0
  7 14  1  0  0  0  0
  7 19  1  0  0  0  0
  8 10  2  0  0  0  0
  9 14  1  0  0  0  0
 10 12  1  0  0  0  0
 11 18  1  0  0  0  0
 11 20  1  0  0  0  0
 11 21  1  0  0  0  0
 12 13  2  0  0  0  0
 13 15  1  0  0  0  0
 15 16  1  0  0  0  0
 16 17  1  0  0  0  0
 16 18  1  1  0  0  0
 19 22  1  0  0  0  0
 22 23  1  0  0  0  0
M  END
>  <CHROM.1>
-162.92435408,-70.64000404,145.27936281,-49.97818408,170.06098935,168.99849446
10.95981255,4.24458478,-2.70981115,-0.23834597,-0.11062639,1.56914347

>  <Name>
ligand

>  <RI>
144

>  <Rbt.Current_Directory>
/home/itssahil/PROJECTS/Mol_Feturizer/New_Systems/rnas/3TZR

>  <Rbt.Executable>
rbdock ($Id: //depot/dev/client3/rdock/2013.1/src/exe/rbdock.cxx#4 $)

>  <Rbt.Library>
libRbt.so (2013.1, Build901 2013/11/27)

>  <Rbt.Parameter_File>
/export/apps/rDock/src/rDock_2013.1_src/data/scripts/dock_solv.prm

>  <Rbt.Receptor>
prm/blind_docking_20.prm

>  <SCORE>
-14.9726

>  <SCORE.INTER>
-5.34888

>  <SCORE.INTER.CONST>
1

>  <SCORE.INTER.POLAR>
-1.61555

>  <SCORE.INTER.ROT>
6

>  <SCORE.INTER.SOLV>
21.9635

>  <SCORE.INTER.VDW>
-13.1019

>  <SCORE.INTER.norm>
-0.22287

>  <SCORE.INTRA>
-10.1468

>  <SCORE.INTRA.DIHEDRAL>
-0.620201

>  <SCORE.INTRA.DIHEDRAL.0>
4.94008

>  <SCORE.INTRA.POLAR>
0

>  <SCORE.INTRA.POLAR.0>
0

>  <SCORE.INTRA.REPUL>
0

>  <SCORE.INTRA.REPUL.0>
0

>  <SCORE.INTRA.SOLV>
-0.111904

>  <SCORE.INTRA.SOLV.lig_0>
-31.4704

>  <SCORE.INTRA.VDW>
-9.78071

>  <SCORE.INTRA.VDW.0>
10.2807

>  <SCORE.INTRA.norm>
-0.422782

>  <SCORE.RESTR>
0.52308

>  <SCORE.RESTR.CAVITY>
0.52308

>  <SCORE.RESTR.norm>
0.021795

>  <SCORE.SYSTEM>
0

>  <SCORE.SYSTEM.CONST>
0

>  <SCORE.SYSTEM.DIHEDRAL>
0

>  <SCORE.SYSTEM.SOLV>
0

>  <SCORE.SYSTEM.norm>
0

>  <SCORE.heavy>
24

>  <SCORE.norm>
-0.623856

>  <RMSD>
16.462

$$$$
ligand
 OpenBabel11021811493D
libRbt.so/2013.1/901 2013/11/27
 24 26  0  0  0  0  0  0  0  0999 V2000
    8.0738    3.8341    1.4605 N   0  0  0  0  0  0  0  0  0  0  0  0
    8.1280    3.7200    2.9090 C   0  0  0  0  0  0  0  0  0  0  0  0
   11.8367    3.6030   -4.7890 O   0  0  0  0  0  0  0  0  0  0  0  0
   10.7582    4.1569   -4.1124 C   0  0  0  0  0  0  0  0  0  0  0  0
    7.5193    5.8034   -1.8635 N   0  0  0  0  0  0  0  0  0  0  0  0
    9.4713    4.4826   -4.8227 C   0  0  0  0  0  0  0  0  0  0  0  0
    9.4052    5.3647   -0.7249 N   0  0  0  0  0  0  0  0  0  0  0  0
    8.3349    5.0284   -4.1424 C   0  0  0  0  0  0  0  0  0  0  0  0
    7.4940    6.3358    0.5715 N   0  0  0  0  0  0  0  0  0  0  0  0
    8.4833    5.2703   -2.7306 C   0  0  0  0  0  0  0  0  0  0  0  0
   15.7075    3.9445   -3.2227 N   0  0  0  0  0  0  0  0  0  0  0  0
    9.7123    4.9780   -2.0427 C   0  0  0  0  0  0  0  0  0  0  0  0
   10.8641    4.4005   -2.7879 C   0  0  0  0  0  0  0  0  0  0  0  0
    8.1041    5.8473   -0.6313 C   0  0  0  0  0  0  0  0  0  0  0  0
   12.1490    4.0899   -2.0431 C   0  0  0  0  0  0  0  0  0  0  0  0
   13.3377    3.7264   -2.9264 C   0  0  1  0  0  0  0  0  0  0  0  0
   13.0911    4.0202   -4.3786 C   0  0  0  0  0  0  0  0  0  0  0  0
   14.5926    4.4245   -2.4244 C   0  0  0  0  0  0  0  0  0  0  0  0
   10.3152    5.1966    0.4244 C   0  0  0  0  0  0  0  0  0  0  0  0
   16.7030    5.0043   -3.3098 C   0  0  0  0  0  0  0  0  0  0  0  0
   16.2730    2.7937   -2.5361 C   0  0  0  0  0  0  0  0  0  0  0  0
   10.5052    3.7493    0.9103 C   0  0  0  0  0  0  0  0  0  0  0  0
    9.1428    3.0337    0.8462 C   0  0  0  0  0  0  0  0  0  0  0  0
    6.7576    3.3860    1.0198 C   0  0  0  0  0  0  0  0  0  0  0  0
  1 23  1  0  0  0  0
  1 24  1  0  0  0  0
  1  2  1  0  0  0  0
  3  4  1  0  0  0  0
  3 17  1  0  0  0  0
  4  6  2  0  0  0  0
  4 13  1  0  0  0  0
  5 10  1  0  0  0  0
  5 14  2  0  0  0  0
  6  8  1  0  0  0  0
  7 12  1  0  0  0  0
  7 14  1  0  0  0  0
  7 19  1  0  0  0  0
  8 10  2  0  0  0  0
  9 14  1  0  0  0  0
 10 12  1  0  0  0  0
 11 18  1  0  0  0  0
 11 20  1  0  0  0  0
 11 21  1  0  0  0  0
 12 13  2  0  0  0  0
 13 15  1  0  0  0  0
 15 16  1  0  0  0  0
 16 17  1  0  0  0  0
 16 18  1  1  0  0  0
 19 22  1  0  0  0  0
 22 23  1  0  0  0  0
M  END
>  <CHROM.1>
-78.92438450,-71.91720392,149.91303919,174.75704389,-39.64097182,-48.16868695
10.76938009,4.39350841,-1.66583185,-2.64139864,0.17649575,-1.41281653

>  <Name>
ligand

>  <RI>
144

>  <Rbt.Current_Directory>
/home/itssahil/PROJECTS/Mol_Feturizer/New_Systems/rnas/3TZR

>  <Rbt.Executable>
rbdock ($Id: //depot/dev/client3/rdock/2013.1/src/exe/rbdock.cxx#4 $)

>  <Rbt.Library>
libRbt.so (2013.1, Build901 2013/11/27)

>  <Rbt.Parameter_File>
/export/apps/rDock/src/rDock_2013.1_src/data/scripts/dock_solv.prm

>  <Rbt.Receptor>
prm/blind_docking_20.prm

>  <SCORE>
-12.4073

>  <SCORE.INTER>
-5.29972

>  <SCORE.INTER.CONST>
1

>  <SCORE.INTER.POLAR>
0

>  <SCORE.INTER.ROT>
6

>  <SCORE.INTER.SOLV>
10.806

>  <SCORE.INTER.VDW>
-14.7351

>  <SCORE.INTER.norm>
-0.220822

>  <SCORE.INTRA>
-7.34701

>  <SCORE.INTRA.DIHEDRAL>
0.0831247

>  <SCORE.INTRA.DIHEDRAL.0>
4.94008

>  <SCORE.INTRA.POLAR>
0

>  <SCORE.INTRA.POLAR.0>
0

>  <SCORE.INTRA.REPUL>
0

>  <SCORE.INTRA.REPUL.0>
0

>  <SCORE.INTRA.SOLV>
5.83896

>  <SCORE.INTRA.SOLV.lig_0>
-31.4704

>  <SCORE.INTRA.VDW>
-10.3081

>  <SCORE.INTRA.VDW.0>
10.2807

>  <SCORE.INTRA.norm>
-0.306125

>  <SCORE.RESTR>
0.239473

>  <SCORE.RESTR.CAVITY>
0.239473

>  <SCORE.RESTR.norm>
0.00997806

>  <SCORE.SYSTEM>
0

>  <SCORE.SYSTEM.CONST>
0

>  <SCORE.SYSTEM.DIHEDRAL>
0

>  <SCORE.SYSTEM.SOLV>
0

>  <SCORE.SYSTEM.norm>
0

>  <SCORE.heavy>
24

>  <SCORE.norm>
-0.516969

>  <RMSD>
16.470

$$$$
ligand
 OpenBabel11021811493D
libRbt.so/2013.1/901 2013/11/27
 24 26  0  0  0  0  0  0  0  0999 V2000
    9.1489    3.6233    1.7392 N   0  0  0  0  0  0  0  0  0  0  0  0
    8.1894    2.8179    1.0010 C   0  0  0  0  0  0  0  0  0  0  0  0
   14.8424    5.7320   -4.5445 O   0  0  0  0  0  0  0  0  0  0  0  0
   13.5163    5.9633   -4.2043 C   0  0  0  0  0  0  0  0  0  0  0  0
    9.4259    6.4945   -3.0884 N   0  0  0  0  0  0  0  0  0  0  0  0
   12.7393    7.1019   -4.8100 C   0  0  0  0  0  0  0  0  0  0  0  0
   10.5108    4.7811   -2.1226 N   0  0  0  0  0  0  0  0  0  0  0  0
   11.3627    7.3451   -4.4970 C   0  0  0  0  0  0  0  0  0  0  0  0
    8.1126    5.1159   -1.4797 N   0  0  0  0  0  0  0  0  0  0  0  0
   10.7482    6.4492   -3.5519 C   0  0  0  0  0  0  0  0  0  0  0  0
   17.0004    2.7495   -2.0054 N   0  0  0  0  0  0  0  0  0  0  0  0
   11.4832    5.3668   -2.9543 C   0  0  0  0  0  0  0  0  0  0  0  0
   12.9094    5.1444   -3.3179 C   0  0  0  0  0  0  0  0  0  0  0  0
    9.2973    5.4547   -2.2140 C   0  0  0  0  0  0  0  0  0  0  0  0
   13.6655    3.9916   -2.6842 C   0  0  0  0  0  0  0  0  0  0  0  0
   15.1695    3.9876   -2.9360 C   0  0  1  0  0  0  0  0  0  0  0  0
   15.6614    5.2788   -3.5248 C   0  0  0  0  0  0  0  0  0  0  0  0
   15.9116    3.6445   -1.6532 C   0  0  0  0  0  0  0  0  0  0  0  0
   10.7258    3.5580   -1.3257 C   0  0  0  0  0  0  0  0  0  0  0  0
   17.9010    2.6469   -0.8651 C   0  0  0  0  0  0  0  0  0  0  0  0
   16.4200    1.4471   -2.2925 C   0  0  0  0  0  0  0  0  0  0  0  0
   11.0695    3.7871    0.1563 C   0  0  0  0  0  0  0  0  0  0  0  0
    9.8830    4.5079    0.8233 C   0  0  0  0  0  0  0  0  0  0  0  0
    8.4196    4.3892    2.7436 C   0  0  0  0  0  0  0  0  0  0  0  0
  1 23  1  0  0  0  0
  1 24  1  0  0  0  0
  1  2  1  0  0  0  0
  3  4  1  0  0  0  0
  3 17  1  0  0  0  0
  4  6  2  0  0  0  0
  4 13  1  0  0  0  0
  5 10  1  0  0  0  0
  5 14  2  0  0  0  0
  6  8  1  0  0  0  0
  7 12  1  0  0  0  0
  7 14  1  0  0  0  0
  7 19  1  0  0  0  0
  8 10  2  0  0  0  0
  9 14  1  0  0  0  0
 10 12  1  0  0  0  0
 11 18  1  0  0  0  0
 11 20  1  0  0  0  0
 11 21  1  0  0  0  0
 12 13  2  0  0  0  0
 13 15  1  0  0  0  0
 15 16  1  0  0  0  0
 16 17  1  0  0  0  0
 16 18  1  1  0  0  0
 19 22  1  0  0  0  0
 22 23  1  0  0  0  0
M  END
>  <CHROM.1>
-83.40623097,98.54937846,167.28019518,139.16372414,62.08042359,108.65377038
12.29061266,4.56335269,-1.89830923,-2.88286767,0.30189652,-0.94540440

>  <Name>
ligand

>  <RI>
144

>  <Rbt.Current_Directory>
/home/itssahil/PROJECTS/Mol_Feturizer/New_Systems/rnas/3TZR

>  <Rbt.Executable>
rbdock ($Id: //depot/dev/client3/rdock/2013.1/src/exe/rbdock.cxx#4 $)

>  <Rbt.Library>
libRbt.so (2013.1, Build901 2013/11/27)

>  <Rbt.Parameter_File>
/export/apps/rDock/src/rDock_2013.1_src/data/scripts/dock_solv.prm

>  <Rbt.Receptor>
prm/blind_docking_20.prm

>  <SCORE>
-6.32302

>  <SCORE.INTER>
-1.7356

>  <SCORE.INTER.CONST>
1

>  <SCORE.INTER.POLAR>
0

>  <SCORE.INTER.ROT>
6

>  <SCORE.INTER.SOLV>
12.3066

>  <SCORE.INTER.VDW>
-12.8593

>  <SCORE.INTER.norm>
-0.0723166

>  <SCORE.INTRA>
-4.58935

>  <SCORE.INTRA.DIHEDRAL>
6.57113

>  <SCORE.INTRA.DIHEDRAL.0>
4.94008

>  <SCORE.INTRA.POLAR>
0

>  <SCORE.INTRA.POLAR.0>
0

>  <SCORE.INTRA.REPUL>
0

>  <SCORE.INTRA.REPUL.0>
0

>  <SCORE.INTRA.SOLV>
4.44876

>  <SCORE.INTRA.SOLV.lig_0>
-31.4704

>  <SCORE.INTRA.VDW>
-10.0993

>  <SCORE.INTRA.VDW.0>
10.2807

>  <SCORE.INTRA.norm>
-0.191223

>  <SCORE.RESTR>
0.0019315

>  <SCORE.RESTR.CAVITY>
0.0019315

>  <SCORE.RESTR.norm>
8.04794e-05

>  <SCORE.SYSTEM>
0

>  <SCORE.SYSTEM.CONST>
0

>  <SCORE.SYSTEM.DIHEDRAL>
0

>  <SCORE.SYSTEM.SOLV>
0

>  <SCORE.SYSTEM.norm>
0

>  <SCORE.heavy>
24

>  <SCORE.norm>
-0.263459

>  <RMSD>
16.488

$$$$
ligand
 OpenBabel11021811493D
libRbt.so/2013.1/901 2013/11/27
 24 26  0  0  0  0  0  0  0  0999 V2000
    7.9694    3.9995    1.6320 N   0  0  0  0  0  0  0  0  0  0  0  0
    8.2868    3.8207    3.0397 C   0  0  0  0  0  0  0  0  0  0  0  0
   11.2242    3.3457   -5.1443 O   0  0  0  0  0  0  0  0  0  0  0  0
   10.2707    4.0306   -4.4030 C   0  0  0  0  0  0  0  0  0  0  0  0
    7.4134    6.0631   -1.9609 N   0  0  0  0  0  0  0  0  0  0  0  0
    9.0198    4.5707   -5.0437 C   0  0  0  0  0  0  0  0  0  0  0  0
    9.2563    5.3062   -0.9233 N   0  0  0  0  0  0  0  0  0  0  0  0
    8.0081    5.2561   -4.2963 C   0  0  0  0  0  0  0  0  0  0  0  0
    7.5689    6.5062    0.4871 N   0  0  0  0  0  0  0  0  0  0  0  0
    8.2492    5.4226   -2.8865 C   0  0  0  0  0  0  0  0  0  0  0  0
   14.1020    5.1067   -2.7722 N   0  0  0  0  0  0  0  0  0  0  0  0
    9.4469    4.9250   -2.2645 C   0  0  0  0  0  0  0  0  0  0  0  0
   10.4665    4.2082   -3.0783 C   0  0  0  0  0  0  0  0  0  0  0  0
    8.0482    5.9748   -0.7561 C   0  0  0  0  0  0  0  0  0  0  0  0
   11.7190    3.6821   -2.4026 C   0  0  0  0  0  0  0  0  0  0  0  0
   12.8017    3.1762   -3.3498 C   0  0  1  0  0  0  0  0  0  0  0  0
   12.5431    3.5552   -4.7800 C   0  0  0  0  0  0  0  0  0  0  0  0
   14.1674    3.6599   -2.8860 C   0  0  0  0  0  0  0  0  0  0  0  0
   10.1768    4.9627    0.1776 C   0  0  0  0  0  0  0  0  0  0  0  0
   14.2217    5.4651   -1.3654 C   0  0  0  0  0  0  0  0  0  0  0  0
   15.2250    5.6547   -3.5166 C   0  0  0  0  0  0  0  0  0  0  0  0
   10.1799    3.4830    0.5985 C   0  0  0  0  0  0  0  0  0  0  0  0
    8.7215    3.0372    0.8141 C   0  0  0  0  0  0  0  0  0  0  0  0
    6.5309    3.8244    1.4661 C   0  0  0  0  0  0  0  0  0  0  0  0
  1 23  1  0  0  0  0
  1 24  1  0  0  0  0
  1  2  1  0  0  0  0
  3  4  1  0  0  0  0
  3 17  1  0  0  0  0
  4  6  2  0  0  0  0
  4 13  1  0  0  0  0
  5 10  1  0  0  0  0
  5 14  2  0  0  0  0
  6  8  1  0  0  0  0
  7 12  1  0  0  0  0
  7 14  1  0  0  0  0
  7 19  1  0  0  0  0
  8 10  2  0  0  0  0
  9 14  1  0  0  0  0
 10 12  1  0  0  0  0
 11 18  1  0  0  0  0
 11 20  1  0  0  0  0
 11 21  1  0  0  0  0
 12 13  2  0  0  0  0
 13 15  1  0  0  0  0
 15 16  1  0  0  0  0
 16 17  1  0  0  0  0
 16 18  1  1  0  0  0
 19 22  1  0  0  0  0
 22 23  1  0  0  0  0
M  END
>  <CHROM.1>
-79.08640180,-71.07594277,112.85372096,-55.01837060,-49.73792885,-47.42582857
10.29271563,4.52581644,-1.75011243,-2.44094384,0.09436249,-1.51248106

>  <Name>
ligand

>  <RI>
144

>  <Rbt.Current_Directory>
/home/itssahil/PROJECTS/Mol_Feturizer/New_Systems/rnas/3TZR

>  <Rbt.Executable>
rbdock ($Id: //depot/dev/client3/rdock/2013.1/src/exe/rbdock.cxx#4 $)

>  <Rbt.Library>
libRbt.so (2013.1, Build901 2013/11/27)

>  <Rbt.Parameter_File>
/export/apps/rDock/src/rDock_2013.1_src/data/scripts/dock_solv.prm

>  <Rbt.Receptor>
prm/blind_docking_20.prm

>  <SCORE>
-12.8826

>  <SCORE.INTER>
-5.63396

>  <SCORE.INTER.CONST>
1

>  <SCORE.INTER.POLAR>
0

>  <SCORE.INTER.ROT>
6

>  <SCORE.INTER.SOLV>
10.4504

>  <SCORE.INTER.VDW>
-14.8394

>  <SCORE.INTER.norm>
-0.234748

>  <SCORE.INTRA>
-7.6543

>  <SCORE.INTRA.DIHEDRAL>
0.146912

>  <SCORE.INTRA.DIHEDRAL.0>
4.94008

>  <SCORE.INTRA.POLAR>
0

>  <SCORE.INTRA.POLAR.0>
0

>  <SCORE.INTRA.REPUL>
0

>  <SCORE.INTRA.REPUL.0>
0

>  <SCORE.INTRA.SOLV>
5.76303

>  <SCORE.INTRA.SOLV.lig_0>
-31.4704

>  <SCORE.INTRA.VDW>
-10.6093

>  <SCORE.INTRA.VDW.0>
10.2807

>  <SCORE.INTRA.norm>
-0.318929

>  <SCORE.RESTR>
0.405668

>  <SCORE.RESTR.CAVITY>
0.405668

>  <SCORE.RESTR.norm>
0.0169028

>  <SCORE.SYSTEM>
0

>  <SCORE.SYSTEM.CONST>
0

>  <SCORE.SYSTEM.DIHEDRAL>
0

>  <SCORE.SYSTEM.SOLV>
0

>  <SCORE.SYSTEM.norm>
0

>  <SCORE.heavy>
24

>  <SCORE.norm>
-0.536775

>  <RMSD>
16.527

$$$$
ligand
 OpenBabel11021811493D
libRbt.so/2013.1/901 2013/11/27
 24 26  0  0  0  0  0  0  0  0999 V2000
    9.9470    3.4626    0.5495 N   0  0  0  0  0  0  0  0  0  0  0  0
    8.6355    3.0881    1.0535 C   0  0  0  0  0  0  0  0  0  0  0  0
   11.8098    3.4031   -4.2361 O   0  0  0  0  0  0  0  0  0  0  0  0
   10.7566    4.0730   -3.6279 C   0  0  0  0  0  0  0  0  0  0  0  0
    7.6138    6.1287   -1.5893 N   0  0  0  0  0  0  0  0  0  0  0  0
    9.3923    4.1276   -4.2623 C   0  0  0  0  0  0  0  0  0  0  0  0
    9.6189    6.1128   -0.5768 N   0  0  0  0  0  0  0  0  0  0  0  0
    8.2825    4.7880   -3.6422 C   0  0  0  0  0  0  0  0  0  0  0  0
    7.7617    7.3168    0.5970 N   0  0  0  0  0  0  0  0  0  0  0  0
    8.5351    5.4204   -2.3735 C   0  0  0  0  0  0  0  0  0  0  0  0
   15.7825    4.3151   -3.1818 N   0  0  0  0  0  0  0  0  0  0  0  0
    9.8375    5.3888   -1.7637 C   0  0  0  0  0  0  0  0  0  0  0  0
   10.9593    4.6806   -2.4387 C   0  0  0  0  0  0  0  0  0  0  0  0
    8.2990    6.5413   -0.4836 C   0  0  0  0  0  0  0  0  0  0  0  0
   12.3235    4.6500   -1.7752 C   0  0  0  0  0  0  0  0  0  0  0  0
   13.4542    4.1104   -2.6446 C   0  0  1  0  0  0  0  0  0  0  0  0
   13.0611    3.9761   -4.0880 C   0  0  0  0  0  0  0  0  0  0  0  0
   14.6934    4.9782   -2.4855 C   0  0  0  0  0  0  0  0  0  0  0  0
   10.6355    6.3141    0.4736 C   0  0  0  0  0  0  0  0  0  0  0  0
   16.8280    5.2951   -3.4431 C   0  0  0  0  0  0  0  0  0  0  0  0
   16.2927    3.2738   -2.3038 C   0  0  0  0  0  0  0  0  0  0  0  0
   10.3702    5.5794    1.7990 C   0  0  0  0  0  0  0  0  0  0  0  0
   10.7396    4.0957    1.6132 C   0  0  0  0  0  0  0  0  0  0  0  0
   10.6002    2.2587    0.0481 C   0  0  0  0  0  0  0  0  0  0  0  0
  1 23  1  0  0  0  0
  1 24  1  0  0  0  0
  1  2  1  0  0  0  0
  3  4  1  0  0  0  0
  3 17  1  0  0  0  0
  4  6  2  0  0  0  0
  4 13  1  0  0  0  0
  5 10  1  0  0  0  0
  5 14  2  0  0  0  0
  6  8  1  0  0  0  0
  7 12  1  0  0  0  0
  7 14  1  0  0  0  0
  7 19  1  0  0  0  0
  8 10  2  0  0  0  0
  9 14  1  0  0  0  0
 10 12  1  0  0  0  0
 11 18  1  0  0  0  0
 11 20  1  0  0  0  0
 11 21  1  0  0  0  0
 12 13  2  0  0  0  0
 13 15  1  0  0  0  0
 15 16  1  0  0  0  0
 16 17  1  0  0  0  0
 16 18  1  6  0  0  0
 19 22  1  0  0  0  0
 22 23  1  0  0  0  0
M  END
>  <CHROM.1>
-80.79302452,-110.86615202,160.84884169,172.14276116,77.38630224,-59.86705025
11.18618891,4.69044936,-1.57835614,-2.70202263,0.17072904,-1.59508867

>  <Name>
ligand

>  <RI>
0

>  <Rbt.Current_Directory>
/home/itssahil/PROJECTS/Mol_Feturizer/New_Systems/rnas/3TZR

>  <Rbt.Executable>
rbdock ($Id: //depot/dev/client3/rdock/2013.1/src/exe/rbdock.cxx#4 $)

>  <Rbt.Library>
libRbt.so (2013.1, Build901 2013/11/27)

>  <Rbt.Parameter_File>
/export/apps/rDock/src/rDock_2013.1_src/data/scripts/dock_solv.prm

>  <Rbt.Receptor>
prm/blind_docking_80.prm

>  <SCORE>
-15.6326

>  <SCORE.INTER>
-4.68321

>  <SCORE.INTER.CONST>
1

>  <SCORE.INTER.POLAR>
0

>  <SCORE.INTER.ROT>
6

>  <SCORE.INTER.SOLV>
10.1001

>  <SCORE.INTER.VDW>
-14.0888

>  <SCORE.INTER.norm>
-0.195134

>  <SCORE.INTRA>
-11.6695

>  <SCORE.INTRA.DIHEDRAL>
-1.18023

>  <SCORE.INTRA.DIHEDRAL.0>
4.94008

>  <SCORE.INTRA.POLAR>
0

>  <SCORE.INTRA.POLAR.0>
0

>  <SCORE.INTRA.REPUL>
0

>  <SCORE.INTRA.REPUL.0>
0

>  <SCORE.INTRA.SOLV>
1.8394

>  <SCORE.INTRA.SOLV.lig_0>
-31.4704

>  <SCORE.INTRA.VDW>
-11.999

>  <SCORE.INTRA.VDW.0>
10.2807

>  <SCORE.INTRA.norm>
-0.486228

>  <SCORE.RESTR>
0.720026

>  <SCORE.RESTR.CAVITY>
0.720026

>  <SCORE.RESTR.norm>
0.0300011

>  <SCORE.SYSTEM>
0

>  <SCORE.SYSTEM.CONST>
0

>  <SCORE.SYSTEM.DIHEDRAL>
0

>  <SCORE.SYSTEM.SOLV>
0

>  <SCORE.SYSTEM.norm>
0

>  <SCORE.heavy>
24

>  <SCORE.norm>
-0.65136

>  <RMSD>
16.813

$$$$
ligand
 OpenBabel11021811493D
libRbt.so/2013.1/901 2013/11/27
 24 26  0  0  0  0  0  0  0  0999 V2000
   12.8107    5.4219    0.5474 N   0  0  0  0  0  0  0  0  0  0  0  0
   13.9359    5.8536    1.3608 C   0  0  0  0  0  0  0  0  0  0  0  0
   11.8884    4.5537   -4.8276 O   0  0  0  0  0  0  0  0  0  0  0  0
   10.8455    4.6271   -3.9140 C   0  0  0  0  0  0  0  0  0  0  0  0
    7.7300    4.7254   -0.9912 N   0  0  0  0  0  0  0  0  0  0  0  0
    9.4988    5.1753   -4.3049 C   0  0  0  0  0  0  0  0  0  0  0  0
    9.7095    3.9072   -0.3147 N   0  0  0  0  0  0  0  0  0  0  0  0
    8.3987    5.2359   -3.3894 C   0  0  0  0  0  0  0  0  0  0  0  0
    7.8688    3.9799    1.3833 N   0  0  0  0  0  0  0  0  0  0  0  0
    8.6439    4.7567   -2.0538 C   0  0  0  0  0  0  0  0  0  0  0  0
   15.8949    4.1024   -3.4233 N   0  0  0  0  0  0  0  0  0  0  0  0
    9.9301    4.2447   -1.6629 C   0  0  0  0  0  0  0  0  0  0  0  0
   11.0418    4.1897   -2.6512 C   0  0  0  0  0  0  0  0  0  0  0  0
    8.4035    4.1925    0.0693 C   0  0  0  0  0  0  0  0  0  0  0  0
   12.3885    3.6375   -2.2228 C   0  0  0  0  0  0  0  0  0  0  0  0
   13.5194    3.8387   -3.2258 C   0  0  1  0  0  0  0  0  0  0  0  0
   13.1552    4.7956   -4.3247 C   0  0  0  0  0  0  0  0  0  0  0  0
   14.7841    4.2785   -2.5037 C   0  0  0  0  0  0  0  0  0  0  0  0
   10.7081    3.2532    0.5528 C   0  0  0  0  0  0  0  0  0  0  0  0
   16.8120    5.2222   -3.2594 C   0  0  0  0  0  0  0  0  0  0  0  0
   16.5649    2.8617   -3.0667 C   0  0  0  0  0  0  0  0  0  0  0  0
   11.1342    4.0582    1.7927 C   0  0  0  0  0  0  0  0  0  0  0  0
   11.5691    5.4624    1.3330 C   0  0  0  0  0  0  0  0  0  0  0  0
   12.7297    6.2985   -0.6156 C   0  0  0  0  0  0  0  0  0  0  0  0
  1 23  1  0  0  0  0
  1 24  1  0  0  0  0
  1  2  1  0  0  0  0
  3  4  1  0  0  0  0
  3 17  1  0  0  0  0
  4  6  2  0  0  0  0
  4 13  1  0  0  0  0
  5 10  1  0  0  0  0
  5 14  2  0  0  0  0
  6  8  1  0  0  0  0
  7 12  1  0  0  0  0
  7 14  1  0  0  0  0
  7 19  1  0  0  0  0
  8 10  2  0  0  0  0
  9 14  1  0  0  0  0
 10 12  1  0  0  0  0
 11 18  1  0  0  0  0
 11 20  1  0  0  0  0
 11 21  1  0  0  0  0
 12 13  2  0  0  0  0
 13 15  1  0  0  0  0
 15 16  1  0  0  0  0
 16 17  1  0  0  0  0
 16 18  1  1  0  0  0
 19 22  1  0  0  0  0
 22 23  1  0  0  0  0
M  END
>  <CHROM.1>
-102.81425573,118.96303270,141.08772699,164.73235539,-52.35818465,-68.09184228
11.79403284,4.53239698,-1.62716775,-0.42224319,0.00557929,1.51820603

>  <Name>
ligand

>  <RI>
144

>  <Rbt.Current_Directory>
/home/itssahil/PROJECTS/Mol_Feturizer/New_Systems/rnas/3TZR

>  <Rbt.Executable>
rbdock ($Id: //depot/dev/client3/rdock/2013.1/src/exe/rbdock.cxx#4 $)

>  <Rbt.Library>
libRbt.so (2013.1, Build901 2013/11/27)

>  <Rbt.Parameter_File>
/export/apps/rDock/src/rDock_2013.1_src/data/scripts/dock_solv.prm

>  <Rbt.Receptor>
prm/blind_docking_20.prm

>  <SCORE>
-15.6807

>  <SCORE.INTER>
-4.91214

>  <SCORE.INTER.CONST>
1

>  <SCORE.INTER.POLAR>
0

>  <SCORE.INTER.ROT>
6

>  <SCORE.INTER.SOLV>
13.0454

>  <SCORE.INTER.VDW>
-15.2232

>  <SCORE.INTER.norm>
-0.204672

>  <SCORE.INTRA>
-10.7686

>  <SCORE.INTRA.DIHEDRAL>
1.34628

>  <SCORE.INTRA.DIHEDRAL.0>
4.94008

>  <SCORE.INTRA.POLAR>
0

>  <SCORE.INTRA.POLAR.0>
0

>  <SCORE.INTRA.REPUL>
0

>  <SCORE.INTRA.REPUL.0>
0

>  <SCORE.INTRA.SOLV>
1.87671

>  <SCORE.INTRA.SOLV.lig_0>
-31.4704

>  <SCORE.INTRA.VDW>
-12.3801

>  <SCORE.INTRA.VDW.0>
10.2807

>  <SCORE.INTRA.norm>
-0.44869

>  <SCORE.RESTR>
0

>  <SCORE.RESTR.CAVITY>
0

>  <SCORE.RESTR.norm>
0

>  <SCORE.SYSTEM>
0

>  <SCORE.SYSTEM.CONST>
0

>  <SCORE.SYSTEM.DIHEDRAL>
0

>  <SCORE.SYSTEM.SOLV>
0

>  <SCORE.SYSTEM.norm>
0

>  <SCORE.heavy>
24

>  <SCORE.norm>
-0.653362

>  <RMSD>
16.883

$$$$
ligand
 OpenBabel11021811493D
libRbt.so/2013.1/901 2013/11/27
 24 26  0  0  0  0  0  0  0  0999 V2000
   11.1608    5.9224    0.4860 N   0  0  0  0  0  0  0  0  0  0  0  0
   11.7010    6.7838   -0.5534 C   0  0  0  0  0  0  0  0  0  0  0  0
   12.0446    5.1961   -4.8036 O   0  0  0  0  0  0  0  0  0  0  0  0
   10.9838    5.1224   -3.9108 C   0  0  0  0  0  0  0  0  0  0  0  0
    7.8074    4.7462   -1.0774 N   0  0  0  0  0  0  0  0  0  0  0  0
    9.6614    5.7772   -4.2098 C   0  0  0  0  0  0  0  0  0  0  0  0
    9.7486    3.7517   -0.5404 N   0  0  0  0  0  0  0  0  0  0  0  0
    8.5431    5.6923   -3.3185 C   0  0  0  0  0  0  0  0  0  0  0  0
    7.8730    3.5494    1.1082 N   0  0  0  0  0  0  0  0  0  0  0  0
    8.7454    4.9554   -2.0981 C   0  0  0  0  0  0  0  0  0  0  0  0
   15.9937    4.4523   -3.4592 N   0  0  0  0  0  0  0  0  0  0  0  0
   10.0083    4.3380   -1.7931 C   0  0  0  0  0  0  0  0  0  0  0  0
   11.1400    4.4421   -2.7544 C   0  0  0  0  0  0  0  0  0  0  0  0
    8.4425    3.9968   -0.1301 C   0  0  0  0  0  0  0  0  0  0  0  0
   12.4615    3.7760   -2.4194 C   0  0  0  0  0  0  0  0  0  0  0  0
   13.6196    4.1336   -3.3448 C   0  0  1  0  0  0  0  0  0  0  0  0
   13.3058    5.2965   -4.2421 C   0  0  0  0  0  0  0  0  0  0  0  0
   14.8790    4.3856   -2.5298 C   0  0  0  0  0  0  0  0  0  0  0  0
   10.7096    2.9112    0.1995 C   0  0  0  0  0  0  0  0  0  0  0  0
   16.6595    5.7368   -3.2903 C   0  0  0  0  0  0  0  0  0  0  0  0
   16.9103    3.3750   -3.1202 C   0  0  0  0  0  0  0  0  0  0  0  0
   11.4310    3.6050    1.3679 C   0  0  0  0  0  0  0  0  0  0  0  0
   12.1266    4.8681    0.8267 C   0  0  0  0  0  0  0  0  0  0  0  0
   10.8511    6.7512    1.6455 C   0  0  0  0  0  0  0  0  0  0  0  0
  1 23  1  0  0  0  0
  1 24  1  0  0  0  0
  1  2  1  0  0  0  0
  3  4  1  0  0  0  0
  3 17  1  0  0  0  0
  4  6  2  0  0  0  0
  4 13  1  0  0  0  0
  5 10  1  0  0  0  0
  5 14  2  0  0  0  0
  6  8  1  0  0  0  0
  7 12  1  0  0  0  0
  7 14  1  0  0  0  0
  7 19  1  0  0  0  0
  8 10  2  0  0  0  0
  9 14  1  0  0  0  0
 10 12  1  0  0  0  0
 11 18  1  0  0  0  0
 11 20  1  0  0  0  0
 11 21  1  0  0  0  0
 12 13  2  0  0  0  0
 13 15  1  0  0  0  0
 15 16  1  0  0  0  0
 16 17  1  0  0  0  0
 16 18  1  1  0  0  0
 19 22  1  0  0  0  0
 22 23  1  0  0  0  0
M  END
>  <CHROM.1>
-153.01587334,102.36192970,122.90697659,168.70351978,-55.60144353,71.59334263
11.64269693,4.74064519,-1.72026814,-2.65666176,0.04725199,-1.47511211

>  <Name>
ligand

>  <RI>
0

>  <Rbt.Current_Directory>
/home/itssahil/PROJECTS/Mol_Feturizer/New_Systems/rnas/3TZR

>  <Rbt.Executable>
rbdock ($Id: //depot/dev/client3/rdock/2013.1/src/exe/rbdock.cxx#4 $)

>  <Rbt.Library>
libRbt.so (2013.1, Build901 2013/11/27)

>  <Rbt.Parameter_File>
/export/apps/rDock/src/rDock_2013.1_src/data/scripts/dock_solv.prm

>  <Rbt.Receptor>
prm/blind_docking_40.prm

>  <SCORE>
-15.7488

>  <SCORE.INTER>
-3.79052

>  <SCORE.INTER.CONST>
1

>  <SCORE.INTER.POLAR>
0

>  <SCORE.INTER.ROT>
6

>  <SCORE.INTER.SOLV>
13.0508

>  <SCORE.INTER.VDW>
-14.4773

>  <SCORE.INTER.norm>
-0.157938

>  <SCORE.INTRA>
-11.9585

>  <SCORE.INTRA.DIHEDRAL>
0.878462

>  <SCORE.INTRA.DIHEDRAL.0>
4.94008

>  <SCORE.INTRA.POLAR>
0

>  <SCORE.INTRA.POLAR.0>
0

>  <SCORE.INTRA.REPUL>
0

>  <SCORE.INTRA.REPUL.0>
0

>  <SCORE.INTRA.SOLV>
1.89665

>  <SCORE.INTRA.SOLV.lig_0>
-31.4704

>  <SCORE.INTRA.VDW>
-13.346

>  <SCORE.INTRA.VDW.0>
10.2807

>  <SCORE.INTRA.norm>
-0.498269

>  <SCORE.RESTR>
0.000187408

>  <SCORE.RESTR.CAVITY>
0.000187408

>  <SCORE.RESTR.norm>
7.80867e-06

>  <SCORE.SYSTEM>
0

>  <SCORE.SYSTEM.CONST>
0

>  <SCORE.SYSTEM.DIHEDRAL>
0

>  <SCORE.SYSTEM.SOLV>
0

>  <SCORE.SYSTEM.norm>
0

>  <SCORE.heavy>
24

>  <SCORE.norm>
-0.656199

>  <RMSD>
16.938

$$$$
ligand
 OpenBabel11021811493D
libRbt.so/2013.1/901 2013/11/27
 24 26  0  0  0  0  0  0  0  0999 V2000
   16.0985    3.6968   -3.2244 N   0  0  0  0  0  0  0  0  0  0  0  0
   17.0814    2.8452   -2.5739 C   0  0  0  0  0  0  0  0  0  0  0  0
    7.8173    6.2404   -1.0130 O   0  0  0  0  0  0  0  0  0  0  0  0
    8.2846    5.6924   -2.2001 C   0  0  0  0  0  0  0  0  0  0  0  0
    9.9003    3.9999   -5.7755 N   0  0  0  0  0  0  0  0  0  0  0  0
    7.4913    5.7940   -3.4757 C   0  0  0  0  0  0  0  0  0  0  0  0
   11.1448    3.7863   -3.9178 N   0  0  0  0  0  0  0  0  0  0  0  0
    7.9638    5.2618   -4.7189 C   0  0  0  0  0  0  0  0  0  0  0  0
   12.0691    2.7969   -6.0258 N   0  0  0  0  0  0  0  0  0  0  0  0
    9.2432    4.6016   -4.6931 C   0  0  0  0  0  0  0  0  0  0  0  0
    8.6829    4.2492    2.2714 N   0  0  0  0  0  0  0  0  0  0  0  0
   10.0044    4.4840   -3.4783 C   0  0  0  0  0  0  0  0  0  0  0  0
    9.4795    5.0626   -2.2112 C   0  0  0  0  0  0  0  0  0  0  0  0
   11.0730    3.5095   -5.2790 C   0  0  0  0  0  0  0  0  0  0  0  0
   10.3014    4.9370   -0.9420 C   0  0  0  0  0  0  0  0  0  0  0  0
    9.5819    5.3476    0.3383 C   0  0  1  0  0  0  0  0  0  0  0  0
    8.1043    5.5293    0.1393 C   0  0  0  0  0  0  0  0  0  0  0  0
    9.8736    4.3448    1.4444 C   0  0  0  0  0  0  0  0  0  0  0  0
   12.3055    3.4686   -3.0640 C   0  0  0  0  0  0  0  0  0  0  0  0
    8.1057    2.9230    2.0980 C   0  0  0  0  0  0  0  0  0  0  0  0
    9.0959    4.4288    3.6543 C   0  0  0  0  0  0  0  0  0  0  0  0
   13.6492    4.0543   -3.5312 C   0  0  0  0  0  0  0  0  0  0  0  0
   14.7664    3.4707   -2.6459 C   0  0  0  0  0  0  0  0  0  0  0  0
   16.5195    5.0833   -3.0577 C   0  0  0  0  0  0  0  0  0  0  0  0
  1 23  1  0  0  0  0
  1 24  1  0  0  0  0
  1  2  1  0  0  0  0
  3  4  1  0  0  0  0
  3 17  1  0  0  0  0
  4  6  2  0  0  0  0
  4 13  1  0  0  0  0
  5 10  1  0  0  0  0
  5 14  2  0  0  0  0
  6  8  1  0  0  0  0
  7 12  1  0  0  0  0
  7 14  1  0  0  0  0
  7 19  1  0  0  0  0
  8 10  2  0  0  0  0
  9 14  1  0  0  0  0
 10 12  1  0  0  0  0
 11 18  1  0  0  0  0
 11 20  1  0  0  0  0
 11 21  1  0  0  0  0
 12 13  2  0  0  0  0
 13 15  1  0  0  0  0
 15 16  1  0  0  0  0
 16 17  1  0  0  0  0
 16 18  1  1  0  0  0
 19 22  1  0  0  0  0
 22 23  1  0  0  0  0
M  END
>  <CHROM.1>
-164.83736085,-119.89868394,112.24712125,-146.12212029,-172.34830694,165.40634537
10.85910063,4.37938208,-2.06790421,-0.61931581,-0.19056808,1.58004691

>  <Name>
ligand

>  <RI>
144

>  <Rbt.Current_Directory>
/home/itssahil/PROJECTS/Mol_Feturizer/New_Systems/rnas/3TZR

>  <Rbt.Executable>
rbdock ($Id: //depot/dev/client3/rdock/2013.1/src/exe/rbdock.cxx#4 $)

>  <Rbt.Library>
libRbt.so (2013.1, Build901 2013/11/27)

>  <Rbt.Parameter_File>
/export/apps/rDock/src/rDock_2013.1_src/data/scripts/dock_solv.prm

>  <Rbt.Receptor>
prm/blind_docking_20.prm

>  <SCORE>
-6.08487

>  <SCORE.INTER>
-0.38293

>  <SCORE.INTER.CONST>
1

>  <SCORE.INTER.POLAR>
0

>  <SCORE.INTER.ROT>
6

>  <SCORE.INTER.SOLV>
18.0635

>  <SCORE.INTER.VDW>
-13.8764

>  <SCORE.INTER.norm>
-0.0159554

>  <SCORE.INTRA>
-5.97955

>  <SCORE.INTRA.DIHEDRAL>
3.02578

>  <SCORE.INTRA.DIHEDRAL.0>
4.94008

>  <SCORE.INTRA.POLAR>
0

>  <SCORE.INTRA.POLAR.0>
0

>  <SCORE.INTRA.REPUL>
0

>  <SCORE.INTRA.REPUL.0>
0

>  <SCORE.INTRA.SOLV>
1.05752

>  <SCORE.INTRA.SOLV.lig_0>
-31.4704

>  <SCORE.INTRA.VDW>
-8.0212

>  <SCORE.INTRA.VDW.0>
10.2807

>  <SCORE.INTRA.norm>
-0.249148

>  <SCORE.RESTR>
0.277616

>  <SCORE.RESTR.CAVITY>
0.277616

>  <SCORE.RESTR.norm>
0.0115673

>  <SCORE.SYSTEM>
0

>  <SCORE.SYSTEM.CONST>
0

>  <SCORE.SYSTEM.DIHEDRAL>
0

>  <SCORE.SYSTEM.SOLV>
0

>  <SCORE.SYSTEM.norm>
0

>  <SCORE.heavy>
24

>  <SCORE.norm>
-0.253536

>  <RMSD>
17.130

$$$$
ligand
 OpenBabel11021811493D
libRbt.so/2013.1/901 2013/11/27
 24 26  0  0  0  0  0  0  0  0999 V2000
   12.4236    5.3797    1.6950 N   0  0  0  0  0  0  0  0  0  0  0  0
   11.4778    6.4834    1.6556 C   0  0  0  0  0  0  0  0  0  0  0  0
   10.4552    5.2970   -4.7866 O   0  0  0  0  0  0  0  0  0  0  0  0
    9.7108    5.1854   -3.6198 C   0  0  0  0  0  0  0  0  0  0  0  0
    7.5179    4.6803    0.0126 N   0  0  0  0  0  0  0  0  0  0  0  0
    8.4165    5.9338   -3.4418 C   0  0  0  0  0  0  0  0  0  0  0  0
    9.4448    3.5386   -0.1584 N   0  0  0  0  0  0  0  0  0  0  0  0
    7.6162    5.8142   -2.2597 C   0  0  0  0  0  0  0  0  0  0  0  0
    8.1440    3.2625    1.9649 N   0  0  0  0  0  0  0  0  0  0  0  0
    8.1178    4.9459   -1.2263 C   0  0  0  0  0  0  0  0  0  0  0  0
   13.9305    5.3523   -2.8296 N   0  0  0  0  0  0  0  0  0  0  0  0
    9.3603    4.2371   -1.3772 C   0  0  0  0  0  0  0  0  0  0  0  0
   10.1538    4.3823   -2.6282 C   0  0  0  0  0  0  0  0  0  0  0  0
    8.3472    3.8060    0.6530 C   0  0  0  0  0  0  0  0  0  0  0  0
   11.4572    3.6191   -2.7727 C   0  0  0  0  0  0  0  0  0  0  0  0
   12.3068    4.0112   -3.9769 C   0  0  1  0  0  0  0  0  0  0  0  0
   11.8308    5.2749   -4.6344 C   0  0  0  0  0  0  0  0  0  0  0  0
   13.7694    4.1136   -3.5714 C   0  0  0  0  0  0  0  0  0  0  0  0
   10.5139    2.5786    0.1774 C   0  0  0  0  0  0  0  0  0  0  0  0
   14.6355    5.0593   -1.5891 C   0  0  0  0  0  0  0  0  0  0  0  0
   14.7287    6.2512   -3.6484 C   0  0  0  0  0  0  0  0  0  0  0  0
   11.5803    3.0944    1.1589 C   0  0  0  0  0  0  0  0  0  0  0  0
   12.1364    4.4241    0.6158 C   0  0  0  0  0  0  0  0  0  0  0  0
   13.7683    5.9308    1.5698 C   0  0  0  0  0  0  0  0  0  0  0  0
  1 23  1  0  0  0  0
  1 24  1  0  0  0  0
  1  2  1  0  0  0  0
  3  4  1  0  0  0  0
  3 17  1  0  0  0  0
  4  6  2  0  0  0  0
  4 13  1  0  0  0  0
  5 10  1  0  0  0  0
  5 14  2  0  0  0  0
  6  8  1  0  0  0  0
  7 12  1  0  0  0  0
  7 14  1  0  0  0  0
  7 19  1  0  0  0  0
  8 10  2  0  0  0  0
  9 14  1  0  0  0  0
 10 12  1  0  0  0  0
 11 18  1  0  0  0  0
 11 20  1  0  0  0  0
 11 21  1  0  0  0  0
 12 13  2  0  0  0  0
 13 15  1  0  0  0  0
 15 16  1  0  0  0  0
 16 17  1  0  0  0  0
 16 18  1  1  0  0  0
 19 22  1  0  0  0  0
 22 23  1  0  0  0  0
M  END
>  <CHROM.1>
-110.21739046,104.41867479,130.17588522,-75.46461400,-53.03893383,143.12599276
11.02726004,4.70613420,-1.35169658,-2.38218511,-0.12516936,-1.46395022

>  <Name>
ligand

>  <RI>
144

>  <Rbt.Current_Directory>
/home/itssahil/PROJECTS/Mol_Feturizer/New_Systems/rnas/3TZR

>  <Rbt.Executable>
rbdock ($Id: //depot/dev/client3/rdock/2013.1/src/exe/rbdock.cxx#4 $)

>  <Rbt.Library>
libRbt.so (2013.1, Build901 2013/11/27)

>  <Rbt.Parameter_File>
/export/apps/rDock/src/rDock_2013.1_src/data/scripts/dock_solv.prm

>  <Rbt.Receptor>
prm/blind_docking_20.prm

>  <SCORE>
-11.3775

>  <SCORE.INTER>
-2.95194

>  <SCORE.INTER.CONST>
1

>  <SCORE.INTER.POLAR>
0

>  <SCORE.INTER.ROT>
6

>  <SCORE.INTER.SOLV>
13.6774

>  <SCORE.INTER.VDW>
-14.1271

>  <SCORE.INTER.norm>
-0.122998

>  <SCORE.INTRA>
-8.42555

>  <SCORE.INTRA.DIHEDRAL>
5.67827

>  <SCORE.INTRA.DIHEDRAL.0>
4.94008

>  <SCORE.INTRA.POLAR>
0

>  <SCORE.INTRA.POLAR.0>
0

>  <SCORE.INTRA.REPUL>
0

>  <SCORE.INTRA.REPUL.0>
0

>  <SCORE.INTRA.SOLV>
1.25512

>  <SCORE.INTRA.SOLV.lig_0>
-31.4704

>  <SCORE.INTRA.VDW>
-11.8923

>  <SCORE.INTRA.VDW.0>
10.2807

>  <SCORE.INTRA.norm>
-0.351065

>  <SCORE.RESTR>
0

>  <SCORE.RESTR.CAVITY>
0

>  <SCORE.RESTR.norm>
0

>  <SCORE.SYSTEM>
0

>  <SCORE.SYSTEM.CONST>
0

>  <SCORE.SYSTEM.DIHEDRAL>
0

>  <SCORE.SYSTEM.SOLV>
0

>  <SCORE.SYSTEM.norm>
0

>  <SCORE.heavy>
24

>  <SCORE.norm>
-0.474062

>  <RMSD>
17.190

$$$$
ligand
 OpenBabel11021811493D
libRbt.so/2013.1/901 2013/11/27
 24 26  0  0  0  0  0  0  0  0999 V2000
   10.8486    6.4140    2.3878 N   0  0  0  0  0  0  0  0  0  0  0  0
    9.4671    6.0002    2.5734 C   0  0  0  0  0  0  0  0  0  0  0  0
   12.1158    4.6106   -4.9129 O   0  0  0  0  0  0  0  0  0  0  0  0
   10.9934    4.6676   -4.0976 C   0  0  0  0  0  0  0  0  0  0  0  0
    7.6375    4.7453   -1.4536 N   0  0  0  0  0  0  0  0  0  0  0  0
    9.6315    4.9772   -4.6601 C   0  0  0  0  0  0  0  0  0  0  0  0
    9.6315    4.2917   -0.5243 N   0  0  0  0  0  0  0  0  0  0  0  0
    8.4539    5.0144   -3.8453 C   0  0  0  0  0  0  0  0  0  0  0  0
    7.6496    4.3481    1.0072 N   0  0  0  0  0  0  0  0  0  0  0  0
    8.6332    4.7542   -2.4404 C   0  0  0  0  0  0  0  0  0  0  0  0
   15.9129    5.1630   -3.2957 N   0  0  0  0  0  0  0  0  0  0  0  0
    9.9309    4.4723   -1.8875 C   0  0  0  0  0  0  0  0  0  0  0  0
   11.1259    4.4324   -2.7741 C   0  0  0  0  0  0  0  0  0  0  0  0
    8.2714    4.4518   -0.2814 C   0  0  0  0  0  0  0  0  0  0  0  0
   12.4849    4.1239   -2.1740 C   0  0  0  0  0  0  0  0  0  0  0  0
   13.6694    4.3362   -3.1105 C   0  0  1  0  0  0  0  0  0  0  0  0
   13.2938    5.0816   -4.3592 C   0  0  0  0  0  0  0  0  0  0  0  0
   14.8018    5.0307   -2.3692 C   0  0  0  0  0  0  0  0  0  0  0  0
   10.6188    3.8963    0.4985 C   0  0  0  0  0  0  0  0  0  0  0  0
   16.5334    6.4647   -3.0897 C   0  0  0  0  0  0  0  0  0  0  0  0
   16.8668    4.1092   -2.9874 C   0  0  0  0  0  0  0  0  0  0  0  0
   11.8017    4.8625    0.6832 C   0  0  0  0  0  0  0  0  0  0  0  0
   11.2397    6.2657    0.9787 C   0  0  0  0  0  0  0  0  0  0  0  0
   10.9694    7.7995    2.8274 C   0  0  0  0  0  0  0  0  0  0  0  0
  1 23  1  0  0  0  0
  1 24  1  0  0  0  0
  1  2  1  0  0  0  0
  3  4  1  0  0  0  0
  3 17  1  0  0  0  0
  4  6  2  0  0  0  0
  4 13  1  0  0  0  0
  5 10  1  0  0  0  0
  5 14  2  0  0  0  0
  6  8  1  0  0  0  0
  7 12  1  0  0  0  0
  7 14  1  0  0  0  0
  7 19  1  0  0  0  0
  8 10  2  0  0  0  0
  9 14  1  0  0  0  0
 10 12  1  0  0  0  0
 11 18  1  0  0  0  0
 11 20  1  0  0  0  0
 11 21  1  0  0  0  0
 12 13  2  0  0  0  0
 13 15  1  0  0  0  0
 15 16  1  0  0  0  0
 16 17  1  0  0  0  0
 16 18  1  1  0  0  0
 19 22  1  0  0  0  0
 22 23  1  0  0  0  0
M  END
>  <CHROM.1>
-88.85590100,60.29271577,140.57191216,178.07023683,55.09991532,80.62618268
11.45800043,5.04030205,-1.49714091,-2.50905532,-0.12312588,-1.82740286

>  <Name>
ligand

>  <RI>
144

>  <Rbt.Current_Directory>
/home/itssahil/PROJECTS/Mol_Feturizer/New_Systems/rnas/3TZR

>  <Rbt.Executable>
rbdock ($Id: //depot/dev/client3/rdock/2013.1/src/exe/rbdock.cxx#4 $)

>  <Rbt.Library>
libRbt.so (2013.1, Build901 2013/11/27)

>  <Rbt.Parameter_File>
/export/apps/rDock/src/rDock_2013.1_src/data/scripts/dock_solv.prm

>  <Rbt.Receptor>
prm/blind_docking_20.prm

>  <SCORE>
-10.4956

>  <SCORE.INTER>
-2.48896

>  <SCORE.INTER.CONST>
1

>  <SCORE.INTER.POLAR>
0

>  <SCORE.INTER.ROT>
6

>  <SCORE.INTER.SOLV>
12.0689

>  <SCORE.INTER.VDW>
-13.2823

>  <SCORE.INTER.norm>
-0.103707

>  <SCORE.INTRA>
-8.01029

>  <SCORE.INTRA.DIHEDRAL>
0.824742

>  <SCORE.INTRA.DIHEDRAL.0>
4.94008

>  <SCORE.INTRA.POLAR>
0

>  <SCORE.INTRA.POLAR.0>
0

>  <SCORE.INTRA.REPUL>
0

>  <SCORE.INTRA.REPUL.0>
0

>  <SCORE.INTRA.SOLV>
2.73048

>  <SCORE.INTRA.SOLV.lig_0>
-31.4704

>  <SCORE.INTRA.VDW>
-9.7879

>  <SCORE.INTRA.VDW.0>
10.2807

>  <SCORE.INTRA.norm>
-0.333762

>  <SCORE.RESTR>
0.00368101

>  <SCORE.RESTR.CAVITY>
0.00368101

>  <SCORE.RESTR.norm>
0.000153375

>  <SCORE.SYSTEM>
0

>  <SCORE.SYSTEM.CONST>
0

>  <SCORE.SYSTEM.DIHEDRAL>
0

>  <SCORE.SYSTEM.SOLV>
0

>  <SCORE.SYSTEM.norm>
0

>  <SCORE.heavy>
24

>  <SCORE.norm>
-0.437315

>  <RMSD>
17.288

$$$$
ligand
 OpenBabel11021811493D
libRbt.so/2013.1/901 2013/11/27
 24 26  0  0  0  0  0  0  0  0999 V2000
   10.5036    6.6199    1.9026 N   0  0  0  0  0  0  0  0  0  0  0  0
   10.0035    7.4024    0.7837 C   0  0  0  0  0  0  0  0  0  0  0  0
   11.3682    4.4293   -4.8315 O   0  0  0  0  0  0  0  0  0  0  0  0
   10.4408    4.5464   -3.8048 C   0  0  0  0  0  0  0  0  0  0  0  0
    7.6959    4.7873   -0.5388 N   0  0  0  0  0  0  0  0  0  0  0  0
    9.0476    5.0563   -4.0619 C   0  0  0  0  0  0  0  0  0  0  0  0
    9.7561    4.0315   -0.0591 N   0  0  0  0  0  0  0  0  0  0  0  0
    8.0640    5.1602   -3.0257 C   0  0  0  0  0  0  0  0  0  0  0  0
    8.1306    4.1867    1.8410 N   0  0  0  0  0  0  0  0  0  0  0  0
    8.4755    4.7643   -1.7038 C   0  0  0  0  0  0  0  0  0  0  0  0
   14.3263    5.6819   -2.3852 N   0  0  0  0  0  0  0  0  0  0  0  0
    9.8079    4.2900   -1.4415 C   0  0  0  0  0  0  0  0  0  0  0  0
   10.7943    4.1875   -2.5515 C   0  0  0  0  0  0  0  0  0  0  0  0
    8.5006    4.3258    0.4621 C   0  0  0  0  0  0  0  0  0  0  0  0
   12.1920    3.6758   -2.2569 C   0  0  0  0  0  0  0  0  0  0  0  0
   13.1912    3.8283   -3.3988 C   0  0  1  0  0  0  0  0  0  0  0  0
   12.6815    4.7139   -4.4997 C   0  0  0  0  0  0  0  0  0  0  0  0
   14.5252    4.3237   -2.8611 C   0  0  0  0  0  0  0  0  0  0  0  0
   10.8625    3.4411    0.7184 C   0  0  0  0  0  0  0  0  0  0  0  0
   14.3364    5.6669   -0.9287 C   0  0  0  0  0  0  0  0  0  0  0  0
   15.4359    6.4838   -2.8765 C   0  0  0  0  0  0  0  0  0  0  0  0
   11.3382    4.2695    1.9243 C   0  0  0  0  0  0  0  0  0  0  0  0
   11.5739    5.7174    1.4549 C   0  0  0  0  0  0  0  0  0  0  0  0
   10.9836    7.5446    2.9233 C   0  0  0  0  0  0  0  0  0  0  0  0
  1 23  1  0  0  0  0
  1 24  1  0  0  0  0
  1  2  1  0  0  0  0
  3  4  1  0  0  0  0
  3 17  1  0  0  0  0
  4  6  2  0  0  0  0
  4 13  1  0  0  0  0
  5 10  1  0  0  0  0
  5 14  2  0  0  0  0
  6  8  1  0  0  0  0
  7 12  1  0  0  0  0
  7 14  1  0  0  0  0
  7 19  1  0  0  0  0
  8 10  2  0  0  0  0
  9 14  1  0  0  0  0
 10 12  1  0  0  0  0
 11 18  1  0  0  0  0
 11 20  1  0  0  0  0
 11 21  1  0  0  0  0
 12 13  2  0  0  0  0
 13 15  1  0  0  0  0
 15 16  1  0  0  0  0
 16 17  1  0  0  0  0
 16 18  1  1  0  0  0
 19 22  1  0  0  0  0
 22 23  1  0  0  0  0
M  END
>  <CHROM.1>
-129.91591696,124.04469786,106.77169409,-67.41440832,-49.46551975,104.92726328
11.09115406,5.00135916,-1.17125801,-2.26316387,-0.19317434,-1.83677577

>  <Name>
ligand

>  <RI>
144

>  <Rbt.Current_Directory>
/home/itssahil/PROJECTS/Mol_Feturizer/New_Systems/rnas/3TZR

>  <Rbt.Executable>
rbdock ($Id: //depot/dev/client3/rdock/2013.1/src/exe/rbdock.cxx#4 $)

>  <Rbt.Library>
libRbt.so (2013.1, Build901 2013/11/27)

>  <Rbt.Parameter_File>
/export/apps/rDock/src/rDock_2013.1_src/data/scripts/dock_solv.prm

>  <Rbt.Receptor>
prm/blind_docking_20.prm

>  <SCORE>
-10.4653

>  <SCORE.INTER>
-3.07118

>  <SCORE.INTER.CONST>
1

>  <SCORE.INTER.POLAR>
0

>  <SCORE.INTER.ROT>
6

>  <SCORE.INTER.SOLV>
10.1586

>  <SCORE.INTER.VDW>
-13.0337

>  <SCORE.INTER.norm>
-0.127966

>  <SCORE.INTRA>
-7.51044

>  <SCORE.INTRA.DIHEDRAL>
5.98071

>  <SCORE.INTRA.DIHEDRAL.0>
4.94008

>  <SCORE.INTRA.POLAR>
0

>  <SCORE.INTRA.POLAR.0>
0

>  <SCORE.INTRA.REPUL>
0

>  <SCORE.INTRA.REPUL.0>
0

>  <SCORE.INTRA.SOLV>
4.12941

>  <SCORE.INTRA.SOLV.lig_0>
-31.4704

>  <SCORE.INTRA.VDW>
-12.5655

>  <SCORE.INTRA.VDW.0>
10.2807

>  <SCORE.INTRA.norm>
-0.312935

>  <SCORE.RESTR>
0.116277

>  <SCORE.RESTR.CAVITY>
0.116277

>  <SCORE.RESTR.norm>
0.00484487

>  <SCORE.SYSTEM>
0

>  <SCORE.SYSTEM.CONST>
0

>  <SCORE.SYSTEM.DIHEDRAL>
0

>  <SCORE.SYSTEM.SOLV>
0

>  <SCORE.SYSTEM.norm>
0

>  <SCORE.heavy>
24

>  <SCORE.norm>
-0.436056

>  <RMSD>
17.471

$$$$
ligand
 OpenBabel11021811493D
libRbt.so/2013.1/901 2013/11/27
 24 26  0  0  0  0  0  0  0  0999 V2000
    7.3222    4.4647    1.6193 N   0  0  0  0  0  0  0  0  0  0  0  0
    7.5567    3.2158    0.9125 C   0  0  0  0  0  0  0  0  0  0  0  0
   14.2476    6.4609   -3.4307 O   0  0  0  0  0  0  0  0  0  0  0  0
   13.9544    6.0003   -2.1541 C   0  0  0  0  0  0  0  0  0  0  0  0
   12.8709    4.6466    1.7513 N   0  0  0  0  0  0  0  0  0  0  0  0
   15.0448    5.6960   -1.1615 C   0  0  0  0  0  0  0  0  0  0  0  0
   11.1797    5.0597    0.3319 N   0  0  0  0  0  0  0  0  0  0  0  0
   14.7681    5.2466    0.1702 C   0  0  0  0  0  0  0  0  0  0  0  0
   10.5691    4.2596    2.6262 N   0  0  0  0  0  0  0  0  0  0  0  0
   13.3810    5.0809    0.5199 C   0  0  0  0  0  0  0  0  0  0  0  0
   10.8863    4.2940   -4.6758 N   0  0  0  0  0  0  0  0  0  0  0  0
   12.3300    5.3533   -0.4237 C   0  0  0  0  0  0  0  0  0  0  0  0
   12.6638    5.8299   -1.7937 C   0  0  0  0  0  0  0  0  0  0  0  0
   11.5128    4.6468    1.6176 C   0  0  0  0  0  0  0  0  0  0  0  0
   11.5411    6.1212   -2.7719 C   0  0  0  0  0  0  0  0  0  0  0  0
   11.9840    6.3745   -4.2089 C   0  0  1  0  0  0  0  0  0  0  0  0
   13.4214    6.0084   -4.4448 C   0  0  0  0  0  0  0  0  0  0  0  0
   11.0605    5.6473   -5.1746 C   0  0  0  0  0  0  0  0  0  0  0  0
    9.7978    5.2508   -0.1491 C   0  0  0  0  0  0  0  0  0  0  0  0
    9.4842    4.1070   -4.3280 C   0  0  0  0  0  0  0  0  0  0  0  0
   11.2529    3.3825   -5.7483 C   0  0  0  0  0  0  0  0  0  0  0  0
    8.9152    6.1613    0.7220 C   0  0  0  0  0  0  0  0  0  0  0  0
    7.4792    5.6047    0.7048 C   0  0  0  0  0  0  0  0  0  0  0  0
    5.9780    4.4203    2.1836 C   0  0  0  0  0  0  0  0  0  0  0  0
  1 23  1  0  0  0  0
  1 24  1  0  0  0  0
  1  2  1  0  0  0  0
  3  4  1  0  0  0  0
  3 17  1  0  0  0  0
  4  6  2  0  0  0  0
  4 13  1  0  0  0  0
  5 10  1  0  0  0  0
  5 14  2  0  0  0  0
  6  8  1  0  0  0  0
  7 12  1  0  0  0  0
  7 14  1  0  0  0  0
  7 19  1  0  0  0  0
  8 10  2  0  0  0  0
  9 14  1  0  0  0  0
 10 12  1  0  0  0  0
 11 18  1  0  0  0  0
 11 20  1  0  0  0  0
 11 21  1  0  0  0  0
 12 13  2  0  0  0  0
 13 15  1  0  0  0  0
 15 16  1  0  0  0  0
 16 17  1  0  0  0  0
 16 18  1  6  0  0  0
 19 22  1  0  0  0  0
 22 23  1  0  0  0  0
M  END
>  <CHROM.1>
-92.38749259,-123.11253579,116.17166773,-46.58754461,-144.14853854,79.34423715
11.10701102,5.11493361,-1.17920418,2.28488518,0.19095079,1.57660691

>  <Name>
ligand

>  <RI>
144

>  <Rbt.Current_Directory>
/home/itssahil/PROJECTS/Mol_Feturizer/New_Systems/rnas/3TZR

>  <Rbt.Executable>
rbdock ($Id: //depot/dev/client3/rdock/2013.1/src/exe/rbdock.cxx#4 $)

>  <Rbt.Library>
libRbt.so (2013.1, Build901 2013/11/27)

>  <Rbt.Parameter_File>
/export/apps/rDock/src/rDock_2013.1_src/data/scripts/dock_solv.prm

>  <Rbt.Receptor>
prm/blind_docking_20.prm

>  <SCORE>
-3.68724

>  <SCORE.INTER>
1.74824

>  <SCORE.INTER.CONST>
1

>  <SCORE.INTER.POLAR>
0

>  <SCORE.INTER.ROT>
6

>  <SCORE.INTER.SOLV>
13.8088

>  <SCORE.INTER.VDW>
-11.0374

>  <SCORE.INTER.norm>
0.0728435

>  <SCORE.INTRA>
-5.60593

>  <SCORE.INTRA.DIHEDRAL>
5.56301

>  <SCORE.INTRA.DIHEDRAL.0>
4.94008

>  <SCORE.INTRA.POLAR>
0

>  <SCORE.INTRA.POLAR.0>
0

>  <SCORE.INTRA.REPUL>
0

>  <SCORE.INTRA.REPUL.0>
0

>  <SCORE.INTRA.SOLV>
4.11515

>  <SCORE.INTRA.SOLV.lig_0>
-31.4704

>  <SCORE.INTRA.VDW>
-10.445

>  <SCORE.INTRA.VDW.0>
10.2807

>  <SCORE.INTRA.norm>
-0.233581

>  <SCORE.RESTR>
0.170445

>  <SCORE.RESTR.CAVITY>
0.170445

>  <SCORE.RESTR.norm>
0.00710188

>  <SCORE.SYSTEM>
0

>  <SCORE.SYSTEM.CONST>
0

>  <SCORE.SYSTEM.DIHEDRAL>
0

>  <SCORE.SYSTEM.SOLV>
0

>  <SCORE.SYSTEM.norm>
0

>  <SCORE.heavy>
24

>  <SCORE.norm>
-0.153635

>  <RMSD>
17.588

$$$$
ligand
 OpenBabel11021811493D
libRbt.so/2013.1/901 2013/11/27
 24 26  0  0  0  0  0  0  0  0999 V2000
   10.6131    3.3781   -5.8246 N   0  0  0  0  0  0  0  0  0  0  0  0
   12.0193    3.0799   -5.6056 C   0  0  0  0  0  0  0  0  0  0  0  0
   12.6079    6.1792    2.0664 O   0  0  0  0  0  0  0  0  0  0  0  0
   11.3561    5.8126    1.5906 C   0  0  0  0  0  0  0  0  0  0  0  0
    7.5497    4.7647   -0.0440 N   0  0  0  0  0  0  0  0  0  0  0  0
   10.2363    5.4502    2.5296 C   0  0  0  0  0  0  0  0  0  0  0  0
    9.1649    5.2741   -1.5196 N   0  0  0  0  0  0  0  0  0  0  0  0
    8.9284    5.0958    2.0651 C   0  0  0  0  0  0  0  0  0  0  0  0
    6.9256    4.6511   -2.4546 N   0  0  0  0  0  0  0  0  0  0  0  0
    8.7312    5.0858    0.6388 C   0  0  0  0  0  0  0  0  0  0  0  0
   14.6232    6.2501   -2.2801 N   0  0  0  0  0  0  0  0  0  0  0  0
    9.7966    5.4149   -0.2699 C   0  0  0  0  0  0  0  0  0  0  0  0
   11.1372    5.7889    0.2578 C   0  0  0  0  0  0  0  0  0  0  0  0
    7.8353    4.8932   -1.3722 C   0  0  0  0  0  0  0  0  0  0  0  0
   12.2457    6.1422   -0.7161 C   0  0  0  0  0  0  0  0  0  0  0  0
   13.6322    6.2801   -0.0964 C   0  0  1  0  0  0  0  0  0  0  0  0
   13.6910    5.7621    1.3122 C   0  0  0  0  0  0  0  0  0  0  0  0
   14.6679    5.6021   -0.9806 C   0  0  0  0  0  0  0  0  0  0  0  0
    9.8051    5.5778   -2.8138 C   0  0  0  0  0  0  0  0  0  0  0  0
   15.9708    6.6796   -2.6283 C   0  0  0  0  0  0  0  0  0  0  0  0
   14.1564    5.2655   -3.2435 C   0  0  0  0  0  0  0  0  0  0  0  0
   10.4207    4.3724   -3.5452 C   0  0  0  0  0  0  0  0  0  0  0  0
   10.2200    4.5700   -5.0594 C   0  0  0  0  0  0  0  0  0  0  0  0
   10.4097    3.5769   -7.2551 C   0  0  0  0  0  0  0  0  0  0  0  0
  1 23  1  0  0  0  0
  1 24  1  0  0  0  0
  1  2  1  0  0  0  0
  3  4  1  0  0  0  0
  3 17  1  0  0  0  0
  4  6  2  0  0  0  0
  4 13  1  0  0  0  0
  5 10  1  0  0  0  0
  5 14  2  0  0  0  0
  6  8  1  0  0  0  0
  7 12  1  0  0  0  0
  7 14  1  0  0  0  0
  7 19  1  0  0  0  0
  8 10  2  0  0  0  0
  9 14  1  0  0  0  0
 10 12  1  0  0  0  0
 11 18  1  0  0  0  0
 11 20  1  0  0  0  0
 11 21  1  0  0  0  0
 12 13  2  0  0  0  0
 13 15  1  0  0  0  0
 15 16  1  0  0  0  0
 16 17  1  0  0  0  0
 16 18  1  6  0  0  0
 19 22  1  0  0  0  0
 22 23  1  0  0  0  0
M  END
>  <CHROM.1>
-60.41927565,96.07551398,126.82202564,59.57284423,144.40429684,-172.13807756
11.20114613,5.19520310,-1.58769922,1.68316758,-0.19058861,-1.81255808

>  <Name>
ligand

>  <RI>
144

>  <Rbt.Current_Directory>
/home/itssahil/PROJECTS/Mol_Feturizer/New_Systems/rnas/3TZR

>  <Rbt.Executable>
rbdock ($Id: //depot/dev/client3/rdock/2013.1/src/exe/rbdock.cxx#4 $)

>  <Rbt.Library>
libRbt.so (2013.1, Build901 2013/11/27)

>  <Rbt.Parameter_File>
/export/apps/rDock/src/rDock_2013.1_src/data/scripts/dock_solv.prm

>  <Rbt.Receptor>
prm/blind_docking_20.prm

>  <SCORE>
-0.277243

>  <SCORE.INTER>
7.63817

>  <SCORE.INTER.CONST>
1

>  <SCORE.INTER.POLAR>
0

>  <SCORE.INTER.ROT>
6

>  <SCORE.INTER.SOLV>
23.1181

>  <SCORE.INTER.VDW>
-10.2139

>  <SCORE.INTER.norm>
0.318257

>  <SCORE.INTRA>
-7.91541

>  <SCORE.INTRA.DIHEDRAL>
2.59655

>  <SCORE.INTRA.DIHEDRAL.0>
4.94008

>  <SCORE.INTRA.POLAR>
0

>  <SCORE.INTRA.POLAR.0>
0

>  <SCORE.INTRA.REPUL>
0

>  <SCORE.INTRA.REPUL.0>
0

>  <SCORE.INTRA.SOLV>
0.497035

>  <SCORE.INTRA.SOLV.lig_0>
-31.4704

>  <SCORE.INTRA.VDW>
-9.46221

>  <SCORE.INTRA.VDW.0>
10.2807

>  <SCORE.INTRA.norm>
-0.329809

>  <SCORE.RESTR>
0

>  <SCORE.RESTR.CAVITY>
0

>  <SCORE.RESTR.norm>
0

>  <SCORE.SYSTEM>
0

>  <SCORE.SYSTEM.CONST>
0

>  <SCORE.SYSTEM.DIHEDRAL>
0

>  <SCORE.SYSTEM.SOLV>
0

>  <SCORE.SYSTEM.norm>
0

>  <SCORE.heavy>
24

>  <SCORE.norm>
-0.0115518

>  <RMSD>
17.598

$$$$
ligand
 OpenBabel11021811493D
libRbt.so/2013.1/901 2013/11/27
 24 26  0  0  0  0  0  0  0  0999 V2000
   16.1824    4.9836   -3.1290 N   0  0  0  0  0  0  0  0  0  0  0  0
   17.3092    4.0945   -3.3617 C   0  0  0  0  0  0  0  0  0  0  0  0
    7.8247    5.7307   -1.0478 O   0  0  0  0  0  0  0  0  0  0  0  0
    8.6989    5.8944   -2.1140 C   0  0  0  0  0  0  0  0  0  0  0  0
   11.5312    6.4316   -5.2681 N   0  0  0  0  0  0  0  0  0  0  0  0
    8.1938    6.1576   -3.5078 C   0  0  0  0  0  0  0  0  0  0  0  0
   12.3745    6.0270   -3.2259 N   0  0  0  0  0  0  0  0  0  0  0  0
    9.0750    6.3577   -4.6193 C   0  0  0  0  0  0  0  0  0  0  0  0
   14.0159    6.3401   -5.0926 N   0  0  0  0  0  0  0  0  0  0  0  0
   10.4866    6.2801   -4.3455 C   0  0  0  0  0  0  0  0  0  0  0  0
   10.1069    2.8155    0.5218 N   0  0  0  0  0  0  0  0  0  0  0  0
   10.9822    6.0141   -3.0216 C   0  0  0  0  0  0  0  0  0  0  0  0
   10.0297    5.8240   -1.8937 C   0  0  0  0  0  0  0  0  0  0  0  0
   12.6863    6.2791   -4.5578 C   0  0  0  0  0  0  0  0  0  0  0  0
   10.5718    5.5539   -0.5025 C   0  0  0  0  0  0  0  0  0  0  0  0
    9.5280    5.1427    0.5304 C   0  0  1  0  0  0  0  0  0  0  0  0
    8.2017    4.8062   -0.0891 C   0  0  0  0  0  0  0  0  0  0  0  0
   10.0547    3.9913    1.3735 C   0  0  0  0  0  0  0  0  0  0  0  0
   13.3741    5.8809   -2.1504 C   0  0  0  0  0  0  0  0  0  0  0  0
   11.3481    2.1032    0.7938 C   0  0  0  0  0  0  0  0  0  0  0  0
    8.9715    1.9748    0.8676 C   0  0  0  0  0  0  0  0  0  0  0  0
   14.0048    4.4838   -2.0202 C   0  0  0  0  0  0  0  0  0  0  0  0
   15.5269    4.6525   -1.8558 C   0  0  0  0  0  0  0  0  0  0  0  0
   16.6801    6.3546   -3.1271 C   0  0  0  0  0  0  0  0  0  0  0  0
  1 23  1  0  0  0  0
  1 24  1  0  0  0  0
  1  2  1  0  0  0  0
  3  4  1  0  0  0  0
  3 17  1  0  0  0  0
  4  6  2  0  0  0  0
  4 13  1  0  0  0  0
  5 10  1  0  0  0  0
  5 14  2  0  0  0  0
  6  8  1  0  0  0  0
  7 12  1  0  0  0  0
  7 14  1  0  0  0  0
  7 19  1  0  0  0  0
  8 10  2  0  0  0  0
  9 14  1  0  0  0  0
 10 12  1  0  0  0  0
 11 18  1  0  0  0  0
 11 20  1  0  0  0  0
 11 21  1  0  0  0  0
 12 13  2  0  0  0  0
 13 15  1  0  0  0  0
 15 16  1  0  0  0  0
 16 17  1  0  0  0  0
 16 18  1  6  0  0  0
 19 22  1  0  0  0  0
 22 23  1  0  0  0  0
M  END
>  <CHROM.1>
-129.40523382,101.05203598,138.11103539,-70.01746281,134.54046208,-76.04258132
11.64816329,5.11775380,-2.05174182,-0.46227864,-0.14033338,2.16492162

>  <Name>
ligand

>  <RI>
144

>  <Rbt.Current_Directory>
/home/itssahil/PROJECTS/Mol_Feturizer/New_Systems/rnas/3TZR

>  <Rbt.Executable>
rbdock ($Id: //depot/dev/client3/rdock/2013.1/src/exe/rbdock.cxx#4 $)

>  <Rbt.Library>
libRbt.so (2013.1, Build901 2013/11/27)

>  <Rbt.Parameter_File>
/export/apps/rDock/src/rDock_2013.1_src/data/scripts/dock_solv.prm

>  <Rbt.Receptor>
prm/blind_docking_20.prm

>  <SCORE>
2.26388

>  <SCORE.INTER>
7.38966

>  <SCORE.INTER.CONST>
1

>  <SCORE.INTER.POLAR>
0

>  <SCORE.INTER.ROT>
6

>  <SCORE.INTER.SOLV>
15.9077

>  <SCORE.INTER.VDW>
-7.97614

>  <SCORE.INTER.norm>
0.307902

>  <SCORE.INTRA>
-5.42358

>  <SCORE.INTRA.DIHEDRAL>
6.68777

>  <SCORE.INTRA.DIHEDRAL.0>
4.94008

>  <SCORE.INTRA.POLAR>
0

>  <SCORE.INTRA.POLAR.0>
0

>  <SCORE.INTRA.REPUL>
0

>  <SCORE.INTRA.REPUL.0>
0

>  <SCORE.INTRA.SOLV>
4.4335

>  <SCORE.INTRA.SOLV.lig_0>
-31.4704

>  <SCORE.INTRA.VDW>
-10.9842

>  <SCORE.INTRA.VDW.0>
10.2807

>  <SCORE.INTRA.norm>
-0.225983

>  <SCORE.RESTR>
0.297809

>  <SCORE.RESTR.CAVITY>
0.297809

>  <SCORE.RESTR.norm>
0.0124087

>  <SCORE.SYSTEM>
0

>  <SCORE.SYSTEM.CONST>
0

>  <SCORE.SYSTEM.DIHEDRAL>
0

>  <SCORE.SYSTEM.SOLV>
0

>  <SCORE.SYSTEM.norm>
0

>  <SCORE.heavy>
24

>  <SCORE.norm>
0.0943285

>  <RMSD>
17.626

$$$$
ligand
 OpenBabel11021811493D
libRbt.so/2013.1/901 2013/11/27
 24 26  0  0  0  0  0  0  0  0999 V2000
   15.3884    4.4596   -2.7265 N   0  0  0  0  0  0  0  0  0  0  0  0
   16.3143    3.4616   -2.2157 C   0  0  0  0  0  0  0  0  0  0  0  0
    7.8849    6.0418   -0.2761 O   0  0  0  0  0  0  0  0  0  0  0  0
    8.2138    5.4716   -1.4985 C   0  0  0  0  0  0  0  0  0  0  0  0
    9.4019    3.7967   -5.2458 N   0  0  0  0  0  0  0  0  0  0  0  0
    7.1512    4.9770   -2.4435 C   0  0  0  0  0  0  0  0  0  0  0  0
   11.0548    4.4925   -3.8932 N   0  0  0  0  0  0  0  0  0  0  0  0
    7.4629    4.4106   -3.7218 C   0  0  0  0  0  0  0  0  0  0  0  0
   11.7272    3.5017   -6.0939 N   0  0  0  0  0  0  0  0  0  0  0  0
    8.8587    4.3188   -4.0635 C   0  0  0  0  0  0  0  0  0  0  0  0
   12.1002    6.7192    1.7879 N   0  0  0  0  0  0  0  0  0  0  0  0
    9.8846    4.7733   -3.1636 C   0  0  0  0  0  0  0  0  0  0  0  0
    9.5139    5.3663   -1.8496 C   0  0  0  0  0  0  0  0  0  0  0  0
   10.7556    3.9189   -5.1245 C   0  0  0  0  0  0  0  0  0  0  0  0
   10.6099    5.8490   -0.9178 C   0  0  0  0  0  0  0  0  0  0  0  0
   10.1482    6.2191    0.4876 C   0  0  1  0  0  0  0  0  0  0  0  0
    8.7445    5.7676    0.7736 C   0  0  0  0  0  0  0  0  0  0  0  0
   11.1267    5.6753    1.5176 C   0  0  0  0  0  0  0  0  0  0  0  0
   12.4170    4.8430   -3.4473 C   0  0  0  0  0  0  0  0  0  0  0  0
   11.6620    7.4672    2.9585 C   0  0  0  0  0  0  0  0  0  0  0  0
   13.3713    6.0696    2.0669 C   0  0  0  0  0  0  0  0  0  0  0  0
   12.9771    3.9859   -2.2990 C   0  0  0  0  0  0  0  0  0  0  0  0
   14.2719    4.6458   -1.7887 C   0  0  0  0  0  0  0  0  0  0  0  0
   16.1258    5.7024   -2.9245 C   0  0  0  0  0  0  0  0  0  0  0  0
  1 23  1  0  0  0  0
  1 24  1  0  0  0  0
  1  2  1  0  0  0  0
  3  4  1  0  0  0  0
  3 17  1  0  0  0  0
  4  6  2  0  0  0  0
  4 13  1  0  0  0  0
  5 10  1  0  0  0  0
  5 14  2  0  0  0  0
  6  8  1  0  0  0  0
  7 12  1  0  0  0  0
  7 14  1  0  0  0  0
  7 19  1  0  0  0  0
  8 10  2  0  0  0  0
  9 14  1  0  0  0  0
 10 12  1  0  0  0  0
 11 18  1  0  0  0  0
 11 20  1  0  0  0  0
 11 21  1  0  0  0  0
 12 13  2  0  0  0  0
 13 15  1  0  0  0  0
 15 16  1  0  0  0  0
 16 17  1  0  0  0  0
 16 18  1  1  0  0  0
 19 22  1  0  0  0  0
 22 23  1  0  0  0  0
M  END
>  <CHROM.1>
-105.21545523,73.25138522,94.55755595,92.57557096,-169.48048914,-73.75048238
11.25404040,5.10468738,-1.75718425,-0.47752318,0.06264517,-1.93828448

>  <Name>
ligand

>  <RI>
144

>  <Rbt.Current_Directory>
/home/itssahil/PROJECTS/Mol_Feturizer/New_Systems/rnas/3TZR

>  <Rbt.Executable>
rbdock ($Id: //depot/dev/client3/rdock/2013.1/src/exe/rbdock.cxx#4 $)

>  <Rbt.Library>
libRbt.so (2013.1, Build901 2013/11/27)

>  <Rbt.Parameter_File>
/export/apps/rDock/src/rDock_2013.1_src/data/scripts/dock_solv.prm

>  <Rbt.Receptor>
prm/blind_docking_20.prm

>  <SCORE>
-0.458956

>  <SCORE.INTER>
9.71134

>  <SCORE.INTER.CONST>
1

>  <SCORE.INTER.POLAR>
0

>  <SCORE.INTER.ROT>
6

>  <SCORE.INTER.SOLV>
17.4393

>  <SCORE.INTER.VDW>
-6.93886

>  <SCORE.INTER.norm>
0.404639

>  <SCORE.INTRA>
-10.1726

>  <SCORE.INTRA.DIHEDRAL>
3.87347

>  <SCORE.INTRA.DIHEDRAL.0>
4.94008

>  <SCORE.INTRA.POLAR>
0

>  <SCORE.INTRA.POLAR.0>
0

>  <SCORE.INTRA.REPUL>
0

>  <SCORE.INTRA.REPUL.0>
0

>  <SCORE.INTRA.SOLV>
-0.27537

>  <SCORE.INTRA.SOLV.lig_0>
-31.4704

>  <SCORE.INTRA.VDW>
-11.9716

>  <SCORE.INTRA.VDW.0>
10.2807

>  <SCORE.INTRA.norm>
-0.423857

>  <SCORE.RESTR>
0.00227599

>  <SCORE.RESTR.CAVITY>
0.00227599

>  <SCORE.RESTR.norm>
9.48329e-05

>  <SCORE.SYSTEM>
0

>  <SCORE.SYSTEM.CONST>
0

>  <SCORE.SYSTEM.DIHEDRAL>
0

>  <SCORE.SYSTEM.SOLV>
0

>  <SCORE.SYSTEM.norm>
0

>  <SCORE.heavy>
24

>  <SCORE.norm>
-0.0191232

>  <RMSD>
17.759

$$$$
ligand
 OpenBabel11021811493D
libRbt.so/2013.1/901 2013/11/27
 24 26  0  0  0  0  0  0  0  0999 V2000
   15.0470    1.4190   -2.2856 N   0  0  0  0  0  0  0  0  0  0  0  0
   16.4310    1.4238   -1.8396 C   0  0  0  0  0  0  0  0  0  0  0  0
   12.0959    4.5608    2.2376 O   0  0  0  0  0  0  0  0  0  0  0  0
   12.9498    5.1115    1.2913 C   0  0  0  0  0  0  0  0  0  0  0  0
   15.5212    6.6687   -1.7454 N   0  0  0  0  0  0  0  0  0  0  0  0
   14.0613    6.0461    1.6886 C   0  0  0  0  0  0  0  0  0  0  0  0
   13.8810    5.2962   -2.4320 N   0  0  0  0  0  0  0  0  0  0  0  0
   14.9726    6.6054    0.7353 C   0  0  0  0  0  0  0  0  0  0  0  0
   15.3983    6.2262   -4.1954 N   0  0  0  0  0  0  0  0  0  0  0  0
   14.7678    6.2419   -0.6429 C   0  0  0  0  0  0  0  0  0  0  0  0
    8.3122    3.4703    1.1696 N   0  0  0  0  0  0  0  0  0  0  0  0
   13.7005    5.3623   -1.0379 C   0  0  0  0  0  0  0  0  0  0  0  0
   12.7839    4.7950   -0.0114 C   0  0  0  0  0  0  0  0  0  0  0  0
   14.9634    6.0698   -2.8374 C   0  0  0  0  0  0  0  0  0  0  0  0
   11.6699    3.8613   -0.4464 C   0  0  0  0  0  0  0  0  0  0  0  0
   10.6495    3.5230    0.6352 C   0  0  1  0  0  0  0  0  0  0  0  0
   10.7777    4.4010    1.8471 C   0  0  0  0  0  0  0  0  0  0  0  0
    9.2426    3.5749    0.0588 C   0  0  0  0  0  0  0  0  0  0  0  0
   13.0810    4.4461   -3.3346 C   0  0  0  0  0  0  0  0  0  0  0  0
    7.3005    4.5082    1.0237 C   0  0  0  0  0  0  0  0  0  0  0  0
    7.6865    2.1595    1.0934 C   0  0  0  0  0  0  0  0  0  0  0  0
   13.2571    2.9299   -3.1427 C   0  0  0  0  0  0  0  0  0  0  0  0
   14.7648    2.6207   -3.0834 C   0  0  0  0  0  0  0  0  0  0  0  0
   14.8256    0.2043   -3.0621 C   0  0  0  0  0  0  0  0  0  0  0  0
  1 23  1  0  0  0  0
  1 24  1  0  0  0  0
  1  2  1  0  0  0  0
  3  4  1  0  0  0  0
  3 17  1  0  0  0  0
  4  6  2  0  0  0  0
  4 13  1  0  0  0  0
  5 10  1  0  0  0  0
  5 14  2  0  0  0  0
  6  8  1  0  0  0  0
  7 12  1  0  0  0  0
  7 14  1  0  0  0  0
  7 19  1  0  0  0  0
  8 10  2  0  0  0  0
  9 14  1  0  0  0  0
 10 12  1  0  0  0  0
 11 18  1  0  0  0  0
 11 20  1  0  0  0  0
 11 21  1  0  0  0  0
 12 13  2  0  0  0  0
 13 15  1  0  0  0  0
 15 16  1  0  0  0  0
 16 17  1  0  0  0  0
 16 18  1  6  0  0  0
 19 22  1  0  0  0  0
 22 23  1  0  0  0  0
M  END
>  <CHROM.1>
-159.19100461,-65.90556422,132.34455881,-170.54906505,-47.99259112,152.07479785
12.77423747,4.14235610,-0.77610074,0.23115160,-0.50901679,-2.61993630

>  <Name>
ligand

>  <RI>
144

>  <Rbt.Current_Directory>
/home/itssahil/PROJECTS/Mol_Feturizer/New_Systems/rnas/3TZR

>  <Rbt.Executable>
rbdock ($Id: //depot/dev/client3/rdock/2013.1/src/exe/rbdock.cxx#4 $)

>  <Rbt.Library>
libRbt.so (2013.1, Build901 2013/11/27)

>  <Rbt.Parameter_File>
/export/apps/rDock/src/rDock_2013.1_src/data/scripts/dock_solv.prm

>  <Rbt.Receptor>
prm/blind_docking_20.prm

>  <SCORE>
-8.92289

>  <SCORE.INTER>
0.109762

>  <SCORE.INTER.CONST>
1

>  <SCORE.INTER.POLAR>
0

>  <SCORE.INTER.ROT>
6

>  <SCORE.INTER.SOLV>
16.8723

>  <SCORE.INTER.VDW>
-13.1509

>  <SCORE.INTER.norm>
0.00457341

>  <SCORE.INTRA>
-9.03265

>  <SCORE.INTRA.DIHEDRAL>
2.39303

>  <SCORE.INTRA.DIHEDRAL.0>
4.94008

>  <SCORE.INTRA.POLAR>
0

>  <SCORE.INTRA.POLAR.0>
0

>  <SCORE.INTRA.REPUL>
0

>  <SCORE.INTRA.REPUL.0>
0

>  <SCORE.INTRA.SOLV>
0.64273

>  <SCORE.INTRA.SOLV.lig_0>
-31.4704

>  <SCORE.INTRA.VDW>
-10.5505

>  <SCORE.INTRA.VDW.0>
10.2807

>  <SCORE.INTRA.norm>
-0.37636

>  <SCORE.RESTR>
0

>  <SCORE.RESTR.CAVITY>
0

>  <SCORE.RESTR.norm>
0

>  <SCORE.SYSTEM>
0

>  <SCORE.SYSTEM.CONST>
0

>  <SCORE.SYSTEM.DIHEDRAL>
0

>  <SCORE.SYSTEM.SOLV>
0

>  <SCORE.SYSTEM.norm>
0

>  <SCORE.heavy>
24

>  <SCORE.norm>
-0.371787

>  <RMSD>
17.771

$$$$
ligand
 OpenBabel11021811493D
libRbt.so/2013.1/901 2013/11/27
 24 26  0  0  0  0  0  0  0  0999 V2000
   13.6971    1.4261   -3.0528 N   0  0  0  0  0  0  0  0  0  0  0  0
   13.1196    0.3605   -2.2495 C   0  0  0  0  0  0  0  0  0  0  0  0
   11.7447    4.3280    2.0931 O   0  0  0  0  0  0  0  0  0  0  0  0
   12.6539    4.9434    1.2432 C   0  0  0  0  0  0  0  0  0  0  0  0
   15.3817    6.7305   -1.5180 N   0  0  0  0  0  0  0  0  0  0  0  0
   13.8571    5.6730    1.7788 C   0  0  0  0  0  0  0  0  0  0  0  0
   13.6071    5.6779   -2.4060 N   0  0  0  0  0  0  0  0  0  0  0  0
   14.8244    6.2921    0.9225 C   0  0  0  0  0  0  0  0  0  0  0  0
   15.2178    6.7383   -4.0053 N   0  0  0  0  0  0  0  0  0  0  0  0
   14.5852    6.1985   -0.4944 C   0  0  0  0  0  0  0  0  0  0  0  0
    8.7570    5.4582   -0.4940 N   0  0  0  0  0  0  0  0  0  0  0  0
   13.4317    5.5178   -1.0189 C   0  0  0  0  0  0  0  0  0  0  0  0
   12.4582    4.8785   -0.0918 C   0  0  0  0  0  0  0  0  0  0  0  0
   14.7660    6.3932   -2.6883 C   0  0  0  0  0  0  0  0  0  0  0  0
   11.2527    4.1567   -0.6643 C   0  0  0  0  0  0  0  0  0  0  0  0
   10.2000    3.7429    0.3585 C   0  0  1  0  0  0  0  0  0  0  0  0
   10.4178    4.3773    1.7024 C   0  0  0  0  0  0  0  0  0  0  0  0
    8.8078    4.0413   -0.1769 C   0  0  0  0  0  0  0  0  0  0  0  0
   12.7237    5.0869   -3.4295 C   0  0  0  0  0  0  0  0  0  0  0  0
    8.2188    5.6113   -1.8389 C   0  0  0  0  0  0  0  0  0  0  0  0
    7.8662    6.0894    0.4671 C   0  0  0  0  0  0  0  0  0  0  0  0
   13.1349    3.6919   -3.9311 C   0  0  0  0  0  0  0  0  0  0  0  0
   13.0374    2.7049   -2.7527 C   0  0  0  0  0  0  0  0  0  0  0  0
   15.1256    1.4873   -2.7645 C   0  0  0  0  0  0  0  0  0  0  0  0
  1 23  1  0  0  0  0
  1 24  1  0  0  0  0
  1  2  1  0  0  0  0
  3  4  1  0  0  0  0
  3 17  1  0  0  0  0
  4  6  2  0  0  0  0
  4 13  1  0  0  0  0
  5 10  1  0  0  0  0
  5 14  2  0  0  0  0
  6  8  1  0  0  0  0
  7 12  1  0  0  0  0
  7 14  1  0  0  0  0
  7 19  1  0  0  0  0
  8 10  2  0  0  0  0
  9 14  1  0  0  0  0
 10 12  1  0  0  0  0
 11 18  1  0  0  0  0
 11 20  1  0  0  0  0
 11 21  1  0  0  0  0
 12 13  2  0  0  0  0
 13 15  1  0  0  0  0
 15 16  1  0  0  0  0
 16 17  1  0  0  0  0
 16 18  1  6  0  0  0
 19 22  1  0  0  0  0
 22 23  1  0  0  0  0
M  END
>  <CHROM.1>
-154.90264716,-90.73602512,130.58830652,-56.87756358,64.33512350,-166.96910331
12.38123508,4.59014838,-1.07676320,0.42745183,-0.37161891,-2.50038178

>  <Name>
ligand

>  <RI>
144

>  <Rbt.Current_Directory>
/home/itssahil/PROJECTS/Mol_Feturizer/New_Systems/rnas/3TZR

>  <Rbt.Executable>
rbdock ($Id: //depot/dev/client3/rdock/2013.1/src/exe/rbdock.cxx#4 $)

>  <Rbt.Library>
libRbt.so (2013.1, Build901 2013/11/27)

>  <Rbt.Parameter_File>
/export/apps/rDock/src/rDock_2013.1_src/data/scripts/dock_solv.prm

>  <Rbt.Receptor>
prm/blind_docking_20.prm

>  <SCORE>
-12.2399

>  <SCORE.INTER>
-1.29368

>  <SCORE.INTER.CONST>
1

>  <SCORE.INTER.POLAR>
0

>  <SCORE.INTER.ROT>
6

>  <SCORE.INTER.SOLV>
15.2192

>  <SCORE.INTER.VDW>
-13.5355

>  <SCORE.INTER.norm>
-0.0539034

>  <SCORE.INTRA>
-10.9462

>  <SCORE.INTRA.DIHEDRAL>
0.0638914

>  <SCORE.INTRA.DIHEDRAL.0>
4.94008

>  <SCORE.INTRA.POLAR>
0

>  <SCORE.INTRA.POLAR.0>
0

>  <SCORE.INTRA.REPUL>
0

>  <SCORE.INTRA.REPUL.0>
0

>  <SCORE.INTRA.SOLV>
0.299976

>  <SCORE.INTRA.SOLV.lig_0>
-31.4704

>  <SCORE.INTRA.VDW>
-11.1282

>  <SCORE.INTRA.VDW.0>
10.2807

>  <SCORE.INTRA.norm>
-0.456093

>  <SCORE.RESTR>
0

>  <SCORE.RESTR.CAVITY>
0

>  <SCORE.RESTR.norm>
0

>  <SCORE.SYSTEM>
0

>  <SCORE.SYSTEM.CONST>
0

>  <SCORE.SYSTEM.DIHEDRAL>
0

>  <SCORE.SYSTEM.SOLV>
0

>  <SCORE.SYSTEM.norm>
0

>  <SCORE.heavy>
24

>  <SCORE.norm>
-0.509997

>  <RMSD>
17.808

$$$$
ligand
 OpenBabel11021811493D
libRbt.so/2013.1/901 2013/11/27
 24 26  0  0  0  0  0  0  0  0999 V2000
   15.2421    4.6550   -2.6146 N   0  0  0  0  0  0  0  0  0  0  0  0
   16.3020    3.6904   -2.3683 C   0  0  0  0  0  0  0  0  0  0  0  0
    7.5064    6.1844   -0.1437 O   0  0  0  0  0  0  0  0  0  0  0  0
    8.0801    5.6910   -1.3078 C   0  0  0  0  0  0  0  0  0  0  0  0
   10.0194    4.1892   -4.8067 N   0  0  0  0  0  0  0  0  0  0  0  0
    7.3257    5.6836   -2.6108 C   0  0  0  0  0  0  0  0  0  0  0  0
   11.2146    4.1460   -2.9053 N   0  0  0  0  0  0  0  0  0  0  0  0
    7.9045    5.2061   -3.8310 C   0  0  0  0  0  0  0  0  0  0  0  0
   12.3289    3.2654   -4.9692 N   0  0  0  0  0  0  0  0  0  0  0  0
    9.2546    4.7114   -3.7542 C   0  0  0  0  0  0  0  0  0  0  0  0
    8.5782    4.5390    3.3317 N   0  0  0  0  0  0  0  0  0  0  0  0
    9.9812    4.6985   -2.5129 C   0  0  0  0  0  0  0  0  0  0  0  0
    9.3439    5.2156   -1.2711 C   0  0  0  0  0  0  0  0  0  0  0  0
   11.2259    3.8529   -4.2649 C   0  0  0  0  0  0  0  0  0  0  0  0
   10.1297    5.2027    0.0268 C   0  0  0  0  0  0  0  0  0  0  0  0
    9.3200    5.5289    1.2771 C   0  0  1  0  0  0  0  0  0  0  0  0
    7.8392    5.5228    1.0257 C   0  0  0  0  0  0  0  0  0  0  0  0
    9.6954    4.5782    2.4037 C   0  0  0  0  0  0  0  0  0  0  0  0
   12.3751    3.9820   -2.0089 C   0  0  0  0  0  0  0  0  0  0  0  0
    7.8269    3.3131    3.0982 C   0  0  0  0  0  0  0  0  0  0  0  0
    9.1286    4.5296    4.6780 C   0  0  0  0  0  0  0  0  0  0  0  0
   13.0646    5.2872   -1.5754 C   0  0  0  0  0  0  0  0  0  0  0  0
   14.5611    4.9955   -1.3573 C   0  0  0  0  0  0  0  0  0  0  0  0
   15.8381    5.8354   -3.2301 C   0  0  0  0  0  0  0  0  0  0  0  0
  1 23  1  0  0  0  0
  1 24  1  0  0  0  0
  1  2  1  0  0  0  0
  3  4  1  0  0  0  0
  3 17  1  0  0  0  0
  4  6  2  0  0  0  0
  4 13  1  0  0  0  0
  5 10  1  0  0  0  0
  5 14  2  0  0  0  0
  6  8  1  0  0  0  0
  7 12  1  0  0  0  0
  7 14  1  0  0  0  0
  7 19  1  0  0  0  0
  8 10  2  0  0  0  0
  9 14  1  0  0  0  0
 10 12  1  0  0  0  0
 11 18  1  0  0  0  0
 11 20  1  0  0  0  0
 11 21  1  0  0  0  0
 12 13  2  0  0  0  0
 13 15  1  0  0  0  0
 15 16  1  0  0  0  0
 16 17  1  0  0  0  0
 16 18  1  1  0  0  0
 19 22  1  0  0  0  0
 22 23  1  0  0  0  0
M  END
>  <CHROM.1>
-146.83415611,-69.53875679,101.78807859,-156.75638103,-149.17259660,66.77689513
10.66044208,4.76186614,-1.14892401,-0.74833210,-0.07883748,1.57688173

>  <Name>
ligand

>  <RI>
144

>  <Rbt.Current_Directory>
/home/itssahil/PROJECTS/Mol_Feturizer/New_Systems/rnas/3TZR

>  <Rbt.Executable>
rbdock ($Id: //depot/dev/client3/rdock/2013.1/src/exe/rbdock.cxx#4 $)

>  <Rbt.Library>
libRbt.so (2013.1, Build901 2013/11/27)

>  <Rbt.Parameter_File>
/export/apps/rDock/src/rDock_2013.1_src/data/scripts/dock_solv.prm

>  <Rbt.Receptor>
prm/blind_docking_20.prm

>  <SCORE>
-3.3545

>  <SCORE.INTER>
2.64725

>  <SCORE.INTER.CONST>
1

>  <SCORE.INTER.POLAR>
0

>  <SCORE.INTER.ROT>
6

>  <SCORE.INTER.SOLV>
15.8735

>  <SCORE.INTER.VDW>
-11.1263

>  <SCORE.INTER.norm>
0.110302

>  <SCORE.INTRA>
-6.23629

>  <SCORE.INTRA.DIHEDRAL>
4.21338

>  <SCORE.INTRA.DIHEDRAL.0>
4.94008

>  <SCORE.INTRA.POLAR>
0

>  <SCORE.INTRA.POLAR.0>
0

>  <SCORE.INTRA.REPUL>
0

>  <SCORE.INTRA.REPUL.0>
0

>  <SCORE.INTRA.SOLV>
0.70262

>  <SCORE.INTRA.SOLV.lig_0>
-31.4704

>  <SCORE.INTRA.VDW>
-8.69429

>  <SCORE.INTRA.VDW.0>
10.2807

>  <SCORE.INTRA.norm>
-0.259845

>  <SCORE.RESTR>
0.234537

>  <SCORE.RESTR.CAVITY>
0.234537

>  <SCORE.RESTR.norm>
0.00977239

>  <SCORE.SYSTEM>
0

>  <SCORE.SYSTEM.CONST>
0

>  <SCORE.SYSTEM.DIHEDRAL>
0

>  <SCORE.SYSTEM.SOLV>
0

>  <SCORE.SYSTEM.norm>
0

>  <SCORE.heavy>
24

>  <SCORE.norm>
-0.139771

>  <RMSD>
17.924

$$$$
ligand
 OpenBabel11021811493D
libRbt.so/2013.1/901 2013/11/27
 24 26  0  0  0  0  0  0  0  0999 V2000
    9.3999    6.3039   -3.8624 N   0  0  0  0  0  0  0  0  0  0  0  0
    8.6349    7.1198   -2.9332 C   0  0  0  0  0  0  0  0  0  0  0  0
   12.1106    4.5056    2.1353 O   0  0  0  0  0  0  0  0  0  0  0  0
   12.9115    5.0633    1.1478 C   0  0  0  0  0  0  0  0  0  0  0  0
   15.3098    6.6460   -2.0148 N   0  0  0  0  0  0  0  0  0  0  0  0
   14.0630    5.9700    1.4923 C   0  0  0  0  0  0  0  0  0  0  0  0
   13.6043    5.3169   -2.6232 N   0  0  0  0  0  0  0  0  0  0  0  0
   14.9211    6.5355    0.4943 C   0  0  0  0  0  0  0  0  0  0  0  0
   15.0214    6.2613   -4.4607 N   0  0  0  0  0  0  0  0  0  0  0  0
   14.6214    6.2069   -0.8753 C   0  0  0  0  0  0  0  0  0  0  0  0
    8.2458    3.4329    1.2816 N   0  0  0  0  0  0  0  0  0  0  0  0
   13.5151    5.3543   -1.2192 C   0  0  0  0  0  0  0  0  0  0  0  0
   12.6564    4.7792   -0.1479 C   0  0  0  0  0  0  0  0  0  0  0  0
   14.6721    6.0814   -3.0811 C   0  0  0  0  0  0  0  0  0  0  0  0
   11.5000    3.8743   -0.5299 C   0  0  0  0  0  0  0  0  0  0  0  0
   10.5454    3.5286    0.6079 C   0  0  1  0  0  0  0  0  0  0  0  0
   10.7672    4.3766    1.8276 C   0  0  0  0  0  0  0  0  0  0  0  0
    9.1056    3.6170    0.1251 C   0  0  0  0  0  0  0  0  0  0  0  0
   12.7326    4.5010   -3.4902 C   0  0  0  0  0  0  0  0  0  0  0  0
    7.1122    4.3400    1.1632 C   0  0  0  0  0  0  0  0  0  0  0  0
    7.7777    2.0559    1.2633 C   0  0  0  0  0  0  0  0  0  0  0  0
   11.6402    5.2768   -4.2463 C   0  0  0  0  0  0  0  0  0  0  0  0
   10.6259    5.8119   -3.2181 C   0  0  0  0  0  0  0  0  0  0  0  0
    8.5525    5.2003   -4.2998 C   0  0  0  0  0  0  0  0  0  0  0  0
  1 23  1  0  0  0  0
  1 24  1  0  0  0  0
  1  2  1  0  0  0  0
  3  4  1  0  0  0  0
  3 17  1  0  0  0  0
  4  6  2  0  0  0  0
  4 13  1  0  0  0  0
  5 10  1  0  0  0  0
  5 14  2  0  0  0  0
  6  8  1  0  0  0  0
  7 12  1  0  0  0  0
  7 14  1  0  0  0  0
  7 19  1  0  0  0  0
  8 10  2  0  0  0  0
  9 14  1  0  0  0  0
 10 12  1  0  0  0  0
 11 18  1  0  0  0  0
 11 20  1  0  0  0  0
 11 21  1  0  0  0  0
 12 13  2  0  0  0  0
 13 15  1  0  0  0  0
 15 16  1  0  0  0  0
 16 17  1  0  0  0  0
 16 18  1  6  0  0  0
 19 22  1  0  0  0  0
 22 23  1  0  0  0  0
M  END
>  <CHROM.1>
-164.51100733,104.74655727,141.03577499,-173.46211733,-67.32629265,-167.29668676
11.53305543,5.05919048,-1.08045161,0.58246770,-0.22479352,-1.28285000

>  <Name>
ligand

>  <RI>
144

>  <Rbt.Current_Directory>
/home/itssahil/PROJECTS/Mol_Feturizer/New_Systems/rnas/3TZR

>  <Rbt.Executable>
rbdock ($Id: //depot/dev/client3/rdock/2013.1/src/exe/rbdock.cxx#4 $)

>  <Rbt.Library>
libRbt.so (2013.1, Build901 2013/11/27)

>  <Rbt.Parameter_File>
/export/apps/rDock/src/rDock_2013.1_src/data/scripts/dock_solv.prm

>  <Rbt.Receptor>
prm/blind_docking_20.prm

>  <SCORE>
-14.3933

>  <SCORE.INTER>
-4.30804

>  <SCORE.INTER.CONST>
1

>  <SCORE.INTER.POLAR>
0

>  <SCORE.INTER.ROT>
6

>  <SCORE.INTER.SOLV>
15.3545

>  <SCORE.INTER.VDW>
-15.5902

>  <SCORE.INTER.norm>
-0.179502

>  <SCORE.INTRA>
-11.0053

>  <SCORE.INTRA.DIHEDRAL>
-0.47461

>  <SCORE.INTRA.DIHEDRAL.0>
4.94008

>  <SCORE.INTRA.POLAR>
0

>  <SCORE.INTRA.POLAR.0>
0

>  <SCORE.INTRA.REPUL>
0

>  <SCORE.INTRA.REPUL.0>
0

>  <SCORE.INTRA.SOLV>
0.410884

>  <SCORE.INTRA.SOLV.lig_0>
-31.4704

>  <SCORE.INTRA.VDW>
-10.9734

>  <SCORE.INTRA.VDW.0>
10.2807

>  <SCORE.INTRA.norm>
-0.458553

>  <SCORE.RESTR>
0.919971

>  <SCORE.RESTR.CAVITY>
0.919971

>  <SCORE.RESTR.norm>
0.0383321

>  <SCORE.SYSTEM>
0

>  <SCORE.SYSTEM.CONST>
0

>  <SCORE.SYSTEM.DIHEDRAL>
0

>  <SCORE.SYSTEM.SOLV>
0

>  <SCORE.SYSTEM.norm>
0

>  <SCORE.heavy>
24

>  <SCORE.norm>
-0.599722

>  <RMSD>
18.023

$$$$
ligand
 OpenBabel11021811493D
libRbt.so/2013.1/901 2013/11/27
 24 26  0  0  0  0  0  0  0  0999 V2000
    9.4753    6.2327   -3.9785 N   0  0  0  0  0  0  0  0  0  0  0  0
    8.8056    7.2220   -3.1496 C   0  0  0  0  0  0  0  0  0  0  0  0
   12.1332    4.5167    2.1688 O   0  0  0  0  0  0  0  0  0  0  0  0
   12.9438    5.0785    1.1916 C   0  0  0  0  0  0  0  0  0  0  0  0
   15.3746    6.6734   -1.9399 N   0  0  0  0  0  0  0  0  0  0  0  0
   14.0835    5.9945    1.5506 C   0  0  0  0  0  0  0  0  0  0  0  0
   13.6877    5.3305   -2.5697 N   0  0  0  0  0  0  0  0  0  0  0  0
   14.9513    6.5645    0.5637 C   0  0  0  0  0  0  0  0  0  0  0  0
   15.1236    6.2822   -4.3888 N   0  0  0  0  0  0  0  0  0  0  0  0
   14.6734    6.2312   -0.8093 C   0  0  0  0  0  0  0  0  0  0  0  0
    8.2888    3.4350    1.2661 N   0  0  0  0  0  0  0  0  0  0  0  0
   13.5784    5.3698   -1.1672 C   0  0  0  0  0  0  0  0  0  0  0  0
   12.7091    4.7902   -0.1070 C   0  0  0  0  0  0  0  0  0  0  0  0
   14.7562    6.1022   -3.0139 C   0  0  0  0  0  0  0  0  0  0  0  0
   11.5649    3.8760   -0.5035 C   0  0  0  0  0  0  0  0  0  0  0  0
   10.5970    3.5252    0.6214 C   0  0  1  0  0  0  0  0  0  0  0  0
   10.7953    4.3771    1.8425 C   0  0  0  0  0  0  0  0  0  0  0  0
    9.1635    3.6020    0.1182 C   0  0  0  0  0  0  0  0  0  0  0  0
   12.8344    4.5066   -3.4474 C   0  0  0  0  0  0  0  0  0  0  0  0
    7.2463    4.4505    1.2038 C   0  0  0  0  0  0  0  0  0  0  0  0
    7.6926    2.1117    1.1723 C   0  0  0  0  0  0  0  0  0  0  0  0
   11.7640    5.2764   -4.2400 C   0  0  0  0  0  0  0  0  0  0  0  0
   10.6367    5.6766   -3.2699 C   0  0  0  0  0  0  0  0  0  0  0  0
    8.5095    5.1914   -4.3105 C   0  0  0  0  0  0  0  0  0  0  0  0
  1 23  1  0  0  0  0
  1 24  1  0  0  0  0
  1  2  1  0  0  0  0
  3  4  1  0  0  0  0
  3 17  1  0  0  0  0
  4  6  2  0  0  0  0
  4 13  1  0  0  0  0
  5 10  1  0  0  0  0
  5 14  2  0  0  0  0
  6  8  1  0  0  0  0
  7 12  1  0  0  0  0
  7 14  1  0  0  0  0
  7 19  1  0  0  0  0
  8 10  2  0  0  0  0
  9 14  1  0  0  0  0
 10 12  1  0  0  0  0
 11 18  1  0  0  0  0
 11 20  1  0  0  0  0
 11 21  1  0  0  0  0
 12 13  2  0  0  0  0
 13 15  1  0  0  0  0
 15 16  1  0  0  0  0
 16 17  1  0  0  0  0
 16 18  1  6  0  0  0
 19 22  1  0  0  0  0
 22 23  1  0  0  0  0
M  END
>  <CHROM.1>
-148.70404234,105.83202030,134.01697172,-172.56666538,-74.32509042,-171.13357364
11.58897459,5.07024477,-1.07214605,0.56744386,-0.23226542,-1.29057037

>  <Name>
ligand

>  <RI>
144

>  <Rbt.Current_Directory>
/home/itssahil/PROJECTS/Mol_Feturizer/New_Systems/rnas/3TZR

>  <Rbt.Executable>
rbdock ($Id: //depot/dev/client3/rdock/2013.1/src/exe/rbdock.cxx#4 $)

>  <Rbt.Library>
libRbt.so (2013.1, Build901 2013/11/27)

>  <Rbt.Parameter_File>
/export/apps/rDock/src/rDock_2013.1_src/data/scripts/dock_solv.prm

>  <Rbt.Receptor>
prm/blind_docking_20.prm

>  <SCORE>
-14.217

>  <SCORE.INTER>
-4.25532

>  <SCORE.INTER.CONST>
1

>  <SCORE.INTER.POLAR>
0

>  <SCORE.INTER.ROT>
6

>  <SCORE.INTER.SOLV>
15.3124

>  <SCORE.INTER.VDW>
-15.541

>  <SCORE.INTER.norm>
-0.177305

>  <SCORE.INTRA>
-10.8472

>  <SCORE.INTRA.DIHEDRAL>
1.05245

>  <SCORE.INTRA.DIHEDRAL.0>
4.94008

>  <SCORE.INTRA.POLAR>
0

>  <SCORE.INTRA.POLAR.0>
0

>  <SCORE.INTRA.REPUL>
0

>  <SCORE.INTRA.REPUL.0>
0

>  <SCORE.INTRA.SOLV>
0.348652

>  <SCORE.INTRA.SOLV.lig_0>
-31.4704

>  <SCORE.INTRA.VDW>
-11.5478

>  <SCORE.INTRA.VDW.0>
10.2807

>  <SCORE.INTRA.norm>
-0.451968

>  <SCORE.RESTR>
0.885569

>  <SCORE.RESTR.CAVITY>
0.885569

>  <SCORE.RESTR.norm>
0.0368987

>  <SCORE.SYSTEM>
0

>  <SCORE.SYSTEM.CONST>
0

>  <SCORE.SYSTEM.DIHEDRAL>
0

>  <SCORE.SYSTEM.SOLV>
0

>  <SCORE.SYSTEM.norm>
0

>  <SCORE.heavy>
24

>  <SCORE.norm>
-0.592375

>  <RMSD>
18.049

$$$$
ligand
 OpenBabel11021811493D
libRbt.so/2013.1/901 2013/11/27
 24 26  0  0  0  0  0  0  0  0999 V2000
   14.3366    3.0582   -2.7496 N   0  0  0  0  0  0  0  0  0  0  0  0
   15.6097    3.7537   -2.8480 C   0  0  0  0  0  0  0  0  0  0  0  0
   10.8459    5.0128    1.7572 O   0  0  0  0  0  0  0  0  0  0  0  0
   12.0067    5.4762    1.1525 C   0  0  0  0  0  0  0  0  0  0  0  0
   15.5204    6.8204   -0.8738 N   0  0  0  0  0  0  0  0  0  0  0  0
   13.1951    5.9109    1.9683 C   0  0  0  0  0  0  0  0  0  0  0  0
   13.7916    6.2078   -2.1706 N   0  0  0  0  0  0  0  0  0  0  0  0
   14.4137    6.3662    1.3686 C   0  0  0  0  0  0  0  0  0  0  0  0
   15.8611    7.0048   -3.3362 N   0  0  0  0  0  0  0  0  0  0  0  0
   14.4490    6.4055   -0.0704 C   0  0  0  0  0  0  0  0  0  0  0  0
    8.5667    5.1078   -2.4320 N   0  0  0  0  0  0  0  0  0  0  0  0
   13.3154    6.0076   -0.8615 C   0  0  0  0  0  0  0  0  0  0  0  0
   12.0729    5.5298   -0.1956 C   0  0  0  0  0  0  0  0  0  0  0  0
   15.0981    6.6847   -2.1644 C   0  0  0  0  0  0  0  0  0  0  0  0
   10.8910    5.1053   -1.0471 C   0  0  0  0  0  0  0  0  0  0  0  0
    9.5962    4.8585   -0.2804 C   0  0  1  0  0  0  0  0  0  0  0  0
    9.6578    5.3562    1.1354 C   0  0  0  0  0  0  0  0  0  0  0  0
    8.4217    5.4670   -1.0318 C   0  0  0  0  0  0  0  0  0  0  0  0
   13.0344    5.8708   -3.3914 C   0  0  0  0  0  0  0  0  0  0  0  0
    7.2459    4.8179   -2.9734 C   0  0  0  0  0  0  0  0  0  0  0  0
    9.1395    6.2542   -3.1200 C   0  0  0  0  0  0  0  0  0  0  0  0
   12.3902    4.4738   -3.4047 C   0  0  0  0  0  0  0  0  0  0  0  0
   13.4531    3.4543   -3.8555 C   0  0  0  0  0  0  0  0  0  0  0  0
   14.6011    1.6240   -2.7714 C   0  0  0  0  0  0  0  0  0  0  0  0
  1 23  1  0  0  0  0
  1 24  1  0  0  0  0
  1  2  1  0  0  0  0
  3  4  1  0  0  0  0
  3 17  1  0  0  0  0
  4  6  2  0  0  0  0
  4 13  1  0  0  0  0
  5 10  1  0  0  0  0
  5 14  2  0  0  0  0
  6  8  1  0  0  0  0
  7 12  1  0  0  0  0
  7 14  1  0  0  0  0
  7 19  1  0  0  0  0
  8 10  2  0  0  0  0
  9 14  1  0  0  0  0
 10 12  1  0  0  0  0
 11 18  1  0  0  0  0
 11 20  1  0  0  0  0
 11 21  1  0  0  0  0
 12 13  2  0  0  0  0
 13 15  1  0  0  0  0
 15 16  1  0  0  0  0
 16 17  1  0  0  0  0
 16 18  1  6  0  0  0
 19 22  1  0  0  0  0
 22 23  1  0  0  0  0
M  END
>  <CHROM.1>
-101.80919744,-47.42771454,141.58790917,45.14343565,-83.57505538,81.45681225
12.33822286,5.22789592,-1.41051479,0.16400617,-0.04577894,-1.93565268

>  <Name>
ligand

>  <RI>
144

>  <Rbt.Current_Directory>
/home/itssahil/PROJECTS/Mol_Feturizer/New_Systems/rnas/3TZR

>  <Rbt.Executable>
rbdock ($Id: //depot/dev/client3/rdock/2013.1/src/exe/rbdock.cxx#4 $)

>  <Rbt.Library>
libRbt.so (2013.1, Build901 2013/11/27)

>  <Rbt.Parameter_File>
/export/apps/rDock/src/rDock_2013.1_src/data/scripts/dock_solv.prm

>  <Rbt.Receptor>
prm/blind_docking_20.prm

>  <SCORE>
-1.18326

>  <SCORE.INTER>
3.21092

>  <SCORE.INTER.CONST>
1

>  <SCORE.INTER.POLAR>
0

>  <SCORE.INTER.ROT>
6

>  <SCORE.INTER.SOLV>
11.4926

>  <SCORE.INTER.VDW>
-9.29026

>  <SCORE.INTER.norm>
0.133788

>  <SCORE.INTRA>
-4.47747

>  <SCORE.INTRA.DIHEDRAL>
4.22873

>  <SCORE.INTRA.DIHEDRAL.0>
4.94008

>  <SCORE.INTRA.POLAR>
0

>  <SCORE.INTRA.POLAR.0>
0

>  <SCORE.INTRA.REPUL>
0

>  <SCORE.INTRA.REPUL.0>
0

>  <SCORE.INTRA.SOLV>
1.98437

>  <SCORE.INTRA.SOLV.lig_0>
-31.4704

>  <SCORE.INTRA.VDW>
-7.58401

>  <SCORE.INTRA.VDW.0>
10.2807

>  <SCORE.INTRA.norm>
-0.186561

>  <SCORE.RESTR>
0.0832839

>  <SCORE.RESTR.CAVITY>
0.0832839

>  <SCORE.RESTR.norm>
0.00347016

>  <SCORE.SYSTEM>
0

>  <SCORE.SYSTEM.CONST>
0

>  <SCORE.SYSTEM.DIHEDRAL>
0

>  <SCORE.SYSTEM.SOLV>
0

>  <SCORE.SYSTEM.norm>
0

>  <SCORE.heavy>
24

>  <SCORE.norm>
-0.0493027

>  <RMSD>
18.161

$$$$
ligand
 OpenBabel11021811493D
libRbt.so/2013.1/901 2013/11/27
 24 26  0  0  0  0  0  0  0  0999 V2000
   15.0977    2.8651   -3.2381 N   0  0  0  0  0  0  0  0  0  0  0  0
   15.0592    1.4951   -2.7523 C   0  0  0  0  0  0  0  0  0  0  0  0
   10.8770    4.9943    1.7110 O   0  0  0  0  0  0  0  0  0  0  0  0
   12.0360    5.4674    1.1104 C   0  0  0  0  0  0  0  0  0  0  0  0
   15.5453    6.8411   -0.9036 N   0  0  0  0  0  0  0  0  0  0  0  0
   13.2177    5.9122    1.9304 C   0  0  0  0  0  0  0  0  0  0  0  0
   13.8264    6.2137   -2.2064 N   0  0  0  0  0  0  0  0  0  0  0  0
   14.4346    6.3778    1.3349 C   0  0  0  0  0  0  0  0  0  0  0  0
   15.8932    7.0281   -3.3648 N   0  0  0  0  0  0  0  0  0  0  0  0
   14.4746    6.4172   -0.1040 C   0  0  0  0  0  0  0  0  0  0  0  0
    8.6025    5.0544   -2.4833 N   0  0  0  0  0  0  0  0  0  0  0  0
   13.3473    6.0096   -0.8990 C   0  0  0  0  0  0  0  0  0  0  0  0
   12.1065    5.5214   -0.2374 C   0  0  0  0  0  0  0  0  0  0  0  0
   15.1288    6.7017   -2.1956 C   0  0  0  0  0  0  0  0  0  0  0  0
   10.9313    5.0867   -1.0931 C   0  0  0  0  0  0  0  0  0  0  0  0
    9.6359    4.8291   -0.3309 C   0  0  1  0  0  0  0  0  0  0  0  0
    9.6883    5.3275    1.0850 C   0  0  0  0  0  0  0  0  0  0  0  0
    8.4590    5.4275   -1.0866 C   0  0  0  0  0  0  0  0  0  0  0  0
   13.0764    5.8702   -3.4299 C   0  0  0  0  0  0  0  0  0  0  0  0
    7.2779    4.7912   -3.0293 C   0  0  0  0  0  0  0  0  0  0  0  0
    9.2052    6.1819   -3.1770 C   0  0  0  0  0  0  0  0  0  0  0  0
   13.5162    4.5740   -4.1322 C   0  0  0  0  0  0  0  0  0  0  0  0
   13.7884    3.5073   -3.0550 C   0  0  0  0  0  0  0  0  0  0  0  0
   16.1421    3.5752   -2.5084 C   0  0  0  0  0  0  0  0  0  0  0  0
  1 23  1  0  0  0  0
  1 24  1  0  0  0  0
  1  2  1  0  0  0  0
  3  4  1  0  0  0  0
  3 17  1  0  0  0  0
  4  6  2  0  0  0  0
  4 13  1  0  0  0  0
  5 10  1  0  0  0  0
  5 14  2  0  0  0  0
  6  8  1  0  0  0  0
  7 12  1  0  0  0  0
  7 14  1  0  0  0  0
  7 19  1  0  0  0  0
  8 10  2  0  0  0  0
  9 14  1  0  0  0  0
 10 12  1  0  0  0  0
 11 18  1  0  0  0  0
 11 20  1  0  0  0  0
 11 21  1  0  0  0  0
 12 13  2  0  0  0  0
 13 15  1  0  0  0  0
 15 16  1  0  0  0  0
 16 17  1  0  0  0  0
 16 18  1  6  0  0  0
 19 22  1  0  0  0  0
 22 23  1  0  0  0  0
M  END
>  <CHROM.1>
-149.80031723,-102.17297104,143.09611637,45.88768919,41.33864758,-129.67703038
12.50547956,5.20254349,-1.44507177,0.20854725,-0.01411476,-1.93959040

>  <Name>
ligand

>  <RI>
144

>  <Rbt.Current_Directory>
/home/itssahil/PROJECTS/Mol_Feturizer/New_Systems/rnas/3TZR

>  <Rbt.Executable>
rbdock ($Id: //depot/dev/client3/rdock/2013.1/src/exe/rbdock.cxx#4 $)

>  <Rbt.Library>
libRbt.so (2013.1, Build901 2013/11/27)

>  <Rbt.Parameter_File>
/export/apps/rDock/src/rDock_2013.1_src/data/scripts/dock_solv.prm

>  <Rbt.Receptor>
prm/blind_docking_20.prm

>  <SCORE>
-6.0976

>  <SCORE.INTER>
-1.09435

>  <SCORE.INTER.CONST>
1

>  <SCORE.INTER.POLAR>
0

>  <SCORE.INTER.ROT>
6

>  <SCORE.INTER.SOLV>
11.8088

>  <SCORE.INTER.VDW>
-12.2658

>  <SCORE.INTER.norm>
-0.0455979

>  <SCORE.INTRA>
-5.01048

>  <SCORE.INTRA.DIHEDRAL>
6.20148

>  <SCORE.INTRA.DIHEDRAL.0>
4.94008

>  <SCORE.INTRA.POLAR>
0

>  <SCORE.INTRA.POLAR.0>
0

>  <SCORE.INTRA.REPUL>
0

>  <SCORE.INTRA.REPUL.0>
0

>  <SCORE.INTRA.SOLV>
2.34773

>  <SCORE.INTRA.SOLV.lig_0>
-31.4704

>  <SCORE.INTRA.VDW>
-9.28509

>  <SCORE.INTRA.VDW.0>
10.2807

>  <SCORE.INTRA.norm>
-0.20877

>  <SCORE.RESTR>
0.00722862

>  <SCORE.RESTR.CAVITY>
0.00722862

>  <SCORE.RESTR.norm>
0.000301192

>  <SCORE.SYSTEM>
0

>  <SCORE.SYSTEM.CONST>
0

>  <SCORE.SYSTEM.DIHEDRAL>
0

>  <SCORE.SYSTEM.SOLV>
0

>  <SCORE.SYSTEM.norm>
0

>  <SCORE.heavy>
24

>  <SCORE.norm>
-0.254067

>  <RMSD>
18.173

$$$$
ligand
 OpenBabel11021811493D
libRbt.so/2013.1/901 2013/11/27
 24 26  0  0  0  0  0  0  0  0999 V2000
   15.8031    2.2841   -3.4515 N   0  0  0  0  0  0  0  0  0  0  0  0
   15.4718    1.2239   -2.5132 C   0  0  0  0  0  0  0  0  0  0  0  0
   11.6775    4.3049    2.1620 O   0  0  0  0  0  0  0  0  0  0  0  0
   12.6541    5.0078    1.4691 C   0  0  0  0  0  0  0  0  0  0  0  0
   15.6218    7.0615   -0.8187 N   0  0  0  0  0  0  0  0  0  0  0  0
   13.6955    5.8205    2.1915 C   0  0  0  0  0  0  0  0  0  0  0  0
   14.0991    5.8881   -1.9807 N   0  0  0  0  0  0  0  0  0  0  0  0
   14.7299    6.5317    1.5014 C   0  0  0  0  0  0  0  0  0  0  0  0
   15.8462    7.1054   -3.3008 N   0  0  0  0  0  0  0  0  0  0  0  0
   14.7222    6.4474    0.0640 C   0  0  0  0  0  0  0  0  0  0  0  0
    9.0856    5.2278   -0.9276 N   0  0  0  0  0  0  0  0  0  0  0  0
   13.7241    5.6871   -0.6393 C   0  0  0  0  0  0  0  0  0  0  0  0
   12.6742    4.9539    0.1195 C   0  0  0  0  0  0  0  0  0  0  0  0
   15.2252    6.6993   -2.0732 C   0  0  0  0  0  0  0  0  0  0  0  0
   11.6356    4.1494   -0.6396 C   0  0  0  0  0  0  0  0  0  0  0  0
   10.4743    3.6327    0.2030 C   0  0  1  0  0  0  0  0  0  0  0  0
   10.4278    4.2557    1.5688 C   0  0  0  0  0  0  0  0  0  0  0  0
    9.1624    3.8294   -0.5415 C   0  0  0  0  0  0  0  0  0  0  0  0
   13.4370    5.2488   -3.1340 C   0  0  0  0  0  0  0  0  0  0  0  0
    8.5455    5.3049   -2.2782 C   0  0  0  0  0  0  0  0  0  0  0  0
    8.1826    5.8887    0.0016 C   0  0  0  0  0  0  0  0  0  0  0  0
   13.8042    3.7740   -3.3724 C   0  0  0  0  0  0  0  0  0  0  0  0
   15.2777    3.5706   -2.9725 C   0  0  0  0  0  0  0  0  0  0  0  0
   17.2540    2.3254   -3.5944 C   0  0  0  0  0  0  0  0  0  0  0  0
  1 23  1  0  0  0  0
  1 24  1  0  0  0  0
  1  2  1  0  0  0  0
  3  4  1  0  0  0  0
  3 17  1  0  0  0  0
  4  6  2  0  0  0  0
  4 13  1  0  0  0  0
  5 10  1  0  0  0  0
  5 14  2  0  0  0  0
  6  8  1  0  0  0  0
  7 12  1  0  0  0  0
  7 14  1  0  0  0  0
  7 19  1  0  0  0  0
  8 10  2  0  0  0  0
  9 14  1  0  0  0  0
 10 12  1  0  0  0  0
 11 18  1  0  0  0  0
 11 20  1  0  0  0  0
 11 21  1  0  0  0  0
 12 13  2  0  0  0  0
 13 15  1  0  0  0  0
 15 16  1  0  0  0  0
 16 17  1  0  0  0  0
 16 18  1  6  0  0  0
 19 22  1  0  0  0  0
 22 23  1  0  0  0  0
M  END
>  <CHROM.1>
-84.50275193,-77.02111806,139.23729617,-53.30363902,-34.06594800,-166.81740156
13.00482697,4.78402438,-1.01244187,0.43062125,-0.20935466,-2.26504963

>  <Name>
ligand

>  <RI>
144

>  <Rbt.Current_Directory>
/home/itssahil/PROJECTS/Mol_Feturizer/New_Systems/rnas/3TZR

>  <Rbt.Executable>
rbdock ($Id: //depot/dev/client3/rdock/2013.1/src/exe/rbdock.cxx#4 $)

>  <Rbt.Library>
libRbt.so (2013.1, Build901 2013/11/27)

>  <Rbt.Parameter_File>
/export/apps/rDock/src/rDock_2013.1_src/data/scripts/dock_solv.prm

>  <Rbt.Receptor>
prm/blind_docking_20.prm

>  <SCORE>
-11.7589

>  <SCORE.INTER>
-3.06696

>  <SCORE.INTER.CONST>
1

>  <SCORE.INTER.POLAR>
0

>  <SCORE.INTER.ROT>
6

>  <SCORE.INTER.SOLV>
13.0212

>  <SCORE.INTER.VDW>
-13.985

>  <SCORE.INTER.norm>
-0.12779

>  <SCORE.INTRA>
-8.69445

>  <SCORE.INTRA.DIHEDRAL>
1.91378

>  <SCORE.INTRA.DIHEDRAL.0>
4.94008

>  <SCORE.INTRA.POLAR>
0

>  <SCORE.INTRA.POLAR.0>
0

>  <SCORE.INTRA.REPUL>
0

>  <SCORE.INTRA.REPUL.0>
0

>  <SCORE.INTRA.SOLV>
1.18348

>  <SCORE.INTRA.SOLV.lig_0>
-31.4704

>  <SCORE.INTRA.VDW>
-10.2431

>  <SCORE.INTRA.VDW.0>
10.2807

>  <SCORE.INTRA.norm>
-0.362269

>  <SCORE.RESTR>
0.00246612

>  <SCORE.RESTR.CAVITY>
0.00246612

>  <SCORE.RESTR.norm>
0.000102755

>  <SCORE.SYSTEM>
0

>  <SCORE.SYSTEM.CONST>
0

>  <SCORE.SYSTEM.DIHEDRAL>
0

>  <SCORE.SYSTEM.SOLV>
0

>  <SCORE.SYSTEM.norm>
0

>  <SCORE.heavy>
24

>  <SCORE.norm>
-0.489956

>  <RMSD>
18.200

$$$$
