@<TRIPOS>MOLECULE
3TZR_rdock.pdb
 859 865 0 0 0
SMALL
GASTEIGER

@<TRIPOS>ATOM
      1  C5'       -1.6270  -13.9860  -25.3190 C.3    48  C48         0.0000
      2  O5'       -2.6960  -13.9490  -26.2840 O.3    48  C48         0.0000
      3  C4'       -0.4870  -14.8190  -25.8530 C.3    48  C48         0.0000
      4  O4'       -0.0150  -14.2280  -27.0960 O.3    48  C48         0.0000
      5  C3'        0.7570  -14.8820  -24.9780 C.3    48  C48         0.0000
      6  O3'        0.6900  -15.8210  -23.9100 O.3    48  C48         0.0000
      7  C2'        1.8360  -15.2030  -26.0020 C.3    48  C48         0.0000
      8  O2'        1.8480  -16.5520  -26.4310 O.3    48  C48         0.0000
      9  C1'        1.3990  -14.3130  -27.1640 C.3    48  C48         0.0000
     10  N1         1.9520  -12.9430  -27.0530 N.ar   48  C48         0.0000
     11  C2         3.2560  -12.6940  -27.5070 C.ar   48  C48         0.0000
     12  O2         3.9330  -13.6090  -28.0200 O.2    48  C48         0.0000
     13  N3         3.7480  -11.4370  -27.3910 N.ar   48  C48         0.0000
     14  C4         3.0190  -10.4530  -26.8490 C.ar   48  C48         0.0000
     15  N4         3.5770   -9.2440  -26.7600 N.pl3  48  C48         0.0000
     16  C5         1.6940  -10.6790  -26.3700 C.ar   48  C48         0.0000
     17  C6         1.2090  -11.9280  -26.4920 C.ar   48  C48         0.0000
     18  P          1.5510  -15.5600  -22.5770 P.3    49  G49         0.0000
     19  C5'        3.5240  -17.0550  -23.5270 C.3    49  G49         0.0000
     20  O5'        3.0660  -15.7740  -23.0370 O.3    49  G49         0.0000
     21  C4'        4.9390  -16.9720  -24.0630 C.3    49  G49         0.0000
     22  O4'        5.0190  -16.0020  -25.1500 O.3    49  G49         0.0000
     23  C3'        5.9900  -16.5000  -23.0730 C.3    49  G49         0.0000
     24  O3'        6.4060  -17.5430  -22.2050 O.3    49  G49         0.0000
     25  C2'        7.0890  -16.0050  -24.0030 C.3    49  G49         0.0000
     26  O2'        7.8190  -17.0560  -24.5960 O.3    49  G49         0.0000
     27  C1'        6.2630  -15.3170  -25.0880 C.3    49  G49         0.0000
     28  N1         8.1580  -10.5660  -25.0970 N.ar   49  G49         0.0000
     29  C2         8.7630  -11.7510  -25.4630 C.ar   49  G49         0.0000
     30  N2        10.0430  -11.7100  -25.8860 N.pl3  49  G49         0.0000
     31  N3         8.1510  -12.9250  -25.4090 N.ar   49  G49         0.0000
     32  C4         6.8830  -12.8470  -24.9590 C.ar   49  G49         0.0000
     33  C5         6.1920  -11.7190  -24.5760 C.ar   49  G49         0.0000
     34  C6         6.8490  -10.4540  -24.6320 C.ar   49  G49         0.0000
     35  O6         6.3740   -9.3490  -24.3340 O.2    49  G49         0.0000
     36  N7         4.8940  -12.0480  -24.1830 N.ar   49  G49         0.0000
     37  C8         4.8310  -13.3470  -24.3370 C.ar   49  G49         0.0000
     38  N9         6.0030  -13.9040  -24.8020 N.ar   49  G49         0.0000
     39  OP1        1.1440  -16.5930  -21.5860 O.3    49  G49        -0.5000
     40  OP2        1.3810  -14.1260  -22.2440 O.co2  49  G49        -0.5000
     41  P          6.9060  -17.1800  -20.7220 P.3    50  A50         0.0000
     42  C5'        9.4150  -17.3470  -21.5470 C.3    50  A50         0.0000
     43  O5'        8.3600  -16.5670  -20.9560 O.3    50  A50         0.0000
     44  C4'       10.5430  -16.4500  -22.0060 C.3    50  A50         0.0000
     45  O4'       10.0410  -15.4610  -22.9490 O.3    50  A50         0.0000
     46  C3'       11.2130  -15.6120  -20.9310 C.3    50  A50         0.0000
     47  O3'       12.1510  -16.3410  -20.1540 O.3    50  A50         0.0000
     48  C2'       11.8460  -14.5040  -21.7630 C.3    50  A50         0.0000
     49  O2'       12.9840  -14.9370  -22.4850 O.3    50  A50         0.0000
     50  C1'       10.7300  -14.2310  -22.7670 C.3    50  A50         0.0000
     51  N1         9.5690   -9.2040  -22.2060 N.ar   50  A50         0.0000
     52  C2        10.6430   -9.8330  -22.7040 C.ar   50  A50         0.0000
     53  N3        10.9020  -11.1420  -22.8130 N.ar   50  A50         0.0000
     54  C4         9.8680  -11.8630  -22.3450 C.ar   50  A50         0.0000
     55  C5         8.6910  -11.3610  -21.8040 C.ar   50  A50         0.0000
     56  C6         8.5460   -9.9530  -21.7350 C.ar   50  A50         0.0000
     57  N6         7.4680   -9.3220  -21.2430 N.pl3  50  A50         0.0000
     58  N7         7.8650  -12.4030  -21.4210 N.ar   50  A50         0.0000
     59  C8         8.5330  -13.4860  -21.7300 C.ar   50  A50         0.0000
     60  N9         9.7610  -13.2370  -22.3000 N.ar   50  A50         0.0000
     61  OP1        7.0360  -18.4560  -19.9820 O.3    50  A50        -0.5000
     62  OP2        6.1000  -16.0850  -20.1470 O.co2  50  A50        -0.5000
     63  P         12.4620  -15.8620  -18.6510 P.3    51  G51         0.0000
     64  C5'       14.5440  -14.4470  -19.4540 C.3    51  G51         0.0000
     65  O5'       13.2580  -14.4890  -18.8120 O.3    51  G51         0.0000
     66  C4'       14.9970  -13.0190  -19.6510 C.3    51  G51         0.0000
     67  O4'       14.0820  -12.3320  -20.5490 O.3    51  G51         0.0000
     68  C3'       15.0220  -12.1310  -18.4160 C.3    51  G51         0.0000
     69  O3'       16.1680  -12.3240  -17.5880 O.3    51  G51         0.0000
     70  C2'       14.9930  -10.7490  -19.0550 C.3    51  G51         0.0000
     71  O2'       16.2370  -10.4190  -19.6410 O.3    51  G51         0.0000
     72  C1'       13.9710  -10.9700  -20.1670 C.3    51  G51         0.0000
     73  N1        10.4110   -7.5090  -19.0010 N.ar   51  G51         0.0000
     74  C2        11.6830   -7.3320  -19.4760 C.ar   51  G51         0.0000
     75  N2        12.0480   -6.0710  -19.6620 N.pl3  51  G51         0.0000
     76  N3        12.5300   -8.3010  -19.7570 N.ar   51  G51         0.0000
     77  C4        11.9930   -9.5120  -19.5020 C.ar   51  G51         0.0000
     78  C5        10.7290   -9.8040  -19.0220 C.ar   51  G51         0.0000
     79  C6         9.8300   -8.7420  -18.7410 C.ar   51  G51         0.0000
     80  O6         8.6750   -8.7970  -18.3080 O.2    51  G51         0.0000
     81  N7        10.5630  -11.1710  -18.9070 N.ar   51  G51         0.0000
     82  C8        11.6920  -11.6890  -19.3120 C.ar   51  G51         0.0000
     83  N9        12.6070  -10.7390  -19.6980 N.ar   51  G51         0.0000
     84  OP1       13.3830  -16.8740  -18.0800 O.2    51  G51        -0.5000
     85  OP2       11.1710  -15.5820  -17.9740 O.co2  51  G51        -0.5000
     86  P         16.0850  -12.0020  -16.0100 P.3    52  G52         0.0000
     87  C5'       16.9090   -9.5440  -16.5240 C.3    52  G52         0.0000
     88  O5'       15.9100  -10.4170  -15.9600 O.3    52  G52         0.0000
     89  C4'       16.4580   -8.1030  -16.4500 C.3    52  G52         0.0000
     90  O4'       15.2780   -7.9110  -17.2780 O.3    52  G52         0.0000
     91  C3'       16.0470   -7.6000  -15.0720 C.3    52  G52         0.0000
     92  O3'       17.1870   -7.1640  -14.3320 O.3    52  G52         0.0000
     93  C2'       15.1370   -6.4310  -15.4250 C.3    52  G52         0.0000
     94  O2'       15.8710   -5.2720  -15.7680 O.3    52  G52         0.0000
     95  C1'       14.4170   -6.9660  -16.6670 C.3    52  G52         0.0000
     96  N1         9.5560   -6.2520  -15.3930 N.ar   52  G52         0.0000
     97  C2        10.5280   -5.3310  -15.6970 C.ar   52  G52         0.0000
     98  N2        10.1500   -4.0400  -15.6360 N.pl3  52  G52         0.0000
     99  N3        11.7770   -5.6610  -16.0220 N.ar   52  G52         0.0000
    100  C4        11.9790   -6.9990  -16.0240 C.ar   52  G52         0.0000
    101  C5        11.0720   -8.0060  -15.7420 C.ar   52  G52         0.0000
    102  C6         9.7280   -7.6330  -15.3950 C.ar   52  G52         0.0000
    103  O6         8.7510   -8.3380  -15.1070 O.2    52  G52         0.0000
    104  N7        11.6910   -9.2530  -15.8700 N.ar   52  G52         0.0000
    105  C8        12.9200   -8.9860  -16.2160 C.ar   52  G52         0.0000
    106  N9        13.1610   -7.6340  -16.3330 N.ar   52  G52         0.0000
    107  OP1       17.3890  -12.3170  -15.3680 O.3    52  G52        -0.5000
    108  OP2       14.8520  -12.6520  -15.4940 O.co2  52  G52        -0.5000
    109  P         17.5140   -7.8020  -12.8900 P.3    53  A53         0.0000
    110  C5'       16.5260   -5.5400  -12.0480 C.3    53  A53         0.0000
    111  O5'       16.6190   -6.9570  -11.8830 O.3    53  A53         0.0000
    112  C4'       16.3230   -4.8560  -10.7210 C.3    53  A53         0.0000
    113  O4'       14.9060   -4.7590  -10.4350 O.3    53  A53         0.0000
    114  C3'       16.9760   -5.4890   -9.4930 C.3    53  A53         0.0000
    115  O3'       17.6340   -4.5020   -8.7040 O.3    53  A53         0.0000
    116  C2'       15.7940   -6.0260   -8.6870 C.3    53  A53         0.0000
    117  O2'       16.0340   -5.8570   -7.3060 O.3    53  A53         0.0000
    118  C1'       14.6830   -5.0550   -9.0780 C.3    53  A53         0.0000
    119  N1         9.6950   -3.7630   -8.8810 N.ar   53  A53         0.0000
    120  C2        10.8230   -3.0450   -9.0030 C.ar   53  A53         0.0000
    121  N3        12.0950   -3.4610   -9.0460 N.ar   53  A53         0.0000
    122  C4        12.1800   -4.7970   -8.9400 C.ar   53  A53         0.0000
    123  C5        11.1080   -5.6690   -8.8110 C.ar   53  A53         0.0000
    124  C6         9.8060   -5.1050   -8.7800 C.ar   53  A53         0.0000
    125  N6         8.6780   -5.8020   -8.6590 N.pl3  53  A53         0.0000
    126  N7        11.5820   -6.9730   -8.7320 N.ar   53  A53         0.0000
    127  C8        12.8900   -6.8650   -8.8210 C.ar   53  A53         0.0000
    128  N9        13.3240   -5.5700   -8.9430 N.ar   53  A53         0.0000
    129  OP1       18.9390   -7.5150  -12.5900 O.3    53  A53        -0.5000
    130  OP2       17.0240   -9.1970  -12.8680 O.co2  53  A53        -0.5000
    131  P         19.2350   -4.5440   -8.5470 P.3    54  A54         0.0000
    132  C5'       21.1140   -3.9510  -10.3280 C.3    54  A54         0.0000
    133  O5'       19.7370   -4.2490  -10.0310 O.3    54  A54         0.0000
    134  C4'       21.3180   -2.4570  -10.4580 C.3    54  A54         0.0000
    135  O4'       22.7390   -2.2010  -10.6410 O.3    54  A54         0.0000
    136  C3'       20.6230   -1.7780  -11.6370 C.3    54  A54         0.0000
    137  O3'       20.3840   -0.4110  -11.2980 O.3    54  A54         0.0000
    138  C2'       21.6920   -1.8360  -12.7220 C.3    54  A54         0.0000
    139  O2'       21.5770   -0.8400  -13.7190 O.3    54  A54         0.0000
    140  C1'       22.9580   -1.5960  -11.9010 C.3    54  A54         0.0000
    141  N1        27.9170   -0.8440  -12.9460 N.ar   54  A54         0.0000
    142  C2        26.9900   -0.0600  -12.3970 C.ar   54  A54         0.0000
    143  N3        25.7080   -0.3290  -12.1570 N.ar   54  A54         0.0000
    144  C4        25.3870   -1.5740  -12.5580 C.ar   54  A54         0.0000
    145  C5        26.2310   -2.5040  -13.1460 C.ar   54  A54         0.0000
    146  C6        27.5680   -2.0910  -13.3420 C.ar   54  A54         0.0000
    147  N6        28.4970   -2.8610  -13.8970 N.pl3  54  A54         0.0000
    148  N7        25.5450   -3.6890  -13.4310 N.ar   54  A54         0.0000
    149  C8        24.3220   -3.4490  -13.0070 C.ar   54  A54         0.0000
    150  N9        24.1590   -2.1890  -12.4760 N.ar   54  A54         0.0000
    151  OP1       19.6160   -5.9390   -8.1590 O.2    54  A54        -0.5000
    152  OP2       19.5840   -3.4150   -7.6410 O.co2  54  A54        -0.5000
    153  P         18.9880    0.3050  -11.6640 P.3    55  C55         0.0000
    154  C5'       17.8900   -1.2660   -9.8590 C.3    55  C55         0.0000
    155  O5'       18.0870    0.0650  -10.3690 O.3    55  C55         0.0000
    156  C4'       16.6660   -1.3380   -8.9760 C.3    55  C55         0.0000
    157  O4'       16.9060   -0.6450   -7.7210 O.3    55  C55         0.0000
    158  C3'       15.3820   -0.7180   -9.5150 C.3    55  C55         0.0000
    159  O3'       14.6620   -1.6190  -10.3580 O.3    55  C55         0.0000
    160  C2'       14.5840   -0.4930   -8.2390 C.3    55  C55         0.0000
    161  O2'       13.9700   -1.7010   -7.8290 O.3    55  C55         0.0000
    162  C1'       15.6840   -0.0990   -7.2490 C.3    55  C55         0.0000
    163  N1        15.8580    1.3650   -7.0860 N.ar   55  C55         0.0000
    164  C2        15.0290    2.0470   -6.1780 C.ar   55  C55         0.0000
    165  O2        14.1560    1.4130   -5.5470 O.2    55  C55         0.0000
    166  N3        15.2050    3.3840   -6.0140 N.ar   55  C55         0.0000
    167  C4        16.1530    4.0300   -6.7000 C.ar   55  C55         0.0000
    168  N4        16.2860    5.3450   -6.4990 N.pl3  55  C55         0.0000
    169  C5        17.0150    3.3560   -7.6210 C.ar   55  C55         0.0000
    170  C6        16.8320    2.0390   -7.7750 C.ar   55  C55         0.0000
    171  OP1       18.3280   -0.3220  -12.8320 O.2    55  C55        -0.5000
    172  OP2       19.3110    1.7430  -11.6990 O.co2  55  C55        -0.5000
    173  P         13.5750   -1.0520  -11.4090 P.3    56  U56         0.0000
    174  C5'       13.9360    0.6590  -13.3910 C.3    56  U56         0.0000
    175  O5'       14.3700    0.1350  -12.1200 O.3    56  U56         0.0000
    176  C4'       14.5500    2.0130  -13.6410 C.3    56  U56         0.0000
    177  O4'       13.9750    2.9930  -12.7310 O.3    56  U56         0.0000
    178  C3'       16.0630    2.1000  -13.4570 C.3    56  U56         0.0000
    179  O3'       16.6040    2.9530  -14.4560 O.3    56  U56         0.0000
    180  C2'       16.2050    2.7490  -12.0840 C.3    56  U56         0.0000
    181  O2'       17.3900    3.5010  -11.9610 O.3    56  U56         0.0000
    182  C1'       15.0130    3.6980  -12.0850 C.3    56  U56         0.0000
    183  N1        14.5330    4.1020  -10.7550 N.ar   56  U56         0.0000
    184  C2        14.7450    5.4220  -10.3390 C.ar   56  U56         0.0000
    185  O2        15.3420    6.2580  -11.0020 O.2    56  U56         0.0000
    186  N3        14.2330    5.7140   -9.0980 N.ar   56  U56         0.0000
    187  C4        13.5500    4.8340   -8.2700 C.ar   56  U56         0.0000
    188  O4        13.1390    5.2130   -7.1810 O.2    56  U56         0.0000
    189  C5        13.3710    3.5070   -8.7700 C.ar   56  U56         0.0000
    190  C6        13.8510    3.1970   -9.9750 C.ar   56  U56         0.0000
    191  OP1       12.4250   -0.4890  -10.6440 O.3    56  U56         0.0000
    192  OP2       13.3090   -2.0950  -12.4250 O.co2  56  U56        -1.0000
    193  P         16.3720    2.6080  -16.0080 P.3    57  A57         0.0000
    194  C5'       15.0990    4.4650  -17.4260 C.3    57  A57         0.0000
    195  O5'       15.0730    3.4510  -16.4000 O.3    57  A57         0.0000
    196  C4'       13.7020    4.9940  -17.6530 C.3    57  A57         0.0000
    197  O4'       12.9000    3.9590  -18.2790 O.3    57  A57         0.0000
    198  C3'       12.9300    5.3760  -16.3940 C.3    57  A57         0.0000
    199  O3'       13.1630    6.7180  -15.9730 O.3    57  A57         0.0000
    200  C2'       11.4870    5.2060  -16.8410 C.3    57  A57         0.0000
    201  O2'       11.0600    6.3080  -17.6120 O.3    57  A57         0.0000
    202  C1'       11.5920    3.9680  -17.7320 C.3    57  A57         0.0000
    203  N1         8.1210    0.9090  -15.4780 N.ar   57  A57         0.0000
    204  C2         8.0340    2.1130  -16.0790 C.ar   57  A57         0.0000
    205  N3         8.9850    2.8590  -16.6380 N.ar   57  A57         0.0000
    206  C4        10.1710    2.2360  -16.5490 C.ar   57  A57         0.0000
    207  C5        10.4270    1.0020  -15.9530 C.ar   57  A57         0.0000
    208  C6         9.3240    0.3050  -15.3960 C.ar   57  A57         0.0000
    209  N6         9.3820   -0.8890  -14.7940 N.pl3  57  A57         0.0000
    210  N7        11.7730    0.6930  -16.0520 N.ar   57  A57         0.0000
    211  C8        12.2870    1.7180  -16.6900 C.ar   57  A57         0.0000
    212  N9        11.3730    2.7050  -17.0220 N.ar   57  A57         0.0000
    213  OP1       16.0480    1.1580  -16.1400 O.3    57  A57        -0.5000
    214  OP2       17.5560    3.1630  -16.7250 O.co2  57  A57        -0.5000
    215  P         14.0420    6.9910  -14.6510 P.3    58  C58         0.0000
    216  C5'       12.4590    6.4420  -12.5840 C.3    58  C58         0.0000
    217  O5'       13.4070    5.9970  -13.5750 O.3    58  C58         0.0000
    218  C4'       11.0490    6.4910  -13.1370 C.3    58  C58         0.0000
    219  O4'       10.7770    5.2850  -13.8960 O.3    58  C58         0.0000
    220  C3'        9.9610    6.5430  -12.0730 C.3    58  C58         0.0000
    221  O3'        9.6790    7.8900  -11.7240 O.3    58  C58         0.0000
    222  C2'        8.7700    5.8890  -12.7640 C.3    58  C58         0.0000
    223  O2'        7.9720    6.7720  -13.5350 O.3    58  C58         0.0000
    224  C1'        9.4580    4.8380  -13.6370 C.3    58  C58         0.0000
    225  N1         9.5390    3.5030  -13.0150 N.ar   58  C58         0.0000
    226  C2         8.3660    2.7400  -12.8800 C.ar   58  C58         0.0000
    227  O2         7.2760    3.2060  -13.2520 O.2    58  C58         0.0000
    228  N3         8.4470    1.5050  -12.3310 N.ar   58  C58         0.0000
    229  C4         9.6160    1.0040  -11.9360 C.ar   58  C58         0.0000
    230  N4         9.6090   -0.2250  -11.4050 N.pl3  58  C58         0.0000
    231  C5        10.8300    1.7530  -12.0760 C.ar   58  C58         0.0000
    232  C6        10.7420    2.9800  -12.6180 C.ar   58  C58         0.0000
    233  OP1       13.8450    8.3940  -14.2020 O.3    58  C58        -0.5000
    234  OP2       15.4190    6.5050  -14.9570 O.co2  58  C58        -0.5000
    235  P          9.4570    8.2810  -10.1800 P.3    59  U59         0.0000
    236  C5'        6.8750    8.0200  -10.5540 C.3    59  U59         0.0000
    237  O5'        8.0410    7.6580   -9.8000 O.3    59  U59         0.0000
    238  C4'        5.6830    7.2690  -10.0310 C.3    59  U59         0.0000
    239  O4'        5.6190    5.9530  -10.6470 O.3    59  U59         0.0000
    240  C3'        5.7080    6.9630   -8.5440 C.3    59  U59         0.0000
    241  O3'        5.4100    8.1080   -7.7530 O.3    59  U59         0.0000
    242  C2'        4.7120    5.8140   -8.4640 C.3    59  U59         0.0000
    243  O2'        3.3640    6.2100   -8.6340 O.3    59  U59         0.0000
    244  C1'        5.0860    5.0220   -9.7170 C.3    59  U59         0.0000
    245  N1         6.0940    3.9610   -9.4800 N.ar   59  U59         0.0000
    246  C2         5.6130    2.7220   -9.1000 C.ar   59  U59         0.0000
    247  O2         4.4250    2.4930   -8.9510 O.2    59  U59         0.0000
    248  N3         6.5750    1.7580   -8.9000 N.ar   59  U59         0.0000
    249  C4         7.9400    1.9050   -9.0360 C.ar   59  U59         0.0000
    250  O4         8.6760    0.9470   -8.8140 O.3    59  U59         0.0000
    251  C5         8.3490    3.2120   -9.4310 C.ar   59  U59         0.0000
    252  C6         7.4380    4.1710   -9.6360 C.ar   59  U59         0.0000
    253  OP1        9.3140    9.7570  -10.1610 O.2    59  U59        -0.5000
    254  OP2       10.5030    7.6190   -9.3590 O.co2  59  U59        -0.5000
    255  P          5.7030    8.0890   -6.1720 P.3    60  G60         0.0000
    256  C5'        4.8110    6.2710   -4.5100 C.3    60  G60         0.0000
    257  O5'        4.5850    7.0830   -5.6610 O.3    60  G60         0.0000
    258  C4'        3.7840    5.1680   -4.4420 C.3    60  G60         0.0000
    259  O4'        3.9140    4.2960   -5.5990 O.3    60  G60         0.0000
    260  C3'        3.9600    4.2660   -3.2370 C.3    60  G60         0.0000
    261  O3'        3.2420    4.8510   -2.1670 O.3    60  G60         0.0000
    262  C2'        3.3840    2.9480   -3.7230 C.3    60  G60         0.0000
    263  O2'        1.9800    2.9150   -3.5710 O.3    60  G60         0.0000
    264  C1'        3.8400    2.9430   -5.1850 C.3    60  G60         0.0000
    265  N1         6.4990   -1.3760   -5.0230 N.ar   60  G60         0.0000
    266  C2         5.1670   -1.1330   -4.7840 C.ar   60  G60         0.0000
    267  N2         4.3880   -2.1730   -4.4480 N.pl3  60  G60         0.0000
    268  N3         4.6100    0.0560   -4.8590 N.ar   60  G60         0.0000
    269  C4         5.4800    1.0130   -5.2050 C.ar   60  G60         0.0000
    270  C5         6.8300    0.8920   -5.4610 C.ar   60  G60         0.0000
    271  C6         7.4390   -0.4070   -5.3740 C.ar   60  G60         0.0000
    272  O6         8.6210   -0.7480   -5.5550 O.2    60  G60         0.0000
    273  N7         7.3480    2.1430   -5.7740 N.ar   60  G60         0.0000
    274  C8         6.3360    2.9710   -5.7010 C.ar   60  G60         0.0000
    275  N9         5.1600    2.3430   -5.3630 N.ar   60  G60         0.0000
    276  OP1        5.3520    9.4310   -5.6270 O.3    60  G60        -0.5000
    277  OP2        7.0430    7.5100   -5.8740 O.co2  60  G60        -0.5000
    278  P          3.9250    4.9150   -0.7180 P.3    61  U61         0.0000
    279  C5'        2.8800    2.5690   -0.2350 C.3    61  U61         0.0000
    280  O5'        4.0630    3.3710   -0.3590 O.3    61  U61         0.0000
    281  C4'        3.2380    1.1070   -0.2220 C.3    61  U61         0.0000
    282  O4'        3.9030    0.7500   -1.4610 O.3    61  U61         0.0000
    283  C3'        4.2270    0.6790    0.8460 C.3    61  U61         0.0000
    284  O3'        3.5880    0.5230    2.1050 O.3    61  U61         0.0000
    285  C2'        4.7450   -0.6320    0.2730 C.3    61  U61         0.0000
    286  O2'        3.8270   -1.6910    0.4300 O.3    61  U61         0.0000
    287  C1'        4.8330   -0.2920   -1.2150 C.3    61  U61         0.0000
    288  N1         6.1710    0.1700   -1.6220 N.ar   61  U61         0.0000
    289  C2         7.1160   -0.8300   -1.7660 C.ar   61  U61         0.0000
    290  O2         6.8540   -2.0040   -1.5690 O.2    61  U61         0.0000
    291  N3         8.3610   -0.4060   -2.1320 N.ar   61  U61         0.0000
    292  C4         8.7360    0.8970   -2.3550 C.ar   61  U61         0.0000
    293  O4         9.8990    1.1070   -2.6780 O.2    61  U61         0.0000
    294  C5         7.7070    1.8870   -2.1810 C.ar   61  U61         0.0000
    295  C6         6.4750    1.5020   -1.8270 C.ar   61  U61         0.0000
    296  OP1        2.9420    5.5160    0.2260 O.3    61  U61        -0.5000
    297  OP2        5.2920    5.4900   -0.8390 O.co2  61  U61        -0.5000
    298  P          4.4530    0.7110    3.4400 P.3    62  C62         0.0000
    299  C5'        4.1420   -1.8750    3.9010 C.3    62  C62         0.0000
    300  O5'        5.0270   -0.7480    3.7360 O.3    62  C62         0.0000
    301  C4'        4.9250   -3.1690    3.9070 C.3    62  C62         0.0000
    302  O4'        5.4720   -3.4070    2.5830 O.3    62  C62         0.0000
    303  C3'        6.1360   -3.2160    4.8280 C.3    62  C62         0.0000
    304  O3'        5.8020   -3.5390    6.1730 O.3    62  C62         0.0000
    305  C2'        6.9840   -4.2980    4.1740 C.3    62  C62         0.0000
    306  O2'        6.5400   -5.6190    4.4320 O.3    62  C62         0.0000
    307  C1'        6.7510   -4.0010    2.6950 C.3    62  C62         0.0000
    308  N1         7.7440   -3.0780    2.1110 N.ar   62  C62         0.0000
    309  C2         8.9420   -3.6560    1.6800 C.ar   62  C62         0.0000
    310  O2         9.1080   -4.8780    1.8170 O.2    62  C62         0.0000
    311  N3         9.8830   -2.8690    1.1270 N.ar   62  C62         0.0000
    312  C4         9.6740   -1.5630    0.9830 C.ar   62  C62         0.0000
    313  N4        10.6650   -0.8780    0.4180 N.pl3  62  C62         0.0000
    314  C5         8.4650   -0.9330    1.4140 C.ar   62  C62         0.0000
    315  C6         7.5280   -1.7200    1.9740 C.ar   62  C62         0.0000
    316  OP1        3.5230    1.1380    4.5220 O.3    62  C62        -0.5000
    317  OP2        5.6150    1.5560    3.0930 O.co2  62  C62        -0.5000
    318  P          6.8320   -3.1730    7.3570 P.3    63  U63         0.0000
    319  C5'        8.0330   -5.5120    7.2100 C.3    63  U63         0.0000
    320  O5'        8.1050   -4.0850    7.0780 O.3    63  U63         0.0000
    321  C4'        9.3590   -6.1220    6.8360 C.3    63  U63         0.0000
    322  O4'        9.6340   -5.8580    5.4340 O.3    63  U63         0.0000
    323  C3'       10.5630   -5.5380    7.5560 C.3    63  U63         0.0000
    324  O3'       10.7310   -6.0880    8.8470 O.3    63  U63         0.0000
    325  C2'       11.6910   -5.9020    6.6050 C.3    63  U63         0.0000
    326  O2'       12.0390   -7.2690    6.7070 O.3    63  U63         0.0000
    327  C1'       11.0240   -5.6360    5.2560 C.3    63  U63         0.0000
    328  N1        11.2210   -4.2450    4.7670 N.ar   63  U63         0.0000
    329  C2        12.4060   -4.0420    4.1040 C.ar   63  U63         0.0000
    330  O2        13.2010   -4.9510    3.9720 O.2    63  U63         0.0000
    331  N3        12.6270   -2.7660    3.6250 N.ar   63  U63         0.0000
    332  C4        11.7840   -1.6720    3.7320 C.ar   63  U63         0.0000
    333  O4        12.1320   -0.5790    3.2420 O.2    63  U63         0.0000
    334  C5        10.5640   -1.9670    4.4450 C.ar   63  U63         0.0000
    335  C6        10.3270   -3.2040    4.9220 C.ar   63  U63         0.0000
    336  OP1        6.2230   -3.6170    8.6210 O.3    63  U63        -0.5000
    337  OP2        7.2970   -1.7660    7.2150 O.co2  63  U63        -0.5000
    338  P         11.2610   -5.1480   10.0300 P.3    64  U64         0.0000
    339  C5'       13.6660   -6.2180    9.9810 C.3    64  U64         0.0000
    340  O5'       12.8330   -5.0600    9.7790 O.3    64  U64         0.0000
    341  C4'       15.0850   -5.9230    9.5640 C.3    64  U64         0.0000
    342  O4'       15.1210   -5.5930    8.1540 O.3    64  U64         0.0000
    343  C3'       15.7280   -4.7230   10.2350 C.3    64  U64         0.0000
    344  O3'       16.2340   -5.1020   11.5010 O.3    64  U64         0.0000
    345  C2'       16.8300   -4.3690    9.2470 C.3    64  U64         0.0000
    346  O2'       17.9540   -5.2220    9.3220 O.3    64  U64         0.0000
    347  C1'       16.1240   -4.6200    7.9170 C.3    64  U64         0.0000
    348  N1        15.4860   -3.4060    7.3380 N.ar   64  U64         0.0000
    349  C2        16.3690   -2.5160    6.7480 C.ar   64  U64         0.0000
    350  O2        17.5780   -2.7270    6.7210 O.2    64  U64         0.0000
    351  N3        15.7990   -1.3840    6.2070 N.ar   64  U64         0.0000
    352  C4        14.4490   -1.0740    6.1900 C.ar   64  U64         0.0000
    353  O4        14.0940   -0.0260    5.6450 O.2    64  U64         0.0000
    354  C5        13.5890   -2.0540    6.8230 C.ar   64  U64         0.0000
    355  C6        14.1250   -3.1580    7.3620 C.ar   64  U64         0.0000
    356  OP1       11.0490   -5.9120   11.2780 O.3    64  U64        -0.5000
    357  OP2       10.6920   -3.7900    9.8970 O.co2  64  U64        -0.5000
    358  P         15.9080   -4.1970   12.7840 P.3    65  C65         0.0000
    359  C5'       18.4440   -3.4590   12.9180 C.3    65  C65         0.0000
    360  O5'       17.0580   -3.0940   12.7490 O.3    65  C65         0.0000
    361  C4'       19.3180   -2.5140   12.1310 C.3    65  C65         0.0000
    362  O4'       18.8640   -2.5010   10.7510 O.3    65  C65         0.0000
    363  C3'       19.2460   -1.0490   12.5370 C.3    65  C65         0.0000
    364  O3'       20.0460   -0.7200   13.6550 O.3    65  C65         0.0000
    365  C2'       19.7190   -0.3560   11.2700 C.3    65  C65         0.0000
    366  O2'       21.1040   -0.4970   11.0310 O.3    65  C65         0.0000
    367  C1'       19.0140   -1.1960   10.2100 C.3    65  C65         0.0000
    368  N1        17.6750   -0.6710    9.8490 N.ar   65  C65         0.0000
    369  C2        17.7070    0.3660    8.9210 C.ar   65  C65         0.0000
    370  O2        18.8280    0.7130    8.5340 O.2    65  C65         0.0000
    371  N3        16.5460    0.9390    8.5000 N.ar   65  C65         0.0000
    372  C4        15.3830    0.4890    8.9990 C.ar   65  C65         0.0000
    373  N4        14.2610    1.0640    8.5690 N.pl3  65  C65         0.0000
    374  C5        15.3220   -0.5770    9.9580 C.ar   65  C65         0.0000
    375  C6        16.4840   -1.1320   10.3540 C.ar   65  C65         0.0000
    376  OP1       16.1290   -5.0730   13.9640 O.3    65  C65        -0.5000
    377  OP2       14.5980   -3.5090   12.6040 O.co2  65  C65        -0.5000
    378  P         19.5490    0.4250   14.6670 P.3    66  C66         0.0000
    379  C5'       21.3100    2.0720   13.6490 C.3    66  C66         0.0000
    380  O5'       19.9360    1.7860   13.9410 O.3    66  C66         0.0000
    381  C4'       21.4060    3.2920   12.7710 C.3    66  C66         0.0000
    382  O4'       20.7020    3.0560   11.5230 O.3    66  C66         0.0000
    383  C3'       20.7540    4.5610   13.3030 C.3    66  C66         0.0000
    384  O3'       21.5280    5.2420   14.2820 O.3    66  C66         0.0000
    385  C2'       20.5950    5.3740   12.0280 C.3    66  C66         0.0000
    386  O2'       21.8140    5.9130   11.5490 O.3    66  C66         0.0000
    387  C1'       20.1810    4.2860   11.0400 C.3    66  C66         0.0000
    388  N1        18.7290    4.1480   10.8760 N.ar   66  C66         0.0000
    389  C2        18.1140    5.0580   10.0140 C.ar   66  C66         0.0000
    390  O2        18.8020    5.9440    9.4740 O.2    66  C66         0.0000
    391  N3        16.7910    4.9590    9.8010 N.ar   66  C66         0.0000
    392  C4        16.1120    3.9850   10.4090 C.ar   66  C66         0.0000
    393  N4        14.8010    3.9160   10.1760 N.pl3  66  C66         0.0000
    394  C5        16.7260    3.0400   11.2850 C.ar   66  C66         0.0000
    395  C6        18.0370    3.1550   11.4900 C.ar   66  C66         0.0000
    396  OP1       20.4260    0.2310   15.8620 O.3    66  C66        -0.5000
    397  OP2       18.0720    0.4440   14.8330 O.co2  66  C66        -0.5000
    398  P         20.7810    6.0720   15.4390 P.3    67  C67         0.0000
    399  C5'       21.0280    8.1810   13.9040 C.3    67  C67         0.0000
    400  O5'       20.1620    7.3080   14.6490 O.3    67  C67         0.0000
    401  C4'       20.2430    9.2950   13.2610 C.3    67  C67         0.0000
    402  O4'       19.4980    8.7790   12.1260 O.3    67  C67         0.0000
    403  C3'       19.1650    9.9640   14.0990 C.3    67  C67         0.0000
    404  O3'       19.6550   10.8590   15.0890 O.3    67  C67         0.0000
    405  C2'       18.3270   10.6430   13.0200 C.3    67  C67         0.0000
    406  O2'       18.9010   11.8070   12.4650 O.3    67  C67         0.0000
    407  C1'       18.3450    9.5830   11.9160 C.3    67  C67         0.0000
    408  N1        17.1340    8.7140   11.9130 N.ar   67  C67         0.0000
    409  C2        15.9950    9.2050   11.2540 C.ar   67  C67         0.0000
    410  O2        16.0350   10.3110   10.6890 O.2    67  C67         0.0000
    411  N3        14.8570    8.4720   11.2320 N.ar   67  C67         0.0000
    412  C4        14.8090    7.2940   11.8300 C.ar   67  C67         0.0000
    413  N4        13.6530    6.6280   11.7520 N.pl3  67  C67         0.0000
    414  C5        15.9500    6.7670   12.5190 C.ar   67  C67         0.0000
    415  C6        17.0790    7.5070   12.5460 C.ar   67  C67         0.0000
    416  OP1       21.8680    6.5340   16.3340 O.3    67  C67        -0.5000
    417  OP2       19.6500    5.3050   16.0030 O.co2  67  C67        -0.5000
    418  C5'       11.2810   11.7600    3.4750 C.3   101  G101        0.0000
    419  O5'       10.7510   10.5050    3.9350 O.3   101  G101        0.0000
    420  C4'       12.7170   11.9030    3.9180 C.3   101  G101        0.0000
    421  O4'       12.7870   11.8270    5.3720 O.3   101  G101        0.0000
    422  C3'       13.6670   10.8120    3.4450 C.3   101  G101        0.0000
    423  O3'       14.1650   11.0050    2.1260 O.3   101  G101        0.0000
    424  C2'       14.7730   10.9010    4.4850 C.3   101  G101        0.0000
    425  O2'       15.6620   11.9790    4.2680 O.3   101  G101        0.0000
    426  C1'       13.9530   11.1130    5.7570 C.3   101  G101        0.0000
    427  N1        15.4490    7.0000    8.3470 N.ar  101  G101        0.0000
    428  C2        16.1680    8.1010    7.9660 C.ar  101  G101        0.0000
    429  N2        17.4630    8.0960    8.3270 N.pl3 101  G101        0.0000
    430  N3        15.6580    9.1260    7.2800 N.ar  101  G101        0.0000
    431  C4        14.3450    8.9550    7.0100 C.ar  101  G101        0.0000
    432  C5        13.5290    7.9000    7.3500 C.ar  101  G101        0.0000
    433  C6        14.0930    6.8060    8.0790 C.ar  101  G101        0.0000
    434  O6        13.5370    5.7670    8.4640 O.2   101  G101        0.0000
    435  N7        12.2330    8.1040    6.8830 N.ar  101  G101        0.0000
    436  C8        12.2850    9.2570    6.2870 C.ar  101  G101        0.0000
    437  N9        13.5350    9.8370    6.3360 N.ar  101  G101        0.0000
    438  P         14.3570    9.7360    1.1550 P.3   102  G102        0.0000
    439  C5'       16.8980    9.5830    1.7900 C.3   102  G102        0.0000
    440  O5'       15.6100    8.9490    1.7530 O.3   102  G102        0.0000
    441  C4'       17.8810    8.7970    2.6270 C.3   102  G102        0.0000
    442  O4'       17.3920    8.6560    3.9900 O.3   102  G102        0.0000
    443  C3'       18.1800    7.3640    2.2120 C.3   102  G102        0.0000
    444  O3'       19.0520    7.2100    1.0860 O.3   102  G102        0.0000
    445  C2'       18.8160    6.8320    3.4880 C.3   102  G102        0.0000
    446  O2'       20.1480    7.2900    3.6190 O.3   102  G102        0.0000
    447  C1'       17.9130    7.4610    4.5520 C.3   102  G102        0.0000
    448  N1        16.6730    3.2300    7.0260 N.ar  102  G102        0.0000
    449  C2        17.8880    3.8640    6.9050 C.ar  102  G102        0.0000
    450  N2        18.9210    3.2790    7.5260 N.pl3 102  G102        0.0000
    451  N3        18.0800    4.9920    6.2250 N.ar  102  G102        0.0000
    452  C4        16.9310    5.4450    5.6650 C.ar  102  G102        0.0000
    453  C5        15.6630    4.8940    5.7240 C.ar  102  G102        0.0000
    454  C6        15.4820    3.6890    6.4670 C.ar  102  G102        0.0000
    455  O6        14.4350    3.0560    6.6430 O.2   102  G102        0.0000
    456  N7        14.7490    5.6690    5.0060 N.ar  102  G102        0.0000
    457  C8        15.4670    6.6560    4.5340 C.ar  102  G102        0.0000
    458  N9        16.8000    6.5820    4.9030 N.ar  102  G102        0.0000
    459  OP1       14.7580   10.3190   -0.1510 O.2   102  G102       -0.5000
    460  OP2       13.1760    8.8390    1.2320 O.co2 102  G102       -0.5000
    461  P         18.8960    5.9260    0.1140 P.3   103  U103        0.0000
    462  C5'       20.5880    4.6410    1.7030 C.3   103  U103        0.0000
    463  O5'       19.3400    4.6730    0.9940 O.3   103  U103        0.0000
    464  C4'       20.6190    3.4460    2.6250 C.3   103  U103        0.0000
    465  O4'       19.6050    3.6000    3.6540 O.3   103  U103        0.0000
    466  C3'       20.3090    2.1040    1.9760 C.3   103  U103        0.0000
    467  O3'       21.5060    1.5640    1.4380 O.3   103  U103        0.0000
    468  C2'       19.8100    1.2850    3.1570 C.3   103  U103        0.0000
    469  O2'       20.8840    0.8740    3.9700 O.3   103  U103        0.0000
    470  C1'       19.0410    2.3370    3.9570 C.3   103  U103        0.0000
    471  N1        17.5910    2.3980    3.6780 N.ar  103  U103        0.0000
    472  C2        16.8260    1.4280    4.2720 C.ar  103  U103        0.0000
    473  O2        17.3360    0.5490    4.9600 O.2   103  U103        0.0000
    474  N3        15.4720    1.5370    4.0220 N.ar  103  U103        0.0000
    475  C4        14.8310    2.4970    3.2510 C.ar  103  U103        0.0000
    476  O4        13.6080    2.4610    3.1190 O.2   103  U103        0.0000
    477  C5        15.7070    3.4720    2.6650 C.ar  103  U103        0.0000
    478  C6        17.0260    3.3930    2.9010 C.ar  103  U103        0.0000
    479  OP1       19.8350    6.0710   -1.0270 O.2   103  U103       -0.5000
    480  OP2       17.4500    5.7060   -0.1520 O.co2 103  U103       -0.5000
    481  P         21.4530    0.5680    0.1750 P.3   104  C104        0.0000
    482  C5'       21.7410   -1.3800    1.9290 C.3   104  C104        0.0000
    483  O5'       21.0270   -0.8340    0.8030 O.3   104  C104        0.0000
    484  C4'       20.9620   -2.5070    2.5700 C.3   104  C104        0.0000
    485  O4'       19.8420   -1.9790    3.3220 O.3   104  C104        0.0000
    486  C3'       20.3390   -3.5180    1.6200 C.3   104  C104        0.0000
    487  O3'       21.2910   -4.5120    1.2780 O.3   104  C104        0.0000
    488  C2'       19.2290   -4.1120    2.4750 C.3   104  C104        0.0000
    489  O2'       19.7310   -5.0920    3.3640 O.3   104  C104        0.0000
    490  C1'       18.7500   -2.8810    3.2470 C.3   104  C104        0.0000
    491  N1        17.6060   -2.1580    2.6380 N.ar  104  C104        0.0000
    492  C2        16.3020   -2.4710    3.0650 C.ar  104  C104        0.0000
    493  O2        16.1250   -3.3840    3.9030 O.2   104  C104        0.0000
    494  N3        15.2640   -1.7770    2.5350 N.ar  104  C104        0.0000
    495  C4        15.4860   -0.8170    1.6340 C.ar  104  C104        0.0000
    496  N4        14.4170   -0.1800    1.1590 N.pl3 104  C104        0.0000
    497  C5        16.8030   -0.4620    1.1850 C.ar  104  C104        0.0000
    498  C6        17.8210   -1.1590    1.7160 C.ar  104  C104        0.0000
    499  OP1       22.8730    0.4950   -0.2690 O.3   104  C104       -0.5000
    500  OP2       20.4020    0.9700   -0.7910 O.co2 104  C104       -0.5000
    501  P         21.2430   -5.1830   -0.1770 P.3   105  G105        0.0000
    502  C5'       19.9090   -7.1680    0.9260 C.3   105  G105        0.0000
    503  O5'       19.9840   -6.1580   -0.0950 O.3   105  G105        0.0000
    504  C4'       18.6120   -7.9240    0.8040 C.3   105  G105        0.0000
    505  O4'       17.4990   -7.0250    1.0670 O.3   105  G105        0.0000
    506  C3'       18.3400   -8.5500   -0.5630 C.3   105  G105        0.0000
    507  O3'       17.5890   -9.7320   -0.3700 O.3   105  G105        0.0000
    508  C2'       17.3920   -7.5560   -1.2190 C.3   105  G105        0.0000
    509  O2'       16.5460   -8.1700   -2.1750 O.3   105  G105        0.0000
    510  C1'       16.5870   -7.0770   -0.0120 C.3   105  G105        0.0000
    511  N1        12.4260   -4.2800    0.5790 N.ar  105  G105        0.0000
    512  C2        12.6520   -5.5950    0.9270 C.ar  105  G105        0.0000
    513  N2        11.6430   -6.2620    1.5130 N.pl3 105  G105        0.0000
    514  N3        13.8060   -6.2110    0.7090 N.ar  105  G105        0.0000
    515  C4        14.7250   -5.4050    0.1230 C.ar  105  G105        0.0000
    516  C5        14.6070   -4.0940   -0.2680 C.ar  105  G105        0.0000
    517  C6        13.3610   -3.4400   -0.0400 C.ar  105  G105        0.0000
    518  O6        13.0620   -2.2760   -0.3230 O.2   105  G105        0.0000
    519  N7        15.7880   -3.6390   -0.8490 N.ar  105  G105        0.0000
    520  C8        16.5880   -4.6550   -0.7920 C.ar  105  G105        0.0000
    521  N9        16.0080   -5.7520   -0.2050 N.ar  105  G105        0.0000
    522  OP1       22.5060   -5.9690   -0.2280 O.3   105  G105       -0.5000
    523  OP2       20.9640   -4.1680   -1.2260 O.co2 105  G105       -0.5000
    524  P         18.2110  -11.1430   -0.7990 P.3   106  U106        0.0000
    525  C5'       18.2400  -10.5080   -3.3620 C.3   106  U106        0.0000
    526  O5'       17.7220  -11.3280   -2.3030 O.3   106  U106        0.0000
    527  C4'       17.6760  -11.0040   -4.6660 C.3   106  U106        0.0000
    528  O4'       18.0320  -12.4000   -4.8240 O.3   106  U106        0.0000
    529  C3'       16.1580  -10.9490   -4.7680 C.3   106  U106        0.0000
    530  O3'       15.8740   -9.6590   -5.3200 O.3   106  U106        0.0000
    531  C2'       15.8290  -12.1170   -5.6980 C.3   106  U106        0.0000
    532  O2'       15.9380  -11.8130   -7.0760 O.3   106  U106        0.0000
    533  C1'       16.9420  -13.1160   -5.3720 C.3   106  U106        0.0000
    534  N1        16.5960  -14.2100   -4.4320 N.ar  106  U106        0.0000
    535  C2        16.4160  -15.4720   -4.9770 C.ar  106  U106        0.0000
    536  O2        16.4710  -15.6750   -6.1870 O.2   106  U106        0.0000
    537  N3        16.1490  -16.4700   -4.0580 N.ar  106  U106        0.0000
    538  C4        16.0670  -16.3430   -2.6770 C.ar  106  U106        0.0000
    539  O4        15.8120  -17.3310   -1.9680 O.2   106  U106        0.0000
    540  C5        16.2970  -15.0130   -2.2000 C.ar  106  U106        0.0000
    541  C6        16.5540  -14.0220   -3.0670 C.ar  106  U106        0.0000
    542  OP1       17.5360  -12.1660    0.0420 O.3   106  U106       -0.5000
    543  OP2       19.6940  -11.0280   -0.7840 O.co2 106  U106       -0.5000
    544  P         14.4160   -8.9880   -5.1760 P.3   107  G107        0.0000
    545  C5'       13.5610  -10.4010   -3.0990 C.3   107  G107        0.0000
    546  O5'       13.9730   -9.1320   -3.6480 O.3   107  G107        0.0000
    547  C4'       12.2560  -10.2640   -2.3480 C.3   107  G107        0.0000
    548  O4'       12.3630   -9.1870   -1.3790 O.3   107  G107        0.0000
    549  C3'       11.0260   -9.9030   -3.1720 C.3   107  G107        0.0000
    550  O3'       10.4010  -11.0440   -3.7450 O.3   107  G107        0.0000
    551  C2'       10.1160   -9.3090   -2.1110 C.3   107  G107        0.0000
    552  O2'        9.5230  -10.3360   -1.3410 O.3   107  G107        0.0000
    553  C1'       11.1200   -8.5140   -1.2770 C.3   107  G107        0.0000
    554  N1         8.7470   -4.1130   -1.6450 N.ar  107  G107        0.0000
    555  C2         8.3470   -5.3160   -1.1080 C.ar  107  G107        0.0000
    556  N2         7.1170   -5.3930   -0.5770 N.pl3 107  G107        0.0000
    557  N3         9.1140   -6.3900   -1.0940 N.ar  107  G107        0.0000
    558  C4        10.3210   -6.1770   -1.6510 C.ar  107  G107        0.0000
    559  C5        10.8300   -5.0270   -2.2230 C.ar  107  G107        0.0000
    560  C6         9.9850   -3.8600   -2.2340 C.ar  107  G107        0.0000
    561  O6        10.2020   -2.7140   -2.6740 O.2   107  G107        0.0000
    562  N7        12.1280   -5.2770   -2.6940 N.ar  107  G107        0.0000
    563  C8        12.3600   -6.5430   -2.4060 C.ar  107  G107        0.0000
    564  N9        11.2940   -7.1450   -1.7630 N.ar  107  G107        0.0000
    565  OP1       13.5230   -9.7820   -6.0700 O.2   107  G107       -0.5000
    566  OP2       14.5850   -7.5390   -5.4250 O.co2 107  G107       -0.5000
    567  P          9.5870  -10.9110   -5.1250 P.3   108  C108        0.0000
    568  C5'        7.2500  -10.5650   -3.9520 C.3   108  C108        0.0000
    569  O5'        8.3140  -10.0240   -4.7550 O.3   108  C108        0.0000
    570  C4'        6.1360   -9.5540   -3.7740 C.3   108  C108        0.0000
    571  O4'        6.6210   -8.3940   -3.0430 O.3   108  C108        0.0000
    572  C3'        5.5230   -8.9590   -5.0350 C.3   108  C108        0.0000
    573  O3'        4.5790   -9.8220   -5.6570 O.3   108  C108        0.0000
    574  C2'        4.8600   -7.7060   -4.4730 C.3   108  C108        0.0000
    575  O2'        3.6450   -7.9600   -3.7910 O.3   108  C108        0.0000
    576  C1'        5.9250   -7.2340   -3.4790 C.3   108  C108        0.0000
    577  N1         6.9090   -6.2910   -4.0890 N.ar  108  C108        0.0000
    578  C2         6.5760   -4.9260   -4.2310 C.ar  108  C108        0.0000
    579  O2         5.4680   -4.5250   -3.8420 O.2   108  C108        0.0000
    580  N3         7.4570   -4.0650   -4.7880 N.ar  108  C108        0.0000
    581  C4         8.6360   -4.5150   -5.2120 C.ar  108  C108        0.0000
    582  N4         9.4920   -3.6440   -5.7650 N.pl3 108  C108        0.0000
    583  C5         9.0030   -5.8880   -5.0840 C.ar  108  C108        0.0000
    584  C6         8.1220   -6.7280   -4.5280 C.ar  108  C108        0.0000
    585  OP1        9.1500  -12.2930   -5.4620 O.2   108  C108        0.0000
    586  OP2       10.4030  -10.1470   -6.0940 O.co2 108  C108       -1.0000
    587  P          4.3690   -9.8010   -7.2540 P.3   109  A109        0.0000
    588  C5'        2.1630   -8.4130   -6.9510 C.3   109  A109        0.0000
    589  O5'        3.4750   -8.5110   -7.5270 O.3   109  A109        0.0000
    590  C4'        1.6080   -7.0100   -7.0820 C.3   109  A109        0.0000
    591  O4'        2.4360   -6.0650   -6.3490 O.3   109  A109        0.0000
    592  C3'        1.5330   -6.4160   -8.4790 C.3   109  A109        0.0000
    593  O3'        0.4460   -6.9300   -9.2480 O.3   109  A109        0.0000
    594  C2'        1.4120   -4.9270   -8.1600 C.3   109  A109        0.0000
    595  O2'        0.1330   -4.5330   -7.6950 O.3   109  A109        0.0000
    596  C1'        2.3770   -4.7940   -6.9810 C.3   109  A109        0.0000
    597  N1         5.4570   -0.8350   -8.2040 N.ar  109  A109        0.0000
    598  C2         4.1520   -0.9010   -7.8770 C.ar  109  A109        0.0000
    599  N3         3.4110   -1.9710   -7.5650 N.ar  109  A109        0.0000
    600  C4         4.1550   -3.0980   -7.6150 C.ar  109  A109        0.0000
    601  C5         5.5090   -3.1890   -7.9330 C.ar  109  A109        0.0000
    602  C6         6.1860   -1.9850   -8.2370 C.ar  109  A109        0.0000
    603  N6         7.4930   -1.9210   -8.5600 N.pl3 109  A109        0.0000
    604  N7         5.9260   -4.5170   -7.8840 N.ar  109  A109        0.0000
    605  C8         4.8490   -5.1950   -7.5370 C.ar  109  A109        0.0000
    606  N9         3.7340   -4.3970   -7.3610 N.ar  109  A109        0.0000
    607  OP1        3.5590  -11.0010   -7.5870 O.3   109  A109       -0.5000
    608  OP2        5.6730   -9.5920   -7.9270 O.co2 109  A109       -0.5000
    609  P          0.5680   -7.0180  -10.8550 P.3   110  G110        0.0000
    610  C5'       -0.5510   -4.6360  -11.0200 C.3   110  G110        0.0000
    611  O5'        0.5570   -5.4940  -11.3370 O.3   110  G110        0.0000
    612  C4'       -0.2270   -3.1780  -11.2670 C.3   110  G110        0.0000
    613  O4'        0.7680   -2.6900  -10.3260 O.3   110  G110        0.0000
    614  C3'        0.3650   -2.8170  -12.6160 C.3   110  G110        0.0000
    615  O3'       -0.5920   -2.8420  -13.6620 O.3   110  G110        0.0000
    616  C2'        0.9290   -1.4300  -12.3290 C.3   110  G110        0.0000
    617  O2'       -0.0310   -0.3900  -12.2750 O.3   110  G110        0.0000
    618  C1'        1.5140   -1.6420  -10.9330 C.3   110  G110        0.0000
    619  N1         6.1780   -0.0690  -11.9470 N.ar  110  G110        0.0000
    620  C2         5.0020    0.6640  -11.8690 C.ar  110  G110        0.0000
    621  N2         5.1120    1.9830  -12.1010 N.pl3 110  G110        0.0000
    622  N3         3.8210    0.1260  -11.5770 N.ar  110  G110        0.0000
    623  C4         3.9230   -1.2110  -11.3760 C.ar  110  G110        0.0000
    624  C5         5.0310   -2.0200  -11.4370 C.ar  110  G110        0.0000
    625  C6         6.2880   -1.4410  -11.7380 C.ar  110  G110        0.0000
    626  O6         7.3740   -2.0030  -11.8250 O.2   110  G110        0.0000
    627  N7         4.7010   -3.3360  -11.1640 N.ar  110  G110        0.0000
    628  C8         3.4210   -3.3230  -10.9530 C.ar  110  G110        0.0000
    629  N9         2.9040   -2.0580  -11.0430 N.ar  110  G110        0.0000
    630  OP1       -0.6710   -7.6690  -11.3710 O.2   110  G110       -0.5000
    631  OP2        1.8860   -7.5940  -11.2320 O.co2 110  G110       -0.5000
    632  P         -0.0860   -3.1070  -15.1570 P.3   111  C111        0.0000
    633  C5'        1.7630   -1.7680  -16.4610 C.3   111  C111        0.0000
    634  O5'        0.7350   -1.7760  -15.4620 O.3   111  C111        0.0000
    635  C4'        3.0280   -1.1330  -15.9290 C.3   111  C111        0.0000
    636  O4'        3.5180   -1.8870  -14.7890 O.3   111  C111        0.0000
    637  C3'        4.1760   -1.1300  -16.9250 C.3   111  C111        0.0000
    638  O3'        4.0720    0.0310  -17.7340 O.3   111  C111        0.0000
    639  C2'        5.4050   -1.1530  -16.0220 C.3   111  C111        0.0000
    640  O2'        5.7480    0.0890  -15.4430 O.3   111  C111        0.0000
    641  C1'        4.9230   -2.0450  -14.8810 C.3   111  C111        0.0000
    642  N1         5.2220   -3.4880  -15.0550 N.ar  111  C111        0.0000
    643  C2         6.5540   -3.9160  -15.0010 C.ar  111  C111        0.0000
    644  O2         7.4490   -3.0770  -14.8530 O.2   111  C111        0.0000
    645  N3         6.8400   -5.2380  -15.1260 N.ar  111  C111        0.0000
    646  C4         5.8590   -6.1300  -15.2870 C.ar  111  C111        0.0000
    647  N4         6.2060   -7.4200  -15.3900 N.pl3 111  C111        0.0000
    648  C5         4.4790   -5.7230  -15.3470 C.ar  111  C111        0.0000
    649  C6         4.2170   -4.4110  -15.2190 C.ar  111  C111        0.0000
    650  OP1       -1.2450   -3.2040  -16.0720 O.2   111  C111       -0.5000
    651  OP2        0.8700   -4.2380  -15.0910 O.co2 111  C111       -0.5000
    652  P          4.2600   -0.0980  -19.3220 P.3   112  C112        0.0000
    653  C5'        6.6910    0.9290  -19.1400 C.3   112  C112        0.0000
    654  O5'        5.8400   -0.1690  -19.5100 O.3   112  C112        0.0000
    655  C4'        8.1280    0.4780  -19.1810 C.3   112  C112        0.0000
    656  O4'        8.3310   -0.5260  -18.1470 O.3   112  C112        0.0000
    657  C3'        8.5620   -0.2170  -20.4660 C.3   112  C112        0.0000
    658  O3'        8.9620    0.6900  -21.4870 O.3   112  C112        0.0000
    659  C2'        9.7350   -1.0580  -19.9800 C.3   112  C112        0.0000
    660  O2'       10.8740   -0.2650  -19.7090 O.3   112  C112        0.0000
    661  C1'        9.2190   -1.5250  -18.6210 C.3   112  C112        0.0000
    662  N1         8.5000   -2.8350  -18.6380 N.ar  112  C112        0.0000
    663  C2         9.2840   -4.0040  -18.6310 C.ar  112  C112        0.0000
    664  O2        10.5160   -3.9090  -18.6470 O.2   112  C112        0.0000
    665  N3         8.6910   -5.2170  -18.6070 N.ar  112  C112        0.0000
    666  C4         7.3600   -5.3320  -18.5940 C.ar  112  C112        0.0000
    667  N4         6.8720   -6.5820  -18.5810 N.pl3 112  C112        0.0000
    668  C5         6.5160   -4.1640  -18.6060 C.ar  112  C112        0.0000
    669  C6         7.1230   -2.9570  -18.6170 C.ar  112  C112        0.0000
    670  OP1        3.7500    1.1450  -19.9730 O.2   112  C112       -0.5000
    671  OP2        3.6970   -1.4100  -19.6950 O.co2 112  C112       -0.5000
    672  P          8.7270    0.3240  -23.0380 P.3   113  U113        0.0000
    673  C5'       11.3270   -0.1670  -23.1070 C.3   113  U113        0.0000
    674  O5'        9.9880   -0.5510  -23.4570 O.3   113  U113        0.0000
    675  C4'       12.2210   -1.3770  -23.1970 C.3   113  U113        0.0000
    676  O4'       11.9090   -2.2910  -22.1110 O.3   113  U113        0.0000
    677  C3'       12.0400   -2.2320  -24.4410 C.3   113  U113        0.0000
    678  O3'       12.7270   -1.7210  -25.5690 O.3   113  U113        0.0000
    679  C2'       12.6120   -3.5620  -23.9810 C.3   113  U113        0.0000
    680  O2'       14.0210   -3.5190  -23.8890 O.3   113  U113        0.0000
    681  C1'       12.0660   -3.6290  -22.5560 C.3   113  U113        0.0000
    682  N1        10.7610   -4.3110  -22.4350 N.ar  113  U113        0.0000
    683  C2        10.7380   -5.6950  -22.4940 C.ar  113  U113        0.0000
    684  O2        11.7430   -6.3630  -22.6820 O.2   113  U113        0.0000
    685  N3         9.4940   -6.2750  -22.3250 N.ar  113  U113        0.0000
    686  C4         8.2940   -5.6150  -22.1140 C.ar  113  U113        0.0000
    687  O4         7.2480   -6.2670  -21.9920 O.2   113  U113        0.0000
    688  C5         8.4090   -4.1800  -22.0670 C.ar  113  U113        0.0000
    689  C6         9.6050   -3.5970  -22.2180 C.ar  113  U113        0.0000
    690  OP1        8.7470    1.5890  -23.7930 O.2   113  U113       -0.5000
    691  OP2        7.5650   -0.5900  -23.1730 O.co2 113  U113       -0.5000
    692  P         12.1060   -1.9320  -27.0320 P.3   114  C114        0.0000
    693  C5'       13.9520   -3.7780  -27.3890 C.3   114  C114        0.0000
    694  O5'       12.5610   -3.4090  -27.4380 O.3   114  C114        0.0000
    695  C4'       14.1020   -5.2800  -27.2970 C.3   114  C114        0.0000
    696  O4'       13.5120   -5.7550  -26.0560 O.3   114  C114        0.0000
    697  C3'       13.4080   -6.0960  -28.3810 C.3   114  C114        0.0000
    698  O3'       14.1590   -6.1740  -29.5940 O.3   114  C114        0.0000
    699  C2'       13.2600   -7.4540  -27.6990 C.3   114  C114        0.0000
    700  O2'       14.4140   -8.2730  -27.7260 O.3   114  C114        0.0000
    701  C1'       12.9260   -7.0340  -26.2640 C.3   114  C114        0.0000
    702  N1        11.4590   -6.9280  -26.0420 N.ar  114  C114        0.0000
    703  C2        10.7450   -8.1040  -25.7710 C.ar  114  C114        0.0000
    704  O2        11.3750   -9.1770  -25.7140 O.2   114  C114        0.0000
    705  N3         9.3970   -8.0370  -25.5890 N.ar  114  C114        0.0000
    706  C4         8.7560   -6.8690  -25.6690 C.ar  114  C114        0.0000
    707  N4         7.4300   -6.8580  -25.4780 N.pl3 114  C114        0.0000
    708  C5         9.4560   -5.6550  -25.9540 C.ar  114  C114        0.0000
    709  C6        10.7880   -5.7280  -26.1390 C.ar  114  C114        0.0000
    710  OP1       12.8230   -0.9480  -27.8880 O.2   114  C114       -0.5000
    711  OP2       10.6210   -1.8860  -26.9240 O.co2 114  C114       -0.5000
    712  P         13.4190   -6.5030  -30.9880 P.3   115  G115        0.0000
    713  C5'       13.9740   -9.0860  -30.7400 C.3   115  G115        0.0000
    714  O5'       12.9970   -8.0390  -30.9160 O.3   115  G115        0.0000
    715  C4'       13.2940  -10.4360  -30.7050 C.3   115  G115        0.0000
    716  O4'       12.6290  -10.6170  -29.4250 O.3   115  G115        0.0000
    717  C3'       12.1840  -10.6540  -31.7190 C.3   115  G115        0.0000
    718  O3'       12.6380  -10.9320  -33.0350 O.3   115  G115        0.0000
    719  C2'       11.3840  -11.7770  -31.0690 C.3   115  G115        0.0000
    720  O2'       11.9360  -13.0830  -31.1370 O.3   115  G115        0.0000
    721  C1'       11.4140  -11.3350  -29.6100 C.3   115  G115        0.0000
    722  N1         6.5270  -11.0570  -28.2080 N.ar  115  G115        0.0000
    723  C2         7.2960  -12.1590  -28.4880 C.ar  115  G115        0.0000
    724  N2         6.6810  -13.3480  -28.3800 N.pl3 115  G115        0.0000
    725  N3         8.5700  -12.0940  -28.8470 N.ar  115  G115        0.0000
    726  C4         9.0280  -10.8370  -28.9070 C.ar  115  G115        0.0000
    727  C5         8.3410   -9.6620  -28.6580 C.ar  115  G115        0.0000
    728  C6         6.9760   -9.7420  -28.2690 C.ar  115  G115        0.0000
    729  O6         6.2010   -8.8300  -28.0010 O.2   115  G115        0.0000
    730  N7         9.1630   -8.5600  -28.8350 N.ar  115  G115        0.0000
    731  C8        10.3070   -9.0720  -29.1880 C.ar  115  G115        0.0000
    732  N9        10.3000  -10.4560  -29.2560 N.ar  115  G115        0.0000
    733  OP1       14.4860   -6.3460  -32.0150 O.2   115  G115       -0.5000
    734  OP2       12.1610   -5.7230  -31.1080 O.co2 115  G115       -0.5000
    735  P         11.6900  -10.5570  -34.2810 P.3   116  G116        0.0000
    736  C5'       10.2970  -12.7930  -33.9670 C.3   116  G116        0.0000
    737  O5'       10.3260  -11.3510  -34.0130 O.3   116  G116        0.0000
    738  C4'        8.8850  -13.3020  -33.8010 C.3   116  G116        0.0000
    739  O4'        8.4040  -12.9960  -32.4630 O.3   116  G116        0.0000
    740  C3'        7.8320  -12.6890  -34.7140 C.3   116  G116        0.0000
    741  O3'        7.8080  -13.2720  -36.0110 O.3   116  G116        0.0000
    742  C2'        6.5480  -12.9770  -33.9470 C.3   116  G116        0.0000
    743  O2'        6.0890  -14.3090  -34.0500 O.3   116  G116        0.0000
    744  C1'        7.0030  -12.7550  -32.5060 C.3   116  G116        0.0000
    745  N1         3.4480   -9.7300  -30.5550 N.ar  116  G116        0.0000
    746  C2         3.3950  -11.0660  -30.9000 C.ar  116  G116        0.0000
    747  N2         2.2400  -11.7190  -30.7110 N.pl3 116  G116        0.0000
    748  N3         4.4200  -11.7330  -31.4010 N.ar  116  G116        0.0000
    749  C4         5.5270  -10.9700  -31.5490 C.ar  116  G116        0.0000
    750  C5         5.6880   -9.6370  -31.2480 C.ar  116  G116        0.0000
    751  C6         4.5800   -8.9200  -30.6930 C.ar  116  G116        0.0000
    752  O6         4.5310   -7.7360  -30.3570 O.2   116  G116        0.0000
    753  N7         6.9870   -9.2410  -31.5550 N.ar  116  G116        0.0000
    754  C8         7.5720  -10.3120  -32.0200 C.ar  116  G116        0.0000
    755  N9         6.7370  -11.3950  -32.0420 N.ar  116  G116        0.0000
    756  OP1       12.3990  -11.1190  -35.4630 O.2   116  G116       -0.5000
    757  OP2       11.4030   -9.0940  -34.2250 O.co2 116  G116       -0.5000
    758 MG         11.4110    0.6580   -8.5400 Mg      1  MG1         0.0000
    759 MG         12.1490   -1.8120  -14.7740 Mg     68  MG68        0.0000
    760 MG         13.1560   -3.4360  -17.2370 Mg     69  MG69        0.0000
    761 MG         10.5150   -9.7180   -8.8320 Mg     70  MG70        0.0000
    762 MG         21.0950    0.6790   -8.1600 Mg     71  MG71        0.0000
    763  O1        22.9590   -2.6730  -16.3060 O.2    72  SO472      -0.3300
    764  O2        21.4980   -3.8960  -17.7570 O.2    72  SO472      -0.3300
    765  O3        21.3050   -4.1310  -15.3740 O.co2  72  SO472      -0.3300
    766  O4        20.6070   -2.1160  -16.4230 O.3    72  SO472       0.0000
    767  S         21.5940   -3.2010  -16.4660 S.3    72  SO472       0.0000
    768  O1        16.6270   -4.5740  -20.7770 O.2    73  SO473      -0.3300
    769  O2        14.7290   -3.1180  -20.7390 O.2    73  SO473      -0.3300
    770  O3        14.5090   -5.4410  -20.0750 O.co2  73  SO473      -0.3300
    771  O4        15.7010   -3.9420  -18.6820 O.3    73  SO473       0.0000
    772  S         15.3780   -4.2610  -20.0780 S.3    73  SO473       0.0000
    773  O1        13.7250    2.0140   12.2910 O.2    74  SO474      -0.3300
    774  O2        11.7500    2.0250   13.6600 O.2    74  SO474      -0.3300
    775  O3        13.1000    3.9940   13.4620 O.co2  74  SO474      -0.3300
    776  O4        11.7870    3.2100   11.5710 O.3    74  SO474       0.0000
    777  S         12.5890    2.8170   12.7440 S.3    74  SO474       0.0000
    778 MG         14.3010  -11.0420  -26.8960 Mg      1  MG1         0.0000
    779  O          2.1140   -7.4280  -25.0910 O.3     2  HOH2        0.0000
    780  O         22.1160   11.7110   14.9520 O.3     4  HOH4        0.0000
    781  O          9.3570  -15.0460  -26.7850 O.3     5  HOH5        0.0000
    782  O         13.3420  -10.9480  -24.2820 O.3     8  HOH8        0.0000
    783  O          3.8980   -8.1920  -23.2500 O.3    10  HOH10       0.0000
    784  O          4.6990  -10.0200  -20.3870 O.3    12  HOH12       0.0000
    785  O         11.4510    0.7320    6.4000 O.3    15  HOH15       0.0000
    786  O         11.5770   10.1710  -14.6420 O.3    16  HOH16       0.0000
    787  O         19.0170  -11.5220  -19.5880 O.3    18  HOH18       0.0000
    788  O         20.5320   -9.3350  -13.9200 O.3    19  HOH19       0.0000
    789  O         15.3110    0.4130  -18.4870 O.3    20  HOH20       0.0000
    790  O         15.5200   -3.3000   -5.7340 O.3    26  HOH26       0.0000
    791  O         -0.8320  -13.0310  -22.4040 O.3    27  HOH27       0.0000
    792  O          1.3440    4.2580   -9.5530 O.3    28  HOH28       0.0000
    793  O          9.7010  -14.7110  -29.3830 O.3    30  HOH30       0.0000
    794  O         10.3850    1.8330    3.4400 O.3    31  HOH31       0.0000
    795  O          8.3180   10.8670  -12.5420 O.3    32  HOH32       0.0000
    796  O         12.2280   -2.3790   11.1790 O.3    35  HOH35       0.0000
    797  O         19.0790   -6.4090   11.6460 O.3    40  HOH40       0.0000
    798  O         13.1490    1.6170   16.4670 O.3    41  HOH41       0.0000
    799  O          9.3310    6.2600   -7.2760 O.3    43  HOH43       0.0000
    800  O          4.9800  -12.4650  -20.5120 O.3    44  HOH44       0.0000
    801  O          9.2100  -12.0120  -12.7120 O.3    46  HOH46       0.0000
    802  O         10.5250  -11.5780  -15.2140 O.3    47  HOH47       0.0000
    803  O         20.9150    5.6720    7.8440 O.3    76  HOH76       0.0000
    804  O         13.3790    5.1250   15.0390 O.3    77  HOH77       0.0000
    805  O         11.2660    4.1540    8.9890 O.3    78  HOH78       0.0000
    806  O         19.1500    0.2830  -15.5440 O.3    79  HOH79       0.0000
    807  O         11.0580    0.4070   -5.8200 O.3    80  HOH80       0.0000
    808  O         19.9820    3.0630  -14.1700 O.3    81  HOH81       0.0000
    809  O         20.5040   -7.5170  -10.2790 O.3    82  HOH82       0.0000
    810  O         23.6140    0.0090   -7.7260 O.3    83  HOH83       0.0000
    811  O         -0.4690   -7.9690  -24.4320 O.3    84  HOH84       0.0000
    812  O         14.5250   -0.8360   13.8540 O.3    85  HOH85       0.0000
    813  O         21.0840  -11.5650  -13.5540 O.3    86  HOH86       0.0000
    814  O         15.2100   -1.7870  -15.6880 O.3    87  HOH87       0.0000
    815  O          2.9190  -13.4920  -19.9660 O.3    88  HOH88       0.0000
    816  O         14.6930    9.6410  -11.5360 O.3    89  HOH89       0.0000
    817  O         28.3740   -5.6620  -14.1410 O.3    90  HOH90       0.0000
    818  O          3.8600   -9.0500  -18.2350 O.3    91  HOH91       0.0000
    819  O         15.4920  -10.3120  -10.0230 O.3    92  HOH92       0.0000
    820  O         22.8120   -0.3150    8.2860 O.3    93  HOH93       0.0000
    821  O          7.4910  -16.0340  -30.9000 O.3    94  HOH94       0.0000
    822  O         20.1660   -0.7640    6.1950 O.3     3  HOH3        0.0000
    823  O          4.5130   -7.7230  -10.5930 O.3     6  HOH6        0.0000
    824  O          4.8380    2.5870  -15.9150 O.3     7  HOH7        0.0000
    825  O         -1.0490   -2.5820  -18.5500 O.3     9  HOH9        0.0000
    826  O         17.2290   11.4120    6.3210 O.3    11  HOH11       0.0000
    827  O          4.6710   -6.0970  -21.6510 O.3    13  HOH13       0.0000
    828  O         21.7300    8.1560    1.5380 O.3    14  HOH14       0.0000
    829  O         14.0250    2.3680   -0.2000 O.3    17  HOH17       0.0000
    830  O          4.5360  -13.1570   -5.8800 O.3    21  HOH21       0.0000
    831  O         12.3590   -1.7900   -4.2030 O.3    22  HOH22       0.0000
    832  O          3.8020    3.5930  -18.4430 O.3    23  HOH23       0.0000
    833  O          4.0910   -6.9340  -18.4550 O.3    24  HOH24       0.0000
    834  O          7.6980   -6.3340  -31.6140 O.3    25  HOH25       0.0000
    835  O          6.0970   -4.1620  -25.2960 O.3    29  HOH29       0.0000
    836  O         20.6570  -13.1720    0.5980 O.3    33  HOH33       0.0000
    837  O          0.9980   -1.1120   -6.9080 O.3    34  HOH34       0.0000
    838  O          2.5230   -5.4910   -2.8080 O.3    36  HOH36       0.0000
    839  O          1.1320    1.1610  -20.8700 O.3    37  HOH37       0.0000
    840  O          1.7910    1.9630  -11.1230 O.3    38  HOH38       0.0000
    841  O         13.2930  -13.7650  -35.9670 O.3    39  HOH39       0.0000
    842  O          5.3500   -2.2950  -22.0250 O.3    42  HOH42       0.0000
    843  O         14.3330  -16.1500  -35.9180 O.3    45  HOH45       0.0000
    844  O          1.7240   -5.7420  -17.5670 O.3    49  HOH49       0.0000
    845  O         13.3450    8.6720   -2.1560 O.3    56  HOH56       0.0000
    846  O          3.0580   -9.8410  -16.7000 O.3    58  HOH58       0.0000
    847  O         12.4230   -4.3270   -5.7250 O.3    59  HOH59       0.0000
    848  O         -4.0510   -3.9350  -16.8920 O.3    60  HOH60       0.0000
    849  O         12.0010    5.2810    4.4110 O.3    62  HOH62       0.0000
    850  O          3.9090   -9.4200  -15.0080 O.3    66  HOH66       0.0000
    851  O         11.5170  -16.7640  -34.8460 O.3    67  HOH67       0.0000
    852  O         13.0830   -1.1090  -19.2300 O.3    69  HOH69       0.0000
    853  O         14.7180   -5.9820  -23.0670 O.3    70  HOH70       0.0000
    854  O         14.7970   -9.2380   -8.0550 O.3    71  HOH71       0.0000
    855  O         11.9670   -9.4390    2.9400 O.3    73  HOH73       0.0000
    856  O         17.5180   -6.0200    4.2350 O.3    74  HOH74       0.0000
    857  O          1.4130   -8.8680  -13.3750 O.3    79  HOH79       0.0000
    858  O         11.5140    3.8460    6.3960 O.3    81  HOH81       0.0000
    859  O         11.0510    2.6880  -20.5060 O.3   117  HOH117      0.0000
@<TRIPOS>BOND
     1   191   758    1
     2   192   759    1
     3   250   758    1
     4   586   761    1
     5   700   778    1
     6   758   807    1
     7   760   771    1
     8   762   810    1
     9   763   767    2
    10   764   767    2
    11   765   767    1
    12   766   767    1
    13   768   772    2
    14   769   772    2
    15   770   772    1
    16   771   772    1
    17   773   777    2
    18   774   777    2
    19   775   777    1
    20   776   777    1
    21   778   782    1
    22   741   740    1
    23   756   735    2
    24   740   742    1
    25   740   738    1
    26   735   757    1
    27   735   737    1
    28   735   718    1
    29   743   742    1
    30   737   736    1
    31   736   738    1
    32   742   744    1
    33   738   739    1
    34   718   717    1
    35   744   739    1
    36   744   755    1
    37   755   754   ar
    38   755   749   ar
    39   754   753   ar
    40   733   712    2
    41   717   719    1
    42   717   715    1
    43   753   750   ar
    44   749   748   ar
    45   749   750   ar
    46   748   746   ar
    47   750   751   ar
    48   720   719    1
    49   734   712    1
    50   719   721    1
    51   712   714    1
    52   712   698    1
    53   714   713    1
    54   746   747    1
    55   746   745   ar
    56   713   715    1
    57   715   716    1
    58   751   745   ar
    59   751   752    2
    60   721   716    1
    61   721   732    1
    62   698   697    1
    63   732   731   ar
    64   732   726   ar
    65   731   730   ar
    66   726   725   ar
    67   726   727   ar
    68   725   723   ar
    69   730   727   ar
    70   727   728   ar
    71   723   724    1
    72   723   722   ar
    73   697   699    1
    74   697   695    1
    75   728   722   ar
    76   728   729    2
    77    12    11    2
    78   710   692    2
    79   700   699    1
    80   699   701    1
    81    11    13   ar
    82    11    10   ar
    83   694   693    1
    84   694   692    1
    85    13    14   ar
    86   693   695    1
    87   695   696    1
    88     9     4    1
    89     9    10    1
    90     9     7    1
    91     4     3    1
    92    10    17   ar
    93   692   711    1
    94   692   678    1
    95    14    15    1
    96    14    16   ar
    97    17    16   ar
    98     8     7    1
    99     2     1    1
   100   701   696    1
   101   701   702    1
   102   709   702   ar
   103   709   708   ar
   104   702   703   ar
   105     7     5    1
   106   708   706   ar
   107    30    29    1
   108     3     1    1
   109     3     5    1
   110   703   704    2
   111   703   705   ar
   112   706   705   ar
   113   706   707    1
   114   678   677    1
   115    29    31   ar
   116    29    28   ar
   117    31    32   ar
   118    22    27    1
   119    22    21    1
   120    28    34   ar
   121    27    38    1
   122    27    25    1
   123     5     6    1
   124    32    38   ar
   125    32    33   ar
   126    38    37   ar
   127    34    33   ar
   128    34    35    2
   129    26    25    1
   130    33    36   ar
   131   677   679    1
   132   677   675    1
   133    37    36   ar
   134    21    19    1
   135    21    23    1
   136    25    23    1
   137   679   680    1
   138   679   681    1
   139     6    18    1
   140   690   672    2
   141    19    20    1
   142   674   673    1
   143   674   672    1
   144   675   673    1
   145   675   676    1
   146   691   672    1
   147    23    24    1
   148   672   658    1
   149    20    18    1
   150    45    50    1
   151    45    44    1
   152    53    52   ar
   153    53    54   ar
   154    50    60    1
   155    50    48    1
   156    52    51   ar
   157   684   683    2
   158    18    40    2
   159    18    39    1
   160   681   682    1
   161   681   676    1
   162   683   682   ar
   163   683   685   ar
   164    49    48    1
   165   682   689   ar
   166    54    60   ar
   167    54    55   ar
   168   685   686   ar
   169    60    59   ar
   170   689   688   ar
   171    51    56   ar
   172    24    41    1
   173   686   688   ar
   174   686   687    2
   175    44    42    1
   176    44    46    1
   177    55    56   ar
   178    55    58   ar
   179    48    46    1
   180    56    57    1
   181    59    58   ar
   182    42    43    1
   183   658   657    1
   184    43    41    1
   185    46    47    1
   186    41    62    2
   187    41    61    1
   188    67    72    1
   189    67    66    1
   190   657   659    1
   191   657   655    1
   192    72    83    1
   193    72    70    1
   194    47    63    1
   195   659   660    1
   196   659   661    1
   197   670   652    2
   198    76    77   ar
   199    76    74   ar
   200    83    77   ar
   201    83    82   ar
   202   671   652    1
   203    75    74    1
   204    66    64    1
   205    66    68    1
   206    71    70    1
   207   654   652    1
   208   654   653    1
   209    77    78   ar
   210    74    73   ar
   211    64    65    1
   212   652   638    1
   213    82    81   ar
   214   655   653    1
   215   655   656    1
   216    70    68    1
   217    78    81   ar
   218    78    79   ar
   219    73    79   ar
   220    65    63    1
   221    79    80    2
   222    63    84    2
   223    63    85    1
   224   664   663    2
   225   662   663   ar
   226   662   661    1
   227   662   669   ar
   228   663   665   ar
   229   661   656    1
   230   669   668   ar
   231   665   666   ar
   232   668   666   ar
   233   666   667    1
   234    68    69    1
   235   197   202    1
   236   197   196    1
   237   638   637    1
   238   202   212    1
   239   202   200    1
   240   196   194    1
   241   196   198    1
   242   201   200    1
   243    69    86    1
   244   194   195    1
   245    90    95    1
   246    90    89    1
   247   760   759    1
   248   212   211   ar
   249   212   206   ar
   250   637   639    1
   251   637   635    1
   252   200   198    1
   253   214   193    2
   254   211   210   ar
   255    95   106    1
   256    95    93    1
   257   205   206   ar
   258   205   204   ar
   259   206   207   ar
   260    87    89    1
   261    87    88    1
   262   633   635    1
   263   633   634    1
   264    89    91    1
   265   195   193    1
   266   198   199    1
   267   106   105   ar
   268   106   100   ar
   269   105   104   ar
   270   213   193    1
   271   204   203   ar
   272   650   632    2
   273   210   207   ar
   274   100    99   ar
   275   100   101   ar
   276   639   640    1
   277   639   641    1
   278    99    97   ar
   279    86    88    1
   280    86   108    2
   281    86   107    1
   282   193   179    1
   283   199   215    1
   284   207   208   ar
   285   635   636    1
   286   104   101   ar
   287    94    93    1
   288   101   102   ar
   289    97    98    1
   290    97    96   ar
   291   203   208   ar
   292   634   632    1
   293    93    91    1
   294   208   209    1
   295   102    96   ar
   296   102   103    2
   297   647   646    1
   298   648   646   ar
   299   648   649   ar
   300   646   645   ar
   301   649   642   ar
   302   632   651    1
   303   632   615    1
   304   645   643   ar
   305    91    92    1
   306   642   643   ar
   307   642   641    1
   308   643   644    2
   309   234   215    2
   310   641   636    1
   311   215   233    1
   312   215   217    1
   313   179   178    1
   314    92   109    1
   315   147   146    1
   316   219   224    1
   317   219   218    1
   318   139   138    1
   319   615   614    1
   320   176   178    1
   321   176   174    1
   322   176   177    1
   323   224   225    1
   324   224   222    1
   325   217   216    1
   326   223   222    1
   327   178   180    1
   328   148   145   ar
   329   148   149   ar
   330   174   175    1
   331   146   145   ar
   332   146   141   ar
   333   227   226    2
   334   145   144   ar
   335   218   216    1
   336   218   220    1
   337   225   226   ar
   338   225   232   ar
   339   149   150   ar
   340   141   142   ar
   341   109   130    2
   342   109   129    1
   343   109   111    1
   344   226   228   ar
   345   171   153    2
   346   222   220    1
   347   177   182    1
   348   138   140    1
   349   138   136    1
   350   232   231   ar
   351   614   616    1
   352   614   612    1
   353   144   150   ar
   354   144   143   ar
   355   150   140    1
   356   192   173    1
   357   142   143   ar
   358   228   229   ar
   359   616   617    1
   360   616   618    1
   361   175   173    1
   362   621   620    1
   363   182   180    1
   364   182   183    1
   365   180   181    1
   366   231   229   ar
   367   220   221    1
   368   110   111    1
   369   110   112    1
   370   619   620   ar
   371   619   625   ar
   372   229   230    1
   373   140   135    1
   374   620   622   ar
   375   626   625    2
   376   625   624   ar
   377   221   235    1
   378   172   153    1
   379   153   137    1
   380   153   155    1
   381   136   137    1
   382   136   134    1
   383   622   623   ar
   384   624   623   ar
   385   624   627   ar
   386   173   191    1
   387   173   159    1
   388   623   629   ar
   389   630   609    2
   390   611   610    1
   391   611   609    1
   392   612   610    1
   393   612   613    1
   394   631   609    1
   395   627   628   ar
   396   629   628   ar
   397   629   618    1
   398   185   184    2
   399   618   613    1
   400   609   593    1
   401   183   184   ar
   402   183   190   ar
   403   112   113    1
   404   112   114    1
   405   239   238    1
   406   239   244    1
   407   135   134    1
   408   236   238    1
   409   236   237    1
   410   134   132    1
   411   113   118    1
   412   155   154    1
   413   159   158    1
   414   184   186   ar
   415   132   133    1
   416   235   253    2
   417   235   237    1
   418   235   254    1
   419   133   131    1
   420   238   240    1
   421   190   189   ar
   422   154   156    1
   423   244   245    1
   424   244   242    1
   425   252   245   ar
   426   252   251   ar
   427   158   156    1
   428   158   160    1
   429   114   115    1
   430   114   116    1
   431   245   246   ar
   432   251   249   ar
   433   593   592    1
   434   246   247    2
   435   246   248   ar
   436   186   187   ar
   437   118   128    1
   438   118   116    1
   439   121   120   ar
   440   121   122   ar
   441   249   248   ar
   442   249   250    1
   443   120   119   ar
   444   156   157    1
   445   128   122   ar
   446   128   127   ar
   447   122   123   ar
   448   119   124   ar
   449   127   126   ar
   450   123   124   ar
   451   123   126   ar
   452   124   125    1
   453   189   187   ar
   454   115   131    1
   455   116   117    1
   456   243   242    1
   457   603   602    1
   458   131   151    2
   459   131   152    1
   460   240   242    1
   461   240   241    1
   462   592   594    1
   463   592   590    1
   464   187   188    2
   465   160   161    1
   466   160   162    1
   467   602   597   ar
   468   602   601   ar
   469   597   598   ar
   470   594   595    1
   471   594   596    1
   472   601   604   ar
   473   601   600   ar
   474   608   587    2
   475   604   605   ar
   476   598   599   ar
   477   170   169   ar
   478   170   163   ar
   479   241   255    1
   480   157   162    1
   481   169   167   ar
   482   600   599   ar
   483   600   606   ar
   484   607   587    1
   485   605   606   ar
   486   589   587    1
   487   589   588    1
   488   606   596    1
   489   587   573    1
   490   162   163    1
   491   163   164   ar
   492   590   588    1
   493   590   591    1
   494   532   531    1
   495   596   591    1
   496   167   168    1
   497   167   166   ar
   498   536   535    2
   499   164   166   ar
   500   164   165    2
   501   255   277    2
   502   255   257    1
   503   255   276    1
   504   586   567    1
   505   565   544    2
   506   273   274   ar
   507   273   270   ar
   508   582   581    1
   509   274   275   ar
   510   531   533    1
   511   531   529    1
   512   257   256    1
   513   573   572    1
   514   259   264    1
   515   259   258    1
   516   272   271    2
   517   585   567    2
   518   270   271   ar
   519   270   269   ar
   520   566   544    1
   521   271   265   ar
   522   533   528    1
   523   533   534    1
   524   275   269   ar
   525   275   264    1
   526   530   544    1
   527   530   529    1
   528   581   583   ar
   529   581   580   ar
   530   269   268   ar
   531   264   262    1
   532   544   546    1
   533   567   569    1
   534   567   550    1
   535   583   584   ar
   536   572   574    1
   537   572   570    1
   538   265   266   ar
   539   535   534   ar
   540   535   537   ar
   541   268   266   ar
   542   528   527    1
   543   580   578   ar
   544   266   267    1
   545   529   527    1
   546   569   568    1
   547   527   525    1
   548   584   577   ar
   549   256   258    1
   550   574   575    1
   551   574   576    1
   552   258   260    1
   553   534   541   ar
   554   578   577   ar
   555   578   579    2
   556   577   576    1
   557   537   538   ar
   558   568   570    1
   559   570   571    1
   560   550   549    1
   561   262   263    1
   562   262   260    1
   563   546   545    1
   564   576   571    1
   565   525   526    1
   566   260   261    1
   567   549   547    1
   568   549   551    1
   569   545   547    1
   570   541   540   ar
   571   562   563   ar
   572   562   559   ar
   573   293   292    2
   574   538   540   ar
   575   538   539    2
   576   561   560    2
   577   563   564   ar
   578   292   294   ar
   579   292   291   ar
   580   547   548    1
   581   526   524    1
   582   560   559   ar
   583   560   554   ar
   584   559   558   ar
   585   294   295   ar
   586   509   508    1
   587   261   278    1
   588   291   289   ar
   589   551   552    1
   590   551   553    1
   591   295   288   ar
   592   289   288   ar
   593   289   290    2
   594   564   558   ar
   595   564   553    1
   596   558   557   ar
   597   554   555   ar
   598   288   287    1
   599   282   287    1
   600   282   281    1
   601   548   553    1
   602   523   501    2
   603   508   506    1
   604   508   510    1
   605   287   285    1
   606   555   557   ar
   607   555   556    1
   608   479   461    2
   609   519   520   ar
   610   519   516   ar
   611   297   278    2
   612   524   543    2
   613   524   507    1
   614   524   542    1
   615   520   521   ar
   616   500   481    2
   617   278   280    1
   618   278   296    1
   619   506   507    1
   620   506   504    1
   621   280   279    1
   622   518   517    2
   623   499   481    1
   624   516   517   ar
   625   516   515   ar
   626   279   281    1
   627   522   501    1
   628   281   283    1
   629   521   510    1
   630   521   515   ar
   631   501   503    1
   632   501   487    1
   633   480   461    1
   634   459   438    2
   635   503   502    1
   636   517   511   ar
   637   510   505    1
   638   461   463    1
   639   461   444    1
   640   515   514   ar
   641   481   483    1
   642   481   467    1
   643   285   286    1
   644   285   283    1
   645   313   312    1
   646   511   512   ar
   647   514   512   ar
   648   483   482    1
   649   504   502    1
   650   504   505    1
   651   283   284    1
   652   512   513    1
   653   312   311   ar
   654   312   314   ar
   655   463   462    1
   656   444   443    1
   657   311   309   ar
   658   438   460    1
   659   438   440    1
   660   438   423    1
   661   496   495    1
   662   497   495   ar
   663   497   498   ar
   664   487   486    1
   665   314   315   ar
   666   467   466    1
   667   486   488    1
   668   486   484    1
   669   495   494   ar
   670   309   310    2
   671   309   308   ar
   672   462   464    1
   673   498   491   ar
   674   440   439    1
   675   439   441    1
   676   482   484    1
   677   315   308   ar
   678   466   464    1
   679   466   468    1
   680   284   298    1
   681   308   307    1
   682   423   422    1
   683   443   441    1
   684   443   445    1
   685   488   490    1
   686   488   489    1
   687   494   492   ar
   688   484   485    1
   689   302   307    1
   690   302   301    1
   691   464   465    1
   692   441   442    1
   693   491   492   ar
   694   491   490    1
   695   477   478   ar
   696   477   475   ar
   697   307   305    1
   698   478   471   ar
   699   492   493    2
   700   317   298    2
   701   476   475    2
   702   468   470    1
   703   468   469    1
   704   333   332    2
   705   490   485    1
   706   475   474   ar
   707   298   300    1
   708   298   316    1
   709   422   420    1
   710   422   424    1
   711   418   420    1
   712   418   419    1
   713   445   446    1
   714   445   447    1
   715   331   332   ar
   716   331   329   ar
   717   465   470    1
   718   471   470    1
   719   471   472   ar
   720   332   334   ar
   721   300   299    1
   722   299   301    1
   723   301   303    1
   724   420   421    1
   725   330   329    2
   726   442   447    1
   727   474   472   ar
   728   329   328   ar
   729   305   306    1
   730   305   303    1
   731   425   424    1
   732   472   473    2
   733   334   335   ar
   734   424   426    1
   735   457   458   ar
   736   457   456   ar
   737   447   458    1
   738   328   335   ar
   739   328   327    1
   740   303   304    1
   741   458   452   ar
   742   456   453   ar
   743   327   322    1
   744   327   325    1
   745   421   426    1
   746   322   321    1
   747   353   352    2
   748   452   453   ar
   749   452   451   ar
   750   453   454   ar
   751   426   437    1
   752   304   318    1
   753   352   351   ar
   754   352   354   ar
   755   351   349   ar
   756   451   449   ar
   757   436   437   ar
   758   436   435   ar
   759   437   431   ar
   760   454   455    2
   761   454   448   ar
   762   325   326    1
   763   325   323    1
   764   350   349    2
   765   349   348   ar
   766   354   355   ar
   767   321   319    1
   768   321   323    1
   769   435   432   ar
   770   449   448   ar
   771   449   450    1
   772   431   430   ar
   773   431   432   ar
   774   320   319    1
   775   320   318    1
   776   337   318    2
   777   430   428   ar
   778   348   355   ar
   779   348   347    1
   780   432   433   ar
   781   318   336    1
   782   323   324    1
   783   347   342    1
   784   347   345    1
   785   428   429    1
   786   428   427   ar
   787   433   427   ar
   788   433   434    2
   789   342   341    1
   790   371   369   ar
   791   371   372   ar
   792   370   369    2
   793   373   372    1
   794   324   338    1
   795   369   368   ar
   796   372   374   ar
   797   345   346    1
   798   345   343    1
   799   390   389    2
   800   341   339    1
   801   341   343    1
   802   340   339    1
   803   340   338    1
   804   391   389   ar
   805   391   392   ar
   806   368   367    1
   807   368   375   ar
   808   357   338    2
   809   374   375   ar
   810   389   388   ar
   811   338   356    1
   812   393   392    1
   813   367   362    1
   814   367   365    1
   815   343   344    1
   816   392   394   ar
   817   410   409    2
   818   362   361    1
   819   388   387    1
   820   388   395   ar
   821   366   365    1
   822   387   382    1
   823   387   385    1
   824   411   409   ar
   825   411   412   ar
   826   409   408   ar
   827   365   363    1
   828   394   395   ar
   829   344   358    1
   830   382   381    1
   831   386   385    1
   832   413   412    1
   833   412   414   ar
   834   408   407    1
   835   408   415   ar
   836   407   402    1
   837   407   405    1
   838   385   383    1
   839   402   401    1
   840   361   363    1
   841   361   359    1
   842   406   405    1
   843   414   415   ar
   844   363   364    1
   845   377   358    2
   846   360   358    1
   847   360   359    1
   848   381   383    1
   849   381   379    1
   850   358   376    1
   851   405   403    1
   852   401   399    1
   853   401   403    1
   854   383   384    1
   855   379   380    1
   856   364   378    1
   857   399   400    1
   858   380   378    1
   859   403   404    1
   860   384   398    1
   861   400   398    1
   862   378   397    2
   863   378   396    1
   864   398   417    2
   865   398   416    1
