2o3x_lig
 OpenBabel02221317003D

 31 33  0  0  1  0  0  0  0  0999 V2000
   20.3660    9.3240    5.6650 C   0  0  2  0  0  0  0  0  0  0  0  0
   21.2440    8.2520    5.2970 O   0  0  0  0  0  0  0  0  0  0  0  0
   24.6070    6.2840    7.0620 C   0  0  2  0  0  0  0  0  0  0  0  0
   25.8320    5.9870    7.8370 N   0  0  0  0  0  0  0  0  0  0  0  0
   20.6740    7.4380    9.2900 C   0  0  1  0  0  0  0  0  0  0  0  0
   18.9460    9.0160    5.0930 C   0  0  2  0  0  0  0  0  0  0  0  0
   18.5110    7.6280    5.3930 N   0  0  0  0  0  0  0  0  0  0  0  0
   24.8810    7.2820    5.8880 C   0  0  0  0  0  0  0  0  0  0  0  0
   20.1540    8.4770   10.3370 C   0  0  2  0  0  0  0  0  0  0  0  0
   21.0820    8.8310   11.3990 O   0  0  0  0  0  0  0  0  0  0  0  0
   18.8940    9.2120    3.5660 C   0  0  1  0  0  0  0  0  0  0  0  0
   17.5960    8.9790    3.0810 O   0  0  0  0  0  0  0  0  0  0  0  0
   23.5330    7.5090    5.1110 C   0  0  2  0  0  0  0  0  0  0  0  0
   23.7140    8.4400    3.9570 N   0  0  0  0  0  0  0  0  0  0  0  0
   18.8940    7.7440   10.7660 C   0  0  2  0  0  0  0  0  0  0  0  0
   19.2050    6.6730   11.7220 O   0  0  0  0  0  0  0  0  0  0  0  0
   19.3500   10.6180    3.2140 C   0  0  2  0  0  0  0  0  0  0  0  0
   19.2820   10.8050    1.8370 O   0  0  0  0  0  0  0  0  0  0  0  0
   22.4510    8.1020    6.0580 C   0  0  2  0  0  0  0  0  0  0  0  0
   18.3270    7.1720    9.4720 C   0  0  2  0  0  0  0  0  0  0  0  0
   19.5200    6.7190    8.8380 O   0  0  0  0  0  0  0  0  0  0  0  0
   20.8040   10.8450    3.7160 C   0  0  2  0  0  0  0  0  0  0  0  0
   20.8640   10.6330    5.1430 O   0  0  0  0  0  0  0  0  0  0  0  0
   22.1820    7.2280    7.2990 C   0  0  2  0  0  0  0  0  0  0  0  0
   21.3410    8.0550    8.1780 O   0  0  0  0  0  0  0  0  0  0  0  0
   17.5790    8.2070    8.5650 C   0  0  0  0  0  0  0  0  0  0  0  0
   16.4820    8.7760    9.2740 N   0  0  0  0  0  0  0  0  0  0  0  0
   21.3100   12.2360    3.4120 C   0  0  0  0  0  0  0  0  0  0  0  0
   22.6900   12.2760    3.3680 O   0  0  0  0  0  0  0  0  0  0  0  0
   23.5520    6.8610    8.0230 C   0  0  1  0  0  0  0  0  0  0  0  0
   23.3560    5.8740    9.0470 O   0  0  0  0  0  0  0  0  0  0  0  0
  1  2  1  6  0  0  0
  1  6  1  0  0  0  0
  1 23  1  0  0  0  0
  3  4  1  1  0  0  0
  3  8  1  0  0  0  0
  3 30  1  0  0  0  0
  5  9  1  0  0  0  0
  5 21  1  0  0  0  0
  5 25  1  6  0  0  0
  6  7  1  6  0  0  0
  6 11  1  0  0  0  0
  8 13  1  0  0  0  0
  9 10  1  1  0  0  0
  9 15  1  0  0  0  0
 11 12  1  1  0  0  0
 11 17  1  0  0  0  0
 13 14  1  1  0  0  0
 13 19  1  0  0  0  0
 15 16  1  6  0  0  0
 15 20  1  0  0  0  0
 17 18  1  6  0  0  0
 17 22  1  0  0  0  0
 19  2  1  6  0  0  0
 19 24  1  0  0  0  0
 20 21  1  0  0  0  0
 20 26  1  6  0  0  0
 22 23  1  0  0  0  0
 22 28  1  1  0  0  0
 24 25  1  1  0  0  0
 24 30  1  0  0  0  0
 26 27  1  0  0  0  0
 28 29  1  0  0  0  0
 30 31  1  6  0  0  0
M  END
$$$$
